CHEMBL1862_lig330
                    3D
 Schrodinger Suite 2021-1.
 47 50  0  0  1  0            999 V2000
    9.7295   12.8224    3.2319 C   0  0  0  0  0  0
   10.6553   13.5386    3.9954 C   0  0  0  0  0  0
   12.0257   13.3196    3.8125 C   0  0  0  0  0  0
   12.4781   12.3614    2.8939 C   0  0  0  0  0  0
   11.5331   11.6331    2.1591 C   0  0  0  0  0  0
   10.1689   11.8682    2.3154 C   0  0  0  0  0  0
   13.8282   12.0338    2.7085 N   0  0  0  0  0  0
   15.0366   12.6731    3.0105 C   0  0  0  0  0  0
   15.0545   13.8382    3.7095 N   0  0  0  0  0  0
   17.3433   12.5997    2.8017 C   0  0  0  0  0  0
   16.1387   12.0331    2.5505 N   0  0  0  0  0  0
   17.4567   13.8023    3.4922 C   0  0  0  0  0  0
   16.2771   14.3888    3.9681 C   0  0  0  0  0  0
   16.3763   15.5409    4.8035 N   0  0  0  0  0  0
   17.5576   16.1251    5.2024 C   0  0  0  0  0  0
   18.7649   15.5619    4.5802 C   0  0  0  0  0  0
   18.7223   14.4667    3.7881 C   0  0  0  0  0  0
   15.1171   16.1025    5.3240 C   0  0  0  0  0  0
   17.6222   17.0637    6.0027 O   0  0  0  0  0  0
   20.0598   16.2522    4.7900 C   0  0  0  0  0  0
   20.4115   17.3532    3.9851 C   0  0  0  0  0  0
   21.6178   18.0252    4.1998 C   0  0  0  0  0  0
   22.4877   17.6056    5.2040 C   0  0  0  0  0  0
   22.1564   16.5056    5.9941 C   0  0  0  0  0  0
   20.9525   15.8276    5.7930 C   0  0  0  0  0  0
   20.5916   14.4673    6.8028 Cl  0  0  0  0  0  0
   19.3659   17.9113    2.7168 Cl  0  0  0  0  0  0
   10.1689   14.5029    5.0607 C   0  0  0  0  0  0
   10.1638   13.8782    6.4643 C   0  0  0  0  0  0
    8.6703   12.9736    3.3719 H   0  0  0  0  0  0
   12.7153   13.8634    4.4332 H   0  0  0  0  0  0
   11.8526   10.8727    1.4606 H   0  0  0  0  0  0
    9.4521   11.2930    1.7463 H   0  0  0  0  0  0
   13.9491   11.1238    2.2755 H   0  0  0  0  0  0
   18.2084   12.0847    2.4119 H   0  0  0  0  0  0
   19.6321   14.1124    3.3200 H   0  0  0  0  0  0
   15.2649   17.0106    5.9060 H   0  0  0  0  0  0
   14.4431   16.3500    4.5018 H   0  0  0  0  0  0
   14.6128   15.3759    5.9619 H   0  0  0  0  0  0
   21.8809   18.8728    3.5847 H   0  0  0  0  0  0
   23.4202   18.1263    5.3670 H   0  0  0  0  0  0
   22.8405   16.1793    6.7644 H   0  0  0  0  0  0
    9.1630   14.8331    4.8059 H   0  0  0  0  0  0
   10.7924   15.3958    5.0387 H   0  0  0  0  0  0
    9.7628   14.5760    7.2018 H   0  0  0  0  0  0
   11.1709   13.6044    6.7829 H   0  0  0  0  0  0
    9.5471   12.9792    6.5000 H   0  0  0  0  0  0
  1  6  1  0  0  0
  1  2  2  0  0  0
  1 30  1  0  0  0
  2  3  1  0  0  0
  2 28  1  0  0  0
  3  4  2  0  0  0
  3 31  1  0  0  0
  4  7  1  0  0  0
  4  5  1  0  0  0
  5  6  2  0  0  0
  5 32  1  0  0  0
  6 33  1  0  0  0
  7  8  1  0  0  0
  7 34  1  0  0  0
  8  9  1  0  0  0
  8 11  2  0  0  0
  9 13  2  0  0  0
 10 12  2  0  0  0
 10 11  1  0  0  0
 10 35  1  0  0  0
 12 17  1  0  0  0
 12 13  1  0  0  0
 13 14  1  0  0  0
 14 15  1  0  0  0
 14 18  1  0  0  0
 15 16  1  0  0  0
 15 19  2  0  0  0
 16 17  2  0  0  0
 16 20  1  0  0  0
 17 36  1  0  0  0
 18 37  1  0  0  0
 18 38  1  0  0  0
 18 39  1  0  0  0
 20 21  2  0  0  0
 20 25  1  0  0  0
 21 22  1  0  0  0
 21 27  1  0  0  0
 22 23  2  0  0  0
 22 40  1  0  0  0
 23 24  1  0  0  0
 23 41  1  0  0  0
 24 25  2  0  0  0
 24 42  1  0  0  0
 25 26  1  0  0  0
 28 29  1  0  0  0
 28 43  1  0  0  0
 28 44  1  0  0  0
 29 45  1  0  0  0
 29 46  1  0  0  0
 29 47  1  0  0  0
M  END
> <s_m_entry_id>
6076

> <s_m_entry_name>
dock_pv.2

> <s_m_Source_Path>
/home/csk/Desktop/cluster/DUD-E-result/abl1

> <s_m_Source_File>
dock_pv.maegz

> <i_m_Source_File_Index>
2

> <chembl_id>
CHEMBL565372

> <chembl_pref_name>
None

> <i_lp_mmshare_version>
53161

> <i_f3d_flags>
0

> <r_lp_tautomer_probability>
1

> <s_lp_Force_Field>
OPLS_2005

> <r_lp_Energy>
25.84257

> <b_lp_Chiralities_Consistent>
1

> <s_lp_Variant>
CHEMBL1862_lig330-1

> <s_i_glide_gridfile>
glide-grid_2hzi

> <i_i_glide_lignum>
377

> <i_i_glide_rotatable_bonds>
4

> <r_i_docking_score>
-13.1725838674932

> <r_i_glide_ligand_efficiency>
-0.454227029913557

> <r_i_glide_ligand_efficiency_sa>
-1.39552934511834

> <r_i_glide_ligand_efficiency_ln>
-3.01618767774977

> <r_i_glide_gscore>
-13.1725838674932

> <r_i_glide_lipo>
-5.14233413478011

> <r_i_glide_hbond>
-0.608

> <r_i_glide_metal>
0

> <r_i_glide_rewards>
-3.41805809914287

> <r_i_glide_evdw>
-56.9439468383789

> <r_i_glide_ecoul>
-9.2485237121582

> <r_i_glide_erotb>
0.230284265172498

> <r_i_glide_esite>
0

> <r_i_glide_emodel>
-112.323418577476

> <r_i_glide_energy>
-66.1924705505371

> <r_i_glide_einternal>
0.713346898555756

> <i_i_glide_confnum>
5

> <i_i_glide_posenum>
99

> <r_i_glide_eff_state_penalty>
0

> <s_user_duplicate_titles>
CHEMBL1862_lig330,583091

> <s_m_subgroup_title>
dock_pv

> <s_m_subgroupid>
dock_pv

> <b_m_subgroup_collapsed>
0

$$$$
CHEMBL1862_lig332
                    3D
 Schrodinger Suite 2021-1.
 43 46  0  0  1  0            999 V2000
    9.7142   12.8309    3.2162 C   0  0  0  0  0  0
   10.6309   13.5505    3.9791 C   0  0  0  0  0  0
   12.0025   13.3409    3.8188 C   0  0  0  0  0  0
   12.4648   12.3715    2.9186 C   0  0  0  0  0  0
   11.5329   11.6333    2.1782 C   0  0  0  0  0  0
   10.1656   11.8672    2.3165 C   0  0  0  0  0  0
   13.8181   12.0388    2.7510 N   0  0  0  0  0  0
   15.0278   12.6766    3.0479 C   0  0  0  0  0  0
   15.0644   13.8404    3.7552 N   0  0  0  0  0  0
   17.3289   12.5885    2.7996 C   0  0  0  0  0  0
   16.1164   12.0330    2.5646 N   0  0  0  0  0  0
   17.4608   13.7914    3.4829 C   0  0  0  0  0  0
   16.2985   14.3801    3.9928 C   0  0  0  0  0  0
   16.4295   15.5281    4.8287 N   0  0  0  0  0  0
   17.6249   16.1193    5.1770 C   0  0  0  0  0  0
   18.8079   15.5556    4.5068 C   0  0  0  0  0  0
   18.7384   14.4502    3.7319 C   0  0  0  0  0  0
   15.1920   16.0581    5.4269 C   0  0  0  0  0  0
   17.7188   17.0518    5.9837 O   0  0  0  0  0  0
   20.1124   16.2462    4.6569 C   0  0  0  0  0  0
   20.4920   17.2518    3.7484 C   0  0  0  0  0  0
   21.6855   17.9533    3.9328 C   0  0  0  0  0  0
   22.5245   17.6414    5.0001 C   0  0  0  0  0  0
   22.1824   16.6127    5.8741 C   0  0  0  0  0  0
   20.9877   15.9126    5.7055 C   0  0  0  0  0  0
   20.6265   14.6252    6.8033 Cl  0  0  0  0  0  0
   19.5082   17.6330    2.3730 Cl  0  0  0  0  0  0
   10.1699   14.4329    4.9458 N   0  0  0  0  0  0
    8.6524   12.9830    3.3416 H   0  0  0  0  0  0
   12.6893   13.9009    4.4326 H   0  0  0  0  0  0
   11.8621   10.8627    1.4947 H   0  0  0  0  0  0
    9.4577   11.2834    1.7457 H   0  0  0  0  0  0
   13.9397   11.1258    2.3225 H   0  0  0  0  0  0
   18.1843   12.0631    2.4028 H   0  0  0  0  0  0
   19.6301   14.0910    3.2336 H   0  0  0  0  0  0
   14.5283   16.4326    4.6482 H   0  0  0  0  0  0
   14.6645   15.2712    5.9672 H   0  0  0  0  0  0
   15.3640   16.8686    6.1315 H   0  0  0  0  0  0
   21.9681   18.7326    3.2402 H   0  0  0  0  0  0
   23.4486   18.1825    5.1403 H   0  0  0  0  0  0
   22.8540   16.3522    6.6807 H   0  0  0  0  0  0
    9.2027   14.3377    5.2241 H   0  0  0  0  0  0
   10.8456   14.7208    5.6377 H   0  0  0  0  0  0
  1  2  2  0  0  0
  1  6  1  0  0  0
  1 29  1  0  0  0
  2  3  1  0  0  0
  2 28  1  0  0  0
  3  4  2  0  0  0
  3 30  1  0  0  0
  4  7  1  0  0  0
  4  5  1  0  0  0
  5  6  2  0  0  0
  5 31  1  0  0  0
  6 32  1  0  0  0
  7  8  1  0  0  0
  7 33  1  0  0  0
  8  9  1  0  0  0
  8 11  2  0  0  0
  9 13  2  0  0  0
 10 12  2  0  0  0
 10 11  1  0  0  0
 10 34  1  0  0  0
 12 17  1  0  0  0
 12 13  1  0  0  0
 13 14  1  0  0  0
 14 15  1  0  0  0
 14 18  1  0  0  0
 15 16  1  0  0  0
 15 19  2  0  0  0
 16 17  2  0  0  0
 16 20  1  0  0  0
 17 35  1  0  0  0
 18 36  1  0  0  0
 18 37  1  0  0  0
 18 38  1  0  0  0
 20 21  2  0  0  0
 20 25  1  0  0  0
 21 22  1  0  0  0
 21 27  1  0  0  0
 22 23  2  0  0  0
 22 39  1  0  0  0
 23 24  1  0  0  0
 23 40  1  0  0  0
 24 25  2  0  0  0
 24 41  1  0  0  0
 25 26  1  0  0  0
 28 42  1  0  0  0
 28 43  1  0  0  0
M  END
> <s_m_entry_id>
6077

> <s_m_entry_name>
dock_pv.3

> <s_m_Source_Path>
/home/csk/Desktop/cluster/DUD-E-result/abl1

> <s_m_Source_File>
dock_pv.maegz

> <i_m_Source_File_Index>
3

> <chembl_id>
CHEMBL577269

> <chembl_pref_name>
None

> <i_lp_mmshare_version>
53161

> <i_f3d_flags>
0

> <r_lp_tautomer_probability>
1

> <s_lp_Force_Field>
OPLS_2005

> <r_lp_Energy>
29.150254

> <b_lp_Chiralities_Consistent>
1

> <s_lp_Variant>
CHEMBL1862_lig332-1

> <s_i_glide_gridfile>
glide-grid_2hzi

> <i_i_glide_lignum>
380

> <i_i_glide_rotatable_bonds>
3

> <r_i_docking_score>
-12.8626616289315

> <r_i_glide_ligand_efficiency>
-0.45938077246184

> <r_i_glide_ligand_efficiency_sa>
-1.39495058599992

> <r_i_glide_ligand_efficiency_ln>
-2.96907996811335

> <r_i_glide_gscore>
-12.8626616289315

> <r_i_glide_lipo>
-4.80392326640717

> <r_i_glide_hbond>
-0.608

> <r_i_glide_metal>
0

> <r_i_glide_rewards>
-3.45898348430697

> <r_i_glide_evdw>
-55.9323654174805

> <r_i_glide_ecoul>
-9.59167003631592

> <r_i_glide_erotb>
0.243613898104045

> <r_i_glide_esite>
0

> <r_i_glide_emodel>
-109.424680262379

> <r_i_glide_energy>
-65.5240354537964

> <r_i_glide_einternal>
2.04578948020935

> <i_i_glide_confnum>
4

> <i_i_glide_posenum>
220

> <r_i_glide_eff_state_penalty>
0

> <s_user_duplicate_titles>
CHEMBL1862_lig332,583100

> <s_m_subgroup_title>
dock_pv

> <s_m_subgroupid>
dock_pv

> <b_m_subgroup_collapsed>
0

$$$$
CHEMBL1862_lig329
                    3D
 Schrodinger Suite 2021-1.
 45 48  0  0  1  0            999 V2000
    9.4755   10.8350    0.8214 O   0  0  0  0  0  0
    9.0592   11.6510    1.9015 C   0  0  0  0  0  0
   10.1774   12.3156    2.7008 C   0  0  0  0  0  0
    9.8402   13.2535    3.6797 C   0  0  0  0  0  0
   10.8338   13.9110    4.4024 C   0  0  0  0  0  0
   12.1783   13.6324    4.1557 C   0  0  0  0  0  0
   12.5390   12.6891    3.1829 C   0  0  0  0  0  0
   13.8605   12.3378    2.8690 N   0  0  0  0  0  0
   15.1105   12.8923    3.1502 C   0  0  0  0  0  0
   16.1636   12.2281    2.6108 N   0  0  0  0  0  0
   17.3983   12.7533    2.8235 C   0  0  0  0  0  0
   17.5833   13.9229    3.5605 C   0  0  0  0  0  0
   18.8775   14.5656    3.7946 C   0  0  0  0  0  0
   18.9745   15.6733    4.5648 C   0  0  0  0  0  0
   17.8098   16.2648    5.2418 C   0  0  0  0  0  0
   17.9211   17.2307    6.0023 O   0  0  0  0  0  0
   16.6075   15.6587    4.9612 N   0  0  0  0  0  0
   16.4475   14.5235    4.1147 C   0  0  0  0  0  0
   15.2012   14.0225    3.8964 N   0  0  0  0  0  0
   15.3942   16.2348    5.5794 C   0  0  0  0  0  0
   20.2831   16.3563    4.6990 C   0  0  0  0  0  0
   21.1357   16.0828    5.7847 C   0  0  0  0  0  0
   20.7484   14.8633    6.9497 Cl  0  0  0  0  0  0
   22.3217   16.8001    5.9463 C   0  0  0  0  0  0
   22.6784   17.7833    5.0281 C   0  0  0  0  0  0
   21.8647   18.0315    3.9250 C   0  0  0  0  0  0
   20.6790   17.3173    3.7501 C   0  0  0  0  0  0
   19.7237   17.6333    2.3377 Cl  0  0  0  0  0  0
   11.5309   12.0330    2.4673 C   0  0  0  0  0  0
    9.7750    9.9839    1.1601 H   0  0  0  0  0  0
    8.4388   12.4432    1.4829 H   0  0  0  0  0  0
    8.4118   11.0855    2.5686 H   0  0  0  0  0  0
    8.8026   13.4792    3.8764 H   0  0  0  0  0  0
   10.5632   14.6322    5.1603 H   0  0  0  0  0  0
   12.9179   14.1478    4.7464 H   0  0  0  0  0  0
   13.9267   11.4770    2.3398 H   0  0  0  0  0  0
   18.2377   12.2186    2.4066 H   0  0  0  0  0  0
   19.7597   14.1913    3.2914 H   0  0  0  0  0  0
   15.5490   17.2316    5.9969 H   0  0  0  0  0  0
   14.5935   16.3295    4.8460 H   0  0  0  0  0  0
   15.0383   15.5901    6.3828 H   0  0  0  0  0  0
   22.9707   16.5915    6.7864 H   0  0  0  0  0  0
   23.5968   18.3357    5.1633 H   0  0  0  0  0  0
   22.1626   18.7747    3.1998 H   0  0  0  0  0  0
   11.8029   11.3031    1.7177 H   0  0  0  0  0  0
  1  2  1  0  0  0
  1 30  1  0  0  0
  2  3  1  0  0  0
  2 31  1  0  0  0
  2 32  1  0  0  0
  3  4  2  0  0  0
  3 29  1  0  0  0
  4  5  1  0  0  0
  4 33  1  0  0  0
  5  6  2  0  0  0
  5 34  1  0  0  0
  6  7  1  0  0  0
  6 35  1  0  0  0
  7  8  1  0  0  0
  7 29  2  0  0  0
  8  9  1  0  0  0
  8 36  1  0  0  0
  9 10  2  0  0  0
  9 19  1  0  0  0
 10 11  1  0  0  0
 11 12  2  0  0  0
 11 37  1  0  0  0
 12 13  1  0  0  0
 12 18  1  0  0  0
 13 14  2  0  0  0
 13 38  1  0  0  0
 14 15  1  0  0  0
 14 21  1  0  0  0
 15 16  2  0  0  0
 15 17  1  0  0  0
 17 18  1  0  0  0
 17 20  1  0  0  0
 18 19  2  0  0  0
 20 39  1  0  0  0
 20 40  1  0  0  0
 20 41  1  0  0  0
 21 22  2  0  0  0
 21 27  1  0  0  0
 22 23  1  0  0  0
 22 24  1  0  0  0
 24 25  2  0  0  0
 24 42  1  0  0  0
 25 26  1  0  0  0
 25 43  1  0  0  0
 26 27  2  0  0  0
 26 44  1  0  0  0
 27 28  1  0  0  0
 29 45  1  0  0  0
M  END
> <s_m_entry_id>
6078

> <s_m_entry_name>
dock_pv.4

> <s_m_Source_Path>
/home/csk/Desktop/cluster/DUD-E-result/abl1

> <s_m_Source_File>
dock_pv.maegz

> <i_m_Source_File_Index>
4

> <chembl_id>
CHEMBL327127

> <chembl_pref_name>
None

> <i_lp_mmshare_version>
53161

> <i_f3d_flags>
0

> <r_lp_tautomer_probability>
1

> <s_lp_Force_Field>
OPLS_2005

> <r_lp_Energy>
26.618173

> <b_lp_Chiralities_Consistent>
1

> <s_lp_Variant>
CHEMBL1862_lig329-1

> <s_i_glide_gridfile>
glide-grid_2hzi

> <i_i_glide_lignum>
376

> <i_i_glide_rotatable_bonds>
5

> <r_i_docking_score>
-12.8325258069898

> <r_i_glide_ligand_efficiency>
-0.442500889896201

> <r_i_glide_ligand_efficiency_sa>
-1.35950292788311

> <r_i_glide_ligand_efficiency_ln>
-2.9383230050229

> <r_i_glide_gscore>
-12.8325258069898

> <r_i_glide_lipo>
-4.76914270713991

> <r_i_glide_hbond>
-0.768659762245786

> <r_i_glide_metal>
0

> <r_i_glide_rewards>
-3.36222092902685

> <r_i_glide_evdw>
-58.4667015075684

> <r_i_glide_ecoul>
-8.7576789855957

> <r_i_glide_erotb>
0.304484514640488

> <r_i_glide_esite>
0

> <r_i_glide_emodel>
-114.482646229246

> <r_i_glide_energy>
-67.2243804931641

> <r_i_glide_einternal>
1.16856396198273

> <i_i_glide_confnum>
6

> <i_i_glide_posenum>
368

> <r_i_glide_eff_state_penalty>
0

> <s_user_duplicate_titles>
CHEMBL1862_lig329,183155

> <s_m_subgroup_title>
dock_pv

> <s_m_subgroupid>
dock_pv

> <b_m_subgroup_collapsed>
0

$$$$
CHEMBL1862_lig343
                    3D
 Schrodinger Suite 2021-1.
 42 45  0  0  1  0            999 V2000
    9.7631   13.2541    3.5435 C   0  0  0  0  0  0
   10.1030   12.2568    2.6327 C   0  0  0  0  0  0
   11.4433   11.9436    2.4060 C   0  0  0  0  0  0
   12.4577   12.6273    3.0846 C   0  0  0  0  0  0
   12.1026   13.6310    4.0039 C   0  0  0  0  0  0
   10.7612   13.9433    4.2276 C   0  0  0  0  0  0
   13.7785   12.2419    2.8090 N   0  0  0  0  0  0
   15.0333   12.7885    3.0844 C   0  0  0  0  0  0
   15.1268   13.9469    3.7843 N   0  0  0  0  0  0
   17.3264   12.6086    2.8034 C   0  0  0  0  0  0
   16.0891   12.0894    2.5921 N   0  0  0  0  0  0
   17.5118   13.8088    3.4879 C   0  0  0  0  0  0
   16.3751   14.4414    4.0030 C   0  0  0  0  0  0
   16.5312   15.5954    4.8256 N   0  0  0  0  0  0
   17.7373   16.1674    5.1518 C   0  0  0  0  0  0
   18.9041   15.5529    4.4978 C   0  0  0  0  0  0
   18.8078   14.4374    3.7359 C   0  0  0  0  0  0
   15.3101   16.1790    5.4184 C   0  0  0  0  0  0
   17.8505   17.1217    5.9262 O   0  0  0  0  0  0
   20.2165   16.2201    4.6672 C   0  0  0  0  0  0
   21.0612   15.8814    5.7397 C   0  0  0  0  0  0
   22.2377   16.5962    5.9637 C   0  0  0  0  0  0
   22.5986   17.6352    5.1064 C   0  0  0  0  0  0
   21.7966   17.9440    4.0080 C   0  0  0  0  0  0
   20.6149   17.2354    3.7793 C   0  0  0  0  0  0
   19.6637   17.6332    2.3862 Cl  0  0  0  0  0  0
   20.6735   14.5779    6.8078 Cl  0  0  0  0  0  0
    9.1160   11.5882    1.9641 O   0  0  0  0  0  0
    8.7233   13.4866    3.7203 H   0  0  0  0  0  0
   11.6951   11.1610    1.7037 H   0  0  0  0  0  0
   12.8431   14.1678    4.5712 H   0  0  0  0  0  0
   10.4953   14.7083    4.9410 H   0  0  0  0  0  0
   13.8363   11.3568    2.3203 H   0  0  0  0  0  0
   18.1636   12.0532    2.4030 H   0  0  0  0  0  0
   19.6931   14.0392    3.2587 H   0  0  0  0  0  0
   14.5732   16.3977    4.6451 H   0  0  0  0  0  0
   14.8588   15.4688    6.1122 H   0  0  0  0  0  0
   15.4816   17.1047    5.9654 H   0  0  0  0  0  0
   22.8796   16.3408    6.7935 H   0  0  0  0  0  0
   23.5122   18.1846    5.2805 H   0  0  0  0  0  0
   22.0944   18.7302    3.3297 H   0  0  0  0  0  0
    9.4182   10.7781    1.5469 H   0  0  0  0  0  0
  1  2  2  0  0  0
  1  6  1  0  0  0
  1 29  1  0  0  0
  2  3  1  0  0  0
  2 28  1  0  0  0
  3  4  2  0  0  0
  3 30  1  0  0  0
  4  7  1  0  0  0
  4  5  1  0  0  0
  5  6  2  0  0  0
  5 31  1  0  0  0
  6 32  1  0  0  0
  7  8  1  0  0  0
  7 33  1  0  0  0
  8  9  1  0  0  0
  8 11  2  0  0  0
  9 13  2  0  0  0
 10 12  2  0  0  0
 10 11  1  0  0  0
 10 34  1  0  0  0
 12 17  1  0  0  0
 12 13  1  0  0  0
 13 14  1  0  0  0
 14 15  1  0  0  0
 14 18  1  0  0  0
 15 16  1  0  0  0
 15 19  2  0  0  0
 16 17  2  0  0  0
 16 20  1  0  0  0
 17 35  1  0  0  0
 18 36  1  0  0  0
 18 37  1  0  0  0
 18 38  1  0  0  0
 20 21  2  0  0  0
 20 25  1  0  0  0
 21 22  1  0  0  0
 21 27  1  0  0  0
 22 23  2  0  0  0
 22 39  1  0  0  0
 23 24  1  0  0  0
 23 40  1  0  0  0
 24 25  2  0  0  0
 24 41  1  0  0  0
 25 26  1  0  0  0
 28 42  1  0  0  0
M  END
> <s_m_entry_id>
6079

> <s_m_entry_name>
dock_pv.5

> <s_m_Source_Path>
/home/csk/Desktop/cluster/DUD-E-result/abl1

> <s_m_Source_File>
dock_pv.maegz

> <i_m_Source_File_Index>
5

> <chembl_id>
CHEMBL321193

> <chembl_pref_name>
None

> <i_lp_mmshare_version>
53161

> <i_f3d_flags>
0

> <r_lp_tautomer_probability>
1

> <s_lp_Force_Field>
OPLS_2005

> <r_lp_Energy>
26.889088

> <b_lp_Chiralities_Consistent>
1

> <s_lp_Variant>
CHEMBL1862_lig343-1

> <s_i_glide_gridfile>
glide-grid_2hzi

> <i_i_glide_lignum>
422

> <i_i_glide_rotatable_bonds>
4

> <r_i_docking_score>
-12.7893699334932

> <r_i_glide_ligand_efficiency>
-0.45676321191047

> <r_i_glide_ligand_efficiency_sa>
-1.38700213050525

> <r_i_glide_ligand_efficiency_ln>
-2.9521620928685

> <r_i_glide_gscore>
-12.7893699334932

> <r_i_glide_lipo>
-4.83721767447977

> <r_i_glide_hbond>
-0.608

> <r_i_glide_metal>
0

> <r_i_glide_rewards>
-3.48486464022891

> <r_i_glide_evdw>
-57.3155899047852

> <r_i_glide_ecoul>
-8.24050140380859

> <r_i_glide_erotb>
0.24256708702606

> <r_i_glide_esite>
0

> <r_i_glide_emodel>
-113.229499357934

> <r_i_glide_energy>
-65.5560913085938

> <r_i_glide_einternal>
0.562334835529327

> <i_i_glide_confnum>
2

> <i_i_glide_posenum>
147

> <r_i_glide_eff_state_penalty>
0

> <s_user_duplicate_titles>
CHEMBL1862_lig343,183102

> <s_m_subgroup_title>
dock_pv

> <s_m_subgroupid>
dock_pv

> <b_m_subgroup_collapsed>
0

$$$$
CHEMBL1862_lig337
                    3D
 Schrodinger Suite 2021-1.
 41 44  0  0  1  0            999 V2000
    9.8620   13.3673    3.7083 C   0  0  0  0  0  0
   10.8781   14.0327    4.3870 C   0  0  0  0  0  0
   12.2063   13.6968    4.1429 C   0  0  0  0  0  0
   12.5284   12.7055    3.2029 C   0  0  0  0  0  0
   11.4965   12.0330    2.5420 C   0  0  0  0  0  0
   10.1644   12.3569    2.8002 C   0  0  0  0  0  0
   13.8428   12.3142    2.8910 N   0  0  0  0  0  0
   15.1040   12.8682    3.1347 C   0  0  0  0  0  0
   15.2030   14.0136    3.8527 N   0  0  0  0  0  0
   17.3941   12.7183    2.8060 C   0  0  0  0  0  0
   16.1564   12.1896    2.6076 N   0  0  0  0  0  0
   17.5842   13.9033    3.5159 C   0  0  0  0  0  0
   16.4495   14.5138    4.0619 C   0  0  0  0  0  0
   16.6074   15.6446    4.9138 N   0  0  0  0  0  0
   17.8110   16.2346    5.2174 C   0  0  0  0  0  0
   18.9766   15.6465    4.5381 C   0  0  0  0  0  0
   18.8796   14.5451    3.7571 C   0  0  0  0  0  0
   15.3882   16.2208    5.5227 C   0  0  0  0  0  0
   17.9190   17.1839    6.0022 O   0  0  0  0  0  0
   20.2824   16.3339    4.6825 C   0  0  0  0  0  0
   21.1290   16.0617    5.7745 C   0  0  0  0  0  0
   22.3067   16.7907    5.9514 C   0  0  0  0  0  0
   22.6627   17.7805    5.0388 C   0  0  0  0  0  0
   21.8558   18.0283    3.9321 C   0  0  0  0  0  0
   20.6761   17.3064    3.7439 C   0  0  0  0  0  0
   19.7241   17.6328    2.3311 Cl  0  0  0  0  0  0
   20.7416   14.8344    6.9311 Cl  0  0  0  0  0  0
    8.5749   13.7071    3.9365 F   0  0  0  0  0  0
   10.6335   14.8041    5.1010 H   0  0  0  0  0  0
   12.9603   14.2174    4.7063 H   0  0  0  0  0  0
   11.7195   11.2502    1.8287 H   0  0  0  0  0  0
    9.3700   11.8329    2.2900 H   0  0  0  0  0  0
   13.8923   11.4384    2.3871 H   0  0  0  0  0  0
   18.2309   12.1678    2.4024 H   0  0  0  0  0  0
   19.7633   14.1770    3.2538 H   0  0  0  0  0  0
   14.6017   16.3379    4.7776 H   0  0  0  0  0  0
   15.0102   15.5616    6.3039 H   0  0  0  0  0  0
   15.5446   17.2071    5.9650 H   0  0  0  0  0  0
   22.9462   16.5889    6.7991 H   0  0  0  0  0  0
   23.5732   18.3447    5.1844 H   0  0  0  0  0  0
   22.1504   18.7792    3.2134 H   0  0  0  0  0  0
  1  2  2  0  0  0
  1  6  1  0  0  0
  1 28  1  0  0  0
  2  3  1  0  0  0
  2 29  1  0  0  0
  3  4  2  0  0  0
  3 30  1  0  0  0
  4  7  1  0  0  0
  4  5  1  0  0  0
  5  6  2  0  0  0
  5 31  1  0  0  0
  6 32  1  0  0  0
  7  8  1  0  0  0
  7 33  1  0  0  0
  8  9  1  0  0  0
  8 11  2  0  0  0
  9 13  2  0  0  0
 10 12  2  0  0  0
 10 11  1  0  0  0
 10 34  1  0  0  0
 12 17  1  0  0  0
 12 13  1  0  0  0
 13 14  1  0  0  0
 14 15  1  0  0  0
 14 18  1  0  0  0
 15 16  1  0  0  0
 15 19  2  0  0  0
 16 17  2  0  0  0
 16 20  1  0  0  0
 17 35  1  0  0  0
 18 36  1  0  0  0
 18 37  1  0  0  0
 18 38  1  0  0  0
 20 21  2  0  0  0
 20 25  1  0  0  0
 21 22  1  0  0  0
 21 27  1  0  0  0
 22 23  2  0  0  0
 22 39  1  0  0  0
 23 24  1  0  0  0
 23 40  1  0  0  0
 24 25  2  0  0  0
 24 41  1  0  0  0
 25 26  1  0  0  0
M  END
> <s_m_entry_id>
6080

> <s_m_entry_name>
dock_pv.6

> <s_m_Source_Path>
/home/csk/Desktop/cluster/DUD-E-result/abl1

> <s_m_Source_File>
dock_pv.maegz

> <i_m_Source_File_Index>
6

> <chembl_id>
CHEMBL574059

> <chembl_pref_name>
None

> <i_lp_mmshare_version>
53161

> <i_f3d_flags>
0

> <r_lp_tautomer_probability>
1

> <s_lp_Force_Field>
OPLS_2005

> <r_lp_Energy>
26.347679

> <b_lp_Chiralities_Consistent>
1

> <s_lp_Variant>
CHEMBL1862_lig337-1

> <s_i_glide_gridfile>
glide-grid_2hzi

> <i_i_glide_lignum>
416

> <i_i_glide_rotatable_bonds>
3

> <r_i_docking_score>
-12.6167755883029

> <r_i_glide_ligand_efficiency>
-0.450599128153676

> <r_i_glide_ligand_efficiency_sa>
-1.36828434176844

> <r_i_glide_ligand_efficiency_ln>
-2.91232225040841

> <r_i_glide_gscore>
-12.6167755883029

> <r_i_glide_lipo>
-4.82147596662198

> <r_i_glide_hbond>
-0.606749225094532

> <r_i_glide_metal>
0

> <r_i_glide_rewards>
-3.40281844638825

> <r_i_glide_evdw>
-56.7782211303711

> <r_i_glide_ecoul>
-7.75388860702515

> <r_i_glide_erotb>
0.24047115126038

> <r_i_glide_esite>
-0.024208753886231

> <r_i_glide_emodel>
-109.475055330696

> <r_i_glide_energy>
-64.5321097373962

> <r_i_glide_einternal>
1.90359425544739

> <i_i_glide_confnum>
9

> <i_i_glide_posenum>
64

> <r_i_glide_eff_state_penalty>
0

> <s_user_duplicate_titles>
CHEMBL1862_lig337,568350

> <s_m_subgroup_title>
dock_pv

> <s_m_subgroupid>
dock_pv

> <b_m_subgroup_collapsed>
0

$$$$
CHEMBL1862_lig334
                    3D
 Schrodinger Suite 2021-1.
 42 45  0  0  1  0            999 V2000
    9.9279   13.3005    3.7257 C   0  0  0  0  0  0
   10.2578   12.3160    2.7976 C   0  0  0  0  0  0
   11.5983   12.0332    2.5382 C   0  0  0  0  0  0
   12.6086   12.7368    3.2017 C   0  0  0  0  0  0
   12.2615   13.7136    4.1460 C   0  0  0  0  0  0
   10.9232   13.9981    4.4038 C   0  0  0  0  0  0
   13.9344   12.3999    2.8744 N   0  0  0  0  0  0
   15.1869   12.9604    3.1487 C   0  0  0  0  0  0
   15.2822   14.0848    3.9026 N   0  0  0  0  0  0
   17.4751   12.8280    2.8160 C   0  0  0  0  0  0
   16.2405   12.3030    2.5997 N   0  0  0  0  0  0
   17.6643   13.9876    3.5612 C   0  0  0  0  0  0
   16.5314   14.5833    4.1217 C   0  0  0  0  0  0
   16.6969   15.7112    4.9743 N   0  0  0  0  0  0
   17.9008   16.3186    5.2496 C   0  0  0  0  0  0
   19.0655   15.7191    4.5794 C   0  0  0  0  0  0
   18.9619   14.6184    3.8018 C   0  0  0  0  0  0
   15.4839   16.2709    5.6005 C   0  0  0  0  0  0
   18.0144   17.2903    6.0029 O   0  0  0  0  0  0
   20.3786   16.3919    4.7157 C   0  0  0  0  0  0
   21.2244   16.1225    5.8084 C   0  0  0  0  0  0
   22.4177   16.8295    5.9628 C   0  0  0  0  0  0
   22.7843   17.8013    5.0379 C   0  0  0  0  0  0
   21.9775   18.0424    3.9307 C   0  0  0  0  0  0
   20.7864   17.3360    3.7562 C   0  0  0  0  0  0
   19.8478   17.6330    2.3290 Cl  0  0  0  0  0  0
   20.8221   14.9236    6.9910 Cl  0  0  0  0  0  0
    8.6136   13.5718    3.9874 O   0  0  0  0  0  0
    9.4805   11.7635    2.2911 H   0  0  0  0  0  0
   11.8462   11.2626    1.8220 H   0  0  0  0  0  0
   13.0041   14.2603    4.7014 H   0  0  0  0  0  0
   10.6697   14.7508    5.1344 H   0  0  0  0  0  0
   14.0037   11.5422    2.3424 H   0  0  0  0  0  0
   18.3158   12.2927    2.4030 H   0  0  0  0  0  0
   19.8341   14.2402    3.2895 H   0  0  0  0  0  0
   14.7029   16.4280    4.8541 H   0  0  0  0  0  0
   15.0961   15.5863    6.3557 H   0  0  0  0  0  0
   15.6558   17.2329    6.0772 H   0  0  0  0  0  0
   23.0655   16.6230    6.8028 H   0  0  0  0  0  0
   23.7042   18.3497    5.1712 H   0  0  0  0  0  0
   22.2792   18.7783    3.1989 H   0  0  0  0  0  0
    8.4805   14.0065    4.8329 H   0  0  0  0  0  0
  1  2  2  0  0  0
  1  6  1  0  0  0
  1 28  1  0  0  0
  2  3  1  0  0  0
  2 29  1  0  0  0
  3  4  2  0  0  0
  3 30  1  0  0  0
  4  7  1  0  0  0
  4  5  1  0  0  0
  5  6  2  0  0  0
  5 31  1  0  0  0
  6 32  1  0  0  0
  7  8  1  0  0  0
  7 33  1  0  0  0
  8  9  1  0  0  0
  8 11  2  0  0  0
  9 13  2  0  0  0
 10 12  2  0  0  0
 10 11  1  0  0  0
 10 34  1  0  0  0
 12 17  1  0  0  0
 12 13  1  0  0  0
 13 14  1  0  0  0
 14 15  1  0  0  0
 14 18  1  0  0  0
 15 16  1  0  0  0
 15 19  2  0  0  0
 16 17  2  0  0  0
 16 20  1  0  0  0
 17 35  1  0  0  0
 18 36  1  0  0  0
 18 37  1  0  0  0
 18 38  1  0  0  0
 20 21  2  0  0  0
 20 25  1  0  0  0
 21 22  1  0  0  0
 21 27  1  0  0  0
 22 23  2  0  0  0
 22 39  1  0  0  0
 23 24  1  0  0  0
 23 40  1  0  0  0
 24 25  2  0  0  0
 24 41  1  0  0  0
 25 26  1  0  0  0
 28 42  1  0  0  0
M  END
> <s_m_entry_id>
6081

> <s_m_entry_name>
dock_pv.7

> <s_m_Source_Path>
/home/csk/Desktop/cluster/DUD-E-result/abl1

> <s_m_Source_File>
dock_pv.maegz

> <i_m_Source_File_Index>
7

> <chembl_id>
CHEMBL323405

> <chembl_pref_name>
None

> <i_lp_mmshare_version>
53161

> <i_f3d_flags>
0

> <r_lp_tautomer_probability>
1

> <s_lp_Force_Field>
OPLS_2005

> <r_lp_Energy>
25.574862

> <b_lp_Chiralities_Consistent>
1

> <s_lp_Variant>
CHEMBL1862_lig334-1

> <s_i_glide_gridfile>
glide-grid_2hzi

> <i_i_glide_lignum>
382

> <i_i_glide_rotatable_bonds>
4

> <r_i_docking_score>
-12.2848722118672

> <r_i_glide_ligand_efficiency>
-0.438745436138114

> <r_i_glide_ligand_efficiency_sa>
-1.33228955135795

> <r_i_glide_ligand_efficiency_ln>
-2.83570920602046

> <r_i_glide_gscore>
-12.2848722118672

> <r_i_glide_lipo>
-4.744367040338

> <r_i_glide_hbond>
-0.474110750279211

> <r_i_glide_metal>
0

> <r_i_glide_rewards>
-3.44706561327176

> <r_i_glide_evdw>
-56.945972442627

> <r_i_glide_ecoul>
-6.76398181915283

> <r_i_glide_erotb>
0.24256708702606

> <r_i_glide_esite>
0

> <r_i_glide_emodel>
-107.501065171349

> <r_i_glide_energy>
-63.7099542617798

> <r_i_glide_einternal>
0.569746136665344

> <i_i_glide_confnum>
2

> <i_i_glide_posenum>
53

> <r_i_glide_eff_state_penalty>
0

> <s_user_duplicate_titles>
CHEMBL1862_lig334,183101

> <s_m_subgroup_title>
dock_pv

> <s_m_subgroupid>
dock_pv

> <b_m_subgroup_collapsed>
0

$$$$
CHEMBL1862_lig439
                    3D
 Schrodinger Suite 2021-1.
 45 49  0  0  1  0            999 V2000
   16.7291   12.2196    2.4030 N   0  0  0  0  0  0
   17.8200   12.9153    2.8031 C   0  0  0  0  0  0
   17.8479   14.0406    3.5611 N   0  0  0  0  0  0
   15.5297   12.6948    2.8030 C   0  0  0  0  0  0
   15.4198   13.8017    3.6459 C   0  0  0  0  0  0
   16.6352   14.4328    3.9769 C   0  0  0  0  0  0
   16.3001   15.4608    4.8376 N   0  0  0  0  0  0
   14.9590   15.4827    5.0575 N   0  0  0  0  0  0
   14.4061   14.4935    4.3766 C   0  0  0  0  0  0
   12.9537   14.1128    4.4848 C   0  0  0  0  0  0
   12.3745   14.0330    5.7434 C   0  0  0  0  0  0
   11.0490   13.6384    5.9354 C   0  0  0  0  0  0
   10.2472   13.3532    4.8336 C   0  0  0  0  0  0
   10.8184   13.3714    3.5678 C   0  0  0  0  0  0
   12.1610   13.7302    3.4007 C   0  0  0  0  0  0
   14.3977   12.0330    2.3821 N   0  0  0  0  0  0
    8.9375   13.0462    4.9796 F   0  0  0  0  0  0
   10.5372   13.6330    7.2030 O   0  0  0  0  0  0
   17.1772   16.4454    5.4867 C   0  0  0  0  0  0
   18.5430   15.8822    5.8365 C   0  0  0  0  0  0
   19.8624   16.0756    5.4308 C   0  0  0  0  0  0
   20.6648   15.2013    6.0061 N   0  0  0  0  0  0
   19.8567   14.4361    6.6752 C   0  0  0  0  0  0
   18.5640   14.8330    6.6782 O   0  0  0  0  0  0
   20.4341   16.9813    4.4281 C   0  0  0  0  0  0
   21.5123   17.7991    4.7727 C   0  0  0  0  0  0
   22.1450   18.5422    3.7888 C   0  0  0  0  0  0
   21.7073   18.4330    2.4724 C   0  0  0  0  0  0
   20.6160   17.6330    2.1281 C   0  0  0  0  0  0
   19.9651   16.9141    3.1173 C   0  0  0  0  0  0
   18.7773   12.5467    2.4693 H   0  0  0  0  0  0
   12.9640   14.2964    6.6039 H   0  0  0  0  0  0
   10.2101   13.1183    2.7119 H   0  0  0  0  0  0
   12.5640   13.7760    2.4030 H   0  0  0  0  0  0
   13.5160   12.2964    2.7943 H   0  0  0  0  0  0
   14.4664   11.1559    1.8777 H   0  0  0  0  0  0
   11.1449   14.0043    7.8554 H   0  0  0  0  0  0
   16.6778   16.8275    6.3785 H   0  0  0  0  0  0
   17.2943   17.2797    4.8030 H   0  0  0  0  0  0
   20.0780   13.5315    7.2030 H   0  0  0  0  0  0
   21.8715   17.8407    5.7912 H   0  0  0  0  0  0
   22.9640   19.1954    4.0461 H   0  0  0  0  0  0
   22.1640   19.0145    1.6965 H   0  0  0  0  0  0
   20.2865   17.5705    1.1009 H   0  0  0  0  0  0
   19.1441   16.2649    2.8523 H   0  0  0  0  0  0
  1  4  1  0  0  0
  1  2  2  0  0  0
  2  3  1  0  0  0
  2 31  1  0  0  0
  3  6  2  0  0  0
  4  5  2  0  0  0
  4 16  1  0  0  0
  5  9  1  0  0  0
  5  6  1  0  0  0
  6  7  1  0  0  0
  7  8  1  0  0  0
  7 19  1  0  0  0
  8  9  2  0  0  0
  9 10  1  0  0  0
 10 15  1  0  0  0
 10 11  2  0  0  0
 11 12  1  0  0  0
 11 32  1  0  0  0
 12 18  1  0  0  0
 12 13  2  0  0  0
 13 17  1  0  0  0
 13 14  1  0  0  0
 14 15  2  0  0  0
 14 33  1  0  0  0
 15 34  1  0  0  0
 16 35  1  0  0  0
 16 36  1  0  0  0
 18 37  1  0  0  0
 19 20  1  0  0  0
 19 38  1  0  0  0
 19 39  1  0  0  0
 20 21  2  0  0  0
 20 24  1  0  0  0
 21 22  1  0  0  0
 21 25  1  0  0  0
 22 23  2  0  0  0
 23 24  1  0  0  0
 23 40  1  0  0  0
 25 26  2  0  0  0
 25 30  1  0  0  0
 26 27  1  0  0  0
 26 41  1  0  0  0
 27 28  2  0  0  0
 27 42  1  0  0  0
 28 29  1  0  0  0
 28 43  1  0  0  0
 29 30  2  0  0  0
 29 44  1  0  0  0
 30 45  1  0  0  0
M  END
> <s_m_entry_id>
6082

> <s_m_entry_name>
dock_pv.8

> <s_m_Source_Path>
/home/csk/Desktop/cluster/DUD-E-result/abl1

> <s_m_Source_File>
dock_pv.maegz

> <i_m_Source_File_Index>
8

> <chembl_id>
CHEMBL1241482

> <chembl_pref_name>
None

> <i_lp_mmshare_version>
53161

> <i_f3d_flags>
0

> <r_lp_tautomer_probability>
0.999999999997365

> <s_lp_Force_Field>
OPLS_2005

> <r_lp_Energy>
12.886463

> <b_lp_Chiralities_Consistent>
1

> <s_lp_Variant>
CHEMBL1862_lig439-1

> <s_i_glide_gridfile>
glide-grid_2hzi

> <i_i_glide_lignum>
527

> <i_i_glide_rotatable_bonds>
5

> <r_i_docking_score>
-12.2513622096632

> <r_i_glide_ligand_efficiency>
-0.408378740322105

> <r_i_glide_ligand_efficiency_sa>
-1.26892769523071

> <r_i_glide_ligand_efficiency_ln>
-2.7836429833184

> <r_i_glide_gscore>
-12.2513622096632

> <r_i_glide_lipo>
-5.26959409350012

> <r_i_glide_hbond>
-0.794388259867945

> <r_i_glide_metal>
0

> <r_i_glide_rewards>
-3.53126062682501

> <r_i_glide_evdw>
-36.6141700744629

> <r_i_glide_ecoul>
-7.76509857177734

> <r_i_glide_erotb>
0.33935406001966

> <r_i_glide_esite>
0

> <r_i_glide_emodel>
-37.3150132594236

> <r_i_glide_energy>
-44.3792686462402

> <r_i_glide_einternal>
18.2080974578857

> <i_i_glide_confnum>
17

> <i_i_glide_posenum>
384

> <r_i_glide_eff_state_penalty>
0

> <s_user_duplicate_titles>
CHEMBL1862_lig439

> <s_m_subgroup_title>
dock_pv

> <s_m_subgroupid>
dock_pv

> <b_m_subgroup_collapsed>
0

$$$$
CHEMBL1862_lig494
                    3D
 Schrodinger Suite 2021-1.
 41 44  0  0  1  0            999 V2000
   16.5162   12.0387    2.2431 N   0  0  0  0  0  0
   15.1779   12.2239    2.2456 C   0  0  0  0  0  0
   14.4870   13.1799    2.8847 N   0  0  0  0  0  0
   17.2552   12.9554    2.9053 C   0  0  0  0  0  0
   16.6615   14.0011    3.6224 C   0  0  0  0  0  0
   15.2549   14.0277    3.5667 C   0  0  0  0  0  0
   14.8574   15.0966    4.3315 N   0  0  0  0  0  0
   15.9345   15.7116    4.8766 N   0  0  0  0  0  0
   17.0257   15.1285    4.4284 C   0  0  0  0  0  0
   18.3910   15.6488    4.7527 C   0  0  0  0  0  0
   19.2652   14.9625    5.6037 C   0  0  0  0  0  0
   20.5388   15.4701    5.8789 C   0  0  0  0  0  0
   20.9564   16.6702    5.2944 C   0  0  0  0  0  0
   20.0883   17.3639    4.4543 C   0  0  0  0  0  0
   18.8146   16.8594    4.1947 C   0  0  0  0  0  0
   18.6206   12.8330    2.8033 N   0  0  0  0  0  0
   22.5303   17.3193    5.6029 Cl  0  0  0  0  0  0
   21.3639   14.7906    6.7337 O   0  0  0  0  0  0
   13.5135   15.6331    4.5694 C   0  0  0  0  0  0
   12.3504   14.6089    4.3637 C   0  0  2  0  0  0
   10.9426   15.1446    4.5832 C   0  0  0  0  0  0
   10.1646   14.0966    5.2239 N   0  0  2  0  0  0
   11.1092   13.4806    6.1323 C   0  0  0  0  0  0
   12.4180   13.4546    5.3484 C   0  0  0  0  0  0
   14.5734   11.6129    1.6031 H   0  0  0  0  0  0
   18.9641   14.0331    6.0577 H   0  0  0  0  0  0
   20.4039   18.2933    4.0033 H   0  0  0  0  0  0
   18.1640   17.4130    3.5426 H   0  0  0  0  0  0
   19.2168   13.5429    3.2029 H   0  0  0  0  0  0
   18.9934   12.1134    2.1855 H   0  0  0  0  0  0
   22.2779   15.0937    6.6875 H   0  0  0  0  0  0
   13.3808   16.5336    3.9712 H   0  0  0  0  0  0
   13.5316   15.9393    5.6023 H   0  0  0  0  0  0
   12.3541   14.2316    3.3424 H   0  0  0  0  0  0
   10.4700   15.3777    3.6312 H   0  0  0  0  0  0
   10.9641   16.0329    5.2029 H   0  0  0  0  0  0
    9.8949   13.4130    4.5287 H   0  0  0  0  0  0
   11.2062   14.0329    7.0659 H   0  0  0  0  0  0
   10.7655   12.4830    6.4024 H   0  0  0  0  0  0
   13.2554   13.6330    6.0030 H   0  0  0  0  0  0
   12.5846   12.5078    4.8385 H   0  0  0  0  0  0
  1  2  2  0  0  0
  1  4  1  0  0  0
  2  3  1  0  0  0
  2 25  1  0  0  0
  3  6  2  0  0  0
  4  5  2  0  0  0
  4 16  1  0  0  0
  5  9  1  0  0  0
  5  6  1  0  0  0
  6  7  1  0  0  0
  7  8  1  0  0  0
  7 19  1  0  0  0
  8  9  2  0  0  0
  9 10  1  0  0  0
 10 15  1  0  0  0
 10 11  2  0  0  0
 11 12  1  0  0  0
 11 26  1  0  0  0
 12 13  2  0  0  0
 12 18  1  0  0  0
 13 14  1  0  0  0
 13 17  1  0  0  0
 14 15  2  0  0  0
 14 27  1  0  0  0
 15 28  1  0  0  0
 16 29  1  0  0  0
 16 30  1  0  0  0
 18 31  1  0  0  0
 19 20  1  0  0  0
 19 32  1  0  0  0
 19 33  1  0  0  0
 20 21  1  0  0  0
 20 24  1  0  0  0
 20 34  1  0  0  0
 21 22  1  0  0  0
 21 35  1  0  0  0
 21 36  1  0  0  0
 22 23  1  0  0  0
 22 37  1  0  0  0
 23 24  1  0  0  0
 23 38  1  0  0  0
 23 39  1  0  0  0
 24 40  1  0  0  0
 24 41  1  0  0  0
M  END
> <s_m_entry_id>
6083

> <s_m_entry_name>
dock_pv.9

> <s_m_Source_Path>
/home/csk/Desktop/cluster/DUD-E-result/abl1

> <s_m_Source_File>
dock_pv.maegz

> <i_m_Source_File_Index>
9

> <chembl_id>
CHEMBL1241770

> <chembl_pref_name>
None

> <i_lp_mmshare_version>
53161

> <i_f3d_flags>
0

> <r_lp_tautomer_probability>
0.999999999997365

> <s_lp_Force_Field>
OPLS_2005

> <r_lp_Energy>
27.6781

> <b_lp_Chiralities_Consistent>
1

> <s_lp_Variant>
CHEMBL1862_lig494-1

> <s_i_glide_gridfile>
glide-grid_2hzi

> <i_i_glide_lignum>
585

> <i_i_glide_rotatable_bonds>
4

> <r_i_docking_score>
-11.954367662505

> <r_i_glide_ligand_efficiency>
-0.498098652604374

> <r_i_glide_ligand_efficiency_sa>
-1.43676513385667

> <r_i_glide_ligand_efficiency_ln>
-2.86122873182546

> <r_i_glide_gscore>
-11.954367662505

> <r_i_glide_lipo>
-4.11419194267415

> <r_i_glide_hbond>
-0.933839800012393

> <r_i_glide_metal>
0

> <r_i_glide_rewards>
-4.29110999801983

> <r_i_glide_evdw>
-31.1840343475342

> <r_i_glide_ecoul>
-9.27664375305176

> <r_i_glide_erotb>
0.335472358535875

> <r_i_glide_esite>
0

> <r_i_glide_emodel>
-59.2817704847746

> <r_i_glide_energy>
-40.4606781005859

> <r_i_glide_einternal>
8.01594066619873

> <i_i_glide_confnum>
66

> <i_i_glide_posenum>
360

> <r_i_glide_eff_state_penalty>
0

> <s_user_duplicate_titles>
CHEMBL1862_lig494

> <s_m_subgroup_title>
dock_pv

> <s_m_subgroupid>
dock_pv

> <b_m_subgroup_collapsed>
0

$$$$
CHEMBL1862_lig423
                    3D
 Schrodinger Suite 2021-1.
 35 37  0  0  1  0            999 V2000
   16.5240   12.0514    2.2186 N   0  0  0  0  0  0
   15.1831   12.2300    2.2954 C   0  0  0  0  0  0
   14.5164   13.1451    3.0275 N   0  0  0  0  0  0
   17.2902   12.9478    2.8793 C   0  0  0  0  0  0
   16.7303   13.9737    3.6284 C   0  0  0  0  0  0
   15.3294   13.9733    3.6870 C   0  0  0  0  0  0
   15.0089   14.9785    4.5632 N   0  0  0  0  0  0
   16.1174   15.6330    4.9915 N   0  0  0  0  0  0
   17.1535   15.0845    4.4118 C   0  0  0  0  0  0
   18.5377   15.5706    4.6210 C   0  0  0  0  0  0
   19.3115   15.0152    5.6393 C   0  0  0  0  0  0
   20.6254   15.4291    5.8248 C   0  0  0  0  0  0
   21.1731   16.4271    5.0157 C   0  0  0  0  0  0
   20.4003   16.9949    4.0028 C   0  0  0  0  0  0
   19.0870   16.5646    3.8035 C   0  0  0  0  0  0
   18.6575   12.8330    2.8030 N   0  0  0  0  0  0
   22.4489   16.8394    5.2030 F   0  0  0  0  0  0
   21.3640   14.8330    6.8030 O   0  0  0  0  0  0
   13.7083   15.4891    4.9443 C   0  0  0  0  0  0
   12.5303   14.5122    4.7293 C   0  0  0  0  0  0
   13.5122   16.8330    4.2511 C   0  0  0  0  0  0
   14.5640   11.6330    1.6513 H   0  0  0  0  0  0
   18.9146   14.2399    6.2750 H   0  0  0  0  0  0
   20.8247   17.7561    3.3647 H   0  0  0  0  0  0
   18.5100   16.9934    3.0004 H   0  0  0  0  0  0
   19.2417   13.5403    3.2241 H   0  0  0  0  0  0
   19.0437   12.1234    2.1811 H   0  0  0  0  0  0
   22.3058   15.0272    6.7226 H   0  0  0  0  0  0
   13.7970   15.6330    6.0030 H   0  0  0  0  0  0
   11.6180   14.8878    5.1917 H   0  0  0  0  0  0
   12.3078   14.3653    3.6723 H   0  0  0  0  0  0
   12.7330   13.5369    5.1741 H   0  0  0  0  0  0
   12.4864   17.1819    4.3497 H   0  0  0  0  0  0
   14.1640   17.6018    4.6653 H   0  0  0  0  0  0
   13.7640   16.7511    3.2030 H   0  0  0  0  0  0
  1  2  2  0  0  0
  1  4  1  0  0  0
  2  3  1  0  0  0
  2 22  1  0  0  0
  3  6  2  0  0  0
  4  5  2  0  0  0
  4 16  1  0  0  0
  5  6  1  0  0  0
  5  9  1  0  0  0
  6  7  1  0  0  0
  7  8  1  0  0  0
  7 19  1  0  0  0
  8  9  2  0  0  0
  9 10  1  0  0  0
 10 11  2  0  0  0
 10 15  1  0  0  0
 11 12  1  0  0  0
 11 23  1  0  0  0
 12 13  2  0  0  0
 12 18  1  0  0  0
 13 14  1  0  0  0
 13 17  1  0  0  0
 14 15  2  0  0  0
 14 24  1  0  0  0
 15 25  1  0  0  0
 16 26  1  0  0  0
 16 27  1  0  0  0
 18 28  1  0  0  0
 19 20  1  0  0  0
 19 21  1  0  0  0
 19 29  1  0  0  0
 20 30  1  0  0  0
 20 31  1  0  0  0
 20 32  1  0  0  0
 21 33  1  0  0  0
 21 34  1  0  0  0
 21 35  1  0  0  0
M  END
> <s_m_entry_id>
6084

> <s_m_entry_name>
dock_pv.10

> <s_m_Source_Path>
/home/csk/Desktop/cluster/DUD-E-result/abl1

> <s_m_Source_File>
dock_pv.maegz

> <i_m_Source_File_Index>
10

> <chembl_id>
CHEMBL1242377

> <chembl_pref_name>
None

> <i_lp_mmshare_version>
53161

> <i_f3d_flags>
0

> <r_lp_tautomer_probability>
0.999999999997365

> <s_lp_Force_Field>
OPLS_2005

> <r_lp_Energy>
12.026936

> <b_lp_Chiralities_Consistent>
1

> <s_lp_Variant>
CHEMBL1862_lig423-1

> <s_i_glide_gridfile>
glide-grid_2hzi

> <i_i_glide_lignum>
508

> <i_i_glide_rotatable_bonds>
3

> <r_i_docking_score>
-11.9010664339084

> <r_i_glide_ligand_efficiency>
-0.566717449233733

> <r_i_glide_ligand_efficiency_sa>
-1.56353047028125

> <r_i_glide_ligand_efficiency_ln>
-2.94251462741477

> <r_i_glide_gscore>
-11.9010664339084

> <r_i_glide_lipo>
-2.96542333834694

> <r_i_glide_hbond>
-1.13321003028095

> <r_i_glide_metal>
0

> <r_i_glide_rewards>
-5.11008291736686

> <r_i_glide_evdw>
-27.0325374603271

> <r_i_glide_ecoul>
-9.96572208404541

> <r_i_glide_erotb>
0.154135037709523

> <r_i_glide_esite>
0

> <r_i_glide_emodel>
-44.5786654747387

> <r_i_glide_energy>
-36.9982595443726

> <r_i_glide_einternal>
7.75265169143677

> <i_i_glide_confnum>
2

> <i_i_glide_posenum>
180

> <r_i_glide_eff_state_penalty>
0

> <s_user_duplicate_titles>
CHEMBL1862_lig423

> <s_m_subgroup_title>
dock_pv

> <s_m_subgroupid>
dock_pv

> <b_m_subgroup_collapsed>
0

$$$$
CHEMBL1862_lig461
                    3D
 Schrodinger Suite 2021-1.
 35 37  0  0  1  0            999 V2000
   16.5545   12.0330    2.2866 N   0  0  0  0  0  0
   15.2111   12.1475    2.4028 C   0  0  0  0  0  0
   14.5335   13.0711    3.1150 N   0  0  0  0  0  0
   17.3130   12.9493    2.9201 C   0  0  0  0  0  0
   16.7417   13.9681    3.6755 C   0  0  0  0  0  0
   15.3360   13.9406    3.7385 C   0  0  0  0  0  0
   14.9972   14.9682    4.5812 N   0  0  0  0  0  0
   16.0936   15.6330    5.0170 N   0  0  0  0  0  0
   17.1455   15.0803    4.4747 C   0  0  0  0  0  0
   18.5136   15.5697    4.7718 C   0  0  0  0  0  0
   19.3210   14.8330    5.6384 C   0  0  0  0  0  0
   20.6047   15.2693    5.9463 C   0  0  0  0  0  0
   21.1005   16.4447    5.3877 C   0  0  0  0  0  0
   20.2939   17.1943    4.5319 C   0  0  0  0  0  0
   19.0004   16.7629    4.2284 C   0  0  0  0  0  0
   18.6775   12.8330    2.8030 N   0  0  0  0  0  0
   21.3638   14.5301    6.8030 O   0  0  0  0  0  0
   20.7672   18.3433    4.0028 F   0  0  0  0  0  0
   13.6939   15.4839    4.9424 C   0  0  0  0  0  0
   12.5112   14.5205    4.6971 C   0  0  0  0  0  0
   13.5220   16.8330    4.2575 C   0  0  0  0  0  0
   14.6083   11.4375    1.8549 H   0  0  0  0  0  0
   18.9588   13.9150    6.0753 H   0  0  0  0  0  0
   22.0974   16.7885    5.6211 H   0  0  0  0  0  0
   18.3823   17.3517    3.5671 H   0  0  0  0  0  0
   19.2751   13.5420    3.2024 H   0  0  0  0  0  0
   19.0458   12.1184    2.1756 H   0  0  0  0  0  0
   22.3147   14.6818    6.7224 H   0  0  0  0  0  0
   13.7641   15.6330    6.0030 H   0  0  0  0  0  0
   11.5887   14.9142    5.1230 H   0  0  0  0  0  0
   12.3245   14.3651    3.6342 H   0  0  0  0  0  0
   12.6855   13.5477    5.1589 H   0  0  0  0  0  0
   12.5051   17.1984    4.3958 H   0  0  0  0  0  0
   14.1963   17.5822    4.6734 H   0  0  0  0  0  0
   13.7640   16.7585    3.2029 H   0  0  0  0  0  0
  1  2  2  0  0  0
  1  4  1  0  0  0
  2  3  1  0  0  0
  2 22  1  0  0  0
  3  6  2  0  0  0
  4  5  2  0  0  0
  4 16  1  0  0  0
  5  6  1  0  0  0
  5  9  1  0  0  0
  6  7  1  0  0  0
  7  8  1  0  0  0
  7 19  1  0  0  0
  8  9  2  0  0  0
  9 10  1  0  0  0
 10 11  2  0  0  0
 10 15  1  0  0  0
 11 12  1  0  0  0
 11 23  1  0  0  0
 12 13  2  0  0  0
 12 17  1  0  0  0
 13 14  1  0  0  0
 13 24  1  0  0  0
 14 15  2  0  0  0
 14 18  1  0  0  0
 15 25  1  0  0  0
 16 26  1  0  0  0
 16 27  1  0  0  0
 17 28  1  0  0  0
 19 20  1  0  0  0
 19 21  1  0  0  0
 19 29  1  0  0  0
 20 30  1  0  0  0
 20 31  1  0  0  0
 20 32  1  0  0  0
 21 33  1  0  0  0
 21 34  1  0  0  0
 21 35  1  0  0  0
M  END
> <s_m_entry_id>
6085

> <s_m_entry_name>
dock_pv.11

> <s_m_Source_Path>
/home/csk/Desktop/cluster/DUD-E-result/abl1

> <s_m_Source_File>
dock_pv.maegz

> <i_m_Source_File_Index>
11

> <chembl_id>
CHEMBL1242198

> <chembl_pref_name>
None

> <i_lp_mmshare_version>
53161

> <i_f3d_flags>
0

> <r_lp_tautomer_probability>
0.999999999997365

> <s_lp_Force_Field>
OPLS_2005

> <r_lp_Energy>
11.287261

> <b_lp_Chiralities_Consistent>
1

> <s_lp_Variant>
CHEMBL1862_lig461-1

> <s_i_glide_gridfile>
glide-grid_2hzi

> <i_i_glide_lignum>
550

> <i_i_glide_rotatable_bonds>
3

> <r_i_docking_score>
-11.870772426462

> <r_i_glide_ligand_efficiency>
-0.56527487745057

> <r_i_glide_ligand_efficiency_sa>
-1.55955052411656

> <r_i_glide_ligand_efficiency_ln>
-2.93502449528844

> <r_i_glide_gscore>
-11.870772426462

> <r_i_glide_lipo>
-3.05788755374051

> <r_i_glide_hbond>
-1.19336478813072

> <r_i_glide_metal>
0

> <r_i_glide_rewards>
-4.83908519180184

> <r_i_glide_evdw>
-24.7392101287842

> <r_i_glide_ecoul>
-11.7577819824219

> <r_i_glide_erotb>
0.220192911013604

> <r_i_glide_esite>
0

> <r_i_glide_emodel>
-45.4248552004104

> <r_i_glide_energy>
-36.4969921112061

> <r_i_glide_einternal>
7.80973386764526

> <i_i_glide_confnum>
2

> <i_i_glide_posenum>
155

> <r_i_glide_eff_state_penalty>
0

> <s_user_duplicate_titles>
CHEMBL1862_lig461

> <s_m_subgroup_title>
dock_pv

> <s_m_subgroupid>
dock_pv

> <b_m_subgroup_collapsed>
0

$$$$
CHEMBL1862_lig339
                    3D
 Schrodinger Suite 2021-1.
 48 51  0  0  1  0            999 V2000
   10.4513   13.3461    4.2886 C   0  0  0  0  0  0
   10.6542   12.5435    3.1611 C   0  0  0  0  0  0
   11.9507   12.2609    2.7248 C   0  0  0  0  0  0
   13.0520   12.7959    3.4024 C   0  0  0  0  0  0
   12.8406   13.5904    4.5267 C   0  0  0  0  0  0
   11.5610   13.8656    4.9564 C   0  0  0  0  0  0
   14.3410   12.4599    2.9428 N   0  0  0  0  0  0
   15.5918   13.0528    3.1912 C   0  0  0  0  0  0
   15.6353   14.2168    3.8758 N   0  0  0  0  0  0
   17.9032   12.9374    2.9950 C   0  0  0  0  0  0
   16.6810   12.3786    2.7286 N   0  0  0  0  0  0
   18.0329   14.1295    3.7094 C   0  0  0  0  0  0
   16.8558   14.7316    4.1776 C   0  0  0  0  0  0
   16.9426   15.9068    4.9814 N   0  0  0  0  0  0
   18.1117   16.5881    5.2470 C   0  0  0  0  0  0
   19.3165   15.9723    4.6943 C   0  0  0  0  0  0
   19.2891   14.8200    3.9930 C   0  0  0  0  0  0
   15.6858   16.3992    5.5776 C   0  0  0  0  0  0
   18.1596   17.6337    5.9044 O   0  0  0  0  0  0
   20.6028   16.6700    4.8355 C   0  0  0  0  0  0
   21.0287   17.5450    3.8241 C   0  0  0  0  0  0
   22.1791   18.3166    4.0089 C   0  0  0  0  0  0
   22.9383   18.1696    5.1661 C   0  0  0  0  0  0
   22.5662   17.2324    6.1326 C   0  0  0  0  0  0
   21.4007   16.4801    5.9753 C   0  0  0  0  0  0
   20.9621   15.3135    7.1903 Cl  0  0  0  0  0  0
   20.1765   17.6707    2.3269 Cl  0  0  0  0  0  0
    9.0311   13.5802    4.8122 C   0  0  0  0  0  0
    8.9121   14.0653    6.2737 C   0  0  0  0  0  0
    9.5408   13.1821    7.1803 O   0  0  0  0  0  0
    9.8130   12.1016    2.6362 H   0  0  0  0  0  0
   12.0917   11.6129    1.8667 H   0  0  0  0  0  0
   13.6431   13.9803    5.1311 H   0  0  0  0  0  0
   11.4610   14.4321    5.8643 H   0  0  0  0  0  0
   14.3789   11.5908    2.4393 H   0  0  0  0  0  0
   18.7703   12.4163    2.6281 H   0  0  0  0  0  0
   20.2308   14.4432    3.6172 H   0  0  0  0  0  0
   15.8157   17.2354    6.2543 H   0  0  0  0  0  0
   14.9755   16.6960    4.8094 H   0  0  0  0  0  0
   15.2157   15.6039    6.1499 H   0  0  0  0  0  0
   22.5021   19.0124    3.2431 H   0  0  0  0  0  0
   23.8361   18.7581    5.3133 H   0  0  0  0  0  0
   23.1916   17.0937    7.0075 H   0  0  0  0  0  0
    8.4777   12.6471    4.7122 H   0  0  0  0  0  0
    8.5449   14.2954    4.1478 H   0  0  0  0  0  0
    7.8628   14.1527    6.5608 H   0  0  0  0  0  0
    9.3650   15.0352    6.4112 H   0  0  0  0  0  0
   10.4882   13.2783    7.0952 H   0  0  0  0  0  0
  1  6  1  0  0  0
  1 28  1  0  0  0
  1  2  2  0  0  0
  2  3  1  0  0  0
  2 31  1  0  0  0
  3  4  2  0  0  0
  3 32  1  0  0  0
  4  7  1  0  0  0
  4  5  1  0  0  0
  5  6  2  0  0  0
  5 33  1  0  0  0
  6 34  1  0  0  0
  7  8  1  0  0  0
  7 35  1  0  0  0
  8  9  1  0  0  0
  8 11  2  0  0  0
  9 13  2  0  0  0
 10 12  2  0  0  0
 10 11  1  0  0  0
 10 36  1  0  0  0
 12 17  1  0  0  0
 12 13  1  0  0  0
 13 14  1  0  0  0
 14 15  1  0  0  0
 14 18  1  0  0  0
 15 16  1  0  0  0
 15 19  2  0  0  0
 16 17  2  0  0  0
 16 20  1  0  0  0
 17 37  1  0  0  0
 18 38  1  0  0  0
 18 39  1  0  0  0
 18 40  1  0  0  0
 20 21  2  0  0  0
 20 25  1  0  0  0
 21 22  1  0  0  0
 21 27  1  0  0  0
 22 23  2  0  0  0
 22 41  1  0  0  0
 23 24  1  0  0  0
 23 42  1  0  0  0
 24 25  2  0  0  0
 24 43  1  0  0  0
 25 26  1  0  0  0
 28 29  1  0  0  0
 28 44  1  0  0  0
 28 45  1  0  0  0
 29 30  1  0  0  0
 29 46  1  0  0  0
 29 47  1  0  0  0
 30 48  1  0  0  0
M  END
> <s_m_entry_id>
6086

> <s_m_entry_name>
dock_pv.12

> <s_m_Source_Path>
/home/csk/Desktop/cluster/DUD-E-result/abl1

> <s_m_Source_File>
dock_pv.maegz

> <i_m_Source_File_Index>
12

> <chembl_id>
CHEMBL576218

> <chembl_pref_name>
None

> <i_lp_mmshare_version>
53161

> <i_f3d_flags>
0

> <r_lp_tautomer_probability>
1

> <s_lp_Force_Field>
OPLS_2005

> <r_lp_Energy>
27.751223

> <b_lp_Chiralities_Consistent>
1

> <s_lp_Variant>
CHEMBL1862_lig339-1

> <s_i_glide_gridfile>
glide-grid_2hzi

> <i_i_glide_lignum>
418

> <i_i_glide_rotatable_bonds>
6

> <r_i_docking_score>
-11.8285818625692

> <r_i_glide_ligand_efficiency>
-0.39428606208564

> <r_i_glide_ligand_efficiency_sa>
-1.22513846736806

> <r_i_glide_ligand_efficiency_ln>
-2.68758268189781

> <r_i_glide_gscore>
-11.8285818625692

> <r_i_glide_lipo>
-4.86337506476582

> <r_i_glide_hbond>
-0.547843255380664

> <r_i_glide_metal>
0

> <r_i_glide_rewards>
-3.09657828701648

> <r_i_glide_evdw>
-53.664363861084

> <r_i_glide_ecoul>
-6.64351081848145

> <r_i_glide_erotb>
0.358959560420195

> <r_i_glide_esite>
0

> <r_i_glide_emodel>
-91.1554889782864

> <r_i_glide_energy>
-60.3078746795654

> <r_i_glide_einternal>
4.10675573348999

> <i_i_glide_confnum>
5

> <i_i_glide_posenum>
50

> <r_i_glide_eff_state_penalty>
0

> <s_user_duplicate_titles>
CHEMBL1862_lig339,583139

> <s_m_subgroup_title>
dock_pv

> <s_m_subgroupid>
dock_pv

> <b_m_subgroup_collapsed>
0

$$$$
CHEMBL1862_lig427
                    3D
 Schrodinger Suite 2021-1.
 39 41  0  0  1  0            999 V2000
   16.4518   12.0331    2.4033 N   0  0  0  0  0  0
   15.1219   12.2847    2.3945 C   0  0  0  0  0  0
   14.4729   13.2858    3.0262 N   0  0  0  0  0  0
   17.2269   12.8819    3.1117 C   0  0  0  0  0  0
   16.6974   13.9999    3.7558 C   0  0  0  0  0  0
   15.2980   14.1119    3.6794 C   0  0  0  0  0  0
   14.9938   15.2479    4.3860 N   0  0  0  0  0  0
   16.0998   15.8121    4.9182 N   0  0  0  0  0  0
   17.1369   15.1342    4.5070 C   0  0  0  0  0  0
   18.5178   15.5857    4.8092 C   0  0  0  0  0  0
   19.3270   14.8341    5.6585 C   0  0  0  0  0  0
   20.6204   15.2493    5.9500 C   0  0  0  0  0  0
   21.1284   16.4228    5.3881 C   0  0  0  0  0  0
   20.3236   17.1843    4.5403 C   0  0  0  0  0  0
   19.0195   16.7707    4.2578 C   0  0  0  0  0  0
   18.5641   12.5843    3.2026 N   0  0  0  0  0  0
   22.3891   16.8290    5.6672 F   0  0  0  0  0  0
   21.3640   14.4901    6.8034 O   0  0  0  0  0  0
   13.7665   16.0040    4.4040 C   0  0  0  0  0  0
   12.4704   15.1680    4.5471 C   0  0  0  0  0  0
   12.4323   14.0542    5.6032 C   0  0  0  0  0  0
   10.9947   13.6320    5.9641 C   0  0  0  0  0  0
   10.1084   13.4541    4.8010 C   0  0  0  0  0  0
    9.4137   13.3227    3.8855 N   0  0  0  0  0  0
   14.5051   11.6334    1.7973 H   0  0  0  0  0  0
   18.9630   13.9244    6.1019 H   0  0  0  0  0  0
   20.7115   18.0927    4.1034 H   0  0  0  0  0  0
   18.4050   17.3652    3.5992 H   0  0  0  0  0  0
   19.1801   13.2523    3.6409 H   0  0  0  0  0  0
   18.9288   11.8309    2.6305 H   0  0  0  0  0  0
   22.3119   14.6743    6.7548 H   0  0  0  0  0  0
   13.8837   16.7101    5.2029 H   0  0  0  0  0  0
   13.7639   16.5931    3.4895 H   0  0  0  0  0  0
   11.6516   15.8643    4.7340 H   0  0  0  0  0  0
   12.2447   14.6815    3.6038 H   0  0  0  0  0  0
   12.9659   13.1838    5.2218 H   0  0  0  0  0  0
   12.9640   14.3766    6.4944 H   0  0  0  0  0  0
   11.0065   12.7048    6.5316 H   0  0  0  0  0  0
   10.5192   14.3820    6.5959 H   0  0  0  0  0  0
  1  2  2  0  0  0
  1  4  1  0  0  0
  2  3  1  0  0  0
  2 25  1  0  0  0
  3  6  2  0  0  0
  4  5  2  0  0  0
  4 16  1  0  0  0
  5  9  1  0  0  0
  5  6  1  0  0  0
  6  7  1  0  0  0
  7  8  1  0  0  0
  7 19  1  0  0  0
  8  9  2  0  0  0
  9 10  1  0  0  0
 10 15  1  0  0  0
 10 11  2  0  0  0
 11 12  1  0  0  0
 11 26  1  0  0  0
 12 13  2  0  0  0
 12 18  1  0  0  0
 13 14  1  0  0  0
 13 17  1  0  0  0
 14 15  2  0  0  0
 14 27  1  0  0  0
 15 28  1  0  0  0
 16 29  1  0  0  0
 16 30  1  0  0  0
 18 31  1  0  0  0
 19 20  1  0  0  0
 19 32  1  0  0  0
 19 33  1  0  0  0
 20 21  1  0  0  0
 20 34  1  0  0  0
 20 35  1  0  0  0
 21 22  1  0  0  0
 21 36  1  0  0  0
 21 37  1  0  0  0
 22 23  1  0  0  0
 22 38  1  0  0  0
 22 39  1  0  0  0
 23 24  3  0  0  0
M  END
> <s_m_entry_id>
6087

> <s_m_entry_name>
dock_pv.13

> <s_m_Source_Path>
/home/csk/Desktop/cluster/DUD-E-result/abl1

> <s_m_Source_File>
dock_pv.maegz

> <i_m_Source_File_Index>
13

> <chembl_id>
CHEMBL1242470

> <chembl_pref_name>
None

> <i_lp_mmshare_version>
53161

> <i_f3d_flags>
0

> <r_lp_tautomer_probability>
0.999999999997365

> <s_lp_Force_Field>
OPLS_2005

> <r_lp_Energy>
6.440513

> <b_lp_Chiralities_Consistent>
1

> <s_lp_Variant>
CHEMBL1862_lig427-1

> <s_i_glide_gridfile>
glide-grid_2hzi

> <i_i_glide_lignum>
512

> <i_i_glide_rotatable_bonds>
6

> <r_i_docking_score>
-11.7021731129723

> <r_i_glide_ligand_efficiency>
-0.487590546373847

> <r_i_glide_ligand_efficiency_sa>
-1.40645451049734

> <r_i_glide_ligand_efficiency_ln>
-2.80086700366849

> <r_i_glide_gscore>
-11.7021731129723

> <r_i_glide_lipo>
-3.35986491332609

> <r_i_glide_hbond>
-1.14757383824529

> <r_i_glide_metal>
0

> <r_i_glide_rewards>
-5.02265555114702

> <r_i_glide_evdw>
-31.8743934631348

> <r_i_glide_ecoul>
-7.14298677444458

> <r_i_glide_erotb>
0.493088879069494

> <r_i_glide_esite>
0

> <r_i_glide_emodel>
-51.3440980430145

> <r_i_glide_energy>
-39.0173802375793

> <r_i_glide_einternal>
9.00608348846436

> <i_i_glide_confnum>
53

> <i_i_glide_posenum>
9

> <r_i_glide_eff_state_penalty>
0

> <s_user_duplicate_titles>
CHEMBL1862_lig427

> <s_m_subgroup_title>
dock_pv

> <s_m_subgroupid>
dock_pv

> <b_m_subgroup_collapsed>
0

$$$$
CHEMBL1862_lig451
                    3D
 Schrodinger Suite 2021-1.
 35 37  0  0  1  0            999 V2000
   13.5067   16.8350    4.2525 C   0  0  0  0  0  0
   13.6776   15.4868    4.9434 C   0  0  0  0  0  0
   12.4905   14.5259    4.7106 C   0  0  0  0  0  0
   14.9751   14.9654    4.5749 N   0  0  0  0  0  0
   16.0764   15.6330    4.9968 N   0  0  0  0  0  0
   15.3033   13.9356    3.7301 C   0  0  0  0  0  0
   14.4968   13.0651    3.1127 N   0  0  0  0  0  0
   15.1710   12.1465    2.3894 C   0  0  0  0  0  0
   16.5145   12.0330    2.2636 N   0  0  0  0  0  0
   17.2747   12.9465    2.9002 C   0  0  0  0  0  0
   18.6408   12.8330    2.8030 N   0  0  0  0  0  0
   16.7063   13.9646    3.6533 C   0  0  0  0  0  0
   17.1189   15.0812    4.4369 C   0  0  0  0  0  0
   18.4911   15.5867    4.6718 C   0  0  0  0  0  0
   19.2959   14.9808    5.6381 C   0  0  0  0  0  0
   18.9828   16.6763    3.9463 C   0  0  0  0  0  0
   20.2808   17.1398    4.1697 C   0  0  0  0  0  0
   21.0873   16.5215    5.1269 C   0  0  0  0  0  0
   20.5893   15.4455    5.8617 C   0  0  0  0  0  0
   21.3640   14.8330    6.8029 O   0  0  0  0  0  0
   12.4875   17.2003    4.3643 H   0  0  0  0  0  0
   14.1713   17.5898    4.6731 H   0  0  0  0  0  0
   13.7640   16.7566    3.2030 H   0  0  0  0  0  0
   13.7645   15.6329    6.0030 H   0  0  0  0  0  0
   11.5722   14.9234    5.1417 H   0  0  0  0  0  0
   12.2956   14.3670    3.6498 H   0  0  0  0  0  0
   12.6655   13.5544    5.1750 H   0  0  0  0  0  0
   14.5649   11.4413    1.8391 H   0  0  0  0  0  0
   19.2296   13.5457    3.2091 H   0  0  0  0  0  0
   19.0198   12.1201    2.1809 H   0  0  0  0  0  0
   18.9248   14.1426    6.2095 H   0  0  0  0  0  0
   18.3633   17.1561    3.2029 H   0  0  0  0  0  0
   20.6621   17.9746    3.5997 H   0  0  0  0  0  0
   22.0912   16.8831    5.2963 H   0  0  0  0  0  0
   22.3043   15.0213    6.7047 H   0  0  0  0  0  0
  1  2  1  0  0  0
  1 21  1  0  0  0
  1 22  1  0  0  0
  1 23  1  0  0  0
  2  3  1  0  0  0
  2  4  1  0  0  0
  2 24  1  0  0  0
  3 25  1  0  0  0
  3 26  1  0  0  0
  3 27  1  0  0  0
  4  5  1  0  0  0
  4  6  1  0  0  0
  5 13  2  0  0  0
  6  7  1  0  0  0
  6 12  2  0  0  0
  7  8  2  0  0  0
  8  9  1  0  0  0
  8 28  1  0  0  0
  9 10  2  0  0  0
 10 11  1  0  0  0
 10 12  1  0  0  0
 11 29  1  0  0  0
 11 30  1  0  0  0
 12 13  1  0  0  0
 13 14  1  0  0  0
 14 15  1  0  0  0
 14 16  2  0  0  0
 15 19  2  0  0  0
 15 31  1  0  0  0
 16 17  1  0  0  0
 16 32  1  0  0  0
 17 18  2  0  0  0
 17 33  1  0  0  0
 18 19  1  0  0  0
 18 34  1  0  0  0
 19 20  1  0  0  0
 20 35  1  0  0  0
M  END
> <s_m_entry_id>
6088

> <s_m_entry_name>
dock_pv.14

> <s_m_Source_Path>
/home/csk/Desktop/cluster/DUD-E-result/abl1

> <s_m_Source_File>
dock_pv.maegz

> <i_m_Source_File_Index>
14

> <chembl_id>
CHEMBL1230790

> <chembl_pref_name>
None

> <i_lp_mmshare_version>
53161

> <i_f3d_flags>
0

> <r_lp_tautomer_probability>
0.999999999997365

> <s_lp_Force_Field>
OPLS_2005

> <r_lp_Energy>
11.530342

> <b_lp_Chiralities_Consistent>
1

> <s_lp_Variant>
CHEMBL1862_lig451-1

> <s_i_glide_gridfile>
glide-grid_2hzi

> <i_i_glide_lignum>
539

> <i_i_glide_rotatable_bonds>
3

> <r_i_docking_score>
-11.6015570148991

> <r_i_glide_ligand_efficiency>
-0.580077850744957

> <r_i_glide_ligand_efficiency_sa>
-1.57457353548629

> <r_i_glide_ligand_efficiency_ln>
-2.90348707586962

> <r_i_glide_gscore>
-11.6015570148991

> <r_i_glide_lipo>
-3.01298779460002

> <r_i_glide_hbond>
-1.13139316098879

> <r_i_glide_metal>
0

> <r_i_glide_rewards>
-4.75410985906981

> <r_i_glide_evdw>
-25.9613552093506

> <r_i_glide_ecoul>
-10.5162706375122

> <r_i_glide_erotb>
0.172442155853835

> <r_i_glide_esite>
0

> <r_i_glide_emodel>
-44.7517244358936

> <r_i_glide_energy>
-36.4776258468628

> <r_i_glide_einternal>
7.34623765945435

> <i_i_glide_confnum>
3

> <i_i_glide_posenum>
118

> <r_i_glide_eff_state_penalty>
0

> <s_user_duplicate_titles>
CHEMBL1862_lig451

> <s_m_subgroup_title>
dock_pv

> <s_m_subgroupid>
dock_pv

> <b_m_subgroup_collapsed>
0

$$$$
CHEMBL1862_lig420
                    3D
 Schrodinger Suite 2021-1.
 29 31  0  0  1  0            999 V2000
   16.4058   12.0737    2.3662 N   0  0  0  0  0  0
   15.0680   12.2703    2.4691 C   0  0  0  0  0  0
   14.4255   13.2326    3.1656 N   0  0  0  0  0  0
   17.2050   12.9792    2.9769 C   0  0  0  0  0  0
   16.6739   14.0397    3.7208 C   0  0  0  0  0  0
   15.2690   14.0784    3.7591 C   0  0  0  0  0  0
   14.9527   15.1836    4.4951 N   0  0  0  0  0  0
   16.0469   15.7818    5.0050 N   0  0  0  0  0  0
   17.0952   15.1736    4.4989 C   0  0  0  0  0  0
   18.4676   15.6667    4.7856 C   0  0  0  0  0  0
   19.3067   14.9512    5.6396 C   0  0  0  0  0  0
   20.5812   15.4280    5.9389 C   0  0  0  0  0  0
   21.0353   16.6262    5.3804 C   0  0  0  0  0  0
   20.1987   17.3482    4.5296 C   0  0  0  0  0  0
   18.9172   16.8751    4.2435 C   0  0  0  0  0  0
   18.5641   12.8331    2.8030 N   0  0  0  0  0  0
   22.7710   17.3043    5.7869 Br  0  0  0  0  0  0
   21.3640   14.7193    6.8027 O   0  0  0  0  0  0
   13.6388   15.6633    4.8031 C   0  0  0  0  0  0
   14.4296   11.6330    1.8848 H   0  0  0  0  0  0
   18.9640   14.0330    6.0886 H   0  0  0  0  0  0
   20.5402   18.2786    4.1001 H   0  0  0  0  0  0
   18.2698   17.4510    3.6027 H   0  0  0  0  0  0
   19.1874   13.5303    3.1836 H   0  0  0  0  0  0
   18.9110   12.1034    2.1824 H   0  0  0  0  0  0
   22.2913   14.9825    6.7637 H   0  0  0  0  0  0
   12.9373   15.3180    4.0455 H   0  0  0  0  0  0
   13.3639   15.2330    5.7617 H   0  0  0  0  0  0
   13.6554   16.7509    4.8027 H   0  0  0  0  0  0
  1  4  1  0  0  0
  1  2  2  0  0  0
  2  3  1  0  0  0
  2 20  1  0  0  0
  3  6  2  0  0  0
  4  5  2  0  0  0
  4 16  1  0  0  0
  5  9  1  0  0  0
  5  6  1  0  0  0
  6  7  1  0  0  0
  7  8  1  0  0  0
  7 19  1  0  0  0
  8  9  2  0  0  0
  9 10  1  0  0  0
 10 11  2  0  0  0
 10 15  1  0  0  0
 11 12  1  0  0  0
 11 21  1  0  0  0
 12 13  2  0  0  0
 12 18  1  0  0  0
 13 14  1  0  0  0
 13 17  1  0  0  0
 14 15  2  0  0  0
 14 22  1  0  0  0
 15 23  1  0  0  0
 16 24  1  0  0  0
 16 25  1  0  0  0
 18 26  1  0  0  0
 19 27  1  0  0  0
 19 28  1  0  0  0
 19 29  1  0  0  0
M  END
> <s_m_entry_id>
6089

> <s_m_entry_name>
dock_pv.15

> <s_m_Source_Path>
/home/csk/Desktop/cluster/DUD-E-result/abl1

> <s_m_Source_File>
dock_pv.maegz

> <i_m_Source_File_Index>
15

> <chembl_id>
CHEMBL1241299

> <chembl_pref_name>
None

> <i_lp_mmshare_version>
53161

> <i_f3d_flags>
0

> <r_lp_tautomer_probability>
0.999999999997365

> <s_lp_Force_Field>
OPLS_2005

> <r_lp_Energy>
6.0806

> <b_lp_Chiralities_Consistent>
1

> <s_lp_Variant>
CHEMBL1862_lig420-1

> <s_i_glide_gridfile>
glide-grid_2hzi

> <i_i_glide_lignum>
505

> <i_i_glide_rotatable_bonds>
2

> <r_i_docking_score>
-11.5437205088341

> <r_i_glide_ligand_efficiency>
-0.607564237307056

> <r_i_glide_ligand_efficiency_sa>
-1.62122541094344

> <r_i_glide_ligand_efficiency_ln>
-2.92658108537238

> <r_i_glide_gscore>
-11.5437205088341

> <r_i_glide_lipo>
-3.02547432995254

> <r_i_glide_hbond>
-1.1235605236705

> <r_i_glide_metal>
0

> <r_i_glide_rewards>
-4.48089478895099

> <r_i_glide_evdw>
-32.8706932067871

> <r_i_glide_ecoul>
-9.31839179992676

> <r_i_glide_erotb>
0.127502564068337

> <r_i_glide_esite>
0

> <r_i_glide_emodel>
-65.2387706261158

> <r_i_glide_energy>
-42.1890850067139

> <r_i_glide_einternal>
3.78495264053345

> <i_i_glide_confnum>
3

> <i_i_glide_posenum>
326

> <r_i_glide_eff_state_penalty>
0

> <s_user_duplicate_titles>
CHEMBL1862_lig420

> <s_m_subgroup_title>
dock_pv

> <s_m_subgroupid>
dock_pv

> <b_m_subgroup_collapsed>
0

$$$$
CHEMBL1862_lig458
                    3D
 Schrodinger Suite 2021-1.
 41 43  0  0  1  0            999 V2000
   16.8530   12.0330    2.4030 N   0  0  0  0  0  0
   15.5015   12.0354    2.4824 C   0  0  0  0  0  0
   14.7323   12.9171    3.1474 N   0  0  0  0  0  0
   17.5110   13.0531    2.9909 C   0  0  0  0  0  0
   16.8340   14.0209    3.7346 C   0  0  0  0  0  0
   15.4351   13.8654    3.7762 C   0  0  0  0  0  0
   14.9803   14.8718    4.5949 N   0  0  0  0  0  0
   16.0110   15.6315    5.0520 N   0  0  0  0  0  0
   17.1174   15.1710    4.5287 C   0  0  0  0  0  0
   18.4386   15.7605    4.8401 C   0  0  0  0  0  0
   19.3037   15.0543    5.6733 C   0  0  0  0  0  0
   20.5630   15.5631    5.9734 C   0  0  0  0  0  0
   20.9823   16.7862    5.4306 C   0  0  0  0  0  0
   20.1052   17.4995    4.6053 C   0  0  0  0  0  0
   18.8364   16.9932    4.3171 C   0  0  0  0  0  0
   18.8748   13.0952    2.8030 N   0  0  0  0  0  0
   22.3580   17.3610    5.7418 C   0  0  0  0  0  0
   21.3640   14.8330    6.8030 O   0  0  0  0  0  0
   13.6152   15.2801    4.9097 C   0  0  1  0  0  0
   13.4792   16.7023    4.3268 C   0  0  0  0  0  0
   12.5170   14.3084    4.3860 C   0  0  0  0  0  0
   11.0796   14.6074    4.8337 C   0  0  0  0  0  0
   14.9642   11.2479    1.9704 H   0  0  0  0  0  0
   19.0002   14.1038    6.0884 H   0  0  0  0  0  0
   20.4060   18.4457    4.1799 H   0  0  0  0  0  0
   18.1686   17.5492    3.6748 H   0  0  0  0  0  0
   19.4198   13.8768    3.1401 H   0  0  0  0  0  0
   19.2800   12.3715    2.2123 H   0  0  0  0  0  0
   23.1300   16.8297    5.1856 H   0  0  0  0  0  0
   22.4188   18.4243    5.5057 H   0  0  0  0  0  0
   22.5862   17.2619    6.8030 H   0  0  0  0  0  0
   22.3000   15.0399    6.7024 H   0  0  0  0  0  0
   13.5728   15.2379    5.9968 H   0  0  0  0  0  0
   12.4667   17.0895    4.4030 H   0  0  0  0  0  0
   14.1641   17.4102    4.8029 H   0  0  0  0  0  0
   13.7641   16.7001    3.2747 H   0  0  0  0  0  0
   12.5332   14.2906    3.2955 H   0  0  0  0  0  0
   12.7393   13.2931    4.7182 H   0  0  0  0  0  0
   10.3743   13.9542    4.3190 H   0  0  0  0  0  0
   10.9505   14.4328    5.9012 H   0  0  0  0  0  0
   10.7909   15.6327    4.6201 H   0  0  0  0  0  0
  1  2  2  0  0  0
  1  4  1  0  0  0
  2  3  1  0  0  0
  2 23  1  0  0  0
  3  6  2  0  0  0
  4  5  2  0  0  0
  4 16  1  0  0  0
  5  9  1  0  0  0
  5  6  1  0  0  0
  6  7  1  0  0  0
  7  8  1  0  0  0
  7 19  1  0  0  0
  8  9  2  0  0  0
  9 10  1  0  0  0
 10 11  2  0  0  0
 10 15  1  0  0  0
 11 12  1  0  0  0
 11 24  1  0  0  0
 12 13  2  0  0  0
 12 18  1  0  0  0
 13 14  1  0  0  0
 13 17  1  0  0  0
 14 15  2  0  0  0
 14 25  1  0  0  0
 15 26  1  0  0  0
 16 27  1  0  0  0
 16 28  1  0  0  0
 17 29  1  0  0  0
 17 30  1  0  0  0
 17 31  1  0  0  0
 18 32  1  0  0  0
 19 20  1  0  0  0
 19 21  1  0  0  0
 19 33  1  0  0  0
 20 34  1  0  0  0
 20 35  1  0  0  0
 20 36  1  0  0  0
 21 22  1  0  0  0
 21 37  1  0  0  0
 21 38  1  0  0  0
 22 39  1  0  0  0
 22 40  1  0  0  0
 22 41  1  0  0  0
M  END
> <s_m_entry_id>
6090

> <s_m_entry_name>
dock_pv.16

> <s_m_Source_Path>
/home/csk/Desktop/cluster/DUD-E-result/abl1

> <s_m_Source_File>
dock_pv.maegz

> <i_m_Source_File_Index>
16

> <chembl_id>
CHEMBL1242109

> <chembl_pref_name>
None

> <i_lp_mmshare_version>
53161

> <i_f3d_flags>
0

> <r_lp_tautomer_probability>
0.999999999997365

> <s_lp_Force_Field>
OPLS_2005

> <r_lp_Energy>
12.13947

> <b_lp_Chiralities_Consistent>
1

> <s_lp_Variant>
CHEMBL1862_lig458-2

> <s_i_glide_gridfile>
glide-grid_2hzi

> <i_i_glide_lignum>
547

> <i_i_glide_rotatable_bonds>
4

> <r_i_docking_score>
-11.5359421263447

> <r_i_glide_ligand_efficiency>
-0.524361005742943

> <r_i_glide_ligand_efficiency_sa>
-1.46928016003987

> <r_i_glide_ligand_efficiency_ln>
-2.8198050393916

> <r_i_glide_gscore>
-11.5359421263447

> <r_i_glide_lipo>
-3.72276316514631

> <r_i_glide_hbond>
-1.1213580450388

> <r_i_glide_metal>
0

> <r_i_glide_rewards>
-4.32824655127159

> <r_i_glide_evdw>
-30.9785652160645

> <r_i_glide_ecoul>
-8.19569301605225

> <r_i_glide_erotb>
0.41470784832302

> <r_i_glide_esite>
0

> <r_i_glide_emodel>
-46.1771186608311

> <r_i_glide_energy>
-39.1742582321167

> <r_i_glide_einternal>
11.1321287155151

> <i_i_glide_confnum>
6

> <i_i_glide_posenum>
56

> <r_i_glide_eff_state_penalty>
0

> <s_user_duplicate_titles>
CHEMBL1862_lig458

> <s_m_subgroup_title>
dock_pv

> <s_m_subgroupid>
dock_pv

> <b_m_subgroup_collapsed>
0

$$$$
CHEMBL1862_lig441
                    3D
 Schrodinger Suite 2021-1.
 35 37  0  0  1  0            999 V2000
   16.5810   12.0369    2.3768 N   0  0  0  0  0  0
   15.2398   12.2305    2.4037 C   0  0  0  0  0  0
   14.5622   13.1730    3.0810 N   0  0  0  0  0  0
   17.3386   12.9845    2.9748 C   0  0  0  0  0  0
   16.7676   14.0314    3.7069 C   0  0  0  0  0  0
   15.3614   14.0077    3.7419 C   0  0  0  0  0  0
   15.0052   15.0041    4.6074 N   0  0  0  0  0  0
   16.0880   15.6741    5.0596 N   0  0  0  0  0  0
   17.1488   15.1640    4.4899 C   0  0  0  0  0  0
   18.4928   15.7170    4.7615 C   0  0  0  0  0  0
   19.3425   15.0137    5.6109 C   0  0  0  0  0  0
   20.5921   15.5352    5.9313 C   0  0  0  0  0  0
   21.0115   16.7560    5.3904 C   0  0  0  0  0  0
   20.1516   17.4696    4.5481 C   0  0  0  0  0  0
   18.8929   16.9482    4.2397 C   0  0  0  0  0  0
   18.7040   12.8748    2.8030 N   0  0  0  0  0  0
   22.5637   17.4144    5.7582 Cl  0  0  0  0  0  0
   21.3640   14.8338    6.8053 O   0  0  0  0  0  0
   13.6906   15.4949    4.9472 C   0  0  0  0  0  0
   12.5149   14.5225    4.6873 C   0  0  0  0  0  0
   13.5080   16.8330    4.2447 C   0  0  0  0  0  0
   14.6216   11.6322    1.7571 H   0  0  0  0  0  0
   19.0358   14.0730    6.0413 H   0  0  0  0  0  0
   20.4555   18.4335    4.1495 H   0  0  0  0  0  0
   18.2322   17.5038    3.6038 H   0  0  0  0  0  0
   19.3053   13.6063    3.1600 H   0  0  0  0  0  0
   19.0584   12.1490    2.1894 H   0  0  0  0  0  0
   22.2857   15.1211    6.7869 H   0  0  0  0  0  0
   13.7639   15.6299    6.0040 H   0  0  0  0  0  0
   11.5893   14.9081    5.1124 H   0  0  0  0  0  0
   12.3306   14.3850    3.6200 H   0  0  0  0  0  0
   12.6858   13.5427    5.1377 H   0  0  0  0  0  0
   12.4860   17.1987    4.3213 H   0  0  0  0  0  0
   14.1640   17.6074    4.6489 H   0  0  0  0  0  0
   13.7641   16.7272    3.2024 H   0  0  0  0  0  0
  1  2  2  0  0  0
  1  4  1  0  0  0
  2  3  1  0  0  0
  2 22  1  0  0  0
  3  6  2  0  0  0
  4  5  2  0  0  0
  4 16  1  0  0  0
  5  6  1  0  0  0
  5  9  1  0  0  0
  6  7  1  0  0  0
  7  8  1  0  0  0
  7 19  1  0  0  0
  8  9  2  0  0  0
  9 10  1  0  0  0
 10 11  2  0  0  0
 10 15  1  0  0  0
 11 12  1  0  0  0
 11 23  1  0  0  0
 12 13  2  0  0  0
 12 18  1  0  0  0
 13 14  1  0  0  0
 13 17  1  0  0  0
 14 15  2  0  0  0
 14 24  1  0  0  0
 15 25  1  0  0  0
 16 26  1  0  0  0
 16 27  1  0  0  0
 18 28  1  0  0  0
 19 20  1  0  0  0
 19 21  1  0  0  0
 19 29  1  0  0  0
 20 30  1  0  0  0
 20 31  1  0  0  0
 20 32  1  0  0  0
 21 33  1  0  0  0
 21 34  1  0  0  0
 21 35  1  0  0  0
M  END
> <s_m_entry_id>
6091

> <s_m_entry_name>
dock_pv.17

> <s_m_Source_Path>
/home/csk/Desktop/cluster/DUD-E-result/abl1

> <s_m_Source_File>
dock_pv.maegz

> <i_m_Source_File_Index>
17

> <chembl_id>
CHEMBL1241484

> <chembl_pref_name>
None

> <i_lp_mmshare_version>
53161

> <i_f3d_flags>
0

> <r_lp_tautomer_probability>
0.999999999997365

> <s_lp_Force_Field>
OPLS_2005

> <r_lp_Energy>
12.133579

> <b_lp_Chiralities_Consistent>
1

> <s_lp_Variant>
CHEMBL1862_lig441-1

> <s_i_glide_gridfile>
glide-grid_2hzi

> <i_i_glide_lignum>
529

> <i_i_glide_rotatable_bonds>
3

> <r_i_docking_score>
-11.5329931282702

> <r_i_glide_ligand_efficiency>
-0.54919014896525

> <r_i_glide_ligand_efficiency_sa>
-1.51517397787292

> <r_i_glide_ligand_efficiency_ln>
-2.85150924635788

> <r_i_glide_gscore>
-11.5329931282702

> <r_i_glide_lipo>
-3.41237442259346

> <r_i_glide_hbond>
-0.951390758641023

> <r_i_glide_metal>
0

> <r_i_glide_rewards>
-4.45322367799741

> <r_i_glide_evdw>
-31.0043411254883

> <r_i_glide_ecoul>
-9.10376262664795

> <r_i_glide_erotb>
0.19977718123326

> <r_i_glide_esite>
0

> <r_i_glide_emodel>
-49.7437275279976

> <r_i_glide_energy>
-40.1081037521362

> <r_i_glide_einternal>
7.32609224319458

> <i_i_glide_confnum>
2

> <i_i_glide_posenum>
340

> <r_i_glide_eff_state_penalty>
0

> <s_user_duplicate_titles>
CHEMBL1862_lig441

> <s_m_subgroup_title>
dock_pv

> <s_m_subgroupid>
dock_pv

> <b_m_subgroup_collapsed>
0

$$$$
CHEMBL1862_lig536
                    3D
 Schrodinger Suite 2021-1.
 41 44  0  0  1  0            999 V2000
   16.5336   12.0405    2.2386 N   0  0  0  0  0  0
   15.1928   12.2245    2.3139 C   0  0  0  0  0  0
   14.5296   13.1436    3.0432 N   0  0  0  0  0  0
   17.3019   12.9351    2.9024 C   0  0  0  0  0  0
   16.7450   13.9505    3.6703 C   0  0  0  0  0  0
   15.3434   13.9611    3.7144 C   0  0  0  0  0  0
   15.0184   14.9677    4.5869 N   0  0  0  0  0  0
   16.1252   15.6096    5.0392 N   0  0  0  0  0  0
   17.1677   15.0370    4.4906 C   0  0  0  0  0  0
   18.6684   12.8330    2.8030 N   0  0  0  0  0  0
   13.7153   15.4869    4.9457 C   0  0  0  0  0  0
   12.5320   14.5200    4.7151 C   0  0  0  0  0  0
   13.5378   16.8330    4.2569 C   0  0  0  0  0  0
   18.5470   15.5174    4.7447 C   0  0  0  0  0  0
   19.2495   15.1314    5.8875 C   0  0  0  0  0  0
   20.5184   15.6327    6.1847 C   0  0  0  0  0  0
   19.1044   16.4149    3.8367 C   0  0  0  0  0  0
   20.3477   16.9874    4.1243 C   0  0  0  0  0  0
   21.0393   16.5999    5.3150 C   0  0  0  0  0  0
   22.2032   17.3543    5.3648 N   0  0  0  0  0  0
   22.1950   18.2401    4.3153 C   0  0  0  0  0  0
   21.1593   17.9554    3.4645 C   0  0  0  0  0  0
   23.2186   17.3410    6.4027 C   0  0  0  0  0  0
   14.5658   11.6325    1.6711 H   0  0  0  0  0  0
   19.2502   13.5412    3.2278 H   0  0  0  0  0  0
   19.0536   12.1312    2.1718 H   0  0  0  0  0  0
   13.7883   15.6330    6.0031 H   0  0  0  0  0  0
   11.6166   14.9045    5.1639 H   0  0  0  0  0  0
   12.3230   14.3745    3.6551 H   0  0  0  0  0  0
   12.7201   13.5434    5.1635 H   0  0  0  0  0  0
   12.5204   17.1997    4.3826 H   0  0  0  0  0  0
   14.2164   17.5851    4.6611 H   0  0  0  0  0  0
   13.7640   16.7459    3.2030 H   0  0  0  0  0  0
   18.7954   14.4331    6.5726 H   0  0  0  0  0  0
   21.0426   15.3278    7.0774 H   0  0  0  0  0  0
   18.5642   16.7075    2.9492 H   0  0  0  0  0  0
   22.9640   18.9891    4.2414 H   0  0  0  0  0  0
   20.9816   18.4319    2.5146 H   0  0  0  0  0  0
   24.1640   17.6627    5.9719 H   0  0  0  0  0  0
   22.9640   18.0332    7.1986 H   0  0  0  0  0  0
   23.3413   16.3334    6.8010 H   0  0  0  0  0  0
  1  2  2  0  0  0
  1  4  1  0  0  0
  2  3  1  0  0  0
  2 24  1  0  0  0
  3  6  2  0  0  0
  4  5  2  0  0  0
  4 10  1  0  0  0
  5  9  1  0  0  0
  5  6  1  0  0  0
  6  7  1  0  0  0
  7 11  1  0  0  0
  7  8  1  0  0  0
  8  9  2  0  0  0
  9 14  1  0  0  0
 10 25  1  0  0  0
 10 26  1  0  0  0
 11 12  1  0  0  0
 11 13  1  0  0  0
 11 27  1  0  0  0
 12 28  1  0  0  0
 12 29  1  0  0  0
 12 30  1  0  0  0
 13 31  1  0  0  0
 13 32  1  0  0  0
 13 33  1  0  0  0
 14 15  2  0  0  0
 14 17  1  0  0  0
 15 16  1  0  0  0
 15 34  1  0  0  0
 16 19  2  0  0  0
 16 35  1  0  0  0
 17 18  2  0  0  0
 17 36  1  0  0  0
 18 19  1  0  0  0
 18 22  1  0  0  0
 19 20  1  0  0  0
 20 21  1  0  0  0
 20 23  1  0  0  0
 21 22  2  0  0  0
 21 37  1  0  0  0
 22 38  1  0  0  0
 23 39  1  0  0  0
 23 40  1  0  0  0
 23 41  1  0  0  0
M  END
> <s_m_entry_id>
6092

> <s_m_entry_name>
dock_pv.18

> <s_m_Source_Path>
/home/csk/Desktop/cluster/DUD-E-result/abl1

> <s_m_Source_File>
dock_pv.maegz

> <i_m_Source_File_Index>
18

> <chembl_id>
CHEMBL1242384

> <chembl_pref_name>
None

> <i_lp_mmshare_version>
53161

> <i_f3d_flags>
0

> <r_lp_tautomer_probability>
1

> <s_lp_Force_Field>
OPLS_2005

> <r_lp_Energy>
12.150943

> <b_lp_Chiralities_Consistent>
1

> <s_lp_Variant>
CHEMBL1862_lig536-1

> <s_i_glide_gridfile>
glide-grid_2hzi

> <i_i_glide_lignum>
634

> <i_i_glide_rotatable_bonds>
2

> <r_i_docking_score>
-11.499972592983

> <r_i_glide_ligand_efficiency>
-0.499998808390567

> <r_i_glide_ligand_efficiency_sa>
-1.42193009966091

> <r_i_glide_ligand_efficiency_ln>
-2.78079764896957

> <r_i_glide_gscore>
-11.499972592983

> <r_i_glide_lipo>
-3.86908843306782

> <r_i_glide_hbond>
-0.608

> <r_i_glide_metal>
0

> <r_i_glide_rewards>
-4.48872836746193

> <r_i_glide_evdw>
-32.0554962158203

> <r_i_glide_ecoul>
-7.12757587432861

> <r_i_glide_erotb>
0.137755399487025

> <r_i_glide_esite>
0

> <r_i_glide_emodel>
-39.0778991583496

> <r_i_glide_energy>
-39.1830720901489

> <r_i_glide_einternal>
7.51499843597412

> <i_i_glide_confnum>
3

> <i_i_glide_posenum>
155

> <r_i_glide_eff_state_penalty>
0

> <s_user_duplicate_titles>
CHEMBL1862_lig536

> <s_m_subgroup_title>
dock_pv

> <s_m_subgroupid>
dock_pv

> <b_m_subgroup_collapsed>
0

$$$$
CHEMBL1862_lig515
                    3D
 Schrodinger Suite 2021-1.
 41 44  0  0  1  0            999 V2000
   16.4811   12.0331    2.3335 N   0  0  0  0  0  0
   15.1528   12.2747    2.3193 C   0  0  0  0  0  0
   14.5014   13.2327    3.0067 N   0  0  0  0  0  0
   17.2468   12.8509    3.0794 C   0  0  0  0  0  0
   16.7199   13.9321    3.7765 C   0  0  0  0  0  0
   15.3204   14.0187    3.7155 C   0  0  0  0  0  0
   14.9947   15.0220    4.5843 N   0  0  0  0  0  0
   16.1001   15.6326    5.0841 N   0  0  0  0  0  0
   17.1539   15.0045    4.6229 C   0  0  0  0  0  0
   18.5379   15.4067    5.0216 C   0  0  0  0  0  0
   19.0302   16.6441    4.6127 C   0  0  0  0  0  0
   20.6296   14.9630    6.1896 C   0  0  0  0  0  0
   19.3430   14.5820    5.8084 C   0  0  0  0  0  0
   18.5642   12.5154    3.2029 N   0  0  0  0  0  0
   21.1502   16.2154    5.7877 C   0  0  0  0  0  0
   20.3330   17.0622    4.9833 C   0  0  0  0  0  0
   20.8391   18.3130    4.5854 C   0  0  0  0  0  0
   22.0987   18.7420    4.9868 C   0  0  0  0  0  0
   22.8850   17.9381    5.7953 C   0  0  0  0  0  0
   22.4395   16.6709    6.1771 C   0  0  0  0  0  0
   13.6896   15.5291    4.9386 C   0  0  0  0  0  0
   12.5070   14.5639    4.6914 C   0  0  0  0  0  0
   13.5160   16.8751    4.2505 C   0  0  0  0  0  0
   24.0810   18.4326    6.2377 O   0  0  0  0  0  0
   14.5411   11.6260    1.7088 H   0  0  0  0  0  0
   18.4161   17.2961    4.0072 H   0  0  0  0  0  0
   21.2339   14.3066    6.7983 H   0  0  0  0  0  0
   18.9640   13.6323    6.1398 H   0  0  0  0  0  0
   19.1807   13.1564    3.6789 H   0  0  0  0  0  0
   18.9292   11.7809    2.6065 H   0  0  0  0  0  0
   20.2042   18.9489    4.0030 H   0  0  0  0  0  0
   22.4568   19.7207    4.7006 H   0  0  0  0  0  0
   23.0555   16.0406    6.8024 H   0  0  0  0  0  0
   13.7642   15.6331    6.0030 H   0  0  0  0  0  0
   11.5897   14.9448    5.1390 H   0  0  0  0  0  0
   12.3007   14.4289    3.6296 H   0  0  0  0  0  0
   12.6920   13.5827    5.1309 H   0  0  0  0  0  0
   12.4930   17.2321    4.3424 H   0  0  0  0  0  0
   14.1759   17.6333    4.6705 H   0  0  0  0  0  0
   13.7644   16.7923    3.2031 H   0  0  0  0  0  0
   24.5714   17.8000    6.7702 H   0  0  0  0  0  0
  1  2  2  0  0  0
  1  4  1  0  0  0
  2  3  1  0  0  0
  2 25  1  0  0  0
  3  6  2  0  0  0
  4 14  1  0  0  0
  4  5  2  0  0  0
  5  9  1  0  0  0
  5  6  1  0  0  0
  6  7  1  0  0  0
  7  8  1  0  0  0
  7 21  1  0  0  0
  8  9  2  0  0  0
  9 10  1  0  0  0
 10 13  1  0  0  0
 10 11  2  0  0  0
 11 16  1  0  0  0
 11 26  1  0  0  0
 12 15  1  0  0  0
 12 13  2  0  0  0
 12 27  1  0  0  0
 13 28  1  0  0  0
 14 29  1  0  0  0
 14 30  1  0  0  0
 15 16  1  0  0  0
 15 20  2  0  0  0
 16 17  2  0  0  0
 17 18  1  0  0  0
 17 31  1  0  0  0
 18 19  2  0  0  0
 18 32  1  0  0  0
 19 20  1  0  0  0
 19 24  1  0  0  0
 20 33  1  0  0  0
 21 22  1  0  0  0
 21 23  1  0  0  0
 21 34  1  0  0  0
 22 35  1  0  0  0
 22 36  1  0  0  0
 22 37  1  0  0  0
 23 38  1  0  0  0
 23 39  1  0  0  0
 23 40  1  0  0  0
 24 41  1  0  0  0
M  END
> <s_m_entry_id>
6093

> <s_m_entry_name>
dock_pv.19

> <s_m_Source_Path>
/home/csk/Desktop/cluster/DUD-E-result/abl1

> <s_m_Source_File>
dock_pv.maegz

> <i_m_Source_File_Index>
19

> <chembl_id>
CHEMBL1242662

> <chembl_pref_name>
None

> <i_lp_mmshare_version>
53161

> <i_f3d_flags>
0

> <r_lp_tautomer_probability>
1

> <s_lp_Force_Field>
OPLS_2005

> <r_lp_Energy>
15.921113

> <b_lp_Chiralities_Consistent>
1

> <s_lp_Variant>
CHEMBL1862_lig515-1

> <s_i_glide_gridfile>
glide-grid_2hzi

> <i_i_glide_lignum>
612

> <i_i_glide_rotatable_bonds>
3

> <r_i_docking_score>
-11.4995379608371

> <r_i_glide_ligand_efficiency>
-0.479147415034878

> <r_i_glide_ligand_efficiency_sa>
-1.38210030543179

> <r_i_glide_ligand_efficiency_ln>
-2.75236711344128

> <r_i_glide_gscore>
-11.4995379608371

> <r_i_glide_lipo>
-4.28702867293033

> <r_i_glide_hbond>
-0.572935199034304

> <r_i_glide_metal>
0

> <r_i_glide_rewards>
-4.04888062739402

> <r_i_glide_evdw>
-33.7836227416992

> <r_i_glide_ecoul>
-6.86378002166748

> <r_i_glide_erotb>
0.128054678856662

> <r_i_glide_esite>
0

> <r_i_glide_emodel>
-48.0521707312399

> <r_i_glide_energy>
-40.6474027633667

> <r_i_glide_einternal>
6.3324670791626

> <i_i_glide_confnum>
2

> <i_i_glide_posenum>
81

> <r_i_glide_eff_state_penalty>
0

> <s_user_duplicate_titles>
CHEMBL1862_lig515

> <s_m_subgroup_title>
dock_pv

> <s_m_subgroupid>
dock_pv

> <b_m_subgroup_collapsed>
0

$$$$
CHEMBL1862_lig452
                    3D
 Schrodinger Suite 2021-1.
 34 37  0  0  1  0            999 V2000
   17.1935   12.9518    2.9296 C   0  0  0  0  0  0
   18.5640   12.8329    2.8032 N   0  0  0  0  0  0
   16.6302   13.9909    3.6718 C   0  0  0  0  0  0
   16.4156   12.0334    2.3109 N   0  0  0  0  0  0
   15.0727   12.1977    2.4070 C   0  0  0  0  0  0
   14.4023   13.1606    3.0866 N   0  0  0  0  0  0
   15.2248   14.0233    3.6925 C   0  0  0  0  0  0
   14.9008   15.1170    4.4536 N   0  0  0  0  0  0
   13.5944   15.5964    4.8031 C   0  0  0  0  0  0
   15.9952   15.6916    4.9914 N   0  0  0  0  0  0
   17.0437   15.0782    4.4992 C   0  0  0  0  0  0
   18.4229   15.4712    4.8645 C   0  0  0  0  0  0
   19.0490   16.5028    4.1712 C   0  0  0  0  0  0
   19.0782   14.8350    5.9183 C   0  0  0  0  0  0
   20.3648   15.2148    6.2940 C   0  0  0  0  0  0
   21.0155   16.2775    5.6232 C   0  0  0  0  0  0
   20.3484   16.9237    4.5403 C   0  0  0  0  0  0
   22.3039   16.7254    6.0028 C   0  0  0  0  0  0
   22.8924   17.8078    5.3525 C   0  0  0  0  0  0
   22.2416   18.4317    4.2941 C   0  0  0  0  0  0
   20.9981   17.9786    3.8655 C   0  0  0  0  0  0
   19.1594   13.5340    3.2183 H   0  0  0  0  0  0
   18.9438   12.1117    2.1917 H   0  0  0  0  0  0
   14.4639   11.4977    1.8579 H   0  0  0  0  0  0
   12.8553   15.2335    4.0896 H   0  0  0  0  0  0
   13.3637   15.2028    5.7882 H   0  0  0  0  0  0
   13.6057   16.6825    4.8027 H   0  0  0  0  0  0
   18.5390   16.9980    3.3576 H   0  0  0  0  0  0
   18.5811   14.0447    6.4581 H   0  0  0  0  0  0
   20.8617   14.7144    7.1099 H   0  0  0  0  0  0
   22.8267   16.2355    6.8113 H   0  0  0  0  0  0
   23.8650   18.1571    5.6667 H   0  0  0  0  0  0
   22.7078   19.2673    3.7918 H   0  0  0  0  0  0
   20.5114   18.4270    3.0179 H   0  0  0  0  0  0
  1  4  1  0  0  0
  1  2  1  0  0  0
  1  3  2  0  0  0
  2 22  1  0  0  0
  2 23  1  0  0  0
  3  7  1  0  0  0
  3 11  1  0  0  0
  4  5  2  0  0  0
  5  6  1  0  0  0
  5 24  1  0  0  0
  6  7  2  0  0  0
  7  8  1  0  0  0
  8  9  1  0  0  0
  8 10  1  0  0  0
  9 25  1  0  0  0
  9 26  1  0  0  0
  9 27  1  0  0  0
 10 11  2  0  0  0
 11 12  1  0  0  0
 12 14  1  0  0  0
 12 13  2  0  0  0
 13 17  1  0  0  0
 13 28  1  0  0  0
 14 15  2  0  0  0
 14 29  1  0  0  0
 15 16  1  0  0  0
 15 30  1  0  0  0
 16 18  2  0  0  0
 16 17  1  0  0  0
 17 21  2  0  0  0
 18 19  1  0  0  0
 18 31  1  0  0  0
 19 20  2  0  0  0
 19 32  1  0  0  0
 20 21  1  0  0  0
 20 33  1  0  0  0
 21 34  1  0  0  0
M  END
> <s_m_entry_id>
6094

> <s_m_entry_name>
dock_pv.20

> <s_m_Source_Path>
/home/csk/Desktop/cluster/DUD-E-result/abl1

> <s_m_Source_File>
dock_pv.maegz

> <i_m_Source_File_Index>
20

> <chembl_id>
CHEMBL1234815

> <chembl_pref_name>
None

> <i_lp_mmshare_version>
53161

> <i_f3d_flags>
0

> <r_lp_tautomer_probability>
1

> <s_lp_Force_Field>
OPLS_2005

> <r_lp_Energy>
10.903175

> <b_lp_Chiralities_Consistent>
1

> <s_lp_Variant>
CHEMBL1862_lig452-1

> <s_i_glide_gridfile>
glide-grid_2hzi

> <i_i_glide_lignum>
540

> <i_i_glide_rotatable_bonds>
1

> <r_i_docking_score>
-11.4560975091101

> <r_i_glide_ligand_efficiency>
-0.545528452814768

> <r_i_glide_ligand_efficiency_sa>
-1.50507163584704

> <r_i_glide_ligand_efficiency_ln>
-2.83249695990277

> <r_i_glide_gscore>
-11.4560975091101

> <r_i_glide_lipo>
-3.9288917875814

> <r_i_glide_hbond>
-0.608

> <r_i_glide_metal>
0

> <r_i_glide_rewards>
-4.25108626023698

> <r_i_glide_evdw>
-36.5865821838379

> <r_i_glide_ecoul>
-6.69847393035889

> <r_i_glide_erotb>
0.165980737453981

> <r_i_glide_esite>
0

> <r_i_glide_emodel>
-67.6429016009486

> <r_i_glide_energy>
-43.2850561141968

> <r_i_glide_einternal>
4.30846548080444

> <i_i_glide_confnum>
2

> <i_i_glide_posenum>
90

> <r_i_glide_eff_state_penalty>
0

> <s_user_duplicate_titles>
CHEMBL1862_lig452

> <s_m_subgroup_title>
dock_pv

> <s_m_subgroupid>
dock_pv

> <b_m_subgroup_collapsed>
0

$$$$
CHEMBL1862_lig931
                    3D
 Schrodinger Suite 2021-1.
 49 53  0  0  1  0            999 V2000
   16.7309   12.1668    2.4030 N   0  0  0  0  0  0
   17.8187   12.8330    2.8481 C   0  0  0  0  0  0
   17.8417   13.9567    3.6030 N   0  0  0  0  0  0
   15.5303   12.6616    2.7719 C   0  0  0  0  0  0
   15.3963   13.7658    3.6201 C   0  0  0  0  0  0
   16.6247   14.3872    3.9720 C   0  0  0  0  0  0
   16.3277   15.4854    4.7561 N   0  0  0  0  0  0
   14.9640   15.4937    4.9673 C   0  0  0  0  0  0
   14.3294   14.4437    4.3090 C   0  0  0  0  0  0
   12.8783   14.0577    4.3623 C   0  0  0  0  0  0
   12.2595   14.0327    5.6030 C   0  0  0  0  0  0
   10.9304   13.6330    5.7634 C   0  0  0  0  0  0
   10.1807   13.2578    4.6538 C   0  0  0  0  0  0
   10.7907   13.2330    3.4042 C   0  0  0  0  0  0
   12.1256   13.6330    3.2667 C   0  0  0  0  0  0
   14.4123   12.0330    2.2782 N   0  0  0  0  0  0
   17.2888   16.4618    5.2670 C   0  0  2  0  0  0
   18.3377   17.0612    4.2993 C   0  0  0  0  0  0
   19.3127   17.0661    5.4732 C   0  0  1  0  0  0
   18.4620   15.9672    6.1294 C   0  0  0  0  0  0
   20.7628   16.6777    5.1398 C   0  0  0  0  0  0
   21.7181   17.4289    5.9352 N   0  0  0  0  0  0
   23.1044   16.9917    5.9343 C   0  0  0  0  0  0
   23.5693   18.4367    5.9312 C   0  0  0  0  0  0
   22.1518   18.7538    5.4876 C   0  0  0  0  0  0
   10.3623   13.6330    7.0070 O   0  0  0  0  0  0
   18.7796   12.4349    2.5616 H   0  0  0  0  0  0
   14.5523   16.2608    5.6030 H   0  0  0  0  0  0
   12.8409   14.3102    6.4665 H   0  0  0  0  0  0
    9.1498   12.9540    4.7663 H   0  0  0  0  0  0
   10.2260   12.9087    2.5416 H   0  0  0  0  0  0
   12.5640   13.6332    2.2873 H   0  0  0  0  0  0
   13.5195   12.2952    2.6685 H   0  0  0  0  0  0
   14.4936   11.1628    1.7652 H   0  0  0  0  0  0
   16.7053   17.2330    5.7750 H   0  0  0  0  0  0
   18.1042   18.0330    3.8711 H   0  0  0  0  0  0
   18.6097   16.3732    3.4984 H   0  0  0  0  0  0
   19.2800   18.0208    6.0030 H   0  0  0  0  0  0
   18.7582   14.9508    5.8639 H   0  0  0  0  0  0
   18.2996   16.0236    7.2029 H   0  0  0  0  0  0
   20.9792   16.8080    4.0777 H   0  0  0  0  0  0
   20.9108   15.6176    5.3523 H   0  0  0  0  0  0
   23.3640   16.4577    5.0211 H   0  0  0  0  0  0
   23.3640   16.3856    6.8030 H   0  0  0  0  0  0
   23.8433   18.8330    6.9042 H   0  0  0  0  0  0
   24.3415   18.6744    5.2030 H   0  0  0  0  0  0
   21.6559   19.5767    6.0030 H   0  0  0  0  0  0
   22.0719   18.8952    4.4073 H   0  0  0  0  0  0
   10.9489   13.9844    7.6848 H   0  0  0  0  0  0
  1  2  2  0  0  0
  1  4  1  0  0  0
  2  3  1  0  0  0
  2 27  1  0  0  0
  3  6  2  0  0  0
  4  5  2  0  0  0
  4 16  1  0  0  0
  5  6  1  0  0  0
  5  9  1  0  0  0
  6  7  1  0  0  0
  7  8  1  0  0  0
  7 17  1  0  0  0
  8  9  2  0  0  0
  8 28  1  0  0  0
  9 10  1  0  0  0
 10 11  2  0  0  0
 10 15  1  0  0  0
 11 12  1  0  0  0
 11 29  1  0  0  0
 12 13  2  0  0  0
 12 26  1  0  0  0
 13 14  1  0  0  0
 13 30  1  0  0  0
 14 15  2  0  0  0
 14 31  1  0  0  0
 15 32  1  0  0  0
 16 33  1  0  0  0
 16 34  1  0  0  0
 17 18  1  0  0  0
 17 20  1  0  0  0
 17 35  1  0  0  0
 18 19  1  0  0  0
 18 36  1  0  0  0
 18 37  1  0  0  0
 19 20  1  0  0  0
 19 21  1  0  0  0
 19 38  1  0  0  0
 20 39  1  0  0  0
 20 40  1  0  0  0
 21 22  1  0  0  0
 21 41  1  0  0  0
 21 42  1  0  0  0
 22 23  1  0  0  0
 22 25  1  0  0  0
 23 24  1  0  0  0
 23 43  1  0  0  0
 23 44  1  0  0  0
 24 25  1  0  0  0
 24 45  1  0  0  0
 24 46  1  0  0  0
 25 47  1  0  0  0
 25 48  1  0  0  0
 26 49  1  0  0  0
M  END
> <s_m_entry_id>
6095

> <s_m_entry_name>
dock_pv.21

> <s_m_Source_Path>
/home/csk/Desktop/cluster/DUD-E-result/abl1

> <s_m_Source_File>
dock_pv.maegz

> <i_m_Source_File_Index>
21

> <chembl_id>
CHEMBL3787112

> <chembl_pref_name>
None

> <i_lp_mmshare_version>
53161

> <i_f3d_flags>
0

> <r_lp_tautomer_probability>
0.999999999997365

> <s_lp_Force_Field>
OPLS_2005

> <r_lp_Energy>
36.920625

> <b_lp_Chiralities_Consistent>
1

> <s_lp_Variant>
CHEMBL1862_lig931-1

> <s_i_glide_gridfile>
glide-grid_2hzi

> <i_i_glide_lignum>
1087

> <i_i_glide_rotatable_bonds>
5

> <r_i_docking_score>
-11.4309602813036

> <r_i_glide_ligand_efficiency>
-0.439652318511678

> <r_i_glide_ligand_efficiency_sa>
-1.30246826364251

> <r_i_glide_ligand_efficiency_ln>
-2.68452351402418

> <r_i_glide_gscore>
-11.4309602813036

> <r_i_glide_lipo>
-4.68506553288808

> <r_i_glide_hbond>
-0.756879011861373

> <r_i_glide_metal>
0

> <r_i_glide_rewards>
-3.35312625943507

> <r_i_glide_evdw>
-35.5377502441406

> <r_i_glide_ecoul>
-8.63881587982178

> <r_i_glide_erotb>
0.436820417061192

> <r_i_glide_esite>
0

> <r_i_glide_emodel>
-63.5925577085288

> <r_i_glide_energy>
-44.1765661239624

> <r_i_glide_einternal>
5.08020877838135

> <i_i_glide_confnum>
68

> <i_i_glide_posenum>
350

> <r_i_glide_eff_state_penalty>
0

> <s_user_duplicate_titles>
CHEMBL1862_lig931

> <s_m_subgroup_title>
dock_pv

> <s_m_subgroupid>
dock_pv

> <b_m_subgroup_collapsed>
0

$$$$
CHEMBL1862_lig418
                    3D
 Schrodinger Suite 2021-1.
 35 37  0  0  1  0            999 V2000
   16.5232   12.0331    2.2608 N   0  0  0  0  0  0
   15.1826   12.1525    2.3906 C   0  0  0  0  0  0
   14.5141   13.0745    3.1100 N   0  0  0  0  0  0
   17.2888   12.9506    2.8901 C   0  0  0  0  0  0
   16.7247   13.9751    3.6377 C   0  0  0  0  0  0
   15.3244   13.9495    3.7219 C   0  0  0  0  0  0
   15.0039   14.9744    4.5708 N   0  0  0  0  0  0
   16.1176   15.6340    4.9960 N   0  0  0  0  0  0
   17.1550   15.0849    4.4148 C   0  0  0  0  0  0
   18.5502   15.5458    4.6248 C   0  0  0  0  0  0
   19.2946   14.9737    5.6542 C   0  0  0  0  0  0
   20.6351   15.3081    5.8155 C   0  0  0  0  0  0
   21.2414   16.2335    4.9675 C   0  0  0  0  0  0
   20.4959   16.8211    3.9425 C   0  0  0  0  0  0
   19.1440   16.4889    3.7768 C   0  0  0  0  0  0
   18.6534   12.8325    2.8029 N   0  0  0  0  0  0
   21.3641   14.7075    6.8025 O   0  0  0  0  0  0
   21.3587   18.0328    2.7562 Br  0  0  0  0  0  0
   13.7023   15.4861    4.9458 C   0  0  0  0  0  0
   12.5235   14.5179    4.7231 C   0  0  0  0  0  0
   13.5189   16.8328    4.2564 C   0  0  0  0  0  0
   14.5667   11.4368    1.8650 H   0  0  0  0  0  0
   18.8502   14.2301    6.3031 H   0  0  0  0  0  0
   22.2848   16.4889    5.0872 H   0  0  0  0  0  0
   18.5734   16.9354    2.9713 H   0  0  0  0  0  0
   19.2439   13.5623    3.1781 H   0  0  0  0  0  0
   19.0333   12.1169    2.1870 H   0  0  0  0  0  0
   22.3192   14.7622    6.6699 H   0  0  0  0  0  0
   13.7828   15.6238    6.0081 H   0  0  0  0  0  0
   11.6193   14.8981    5.1904 H   0  0  0  0  0  0
   12.3115   14.3779    3.6609 H   0  0  0  0  0  0
   12.7215   13.5416    5.1636 H   0  0  0  0  0  0
   12.4951   17.1838    4.3642 H   0  0  0  0  0  0
   14.1683   17.5933    4.6970 H   0  0  0  0  0  0
   13.7647   16.7720    3.2033 H   0  0  0  0  0  0
  1  2  2  0  0  0
  1  4  1  0  0  0
  2  3  1  0  0  0
  2 22  1  0  0  0
  3  6  2  0  0  0
  4  5  2  0  0  0
  4 16  1  0  0  0
  5  6  1  0  0  0
  5  9  1  0  0  0
  6  7  1  0  0  0
  7  8  1  0  0  0
  7 19  1  0  0  0
  8  9  2  0  0  0
  9 10  1  0  0  0
 10 11  2  0  0  0
 10 15  1  0  0  0
 11 12  1  0  0  0
 11 23  1  0  0  0
 12 13  2  0  0  0
 12 17  1  0  0  0
 13 14  1  0  0  0
 13 24  1  0  0  0
 14 15  2  0  0  0
 14 18  1  0  0  0
 15 25  1  0  0  0
 16 26  1  0  0  0
 16 27  1  0  0  0
 17 28  1  0  0  0
 19 20  1  0  0  0
 19 21  1  0  0  0
 19 29  1  0  0  0
 20 30  1  0  0  0
 20 31  1  0  0  0
 20 32  1  0  0  0
 21 33  1  0  0  0
 21 34  1  0  0  0
 21 35  1  0  0  0
M  END
> <s_m_entry_id>
6096

> <s_m_entry_name>
dock_pv.22

> <s_m_Source_Path>
/home/csk/Desktop/cluster/DUD-E-result/abl1

> <s_m_Source_File>
dock_pv.maegz

> <i_m_Source_File_Index>
22

> <chembl_id>
CHEMBL1242285

> <chembl_pref_name>
None

> <i_lp_mmshare_version>
53161

> <i_f3d_flags>
0

> <r_lp_tautomer_probability>
0.999999999997365

> <s_lp_Force_Field>
OPLS_2005

> <r_lp_Energy>
10.798325

> <b_lp_Chiralities_Consistent>
1

> <s_lp_Variant>
CHEMBL1862_lig418-1

> <s_i_glide_gridfile>
glide-grid_2hzi

> <i_i_glide_lignum>
503

> <i_i_glide_rotatable_bonds>
3

> <r_i_docking_score>
-11.4273332190253

> <r_i_glide_ligand_efficiency>
-0.544158724715489

> <r_i_glide_ligand_efficiency_sa>
-1.50129265988271

> <r_i_glide_ligand_efficiency_ln>
-2.82538504730301

> <r_i_glide_gscore>
-11.4273332190253

> <r_i_glide_lipo>
-3.1864427998222

> <r_i_glide_hbond>
-1.19805679675624

> <r_i_glide_metal>
0

> <r_i_glide_rewards>
-4.05578077271792

> <r_i_glide_evdw>
-28.7489776611328

> <r_i_glide_ecoul>
-11.3772888183594

> <r_i_glide_erotb>
0.156989356081629

> <r_i_glide_esite>
0

> <r_i_glide_emodel>
-45.2509966473082

> <r_i_glide_energy>
-40.1262664794922

> <r_i_glide_einternal>
7.84046316146851

> <i_i_glide_confnum>
2

> <i_i_glide_posenum>
34

> <r_i_glide_eff_state_penalty>
0

> <s_user_duplicate_titles>
CHEMBL1862_lig418

> <s_m_subgroup_title>
dock_pv

> <s_m_subgroupid>
dock_pv

> <b_m_subgroup_collapsed>
0

$$$$
CHEMBL1862_lig839
                    3D
 Schrodinger Suite 2021-1.
 39 41  0  0  1  0            999 V2000
   16.3309   14.5956    4.0030 C   0  0  0  0  0  0
   17.5484   14.0469    3.5671 C   0  0  0  0  0  0
   17.5223   12.8330    2.8743 C   0  0  0  0  0  0
   16.3979   12.1306    2.5724 N   0  0  0  0  0  0
   15.1450   13.9096    3.7107 C   0  0  0  0  0  0
   15.2595   12.6896    2.9896 C   0  0  0  0  0  0
   13.9854   12.2062    2.7973 N   0  0  0  0  0  0
   13.0710   13.0826    3.3465 C   0  0  0  0  0  0
   13.7509   14.1230    3.9596 C   0  0  0  0  0  0
   11.6348   12.8330    3.2030 C   0  0  0  0  0  0
   18.7893   14.6694    3.7791 N   0  0  0  0  0  0
   18.8287   15.9603    4.4513 C   0  0  0  0  0  0
   11.3703   11.7624    2.4030 O   0  0  0  0  0  0
   20.2445   16.5168    4.5198 C   0  0  0  0  0  0
   21.0758   16.2101    5.6107 C   0  0  0  0  0  0
   22.3103   16.8425    5.7497 C   0  0  0  0  0  0
   22.7308   17.7719    4.8030 C   0  0  0  0  0  0
   21.9405   18.0330    3.6852 C   0  0  0  0  0  0
   20.7071   17.3961    3.5234 C   0  0  0  0  0  0
   10.0316   11.3747    2.1313 C   0  0  0  0  0  0
   10.7812   13.5485    3.7333 O   0  0  0  0  0  0
   20.6119   15.0466    6.8030 Cl  0  0  0  0  0  0
   19.9157   17.6330    2.2422 C   0  0  0  0  0  0
   16.2865   15.5242    4.5491 H   0  0  0  0  0  0
   18.4465   12.3921    2.5304 H   0  0  0  0  0  0
   13.7095   11.3486    2.3309 H   0  0  0  0  0  0
   13.2888   14.9478    4.4826 H   0  0  0  0  0  0
   19.4945   14.5361    3.0619 H   0  0  0  0  0  0
   18.1771   16.6682    3.9378 H   0  0  0  0  0  0
   18.4145   15.8652    5.4563 H   0  0  0  0  0  0
   22.9460   16.6130    6.5936 H   0  0  0  0  0  0
   23.6851   18.2643    4.9211 H   0  0  0  0  0  0
   22.2970   18.7246    2.9357 H   0  0  0  0  0  0
   10.0226   10.4330    1.5819 H   0  0  0  0  0  0
    9.5245   12.1288    1.5283 H   0  0  0  0  0  0
    9.4659   11.2330    3.0535 H   0  0  0  0  0  0
   20.5231   18.1073    1.4708 H   0  0  0  0  0  0
   19.5836   16.6819    1.8245 H   0  0  0  0  0  0
   19.0299   18.2402    2.4318 H   0  0  0  0  0  0
  1  5  1  0  0  0
  1  2  2  0  0  0
  1 24  1  0  0  0
  2  3  1  0  0  0
  2 11  1  0  0  0
  3  4  2  0  0  0
  3 25  1  0  0  0
  4  6  1  0  0  0
  5  6  2  0  0  0
  5  9  1  0  0  0
  6  7  1  0  0  0
  7  8  1  0  0  0
  7 26  1  0  0  0
  8  9  2  0  0  0
  8 10  1  0  0  0
  9 27  1  0  0  0
 10 13  1  0  0  0
 10 21  2  0  0  0
 11 12  1  0  0  0
 11 28  1  0  0  0
 12 14  1  0  0  0
 12 29  1  0  0  0
 12 30  1  0  0  0
 13 20  1  0  0  0
 14 15  2  0  0  0
 14 19  1  0  0  0
 15 16  1  0  0  0
 15 22  1  0  0  0
 16 17  2  0  0  0
 16 31  1  0  0  0
 17 18  1  0  0  0
 17 32  1  0  0  0
 18 19  2  0  0  0
 18 33  1  0  0  0
 19 23  1  0  0  0
 20 34  1  0  0  0
 20 35  1  0  0  0
 20 36  1  0  0  0
 23 37  1  0  0  0
 23 38  1  0  0  0
 23 39  1  0  0  0
M  END
> <s_m_entry_id>
6097

> <s_m_entry_name>
dock_pv.23

> <s_m_Source_Path>
/home/csk/Desktop/cluster/DUD-E-result/abl1

> <s_m_Source_File>
dock_pv.maegz

> <i_m_Source_File_Index>
23

> <chembl_id>
CHEMBL3347388

> <chembl_pref_name>
None

> <i_lp_mmshare_version>
53161

> <i_f3d_flags>
0

> <r_lp_tautomer_probability>
1

> <s_lp_Force_Field>
OPLS_2005

> <r_lp_Energy>
13.245471

> <b_lp_Chiralities_Consistent>
1

> <s_lp_Variant>
CHEMBL1862_lig839-1

> <s_i_glide_gridfile>
glide-grid_2hzi

> <i_i_glide_lignum>
978

> <i_i_glide_rotatable_bonds>
5

> <r_i_docking_score>
-11.4149731561879

> <r_i_glide_ligand_efficiency>
-0.49630318070382

> <r_i_glide_ligand_efficiency_sa>
-1.41142022612373

> <r_i_glide_ligand_efficiency_ln>
-2.76024401442021

> <r_i_glide_gscore>
-11.4149731561879

> <r_i_glide_lipo>
-4.49116399620665

> <r_i_glide_hbond>
-0.719316760825105

> <r_i_glide_metal>
0

> <r_i_glide_rewards>
-3.10150779735869

> <r_i_glide_evdw>
-48.4529762268066

> <r_i_glide_ecoul>
-7.76229047775269

> <r_i_glide_erotb>
0.484007781205825

> <r_i_glide_esite>
0

> <r_i_glide_emodel>
-90.7177813017619

> <r_i_glide_energy>
-56.2152667045593

> <r_i_glide_einternal>
2.82889246940613

> <i_i_glide_confnum>
29

> <i_i_glide_posenum>
106

> <r_i_glide_eff_state_penalty>
0

> <s_user_duplicate_titles>
CHEMBL1862_lig839

> <s_m_subgroup_title>
dock_pv

> <s_m_subgroupid>
dock_pv

> <b_m_subgroup_collapsed>
0

$$$$
CHEMBL1862_lig446
                    3D
 Schrodinger Suite 2021-1.
 35 37  0  0  1  0            999 V2000
   16.6747   12.0333    2.4030 N   0  0  0  0  0  0
   15.3314   12.1906    2.4302 C   0  0  0  0  0  0
   14.6270   13.1269    3.0948 N   0  0  0  0  0  0
   17.4100   12.9994    2.9918 C   0  0  0  0  0  0
   16.8106   14.0328    3.7201 C   0  0  0  0  0  0
   15.4048   13.9917    3.7507 C   0  0  0  0  0  0
   15.0303   15.0053    4.5947 N   0  0  0  0  0  0
   16.1055   15.6929    5.0444 N   0  0  0  0  0  0
   17.1719   15.1716    4.4988 C   0  0  0  0  0  0
   18.5199   15.6954    4.7913 C   0  0  0  0  0  0
   19.3368   14.9597    5.6432 C   0  0  0  0  0  0
   20.6116   15.4137    5.9526 C   0  0  0  0  0  0
   21.0889   16.6105    5.4108 C   0  0  0  0  0  0
   20.2703   17.3492    4.5550 C   0  0  0  0  0  0
   18.9822   16.9007    4.2556 C   0  0  0  0  0  0
   13.7095   15.4858    4.9412 C   0  0  0  0  0  0
   12.5580   14.4868    4.6790 C   0  0  0  0  0  0
   13.5117   16.8336    4.2551 C   0  0  0  0  0  0
   18.7717   12.9296    2.8030 N   0  0  0  0  0  0
   21.3647   14.6658    6.8032 O   0  0  0  0  0  0
   22.8305   17.2589    5.8382 Br  0  0  0  0  0  0
   14.7489   11.5568    1.7883 H   0  0  0  0  0  0
   18.9831   14.0347    6.0718 H   0  0  0  0  0  0
   20.6343   18.2697    4.1263 H   0  0  0  0  0  0
   18.3531   17.4811    3.6005 H   0  0  0  0  0  0
   13.7648   15.6327    6.0027 H   0  0  0  0  0  0
   11.6215   14.8409    5.1105 H   0  0  0  0  0  0
   12.3786   14.3443    3.6114 H   0  0  0  0  0  0
   12.7643   13.5126    5.1265 H   0  0  0  0  0  0
   12.4848   17.1771    4.3729 H   0  0  0  0  0  0
   14.1663   17.5986    4.6730 H   0  0  0  0  0  0
   13.7640   16.7596    3.2045 H   0  0  0  0  0  0
   19.3677   13.6683    3.1468 H   0  0  0  0  0  0
   19.1289   12.1990    2.1878 H   0  0  0  0  0  0
   22.3012   14.9006    6.7748 H   0  0  0  0  0  0
  1  2  2  0  0  0
  1  4  1  0  0  0
  2  3  1  0  0  0
  2 22  1  0  0  0
  3  6  2  0  0  0
  4  5  2  0  0  0
  4 19  1  0  0  0
  5  6  1  0  0  0
  5  9  1  0  0  0
  6  7  1  0  0  0
  7 16  1  0  0  0
  7  8  1  0  0  0
  8  9  2  0  0  0
  9 10  1  0  0  0
 10 11  2  0  0  0
 10 15  1  0  0  0
 11 12  1  0  0  0
 11 23  1  0  0  0
 12 13  2  0  0  0
 12 20  1  0  0  0
 13 14  1  0  0  0
 13 21  1  0  0  0
 14 15  2  0  0  0
 14 24  1  0  0  0
 15 25  1  0  0  0
 16 17  1  0  0  0
 16 18  1  0  0  0
 16 26  1  0  0  0
 17 27  1  0  0  0
 17 28  1  0  0  0
 17 29  1  0  0  0
 18 30  1  0  0  0
 18 31  1  0  0  0
 18 32  1  0  0  0
 19 33  1  0  0  0
 19 34  1  0  0  0
 20 35  1  0  0  0
M  END
> <s_m_entry_id>
6098

> <s_m_entry_name>
dock_pv.24

> <s_m_Source_Path>
/home/csk/Desktop/cluster/DUD-E-result/abl1

> <s_m_Source_File>
dock_pv.maegz

> <i_m_Source_File_Index>
24

> <chembl_id>
CHEMBL1241578

> <chembl_pref_name>
None

> <i_lp_mmshare_version>
53161

> <i_f3d_flags>
0

> <r_lp_tautomer_probability>
0.999999999997365

> <s_lp_Force_Field>
OPLS_2005

> <r_lp_Energy>
12.067714

> <b_lp_Chiralities_Consistent>
1

> <s_lp_Variant>
CHEMBL1862_lig446-1

> <s_i_glide_gridfile>
glide-grid_2hzi

> <i_i_glide_lignum>
534

> <i_i_glide_rotatable_bonds>
3

> <r_i_docking_score>
-11.3915221513902

> <r_i_glide_ligand_efficiency>
-0.542453435780485

> <r_i_glide_ligand_efficiency_sa>
-1.49658789701699

> <r_i_glide_ligand_efficiency_ln>
-2.81653083319331

> <r_i_glide_gscore>
-11.3915221513902

> <r_i_glide_lipo>
-3.43250203856573

> <r_i_glide_hbond>
-1.14601284205948

> <r_i_glide_metal>
0

> <r_i_glide_rewards>
-4.14661114978057

> <r_i_glide_evdw>
-28.844913482666

> <r_i_glide_ecoul>
-9.20759868621826

> <r_i_glide_erotb>
0.156989356081629

> <r_i_glide_esite>
0

> <r_i_glide_emodel>
-46.9611199426967

> <r_i_glide_energy>
-38.0525121688843

> <r_i_glide_einternal>
7.56891393661499

> <i_i_glide_confnum>
3

> <i_i_glide_posenum>
30

> <r_i_glide_eff_state_penalty>
0

> <s_user_duplicate_titles>
CHEMBL1862_lig446

> <s_m_subgroup_title>
dock_pv

> <s_m_subgroupid>
dock_pv

> <b_m_subgroup_collapsed>
0

$$$$
CHEMBL1862_lig474
                    3D
 Schrodinger Suite 2021-1.
 37 39  0  0  1  0            999 V2000
   16.6751   12.0330    2.4026 N   0  0  0  0  0  0
   15.3288   12.1052    2.5151 C   0  0  0  0  0  0
   14.6180   13.0337    3.1887 N   0  0  0  0  0  0
   17.4013   13.0099    2.9781 C   0  0  0  0  0  0
   16.7951   14.0266    3.7132 C   0  0  0  0  0  0
   15.3902   13.9504    3.7830 C   0  0  0  0  0  0
   15.0176   14.9924    4.5937 N   0  0  0  0  0  0
   16.0925   15.6921    5.0243 N   0  0  0  0  0  0
   17.1579   15.1744    4.4766 C   0  0  0  0  0  0
   18.5038   15.7258    4.7414 C   0  0  0  0  0  0
   19.3374   15.0472    5.6259 C   0  0  0  0  0  0
   20.6024   15.5449    5.9209 C   0  0  0  0  0  0
   21.0535   16.7344    5.3244 C   0  0  0  0  0  0
   20.2126   17.4145    4.4398 C   0  0  0  0  0  0
   18.9395   16.9169    4.1547 C   0  0  0  0  0  0
   18.7646   12.9536    2.8030 N   0  0  0  0  0  0
   13.7019   15.4841    4.9414 C   0  0  0  0  0  0
   12.5392   14.5009    4.6820 C   0  0  0  0  0  0
   13.5112   16.8330    4.2571 C   0  0  0  0  0  0
   22.3143   17.2739    5.6034 N   0  0  0  0  0  0
   21.3640   14.8329    6.8030 O   0  0  0  0  0  0
   14.7544   11.3385    2.0176 H   0  0  0  0  0  0
   19.0015   14.1312    6.0911 H   0  0  0  0  0  0
   20.5385   18.3332    3.9746 H   0  0  0  0  0  0
   18.2932   17.4536    3.4762 H   0  0  0  0  0  0
   19.3479   13.7033    3.1464 H   0  0  0  0  0  0
   19.1341   12.2237    2.1952 H   0  0  0  0  0  0
   13.7640   15.6311    6.0030 H   0  0  0  0  0  0
   11.6029   14.8843    5.0864 H   0  0  0  0  0  0
   12.3769   14.3324    3.6172 H   0  0  0  0  0  0
   12.7186   13.5355    5.1572 H   0  0  0  0  0  0
   12.4877   17.1797    4.3960 H   0  0  0  0  0  0
   14.1682   17.5945    4.6773 H   0  0  0  0  0  0
   13.7640   16.7648    3.2030 H   0  0  0  0  0  0
   22.5640   18.1653    5.1991 H   0  0  0  0  0  0
   22.8877   16.8796    6.3349 H   0  0  0  0  0  0
   22.3072   15.0040    6.7118 H   0  0  0  0  0  0
  1  2  2  0  0  0
  1  4  1  0  0  0
  2  3  1  0  0  0
  2 22  1  0  0  0
  3  6  2  0  0  0
  4  5  2  0  0  0
  4 16  1  0  0  0
  5  6  1  0  0  0
  5  9  1  0  0  0
  6  7  1  0  0  0
  7 17  1  0  0  0
  7  8  1  0  0  0
  8  9  2  0  0  0
  9 10  1  0  0  0
 10 11  2  0  0  0
 10 15  1  0  0  0
 11 12  1  0  0  0
 11 23  1  0  0  0
 12 13  2  0  0  0
 12 21  1  0  0  0
 13 14  1  0  0  0
 13 20  1  0  0  0
 14 15  2  0  0  0
 14 24  1  0  0  0
 15 25  1  0  0  0
 16 26  1  0  0  0
 16 27  1  0  0  0
 17 18  1  0  0  0
 17 19  1  0  0  0
 17 28  1  0  0  0
 18 29  1  0  0  0
 18 30  1  0  0  0
 18 31  1  0  0  0
 19 32  1  0  0  0
 19 33  1  0  0  0
 19 34  1  0  0  0
 20 35  1  0  0  0
 20 36  1  0  0  0
 21 37  1  0  0  0
M  END
> <s_m_entry_id>
6099

> <s_m_entry_name>
dock_pv.25

> <s_m_Source_Path>
/home/csk/Desktop/cluster/DUD-E-result/abl1

> <s_m_Source_File>
dock_pv.maegz

> <i_m_Source_File_Index>
25

> <chembl_id>
CHEMBL1242848

> <chembl_pref_name>
None

> <i_lp_mmshare_version>
53161

> <i_f3d_flags>
0

> <r_lp_tautomer_probability>
1

> <s_lp_Force_Field>
OPLS_2005

> <r_lp_Energy>
13.129221

> <b_lp_Chiralities_Consistent>
1

> <s_lp_Variant>
CHEMBL1862_lig474-1

> <s_i_glide_gridfile>
glide-grid_2hzi

> <i_i_glide_lignum>
563

> <i_i_glide_rotatable_bonds>
3

> <r_i_docking_score>
-11.3790463354685

> <r_i_glide_ligand_efficiency>
-0.541859349308025

> <r_i_glide_ligand_efficiency_sa>
-1.49494885748692

> <r_i_glide_ligand_efficiency_ln>
-2.81344621291644

> <r_i_glide_gscore>
-11.3790463354685

> <r_i_glide_lipo>
-3.09283686460562

> <r_i_glide_hbond>
-1.14243706548216

> <r_i_glide_metal>
0

> <r_i_glide_rewards>
-4.45906385228245

> <r_i_glide_evdw>
-28.9392337799072

> <r_i_glide_ecoul>
-9.7464485168457

> <r_i_glide_erotb>
0.22422041342392

> <r_i_glide_esite>
0

> <r_i_glide_emodel>
-48.8215443081907

> <r_i_glide_energy>
-38.6856822967529

> <r_i_glide_einternal>
7.49464225769043

> <i_i_glide_confnum>
1

> <i_i_glide_posenum>
73

> <r_i_glide_eff_state_penalty>
0

> <s_user_duplicate_titles>
CHEMBL1862_lig474

> <s_m_subgroup_title>
dock_pv

> <s_m_subgroupid>
dock_pv

> <b_m_subgroup_collapsed>
0

$$$$
CHEMBL1862_lig854
                    3D
 Schrodinger Suite 2021-1.
 40 43  0  0  1  0            999 V2000
   19.6438   17.6315    2.3389 Br  0  0  0  0  0  0
   20.8043   17.4052    3.8448 C   0  0  0  0  0  0
   21.9554   18.1927    3.8980 C   0  0  0  0  0  0
   22.8359   18.0894    4.9715 C   0  0  0  0  0  0
   22.5708   17.1927    6.0033 C   0  0  0  0  0  0
   21.4242   16.4040    5.9640 C   0  0  0  0  0  0
   20.5287   16.4967    4.8877 C   0  0  0  0  0  0
   19.2561   15.6973    4.9410 C   0  0  0  0  0  0
   18.4923   15.8207    5.9017 O   0  0  0  0  0  0
   19.0586   14.8666    3.8961 N   0  0  0  0  0  0
   17.8942   14.1339    3.6328 C   0  0  0  0  0  0
   18.0143   12.8672    3.0528 C   0  0  0  0  0  0
   16.9628   12.0778    2.7120 N   0  0  0  0  0  0
   15.7611   12.6065    2.9507 C   0  0  0  0  0  0
   14.5397   12.0331    2.6938 N   0  0  0  0  0  0
   13.5201   12.8636    3.0811 C   0  0  0  0  0  0
   12.0864   12.4312    2.8448 C   0  0  0  0  0  0
   11.0798   13.2299    3.6442 C   0  0  0  0  0  0
   11.1276   13.7919    4.9150 C   0  0  0  0  0  0
    9.8760   14.3366    5.2199 C   0  0  0  0  0  0
    9.0597   14.0996    4.1304 C   0  0  0  0  0  0
    9.7884   13.4060    3.2030 N   0  0  0  0  0  0
   14.0883   14.0085    3.6193 C   0  0  0  0  0  0
   15.5082   13.8709    3.5347 C   0  0  0  0  0  0
   16.6147   14.6558    3.8823 C   0  0  0  0  0  0
   22.1668   18.8838    3.0989 H   0  0  0  0  0  0
   23.7250   18.6968    5.0075 H   0  0  0  0  0  0
   23.2652   17.1035    6.8272 H   0  0  0  0  0  0
   21.2346   15.7189    6.7798 H   0  0  0  0  0  0
   19.8155   14.7712    3.2317 H   0  0  0  0  0  0
   18.9857   12.4489    2.8365 H   0  0  0  0  0  0
   14.3499   11.1137    2.3081 H   0  0  0  0  0  0
   11.8619   12.4328    1.7756 H   0  0  0  0  0  0
   11.9844   11.3814    3.1236 H   0  0  0  0  0  0
   11.9820   13.7906    5.5765 H   0  0  0  0  0  0
    9.5994   14.8292    6.1412 H   0  0  0  0  0  0
    8.0260   14.3455    3.9479 H   0  0  0  0  0  0
    9.4315   13.0705    2.3189 H   0  0  0  0  0  0
   13.5344   14.8527    4.0003 H   0  0  0  0  0  0
   16.4746   15.6355    4.3130 H   0  0  0  0  0  0
  1  2  1  0  0  0
  2  3  2  0  0  0
  2  7  1  0  0  0
  3  4  1  0  0  0
  3 26  1  0  0  0
  4  5  2  0  0  0
  4 27  1  0  0  0
  5  6  1  0  0  0
  5 28  1  0  0  0
  6  7  2  0  0  0
  6 29  1  0  0  0
  7  8  1  0  0  0
  8  9  2  0  0  0
  8 10  1  0  0  0
 10 11  1  0  0  0
 10 30  1  0  0  0
 11 12  2  0  0  0
 11 25  1  0  0  0
 12 13  1  0  0  0
 12 31  1  0  0  0
 13 14  2  0  0  0
 14 15  1  0  0  0
 14 24  1  0  0  0
 15 16  1  0  0  0
 15 32  1  0  0  0
 16 17  1  0  0  0
 16 23  2  0  0  0
 17 18  1  0  0  0
 17 33  1  0  0  0
 17 34  1  0  0  0
 18 19  2  0  0  0
 18 22  1  0  0  0
 19 20  1  0  0  0
 19 35  1  0  0  0
 20 21  2  0  0  0
 20 36  1  0  0  0
 21 22  1  0  0  0
 21 37  1  0  0  0
 22 38  1  0  0  0
 23 24  1  0  0  0
 23 39  1  0  0  0
 24 25  2  0  0  0
 25 40  1  0  0  0
M  END
> <s_m_entry_id>
6100

> <s_m_entry_name>
dock_pv.26

> <s_m_Source_Path>
/home/csk/Desktop/cluster/DUD-E-result/abl1

> <s_m_Source_File>
dock_pv.maegz

> <i_m_Source_File_Index>
26

> <chembl_id>
CHEMBL3347621

> <chembl_pref_name>
None

> <i_lp_mmshare_version>
53161

> <i_f3d_flags>
0

> <r_lp_tautomer_probability>
0.999998432528457

> <s_lp_Force_Field>
OPLS_2005

> <r_lp_Energy>
20.282007

> <b_lp_Chiralities_Consistent>
1

> <s_lp_Variant>
CHEMBL1862_lig854-1

> <s_i_glide_gridfile>
glide-grid_2hzi

> <i_i_glide_lignum>
994

> <i_i_glide_rotatable_bonds>
5

> <r_i_docking_score>
-11.3394668338218

> <r_i_glide_ligand_efficiency>
-0.453578673352873

> <r_i_glide_ligand_efficiency_sa>
-1.32627208513582

> <r_i_glide_ligand_efficiency_ln>
-2.68779345601528

> <r_i_glide_gscore>
-11.3394668338218

> <r_i_glide_lipo>
-4.60469020750034

> <r_i_glide_hbond>
-0.719869494801407

> <r_i_glide_metal>
0

> <r_i_glide_rewards>
-2.71302162384033

> <r_i_glide_evdw>
-51.559497833252

> <r_i_glide_ecoul>
-7.74646425247192

> <r_i_glide_erotb>
0.438059021853646

> <r_i_glide_esite>
0

> <r_i_glide_emodel>
-89.971005477227

> <r_i_glide_energy>
-59.3059620857239

> <r_i_glide_einternal>
7.53320741653442

> <i_i_glide_confnum>
151

> <i_i_glide_posenum>
253

> <r_i_glide_eff_state_penalty>
0

> <s_user_duplicate_titles>
CHEMBL1862_lig854

> <s_m_subgroup_title>
dock_pv

> <s_m_subgroupid>
dock_pv

> <b_m_subgroup_collapsed>
0

$$$$
CHEMBL1862_lig527
                    3D
 Schrodinger Suite 2021-1.
 41 44  0  0  1  0            999 V2000
   16.4739   12.0330    2.0435 N   0  0  0  0  0  0
   15.1256   12.1055    2.1409 C   0  0  0  0  0  0
   14.4091   12.9328    2.9335 N   0  0  0  0  0  0
   17.1933   12.8822    2.8030 C   0  0  0  0  0  0
   16.5828   13.8151    3.6129 C   0  0  0  0  0  0
   15.1806   13.7592    3.6516 C   0  0  0  0  0  0
   14.8232   14.7090    4.5790 N   0  0  0  0  0  0
   15.9119   15.3355    5.0949 N   0  0  0  0  0  0
   16.9719   14.8434    4.5113 C   0  0  0  0  0  0
   18.3419   15.3315    4.8055 C   0  0  0  0  0  0
   18.9974   16.0732    3.8268 C   0  0  0  0  0  0
   20.2107   15.6328    6.3192 C   0  0  0  0  0  0
   18.9624   15.0899    6.0305 C   0  0  0  0  0  0
   18.5640   12.7959    2.8030 N   0  0  0  0  0  0
   20.8441   16.4848    5.3885 C   0  0  0  0  0  0
   20.2493   16.6812    4.1033 C   0  0  0  0  0  0
   20.9402   17.5071    3.1752 C   0  0  0  0  0  0
   22.0724   18.1913    3.6030 C   0  0  0  0  0  0
   22.5640   17.9725    4.8859 C   0  0  0  0  0  0
   21.9946   17.1111    5.7609 N   0  0  0  0  0  0
   13.5177   15.2331    4.9212 C   0  0  0  0  0  0
   12.3243   14.3533    4.4923 C   0  0  0  0  0  0
   20.5480   17.6330    1.8411 N   0  0  0  0  0  0
   13.4585   16.6472    4.3223 C   0  0  0  0  0  0
   14.5638   11.4182    1.5270 H   0  0  0  0  0  0
   18.5207   16.2454    2.8726 H   0  0  0  0  0  0
   20.6717   15.4625    7.2810 H   0  0  0  0  0  0
   18.4688   14.4907    6.7798 H   0  0  0  0  0  0
   19.1060   13.4598    3.3365 H   0  0  0  0  0  0
   19.0017   12.1312    2.1664 H   0  0  0  0  0  0
   22.5640   18.8772    2.9341 H   0  0  0  0  0  0
   23.4507   18.4861    5.2309 H   0  0  0  0  0  0
   13.5143   15.2330    6.0030 H   0  0  0  0  0  0
   11.3866   14.7642    4.8669 H   0  0  0  0  0  0
   12.2296   14.2859    3.4089 H   0  0  0  0  0  0
   12.4133   13.3406    4.8881 H   0  0  0  0  0  0
   21.2026   18.1060    1.2326 H   0  0  0  0  0  0
   20.0298   16.8525    1.4638 H   0  0  0  0  0  0
   12.4577   17.0679    4.4030 H   0  0  0  0  0  0
   14.1640   17.3271    4.8030 H   0  0  0  0  0  0
   13.7640   16.6295    3.2748 H   0  0  0  0  0  0
  1  2  2  0  0  0
  1  4  1  0  0  0
  2  3  1  0  0  0
  2 25  1  0  0  0
  3  6  2  0  0  0
  4 14  1  0  0  0
  4  5  2  0  0  0
  5  9  1  0  0  0
  5  6  1  0  0  0
  6  7  1  0  0  0
  7  8  1  0  0  0
  7 21  1  0  0  0
  8  9  2  0  0  0
  9 10  1  0  0  0
 10 13  1  0  0  0
 10 11  2  0  0  0
 11 16  1  0  0  0
 11 26  1  0  0  0
 12 15  1  0  0  0
 12 13  2  0  0  0
 12 27  1  0  0  0
 13 28  1  0  0  0
 14 29  1  0  0  0
 14 30  1  0  0  0
 15 16  2  0  0  0
 15 20  1  0  0  0
 16 17  1  0  0  0
 17 18  2  0  0  0
 17 23  1  0  0  0
 18 19  1  0  0  0
 18 31  1  0  0  0
 19 20  2  0  0  0
 19 32  1  0  0  0
 21 22  1  0  0  0
 21 24  1  0  0  0
 21 33  1  0  0  0
 22 34  1  0  0  0
 22 35  1  0  0  0
 22 36  1  0  0  0
 23 37  1  0  0  0
 23 38  1  0  0  0
 24 39  1  0  0  0
 24 40  1  0  0  0
 24 41  1  0  0  0
M  END
> <s_m_entry_id>
6101

> <s_m_entry_name>
dock_pv.27

> <s_m_Source_Path>
/home/csk/Desktop/cluster/DUD-E-result/abl1

> <s_m_Source_File>
dock_pv.maegz

> <i_m_Source_File_Index>
27

> <chembl_id>
CHEMBL1242034

> <chembl_pref_name>
None

> <i_lp_mmshare_version>
53161

> <i_f3d_flags>
0

> <r_lp_tautomer_probability>
1

> <s_lp_Force_Field>
OPLS_2005

> <r_lp_Energy>
18.784247

> <b_lp_Chiralities_Consistent>
1

> <s_lp_Variant>
CHEMBL1862_lig527-1

> <s_i_glide_gridfile>
glide-grid_2hzi

> <i_i_glide_lignum>
625

> <i_i_glide_rotatable_bonds>
2

> <r_i_docking_score>
-11.2900083807176

> <r_i_glide_ligand_efficiency>
-0.470417015863231

> <r_i_glide_ligand_efficiency_sa>
-1.35691747655063

> <r_i_glide_ligand_efficiency_ln>
-2.70221707023275

> <r_i_glide_gscore>
-11.2900083807176

> <r_i_glide_lipo>
-3.94317622355143

> <r_i_glide_hbond>
-0.770262877450936

> <r_i_glide_metal>
0

> <r_i_glide_rewards>
-3.73232214727906

> <r_i_glide_evdw>
-34.563232421875

> <r_i_glide_ecoul>
-8.29425239562988

> <r_i_glide_erotb>
0.128052348002106

> <r_i_glide_esite>
0

> <r_i_glide_emodel>
-43.1777700355368

> <r_i_glide_energy>
-42.8574848175049

> <r_i_glide_einternal>
7.74253082275391

> <i_i_glide_confnum>
1

> <i_i_glide_posenum>
40

> <r_i_glide_eff_state_penalty>
0

> <s_user_duplicate_titles>
CHEMBL1862_lig527

> <s_m_subgroup_title>
dock_pv

> <s_m_subgroupid>
dock_pv

> <b_m_subgroup_collapsed>
0

$$$$
CHEMBL1862_lig848
                    3D
 Schrodinger Suite 2021-1.
 39 41  0  0  1  0            999 V2000
   10.1112   10.9736    1.5523 C   0  0  0  0  0  0
   11.4076   11.3834    1.9615 O   0  0  0  0  0  0
   11.5588   12.4330    2.8030 C   0  0  0  0  0  0
   10.6278   13.0619    3.3134 O   0  0  0  0  0  0
   12.9627   12.7940    3.0460 C   0  0  0  0  0  0
   13.5319   13.8424    3.7580 C   0  0  0  0  0  0
   14.9553   13.7413    3.5937 C   0  0  0  0  0  0
   16.0785   14.4799    4.0030 C   0  0  0  0  0  0
   17.3515   14.0330    3.6030 C   0  0  0  0  0  0
   18.5437   14.7114    3.9169 N   0  0  0  0  0  0
   18.7927   15.4876    4.9944 C   0  0  0  0  0  0
   18.0343   15.6338    5.9545 O   0  0  0  0  0  0
   20.1149   16.2071    4.9666 C   0  0  0  0  0  0
   21.0454   15.9898    5.9955 C   0  0  0  0  0  0
   20.7894   15.1180    6.9998 F   0  0  0  0  0  0
   22.2582   16.6736    6.0030 C   0  0  0  0  0  0
   22.5640   17.5708    4.9855 C   0  0  0  0  0  0
   21.6657   17.7643    3.9395 C   0  0  0  0  0  0
   20.4396   17.0792    3.9079 C   0  0  0  0  0  0
   19.5158   17.2614    2.8950 O   0  0  0  0  0  0
   19.9873   17.5215    1.5790 C   0  0  0  0  0  0
   17.4451   12.8773    2.8186 C   0  0  0  0  0  0
   16.3860   12.1323    2.4079 N   0  0  0  0  0  0
   15.1933   12.5863    2.7985 C   0  0  0  0  0  0
   13.9697   12.0330    2.4981 N   0  0  0  0  0  0
   10.1742   10.0330    1.0084 H   0  0  0  0  0  0
    9.6649   11.7179    0.8917 H   0  0  0  0  0  0
    9.4460   10.8330    2.4048 H   0  0  0  0  0  0
   12.9798   14.5963    4.3004 H   0  0  0  0  0  0
   15.9533   15.3738    4.5955 H   0  0  0  0  0  0
   19.2985   14.6177    3.2521 H   0  0  0  0  0  0
   22.9658   16.5052    6.8027 H   0  0  0  0  0  0
   23.5027   18.1057    5.0026 H   0  0  0  0  0  0
   21.9358   18.4647    3.1650 H   0  0  0  0  0  0
   19.1301   17.6330    0.9167 H   0  0  0  0  0  0
   20.5752   18.4330    1.5029 H   0  0  0  0  0  0
   20.5778   16.6864    1.2030 H   0  0  0  0  0  0
   18.4103   12.5151    2.4921 H   0  0  0  0  0  0
   13.7772   11.1625    2.0030 H   0  0  0  0  0  0
  1  2  1  0  0  0
  1 26  1  0  0  0
  1 27  1  0  0  0
  1 28  1  0  0  0
  2  3  1  0  0  0
  3  4  2  0  0  0
  3  5  1  0  0  0
  5  6  2  0  0  0
  5 25  1  0  0  0
  6  7  1  0  0  0
  6 29  1  0  0  0
  7  8  2  0  0  0
  7 24  1  0  0  0
  8  9  1  0  0  0
  8 30  1  0  0  0
  9 10  1  0  0  0
  9 22  2  0  0  0
 10 11  1  0  0  0
 10 31  1  0  0  0
 11 12  2  0  0  0
 11 13  1  0  0  0
 13 14  2  0  0  0
 13 19  1  0  0  0
 14 15  1  0  0  0
 14 16  1  0  0  0
 16 17  2  0  0  0
 16 32  1  0  0  0
 17 18  1  0  0  0
 17 33  1  0  0  0
 18 19  2  0  0  0
 18 34  1  0  0  0
 19 20  1  0  0  0
 20 21  1  0  0  0
 21 35  1  0  0  0
 21 36  1  0  0  0
 21 37  1  0  0  0
 22 23  1  0  0  0
 22 38  1  0  0  0
 23 24  2  0  0  0
 24 25  1  0  0  0
 25 39  1  0  0  0
M  END
> <s_m_entry_id>
6102

> <s_m_entry_name>
dock_pv.28

> <s_m_Source_Path>
/home/csk/Desktop/cluster/DUD-E-result/abl1

> <s_m_Source_File>
dock_pv.maegz

> <i_m_Source_File_Index>
28

> <chembl_id>
CHEMBL3347624

> <chembl_pref_name>
None

> <i_lp_mmshare_version>
53161

> <i_f3d_flags>
0

> <r_lp_tautomer_probability>
1

> <s_lp_Force_Field>
OPLS_2005

> <r_lp_Energy>
25.531319

> <b_lp_Chiralities_Consistent>
1

> <s_lp_Variant>
CHEMBL1862_lig848-1

> <s_i_glide_gridfile>
glide-grid_2hzi

> <i_i_glide_lignum>
988

> <i_i_glide_rotatable_bonds>
6

> <r_i_docking_score>
-11.2789388651583

> <r_i_glide_ligand_efficiency>
-0.451157554606333

> <r_i_glide_ligand_efficiency_sa>
-1.31919269098222

> <r_i_glide_ligand_efficiency_ln>
-2.67344651356518

> <r_i_glide_gscore>
-11.2789388651583

> <r_i_glide_lipo>
-3.82273587069239

> <r_i_glide_hbond>
-0.593773671264601

> <r_i_glide_metal>
0

> <r_i_glide_rewards>
-3.29998462680223

> <r_i_glide_evdw>
-49.6155586242676

> <r_i_glide_ecoul>
-10.1014680862427

> <r_i_glide_erotb>
0.450746136210907

> <r_i_glide_esite>
-0.0171926884602211

> <r_i_glide_emodel>
-97.7896024841564

> <r_i_glide_energy>
-59.7170267105103

> <r_i_glide_einternal>
4.70418214797974

> <i_i_glide_confnum>
23

> <i_i_glide_posenum>
178

> <r_i_glide_eff_state_penalty>
0

> <s_user_duplicate_titles>
CHEMBL1862_lig848

> <s_m_subgroup_title>
dock_pv

> <s_m_subgroupid>
dock_pv

> <b_m_subgroup_collapsed>
0

$$$$
CHEMBL1862_lig846
                    3D
 Schrodinger Suite 2021-1.
 38 40  0  0  1  0            999 V2000
   16.0643   14.5167    3.9764 C   0  0  0  0  0  0
   17.3467   14.0676    3.6030 C   0  0  0  0  0  0
   17.4490   12.8841    2.8609 C   0  0  0  0  0  0
   16.3961   12.1272    2.4540 N   0  0  0  0  0  0
   14.9495   13.7628    3.5776 C   0  0  0  0  0  0
   15.1971   12.5906    2.8134 C   0  0  0  0  0  0
   13.9755   12.0330    2.5109 N   0  0  0  0  0  0
   12.9635   12.8009    3.0405 C   0  0  0  0  0  0
   13.5259   13.8645    3.7325 C   0  0  0  0  0  0
   11.5609   12.4330    2.8030 C   0  0  0  0  0  0
   18.5471   14.7501    3.8958 N   0  0  0  0  0  0
   18.7384   15.7921    4.7333 C   0  0  0  0  0  0
   11.4124   11.3817    1.9640 O   0  0  0  0  0  0
   20.1279   16.3706    4.7227 C   0  0  0  0  0  0
   17.8904   16.2888    5.4753 O   0  0  0  0  0  0
   21.0347   16.0424    5.7512 C   0  0  0  0  0  0
   22.2725   16.6798    5.8208 C   0  0  0  0  0  0
   22.6293   17.6330    4.8726 C   0  0  0  0  0  0
   21.7640   17.9270    3.8234 C   0  0  0  0  0  0
   20.5201   17.2950    3.7271 C   0  0  0  0  0  0
   10.1168   10.9720    1.5522 C   0  0  0  0  0  0
   10.6284   13.0604    3.3125 O   0  0  0  0  0  0
   19.6424   17.6330    2.5244 C   0  0  0  0  0  0
   20.6738   14.8592    6.9663 Cl  0  0  0  0  0  0
   15.9090   15.4233    4.5385 H   0  0  0  0  0  0
   18.4174   12.5118    2.5558 H   0  0  0  0  0  0
   13.7870   11.1542    2.0290 H   0  0  0  0  0  0
   12.9693   14.6285    4.2560 H   0  0  0  0  0  0
   19.3674   14.4330    3.3982 H   0  0  0  0  0  0
   22.9638   16.4347    6.6152 H   0  0  0  0  0  0
   23.5885   18.1257    4.9399 H   0  0  0  0  0  0
   22.0704   18.6472    3.0778 H   0  0  0  0  0  0
   10.1809   10.0330    1.0062 H   0  0  0  0  0  0
    9.6711   11.7174    0.8925 H   0  0  0  0  0  0
    9.4503   10.8301    2.4035 H   0  0  0  0  0  0
   20.2313   18.0330    1.6982 H   0  0  0  0  0  0
   19.1528   16.7453    2.1257 H   0  0  0  0  0  0
   18.8749   18.3538    2.8030 H   0  0  0  0  0  0
  1  5  1  0  0  0
  1  2  2  0  0  0
  1 25  1  0  0  0
  2  3  1  0  0  0
  2 11  1  0  0  0
  3  4  2  0  0  0
  3 26  1  0  0  0
  4  6  1  0  0  0
  5  6  2  0  0  0
  5  9  1  0  0  0
  6  7  1  0  0  0
  7  8  1  0  0  0
  7 27  1  0  0  0
  8  9  2  0  0  0
  8 10  1  0  0  0
  9 28  1  0  0  0
 10 13  1  0  0  0
 10 22  2  0  0  0
 11 12  1  0  0  0
 11 29  1  0  0  0
 12 14  1  0  0  0
 12 15  2  0  0  0
 13 21  1  0  0  0
 14 16  2  0  0  0
 14 20  1  0  0  0
 16 17  1  0  0  0
 16 24  1  0  0  0
 17 18  2  0  0  0
 17 30  1  0  0  0
 18 19  1  0  0  0
 18 31  1  0  0  0
 19 20  2  0  0  0
 19 32  1  0  0  0
 20 23  1  0  0  0
 21 33  1  0  0  0
 21 34  1  0  0  0
 21 35  1  0  0  0
 23 36  1  0  0  0
 23 37  1  0  0  0
 23 38  1  0  0  0
M  END
> <s_m_entry_id>
6103

> <s_m_entry_name>
dock_pv.29

> <s_m_Source_Path>
/home/csk/Desktop/cluster/DUD-E-result/abl1

> <s_m_Source_File>
dock_pv.maegz

> <i_m_Source_File_Index>
29

> <chembl_id>
CHEMBL3347638

> <chembl_pref_name>
None

> <i_lp_mmshare_version>
53161

> <i_f3d_flags>
0

> <r_lp_tautomer_probability>
1

> <s_lp_Force_Field>
OPLS_2005

> <r_lp_Energy>
24.054732

> <b_lp_Chiralities_Consistent>
1

> <s_lp_Variant>
CHEMBL1862_lig846-1

> <s_i_glide_gridfile>
glide-grid_2hzi

> <i_i_glide_lignum>
986

> <i_i_glide_rotatable_bonds>
5

> <r_i_docking_score>
-11.2018923243259

> <r_i_glide_ligand_efficiency>
-0.466745513513579

> <r_i_glide_ligand_efficiency_sa>
-1.34632703118951

> <r_i_glide_ligand_efficiency_ln>
-2.68112685455587

> <r_i_glide_gscore>
-11.2018923243259

> <r_i_glide_lipo>
-4.01342661087901

> <r_i_glide_hbond>
-0.60355074394259

> <r_i_glide_metal>
0

> <r_i_glide_rewards>
-3.18595063197757

> <r_i_glide_evdw>
-48.5741653442383

> <r_i_glide_ecoul>
-9.35169410705566

> <r_i_glide_erotb>
0.449688228879811

> <r_i_glide_esite>
-0.0171901831362738

> <r_i_glide_emodel>
-95.2740187377334

> <r_i_glide_energy>
-57.9258594512939

> <r_i_glide_einternal>
1.76301729679108

> <i_i_glide_confnum>
6

> <i_i_glide_posenum>
169

> <r_i_glide_eff_state_penalty>
0

> <s_user_duplicate_titles>
CHEMBL1862_lig846

> <s_m_subgroup_title>
dock_pv

> <s_m_subgroupid>
dock_pv

> <b_m_subgroup_collapsed>
0

$$$$
CHEMBL1862_lig517
                    3D
 Schrodinger Suite 2021-1.
 39 42  0  0  1  0            999 V2000
   16.5774   12.0330    2.2964 N   0  0  0  0  0  0
   15.2350   12.1623    2.4028 C   0  0  0  0  0  0
   14.5631   13.0957    3.1070 N   0  0  0  0  0  0
   17.3409   12.9431    2.9348 C   0  0  0  0  0  0
   16.7759   13.9574    3.7016 C   0  0  0  0  0  0
   15.3698   13.9515    3.7440 C   0  0  0  0  0  0
   15.0334   14.9804    4.5855 N   0  0  0  0  0  0
   16.1340   15.6330    5.0378 N   0  0  0  0  0  0
   17.1882   15.0412    4.5354 C   0  0  0  0  0  0
   18.7047   12.8330    2.8030 N   0  0  0  0  0  0
   13.7247   15.4886    4.9438 C   0  0  0  0  0  0
   12.5473   14.5160    4.7066 C   0  0  0  0  0  0
   13.5365   16.8335    4.2577 C   0  0  0  0  0  0
   18.5656   15.4643    4.8966 C   0  0  0  0  0  0
   19.1093   16.6455    4.3927 C   0  0  0  0  0  0
   20.5873   15.0379    6.1769 N   0  0  0  0  0  0
   19.3391   14.7004    5.7726 C   0  0  0  0  0  0
   21.1259   16.1891    5.6914 C   0  0  0  0  0  0
   20.4179   17.0287    4.7794 C   0  0  0  0  0  0
   21.0399   18.2056    4.3074 C   0  0  0  0  0  0
   22.3065   18.5660    4.7557 C   0  0  0  0  0  0
   22.9862   17.7573    5.6562 C   0  0  0  0  0  0
   22.4195   16.5710    6.1131 C   0  0  0  0  0  0
   14.6279   11.4591    1.8509 H   0  0  0  0  0  0
   19.3018   13.5460    3.1965 H   0  0  0  0  0  0
   19.0701   12.1236    2.1678 H   0  0  0  0  0  0
   13.7923   15.6330    6.0031 H   0  0  0  0  0  0
   11.6258   14.9004    5.1428 H   0  0  0  0  0  0
   12.3510   14.3627    3.6453 H   0  0  0  0  0  0
   12.7330   13.5433    5.1643 H   0  0  0  0  0  0
   12.5161   17.1903    4.3900 H   0  0  0  0  0  0
   14.2071   17.5910    4.6641 H   0  0  0  0  0  0
   13.7640   16.7516    3.2030 H   0  0  0  0  0  0
   18.5456   17.2683    3.7129 H   0  0  0  0  0  0
   18.9640   13.7734    6.1765 H   0  0  0  0  0  0
   20.5183   18.8323    3.6074 H   0  0  0  0  0  0
   22.7650   19.4807    4.4070 H   0  0  0  0  0  0
   23.9697   18.0471    5.9985 H   0  0  0  0  0  0
   22.9641   15.9452    6.8031 H   0  0  0  0  0  0
  1  2  2  0  0  0
  1  4  1  0  0  0
  2  3  1  0  0  0
  2 24  1  0  0  0
  3  6  2  0  0  0
  4  5  2  0  0  0
  4 10  1  0  0  0
  5  9  1  0  0  0
  5  6  1  0  0  0
  6  7  1  0  0  0
  7 11  1  0  0  0
  7  8  1  0  0  0
  8  9  2  0  0  0
  9 14  1  0  0  0
 10 25  1  0  0  0
 10 26  1  0  0  0
 11 12  1  0  0  0
 11 13  1  0  0  0
 11 27  1  0  0  0
 12 28  1  0  0  0
 12 29  1  0  0  0
 12 30  1  0  0  0
 13 31  1  0  0  0
 13 32  1  0  0  0
 13 33  1  0  0  0
 14 15  2  0  0  0
 14 17  1  0  0  0
 15 19  1  0  0  0
 15 34  1  0  0  0
 16 18  1  0  0  0
 16 17  2  0  0  0
 17 35  1  0  0  0
 18 19  1  0  0  0
 18 23  2  0  0  0
 19 20  2  0  0  0
 20 21  1  0  0  0
 20 36  1  0  0  0
 21 22  2  0  0  0
 21 37  1  0  0  0
 22 23  1  0  0  0
 22 38  1  0  0  0
 23 39  1  0  0  0
M  END
> <s_m_entry_id>
6104

> <s_m_entry_name>
dock_pv.30

> <s_m_Source_Path>
/home/csk/Desktop/cluster/DUD-E-result/abl1

> <s_m_Source_File>
dock_pv.maegz

> <i_m_Source_File_Index>
30

> <chembl_id>
CHEMBL1242754

> <chembl_pref_name>
None

> <i_lp_mmshare_version>
53161

> <i_f3d_flags>
0

> <r_lp_tautomer_probability>
1

> <s_lp_Force_Field>
OPLS_2005

> <r_lp_Energy>
18.047846

> <b_lp_Chiralities_Consistent>
1

> <s_lp_Variant>
CHEMBL1862_lig517-1

> <s_i_glide_gridfile>
glide-grid_2hzi

> <i_i_glide_lignum>
614

> <i_i_glide_rotatable_bonds>
2

> <r_i_docking_score>
-11.1943749503319

> <r_i_glide_ligand_efficiency>
-0.486711954362256

> <r_i_glide_ligand_efficiency_sa>
-1.38414405426318

> <r_i_glide_ligand_efficiency_ln>
-2.7069013679703

> <r_i_glide_gscore>
-11.1943749503319

> <r_i_glide_lipo>
-4.04265995362937

> <r_i_glide_hbond>
-0.608

> <r_i_glide_metal>
0

> <r_i_glide_rewards>
-3.9432444485635

> <r_i_glide_evdw>
-32.0582122802734

> <r_i_glide_ecoul>
-7.97762966156006

> <r_i_glide_erotb>
0.199084515108651

> <r_i_glide_esite>
0

> <r_i_glide_emodel>
-52.7181723523421

> <r_i_glide_energy>
-40.0358419418335

> <r_i_glide_einternal>
7.21870040893555

> <i_i_glide_confnum>
1

> <i_i_glide_posenum>
170

> <r_i_glide_eff_state_penalty>
0

> <s_user_duplicate_titles>
CHEMBL1862_lig517

> <s_m_subgroup_title>
dock_pv

> <s_m_subgroupid>
dock_pv

> <b_m_subgroup_collapsed>
0

$$$$
CHEMBL1862_lig493
                    3D
 Schrodinger Suite 2021-1.
 41 44  0  0  1  0            999 V2000
   16.8679   12.0330    2.4030 N   0  0  0  0  0  0
   15.5195   12.1324    2.3738 C   0  0  0  0  0  0
   14.7658   13.0904    2.9383 N   0  0  0  0  0  0
   17.5364   13.0421    3.0021 C   0  0  0  0  0  0
   16.8617   14.0407    3.7162 C   0  0  0  0  0  0
   15.4617   13.9731    3.6537 C   0  0  0  0  0  0
   14.9872   14.9904    4.4519 N   0  0  0  0  0  0
   16.0106   15.7020    4.9725 N   0  0  0  0  0  0
   17.1302   15.1973    4.5090 C   0  0  0  0  0  0
   18.4486   15.7756    4.8388 C   0  0  0  0  0  0
   19.3030   15.0652    5.6776 C   0  0  0  0  0  0
   20.5681   15.5605    5.9691 C   0  0  0  0  0  0
   20.9928   16.7756    5.4197 C   0  0  0  0  0  0
   20.1327   17.4951    4.5900 C   0  0  0  0  0  0
   18.8607   16.9994    4.3053 C   0  0  0  0  0  0
   18.8994   13.0642    2.8032 N   0  0  0  0  0  0
   22.5637   17.4090    5.7545 Cl  0  0  0  0  0  0
   21.3640   14.8330    6.8030 O   0  0  0  0  0  0
   13.6196   15.4805    4.5936 C   0  0  0  0  0  0
   12.5965   14.4638    5.2037 C   0  0  2  0  0  0
   12.5640   13.1760    4.5607 N   0  0  1  0  0  0
   11.6533   13.2329    3.4346 C   0  0  0  0  0  0
   10.5342   14.1611    3.8643 C   0  0  0  0  0  0
   11.1009   14.8234    5.1154 C   0  0  0  0  0  0
   14.9640   11.4190    1.7876 H   0  0  0  0  0  0
   18.9889   14.1223    6.0984 H   0  0  0  0  0  0
   20.4545   18.4326    4.1616 H   0  0  0  0  0  0
   18.2058   17.5533    3.6514 H   0  0  0  0  0  0
   19.4568   13.8420    3.1279 H   0  0  0  0  0  0
   19.2909   12.3347    2.2091 H   0  0  0  0  0  0
   22.2841   15.1203    6.7854 H   0  0  0  0  0  0
   13.6693   16.3745    5.2014 H   0  0  0  0  0  0
   13.3639   15.8151    3.6030 H   0  0  0  0  0  0
   12.8659   14.2672    6.2418 H   0  0  0  0  0  0
   13.4904   12.9250    4.2227 H   0  0  0  0  0  0
   11.2829   12.2343    3.1987 H   0  0  0  0  0  0
   12.1753   13.6003    2.5541 H   0  0  0  0  0  0
    9.6256   13.6029    4.0957 H   0  0  0  0  0  0
   10.2952   14.8830    3.0857 H   0  0  0  0  0  0
   10.5800   14.4518    6.0033 H   0  0  0  0  0  0
   10.9640   15.9004    5.0784 H   0  0  0  0  0  0
  1  2  2  0  0  0
  1  4  1  0  0  0
  2  3  1  0  0  0
  2 25  1  0  0  0
  3  6  2  0  0  0
  4  5  2  0  0  0
  4 16  1  0  0  0
  5  9  1  0  0  0
  5  6  1  0  0  0
  6  7  1  0  0  0
  7  8  1  0  0  0
  7 19  1  0  0  0
  8  9  2  0  0  0
  9 10  1  0  0  0
 10 15  1  0  0  0
 10 11  2  0  0  0
 11 12  1  0  0  0
 11 26  1  0  0  0
 12 13  2  0  0  0
 12 18  1  0  0  0
 13 14  1  0  0  0
 13 17  1  0  0  0
 14 15  2  0  0  0
 14 27  1  0  0  0
 15 28  1  0  0  0
 16 29  1  0  0  0
 16 30  1  0  0  0
 18 31  1  0  0  0
 19 20  1  0  0  0
 19 32  1  0  0  0
 19 33  1  0  0  0
 20 21  1  0  0  0
 20 24  1  0  0  0
 20 34  1  0  0  0
 21 22  1  0  0  0
 21 35  1  0  0  0
 22 23  1  0  0  0
 22 36  1  0  0  0
 22 37  1  0  0  0
 23 24  1  0  0  0
 23 38  1  0  0  0
 23 39  1  0  0  0
 24 40  1  0  0  0
 24 41  1  0  0  0
M  END
> <s_m_entry_id>
6105

> <s_m_entry_name>
dock_pv.31

> <s_m_Source_Path>
/home/csk/Desktop/cluster/DUD-E-result/abl1

> <s_m_Source_File>
dock_pv.maegz

> <i_m_Source_File_Index>
31

> <chembl_id>
CHEMBL1241769

> <chembl_pref_name>
None

> <i_lp_mmshare_version>
53161

> <i_f3d_flags>
0

> <r_lp_tautomer_probability>
0.999999999997365

> <s_lp_Force_Field>
OPLS_2005

> <r_lp_Energy>
26.806034

> <b_lp_Chiralities_Consistent>
1

> <s_lp_Variant>
CHEMBL1862_lig493-1

> <s_i_glide_gridfile>
glide-grid_2hzi

> <i_i_glide_lignum>
583

> <i_i_glide_rotatable_bonds>
4

> <r_i_docking_score>
-11.1843236290668

> <r_i_glide_ligand_efficiency>
-0.466013484544452

> <r_i_glide_ligand_efficiency_sa>
-1.34421549425939

> <r_i_glide_ligand_efficiency_ln>
-2.67692185960549

> <r_i_glide_gscore>
-11.1843236290668

> <r_i_glide_lipo>
-3.90210332884946

> <r_i_glide_hbond>
-0.957936738773344

> <r_i_glide_metal>
0

> <r_i_glide_rewards>
-4.07583217706876

> <r_i_glide_evdw>
-31.6944446563721

> <r_i_glide_ecoul>
-7.61983585357666

> <r_i_glide_erotb>
0.479246226479821

> <r_i_glide_esite>
0

> <r_i_glide_emodel>
-55.1736097397678

> <r_i_glide_energy>
-39.3142805099487

> <r_i_glide_einternal>
8.26309871673584

> <i_i_glide_confnum>
26

> <i_i_glide_posenum>
75

> <r_i_glide_eff_state_penalty>
0

> <s_user_duplicate_titles>
CHEMBL1862_lig493

> <s_m_subgroup_title>
dock_pv

> <s_m_subgroupid>
dock_pv

> <b_m_subgroup_collapsed>
0

$$$$
CHEMBL1862_lig520
                    3D
 Schrodinger Suite 2021-1.
 42 45  0  0  1  0            999 V2000
   16.4771   12.0331    2.0654 N   0  0  0  0  0  0
   15.1278   12.1018    2.1617 C   0  0  0  0  0  0
   14.4070   12.9346    2.9441 N   0  0  0  0  0  0
   17.1933   12.8911    2.8191 C   0  0  0  0  0  0
   16.5776   13.8177    3.6360 C   0  0  0  0  0  0
   15.1735   13.7674    3.6596 C   0  0  0  0  0  0
   14.8069   14.7341    4.5656 N   0  0  0  0  0  0
   15.8899   15.3695    5.0787 N   0  0  0  0  0  0
   16.9580   14.8390    4.5485 C   0  0  0  0  0  0
   18.3232   15.2780    4.9320 C   0  0  0  0  0  0
   18.7421   16.5544    4.5783 C   0  0  0  0  0  0
   20.4633   14.8469    6.0111 C   0  0  0  0  0  0
   19.1928   14.4342    5.6248 C   0  0  0  0  0  0
   18.5659   12.8261    2.8027 N   0  0  0  0  0  0
   20.9080   16.1366    5.6684 C   0  0  0  0  0  0
   20.0391   16.9882    4.9217 C   0  0  0  0  0  0
   20.5137   18.2562    4.5563 C   0  0  0  0  0  0
   21.7798   18.6592    4.9607 C   0  0  0  0  0  0
   22.5369   17.7931    5.7393 C   0  0  0  0  0  0
   22.1436   16.5398    6.0732 N   0  0  0  0  0  0
   13.4996   15.2576    4.9027 C   0  0  0  0  0  0
   12.3081   14.3897    4.4458 C   0  0  0  0  0  0
   13.4524   16.6790    4.3155 C   0  0  0  0  0  0
   23.8335   18.2763    6.3299 C   0  0  0  0  0  0
   14.5639   11.4129    1.5505 H   0  0  0  0  0  0
   18.0880   17.2139    4.0262 H   0  0  0  0  0  0
   21.1205   14.1807    6.5510 H   0  0  0  0  0  0
   18.9100   13.4253    5.8604 H   0  0  0  0  0  0
   19.1051   13.5166    3.3049 H   0  0  0  0  0  0
   19.0036   12.1672    2.1608 H   0  0  0  0  0  0
   19.8616   18.9057    4.0033 H   0  0  0  0  0  0
   22.1558   19.6433    4.7203 H   0  0  0  0  0  0
   13.4843   15.2342    5.9882 H   0  0  0  0  0  0
   11.3667   14.8076    4.8025 H   0  0  0  0  0  0
   12.2358   14.3253    3.3603 H   0  0  0  0  0  0
   12.3802   13.3756    4.8412 H   0  0  0  0  0  0
   12.4544   17.1060    4.3956 H   0  0  0  0  0  0
   14.1602   17.3515    4.8029 H   0  0  0  0  0  0
   13.7642   16.6689    3.2698 H   0  0  0  0  0  0
   23.6679   19.2330    6.8045 H   0  0  0  0  0  0
   24.2230   17.6182    7.1016 H   0  0  0  0  0  0
   24.5641   18.4094    5.5383 H   0  0  0  0  0  0
  1  2  2  0  0  0
  1  4  1  0  0  0
  2  3  1  0  0  0
  2 25  1  0  0  0
  3  6  2  0  0  0
  4 14  1  0  0  0
  4  5  2  0  0  0
  5  9  1  0  0  0
  5  6  1  0  0  0
  6  7  1  0  0  0
  7  8  1  0  0  0
  7 21  1  0  0  0
  8  9  2  0  0  0
  9 10  1  0  0  0
 10 13  1  0  0  0
 10 11  2  0  0  0
 11 16  1  0  0  0
 11 26  1  0  0  0
 12 15  1  0  0  0
 12 13  2  0  0  0
 12 27  1  0  0  0
 13 28  1  0  0  0
 14 29  1  0  0  0
 14 30  1  0  0  0
 15 16  1  0  0  0
 15 20  2  0  0  0
 16 17  2  0  0  0
 17 18  1  0  0  0
 17 31  1  0  0  0
 18 19  2  0  0  0
 18 32  1  0  0  0
 19 20  1  0  0  0
 19 24  1  0  0  0
 21 22  1  0  0  0
 21 23  1  0  0  0
 21 33  1  0  0  0
 22 34  1  0  0  0
 22 35  1  0  0  0
 22 36  1  0  0  0
 23 37  1  0  0  0
 23 38  1  0  0  0
 23 39  1  0  0  0
 24 40  1  0  0  0
 24 41  1  0  0  0
 24 42  1  0  0  0
M  END
> <s_m_entry_id>
6106

> <s_m_entry_name>
dock_pv.32

> <s_m_Source_Path>
/home/csk/Desktop/cluster/DUD-E-result/abl1

> <s_m_Source_File>
dock_pv.maegz

> <i_m_Source_File_Index>
32

> <chembl_id>
CHEMBL1241682

> <chembl_pref_name>
None

> <i_lp_mmshare_version>
53161

> <i_f3d_flags>
0

> <r_lp_tautomer_probability>
1

> <s_lp_Force_Field>
OPLS_2005

> <r_lp_Energy>
15.088924

> <b_lp_Chiralities_Consistent>
1

> <s_lp_Variant>
CHEMBL1862_lig520-1

> <s_i_glide_gridfile>
glide-grid_2hzi

> <i_i_glide_lignum>
617

> <i_i_glide_rotatable_bonds>
2

> <r_i_docking_score>
-11.1510645873065

> <r_i_glide_ligand_efficiency>
-0.464627691137771

> <r_i_glide_ligand_efficiency_sa>
-1.34021817437298

> <r_i_glide_ligand_efficiency_ln>
-2.66896144475425

> <r_i_glide_gscore>
-11.1510645873065

> <r_i_glide_lipo>
-4.30203779201704

> <r_i_glide_hbond>
-0.608

> <r_i_glide_metal>
0

> <r_i_glide_rewards>
-3.79559207325166

> <r_i_glide_evdw>
-30.8252639770508

> <r_i_glide_ecoul>
-6.88616418838501

> <r_i_glide_erotb>
0.12875310507249

> <r_i_glide_esite>
0

> <r_i_glide_emodel>
-38.1370494816982

> <r_i_glide_energy>
-37.7114281654358

> <r_i_glide_einternal>
6.66751146316528

> <i_i_glide_confnum>
1

> <i_i_glide_posenum>
75

> <r_i_glide_eff_state_penalty>
0

> <s_user_duplicate_titles>
CHEMBL1862_lig520

> <s_m_subgroup_title>
dock_pv

> <s_m_subgroupid>
dock_pv

> <b_m_subgroup_collapsed>
0

$$$$
CHEMBL1862_lig840
                    3D
 Schrodinger Suite 2021-1.
 36 38  0  0  1  0            999 V2000
   16.5218   14.7096    4.0153 C   0  0  0  0  0  0
   17.7571   14.1444    3.6635 C   0  0  0  0  0  0
   17.7664   12.8826    3.0610 C   0  0  0  0  0  0
   16.6600   12.1525    2.7574 N   0  0  0  0  0  0
   15.3530   13.9906    3.7293 C   0  0  0  0  0  0
   15.5016   12.7292    3.0867 C   0  0  0  0  0  0
   14.2381   12.2266    2.8672 N   0  0  0  0  0  0
   13.3015   13.1134    3.3581 C   0  0  0  0  0  0
   13.9506   14.1966    3.9285 C   0  0  0  0  0  0
   11.8737   12.8330    3.2030 C   0  0  0  0  0  0
   18.9831   14.7916    3.8855 N   0  0  0  0  0  0
   19.0406   15.9997    4.6989 C   0  0  0  0  0  0
   11.6364   11.7574    2.4037 O   0  0  0  0  0  0
   20.4565   16.5641    4.7645 C   0  0  0  0  0  0
   20.9229   17.3963    3.7318 C   0  0  0  0  0  0
   22.1585   18.0331    3.8511 C   0  0  0  0  0  0
   22.9583   17.8141    4.9701 C   0  0  0  0  0  0
   22.5359   16.9334    5.9609 C   0  0  0  0  0  0
   21.2919   16.3090    5.8680 C   0  0  0  0  0  0
   10.3064   11.3615    2.1024 C   0  0  0  0  0  0
   11.0018   13.5352    3.7213 O   0  0  0  0  0  0
   20.8256   15.2330    7.1405 Cl  0  0  0  0  0  0
   20.0063   17.6330    2.2802 Cl  0  0  0  0  0  0
   16.4527   15.6708    4.4976 H   0  0  0  0  0  0
   18.7079   12.4191    2.8029 H   0  0  0  0  0  0
   13.9759   11.3530    2.4225 H   0  0  0  0  0  0
   13.4632   15.0410    4.3941 H   0  0  0  0  0  0
   19.6729   14.7218    3.1437 H   0  0  0  0  0  0
   18.3799   16.7604    4.2807 H   0  0  0  0  0  0
   18.6507   15.7927    5.6964 H   0  0  0  0  0  0
   22.5049   18.6885    3.0654 H   0  0  0  0  0  0
   23.9176   18.3022    5.0601 H   0  0  0  0  0  0
   23.1821   16.7371    6.8035 H   0  0  0  0  0  0
   10.3142   10.4133    1.5653 H   0  0  0  0  0  0
    9.8142   12.1057    1.4752 H   0  0  0  0  0  0
    9.7158   11.2329    3.0107 H   0  0  0  0  0  0
  1  5  1  0  0  0
  1  2  2  0  0  0
  1 24  1  0  0  0
  2  3  1  0  0  0
  2 11  1  0  0  0
  3  4  2  0  0  0
  3 25  1  0  0  0
  4  6  1  0  0  0
  5  6  2  0  0  0
  5  9  1  0  0  0
  6  7  1  0  0  0
  7  8  1  0  0  0
  7 26  1  0  0  0
  8  9  2  0  0  0
  8 10  1  0  0  0
  9 27  1  0  0  0
 10 13  1  0  0  0
 10 21  2  0  0  0
 11 12  1  0  0  0
 11 28  1  0  0  0
 12 14  1  0  0  0
 12 29  1  0  0  0
 12 30  1  0  0  0
 13 20  1  0  0  0
 14 15  2  0  0  0
 14 19  1  0  0  0
 15 16  1  0  0  0
 15 23  1  0  0  0
 16 17  2  0  0  0
 16 31  1  0  0  0
 17 18  1  0  0  0
 17 32  1  0  0  0
 18 19  2  0  0  0
 18 33  1  0  0  0
 19 22  1  0  0  0
 20 34  1  0  0  0
 20 35  1  0  0  0
 20 36  1  0  0  0
M  END
> <s_m_entry_id>
6107

> <s_m_entry_name>
dock_pv.33

> <s_m_Source_Path>
/home/csk/Desktop/cluster/DUD-E-result/abl1

> <s_m_Source_File>
dock_pv.maegz

> <i_m_Source_File_Index>
33

> <chembl_id>
CHEMBL3347468

> <chembl_pref_name>
None

> <i_lp_mmshare_version>
53161

> <i_f3d_flags>
0

> <r_lp_tautomer_probability>
1

> <s_lp_Force_Field>
OPLS_2005

> <r_lp_Energy>
14.427872

> <b_lp_Chiralities_Consistent>
1

> <s_lp_Variant>
CHEMBL1862_lig840-1

> <s_i_glide_gridfile>
glide-grid_2hzi

> <i_i_glide_lignum>
979

> <i_i_glide_rotatable_bonds>
5

> <r_i_docking_score>
-11.1201705093477

> <r_i_glide_ligand_efficiency>
-0.483485674319465

> <r_i_glide_ligand_efficiency_sa>
-1.37496894299133

> <r_i_glide_ligand_efficiency_ln>
-2.68895806129165

> <r_i_glide_gscore>
-11.1201705093477

> <r_i_glide_lipo>
-4.42546077537874

> <r_i_glide_hbond>
-0.700774168566844

> <r_i_glide_metal>
0

> <r_i_glide_rewards>
-2.92138627916063

> <r_i_glide_evdw>
-48.7741622924805

> <r_i_glide_ecoul>
-7.12638282775879

> <r_i_glide_erotb>
0.43511625254636

> <r_i_glide_esite>
0

> <r_i_glide_emodel>
-91.225587080137

> <r_i_glide_energy>
-55.9005451202393

> <r_i_glide_einternal>
2.82091975212097

> <i_i_glide_confnum>
19

> <i_i_glide_posenum>
128

> <r_i_glide_eff_state_penalty>
0

> <s_user_duplicate_titles>
CHEMBL1862_lig840

> <s_m_subgroup_title>
dock_pv

> <s_m_subgroupid>
dock_pv

> <b_m_subgroup_collapsed>
0

$$$$
CHEMBL1862_lig630
                    3D
 Schrodinger Suite 2021-1.
 47 50  0  0  1  0            999 V2000
   20.7919   17.6329    2.3955 C   0  0  0  0  0  0
   21.7121   18.2946    3.2035 C   0  0  0  0  0  0
   21.5051   18.3949    4.5733 C   0  0  0  0  0  0
   20.3725   17.8157    5.1374 C   0  0  0  0  0  0
   19.4602   17.0961    4.3493 C   0  0  0  0  0  0
   19.6751   17.0278    2.9650 C   0  0  0  0  0  0
   18.2261   16.5033    4.9769 C   0  0  0  0  0  0
   17.5278   15.3246    4.3530 C   0  0  0  0  0  0
   17.7628   17.0085    6.0026 O   0  0  0  0  0  0
   18.2740   14.2988    3.7531 C   0  0  0  0  0  0
   17.6675   13.1777    3.1870 C   0  0  0  0  0  0
   16.1252   15.2329    4.4345 C   0  0  0  0  0  0
   15.5119   14.1287    3.8315 C   0  0  0  0  0  0
   16.2699   13.1009    3.2054 C   0  0  0  0  0  0
   15.4605   12.1273    2.6957 N   0  0  0  0  0  0
   14.2585   12.5842    2.9085 C   0  0  0  0  0  0
   14.1932   13.7692    3.6015 N   0  0  0  0  0  0
   13.1392   12.0329    2.3923 N   0  0  0  0  0  0
   13.0173   14.6405    3.6265 C   0  0  0  0  0  0
   11.8412   14.4166    4.6141 C   0  0  0  0  0  0
   10.6066   13.7512    3.9661 C   0  0  0  0  0  0
    9.3775   13.8118    4.8836 C   0  0  0  0  0  0
    9.6329   13.2259    6.1949 N   0  0  2  0  0  0
   10.9147   13.5477    6.8272 C   0  0  0  0  0  0
   12.1477   13.6323    5.8811 C   0  0  0  0  0  0
   20.9506   17.5794    1.3273 H   0  0  0  0  0  0
   22.5641   18.7731    2.7541 H   0  0  0  0  0  0
   22.2053   18.9399    5.1907 H   0  0  0  0  0  0
   20.2214   17.9396    6.1951 H   0  0  0  0  0  0
   18.9776   16.5213    2.3141 H   0  0  0  0  0  0
   19.3541   14.3599    3.7211 H   0  0  0  0  0  0
   18.2614   12.4021    2.7241 H   0  0  0  0  0  0
   15.5394   16.0086    4.9088 H   0  0  0  0  0  0
   13.1954   11.0767    2.0403 H   0  0  0  0  0  0
   12.2190   12.3898    2.5868 H   0  0  0  0  0  0
   13.3696   15.6726    3.6530 H   0  0  0  0  0  0
   12.5653   14.4331    2.6541 H   0  0  0  0  0  0
   11.5056   15.4102    4.9170 H   0  0  0  0  0  0
   10.3391   14.3063    3.0670 H   0  0  0  0  0  0
   10.7949   12.7417    3.6019 H   0  0  0  0  0  0
    9.0365   14.8332    5.0187 H   0  0  0  0  0  0
    8.5519   13.2650    4.4266 H   0  0  0  0  0  0
    9.5573   12.2272    6.0775 H   0  0  0  0  0  0
   10.7214   14.4330    7.4061 H   0  0  0  0  0  0
   11.1293   12.8290    7.6041 H   0  0  0  0  0  0
   12.5631   12.6625    5.6235 H   0  0  0  0  0  0
   12.9640   14.1230    6.4023 H   0  0  0  0  0  0
  1  6  1  0  0  0
  1  2  2  0  0  0
  1 26  1  0  0  0
  2  3  1  0  0  0
  2 27  1  0  0  0
  3  4  2  0  0  0
  3 28  1  0  0  0
  4  5  1  0  0  0
  4 29  1  0  0  0
  5  7  1  0  0  0
  5  6  2  0  0  0
  6 30  1  0  0  0
  7  8  1  0  0  0
  7  9  2  0  0  0
  8 12  1  0  0  0
  8 10  2  0  0  0
 10 11  1  0  0  0
 10 31  1  0  0  0
 11 14  2  0  0  0
 11 32  1  0  0  0
 12 13  2  0  0  0
 12 33  1  0  0  0
 13 14  1  0  0  0
 13 17  1  0  0  0
 14 15  1  0  0  0
 15 16  2  0  0  0
 16 17  1  0  0  0
 16 18  1  0  0  0
 17 19  1  0  0  0
 18 34  1  0  0  0
 18 35  1  0  0  0
 19 20  1  0  0  0
 19 36  1  0  0  0
 19 37  1  0  0  0
 20 21  1  0  0  0
 20 25  1  0  0  0
 20 38  1  0  0  0
 21 22  1  0  0  0
 21 39  1  0  0  0
 21 40  1  0  0  0
 22 23  1  0  0  0
 22 41  1  0  0  0
 22 42  1  0  0  0
 23 24  1  0  0  0
 23 43  1  0  0  0
 24 25  1  0  0  0
 24 44  1  0  0  0
 24 45  1  0  0  0
 25 46  1  0  0  0
 25 47  1  0  0  0
M  END
> <s_m_entry_id>
6108

> <s_m_entry_name>
dock_pv.34

> <s_m_Source_Path>
/home/csk/Desktop/cluster/DUD-E-result/abl1

> <s_m_Source_File>
dock_pv.maegz

> <i_m_Source_File_Index>
34

> <chembl_id>
CHEMBL2030561

> <chembl_pref_name>
None

> <i_lp_mmshare_version>
53161

> <i_f3d_flags>
0

> <r_lp_tautomer_probability>
1

> <s_lp_Force_Field>
OPLS_2005

> <r_lp_Energy>
30.55223

> <b_lp_Chiralities_Consistent>
1

> <s_lp_Variant>
CHEMBL1862_lig630-1

> <s_i_glide_gridfile>
glide-grid_2hzi

> <i_i_glide_lignum>
738

> <i_i_glide_rotatable_bonds>
4

> <r_i_docking_score>
-11.1197593472026

> <r_i_glide_ligand_efficiency>
-0.444790373888103

> <r_i_glide_ligand_efficiency_sa>
-1.30057494163968

> <r_i_glide_ligand_efficiency_ln>
-2.63571619758445

> <r_i_glide_gscore>
-11.1197593472026

> <r_i_glide_lipo>
-4.68570366683476

> <r_i_glide_hbond>
-0.494234279174912

> <r_i_glide_metal>
0

> <r_i_glide_rewards>
-3.82396585848207

> <r_i_glide_evdw>
-38.9495620727539

> <r_i_glide_ecoul>
-4.27057313919067

> <r_i_glide_erotb>
0.472208531805458

> <r_i_glide_esite>
0

> <r_i_glide_emodel>
-44.5322505291654

> <r_i_glide_energy>
-43.2201352119446

> <r_i_glide_einternal>
7.18216133117676

> <i_i_glide_confnum>
185

> <i_i_glide_posenum>
28

> <r_i_glide_eff_state_penalty>
0

> <s_user_duplicate_titles>
CHEMBL1862_lig630

> <s_m_subgroup_title>
dock_pv

> <s_m_subgroupid>
dock_pv

> <b_m_subgroup_collapsed>
0

$$$$
CHEMBL1862_lig497
                    3D
 Schrodinger Suite 2021-1.
 47 50  0  0  1  0            999 V2000
   16.9009   12.0335    2.4013 N   0  0  0  0  0  0
   15.5466   12.0330    2.4035 C   0  0  0  0  0  0
   14.7414   12.9257    3.0013 N   0  0  0  0  0  0
   17.5193   13.0783    2.9853 C   0  0  0  0  0  0
   16.7970   14.0399    3.6913 C   0  0  0  0  0  0
   15.4013   13.8797    3.6492 C   0  0  0  0  0  0
   14.8780   14.8742    4.4274 N   0  0  0  0  0  0
   15.8698   15.6515    4.9385 N   0  0  0  0  0  0
   17.0240   15.1997    4.4893 C   0  0  0  0  0  0
   18.3527   15.7875    4.8387 C   0  0  0  0  0  0
   19.2284   15.0773    5.6692 C   0  0  0  0  0  0
   20.5160   15.5559    5.9255 C   0  0  0  0  0  0
   20.9394   16.7601    5.3518 C   0  0  0  0  0  0
   20.0650   17.4814    4.5387 C   0  0  0  0  0  0
   18.7809   16.9989    4.2844 C   0  0  0  0  0  0
   18.8817   13.1622    2.8033 N   0  0  0  0  0  0
   22.5349   17.3713    5.6242 Cl  0  0  0  0  0  0
   21.3523   14.8323    6.7359 O   0  0  0  0  0  0
   13.4720   15.1586    4.7043 C   0  0  0  0  0  0
   12.5702   13.9082    4.9316 C   0  0  0  0  0  0
   11.4553   13.6068    3.8844 C   0  0  1  0  0  0
   11.7204   12.4670    2.8524 C   0  0  0  0  0  0
   10.4547   11.9527    2.1232 C   0  0  0  0  0  0
    9.1322   12.0972    2.8980 C   0  0  0  0  0  0
    9.0036   13.4251    3.4938 N   0  0  2  0  0  0
   10.0400   13.5911    4.5042 C   0  0  0  0  0  0
   15.0302   11.2357    1.8856 H   0  0  0  0  0  0
   18.9209   14.1344    6.0974 H   0  0  0  0  0  0
   20.3894   18.4081    4.0871 H   0  0  0  0  0  0
   18.1460   17.5573    3.6167 H   0  0  0  0  0  0
   19.4026   13.9671    3.1229 H   0  0  0  0  0  0
   19.3036   12.4465    2.2188 H   0  0  0  0  0  0
   22.2685   15.1274    6.6835 H   0  0  0  0  0  0
   13.0767   15.8747    4.0029 H   0  0  0  0  0  0
   13.4887   15.7266    5.6030 H   0  0  0  0  0  0
   12.1040   14.0308    5.9107 H   0  0  0  0  0  0
   13.1701   13.0178    5.0739 H   0  0  0  0  0  0
   11.3802   14.4357    3.2014 H   0  0  0  0  0  0
   12.1636   11.6101    3.3554 H   0  0  0  0  0  0
   12.4616   12.7638    2.1134 H   0  0  0  0  0  0
   10.5954   10.8998    1.8715 H   0  0  0  0  0  0
   10.3369   12.4325    1.1517 H   0  0  0  0  0  0
    9.0303   11.3257    3.6590 H   0  0  0  0  0  0
    8.3018   11.9606    2.2063 H   0  0  0  0  0  0
    8.1059   13.4743    3.9524 H   0  0  0  0  0  0
    9.8659   14.5259    5.0387 H   0  0  0  0  0  0
    9.9609   12.8222    5.2710 H   0  0  0  0  0  0
  1  2  2  0  0  0
  1  4  1  0  0  0
  2  3  1  0  0  0
  2 27  1  0  0  0
  3  6  2  0  0  0
  4  5  2  0  0  0
  4 16  1  0  0  0
  5  9  1  0  0  0
  5  6  1  0  0  0
  6  7  1  0  0  0
  7  8  1  0  0  0
  7 19  1  0  0  0
  8  9  2  0  0  0
  9 10  1  0  0  0
 10 15  1  0  0  0
 10 11  2  0  0  0
 11 12  1  0  0  0
 11 28  1  0  0  0
 12 13  2  0  0  0
 12 18  1  0  0  0
 13 14  1  0  0  0
 13 17  1  0  0  0
 14 15  2  0  0  0
 14 29  1  0  0  0
 15 30  1  0  0  0
 16 31  1  0  0  0
 16 32  1  0  0  0
 18 33  1  0  0  0
 19 20  1  0  0  0
 19 34  1  0  0  0
 19 35  1  0  0  0
 20 21  1  0  0  0
 20 36  1  0  0  0
 20 37  1  0  0  0
 21 22  1  0  0  0
 21 26  1  0  0  0
 21 38  1  0  0  0
 22 23  1  0  0  0
 22 39  1  0  0  0
 22 40  1  0  0  0
 23 24  1  0  0  0
 23 41  1  0  0  0
 23 42  1  0  0  0
 24 25  1  0  0  0
 24 43  1  0  0  0
 24 44  1  0  0  0
 25 26  1  0  0  0
 25 45  1  0  0  0
 26 46  1  0  0  0
 26 47  1  0  0  0
M  END
> <s_m_entry_id>
6109

> <s_m_entry_name>
dock_pv.35

> <s_m_Source_Path>
/home/csk/Desktop/cluster/DUD-E-result/abl1

> <s_m_Source_File>
dock_pv.maegz

> <i_m_Source_File_Index>
35

> <chembl_id>
CHEMBL1241943

> <chembl_pref_name>
None

> <i_lp_mmshare_version>
53161

> <i_f3d_flags>
0

> <r_lp_tautomer_probability>
0.999999999997365

> <s_lp_Force_Field>
OPLS_2005

> <r_lp_Energy>
19.183565

> <b_lp_Chiralities_Consistent>
1

> <s_lp_Variant>
CHEMBL1862_lig497-2

> <s_i_glide_gridfile>
glide-grid_2hzi

> <i_i_glide_lignum>
591

> <i_i_glide_rotatable_bonds>
5

> <r_i_docking_score>
-11.1088623185117

> <r_i_glide_ligand_efficiency>
-0.427263935327372

> <r_i_glide_ligand_efficiency_sa>
-1.26576772720494

> <r_i_glide_ligand_efficiency_ln>
-2.60887986435211

> <r_i_glide_gscore>
-11.1088623185117

> <r_i_glide_lipo>
-3.94247049203876

> <r_i_glide_hbond>
-0.920364700022402

> <r_i_glide_metal>
0

> <r_i_glide_rewards>
-3.84903765824437

> <r_i_glide_evdw>
-39.3945541381836

> <r_i_glide_ecoul>
-6.55414247512817

> <r_i_glide_erotb>
0.555859609972254

> <r_i_glide_esite>
0

> <r_i_glide_emodel>
-58.6699124323005

> <r_i_glide_energy>
-45.9486966133118

> <r_i_glide_einternal>
13.2235946655273

> <i_i_glide_confnum>
8

> <i_i_glide_posenum>
12

> <r_i_glide_eff_state_penalty>
0

> <s_user_duplicate_titles>
CHEMBL1862_lig497

> <s_m_subgroup_title>
dock_pv

> <s_m_subgroupid>
dock_pv

> <b_m_subgroup_collapsed>
0

$$$$
CHEMBL1862_lig850
                    3D
 Schrodinger Suite 2021-1.
 38 40  0  0  1  0            999 V2000
   16.5184   14.7494    4.0181 C   0  0  0  0  0  0
   17.7558   14.1829    3.6750 C   0  0  0  0  0  0
   17.7825   12.9245    3.0661 C   0  0  0  0  0  0
   16.6791   12.1893    2.7630 N   0  0  0  0  0  0
   15.3552   14.0210    3.7333 C   0  0  0  0  0  0
   15.5158   12.7586    3.0932 C   0  0  0  0  0  0
   14.2564   12.2461    2.8730 N   0  0  0  0  0  0
   13.3117   13.1264    3.3598 C   0  0  0  0  0  0
   13.9502   14.2167    3.9284 C   0  0  0  0  0  0
   11.8868   12.8330    3.2030 C   0  0  0  0  0  0
   18.9639   14.8647    3.8809 N   0  0  0  0  0  0
   19.2778   15.6133    4.9597 C   0  0  0  0  0  0
   11.6613   11.7544    2.4039 O   0  0  0  0  0  0
   20.5392   16.4371    4.8570 C   0  0  0  0  0  0
   18.6143   15.6356    5.9999 O   0  0  0  0  0  0
   21.4145   16.4349    5.9546 C   0  0  0  0  0  0
   22.5638   17.2204    5.9574 C   0  0  0  0  0  0
   22.8516   18.0329    4.8680 C   0  0  0  0  0  0
   22.0022   18.0414    3.7648 C   0  0  0  0  0  0
   20.8501   17.2478    3.7361 C   0  0  0  0  0  0
   10.3361   11.3431    2.1019 C   0  0  0  0  0  0
   11.0076   13.5299    3.7151 O   0  0  0  0  0  0
   19.9672   17.3392    2.4921 C   0  0  0  0  0  0
   16.4563   15.7169    4.4933 H   0  0  0  0  0  0
   18.7265   12.4680    2.8026 H   0  0  0  0  0  0
   14.0019   11.3696    2.4299 H   0  0  0  0  0  0
   13.4546   15.0583    4.3909 H   0  0  0  0  0  0
   19.6557   14.8024    3.1450 H   0  0  0  0  0  0
   21.2062   15.8245    6.8225 H   0  0  0  0  0  0
   23.2333   17.2034    6.8043 H   0  0  0  0  0  0
   23.7363   18.6522    4.8811 H   0  0  0  0  0  0
   22.2440   18.6778    2.9260 H   0  0  0  0  0  0
   10.3543   10.3817    1.5888 H   0  0  0  0  0  0
    9.8446   12.0684    1.4526 H   0  0  0  0  0  0
    9.7384   11.2325    3.0080 H   0  0  0  0  0  0
   20.2906   18.1219    1.8068 H   0  0  0  0  0  0
   19.9820   16.4035    1.9356 H   0  0  0  0  0  0
   18.9349   17.5522    2.7695 H   0  0  0  0  0  0
  1  5  1  0  0  0
  1  2  2  0  0  0
  1 24  1  0  0  0
  2  3  1  0  0  0
  2 11  1  0  0  0
  3  4  2  0  0  0
  3 25  1  0  0  0
  4  6  1  0  0  0
  5  6  2  0  0  0
  5  9  1  0  0  0
  6  7  1  0  0  0
  7  8  1  0  0  0
  7 26  1  0  0  0
  8  9  2  0  0  0
  8 10  1  0  0  0
  9 27  1  0  0  0
 10 13  1  0  0  0
 10 22  2  0  0  0
 11 12  1  0  0  0
 11 28  1  0  0  0
 12 14  1  0  0  0
 12 15  2  0  0  0
 13 21  1  0  0  0
 14 16  2  0  0  0
 14 20  1  0  0  0
 16 17  1  0  0  0
 16 29  1  0  0  0
 17 18  2  0  0  0
 17 30  1  0  0  0
 18 19  1  0  0  0
 18 31  1  0  0  0
 19 20  2  0  0  0
 19 32  1  0  0  0
 20 23  1  0  0  0
 21 33  1  0  0  0
 21 34  1  0  0  0
 21 35  1  0  0  0
 23 36  1  0  0  0
 23 37  1  0  0  0
 23 38  1  0  0  0
M  END
> <s_m_entry_id>
6110

> <s_m_entry_name>
dock_pv.36

> <s_m_Source_Path>
/home/csk/Desktop/cluster/DUD-E-result/abl1

> <s_m_Source_File>
dock_pv.maegz

> <i_m_Source_File_Index>
36

> <chembl_id>
CHEMBL3347601

> <chembl_pref_name>
None

> <i_lp_mmshare_version>
53161

> <i_f3d_flags>
0

> <r_lp_tautomer_probability>
1

> <s_lp_Force_Field>
OPLS_2005

> <r_lp_Energy>
22.071755

> <b_lp_Chiralities_Consistent>
1

> <s_lp_Variant>
CHEMBL1862_lig850-1

> <s_i_glide_gridfile>
glide-grid_2hzi

> <i_i_glide_lignum>
990

> <i_i_glide_rotatable_bonds>
5

> <r_i_docking_score>
-11.1023731908795

> <r_i_glide_ligand_efficiency>
-0.482711877864327

> <r_i_glide_ligand_efficiency_sa>
-1.37276836880573

> <r_i_glide_ligand_efficiency_ln>
-2.68465450830889

> <r_i_glide_gscore>
-11.1023731908795

> <r_i_glide_lipo>
-4.04766915737323

> <r_i_glide_hbond>
-0.654751329500697

> <r_i_glide_metal>
0

> <r_i_glide_rewards>
-3.35205397474249

> <r_i_glide_evdw>
-49.641658782959

> <r_i_glide_ecoul>
-7.38423728942871

> <r_i_glide_erotb>
0.541819803299143

> <r_i_glide_esite>
0

> <r_i_glide_emodel>
-91.6111893700819

> <r_i_glide_energy>
-57.0258960723877

> <r_i_glide_einternal>
4.91567039489746

> <i_i_glide_confnum>
37

> <i_i_glide_posenum>
205

> <r_i_glide_eff_state_penalty>
0

> <s_user_duplicate_titles>
CHEMBL1862_lig850

> <s_m_subgroup_title>
dock_pv

> <s_m_subgroupid>
dock_pv

> <b_m_subgroup_collapsed>
0

$$$$
CHEMBL1862_lig534
                    3D
 Schrodinger Suite 2021-1.
 38 41  0  0  1  0            999 V2000
   16.8113   12.0336    2.3748 N   0  0  0  0  0  0
   15.4756   12.2532    2.4164 C   0  0  0  0  0  0
   14.8269   13.2184    3.0947 N   0  0  0  0  0  0
   17.5957   12.9520    2.9840 C   0  0  0  0  0  0
   17.0539   13.9977    3.7359 C   0  0  0  0  0  0
   15.6474   14.0325    3.7622 C   0  0  0  0  0  0
   15.3213   15.0364    4.6382 N   0  0  0  0  0  0
   16.4295   15.6716    5.0888 N   0  0  0  0  0  0
   17.4762   15.0914    4.5561 C   0  0  0  0  0  0
   18.8505   15.5219    4.9159 C   0  0  0  0  0  0
   19.4494   16.6157    4.2851 C   0  0  0  0  0  0
   20.7673   15.2297    6.4003 C   0  0  0  0  0  0
   19.5017   14.8559    5.9533 C   0  0  0  0  0  0
   18.9535   12.8330    2.8030 N   0  0  0  0  0  0
   14.0175   15.5221    5.0561 C   0  0  0  0  0  0
   12.8489   14.5404    4.8029 C   0  0  0  0  0  0
   13.7640   16.8497    4.3348 C   0  0  0  0  0  0
   21.3592   16.3285    5.7747 C   0  0  0  0  0  0
   20.7194   17.0382    4.7133 C   0  0  0  0  0  0
   21.6117   18.0947    4.3320 C   0  0  0  0  0  0
   22.7151   18.0219    5.1562 C   0  0  0  0  0  0
   22.5656   16.9535    6.0030 N   0  0  0  0  0  0
   14.8408   11.6329    1.8090 H   0  0  0  0  0  0
   18.9348   17.1381    3.4925 H   0  0  0  0  0  0
   21.2518   14.7003    7.2029 H   0  0  0  0  0  0
   19.0031   14.0330    6.4390 H   0  0  0  0  0  0
   19.5668   13.5539    3.1576 H   0  0  0  0  0  0
   19.2897   12.1117    2.1611 H   0  0  0  0  0  0
   14.1410   15.6330    6.1313 H   0  0  0  0  0  0
   11.9117   14.9204    5.2033 H   0  0  0  0  0  0
   12.6645   14.4013    3.7378 H   0  0  0  0  0  0
   13.0292   13.5638    5.2518 H   0  0  0  0  0  0
   12.7218   17.1577    4.4030 H   0  0  0  0  0  0
   14.3906   17.6431    4.7449 H   0  0  0  0  0  0
   13.9857   16.7558    3.2735 H   0  0  0  0  0  0
   21.4695   18.8326    3.5598 H   0  0  0  0  0  0
   23.6048   18.6354    5.2116 H   0  0  0  0  0  0
   23.2669   16.6993    6.6855 H   0  0  0  0  0  0
  1  2  2  0  0  0
  1  4  1  0  0  0
  2  3  1  0  0  0
  2 23  1  0  0  0
  3  6  2  0  0  0
  4 14  1  0  0  0
  4  5  2  0  0  0
  5  9  1  0  0  0
  5  6  1  0  0  0
  6  7  1  0  0  0
  7 15  1  0  0  0
  7  8  1  0  0  0
  8  9  2  0  0  0
  9 10  1  0  0  0
 10 11  2  0  0  0
 10 13  1  0  0  0
 11 19  1  0  0  0
 11 24  1  0  0  0
 12 18  1  0  0  0
 12 13  2  0  0  0
 12 25  1  0  0  0
 13 26  1  0  0  0
 14 27  1  0  0  0
 14 28  1  0  0  0
 15 16  1  0  0  0
 15 17  1  0  0  0
 15 29  1  0  0  0
 16 30  1  0  0  0
 16 31  1  0  0  0
 16 32  1  0  0  0
 17 33  1  0  0  0
 17 34  1  0  0  0
 17 35  1  0  0  0
 18 19  2  0  0  0
 18 22  1  0  0  0
 19 20  1  0  0  0
 20 21  2  0  0  0
 20 36  1  0  0  0
 21 22  1  0  0  0
 21 37  1  0  0  0
 22 38  1  0  0  0
M  END
> <s_m_entry_id>
6111

> <s_m_entry_name>
dock_pv.37

> <s_m_Source_Path>
/home/csk/Desktop/cluster/DUD-E-result/abl1

> <s_m_Source_File>
dock_pv.maegz

> <i_m_Source_File_Index>
37

> <chembl_id>
CHEMBL1242294

> <chembl_pref_name>
None

> <i_lp_mmshare_version>
53161

> <i_f3d_flags>
0

> <r_lp_tautomer_probability>
1

> <s_lp_Force_Field>
OPLS_2005

> <r_lp_Energy>
12.829521

> <b_lp_Chiralities_Consistent>
1

> <s_lp_Variant>
CHEMBL1862_lig534-1

> <s_i_glide_gridfile>
glide-grid_2hzi

> <i_i_glide_lignum>
632

> <i_i_glide_rotatable_bonds>
2

> <r_i_docking_score>
-11.0690573783709

> <r_i_glide_ligand_efficiency>
-0.503138971744131

> <r_i_glide_ligand_efficiency_sa>
-1.40981518615997

> <r_i_glide_ligand_efficiency_ln>
-2.70568137695182

> <r_i_glide_gscore>
-11.0690573783709

> <r_i_glide_lipo>
-3.77172430435371

> <r_i_glide_hbond>
-0.60611242773118

> <r_i_glide_metal>
0

> <r_i_glide_rewards>
-4.13030774401081

> <r_i_glide_evdw>
-33.2650337219238

> <r_i_glide_ecoul>
-7.40846729278564

> <r_i_glide_erotb>
0.213608877738853

> <r_i_glide_esite>
0

> <r_i_glide_emodel>
-50.7142237203096

> <r_i_glide_energy>
-40.6735010147095

> <r_i_glide_einternal>
6.78336763381958

> <i_i_glide_confnum>
2

> <i_i_glide_posenum>
38

> <r_i_glide_eff_state_penalty>
0

> <s_user_duplicate_titles>
CHEMBL1862_lig534

> <s_m_subgroup_title>
dock_pv

> <s_m_subgroupid>
dock_pv

> <b_m_subgroup_collapsed>
0

$$$$
CHEMBL1862_lig455
                    3D
 Schrodinger Suite 2021-1.
 29 31  0  0  1  0            999 V2000
   16.1684   12.4270    2.6003 N   0  0  0  0  0  0
   14.8372   12.5693    2.8344 C   0  0  0  0  0  0
   14.2295   13.5109    3.6078 N   0  0  0  0  0  0
   16.9988   13.3165    3.2003 C   0  0  0  0  0  0
   16.4959   14.3478    4.0044 C   0  0  0  0  0  0
   15.0952   14.3655    4.1639 C   0  0  0  0  0  0
   14.8327   15.4050    5.0258 N   0  0  0  0  0  0
   15.9654   16.0340    5.4006 N   0  0  0  0  0  0
   16.9712   15.4458    4.7945 C   0  0  0  0  0  0
   18.3711   15.9013    4.9946 C   0  0  0  0  0  0
   19.2405   15.1551    5.7906 C   0  0  0  0  0  0
   20.5497   15.5869    6.0030 C   0  0  0  0  0  0
   21.0093   16.7709    5.4106 C   0  0  0  0  0  0
   20.1374   17.5178    4.6114 C   0  0  0  0  0  0
   18.8250   17.0879    4.4103 C   0  0  0  0  0  0
   18.3609   13.1547    2.9862 N   0  0  0  0  0  0
   22.4311   17.2648    5.6404 C   0  0  0  0  0  0
   21.3639   14.8326    6.8022 O   0  0  0  0  0  0
   14.1845   11.8498    2.3591 H   0  0  0  0  0  0
   13.9386   15.6933    5.3916 H   0  0  0  0  0  0
   18.9010   14.2387    6.2530 H   0  0  0  0  0  0
   20.4736   18.4330    4.1446 H   0  0  0  0  0  0
   18.1628   17.6714    3.7886 H   0  0  0  0  0  0
   19.0080   13.8197    3.3802 H   0  0  0  0  0  0
   18.6762   12.4008    2.3875 H   0  0  0  0  0  0
   22.6191   18.2335    5.1706 H   0  0  0  0  0  0
   23.1505   16.5461    5.2432 H   0  0  0  0  0  0
   22.6308   17.3669    6.7091 H   0  0  0  0  0  0
   22.3000   15.0205    6.6753 H   0  0  0  0  0  0
  1  4  1  0  0  0
  1  2  2  0  0  0
  2  3  1  0  0  0
  2 19  1  0  0  0
  3  6  2  0  0  0
  4  5  2  0  0  0
  4 16  1  0  0  0
  5  9  1  0  0  0
  5  6  1  0  0  0
  6  7  1  0  0  0
  7  8  1  0  0  0
  7 20  1  0  0  0
  8  9  2  0  0  0
  9 10  1  0  0  0
 10 11  2  0  0  0
 10 15  1  0  0  0
 11 12  1  0  0  0
 11 21  1  0  0  0
 12 13  2  0  0  0
 12 18  1  0  0  0
 13 14  1  0  0  0
 13 17  1  0  0  0
 14 15  2  0  0  0
 14 22  1  0  0  0
 15 23  1  0  0  0
 16 24  1  0  0  0
 16 25  1  0  0  0
 17 26  1  0  0  0
 17 27  1  0  0  0
 17 28  1  0  0  0
 18 29  1  0  0  0
M  END
> <s_m_entry_id>
6112

> <s_m_entry_name>
dock_pv.38

> <s_m_Source_Path>
/home/csk/Desktop/cluster/DUD-E-result/abl1

> <s_m_Source_File>
dock_pv.maegz

> <i_m_Source_File_Index>
38

> <chembl_id>
CHEMBL1241270

> <chembl_pref_name>
None

> <i_lp_mmshare_version>
53161

> <i_f3d_flags>
0

> <r_lp_tautomer_probability>
0.999999999997365

> <s_lp_Force_Field>
OPLS_2005

> <r_lp_Energy>
6.272206

> <b_lp_Chiralities_Consistent>
1

> <s_lp_Variant>
CHEMBL1862_lig455-1

> <s_i_glide_gridfile>
glide-grid_2hzi

> <i_i_glide_lignum>
543

> <i_i_glide_rotatable_bonds>
2

> <r_i_docking_score>
-11.0532277937963

> <r_i_glide_ligand_efficiency>
-0.614068210766462

> <r_i_glide_ligand_efficiency_sa>
-1.60931397727295

> <r_i_glide_ligand_efficiency_ln>
-2.84117520937734

> <r_i_glide_gscore>
-11.0532277937963

> <r_i_glide_lipo>
-2.87451855006614

> <r_i_glide_hbond>
-0.842056302582023

> <r_i_glide_metal>
0

> <r_i_glide_rewards>
-4.56805371391433

> <r_i_glide_evdw>
-37.3025817871094

> <r_i_glide_ecoul>
-7.41192579269409

> <r_i_glide_erotb>
0.208318731025766

> <r_i_glide_esite>
0

> <r_i_glide_emodel>
-72.2708618133766

> <r_i_glide_energy>
-44.7145075798035

> <r_i_glide_einternal>
3.7081253528595

> <i_i_glide_confnum>
3

> <i_i_glide_posenum>
232

> <r_i_glide_eff_state_penalty>
0

> <s_user_duplicate_titles>
CHEMBL1862_lig455

> <s_m_subgroup_title>
dock_pv

> <s_m_subgroupid>
dock_pv

> <b_m_subgroup_collapsed>
0

$$$$
CHEMBL1862_lig447
                    3D
 Schrodinger Suite 2021-1.
 39 42  0  0  1  0            999 V2000
   12.5494   14.5128    4.7151 C   0  0  0  0  0  0
   13.7239   15.4909    4.9439 C   0  0  0  0  0  0
   13.5267   16.8331    4.2527 C   0  0  0  0  0  0
   15.0334   14.9854    4.5817 N   0  0  0  0  0  0
   16.1360   15.6330    5.0381 N   0  0  0  0  0  0
   15.3681   13.9565    3.7394 C   0  0  0  0  0  0
   14.5601   13.1035    3.1003 N   0  0  0  0  0  0
   15.2303   12.1664    2.3993 C   0  0  0  0  0  0
   16.5724   12.0330    2.2948 N   0  0  0  0  0  0
   17.3370   12.9414    2.9346 C   0  0  0  0  0  0
   18.7008   12.8330    2.8030 N   0  0  0  0  0  0
   16.7739   13.9560    3.7020 C   0  0  0  0  0  0
   17.1902   15.0322    4.5438 C   0  0  0  0  0  0
   18.5724   15.4223    4.9329 C   0  0  0  0  0  0
   19.1235   16.6260    4.4950 C   0  0  0  0  0  0
   20.4360   16.9895    4.8868 C   0  0  0  0  0  0
   21.0555   18.1836    4.4585 C   0  0  0  0  0  0
   22.3266   18.5115    4.9217 C   0  0  0  0  0  0
   22.9644   17.6329    5.7896 C   0  0  0  0  0  0
   22.4254   16.4566    6.1939 N   0  0  0  0  0  0
   21.1789   16.1326    5.7533 C   0  0  0  0  0  0
   20.6031   14.9150    6.1706 C   0  0  0  0  0  0
   19.3203   14.5755    5.7527 C   0  0  0  0  0  0
   11.6296   14.8920    5.1594 H   0  0  0  0  0  0
   12.3454   14.3592    3.6553 H   0  0  0  0  0  0
   12.7435   13.5407    5.1705 H   0  0  0  0  0  0
   13.7963   15.6330    6.0030 H   0  0  0  0  0  0
   12.5019   17.1831    4.3592 H   0  0  0  0  0  0
   14.1838   17.6010    4.6604 H   0  0  0  0  0  0
   13.7641   16.7468    3.2030 H   0  0  0  0  0  0
   14.6219   11.4649    1.8467 H   0  0  0  0  0  0
   19.2969   13.5445    3.2009 H   0  0  0  0  0  0
   19.0674   12.1245    2.1675 H   0  0  0  0  0  0
   18.5572   17.2844    3.8517 H   0  0  0  0  0  0
   20.5260   18.8330    3.7868 H   0  0  0  0  0  0
   22.8052   19.4342    4.6243 H   0  0  0  0  0  0
   23.9469   17.8621    6.1766 H   0  0  0  0  0  0
   21.1690   14.2475    6.8032 H   0  0  0  0  0  0
   18.9091   13.6331    6.0729 H   0  0  0  0  0  0
  1  2  1  0  0  0
  1 24  1  0  0  0
  1 25  1  0  0  0
  1 26  1  0  0  0
  2  3  1  0  0  0
  2  4  1  0  0  0
  2 27  1  0  0  0
  3 28  1  0  0  0
  3 29  1  0  0  0
  3 30  1  0  0  0
  4  5  1  0  0  0
  4  6  1  0  0  0
  5 13  2  0  0  0
  6  7  2  0  0  0
  6 12  1  0  0  0
  7  8  1  0  0  0
  8  9  2  0  0  0
  8 31  1  0  0  0
  9 10  1  0  0  0
 10 11  1  0  0  0
 10 12  2  0  0  0
 11 32  1  0  0  0
 11 33  1  0  0  0
 12 13  1  0  0  0
 13 14  1  0  0  0
 14 15  2  0  0  0
 14 23  1  0  0  0
 15 16  1  0  0  0
 15 34  1  0  0  0
 16 17  2  0  0  0
 16 21  1  0  0  0
 17 18  1  0  0  0
 17 35  1  0  0  0
 18 19  2  0  0  0
 18 36  1  0  0  0
 19 20  1  0  0  0
 19 37  1  0  0  0
 20 21  2  0  0  0
 21 22  1  0  0  0
 22 23  2  0  0  0
 22 38  1  0  0  0
 23 39  1  0  0  0
M  END
> <s_m_entry_id>
6113

> <s_m_entry_name>
dock_pv.39

> <s_m_Source_Path>
/home/csk/Desktop/cluster/DUD-E-result/abl1

> <s_m_Source_File>
dock_pv.maegz

> <i_m_Source_File_Index>
39

> <chembl_id>
CHEMBL1233882

> <chembl_pref_name>
None

> <i_lp_mmshare_version>
53161

> <i_f3d_flags>
0

> <r_lp_tautomer_probability>
1

> <s_lp_Force_Field>
OPLS_2005

> <r_lp_Energy>
15.333948

> <b_lp_Chiralities_Consistent>
1

> <s_lp_Variant>
CHEMBL1862_lig447-1

> <s_i_glide_gridfile>
glide-grid_2hzi

> <i_i_glide_lignum>
535

> <i_i_glide_rotatable_bonds>
2

> <r_i_docking_score>
-11.0523397241103

> <r_i_glide_ligand_efficiency>
-0.480536509743925

> <r_i_glide_ligand_efficiency_sa>
-1.36658191124557

> <r_i_glide_ligand_efficiency_ln>
-2.67255596236569

> <r_i_glide_gscore>
-11.0523397241103

> <r_i_glide_lipo>
-4.04996278735637

> <r_i_glide_hbond>
-0.608

> <r_i_glide_metal>
0

> <r_i_glide_rewards>
-3.96366077456307

> <r_i_glide_evdw>
-32.2457160949707

> <r_i_glide_ecoul>
-6.7834324836731

> <r_i_glide_erotb>
0.199084515108651

> <r_i_glide_esite>
0

> <r_i_glide_emodel>
-49.4508456023377

> <r_i_glide_energy>
-39.0291485786438

> <r_i_glide_einternal>
7.30466938018799

> <i_i_glide_confnum>
1

> <i_i_glide_posenum>
6

> <r_i_glide_eff_state_penalty>
0

> <s_user_duplicate_titles>
CHEMBL1862_lig447

> <s_m_subgroup_title>
dock_pv

> <s_m_subgroupid>
dock_pv

> <b_m_subgroup_collapsed>
0

$$$$
CHEMBL1862_lig458
                    3D
 Schrodinger Suite 2021-1.
 41 43  0  0  1  0            999 V2000
   16.9641   12.0330    2.3813 N   0  0  0  0  0  0
   15.6097   12.0330    2.4030 C   0  0  0  0  0  0
   14.8123   12.9373    2.9842 N   0  0  0  0  0  0
   17.6052   13.0512    2.9773 C   0  0  0  0  0  0
   16.9057   14.0257    3.6725 C   0  0  0  0  0  0
   15.5149   13.8860    3.6030 C   0  0  0  0  0  0
   15.0157   14.9607    4.2517 N   0  0  0  0  0  0
   15.9899   15.6695    4.8700 N   0  0  0  0  0  0
   17.1375   15.1865    4.4658 C   0  0  0  0  0  0
   18.4390   15.7832    4.8452 C   0  0  0  0  0  0
   19.3049   15.0645    5.6678 C   0  0  0  0  0  0
   20.5612   15.5742    5.9838 C   0  0  0  0  0  0
   20.9777   16.8077    5.4607 C   0  0  0  0  0  0
   20.0958   17.5372    4.6559 C   0  0  0  0  0  0
   18.8299   17.0320    4.3563 C   0  0  0  0  0  0
   18.9640   13.1001    2.8030 N   0  0  0  0  0  0
   22.3580   17.3764    5.7612 C   0  0  0  0  0  0
   21.3640   14.8329    6.8029 O   0  0  0  0  0  0
   13.6162   15.2993    4.2666 C   0  0  2  0  0  0
   13.4676   16.8269    4.2301 C   0  0  0  0  0  0
   12.9036   14.4364    5.3284 C   0  0  0  0  0  0
   11.3712   14.4330    5.2030 C   0  0  0  0  0  0
   15.0877   11.2347    1.8927 H   0  0  0  0  0  0
   19.0074   14.1004    6.0552 H   0  0  0  0  0  0
   20.3945   18.4914    4.2478 H   0  0  0  0  0  0
   18.1645   17.5959    3.7188 H   0  0  0  0  0  0
   19.5036   13.8942    3.1189 H   0  0  0  0  0  0
   19.3640   12.3702    2.2163 H   0  0  0  0  0  0
   22.6279   17.2165    6.8036 H   0  0  0  0  0  0
   23.1134   16.8921    5.1425 H   0  0  0  0  0  0
   22.3989   18.4539    5.5927 H   0  0  0  0  0  0
   22.2996   15.0421    6.7049 H   0  0  0  0  0  0
   13.2319   14.9352    3.3134 H   0  0  0  0  0  0
   12.4413   17.1429    4.4030 H   0  0  0  0  0  0
   14.1640   17.3524    4.8841 H   0  0  0  0  0  0
   13.7640   17.1743    3.2472 H   0  0  0  0  0  0
   13.2124   13.3974    5.2036 H   0  0  0  0  0  0
   13.2609   14.7061    6.3189 H   0  0  0  0  0  0
   10.9136   13.8816    6.0250 H   0  0  0  0  0  0
   10.9590   15.4406    5.2030 H   0  0  0  0  0  0
   11.0570   13.9564    4.2736 H   0  0  0  0  0  0
  1  2  2  0  0  0
  1  4  1  0  0  0
  2  3  1  0  0  0
  2 23  1  0  0  0
  3  6  2  0  0  0
  4  5  2  0  0  0
  4 16  1  0  0  0
  5  9  1  0  0  0
  5  6  1  0  0  0
  6  7  1  0  0  0
  7  8  1  0  0  0
  7 19  1  0  0  0
  8  9  2  0  0  0
  9 10  1  0  0  0
 10 11  2  0  0  0
 10 15  1  0  0  0
 11 12  1  0  0  0
 11 24  1  0  0  0
 12 13  2  0  0  0
 12 18  1  0  0  0
 13 14  1  0  0  0
 13 17  1  0  0  0
 14 15  2  0  0  0
 14 25  1  0  0  0
 15 26  1  0  0  0
 16 27  1  0  0  0
 16 28  1  0  0  0
 17 29  1  0  0  0
 17 30  1  0  0  0
 17 31  1  0  0  0
 18 32  1  0  0  0
 19 20  1  0  0  0
 19 21  1  0  0  0
 19 33  1  0  0  0
 20 34  1  0  0  0
 20 35  1  0  0  0
 20 36  1  0  0  0
 21 22  1  0  0  0
 21 37  1  0  0  0
 21 38  1  0  0  0
 22 39  1  0  0  0
 22 40  1  0  0  0
 22 41  1  0  0  0
M  END
> <s_m_entry_id>
6114

> <s_m_entry_name>
dock_pv.40

> <s_m_Source_Path>
/home/csk/Desktop/cluster/DUD-E-result/abl1

> <s_m_Source_File>
dock_pv.maegz

> <i_m_Source_File_Index>
40

> <chembl_id>
CHEMBL1242109

> <chembl_pref_name>
None

> <i_lp_mmshare_version>
53161

> <i_f3d_flags>
0

> <r_lp_tautomer_probability>
0.999999999997365

> <s_lp_Force_Field>
OPLS_2005

> <r_lp_Energy>
11.179413

> <b_lp_Chiralities_Consistent>
1

> <s_lp_Variant>
CHEMBL1862_lig458-1

> <s_i_glide_gridfile>
glide-grid_2hzi

> <i_i_glide_lignum>
546

> <i_i_glide_rotatable_bonds>
4

> <r_i_docking_score>
-11.040869848547

> <r_i_glide_ligand_efficiency>
-0.501857720388499

> <r_i_glide_ligand_efficiency_sa>
-1.40622506947273

> <r_i_glide_ligand_efficiency_ln>
-2.69879131649773

> <r_i_glide_gscore>
-11.040869848547

> <r_i_glide_lipo>
-3.62278625832718

> <r_i_glide_hbond>
-1.12537990420995

> <r_i_glide_metal>
0

> <r_i_glide_rewards>
-4.30610154344999

> <r_i_glide_evdw>
-25.5459251403809

> <r_i_glide_ecoul>
-7.49342489242554

> <r_i_glide_erotb>
0.41470784832302

> <r_i_glide_esite>
0

> <r_i_glide_emodel>
-40.9284590939701

> <r_i_glide_energy>
-33.0393500328064

> <r_i_glide_einternal>
3.95805525779724

> <i_i_glide_confnum>
3

> <i_i_glide_posenum>
3

> <r_i_glide_eff_state_penalty>
0

> <s_user_duplicate_titles>
CHEMBL1862_lig458

> <s_m_subgroup_title>
dock_pv

> <s_m_subgroupid>
dock_pv

> <b_m_subgroup_collapsed>
0

$$$$
CHEMBL1862_lig498
                    3D
 Schrodinger Suite 2021-1.
 36 38  0  0  1  0            999 V2000
   16.6513   12.0330    2.3952 N   0  0  0  0  0  0
   15.3048   12.1130    2.4967 C   0  0  0  0  0  0
   14.5964   13.0378    3.1774 N   0  0  0  0  0  0
   17.3824   13.0011    2.9737 C   0  0  0  0  0  0
   16.7784   14.0171    3.7072 C   0  0  0  0  0  0
   15.3731   13.9454    3.7791 C   0  0  0  0  0  0
   15.0070   14.9844    4.5957 N   0  0  0  0  0  0
   16.0857   15.6789    5.0242 N   0  0  0  0  0  0
   17.1446   15.1678    4.4592 C   0  0  0  0  0  0
   18.4858   15.7462    4.6720 C   0  0  0  0  0  0
   19.3356   15.1740    5.6139 C   0  0  0  0  0  0
   20.5879   15.7287    5.8585 C   0  0  0  0  0  0
   21.0014   16.8761    5.1579 C   0  0  0  0  0  0
   20.1450   17.4435    4.2085 C   0  0  0  0  0  0
   18.8916   16.8823    3.9704 C   0  0  0  0  0  0
   18.7458   12.9365    2.8030 N   0  0  0  0  0  0
   21.3643   15.1178    6.8030 O   0  0  0  0  0  0
   13.6953   15.4840    4.9428 C   0  0  0  0  0  0
   12.5273   14.5060    4.6871 C   0  0  0  0  0  0
   13.5117   16.8330    4.2560 C   0  0  0  0  0  0
   22.2871   17.5193    5.4051 C   0  0  0  0  0  0
   23.3039   18.0329    5.6020 N   0  0  0  0  0  0
   14.7298   11.3672    1.9695 H   0  0  0  0  0  0
   19.0203   14.2989    6.1641 H   0  0  0  0  0  0
   20.4363   18.3265    3.6554 H   0  0  0  0  0  0
   18.2331   17.3317    3.2422 H   0  0  0  0  0  0
   19.3324   13.6838    3.1452 H   0  0  0  0  0  0
   19.1124   12.2077    2.1921 H   0  0  0  0  0  0
   22.2716   15.4398    6.8032 H   0  0  0  0  0  0
   13.7640   15.6326    6.0030 H   0  0  0  0  0  0
   11.5938   14.8940    5.0940 H   0  0  0  0  0  0
   12.3611   14.3386    3.6227 H   0  0  0  0  0  0
   12.7036   13.5395    5.1614 H   0  0  0  0  0  0
   12.4901   17.1866    4.3902 H   0  0  0  0  0  0
   14.1733   17.5924    4.6726 H   0  0  0  0  0  0
   13.7640   16.7598    3.2031 H   0  0  0  0  0  0
  1  2  2  0  0  0
  1  4  1  0  0  0
  2  3  1  0  0  0
  2 23  1  0  0  0
  3  6  2  0  0  0
  4  5  2  0  0  0
  4 16  1  0  0  0
  5  9  1  0  0  0
  5  6  1  0  0  0
  6  7  1  0  0  0
  7  8  1  0  0  0
  7 18  1  0  0  0
  8  9  2  0  0  0
  9 10  1  0  0  0
 10 11  2  0  0  0
 10 15  1  0  0  0
 11 12  1  0  0  0
 11 24  1  0  0  0
 12 13  2  0  0  0
 12 17  1  0  0  0
 13 14  1  0  0  0
 13 21  1  0  0  0
 14 15  2  0  0  0
 14 25  1  0  0  0
 15 26  1  0  0  0
 16 27  1  0  0  0
 16 28  1  0  0  0
 17 29  1  0  0  0
 18 19  1  0  0  0
 18 20  1  0  0  0
 18 30  1  0  0  0
 19 31  1  0  0  0
 19 32  1  0  0  0
 19 33  1  0  0  0
 20 34  1  0  0  0
 20 35  1  0  0  0
 20 36  1  0  0  0
 21 22  3  0  0  0
M  END
> <s_m_entry_id>
6115

> <s_m_entry_name>
dock_pv.41

> <s_m_Source_Path>
/home/csk/Desktop/cluster/DUD-E-result/abl1

> <s_m_Source_File>
dock_pv.maegz

> <i_m_Source_File_Index>
41

> <chembl_id>
CHEMBL1241944

> <chembl_pref_name>
None

> <i_lp_mmshare_version>
53161

> <i_f3d_flags>
0

> <r_lp_tautomer_probability>
1

> <s_lp_Force_Field>
OPLS_2005

> <r_lp_Energy>
14.300984

> <b_lp_Chiralities_Consistent>
1

> <s_lp_Variant>
CHEMBL1862_lig498-1

> <s_i_glide_gridfile>
glide-grid_2hzi

> <i_i_glide_lignum>
592

> <i_i_glide_rotatable_bonds>
3

> <r_i_docking_score>
-11.0341556587157

> <r_i_glide_ligand_efficiency>
-0.501552529941622

> <r_i_glide_ligand_efficiency_sa>
-1.40536991383812

> <r_i_glide_ligand_efficiency_ln>
-2.69715012359694

> <r_i_glide_gscore>
-11.0341556587157

> <r_i_glide_lipo>
-3.05148382373939

> <r_i_glide_hbond>
-0.815123683095531

> <r_i_glide_metal>
0

> <r_i_glide_rewards>
-4.53680402766658

> <r_i_glide_evdw>
-33.1708183288574

> <r_i_glide_ecoul>
-7.88879108428955

> <r_i_glide_erotb>
0.211115454872108

> <r_i_glide_esite>
0

> <r_i_glide_emodel>
-51.0292594557127

> <r_i_glide_energy>
-41.059609413147

> <r_i_glide_einternal>
7.60541391372681

> <i_i_glide_confnum>
1

> <i_i_glide_posenum>
166

> <r_i_glide_eff_state_penalty>
0

> <s_user_duplicate_titles>
CHEMBL1862_lig498

> <s_m_subgroup_title>
dock_pv

> <s_m_subgroupid>
dock_pv

> <b_m_subgroup_collapsed>
0

$$$$
CHEMBL1862_lig847
                    3D
 Schrodinger Suite 2021-1.
 35 37  0  0  1  0            999 V2000
   16.0748   14.4975    3.9877 C   0  0  0  0  0  0
   17.3528   14.0472    3.6030 C   0  0  0  0  0  0
   17.4489   12.8761    2.8411 C   0  0  0  0  0  0
   16.3921   12.1262    2.4320 N   0  0  0  0  0  0
   14.9549   13.7517    3.5840 C   0  0  0  0  0  0
   15.1966   12.5874    2.8048 C   0  0  0  0  0  0
   13.9733   12.0330    2.5035 N   0  0  0  0  0  0
   12.9640   12.7982    3.0419 C   0  0  0  0  0  0
   13.5310   13.8547    3.7425 C   0  0  0  0  0  0
   11.5607   12.4330    2.8030 C   0  0  0  0  0  0
   18.5513   14.7310    3.8934 N   0  0  0  0  0  0
   18.7713   15.6546    4.8540 C   0  0  0  0  0  0
   11.4106   11.3827    1.9626 O   0  0  0  0  0  0
   20.1278   16.3067    4.8140 C   0  0  0  0  0  0
   17.9583   16.0074    5.7097 O   0  0  0  0  0  0
   20.4438   17.2545    3.8172 C   0  0  0  0  0  0
   21.6631   17.9331    3.8591 C   0  0  0  0  0  0
   22.5819   17.6703    4.8706 C   0  0  0  0  0  0
   22.2961   16.7092    5.8352 C   0  0  0  0  0  0
   21.0820   16.0233    5.8126 C   0  0  0  0  0  0
   10.1145   10.9728    1.5525 C   0  0  0  0  0  0
   10.6291   13.0606    3.3138 O   0  0  0  0  0  0
   20.8138   14.8330    7.0435 Cl  0  0  0  0  0  0
   19.3640   17.6330    2.5139 Cl  0  0  0  0  0  0
   15.9338   15.4019    4.5588 H   0  0  0  0  0  0
   18.4149   12.5078    2.5236 H   0  0  0  0  0  0
   13.7822   11.1593    2.0135 H   0  0  0  0  0  0
   12.9773   14.6148    4.2747 H   0  0  0  0  0  0
   19.3413   14.5036    3.3059 H   0  0  0  0  0  0
   21.9006   18.6656    3.1009 H   0  0  0  0  0  0
   23.5234   18.1994    4.9001 H   0  0  0  0  0  0
   23.0245   16.4938    6.6048 H   0  0  0  0  0  0
   10.1781   10.0330    1.0075 H   0  0  0  0  0  0
    9.6683   11.7176    0.8925 H   0  0  0  0  0  0
    9.4489   10.8314    2.4045 H   0  0  0  0  0  0
  1  5  1  0  0  0
  1  2  2  0  0  0
  1 25  1  0  0  0
  2  3  1  0  0  0
  2 11  1  0  0  0
  3  4  2  0  0  0
  3 26  1  0  0  0
  4  6  1  0  0  0
  5  6  2  0  0  0
  5  9  1  0  0  0
  6  7  1  0  0  0
  7  8  1  0  0  0
  7 27  1  0  0  0
  8  9  2  0  0  0
  8 10  1  0  0  0
  9 28  1  0  0  0
 10 13  1  0  0  0
 10 22  2  0  0  0
 11 12  1  0  0  0
 11 29  1  0  0  0
 12 14  1  0  0  0
 12 15  2  0  0  0
 13 21  1  0  0  0
 14 16  2  0  0  0
 14 20  1  0  0  0
 16 17  1  0  0  0
 16 24  1  0  0  0
 17 18  2  0  0  0
 17 30  1  0  0  0
 18 19  1  0  0  0
 18 31  1  0  0  0
 19 20  2  0  0  0
 19 32  1  0  0  0
 20 23  1  0  0  0
 21 33  1  0  0  0
 21 34  1  0  0  0
 21 35  1  0  0  0
M  END
> <s_m_entry_id>
6116

> <s_m_entry_name>
dock_pv.42

> <s_m_Source_Path>
/home/csk/Desktop/cluster/DUD-E-result/abl1

> <s_m_Source_File>
dock_pv.maegz

> <i_m_Source_File_Index>
42

> <chembl_id>
CHEMBL3347637

> <chembl_pref_name>
None

> <i_lp_mmshare_version>
53161

> <i_f3d_flags>
0

> <r_lp_tautomer_probability>
1

> <s_lp_Force_Field>
OPLS_2005

> <r_lp_Energy>
22.893875

> <b_lp_Chiralities_Consistent>
1

> <s_lp_Variant>
CHEMBL1862_lig847-1

> <s_i_glide_gridfile>
glide-grid_2hzi

> <i_i_glide_lignum>
987

> <i_i_glide_rotatable_bonds>
5

> <r_i_docking_score>
-11.0233968592591

> <r_i_glide_ligand_efficiency>
-0.459308202469131

> <r_i_glide_ligand_efficiency_sa>
-1.32487411389604

> <r_i_glide_ligand_efficiency_ln>
-2.63840469914221

> <r_i_glide_gscore>
-11.0233968592591

> <r_i_glide_lipo>
-3.89164912839804

> <r_i_glide_hbond>
-0.597658947945583

> <r_i_glide_metal>
0

> <r_i_glide_rewards>
-3.02689879334131

> <r_i_glide_evdw>
-48.6206130981445

> <r_i_glide_ecoul>
-9.76515579223633

> <r_i_glide_erotb>
0.405804475949016

> <r_i_glide_esite>
-0.0171904417805396

> <r_i_glide_emodel>
-95.6317569633139

> <r_i_glide_energy>
-58.3857688903809

> <r_i_glide_einternal>
1.58060252666473

> <i_i_glide_confnum>
1

> <i_i_glide_posenum>
88

> <r_i_glide_eff_state_penalty>
0

> <s_user_duplicate_titles>
CHEMBL1862_lig847

> <s_m_subgroup_title>
dock_pv

> <s_m_subgroupid>
dock_pv

> <b_m_subgroup_collapsed>
0

$$$$
CHEMBL1862_lig530
                    3D
 Schrodinger Suite 2021-1.
 39 42  0  0  1  0            999 V2000
   16.5642   12.0330    2.2845 N   0  0  0  0  0  0
   15.2212   12.1617    2.3920 C   0  0  0  0  0  0
   14.5483   13.0937    3.0983 N   0  0  0  0  0  0
   17.3256   12.9438    2.9239 C   0  0  0  0  0  0
   16.7587   13.9586    3.6875 C   0  0  0  0  0  0
   15.3542   13.9512    3.7346 C   0  0  0  0  0  0
   15.0196   14.9788    4.5807 N   0  0  0  0  0  0
   16.1209   15.6325    5.0312 N   0  0  0  0  0  0
   17.1715   15.0413    4.5194 C   0  0  0  0  0  0
   18.5517   15.4570    4.8677 C   0  0  0  0  0  0
   19.1644   16.4923    4.1643 C   0  0  0  0  0  0
   20.4990   15.2330    6.3009 C   0  0  0  0  0  0
   19.2191   14.8335    5.9232 C   0  0  0  0  0  0
   18.6901   12.8330    2.8030 N   0  0  0  0  0  0
   21.1358   16.2988    5.6240 C   0  0  0  0  0  0
   20.4597   16.9250    4.5339 C   0  0  0  0  0  0
   21.1387   17.9719    3.8772 C   0  0  0  0  0  0
   22.3501   18.4478    4.2413 N   0  0  0  0  0  0
   22.9639   17.8530    5.2911 C   0  0  0  0  0  0
   22.4191   16.7783    5.9941 C   0  0  0  0  0  0
   13.7119   15.4869    4.9427 C   0  0  0  0  0  0
   12.5348   14.5141    4.7049 C   0  0  0  0  0  0
   13.5238   16.8330    4.2585 C   0  0  0  0  0  0
   14.6144   11.4586    1.8397 H   0  0  0  0  0  0
   18.6520   16.9783    3.3462 H   0  0  0  0  0  0
   21.0039   14.7456    7.1210 H   0  0  0  0  0  0
   18.7378   14.0330    6.4640 H   0  0  0  0  0  0
   19.2846   13.5431    3.2054 H   0  0  0  0  0  0
   19.0601   12.1228    2.1718 H   0  0  0  0  0  0
   20.6829   18.4328    3.0172 H   0  0  0  0  0  0
   23.9340   18.2457    5.5610 H   0  0  0  0  0  0
   22.9626   16.3165    6.8046 H   0  0  0  0  0  0
   13.7773   15.6328    6.0030 H   0  0  0  0  0  0
   11.6141   14.8965    5.1446 H   0  0  0  0  0  0
   12.3366   14.3633    3.6436 H   0  0  0  0  0  0
   12.7221   13.5402    5.1593 H   0  0  0  0  0  0
   12.5020   17.1839    4.4006 H   0  0  0  0  0  0
   14.1860   17.5914    4.6758 H   0  0  0  0  0  0
   13.7640   16.7617    3.2030 H   0  0  0  0  0  0
  1  2  2  0  0  0
  1  4  1  0  0  0
  2  3  1  0  0  0
  2 24  1  0  0  0
  3  6  2  0  0  0
  4 14  1  0  0  0
  4  5  2  0  0  0
  5  9  1  0  0  0
  5  6  1  0  0  0
  6  7  1  0  0  0
  7  8  1  0  0  0
  7 21  1  0  0  0
  8  9  2  0  0  0
  9 10  1  0  0  0
 10 13  1  0  0  0
 10 11  2  0  0  0
 11 16  1  0  0  0
 11 25  1  0  0  0
 12 15  1  0  0  0
 12 13  2  0  0  0
 12 26  1  0  0  0
 13 27  1  0  0  0
 14 28  1  0  0  0
 14 29  1  0  0  0
 15 16  2  0  0  0
 15 20  1  0  0  0
 16 17  1  0  0  0
 17 18  2  0  0  0
 17 30  1  0  0  0
 18 19  1  0  0  0
 19 20  2  0  0  0
 19 31  1  0  0  0
 20 32  1  0  0  0
 21 22  1  0  0  0
 21 23  1  0  0  0
 21 33  1  0  0  0
 22 34  1  0  0  0
 22 35  1  0  0  0
 22 36  1  0  0  0
 23 37  1  0  0  0
 23 38  1  0  0  0
 23 39  1  0  0  0
M  END
> <s_m_entry_id>
6117

> <s_m_entry_name>
dock_pv.43

> <s_m_Source_Path>
/home/csk/Desktop/cluster/DUD-E-result/abl1

> <s_m_Source_File>
dock_pv.maegz

> <i_m_Source_File_Index>
43

> <chembl_id>
CHEMBL1242208

> <chembl_pref_name>
None

> <i_lp_mmshare_version>
53161

> <i_f3d_flags>
0

> <r_lp_tautomer_probability>
1

> <s_lp_Force_Field>
OPLS_2005

> <r_lp_Energy>
13.197994

> <b_lp_Chiralities_Consistent>
1

> <s_lp_Variant>
CHEMBL1862_lig530-1

> <s_i_glide_gridfile>
glide-grid_2hzi

> <i_i_glide_lignum>
628

> <i_i_glide_rotatable_bonds>
2

> <r_i_docking_score>
-10.9916814981068

> <r_i_glide_ligand_efficiency>
-0.477899195569861

> <r_i_glide_ligand_efficiency_sa>
-1.35908174055829

> <r_i_glide_ligand_efficiency_ln>
-2.65788825329966

> <r_i_glide_gscore>
-10.9916814981068

> <r_i_glide_lipo>
-4.02874339464262

> <r_i_glide_hbond>
-0.608

> <r_i_glide_metal>
0

> <r_i_glide_rewards>
-3.82104968671094

> <r_i_glide_evdw>
-33.7808647155762

> <r_i_glide_ecoul>
-6.95953130722046

> <r_i_glide_erotb>
0.199084515108651

> <r_i_glide_esite>
0

> <r_i_glide_emodel>
-51.3727658064042

> <r_i_glide_energy>
-40.7403960227966

> <r_i_glide_einternal>
7.61013317108154

> <i_i_glide_confnum>
1

> <i_i_glide_posenum>
152

> <r_i_glide_eff_state_penalty>
0

> <s_user_duplicate_titles>
CHEMBL1862_lig530

> <s_m_subgroup_title>
dock_pv

> <s_m_subgroupid>
dock_pv

> <b_m_subgroup_collapsed>
0

$$$$
CHEMBL1862_lig507
                    3D
 Schrodinger Suite 2021-1.
 39 41  0  0  1  0            999 V2000
   16.6866   12.0330    2.4030 N   0  0  0  0  0  0
   15.3397   12.1062    2.5082 C   0  0  0  0  0  0
   14.6243   13.0343    3.1774 N   0  0  0  0  0  0
   17.4090   13.0127    2.9794 C   0  0  0  0  0  0
   16.7984   14.0286    3.7129 C   0  0  0  0  0  0
   15.3926   13.9514    3.7758 C   0  0  0  0  0  0
   15.0150   14.9918    4.5871 N   0  0  0  0  0  0
   16.0866   15.6917    5.0225 N   0  0  0  0  0  0
   17.1550   15.1794    4.4772 C   0  0  0  0  0  0
   18.4941   15.7369    4.7629 C   0  0  0  0  0  0
   19.3394   15.0273    5.6090 C   0  0  0  0  0  0
   20.5861   15.5433    5.9399 C   0  0  0  0  0  0
   21.0302   16.7647    5.4177 C   0  0  0  0  0  0
   20.1703   17.4750    4.5613 C   0  0  0  0  0  0
   18.9072   16.9681    4.2471 C   0  0  0  0  0  0
   18.7724   12.9620    2.8030 N   0  0  0  0  0  0
   13.6995   15.4814    4.9387 C   0  0  0  0  0  0
   12.5385   14.4984    4.6718 C   0  0  0  0  0  0
   21.3640   14.8330    6.8030 O   0  0  0  0  0  0
   22.2893   17.1979    5.7967 O   0  0  0  0  0  0
   22.7804   18.4393    5.3016 C   0  0  0  0  0  0
   13.5088   16.8330    4.2564 C   0  0  0  0  0  0
   14.7702   11.3337    2.0134 H   0  0  0  0  0  0
   19.0224   14.0825    6.0278 H   0  0  0  0  0  0
   20.4616   18.4239    4.1383 H   0  0  0  0  0  0
   18.2482   17.5313    3.6029 H   0  0  0  0  0  0
   19.3534   13.7156    3.1416 H   0  0  0  0  0  0
   19.1428   12.2324    2.1956 H   0  0  0  0  0  0
   13.7640   15.6223    6.0030 H   0  0  0  0  0  0
   11.6005   14.8801    5.0743 H   0  0  0  0  0  0
   12.3805   14.3342    3.6055 H   0  0  0  0  0  0
   12.7169   13.5313    5.1437 H   0  0  0  0  0  0
   22.2789   15.1383    6.7797 H   0  0  0  0  0  0
   23.7749   18.6226    5.7092 H   0  0  0  0  0  0
   22.8650   18.4288    4.2141 H   0  0  0  0  0  0
   22.1437   19.2718    5.6030 H   0  0  0  0  0  0
   12.4845   17.1798    4.3869 H   0  0  0  0  0  0
   14.1641   17.5943    4.6796 H   0  0  0  0  0  0
   13.7641   16.7663    3.2030 H   0  0  0  0  0  0
  1  2  2  0  0  0
  1  4  1  0  0  0
  2  3  1  0  0  0
  2 23  1  0  0  0
  3  6  2  0  0  0
  4  5  2  0  0  0
  4 16  1  0  0  0
  5  9  1  0  0  0
  5  6  1  0  0  0
  6  7  1  0  0  0
  7 17  1  0  0  0
  7  8  1  0  0  0
  8  9  2  0  0  0
  9 10  1  0  0  0
 10 11  2  0  0  0
 10 15  1  0  0  0
 11 12  1  0  0  0
 11 24  1  0  0  0
 12 13  2  0  0  0
 12 19  1  0  0  0
 13 14  1  0  0  0
 13 20  1  0  0  0
 14 15  2  0  0  0
 14 25  1  0  0  0
 15 26  1  0  0  0
 16 27  1  0  0  0
 16 28  1  0  0  0
 17 18  1  0  0  0
 17 22  1  0  0  0
 17 29  1  0  0  0
 18 30  1  0  0  0
 18 31  1  0  0  0
 18 32  1  0  0  0
 19 33  1  0  0  0
 20 21  1  0  0  0
 21 34  1  0  0  0
 21 35  1  0  0  0
 21 36  1  0  0  0
 22 37  1  0  0  0
 22 38  1  0  0  0
 22 39  1  0  0  0
M  END
> <s_m_entry_id>
6118

> <s_m_entry_name>
dock_pv.44

> <s_m_Source_Path>
/home/csk/Desktop/cluster/DUD-E-result/abl1

> <s_m_Source_File>
dock_pv.maegz

> <i_m_Source_File_Index>
44

> <chembl_id>
CHEMBL1242114

> <chembl_pref_name>
None

> <i_lp_mmshare_version>
53161

> <i_f3d_flags>
0

> <r_lp_tautomer_probability>
0.999999999999776

> <s_lp_Force_Field>
OPLS_2005

> <r_lp_Energy>
15.959196

> <b_lp_Chiralities_Consistent>
1

> <s_lp_Variant>
CHEMBL1862_lig507-1

> <s_i_glide_gridfile>
glide-grid_2hzi

> <i_i_glide_lignum>
601

> <i_i_glide_rotatable_bonds>
4

> <r_i_docking_score>
-10.9585628528152

> <r_i_glide_ligand_efficiency>
-0.49811649330978

> <r_i_glide_ligand_efficiency_sa>
-1.39574200406405

> <r_i_glide_ligand_efficiency_ln>
-2.67867248452026

> <r_i_glide_gscore>
-10.9585628528152

> <r_i_glide_lipo>
-3.43095057174474

> <r_i_glide_hbond>
-0.565553411102796

> <r_i_glide_metal>
0

> <r_i_glide_rewards>
-4.31327923360856

> <r_i_glide_evdw>
-30.9915599822998

> <r_i_glide_ecoul>
-8.6944751739502

> <r_i_glide_erotb>
0.204969638848449

> <r_i_glide_esite>
0

> <r_i_glide_emodel>
-50.2374923966818

> <r_i_glide_energy>
-39.68603515625

> <r_i_glide_einternal>
7.71064805984497

> <i_i_glide_confnum>
3

> <i_i_glide_posenum>
185

> <r_i_glide_eff_state_penalty>
0

> <s_user_duplicate_titles>
CHEMBL1862_lig507

> <s_m_subgroup_title>
dock_pv

> <s_m_subgroupid>
dock_pv

> <b_m_subgroup_collapsed>
0

$$$$
CHEMBL1862_lig202
                    3D
 Schrodinger Suite 2021-1.
 40 43  0  0  1  0            999 V2000
   11.5256   12.8332    3.2030 C   0  0  0  0  0  0
   11.3903   13.9480    4.0497 C   0  0  0  0  0  0
   12.5185   14.6379    4.4949 C   0  0  0  0  0  0
   12.8171   12.4333    2.8139 C   0  0  0  0  0  0
   13.9332   13.1307    3.2687 C   0  0  0  0  0  0
   13.7896   14.2427    4.0970 C   0  0  0  0  0  0
   15.1249   14.8749    4.4269 C   0  0  0  0  0  0
   15.3783   12.9774    3.0402 C   0  0  0  0  0  0
   16.0847   13.9912    3.6725 C   0  0  0  0  0  0
   17.4247   13.7902    3.3445 C   0  0  0  0  0  0
   17.3880   12.6252    2.6195 N   0  0  0  0  0  0
   16.1590   12.1420    2.4031 N   0  0  0  0  0  0
   18.6316   14.4258    3.5207 N   0  0  0  0  0  0
   18.9740   15.6313    4.1480 C   0  0  0  0  0  0
   18.1409   16.3294    5.0260 C   0  0  0  0  0  0
   18.5640   17.5255    5.6030 C   0  0  0  0  0  0
   19.8360   18.0223    5.3235 C   0  0  0  0  0  0
   20.6765   17.3343    4.4559 C   0  0  0  0  0  0
   20.2435   16.1461    3.8754 C   0  0  0  0  0  0
   10.1548   14.4315    4.4045 O   0  0  0  0  0  0
    9.6388   13.8910    5.6119 C   0  0  0  0  0  0
   10.3652   12.2049    2.7889 O   0  0  0  0  0  0
   10.4541   11.1074    1.8852 C   0  0  0  0  0  0
   21.9112   17.8128    4.1847 F   0  0  0  0  0  0
   12.3924   15.5043    5.1245 H   0  0  0  0  0  0
   12.9641   11.6079    2.1397 H   0  0  0  0  0  0
   15.1513   15.9147    4.1096 H   0  0  0  0  0  0
   15.2949   14.8496    5.5035 H   0  0  0  0  0  0
   18.2075   12.1882    2.2167 H   0  0  0  0  0  0
   19.4310   14.0708    3.0130 H   0  0  0  0  0  0
   17.1796   15.9460    5.3008 H   0  0  0  0  0  0
   17.9182   18.0477    6.2937 H   0  0  0  0  0  0
   20.1904   18.9149    5.8098 H   0  0  0  0  0  0
   20.9129   15.6330    3.2031 H   0  0  0  0  0  0
    8.7118   14.4023    5.8709 H   0  0  0  0  0  0
    9.4101   12.8328    5.4997 H   0  0  0  0  0  0
   10.3310   14.0153    6.4472 H   0  0  0  0  0  0
    9.4601   10.6949    1.7131 H   0  0  0  0  0  0
   11.0778   10.3054    2.2799 H   0  0  0  0  0  0
   10.8540   11.4235    0.9209 H   0  0  0  0  0  0
  1  2  2  0  0  0
  1  4  1  0  0  0
  1 22  1  0  0  0
  2  3  1  0  0  0
  2 20  1  0  0  0
  3  6  2  0  0  0
  3 25  1  0  0  0
  4  5  2  0  0  0
  4 26  1  0  0  0
  5  8  1  0  0  0
  5  6  1  0  0  0
  6  7  1  0  0  0
  7  9  1  0  0  0
  7 27  1  0  0  0
  7 28  1  0  0  0
  8 12  2  0  0  0
  8  9  1  0  0  0
  9 10  2  0  0  0
 10 11  1  0  0  0
 10 13  1  0  0  0
 11 12  1  0  0  0
 11 29  1  0  0  0
 13 14  1  0  0  0
 13 30  1  0  0  0
 14 15  2  0  0  0
 14 19  1  0  0  0
 15 16  1  0  0  0
 15 31  1  0  0  0
 16 17  2  0  0  0
 16 32  1  0  0  0
 17 18  1  0  0  0
 17 33  1  0  0  0
 18 19  2  0  0  0
 18 24  1  0  0  0
 19 34  1  0  0  0
 20 21  1  0  0  0
 21 35  1  0  0  0
 21 36  1  0  0  0
 21 37  1  0  0  0
 22 23  1  0  0  0
 23 38  1  0  0  0
 23 39  1  0  0  0
 23 40  1  0  0  0
M  END
> <s_m_entry_id>
6119

> <s_m_entry_name>
dock_pv.45

> <s_m_Source_Path>
/home/csk/Desktop/cluster/DUD-E-result/abl1

> <s_m_Source_File>
dock_pv.maegz

> <i_m_Source_File_Index>
45

> <chembl_id>
CHEMBL120077

> <chembl_pref_name>
None

> <i_lp_mmshare_version>
53161

> <i_f3d_flags>
0

> <r_lp_tautomer_probability>
0.157399999843308

> <s_lp_Force_Field>
OPLS_2005

> <r_lp_Energy>
51.233699

> <b_lp_Chiralities_Consistent>
1

> <s_lp_Variant>
CHEMBL1862_lig202-2

> <s_i_glide_gridfile>
glide-grid_2hzi

> <i_i_glide_lignum>
222

> <i_i_glide_rotatable_bonds>
4

> <r_i_docking_score>
-10.9519027664912

> <r_i_glide_ligand_efficiency>
-0.456329281937134

> <r_i_glide_ligand_efficiency_sa>
-1.31628142019064

> <r_i_glide_ligand_efficiency_ln>
-2.6212928820927

> <r_i_glide_gscore>
-10.9519027664912

> <r_i_glide_lipo>
-4.32394415417834

> <r_i_glide_hbond>
-0.668078096151939

> <r_i_glide_metal>
0

> <r_i_glide_rewards>
-3.22369859164837

> <r_i_glide_evdw>
-40.4280395507812

> <r_i_glide_ecoul>
-6.41768026351929

> <r_i_glide_erotb>
0.24787209255439

> <r_i_glide_esite>
0

> <r_i_glide_emodel>
-69.9450934603495

> <r_i_glide_energy>
-46.8457198143005

> <r_i_glide_einternal>
9.87508678436279

> <i_i_glide_confnum>
3

> <i_i_glide_posenum>
66

> <r_i_glide_eff_state_penalty>
0

> <s_user_duplicate_titles>
CHEMBL1862_lig202,CHEMBL1862_lig202,331628

> <s_m_subgroup_title>
dock_pv

> <s_m_subgroupid>
dock_pv

> <b_m_subgroup_collapsed>
0

$$$$
CHEMBL1862_lig725
                    3D
 Schrodinger Suite 2021-1.
 47 49  0  0  1  0            999 V2000
   13.9237   12.5711    2.9662 N   0  0  0  0  0  0
   12.6160   12.7482    3.1964 C   0  0  0  0  0  0
   12.1025   13.7295    3.7269 O   0  0  0  0  0  0
   11.9099   11.7030    2.7405 N   0  0  0  0  0  0
   10.4720   11.7006    2.4484 C   0  0  0  0  0  0
   10.2599   11.2862    0.9935 C   0  0  0  0  0  0
    8.8036   11.1885    0.5081 C   0  0  0  0  0  0
    8.1399   10.0899    1.0936 O   0  0  0  0  0  0
   16.5547   13.0266    2.8291 S   0  0  0  0  0  0
   14.9505   13.3960    3.3929 C   0  0  0  0  0  0
   14.8441   14.4102    4.2128 N   0  0  0  0  0  0
   16.0582   14.9397    4.5022 C   0  0  0  0  0  0
   17.1587   14.3223    3.8605 C   0  0  0  0  0  0
   18.4750   14.7547    4.0996 C   0  0  0  0  0  0
   18.6619   15.8322    4.9775 C   0  0  0  0  0  0
   17.5650   16.4377    5.5982 C   0  0  0  0  0  0
   16.2606   16.0056    5.3888 C   0  0  0  0  0  0
   20.0177   16.3940    5.2011 C   0  0  0  0  0  0
   20.3496   17.6863    4.7621 C   0  0  0  0  0  0
   21.5948   18.2403    5.0530 C   0  0  0  0  0  0
   22.5367   17.5089    5.7657 C   0  0  0  0  0  0
   22.2246   16.2146    6.1884 C   0  0  0  0  0  0
   20.9714   15.6594    5.9078 C   0  0  0  0  0  0
   19.4719   18.4199    4.0041 O   0  0  0  0  0  0
   19.2126   17.9668    2.6693 C   0  0  0  0  0  0
   20.4679   17.5973    1.8543 C   0  0  0  0  0  0
   14.2004   11.7420    2.4512 H   0  0  0  0  0  0
   12.3871   10.8121    2.6185 H   0  0  0  0  0  0
   10.0070   12.6729    2.6296 H   0  0  0  0  0  0
    9.9461   11.0196    3.1145 H   0  0  0  0  0  0
   10.7726   10.3407    0.8089 H   0  0  0  0  0  0
   10.7698   12.0301    0.4018 H   0  0  0  0  0  0
    8.7621   11.1061   -0.5774 H   0  0  0  0  0  0
    8.2674   12.0947    0.7868 H   0  0  0  0  0  0
    8.6604    9.2996    0.9210 H   0  0  0  0  0  0
   19.3141   14.2950    3.5988 H   0  0  0  0  0  0
   17.7413   17.2720    6.2584 H   0  0  0  0  0  0
   15.4345   16.4892    5.8885 H   0  0  0  0  0  0
   21.8429   19.2341    4.7163 H   0  0  0  0  0  0
   23.5031   17.9338    6.0054 H   0  0  0  0  0  0
   22.9592   15.6507    6.7456 H   0  0  0  0  0  0
   20.7438   14.6590    6.2639 H   0  0  0  0  0  0
   18.5403   17.1145    2.6788 H   0  0  0  0  0  0
   18.6643   18.7564    2.1450 H   0  0  0  0  0  0
   20.2143   17.3224    0.8288 H   0  0  0  0  0  0
   21.1771   18.4254    1.8227 H   0  0  0  0  0  0
   20.9602   16.7344    2.2965 H   0  0  0  0  0  0
  1  2  1  0  0  0
  1 10  1  0  0  0
  1 27  1  0  0  0
  2  3  2  0  0  0
  2  4  1  0  0  0
  4  5  1  0  0  0
  4 28  1  0  0  0
  5  6  1  0  0  0
  5 29  1  0  0  0
  5 30  1  0  0  0
  6  7  1  0  0  0
  6 31  1  0  0  0
  6 32  1  0  0  0
  7  8  1  0  0  0
  7 33  1  0  0  0
  7 34  1  0  0  0
  8 35  1  0  0  0
  9 10  1  0  0  0
  9 13  1  0  0  0
 10 11  2  0  0  0
 11 12  1  0  0  0
 12 13  1  0  0  0
 12 17  2  0  0  0
 13 14  2  0  0  0
 14 15  1  0  0  0
 14 36  1  0  0  0
 15 16  2  0  0  0
 15 18  1  0  0  0
 16 17  1  0  0  0
 16 37  1  0  0  0
 17 38  1  0  0  0
 18 19  1  0  0  0
 18 23  2  0  0  0
 19 20  2  0  0  0
 19 24  1  0  0  0
 20 21  1  0  0  0
 20 39  1  0  0  0
 21 22  2  0  0  0
 21 40  1  0  0  0
 22 23  1  0  0  0
 22 41  1  0  0  0
 23 42  1  0  0  0
 24 25  1  0  0  0
 25 26  1  0  0  0
 25 43  1  0  0  0
 25 44  1  0  0  0
 26 45  1  0  0  0
 26 46  1  0  0  0
 26 47  1  0  0  0
M  END
> <s_m_entry_id>
6120

> <s_m_entry_name>
dock_pv.46

> <s_m_Source_Path>
/home/csk/Desktop/cluster/DUD-E-result/abl1

> <s_m_Source_File>
dock_pv.maegz

> <i_m_Source_File_Index>
46

> <chembl_id>
CHEMBL2347728

> <chembl_pref_name>
None

> <i_lp_mmshare_version>
53161

> <i_f3d_flags>
0

> <r_lp_tautomer_probability>
1

> <s_lp_Force_Field>
OPLS_2005

> <r_lp_Energy>
17.313006

> <b_lp_Chiralities_Consistent>
1

> <s_lp_Variant>
CHEMBL1862_lig725-1

> <s_i_glide_gridfile>
glide-grid_2hzi

> <i_i_glide_lignum>
858

> <i_i_glide_rotatable_bonds>
10

> <r_i_docking_score>
-10.9509528911671

> <r_i_glide_ligand_efficiency>
-0.421190495814118

> <r_i_glide_ligand_efficiency_sa>
-1.24777518654475

> <r_i_glide_ligand_efficiency_ln>
-2.57179535348332

> <r_i_glide_gscore>
-10.9509528911671

> <r_i_glide_lipo>
-4.84003459433726

> <r_i_glide_hbond>
-0.574008481954555

> <r_i_glide_metal>
0

> <r_i_glide_rewards>
-1.94749565979071

> <r_i_glide_evdw>
-47.23681640625

> <r_i_glide_ecoul>
-15.6452121734619

> <r_i_glide_erotb>
1.11920849124723

> <r_i_glide_esite>
0

> <r_i_glide_emodel>
-92.3085632189954

> <r_i_glide_energy>
-62.8820285797119

> <r_i_glide_einternal>
11.6103105545044

> <i_i_glide_confnum>
32

> <i_i_glide_posenum>
363

> <r_i_glide_eff_state_penalty>
0

> <s_user_duplicate_titles>
CHEMBL1862_lig725

> <s_m_subgroup_title>
dock_pv

> <s_m_subgroupid>
dock_pv

> <b_m_subgroup_collapsed>
0

$$$$
CHEMBL1862_lig5
                    3D
 Schrodinger Suite 2021-1.
 41 44  0  0  1  0            999 V2000
   17.3630   12.4585    2.8063 C   0  0  0  0  0  0
   17.8669   13.5189    3.4837 N   0  0  0  0  0  0
   16.9259   14.3149    4.0041 C   0  0  0  0  0  0
   15.5283   14.1121    3.9051 C   0  0  0  0  0  0
   15.1272   12.9513    3.2008 C   0  0  0  0  0  0
   16.0568   12.1408    2.6343 N   0  0  0  0  0  0
   15.9063   15.9358    5.2031 N   0  0  0  0  0  0
   17.0952   15.4384    4.8016 N   0  0  0  0  0  0
   14.9745   15.2334    4.6053 C   0  0  0  0  0  0
   13.8182   12.5003    3.0145 N   0  0  0  0  0  0
   12.5629   12.8329    3.5389 C   0  0  0  0  0  0
   11.4503   12.4330    2.7968 C   0  0  0  0  0  0
   10.1575   12.7454    3.2157 C   0  0  0  0  0  0
    9.9627   13.3635    4.4499 C   0  0  0  0  0  0
   11.0638   13.6566    5.2561 C   0  0  0  0  0  0
   12.3607   13.4243    4.7904 C   0  0  0  0  0  0
    9.0978   12.4265    2.4401 F   0  0  0  0  0  0
   18.3169   16.0339    5.3425 C   0  0  0  0  0  0
   19.4796   16.0856    4.3238 C   0  0  2  0  0  0
   20.7115   16.7584    4.9043 C   0  0  0  0  0  0
   21.0165   18.0963    4.6240 C   0  0  0  0  0  0
   22.1780   18.6687    5.1306 C   0  0  0  0  0  0
   23.0151   17.9051    5.9317 C   0  0  0  0  0  0
   22.6931   16.5937    6.2455 C   0  0  0  0  0  0
   21.5516   16.0071    5.7262 C   0  0  0  0  0  0
   24.1609   18.4335    6.4021 F   0  0  0  0  0  0
   18.9640   16.8354    2.7918 Cl  0  0  0  0  0  0
   18.0932   11.7729    2.4020 H   0  0  0  0  0  0
   13.9399   15.5131    4.7296 H   0  0  0  0  0  0
   13.7813   11.7266    2.3665 H   0  0  0  0  0  0
   11.5787   11.9270    1.8502 H   0  0  0  0  0  0
    8.9587   13.5615    4.7991 H   0  0  0  0  0  0
   10.9125   14.0399    6.2532 H   0  0  0  0  0  0
   13.1895   13.6311    5.4482 H   0  0  0  0  0  0
   18.5986   15.4466    6.2169 H   0  0  0  0  0  0
   18.0906   17.0435    5.6930 H   0  0  0  0  0  0
   19.7874   15.0743    4.0537 H   0  0  0  0  0  0
   20.3732   18.6996    4.0037 H   0  0  0  0  0  0
   22.4397   19.6903    4.9018 H   0  0  0  0  0  0
   23.3644   16.0319    6.8716 H   0  0  0  0  0  0
   21.3310   14.9732    5.9510 H   0  0  0  0  0  0
  1  2  1  0  0  0
  1  6  2  0  0  0
  1 28  1  0  0  0
  2  3  2  0  0  0
  3  4  1  0  0  0
  3  8  1  0  0  0
  4  5  2  0  0  0
  4  9  1  0  0  0
  5  6  1  0  0  0
  5 10  1  0  0  0
  7  8  1  0  0  0
  7  9  2  0  0  0
  8 18  1  0  0  0
  9 29  1  0  0  0
 10 11  1  0  0  0
 10 30  1  0  0  0
 11 12  1  0  0  0
 11 16  2  0  0  0
 12 13  2  0  0  0
 12 31  1  0  0  0
 13 14  1  0  0  0
 13 17  1  0  0  0
 14 15  2  0  0  0
 14 32  1  0  0  0
 15 16  1  0  0  0
 15 33  1  0  0  0
 16 34  1  0  0  0
 18 19  1  0  0  0
 18 35  1  0  0  0
 18 36  1  0  0  0
 19 20  1  0  0  0
 19 27  1  0  0  0
 19 37  1  0  0  0
 20 21  1  0  0  0
 20 25  2  0  0  0
 21 22  2  0  0  0
 21 38  1  0  0  0
 22 23  1  0  0  0
 22 39  1  0  0  0
 23 24  2  0  0  0
 23 26  1  0  0  0
 24 25  1  0  0  0
 24 40  1  0  0  0
 25 41  1  0  0  0
M  END
> <s_m_entry_id>
6121

> <s_m_entry_name>
dock_pv.47

> <s_m_Source_Path>
/home/csk/Desktop/cluster/DUD-E-result/abl1

> <s_m_Source_File>
dock_pv.maegz

> <i_m_Source_File_Index>
47

> <chembl_id>
CHEMBL1165511

> <chembl_pref_name>
None

> <i_lp_mmshare_version>
53161

> <i_f3d_flags>
0

> <r_lp_tautomer_probability>
1

> <s_lp_Force_Field>
OPLS_2005

> <r_lp_Energy>
14.124925

> <b_lp_Chiralities_Consistent>
1

> <s_lp_Variant>
CHEMBL1862_lig5-1

> <s_i_glide_gridfile>
glide-grid_2hzi

> <i_i_glide_lignum>
6

> <i_i_glide_rotatable_bonds>
5

> <r_i_docking_score>
-10.9339565395902

> <r_i_glide_ligand_efficiency>
-0.404961353318156

> <r_i_glide_ligand_efficiency_sa>
-1.21488405861978

> <r_i_glide_ligand_efficiency_ln>
-2.54524482205493

> <r_i_glide_gscore>
-10.9339565395902

> <r_i_glide_lipo>
-4.41642796514643

> <r_i_glide_hbond>
-0.424525565482491

> <r_i_glide_metal>
0

> <r_i_glide_rewards>
-3.59204609950022

> <r_i_glide_evdw>
-47.7293815612793

> <r_i_glide_ecoul>
-3.81345176696777

> <r_i_glide_erotb>
0.457529933648071

> <r_i_glide_esite>
0

> <r_i_glide_emodel>
-73.9709682127243

> <r_i_glide_energy>
-51.5428333282471

> <r_i_glide_einternal>
12.8699254989624

> <i_i_glide_confnum>
18

> <i_i_glide_posenum>
319

> <r_i_glide_eff_state_penalty>
0

> <s_user_duplicate_titles>
CHEMBL1862_lig5,646042

> <s_m_subgroup_title>
dock_pv

> <s_m_subgroupid>
dock_pv

> <b_m_subgroup_collapsed>
0

$$$$
CHEMBL1862_lig493
                    3D
 Schrodinger Suite 2021-1.
 41 44  0  0  1  0            999 V2000
   16.5467   12.0332    2.2165 N   0  0  0  0  0  0
   15.1958   12.0330    2.2556 C   0  0  0  0  0  0
   14.4012   12.8819    2.9331 N   0  0  0  0  0  0
   17.1855   13.0195    2.8766 C   0  0  0  0  0  0
   16.4759   13.9837    3.6028 C   0  0  0  0  0  0
   15.0757   13.8247    3.5980 C   0  0  0  0  0  0
   14.5843   14.7830    4.4564 N   0  0  0  0  0  0
   15.5859   15.5841    4.9074 N   0  0  0  0  0  0
   16.7254   15.1236    4.4301 C   0  0  0  0  0  0
   18.0588   15.6832    4.8078 C   0  0  0  0  0  0
   18.9770   14.8684    5.4784 C   0  0  0  0  0  0
   20.2572   15.3329    5.7808 C   0  0  0  0  0  0
   20.6417   16.6225    5.3997 C   0  0  0  0  0  0
   19.7278   17.4463    4.7443 C   0  0  0  0  0  0
   18.4444   16.9810    4.4584 C   0  0  0  0  0  0
   18.5640   13.0099    2.8031 N   0  0  0  0  0  0
   22.2318   17.2190    5.7290 Cl  0  0  0  0  0  0
   21.1224   14.5119    6.4507 O   0  0  0  0  0  0
   13.2240   14.9649    4.9685 C   0  0  0  0  0  0
   12.3511   13.6765    4.9274 C   0  0  1  0  0  0
   11.3336   13.6330    5.9688 N   0  0  2  0  0  0
   10.1398   14.2551    5.4311 C   0  0  0  0  0  0
   10.1225   13.9466    3.9375 C   0  0  0  0  0  0
   11.5415   13.4773    3.6353 C   0  0  0  0  0  0
   14.6882   11.2744    1.6774 H   0  0  0  0  0  0
   18.7029   13.8618    5.7545 H   0  0  0  0  0  0
   20.0165   18.4431    4.4463 H   0  0  0  0  0  0
   17.7640   17.6320    3.9378 H   0  0  0  0  0  0
   19.1007   13.7635    3.2072 H   0  0  0  0  0  0
   18.9954   12.3034    2.2122 H   0  0  0  0  0  0
   22.0286   14.8362    6.4182 H   0  0  0  0  0  0
   13.3644   15.2330    6.0030 H   0  0  0  0  0  0
   12.7584   15.8072    4.4572 H   0  0  0  0  0  0
   12.9648   12.8079    5.1445 H   0  0  0  0  0  0
   11.6446   14.0310    6.8474 H   0  0  0  0  0  0
   10.1641   15.3237    5.6033 H   0  0  0  0  0  0
    9.2567   13.8568    5.9337 H   0  0  0  0  0  0
    9.8694   14.8328    3.3553 H   0  0  0  0  0  0
    9.3963   13.1668    3.7032 H   0  0  0  0  0  0
   11.9820   14.0328    2.8081 H   0  0  0  0  0  0
   11.5676   12.4328    3.3238 H   0  0  0  0  0  0
  1  2  2  0  0  0
  1  4  1  0  0  0
  2  3  1  0  0  0
  2 25  1  0  0  0
  3  6  2  0  0  0
  4  5  2  0  0  0
  4 16  1  0  0  0
  5  9  1  0  0  0
  5  6  1  0  0  0
  6  7  1  0  0  0
  7  8  1  0  0  0
  7 19  1  0  0  0
  8  9  2  0  0  0
  9 10  1  0  0  0
 10 15  1  0  0  0
 10 11  2  0  0  0
 11 12  1  0  0  0
 11 26  1  0  0  0
 12 13  2  0  0  0
 12 18  1  0  0  0
 13 14  1  0  0  0
 13 17  1  0  0  0
 14 15  2  0  0  0
 14 27  1  0  0  0
 15 28  1  0  0  0
 16 29  1  0  0  0
 16 30  1  0  0  0
 18 31  1  0  0  0
 19 20  1  0  0  0
 19 32  1  0  0  0
 19 33  1  0  0  0
 20 21  1  0  0  0
 20 24  1  0  0  0
 20 34  1  0  0  0
 21 22  1  0  0  0
 21 35  1  0  0  0
 22 23  1  0  0  0
 22 36  1  0  0  0
 22 37  1  0  0  0
 23 24  1  0  0  0
 23 38  1  0  0  0
 23 39  1  0  0  0
 24 40  1  0  0  0
 24 41  1  0  0  0
M  END
> <s_m_entry_id>
6122

> <s_m_entry_name>
dock_pv.48

> <s_m_Source_Path>
/home/csk/Desktop/cluster/DUD-E-result/abl1

> <s_m_Source_File>
dock_pv.maegz

> <i_m_Source_File_Index>
48

> <chembl_id>
CHEMBL1241769

> <chembl_pref_name>
None

> <i_lp_mmshare_version>
53161

> <i_f3d_flags>
0

> <r_lp_tautomer_probability>
0.999999999997365

> <s_lp_Force_Field>
OPLS_2005

> <r_lp_Energy>
26.746583

> <b_lp_Chiralities_Consistent>
1

> <s_lp_Variant>
CHEMBL1862_lig493-2

> <s_i_glide_gridfile>
glide-grid_2hzi

> <i_i_glide_lignum>
584

> <i_i_glide_rotatable_bonds>
4

> <r_i_docking_score>
-10.9326447560823

> <r_i_glide_ligand_efficiency>
-0.455526864836764

> <r_i_glide_ligand_efficiency_sa>
-1.31396684875666

> <r_i_glide_ligand_efficiency_ln>
-2.61668355650934

> <r_i_glide_gscore>
-10.9326447560823

> <r_i_glide_lipo>
-3.89820515119905

> <r_i_glide_hbond>
-0.736549875731047

> <r_i_glide_metal>
0

> <r_i_glide_rewards>
-3.47831562467542

> <r_i_glide_evdw>
-36.9983177185059

> <r_i_glide_ecoul>
-8.70087051391602

> <r_i_glide_erotb>
0.335472358535875

> <r_i_glide_esite>
0

> <r_i_glide_emodel>
-62.4062819472851

> <r_i_glide_energy>
-45.6991882324219

> <r_i_glide_einternal>
11.4279594421387

> <i_i_glide_confnum>
43

> <i_i_glide_posenum>
265

> <r_i_glide_eff_state_penalty>
0

> <s_user_duplicate_titles>
CHEMBL1862_lig493

> <s_m_subgroup_title>
dock_pv

> <s_m_subgroupid>
dock_pv

> <b_m_subgroup_collapsed>
0

$$$$
CHEMBL1862_lig544
                    3D
 Schrodinger Suite 2021-1.
 32 35  0  0  1  0            999 V2000
   16.4350   12.0700    2.3937 N   0  0  0  0  0  0
   15.0991   12.2685    2.5049 C   0  0  0  0  0  0
   14.4633   13.2341    3.2027 N   0  0  0  0  0  0
   17.2377   12.9760    2.9971 C   0  0  0  0  0  0
   16.7170   14.0375    3.7449 C   0  0  0  0  0  0
   15.3130   14.0814    3.7879 C   0  0  0  0  0  0
   15.0013   15.1936    4.5148 N   0  0  0  0  0  0
   16.1026   15.7897    5.0192 N   0  0  0  0  0  0
   17.1510   15.1660    4.5260 C   0  0  0  0  0  0
   18.5379   15.6220    4.8385 C   0  0  0  0  0  0
   19.0076   16.8467    4.3468 C   0  0  0  0  0  0
   20.6350   15.2047    6.0116 C   0  0  0  0  0  0
   19.3463   14.8215    5.6448 C   0  0  0  0  0  0
   18.5931   12.8330    2.8046 N   0  0  0  0  0  0
   13.6836   15.6850    4.8028 C   0  0  0  0  0  0
   21.1316   16.4315    5.5536 C   0  0  0  0  0  0
   20.3037   17.2337    4.7118 C   0  0  0  0  0  0
   21.0423   18.3574    4.4009 N   0  0  0  0  0  0
   22.2651   18.3169    5.0224 C   0  0  0  0  0  0
   22.3596   17.1445    5.7415 C   0  0  0  0  0  0
   14.4559   11.6350    1.9227 H   0  0  0  0  0  0
   18.3887   17.4630    3.7134 H   0  0  0  0  0  0
   21.2408   14.5663    6.6381 H   0  0  0  0  0  0
   18.9643   13.8803    6.0029 H   0  0  0  0  0  0
   19.2177   13.5300    3.1850 H   0  0  0  0  0  0
   18.9365   12.1000    2.1850 H   0  0  0  0  0  0
   12.9945   15.3613    4.0228 H   0  0  0  0  0  0
   13.3640   15.2354    5.7401 H   0  0  0  0  0  0
   13.7116   16.7741    4.8030 H   0  0  0  0  0  0
   20.7617   19.1264    3.8128 H   0  0  0  0  0  0
   22.9645   19.1342    4.9033 H   0  0  0  0  0  0
   23.2111   16.8424    6.3338 H   0  0  0  0  0  0
  1  4  1  0  0  0
  1  2  2  0  0  0
  2  3  1  0  0  0
  2 21  1  0  0  0
  3  6  2  0  0  0
  4 14  1  0  0  0
  4  5  2  0  0  0
  5  6  1  0  0  0
  5  9  1  0  0  0
  6  7  1  0  0  0
  7 15  1  0  0  0
  7  8  1  0  0  0
  8  9  2  0  0  0
  9 10  1  0  0  0
 10 11  2  0  0  0
 10 13  1  0  0  0
 11 17  1  0  0  0
 11 22  1  0  0  0
 12 16  1  0  0  0
 12 13  2  0  0  0
 12 23  1  0  0  0
 13 24  1  0  0  0
 14 25  1  0  0  0
 14 26  1  0  0  0
 15 27  1  0  0  0
 15 28  1  0  0  0
 15 29  1  0  0  0
 16 17  2  0  0  0
 16 20  1  0  0  0
 17 18  1  0  0  0
 18 19  1  0  0  0
 18 30  1  0  0  0
 19 20  2  0  0  0
 19 31  1  0  0  0
 20 32  1  0  0  0
M  END
> <s_m_entry_id>
6123

> <s_m_entry_name>
dock_pv.49

> <s_m_Source_Path>
/home/csk/Desktop/cluster/DUD-E-result/abl1

> <s_m_Source_File>
dock_pv.maegz

> <i_m_Source_File_Index>
49

> <chembl_id>
CHEMBL1240566

> <chembl_pref_name>
None

> <i_lp_mmshare_version>
53161

> <i_f3d_flags>
0

> <r_lp_tautomer_probability>
1

> <s_lp_Force_Field>
OPLS_2005

> <r_lp_Energy>
5.591206

> <b_lp_Chiralities_Consistent>
1

> <s_lp_Variant>
CHEMBL1862_lig544-1

> <s_i_glide_gridfile>
glide-grid_2hzi

> <i_i_glide_lignum>
647

> <i_i_glide_rotatable_bonds>
1

> <r_i_docking_score>
-10.9273090539302

> <r_i_glide_ligand_efficiency>
-0.546365452696508

> <r_i_glide_ligand_efficiency_sa>
-1.4830640084173

> <r_i_glide_ligand_efficiency_ln>
-2.73474504942517

> <r_i_glide_gscore>
-10.9273090539302

> <r_i_glide_lipo>
-3.33723270190694

> <r_i_glide_hbond>
-0.608

> <r_i_glide_metal>
0

> <r_i_glide_rewards>
-4.39166073254901

> <r_i_glide_evdw>
-35.913257598877

> <r_i_glide_ecoul>
-6.48591899871826

> <r_i_glide_erotb>
0.17813511027739

> <r_i_glide_esite>
0

> <r_i_glide_emodel>
-64.8144394408526

> <r_i_glide_energy>
-42.3991765975952

> <r_i_glide_einternal>
3.17102742195129

> <i_i_glide_confnum>
2

> <i_i_glide_posenum>
134

> <r_i_glide_eff_state_penalty>
0

> <s_user_duplicate_titles>
CHEMBL1862_lig544

> <s_m_subgroup_title>
dock_pv

> <s_m_subgroupid>
dock_pv

> <b_m_subgroup_collapsed>
0

$$$$
CHEMBL1862_lig522
                    3D
 Schrodinger Suite 2021-1.
 38 41  0  0  1  0            999 V2000
   16.7981   12.0481    2.4027 N   0  0  0  0  0  0
   15.4575   12.2309    2.4312 C   0  0  0  0  0  0
   14.7762   13.1890    3.0868 N   0  0  0  0  0  0
   17.5541   12.9948    2.9999 C   0  0  0  0  0  0
   16.9776   14.0325    3.7402 C   0  0  0  0  0  0
   15.5698   14.0330    3.7500 C   0  0  0  0  0  0
   15.2070   15.0474    4.5973 N   0  0  0  0  0  0
   16.2951   15.7093    5.0617 N   0  0  0  0  0  0
   17.3629   15.1476    4.5489 C   0  0  0  0  0  0
   18.7281   15.6141    4.8986 C   0  0  0  0  0  0
   19.2238   16.8239    4.4084 C   0  0  0  0  0  0
   20.7868   15.2299    6.1284 C   0  0  0  0  0  0
   19.5074   14.8330    5.7503 C   0  0  0  0  0  0
   18.9134   12.9073    2.8030 N   0  0  0  0  0  0
   21.3169   16.4448    5.6436 C   0  0  0  0  0  0
   20.5256   17.2522    4.7678 C   0  0  0  0  0  0
   21.0092   18.4326    4.2890 N   0  0  0  0  0  0
   22.2457   18.8137    4.6954 C   0  0  0  0  0  0
   23.0088   18.0332    5.5588 C   0  0  0  0  0  0
   22.5635   16.8414    6.0282 N   0  0  0  0  0  0
   13.8823   15.5052    4.9808 C   0  0  0  0  0  0
   12.7441   14.4819    4.7626 C   0  0  0  0  0  0
   13.6012   16.8294    4.2679 C   0  0  0  0  0  0
   14.8519   11.5873    1.8199 H   0  0  0  0  0  0
   18.6242   17.4384    3.7523 H   0  0  0  0  0  0
   21.3749   14.6155    6.7915 H   0  0  0  0  0  0
   19.1120   13.9053    6.1298 H   0  0  0  0  0  0
   19.5170   13.6495    3.1290 H   0  0  0  0  0  0
   19.2553   12.1789    2.1744 H   0  0  0  0  0  0
   22.6160   19.7578    4.3252 H   0  0  0  0  0  0
   23.9867   18.3565    5.8862 H   0  0  0  0  0  0
   13.9727   15.6330    6.0469 H   0  0  0  0  0  0
   11.8119   14.8330    5.2028 H   0  0  0  0  0  0
   12.5385   14.3182    3.7045 H   0  0  0  0  0  0
   12.9729   13.5184    5.2189 H   0  0  0  0  0  0
   12.5639   17.1319    4.4029 H   0  0  0  0  0  0
   14.2405   17.6334    4.6294 H   0  0  0  0  0  0
   13.7717   16.7221    3.2030 H   0  0  0  0  0  0
  1  2  2  0  0  0
  1  4  1  0  0  0
  2  3  1  0  0  0
  2 24  1  0  0  0
  3  6  2  0  0  0
  4 14  1  0  0  0
  4  5  2  0  0  0
  5  9  1  0  0  0
  5  6  1  0  0  0
  6  7  1  0  0  0
  7  8  1  0  0  0
  7 21  1  0  0  0
  8  9  2  0  0  0
  9 10  1  0  0  0
 10 13  1  0  0  0
 10 11  2  0  0  0
 11 16  1  0  0  0
 11 25  1  0  0  0
 12 15  1  0  0  0
 12 13  2  0  0  0
 12 26  1  0  0  0
 13 27  1  0  0  0
 14 28  1  0  0  0
 14 29  1  0  0  0
 15 16  1  0  0  0
 15 20  2  0  0  0
 16 17  2  0  0  0
 17 18  1  0  0  0
 18 19  2  0  0  0
 18 30  1  0  0  0
 19 20  1  0  0  0
 19 31  1  0  0  0
 21 22  1  0  0  0
 21 23  1  0  0  0
 21 32  1  0  0  0
 22 33  1  0  0  0
 22 34  1  0  0  0
 22 35  1  0  0  0
 23 36  1  0  0  0
 23 37  1  0  0  0
 23 38  1  0  0  0
M  END
> <s_m_entry_id>
6124

> <s_m_entry_name>
dock_pv.50

> <s_m_Source_Path>
/home/csk/Desktop/cluster/DUD-E-result/abl1

> <s_m_Source_File>
dock_pv.maegz

> <i_m_Source_File_Index>
50

> <chembl_id>
CHEMBL1241774

> <chembl_pref_name>
None

> <i_lp_mmshare_version>
53161

> <i_f3d_flags>
0

> <r_lp_tautomer_probability>
1

> <s_lp_Force_Field>
OPLS_2005

> <r_lp_Energy>
21.761883

> <b_lp_Chiralities_Consistent>
1

> <s_lp_Variant>
CHEMBL1862_lig522-1

> <s_i_glide_gridfile>
glide-grid_2hzi

> <i_i_glide_lignum>
619

> <i_i_glide_rotatable_bonds>
2

> <r_i_docking_score>
-10.9239066610253

> <r_i_glide_ligand_efficiency>
-0.474952463522841

> <r_i_glide_ligand_efficiency_sa>
-1.35070162660006

> <r_i_glide_ligand_efficiency_ln>
-2.64149968314512

> <r_i_glide_gscore>
-10.9239066610253

> <r_i_glide_lipo>
-3.79178122459065

> <r_i_glide_hbond>
-0.62312527694435

> <r_i_glide_metal>
0

> <r_i_glide_rewards>
-4.04622044672348

> <r_i_glide_evdw>
-34.7138404846191

> <r_i_glide_ecoul>
-6.16696166992188

> <r_i_glide_erotb>
0.197956561952387

> <r_i_glide_esite>
0

> <r_i_glide_emodel>
-52.8152017231796

> <r_i_glide_energy>
-40.880802154541

> <r_i_glide_einternal>
7.55186748504639

> <i_i_glide_confnum>
1

> <i_i_glide_posenum>
127

> <r_i_glide_eff_state_penalty>
0

> <s_user_duplicate_titles>
CHEMBL1862_lig522

> <s_m_subgroup_title>
dock_pv

> <s_m_subgroupid>
dock_pv

> <b_m_subgroup_collapsed>
0

$$$$
CHEMBL1862_lig732
                    3D
 Schrodinger Suite 2021-1.
 42 44  0  0  1  0            999 V2000
   18.4308   15.7207    4.6801 C   0  0  0  0  0  0
   17.3652   16.2885    5.3871 C   0  0  0  0  0  0
   16.0602   15.8131    5.2592 C   0  0  0  0  0  0
   18.2213   14.6316    3.8293 C   0  0  0  0  0  0
   16.9178   14.1328    3.7067 C   0  0  0  0  0  0
   15.8323   14.7298    4.4030 C   0  0  0  0  0  0
   14.6198   14.1640    4.1776 N   0  0  0  0  0  0
   14.7180   13.1466    3.3618 C   0  0  0  0  0  0
   16.3220   12.7510    2.8028 S   0  0  0  0  0  0
   13.6908   12.3372    2.9080 N   0  0  0  0  0  0
   12.3732   12.5800    3.0241 C   0  0  0  0  0  0
   11.6512   11.6329    2.4025 N   0  0  0  0  0  0
   11.8728   13.5474    3.6031 O   0  0  0  0  0  0
   10.1951   11.6504    2.2454 C   0  0  0  0  0  0
    9.7668   11.4818    0.7868 C   0  0  0  0  0  0
   19.7823   16.3015    4.8282 C   0  0  0  0  0  0
   20.2421   17.2868    3.9405 C   0  0  0  0  0  0
   21.4600   17.9316    4.1947 C   0  0  0  0  0  0
   22.2356   17.5584    5.2888 C   0  0  0  0  0  0
   21.8293   16.5091    6.1078 C   0  0  0  0  0  0
   20.6012   15.8909    5.8850 C   0  0  0  0  0  0
   23.4025   18.2528    5.5812 N   0  0  0  0  0  0
   19.4563   17.6328    2.8631 O   0  0  0  0  0  0
   20.1068   17.6308    1.5973 C   0  0  0  0  0  0
   17.5523   17.1300    6.0400 H   0  0  0  0  0  0
   15.2473   16.2691    5.8050 H   0  0  0  0  0  0
   19.0452   14.1876    3.2865 H   0  0  0  0  0  0
   13.9610   11.5082    2.3984 H   0  0  0  0  0  0
   12.1142   10.7720    2.1414 H   0  0  0  0  0  0
    9.7457   12.5608    2.6478 H   0  0  0  0  0  0
    9.7774   10.8338    2.8291 H   0  0  0  0  0  0
    8.6805   11.5054    0.6991 H   0  0  0  0  0  0
   10.0989   10.5185    0.3974 H   0  0  0  0  0  0
   10.1637   12.2777    0.1557 H   0  0  0  0  0  0
   21.7931   18.7343    3.5545 H   0  0  0  0  0  0
   22.4428   16.1970    6.9396 H   0  0  0  0  0  0
   20.2701   15.1105    6.5547 H   0  0  0  0  0  0
   23.9185   17.9739    6.4031 H   0  0  0  0  0  0
   23.4918   19.1991    5.2384 H   0  0  0  0  0  0
   19.3732   17.8107    0.8128 H   0  0  0  0  0  0
   20.8733   18.4019    1.5215 H   0  0  0  0  0  0
   20.5638   16.6625    1.3898 H   0  0  0  0  0  0
  1  2  2  0  0  0
  1  4  1  0  0  0
  1 16  1  0  0  0
  2  3  1  0  0  0
  2 25  1  0  0  0
  3  6  2  0  0  0
  3 26  1  0  0  0
  4  5  2  0  0  0
  4 27  1  0  0  0
  5  6  1  0  0  0
  5  9  1  0  0  0
  6  7  1  0  0  0
  7  8  2  0  0  0
  8  9  1  0  0  0
  8 10  1  0  0  0
 10 11  1  0  0  0
 10 28  1  0  0  0
 11 12  1  0  0  0
 11 13  2  0  0  0
 12 14  1  0  0  0
 12 29  1  0  0  0
 14 15  1  0  0  0
 14 30  1  0  0  0
 14 31  1  0  0  0
 15 32  1  0  0  0
 15 33  1  0  0  0
 15 34  1  0  0  0
 16 17  2  0  0  0
 16 21  1  0  0  0
 17 18  1  0  0  0
 17 23  1  0  0  0
 18 19  2  0  0  0
 18 35  1  0  0  0
 19 20  1  0  0  0
 19 22  1  0  0  0
 20 21  2  0  0  0
 20 36  1  0  0  0
 21 37  1  0  0  0
 22 38  1  0  0  0
 22 39  1  0  0  0
 23 24  1  0  0  0
 24 40  1  0  0  0
 24 41  1  0  0  0
 24 42  1  0  0  0
M  END
> <s_m_entry_id>
6125

> <s_m_entry_name>
dock_pv.51

> <s_m_Source_Path>
/home/csk/Desktop/cluster/DUD-E-result/abl1

> <s_m_Source_File>
dock_pv.maegz

> <i_m_Source_File_Index>
51

> <chembl_id>
CHEMBL2347719

> <chembl_pref_name>
None

> <i_lp_mmshare_version>
53161

> <i_f3d_flags>
0

> <r_lp_tautomer_probability>
1

> <s_lp_Force_Field>
OPLS_2005

> <r_lp_Energy>
17.111141

> <b_lp_Chiralities_Consistent>
1

> <s_lp_Variant>
CHEMBL1862_lig732-1

> <s_i_glide_gridfile>
glide-grid_2hzi

> <i_i_glide_lignum>
865

> <i_i_glide_rotatable_bonds>
6

> <r_i_docking_score>
-10.9129373669786

> <r_i_glide_ligand_efficiency>
-0.45470572362411

> <r_i_glide_ligand_efficiency_sa>
-1.31159826763694

> <r_i_glide_ligand_efficiency_ln>
-2.61196667398367

> <r_i_glide_gscore>
-10.9129373669786

> <r_i_glide_lipo>
-4.64698543249106

> <r_i_glide_hbond>
-0.551708930475356

> <r_i_glide_metal>
0

> <r_i_glide_rewards>
-2.67077029833012

> <r_i_glide_evdw>
-52.736198425293

> <r_i_glide_ecoul>
-7.02378273010254

> <r_i_glide_erotb>
0.646904625097919

> <r_i_glide_esite>
0

> <r_i_glide_emodel>
-91.0372665263915

> <r_i_glide_energy>
-59.7599811553955

> <r_i_glide_einternal>
6.86238145828247

> <i_i_glide_confnum>
3

> <i_i_glide_posenum>
126

> <r_i_glide_eff_state_penalty>
0

> <s_user_duplicate_titles>
CHEMBL1862_lig732

> <s_m_subgroup_title>
dock_pv

> <s_m_subgroupid>
dock_pv

> <b_m_subgroup_collapsed>
0

$$$$
CHEMBL1862_lig830
                    3D
 Schrodinger Suite 2021-1.
 40 43  0  0  1  0            999 V2000
   15.6320   14.4523    4.0108 C   0  0  0  0  0  0
   16.8990   14.0028    3.6027 C   0  0  0  0  0  0
   16.9848   12.8521    2.8121 C   0  0  0  0  0  0
   15.9233   12.1128    2.4030 N   0  0  0  0  0  0
   14.5050   13.7234    3.6030 C   0  0  0  0  0  0
   14.7373   12.5743    2.8012 C   0  0  0  0  0  0
   13.5145   12.0330    2.4987 N   0  0  0  0  0  0
   12.5095   12.7892    3.0548 C   0  0  0  0  0  0
   13.0832   13.8273    3.7768 C   0  0  0  0  0  0
   11.1056   12.4330    2.8030 C   0  0  0  0  0  0
   18.0934   14.6391    3.9623 N   0  0  0  0  0  0
   18.0809   15.7855    4.8562 C   0  0  0  0  0  0
   10.9640   11.3793    1.9623 O   0  0  0  0  0  0
   19.5039   16.2009    5.1592 C   0  0  0  0  0  0
   20.2715   15.4449    6.0476 C   0  0  0  0  0  0
   21.5673   15.8160    6.4030 C   0  0  0  0  0  0
   20.0257   17.3472    4.5577 C   0  0  0  0  0  0
    9.6679   10.9719    1.5490 C   0  0  0  0  0  0
   10.1722   13.0676    3.3014 O   0  0  0  0  0  0
   21.3257   17.7510    4.8836 C   0  0  0  0  0  0
   22.0714   16.9834    5.8269 C   0  0  0  0  0  0
   23.2736   17.6330    6.0030 N   0  0  0  0  0  0
   23.3279   18.7440    5.2030 C   0  0  0  0  0  0
   22.1640   18.8330    4.4735 C   0  0  0  0  0  0
   15.5119   15.3319    4.6233 H   0  0  0  0  0  0
   17.9502   12.4836    2.4927 H   0  0  0  0  0  0
   13.3416   11.1605    2.0030 H   0  0  0  0  0  0
   12.5362   14.5778    4.3286 H   0  0  0  0  0  0
   18.8451   14.6263    3.2850 H   0  0  0  0  0  0
   17.5293   16.6103    4.4030 H   0  0  0  0  0  0
   17.5659   15.5358    5.7855 H   0  0  0  0  0  0
   19.8457   14.5513    6.4825 H   0  0  0  0  0  0
   22.1512   15.2330    7.0971 H   0  0  0  0  0  0
   19.4379   17.9196    3.8558 H   0  0  0  0  0  0
    9.7257   10.0330    1.0020 H   0  0  0  0  0  0
    9.2232   11.7197    0.8913 H   0  0  0  0  0  0
    9.0034   10.8330    2.4030 H   0  0  0  0  0  0
   24.0353   17.3560    6.6080 H   0  0  0  0  0  0
   24.2012   19.3804    5.2106 H   0  0  0  0  0  0
   21.9414   19.6093    3.7572 H   0  0  0  0  0  0
  1  5  1  0  0  0
  1  2  2  0  0  0
  1 25  1  0  0  0
  2  3  1  0  0  0
  2 11  1  0  0  0
  3  4  2  0  0  0
  3 26  1  0  0  0
  4  6  1  0  0  0
  5  6  2  0  0  0
  5  9  1  0  0  0
  6  7  1  0  0  0
  7  8  1  0  0  0
  7 27  1  0  0  0
  8  9  2  0  0  0
  8 10  1  0  0  0
  9 28  1  0  0  0
 10 13  1  0  0  0
 10 19  2  0  0  0
 11 12  1  0  0  0
 11 29  1  0  0  0
 12 14  1  0  0  0
 12 30  1  0  0  0
 12 31  1  0  0  0
 13 18  1  0  0  0
 14 15  2  0  0  0
 14 17  1  0  0  0
 15 16  1  0  0  0
 15 32  1  0  0  0
 16 21  2  0  0  0
 16 33  1  0  0  0
 17 20  2  0  0  0
 17 34  1  0  0  0
 18 35  1  0  0  0
 18 36  1  0  0  0
 18 37  1  0  0  0
 20 21  1  0  0  0
 20 24  1  0  0  0
 21 22  1  0  0  0
 22 23  1  0  0  0
 22 38  1  0  0  0
 23 24  2  0  0  0
 23 39  1  0  0  0
 24 40  1  0  0  0
M  END
> <s_m_entry_id>
6126

> <s_m_entry_name>
dock_pv.52

> <s_m_Source_Path>
/home/csk/Desktop/cluster/DUD-E-result/abl1

> <s_m_Source_File>
dock_pv.maegz

> <i_m_Source_File_Index>
52

> <chembl_id>
CHEMBL3347419

> <chembl_pref_name>
None

> <i_lp_mmshare_version>
53161

> <i_f3d_flags>
0

> <r_lp_tautomer_probability>
1

> <s_lp_Force_Field>
OPLS_2005

> <r_lp_Energy>
10.0901

> <b_lp_Chiralities_Consistent>
1

> <s_lp_Variant>
CHEMBL1862_lig830-1

> <s_i_glide_gridfile>
glide-grid_2hzi

> <i_i_glide_lignum>
968

> <i_i_glide_rotatable_bonds>
5

> <r_i_docking_score>
-10.8984431195257

> <r_i_glide_ligand_efficiency>
-0.454101796646903

> <r_i_glide_ligand_efficiency_sa>
-1.30985624079204

> <r_i_glide_ligand_efficiency_ln>
-2.60849753547049

> <r_i_glide_gscore>
-10.8984431195257

> <r_i_glide_lipo>
-4.33863533708047

> <r_i_glide_hbond>
-0.565231231273591

> <r_i_glide_metal>
0

> <r_i_glide_rewards>
-3.06838575789237

> <r_i_glide_evdw>
-45.2629661560059

> <r_i_glide_ecoul>
-7.69840860366821

> <r_i_glide_erotb>
0.509447818248869

> <r_i_glide_esite>
-0.0177290131775966

> <r_i_glide_emodel>
-84.0367923025093

> <r_i_glide_energy>
-52.9613747596741

> <r_i_glide_einternal>
3.31884717941284

> <i_i_glide_confnum>
4

> <i_i_glide_posenum>
255

> <r_i_glide_eff_state_penalty>
0

> <s_user_duplicate_titles>
CHEMBL1862_lig830

> <s_m_subgroup_title>
dock_pv

> <s_m_subgroupid>
dock_pv

> <b_m_subgroup_collapsed>
0

$$$$
CHEMBL1862_lig533
                    3D
 Schrodinger Suite 2021-1.
 37 40  0  0  1  0            999 V2000
   16.7143   12.0536    2.3335 N   0  0  0  0  0  0
   15.3770   12.2538    2.3884 C   0  0  0  0  0  0
   14.7229   13.2106    3.0706 N   0  0  0  0  0  0
   17.4937   12.9618    2.9616 C   0  0  0  0  0  0
   16.9456   13.9993    3.7192 C   0  0  0  0  0  0
   15.5394   14.0281    3.7382 C   0  0  0  0  0  0
   15.2036   15.0338    4.6044 N   0  0  0  0  0  0
   16.3085   15.6650    5.0750 N   0  0  0  0  0  0
   17.3627   15.0869    4.5509 C   0  0  0  0  0  0
   18.7414   15.5163    4.9088 C   0  0  0  0  0  0
   19.3494   16.6098    4.2802 C   0  0  0  0  0  0
   20.6781   15.1766    6.3691 N   0  0  0  0  0  0
   19.4312   14.8562    5.9315 C   0  0  0  0  0  0
   18.8533   12.8330    2.8030 N   0  0  0  0  0  0
   13.8881   15.5109    4.9945 C   0  0  0  0  0  0
   12.7345   14.5032    4.7787 C   0  0  0  0  0  0
   13.6215   16.8330    4.2694 C   0  0  0  0  0  0
   21.2331   16.2208    5.7472 C   0  0  0  0  0  0
   20.6368   16.9886    4.7044 C   0  0  0  0  0  0
   21.5827   18.0111    4.3562 C   0  0  0  0  0  0
   22.6804   17.8450    5.1818 C   0  0  0  0  0  0
   22.4742   16.7623    6.0030 N   0  0  0  0  0  0
   14.7489   11.6330    1.7736 H   0  0  0  0  0  0
   18.8403   17.1522    3.4973 H   0  0  0  0  0  0
   18.9640   14.0330    6.4459 H   0  0  0  0  0  0
   19.4663   13.5403    3.1835 H   0  0  0  0  0  0
   19.1970   12.1141    2.1641 H   0  0  0  0  0  0
   13.9888   15.6330    6.0612 H   0  0  0  0  0  0
   11.8019   14.8702    5.2030 H   0  0  0  0  0  0
   12.5297   14.3350    3.7214 H   0  0  0  0  0  0
   12.9471   13.5402    5.2439 H   0  0  0  0  0  0
   12.5892   17.1523    4.4029 H   0  0  0  0  0  0
   14.2742   17.6330    4.6174 H   0  0  0  0  0  0
   13.7766   16.7112    3.2031 H   0  0  0  0  0  0
   21.4860   18.7785    3.6035 H   0  0  0  0  0  0
   23.6043   18.4039    5.2512 H   0  0  0  0  0  0
   23.1563   16.4455    6.6788 H   0  0  0  0  0  0
  1  2  2  0  0  0
  1  4  1  0  0  0
  2  3  1  0  0  0
  2 23  1  0  0  0
  3  6  2  0  0  0
  4 14  1  0  0  0
  4  5  2  0  0  0
  5  9  1  0  0  0
  5  6  1  0  0  0
  6  7  1  0  0  0
  7 15  1  0  0  0
  7  8  1  0  0  0
  8  9  2  0  0  0
  9 10  1  0  0  0
 10 11  2  0  0  0
 10 13  1  0  0  0
 11 19  1  0  0  0
 11 24  1  0  0  0
 12 18  1  0  0  0
 12 13  2  0  0  0
 13 25  1  0  0  0
 14 26  1  0  0  0
 14 27  1  0  0  0
 15 16  1  0  0  0
 15 17  1  0  0  0
 15 28  1  0  0  0
 16 29  1  0  0  0
 16 30  1  0  0  0
 16 31  1  0  0  0
 17 32  1  0  0  0
 17 33  1  0  0  0
 17 34  1  0  0  0
 18 19  2  0  0  0
 18 22  1  0  0  0
 19 20  1  0  0  0
 20 21  2  0  0  0
 20 35  1  0  0  0
 21 22  1  0  0  0
 21 36  1  0  0  0
 22 37  1  0  0  0
M  END
> <s_m_entry_id>
6127

> <s_m_entry_name>
dock_pv.53

> <s_m_Source_Path>
/home/csk/Desktop/cluster/DUD-E-result/abl1

> <s_m_Source_File>
dock_pv.maegz

> <i_m_Source_File_Index>
53

> <chembl_id>
CHEMBL1242293

> <chembl_pref_name>
None

> <i_lp_mmshare_version>
53161

> <i_f3d_flags>
0

> <r_lp_tautomer_probability>
0.999998432528457

> <s_lp_Force_Field>
OPLS_2005

> <r_lp_Energy>
15.54925

> <b_lp_Chiralities_Consistent>
1

> <s_lp_Variant>
CHEMBL1862_lig533-1

> <s_i_glide_gridfile>
glide-grid_2hzi

> <i_i_glide_lignum>
631

> <i_i_glide_rotatable_bonds>
2

> <r_i_docking_score>
-10.8894551487421

> <r_i_glide_ligand_efficiency>
-0.49497523403373

> <r_i_glide_ligand_efficiency_sa>
-1.38694007203384

> <r_i_glide_ligand_efficiency_ln>
-2.66178004088004

> <r_i_glide_gscore>
-10.8894551487421

> <r_i_glide_lipo>
-3.11322135822891

> <r_i_glide_hbond>
-0.609783173363281

> <r_i_glide_metal>
0

> <r_i_glide_rewards>
-4.48027392377999

> <r_i_glide_evdw>
-32.7871856689453

> <r_i_glide_ecoul>
-8.39447975158691

> <r_i_glide_erotb>
0.212354552815411

> <r_i_glide_esite>
0

> <r_i_glide_emodel>
-51.5133179646019

> <r_i_glide_energy>
-41.1816654205322

> <r_i_glide_einternal>
7.14524221420288

> <i_i_glide_confnum>
4

> <i_i_glide_posenum>
160

> <r_i_glide_eff_state_penalty>
0

> <s_user_duplicate_titles>
CHEMBL1862_lig533

> <s_m_subgroup_title>
dock_pv

> <s_m_subgroupid>
dock_pv

> <b_m_subgroup_collapsed>
0

$$$$
CHEMBL1862_lig545
                    3D
 Schrodinger Suite 2021-1.
 38 41  0  0  1  0            999 V2000
   16.6193   12.0588    2.2730 N   0  0  0  0  0  0
   15.2803   12.2464    2.3368 C   0  0  0  0  0  0
   14.6184   13.1812    3.0432 N   0  0  0  0  0  0
   17.3921   12.9588    2.9220 C   0  0  0  0  0  0
   16.8376   13.9893    3.6790 C   0  0  0  0  0  0
   15.4320   14.0019    3.7101 C   0  0  0  0  0  0
   15.0965   15.0041    4.5800 N   0  0  0  0  0  0
   16.1987   15.6449    5.0391 N   0  0  0  0  0  0
   17.2522   15.0884    4.4957 C   0  0  0  0  0  0
   18.6276   15.5619    4.8133 C   0  0  0  0  0  0
   19.1262   16.7361    4.2372 C   0  0  0  0  0  0
   20.6657   15.2330    6.1052 C   0  0  0  0  0  0
   19.3851   14.8330    5.7285 C   0  0  0  0  0  0
   18.7553   12.8330    2.8030 N   0  0  0  0  0  0
   13.7861   15.4952    4.9597 C   0  0  0  0  0  0
   12.6223   14.4998    4.7472 C   0  0  0  0  0  0
   13.5570   16.8330    4.2630 C   0  0  0  0  0  0
   21.1912   16.4147    5.5692 C   0  0  0  0  0  0
   20.4073   17.1481    4.6279 C   0  0  0  0  0  0
   21.1638   18.2428    4.2610 N   0  0  0  0  0  0
   22.3529   18.2544    4.9468 C   0  0  0  0  0  0
   22.4146   17.1375    5.7521 C   0  0  0  0  0  0
   14.6549   11.6330    1.7125 H   0  0  0  0  0  0
   18.5414   17.3026    3.5294 H   0  0  0  0  0  0
   21.2406   14.6463    6.8030 H   0  0  0  0  0  0
   18.9650   13.9415    6.1621 H   0  0  0  0  0  0
   19.3549   13.5407    3.2031 H   0  0  0  0  0  0
   19.1182   12.1204    2.1694 H   0  0  0  0  0  0
   13.8756   15.6330    6.0195 H   0  0  0  0  0  0
   11.7025   14.8641    5.2030 H   0  0  0  0  0  0
   12.4026   14.3465    3.6905 H   0  0  0  0  0  0
   12.8381   13.5295    5.1963 H   0  0  0  0  0  0
   12.5283   17.1634    4.4000 H   0  0  0  0  0  0
   14.2125   17.6115    4.6525 H   0  0  0  0  0  0
   13.7640   16.7438    3.2030 H   0  0  0  0  0  0
   20.9121   18.9649    3.6028 H   0  0  0  0  0  0
   23.0560   19.0641    4.8030 H   0  0  0  0  0  0
   23.2381   16.8813    6.4029 H   0  0  0  0  0  0
  1  2  2  0  0  0
  1  4  1  0  0  0
  2  3  1  0  0  0
  2 23  1  0  0  0
  3  6  2  0  0  0
  4 14  1  0  0  0
  4  5  2  0  0  0
  5  9  1  0  0  0
  5  6  1  0  0  0
  6  7  1  0  0  0
  7 15  1  0  0  0
  7  8  1  0  0  0
  8  9  2  0  0  0
  9 10  1  0  0  0
 10 11  2  0  0  0
 10 13  1  0  0  0
 11 19  1  0  0  0
 11 24  1  0  0  0
 12 18  1  0  0  0
 12 13  2  0  0  0
 12 25  1  0  0  0
 13 26  1  0  0  0
 14 27  1  0  0  0
 14 28  1  0  0  0
 15 16  1  0  0  0
 15 17  1  0  0  0
 15 29  1  0  0  0
 16 30  1  0  0  0
 16 31  1  0  0  0
 16 32  1  0  0  0
 17 33  1  0  0  0
 17 34  1  0  0  0
 17 35  1  0  0  0
 18 19  2  0  0  0
 18 22  1  0  0  0
 19 20  1  0  0  0
 20 21  1  0  0  0
 20 36  1  0  0  0
 21 22  2  0  0  0
 21 37  1  0  0  0
 22 38  1  0  0  0
M  END
> <s_m_entry_id>
6128

> <s_m_entry_name>
dock_pv.54

> <s_m_Source_Path>
/home/csk/Desktop/cluster/DUD-E-result/abl1

> <s_m_Source_File>
dock_pv.maegz

> <i_m_Source_File_Index>
54

> <chembl_id>
CHEMBL1242574

> <chembl_pref_name>
None

> <i_lp_mmshare_version>
53161

> <i_f3d_flags>
0

> <r_lp_tautomer_probability>
1

> <s_lp_Force_Field>
OPLS_2005

> <r_lp_Energy>
10.783243

> <b_lp_Chiralities_Consistent>
1

> <s_lp_Variant>
CHEMBL1862_lig545-1

> <s_i_glide_gridfile>
glide-grid_2hzi

> <i_i_glide_lignum>
648

> <i_i_glide_rotatable_bonds>
2

> <r_i_docking_score>
-10.8831674838434

> <r_i_glide_ligand_efficiency>
-0.494689431083789

> <r_i_glide_ligand_efficiency_sa>
-1.38613924092811

> <r_i_glide_ligand_efficiency_ln>
-2.66024310623064

> <r_i_glide_gscore>
-10.8831674838434

> <r_i_glide_lipo>
-3.74562946600949

> <r_i_glide_hbond>
-0.608

> <r_i_glide_metal>
0

> <r_i_glide_rewards>
-4.1064975492211

> <r_i_glide_evdw>
-31.8697967529297

> <r_i_glide_ecoul>
-6.95439672470093

> <r_i_glide_erotb>
0.213608877738853

> <r_i_glide_esite>
0

> <r_i_glide_emodel>
-48.7698158326465

> <r_i_glide_energy>
-38.8241934776306

> <r_i_glide_einternal>
7.27001667022705

> <i_i_glide_confnum>
4

> <i_i_glide_posenum>
250

> <r_i_glide_eff_state_penalty>
0

> <s_user_duplicate_titles>
CHEMBL1862_lig545

> <s_m_subgroup_title>
dock_pv

> <s_m_subgroupid>
dock_pv

> <b_m_subgroup_collapsed>
0

$$$$
CHEMBL1862_lig841
                    3D
 Schrodinger Suite 2021-1.
 40 42  0  0  1  0            999 V2000
   16.5025   14.7308    4.1352 C   0  0  0  0  0  0
   17.7452   14.1915    3.7691 C   0  0  0  0  0  0
   17.7709   12.9665    3.0952 C   0  0  0  0  0  0
   16.6741   12.2423    2.7488 N   0  0  0  0  0  0
   15.3423   14.0145    3.8053 C   0  0  0  0  0  0
   15.5080   12.7856    3.1061 C   0  0  0  0  0  0
   14.2536   12.2718    2.8660 N   0  0  0  0  0  0
   13.3027   13.1294    3.3807 C   0  0  0  0  0  0
   13.9341   14.1967    4.0005 C   0  0  0  0  0  0
   11.8797   12.8331    3.2030 C   0  0  0  0  0  0
   18.9635   14.8334    4.0380 N   0  0  0  0  0  0
   19.0554   15.8850    5.0449 C   0  0  0  0  0  0
   11.6619   11.7527    2.4058 O   0  0  0  0  0  0
   20.4104   16.5701    4.9846 C   0  0  0  0  0  0
   21.3490   16.3633    6.0027 C   0  0  0  0  0  0
   22.5616   17.0484    5.9907 C   0  0  0  0  0  0
   22.8457   17.9415    4.9604 C   0  0  0  0  0  0
   21.9274   18.1309    3.9269 C   0  0  0  0  0  0
   20.7058   17.4427    3.9284 C   0  0  0  0  0  0
   10.3390   11.3540    2.0798 C   0  0  0  0  0  0
   10.9946   13.5320    3.7034 O   0  0  0  0  0  0
   19.7603   17.6324    2.9428 O   0  0  0  0  0  0
   20.1903   17.4511    1.6009 C   0  0  0  0  0  0
   16.4179   15.6681    4.6623 H   0  0  0  0  0  0
   18.7153   12.5264    2.8051 H   0  0  0  0  0  0
   14.0023   11.4059    2.4015 H   0  0  0  0  0  0
   13.4315   15.0137    4.4984 H   0  0  0  0  0  0
   19.6834   14.8205    3.3231 H   0  0  0  0  0  0
   18.2929   16.6472    4.8830 H   0  0  0  0  0  0
   18.8747   15.4568    6.0325 H   0  0  0  0  0  0
   21.1306   15.6855    6.8148 H   0  0  0  0  0  0
   23.2794   16.8955    6.7848 H   0  0  0  0  0  0
   23.7784   18.4837    4.9658 H   0  0  0  0  0  0
   22.1618   18.8299    3.1375 H   0  0  0  0  0  0
   10.3568   10.4063    1.5425 H   0  0  0  0  0  0
    9.8573   12.0968    1.4448 H   0  0  0  0  0  0
    9.7318   11.2279    2.9765 H   0  0  0  0  0  0
   19.3447   17.6180    0.9349 H   0  0  0  0  0  0
   20.9647   18.1586    1.3116 H   0  0  0  0  0  0
   20.5509   16.4343    1.4338 H   0  0  0  0  0  0
  1  5  1  0  0  0
  1  2  2  0  0  0
  1 24  1  0  0  0
  2  3  1  0  0  0
  2 11  1  0  0  0
  3  4  2  0  0  0
  3 25  1  0  0  0
  4  6  1  0  0  0
  5  6  2  0  0  0
  5  9  1  0  0  0
  6  7  1  0  0  0
  7  8  1  0  0  0
  7 26  1  0  0  0
  8  9  2  0  0  0
  8 10  1  0  0  0
  9 27  1  0  0  0
 10 13  1  0  0  0
 10 21  2  0  0  0
 11 12  1  0  0  0
 11 28  1  0  0  0
 12 14  1  0  0  0
 12 29  1  0  0  0
 12 30  1  0  0  0
 13 20  1  0  0  0
 14 15  2  0  0  0
 14 19  1  0  0  0
 15 16  1  0  0  0
 15 31  1  0  0  0
 16 17  2  0  0  0
 16 32  1  0  0  0
 17 18  1  0  0  0
 17 33  1  0  0  0
 18 19  2  0  0  0
 18 34  1  0  0  0
 19 22  1  0  0  0
 20 35  1  0  0  0
 20 36  1  0  0  0
 20 37  1  0  0  0
 22 23  1  0  0  0
 23 38  1  0  0  0
 23 39  1  0  0  0
 23 40  1  0  0  0
M  END
> <s_m_entry_id>
6129

> <s_m_entry_name>
dock_pv.55

> <s_m_Source_Path>
/home/csk/Desktop/cluster/DUD-E-result/abl1

> <s_m_Source_File>
dock_pv.maegz

> <i_m_Source_File_Index>
55

> <chembl_id>
CHEMBL3347466

> <chembl_pref_name>
None

> <i_lp_mmshare_version>
53161

> <i_f3d_flags>
0

> <r_lp_tautomer_probability>
1

> <s_lp_Force_Field>
OPLS_2005

> <r_lp_Energy>
16.184734

> <b_lp_Chiralities_Consistent>
1

> <s_lp_Variant>
CHEMBL1862_lig841-1

> <s_i_glide_gridfile>
glide-grid_2hzi

> <i_i_glide_lignum>
980

> <i_i_glide_rotatable_bonds>
6

> <r_i_docking_score>
-10.8696828004005

> <r_i_glide_ligand_efficiency>
-0.472594904365241

> <r_i_glide_ligand_efficiency_sa>
-1.34399704196572

> <r_i_glide_ligand_efficiency_ln>
-2.62838786197126

> <r_i_glide_gscore>
-10.8696828004005

> <r_i_glide_lipo>
-4.33101866112892

> <r_i_glide_hbond>
-0.54790626962695

> <r_i_glide_metal>
0

> <r_i_glide_rewards>
-3.08752646180062

> <r_i_glide_evdw>
-49.4963073730469

> <r_i_glide_ecoul>
-6.42726278305054

> <r_i_glide_erotb>
0.535673378265873

> <r_i_glide_esite>
0

> <r_i_glide_emodel>
-87.7283815897413

> <r_i_glide_energy>
-55.9235701560974

> <r_i_glide_einternal>
7.98491668701172

> <i_i_glide_confnum>
5

> <i_i_glide_posenum>
360

> <r_i_glide_eff_state_penalty>
0

> <s_user_duplicate_titles>
CHEMBL1862_lig841

> <s_m_subgroup_title>
dock_pv

> <s_m_subgroupid>
dock_pv

> <b_m_subgroup_collapsed>
0

$$$$
CHEMBL1862_lig523
                    3D
 Schrodinger Suite 2021-1.
 37 40  0  0  1  0            999 V2000
   16.7802   12.0657    2.3436 N   0  0  0  0  0  0
   15.4433   12.2690    2.4052 C   0  0  0  0  0  0
   14.7954   13.2119    3.1158 N   0  0  0  0  0  0
   17.5672   12.9668    2.9725 C   0  0  0  0  0  0
   17.0270   13.9938    3.7497 C   0  0  0  0  0  0
   15.6209   14.0139    3.7935 C   0  0  0  0  0  0
   15.2988   14.9770    4.7128 N   0  0  0  0  0  0
   16.4016   15.6373    5.1396 N   0  0  0  0  0  0
   17.4483   15.0782    4.5826 C   0  0  0  0  0  0
   18.8209   15.5463    4.8971 C   0  0  0  0  0  0
   19.3082   16.7305    4.3414 C   0  0  0  0  0  0
   20.8639   15.2568    6.1865 N   0  0  0  0  0  0
   19.6261   14.8528    5.8040 C   0  0  0  0  0  0
   18.9253   12.8330    2.8030 N   0  0  0  0  0  0
   21.3397   16.4175    5.6594 C   0  0  0  0  0  0
   20.5911   17.1921    4.7198 C   0  0  0  0  0  0
   21.0902   18.3566    4.2198 N   0  0  0  0  0  0
   22.3008   18.7608    4.6776 C   0  0  0  0  0  0
   23.0249   18.0136    5.6030 C   0  0  0  0  0  0
   22.5640   16.8330    6.0893 N   0  0  0  0  0  0
   13.9916   15.4140    5.1620 C   0  0  0  0  0  0
   12.8967   14.3217    5.0861 C   0  0  0  0  0  0
   13.5978   16.6324    4.3122 C   0  0  0  0  0  0
   14.8103   11.6330    1.8097 H   0  0  0  0  0  0
   18.7125   17.3041    3.6453 H   0  0  0  0  0  0
   19.2732   13.9461    6.2666 H   0  0  0  0  0  0
   19.5453   13.5458    3.1610 H   0  0  0  0  0  0
   19.2572   12.1165    2.1538 H   0  0  0  0  0  0
   22.6785   19.6990    4.3010 H   0  0  0  0  0  0
   23.9821   18.3535    5.9708 H   0  0  0  0  0  0
   14.1640   15.6330    6.2141 H   0  0  0  0  0  0
   11.9896   14.6217    5.6030 H   0  0  0  0  0  0
   12.5956   14.1129    4.0594 H   0  0  0  0  0  0
   13.2164   13.3866    5.5350 H   0  0  0  0  0  0
   12.5368   16.8601    4.4030 H   0  0  0  0  0  0
   14.1640   17.5246    4.5752 H   0  0  0  0  0  0
   13.7723   16.4330    3.2546 H   0  0  0  0  0  0
  1  2  2  0  0  0
  1  4  1  0  0  0
  2  3  1  0  0  0
  2 24  1  0  0  0
  3  6  2  0  0  0
  4 14  1  0  0  0
  4  5  2  0  0  0
  5  9  1  0  0  0
  5  6  1  0  0  0
  6  7  1  0  0  0
  7  8  1  0  0  0
  7 21  1  0  0  0
  8  9  2  0  0  0
  9 10  1  0  0  0
 10 13  1  0  0  0
 10 11  2  0  0  0
 11 16  1  0  0  0
 11 25  1  0  0  0
 12 15  1  0  0  0
 12 13  2  0  0  0
 13 26  1  0  0  0
 14 27  1  0  0  0
 14 28  1  0  0  0
 15 16  1  0  0  0
 15 20  2  0  0  0
 16 17  2  0  0  0
 17 18  1  0  0  0
 18 19  2  0  0  0
 18 29  1  0  0  0
 19 20  1  0  0  0
 19 30  1  0  0  0
 21 22  1  0  0  0
 21 23  1  0  0  0
 21 31  1  0  0  0
 22 32  1  0  0  0
 22 33  1  0  0  0
 22 34  1  0  0  0
 23 35  1  0  0  0
 23 36  1  0  0  0
 23 37  1  0  0  0
M  END
> <s_m_entry_id>
6130

> <s_m_entry_name>
dock_pv.56

> <s_m_Source_Path>
/home/csk/Desktop/cluster/DUD-E-result/abl1

> <s_m_Source_File>
dock_pv.maegz

> <i_m_Source_File_Index>
56

> <chembl_id>
CHEMBL1241775

> <chembl_pref_name>
None

> <i_lp_mmshare_version>
53161

> <i_f3d_flags>
0

> <r_lp_tautomer_probability>
1

> <s_lp_Force_Field>
OPLS_2005

> <r_lp_Energy>
24.158266

> <b_lp_Chiralities_Consistent>
1

> <s_lp_Variant>
CHEMBL1862_lig523-1

> <s_i_glide_gridfile>
glide-grid_2hzi

> <i_i_glide_lignum>
620

> <i_i_glide_rotatable_bonds>
2

> <r_i_docking_score>
-10.8589761354957

> <r_i_glide_ligand_efficiency>
-0.472129397195463

> <r_i_glide_ligand_efficiency_sa>
-1.34267320149809

> <r_i_glide_ligand_efficiency_ln>
-2.62579889331459

> <r_i_glide_gscore>
-10.8589761354957

> <r_i_glide_lipo>
-3.13638687498656

> <r_i_glide_hbond>
-0.607249508818366

> <r_i_glide_metal>
0

> <r_i_glide_rewards>
-4.44657970864072

> <r_i_glide_evdw>
-35.1297492980957

> <r_i_glide_ecoul>
-7.39407205581665

> <r_i_glide_erotb>
0.19683823022727

> <r_i_glide_esite>
0

> <r_i_glide_emodel>
-53.2003884798907

> <r_i_glide_energy>
-42.5238213539124

> <r_i_glide_einternal>
6.02584886550903

> <i_i_glide_confnum>
3

> <i_i_glide_posenum>
65

> <r_i_glide_eff_state_penalty>
0

> <s_user_duplicate_titles>
CHEMBL1862_lig523

> <s_m_subgroup_title>
dock_pv

> <s_m_subgroupid>
dock_pv

> <b_m_subgroup_collapsed>
0

$$$$
CHEMBL1862_lig485
                    3D
 Schrodinger Suite 2021-1.
 36 38  0  0  1  0            999 V2000
   16.4980   12.0690    2.2103 N   0  0  0  0  0  0
   15.1575   12.2429    2.2936 C   0  0  0  0  0  0
   14.4927   13.1550    3.0317 N   0  0  0  0  0  0
   17.2656   12.9573    2.8794 C   0  0  0  0  0  0
   16.7084   13.9775    3.6393 C   0  0  0  0  0  0
   15.3070   13.9801    3.6947 C   0  0  0  0  0  0
   14.9863   14.9849    4.5713 N   0  0  0  0  0  0
   16.0948   15.6328    5.0119 N   0  0  0  0  0  0
   17.1330   15.0742    4.4438 C   0  0  0  0  0  0
   18.5152   15.5517    4.6825 C   0  0  0  0  0  0
   19.1310   16.4110    3.7702 C   0  0  0  0  0  0
   20.4169   16.8946    4.0133 C   0  0  0  0  0  0
   21.0977   16.5215    5.1814 C   0  0  0  0  0  0
   20.4901   15.6328    6.0766 C   0  0  0  0  0  0
   19.2025   15.1625    5.8316 C   0  0  0  0  0  0
   18.6313   12.8330    2.8030 N   0  0  0  0  0  0
   13.6862   15.5032    4.9410 C   0  0  0  0  0  0
   12.4995   14.5442    4.6997 C   0  0  0  0  0  0
   13.5136   16.8518    4.2509 C   0  0  0  0  0  0
   22.4418   17.0664    5.4828 C   0  0  0  0  0  0
   22.6779   18.2668    5.6027 O   0  0  0  0  0  0
   20.9829   17.7287    3.1090 F   0  0  0  0  0  0
   21.1225   15.2325    7.2030 F   0  0  0  0  0  0
   14.5391   11.6330    1.6600 H   0  0  0  0  0  0
   18.6114   16.7130    2.8729 H   0  0  0  0  0  0
   18.7400   14.4936    6.5406 H   0  0  0  0  0  0
   19.2214   13.5299    3.2325 H   0  0  0  0  0  0
   19.0129   12.1243    2.1777 H   0  0  0  0  0  0
   13.7659   15.6321    6.0030 H   0  0  0  0  0  0
   11.5873   14.9247    5.1585 H   0  0  0  0  0  0
   12.2874   14.4204    3.6376 H   0  0  0  0  0  0
   12.6847   13.5593    5.1309 H   0  0  0  0  0  0
   12.4950   17.2230    4.3452 H   0  0  0  0  0  0
   14.1787   17.6075    4.6686 H   0  0  0  0  0  0
   13.7640   16.7697    3.2030 H   0  0  0  0  0  0
   23.2233   16.3160    5.6037 H   0  0  0  0  0  0
  1  2  2  0  0  0
  1  4  1  0  0  0
  2  3  1  0  0  0
  2 24  1  0  0  0
  3  6  2  0  0  0
  4  5  2  0  0  0
  4 16  1  0  0  0
  5  9  1  0  0  0
  5  6  1  0  0  0
  6  7  1  0  0  0
  7 17  1  0  0  0
  7  8  1  0  0  0
  8  9  2  0  0  0
  9 10  1  0  0  0
 10 15  1  0  0  0
 10 11  2  0  0  0
 11 12  1  0  0  0
 11 25  1  0  0  0
 12 13  2  0  0  0
 12 22  1  0  0  0
 13 14  1  0  0  0
 13 20  1  0  0  0
 14 15  2  0  0  0
 14 23  1  0  0  0
 15 26  1  0  0  0
 16 27  1  0  0  0
 16 28  1  0  0  0
 17 18  1  0  0  0
 17 19  1  0  0  0
 17 29  1  0  0  0
 18 30  1  0  0  0
 18 31  1  0  0  0
 18 32  1  0  0  0
 19 33  1  0  0  0
 19 34  1  0  0  0
 19 35  1  0  0  0
 20 21  2  0  0  0
 20 36  1  0  0  0
M  END
> <s_m_entry_id>
6131

> <s_m_entry_name>
dock_pv.57

> <s_m_Source_Path>
/home/csk/Desktop/cluster/DUD-E-result/abl1

> <s_m_Source_File>
dock_pv.maegz

> <i_m_Source_File_Index>
57

> <chembl_id>
CHEMBL1241861

> <chembl_pref_name>
None

> <i_lp_mmshare_version>
53161

> <i_f3d_flags>
0

> <r_lp_tautomer_probability>
1

> <s_lp_Force_Field>
OPLS_2005

> <r_lp_Energy>
13.379289

> <b_lp_Chiralities_Consistent>
1

> <s_lp_Variant>
CHEMBL1862_lig485-1

> <s_i_glide_gridfile>
glide-grid_2hzi

> <i_i_glide_lignum>
575

> <i_i_glide_rotatable_bonds>
3

> <r_i_docking_score>
-10.8566337478294

> <r_i_glide_ligand_efficiency>
-0.472027554253454

> <r_i_glide_ligand_efficiency_sa>
-1.34238357371848

> <r_i_glide_ligand_efficiency_ln>
-2.6252324827373

> <r_i_glide_gscore>
-10.8566337478294

> <r_i_glide_lipo>
-2.93846228280709

> <r_i_glide_hbond>
-0.608

> <r_i_glide_metal>
0

> <r_i_glide_rewards>
-4.64516619025038

> <r_i_glide_evdw>
-31.5123882293701

> <r_i_glide_ecoul>
-8.12608814239502

> <r_i_glide_erotb>
0.129527358055791

> <r_i_glide_esite>
0

> <r_i_glide_emodel>
-49.0126748962441

> <r_i_glide_energy>
-39.6384763717651

> <r_i_glide_einternal>
7.05849361419678

> <i_i_glide_confnum>
1

> <i_i_glide_posenum>
333

> <r_i_glide_eff_state_penalty>
0

> <s_user_duplicate_titles>
CHEMBL1862_lig485

> <s_m_subgroup_title>
dock_pv

> <s_m_subgroupid>
dock_pv

> <b_m_subgroup_collapsed>
0

$$$$
CHEMBL1862_lig281
                    3D
 Schrodinger Suite 2021-1.
 45 47  0  0  1  0            999 V2000
   14.9321   15.0291    4.5326 C   0  0  0  0  0  0
   20.1239   15.7134    4.2816 C   0  0  0  0  0  0
   21.0349   15.3653    5.2942 C   0  0  0  0  0  0
   22.0452   16.2512    5.6676 C   0  0  0  0  0  0
   22.1656   17.4825    5.0314 C   0  0  0  0  0  0
   21.2723   17.8370    4.0221 C   0  0  0  0  0  0
   20.2588   16.9544    3.6365 C   0  0  0  0  0  0
   23.6955   18.7898    5.6022 I   0  0  0  0  0  0
   19.4185   17.3075    2.6331 F   0  0  0  0  0  0
   19.1211   14.7991    3.9127 N   0  0  0  0  0  0
   17.7286   14.8157    4.1488 C   0  0  0  0  0  0
   16.8376   13.8717    3.5556 C   0  0  0  0  0  0
   15.4587   14.0307    3.7169 C   0  0  0  0  0  0
   15.8259   15.8575    5.1980 C   0  0  0  0  0  0
   17.1913   15.7796    5.0070 C   0  0  0  0  0  0
   17.9770   16.6609    5.6793 F   0  0  0  0  0  0
   15.3762   16.8143    6.0008 F   0  0  0  0  0  0
   17.2672   12.6860    2.7327 C   0  0  0  0  0  0
   18.5646   12.3484    2.8790 O   0  0  0  0  0  0
   16.4854   12.0335    2.0371 O   0  0  0  0  0  0
   13.4832   15.1927    4.6709 C   0  0  0  0  0  0
   12.6714   14.2186    4.5753 N   0  0  0  0  0  0
   11.3831   14.5676    4.7158 N   0  0  0  0  0  0
   10.3348   13.9544    4.1216 C   0  0  0  0  0  0
   10.5663   12.8374    3.2021 C   0  0  0  0  0  0
    9.2023   14.4261    4.2641 O   0  0  0  0  0  0
    9.5233   12.4249    2.4391 O   0  0  0  0  0  0
    9.9728   11.4746    1.5691 C   0  0  0  0  0  0
   11.3137   11.2481    1.7892 C   0  0  0  0  0  0
   11.7004   12.1112    2.8026 C   0  0  0  0  0  0
    8.9893   10.9284    0.5657 C   0  0  0  0  0  0
    7.8796   10.3918    1.2338 O   0  0  0  0  0  0
   20.9587   14.4156    5.7912 H   0  0  0  0  0  0
   22.7416   15.9768    6.4486 H   0  0  0  0  0  0
   21.3690   18.7957    3.5219 H   0  0  0  0  0  0
   19.4554   14.0006    3.3883 H   0  0  0  0  0  0
   14.7774   13.3480    3.2242 H   0  0  0  0  0  0
   18.8583   11.7265    2.1915 H   0  0  0  0  0  0
   13.1531   16.2187    4.8049 H   0  0  0  0  0  0
   11.2149   15.4322    5.2022 H   0  0  0  0  0  0
   11.9424   10.5509    1.2467 H   0  0  0  0  0  0
   12.7044   12.2023    3.1907 H   0  0  0  0  0  0
    9.4381   10.1756   -0.0797 H   0  0  0  0  0  0
    8.5967   11.7387   -0.0581 H   0  0  0  0  0  0
    8.1988    9.7354    1.8715 H   0  0  0  0  0  0
  1 21  1  0  0  0
  1 13  2  0  0  0
  1 14  1  0  0  0
  2 10  1  0  0  0
  2  7  1  0  0  0
  2  3  2  0  0  0
  3  4  1  0  0  0
  3 33  1  0  0  0
  4  5  2  0  0  0
  4 34  1  0  0  0
  5  8  1  0  0  0
  5  6  1  0  0  0
  6  7  2  0  0  0
  6 35  1  0  0  0
  7  9  1  0  0  0
 10 11  1  0  0  0
 10 36  1  0  0  0
 11 12  2  0  0  0
 11 15  1  0  0  0
 12 18  1  0  0  0
 12 13  1  0  0  0
 13 37  1  0  0  0
 14 17  1  0  0  0
 14 15  2  0  0  0
 15 16  1  0  0  0
 18 19  1  0  0  0
 18 20  2  0  0  0
 19 38  1  0  0  0
 21 22  2  0  0  0
 21 39  1  0  0  0
 22 23  1  0  0  0
 23 24  1  0  0  0
 23 40  1  0  0  0
 24 25  1  0  0  0
 24 26  2  0  0  0
 25 27  1  0  0  0
 25 30  2  0  0  0
 27 28  1  0  0  0
 28 29  2  0  0  0
 28 31  1  0  0  0
 29 30  1  0  0  0
 29 41  1  0  0  0
 30 42  1  0  0  0
 31 32  1  0  0  0
 31 43  1  0  0  0
 31 44  1  0  0  0
 32 45  1  0  0  0
M  END
> <s_m_entry_id>
6132

> <s_m_entry_name>
dock_pv.58

> <s_m_Source_Path>
/home/csk/Desktop/cluster/DUD-E-result/abl1

> <s_m_Source_File>
dock_pv.maegz

> <i_m_Source_File_Index>
58

> <chembl_id>
CHEMBL481968

> <chembl_pref_name>
None

> <i_lp_mmshare_version>
53161

> <i_f3d_flags>
0

> <r_lp_tautomer_probability>
1

> <s_lp_Force_Field>
OPLS_2005

> <r_lp_Energy>
26.133251

> <b_lp_Chiralities_Consistent>
1

> <s_lp_Variant>
CHEMBL1862_lig281-1

> <s_i_glide_gridfile>
glide-grid_2hzi

> <i_i_glide_lignum>
321

> <i_i_glide_rotatable_bonds>
10

> <r_i_docking_score>
-10.8220080580595

> <r_i_glide_ligand_efficiency>
-0.338187751814359

> <r_i_glide_ligand_efficiency_sa>
-1.07367918474538

> <r_i_glide_ligand_efficiency_ln>
-2.4233426009977

> <r_i_glide_gscore>
-10.8220080580595

> <r_i_glide_lipo>
-3.92629698524202

> <r_i_glide_hbond>
-0.291009552278047

> <r_i_glide_metal>
0

> <r_i_glide_rewards>
-3.10390076733999

> <r_i_glide_evdw>
-44.0330924987793

> <r_i_glide_ecoul>
-11.6804246902466

> <r_i_glide_erotb>
0.452917575276538

> <r_i_glide_esite>
0

> <r_i_glide_emodel>
-79.4930953009851

> <r_i_glide_energy>
-55.7135171890259

> <r_i_glide_einternal>
16.6534538269043

> <i_i_glide_confnum>
15

> <i_i_glide_posenum>
126

> <r_i_glide_eff_state_penalty>
0

> <s_user_duplicate_titles>
CHEMBL1862_lig281,473579

> <s_m_subgroup_title>
dock_pv

> <s_m_subgroupid>
dock_pv

> <b_m_subgroup_collapsed>
0

$$$$
CHEMBL1862_lig607
                    3D
 Schrodinger Suite 2021-1.
 47 50  0  0  1  0            999 V2000
   15.2575   14.2743    4.0745 C   0  0  0  0  0  0
   15.4289   13.3149    3.1189 N   0  0  0  0  0  0
   14.5210   12.4721    2.6100 C   0  0  0  0  0  0
   14.0267   14.5498    4.5761 C   0  0  0  0  0  0
   12.9144   13.7707    4.0316 C   0  0  0  0  0  0
   13.1749   12.7834    3.0793 C   0  0  0  0  0  0
   11.9097   12.2437    2.7925 C   0  0  0  0  0  0
   10.9483   12.8339    3.4615 N   0  0  0  0  0  0
   11.5563   13.7462    4.2287 N   0  0  0  0  0  0
   11.5831   11.2330    1.9500 N   0  0  0  0  0  0
   14.9639   11.6330    1.8445 O   0  0  0  0  0  0
   16.5422   14.9297    4.4625 C   0  0  0  0  0  0
   10.7615   14.4852    5.1877 C   0  0  0  0  0  0
   17.7749   14.4336    3.9917 C   0  0  0  0  0  0
   18.9686   15.0445    4.3152 C   0  0  0  0  0  0
   18.9761   16.1721    5.1211 C   0  0  0  0  0  0
   17.7731   16.6719    5.6264 C   0  0  0  0  0  0
   16.5698   16.0381    5.3190 C   0  0  0  0  0  0
   20.1930   16.7629    5.3751 N   0  0  0  0  0  0
   21.2244   16.0315    6.1327 C   0  0  0  0  0  0
   22.6534   16.5312    5.8585 C   0  0  0  0  0  0
   22.7392   17.9841    6.0018 N   0  0  0  0  0  0
   21.8229   18.6138    5.0585 C   0  0  0  0  0  0
   20.3752   18.2184    5.4092 C   0  0  0  0  0  0
   24.1006   18.4215    5.7542 C   0  0  0  0  0  0
   16.3464   13.1306    2.7515 H   0  0  0  0  0  0
   13.8618   15.2937    5.3389 H   0  0  0  0  0  0
   12.3132   10.6133    1.6066 H   0  0  0  0  0  0
   10.6357   10.8933    1.8846 H   0  0  0  0  0  0
   10.8924   14.0331    6.1726 H   0  0  0  0  0  0
   11.0856   15.5233    5.1970 H   0  0  0  0  0  0
    9.7039   14.4513    4.9174 H   0  0  0  0  0  0
   17.8516   13.5681    3.3504 H   0  0  0  0  0  0
   19.8900   14.6558    3.9052 H   0  0  0  0  0  0
   17.7687   17.5437    6.2634 H   0  0  0  0  0  0
   15.6592   16.4512    5.7251 H   0  0  0  0  0  0
   21.0263   16.1423    7.1984 H   0  0  0  0  0  0
   21.1743   14.9635    5.9199 H   0  0  0  0  0  0
   23.3358   16.0541    6.5625 H   0  0  0  0  0  0
   22.9642   16.2253    4.8579 H   0  0  0  0  0  0
   22.0589   18.3315    4.0297 H   0  0  0  0  0  0
   21.9326   19.6956    5.1238 H   0  0  0  0  0  0
   19.6862   18.6922    4.7089 H   0  0  0  0  0  0
   20.1313   18.5943    6.4029 H   0  0  0  0  0  0
   24.4729   18.0336    4.8052 H   0  0  0  0  0  0
   24.1544   19.5072    5.7205 H   0  0  0  0  0  0
   24.7363   18.0456    6.5579 H   0  0  0  0  0  0
  1 12  1  0  0  0
  1  2  1  0  0  0
  1  4  2  0  0  0
  2  3  1  0  0  0
  2 26  1  0  0  0
  3  6  1  0  0  0
  3 11  2  0  0  0
  4  5  1  0  0  0
  4 27  1  0  0  0
  5  9  1  0  0  0
  5  6  2  0  0  0
  6  7  1  0  0  0
  7  8  2  0  0  0
  7 10  1  0  0  0
  8  9  1  0  0  0
  9 13  1  0  0  0
 10 28  1  0  0  0
 10 29  1  0  0  0
 12 14  2  0  0  0
 12 18  1  0  0  0
 13 30  1  0  0  0
 13 31  1  0  0  0
 13 32  1  0  0  0
 14 15  1  0  0  0
 14 33  1  0  0  0
 15 16  2  0  0  0
 15 34  1  0  0  0
 16 17  1  0  0  0
 16 19  1  0  0  0
 17 18  2  0  0  0
 17 35  1  0  0  0
 18 36  1  0  0  0
 19 20  1  0  0  0
 19 24  1  0  0  0
 20 21  1  0  0  0
 20 37  1  0  0  0
 20 38  1  0  0  0
 21 22  1  0  0  0
 21 39  1  0  0  0
 21 40  1  0  0  0
 22 23  1  0  0  0
 22 25  1  0  0  0
 23 24  1  0  0  0
 23 41  1  0  0  0
 23 42  1  0  0  0
 24 43  1  0  0  0
 24 44  1  0  0  0
 25 45  1  0  0  0
 25 46  1  0  0  0
 25 47  1  0  0  0
M  END
> <s_m_entry_id>
6133

> <s_m_entry_name>
dock_pv.59

> <s_m_Source_Path>
/home/csk/Desktop/cluster/DUD-E-result/abl1

> <s_m_Source_File>
dock_pv.maegz

> <i_m_Source_File_Index>
59

> <chembl_id>
CHEMBL1813625

> <chembl_pref_name>
None

> <i_lp_mmshare_version>
53161

> <i_f3d_flags>
0

> <r_lp_tautomer_probability>
1

> <s_lp_Force_Field>
OPLS_2005

> <r_lp_Energy>
54.553521

> <b_lp_Chiralities_Consistent>
1

> <s_lp_Variant>
CHEMBL1862_lig607-1

> <s_i_glide_gridfile>
glide-grid_2hzi

> <i_i_glide_lignum>
713

> <i_i_glide_rotatable_bonds>
2

> <r_i_docking_score>
-10.8080530438762

> <r_i_glide_ligand_efficiency>
-0.43232212175505

> <r_i_glide_ligand_efficiency_sa>
-1.26411755127724

> <r_i_glide_ligand_efficiency_ln>
-2.56183246261198

> <r_i_glide_gscore>
-10.8080530438762

> <r_i_glide_lipo>
-4.85257151025585

> <r_i_glide_hbond>
-0.526830934129283

> <r_i_glide_metal>
0

> <r_i_glide_rewards>
-3.06985316560787

> <r_i_glide_evdw>
-39.1003723144531

> <r_i_glide_ecoul>
-4.23315572738647

> <r_i_glide_erotb>
0.231194540947383

> <r_i_glide_esite>
0

> <r_i_glide_emodel>
-47.1096506784935

> <r_i_glide_energy>
-43.3335280418396

> <r_i_glide_einternal>
2.03873562812805

> <i_i_glide_confnum>
12

> <i_i_glide_posenum>
251

> <r_i_glide_eff_state_penalty>
0

> <s_user_duplicate_titles>
CHEMBL1862_lig607

> <s_m_subgroup_title>
dock_pv

> <s_m_subgroupid>
dock_pv

> <b_m_subgroup_collapsed>
0

$$$$
CHEMBL1862_lig456
                    3D
 Schrodinger Suite 2021-1.
 32 34  0  0  1  0            999 V2000
   16.4890   12.0330    2.3247 N   0  0  0  0  0  0
   15.1370   12.0821    2.4055 C   0  0  0  0  0  0
   14.3876   12.9825    3.0818 N   0  0  0  0  0  0
   17.1888   13.0067    2.9463 C   0  0  0  0  0  0
   16.5382   14.0041    3.6851 C   0  0  0  0  0  0
   15.1303   13.9101    3.6957 C   0  0  0  0  0  0
   14.6936   14.9612    4.4575 N   0  0  0  0  0  0
   15.7296   15.6584    4.9742 N   0  0  0  0  0  0
   16.8461   15.1444    4.4988 C   0  0  0  0  0  0
   18.1922   15.6927    4.8529 C   0  0  0  0  0  0
   19.1404   14.8977    5.5065 C   0  0  0  0  0  0
   20.4085   15.4012    5.8101 C   0  0  0  0  0  0
   20.7557   16.7075    5.4405 C   0  0  0  0  0  0
   19.8082   17.5043    4.7910 C   0  0  0  0  0  0
   18.5374   17.0029    4.5087 C   0  0  0  0  0  0
   18.5640   12.9664    2.8030 N   0  0  0  0  0  0
   22.1341   17.2766    5.7522 C   0  0  0  0  0  0
   21.2997   14.5988    6.4715 O   0  0  0  0  0  0
   13.3263   15.2826    4.8029 C   0  0  0  0  0  0
   14.5903   11.3284    1.8583 H   0  0  0  0  0  0
   18.8965   13.8832    5.7835 H   0  0  0  0  0  0
   20.0527   18.5147    4.4982 H   0  0  0  0  0  0
   17.8215   17.6328    4.0030 H   0  0  0  0  0  0
   19.1310   13.7094    3.1855 H   0  0  0  0  0  0
   18.9640   12.2503    2.2008 H   0  0  0  0  0  0
   22.1884   18.3502    5.5667 H   0  0  0  0  0  0
   22.8976   16.7783    5.1542 H   0  0  0  0  0  0
   22.3839   17.1171    6.8017 H   0  0  0  0  0  0
   22.2133   14.8962    6.4029 H   0  0  0  0  0  0
   12.6518   14.8518    4.0620 H   0  0  0  0  0  0
   13.1009   14.8328    5.7699 H   0  0  0  0  0  0
   13.1910   16.3631    4.8030 H   0  0  0  0  0  0
  1  4  1  0  0  0
  1  2  2  0  0  0
  2  3  1  0  0  0
  2 20  1  0  0  0
  3  6  2  0  0  0
  4  5  2  0  0  0
  4 16  1  0  0  0
  5  9  1  0  0  0
  5  6  1  0  0  0
  6  7  1  0  0  0
  7  8  1  0  0  0
  7 19  1  0  0  0
  8  9  2  0  0  0
  9 10  1  0  0  0
 10 11  2  0  0  0
 10 15  1  0  0  0
 11 12  1  0  0  0
 11 21  1  0  0  0
 12 13  2  0  0  0
 12 18  1  0  0  0
 13 14  1  0  0  0
 13 17  1  0  0  0
 14 15  2  0  0  0
 14 22  1  0  0  0
 15 23  1  0  0  0
 16 24  1  0  0  0
 16 25  1  0  0  0
 17 26  1  0  0  0
 17 27  1  0  0  0
 17 28  1  0  0  0
 18 29  1  0  0  0
 19 30  1  0  0  0
 19 31  1  0  0  0
 19 32  1  0  0  0
M  END
> <s_m_entry_id>
6134

> <s_m_entry_name>
dock_pv.60

> <s_m_Source_Path>
/home/csk/Desktop/cluster/DUD-E-result/abl1

> <s_m_Source_File>
dock_pv.maegz

> <i_m_Source_File_Index>
60

> <chembl_id>
CHEMBL1241271

> <chembl_pref_name>
None

> <i_lp_mmshare_version>
53161

> <i_f3d_flags>
0

> <r_lp_tautomer_probability>
0.999999999997365

> <s_lp_Force_Field>
OPLS_2005

> <r_lp_Energy>
5.672338

> <b_lp_Chiralities_Consistent>
1

> <s_lp_Variant>
CHEMBL1862_lig456-1

> <s_i_glide_gridfile>
glide-grid_2hzi

> <i_i_glide_lignum>
544

> <i_i_glide_rotatable_bonds>
2

> <r_i_docking_score>
-10.8013349655044

> <r_i_glide_ligand_efficiency>
-0.568491313973917

> <r_i_glide_ligand_efficiency_sa>
-1.51696315800324

> <r_i_glide_ligand_efficiency_ln>
-2.73837040515886

> <r_i_glide_gscore>
-10.8013349655044

> <r_i_glide_lipo>
-2.99104643826603

> <r_i_glide_hbond>
-0.807301899756177

> <r_i_glide_metal>
0

> <r_i_glide_rewards>
-4.26549075103564

> <r_i_glide_evdw>
-31.9409637451172

> <r_i_glide_ecoul>
-8.86364841461182

> <r_i_glide_erotb>
0.18909957300106

> <r_i_glide_esite>
0

> <r_i_glide_emodel>
-64.0140403344702

> <r_i_glide_energy>
-40.804612159729

> <r_i_glide_einternal>
3.00183463096619

> <i_i_glide_confnum>
3

> <i_i_glide_posenum>
103

> <r_i_glide_eff_state_penalty>
0

> <s_user_duplicate_titles>
CHEMBL1862_lig456

> <s_m_subgroup_title>
dock_pv

> <s_m_subgroupid>
dock_pv

> <b_m_subgroup_collapsed>
0

$$$$
CHEMBL1862_lig715
                    3D
 Schrodinger Suite 2021-1.
 47 50  0  0  1  0            999 V2000
   14.3973   12.4265    2.7733 N   0  0  0  0  0  0
   13.3132   13.0009    3.3776 C   0  0  0  0  0  0
   13.6159   14.0724    4.1843 N   0  0  0  0  0  0
   15.7282   12.7273    2.8026 C   0  0  0  0  0  0
   15.9347   13.9018    3.6030 C   0  0  0  0  0  0
   14.9250   14.5431    4.3155 C   0  0  0  0  0  0
   15.3697   15.5455    5.0517 N   0  0  0  0  0  0
   17.0836   14.6094    3.9036 N   0  0  0  0  0  0
   16.6630   15.5759    4.7916 C   0  0  0  0  0  0
   17.7640   16.3176    5.1374 N   0  0  0  0  0  0
   18.8712   15.7945    4.4627 C   0  0  0  0  0  0
   18.4510   14.7219    3.6829 C   0  0  0  0  0  0
   20.2373   16.3579    4.6069 C   0  0  0  0  0  0
   20.6660   17.2954    3.6607 C   0  0  0  0  0  0
   21.8527   17.9997    3.8605 C   0  0  0  0  0  0
   22.6320   17.7389    4.9857 C   0  0  0  0  0  0
   22.2462   16.7568    5.8938 C   0  0  0  0  0  0
   21.0492   16.0595    5.7129 C   0  0  0  0  0  0
   12.5133   14.7379    4.8824 C   0  0  0  0  0  0
   16.5663   12.0330    2.2469 O   0  0  0  0  0  0
   12.1865   12.5501    3.1802 O   0  0  0  0  0  0
   17.6827   17.4219    6.1011 C   0  0  0  0  0  0
   18.6281   18.6335    5.8727 C   0  0  0  0  0  0
   18.1640   19.9293    6.5627 C   0  0  0  0  0  0
   18.3112   20.0330    8.0763 C   0  0  0  0  0  0
   20.6270   15.0291    6.7451 C   0  0  0  0  0  0
   23.7640   18.4398    5.2030 F   0  0  0  0  0  0
   14.1641   11.6017    2.2369 H   0  0  0  0  0  0
   18.9952   14.0631    3.0202 H   0  0  0  0  0  0
   20.0504   17.5219    2.8018 H   0  0  0  0  0  0
   22.1640   18.7529    3.1517 H   0  0  0  0  0  0
   22.8780   16.5579    6.7481 H   0  0  0  0  0  0
   11.6309   14.8327    4.2477 H   0  0  0  0  0  0
   12.2355   14.1620    5.7658 H   0  0  0  0  0  0
   12.7946   15.7396    5.2026 H   0  0  0  0  0  0
   17.7640   17.0210    7.1053 H   0  0  0  0  0  0
   16.6553   17.7626    6.0032 H   0  0  0  0  0  0
   18.6866   18.8305    4.8031 H   0  0  0  0  0  0
   19.6498   18.4314    6.1852 H   0  0  0  0  0  0
   17.1166   20.0330    6.4030 H   0  0  0  0  0  0
   18.5640   20.8037    6.0673 H   0  0  0  0  0  0
   17.8839   20.9670    8.4412 H   0  0  0  0  0  0
   19.3544   20.0330    8.3788 H   0  0  0  0  0  0
   17.7640   19.2331    8.5762 H   0  0  0  0  0  0
   21.2917   15.0383    7.6030 H   0  0  0  0  0  0
   19.6192   15.2330    7.1041 H   0  0  0  0  0  0
   20.6265   14.0329    6.3057 H   0  0  0  0  0  0
  1  2  1  0  0  0
  1  4  1  0  0  0
  1 28  1  0  0  0
  2  3  1  0  0  0
  2 21  2  0  0  0
  3  6  1  0  0  0
  3 19  1  0  0  0
  4  5  1  0  0  0
  4 20  2  0  0  0
  5  6  2  0  0  0
  5  8  1  0  0  0
  6  7  1  0  0  0
  7  9  2  0  0  0
  8  9  1  0  0  0
  8 12  1  0  0  0
  9 10  1  0  0  0
 10 11  1  0  0  0
 10 22  1  0  0  0
 11 12  2  0  0  0
 11 13  1  0  0  0
 12 29  1  0  0  0
 13 14  2  0  0  0
 13 18  1  0  0  0
 14 15  1  0  0  0
 14 30  1  0  0  0
 15 16  2  0  0  0
 15 31  1  0  0  0
 16 17  1  0  0  0
 16 27  1  0  0  0
 17 18  2  0  0  0
 17 32  1  0  0  0
 18 26  1  0  0  0
 19 33  1  0  0  0
 19 34  1  0  0  0
 19 35  1  0  0  0
 22 23  1  0  0  0
 22 36  1  0  0  0
 22 37  1  0  0  0
 23 24  1  0  0  0
 23 38  1  0  0  0
 23 39  1  0  0  0
 24 25  1  0  0  0
 24 40  1  0  0  0
 24 41  1  0  0  0
 25 42  1  0  0  0
 25 43  1  0  0  0
 25 44  1  0  0  0
 26 45  1  0  0  0
 26 46  1  0  0  0
 26 47  1  0  0  0
M  END
> <s_m_entry_id>
6135

> <s_m_entry_name>
dock_pv.61

> <s_m_Source_Path>
/home/csk/Desktop/cluster/DUD-E-result/abl1

> <s_m_Source_File>
dock_pv.maegz

> <i_m_Source_File_Index>
61

> <chembl_id>
CHEMBL2333595

> <chembl_pref_name>
None

> <i_lp_mmshare_version>
53161

> <i_f3d_flags>
0

> <r_lp_tautomer_probability>
1

> <s_lp_Force_Field>
OPLS_2005

> <r_lp_Energy>
44.062145

> <b_lp_Chiralities_Consistent>
1

> <s_lp_Variant>
CHEMBL1862_lig715-1

> <s_i_glide_gridfile>
glide-grid_2hzi

> <i_i_glide_lignum>
848

> <i_i_glide_rotatable_bonds>
4

> <r_i_docking_score>
-10.7916539927423

> <r_i_glide_ligand_efficiency>
-0.399690888620087

> <r_i_glide_ligand_efficiency_sa>
-1.19907266454294

> <r_i_glide_ligand_efficiency_ln>
-2.51211913518959

> <r_i_glide_gscore>
-10.7916539927423

> <r_i_glide_lipo>
-3.74721657915227

> <r_i_glide_hbond>
-0.485907959346481

> <r_i_glide_metal>
0

> <r_i_glide_rewards>
-4.11411740170194

> <r_i_glide_evdw>
-43.6142501831055

> <r_i_glide_ecoul>
-3.73619270324707

> <r_i_glide_erotb>
0.296729362100686

> <r_i_glide_esite>
0

> <r_i_glide_emodel>
-66.3334637331976

> <r_i_glide_energy>
-47.3504428863525

> <r_i_glide_einternal>
7.8045449256897

> <i_i_glide_confnum>
33

> <i_i_glide_posenum>
233

> <r_i_glide_eff_state_penalty>
0

> <s_user_duplicate_titles>
CHEMBL1862_lig715

> <s_m_subgroup_title>
dock_pv

> <s_m_subgroupid>
dock_pv

> <b_m_subgroup_collapsed>
0

$$$$
CHEMBL1862_lig524
                    3D
 Schrodinger Suite 2021-1.
 39 42  0  0  1  0            999 V2000
   16.5584   12.0330    2.2612 N   0  0  0  0  0  0
   15.2150   12.1689    2.3653 C   0  0  0  0  0  0
   14.5442   13.1034    3.0718 N   0  0  0  0  0  0
   17.3211   12.9409    2.9043 C   0  0  0  0  0  0
   16.7565   13.9548    3.6657 C   0  0  0  0  0  0
   15.3534   13.9554    3.7118 C   0  0  0  0  0  0
   15.0278   14.9790    4.5667 N   0  0  0  0  0  0
   16.1342   15.6199    5.0237 N   0  0  0  0  0  0
   17.1783   15.0262    4.5036 C   0  0  0  0  0  0
   18.5642   15.4089    4.8616 C   0  0  0  0  0  0
   19.2690   16.3314    4.0839 C   0  0  0  0  0  0
   20.4431   15.2337    6.3878 C   0  0  0  0  0  0
   19.1568   14.8565    6.0030 C   0  0  0  0  0  0
   18.6874   12.8330    2.8030 N   0  0  0  0  0  0
   21.1235   16.1891    5.6429 C   0  0  0  0  0  0
   20.5561   16.7227    4.4777 C   0  0  0  0  0  0
   21.3546   17.7245    3.6556 C   0  0  0  0  0  0
   22.5197   18.2073    4.2635 N   0  0  0  0  0  0
   22.9639   17.6981    5.3444 C   0  0  0  0  0  0
   22.3682   16.6743    6.0522 N   0  0  0  0  0  0
   13.7262   15.4883    4.9440 C   0  0  0  0  0  0
   12.5484   14.5122    4.7240 C   0  0  0  0  0  0
   13.5283   16.8330    4.2566 C   0  0  0  0  0  0
   20.9640   18.0327    2.5329 O   0  0  0  0  0  0
   14.6058   11.4688    1.8117 H   0  0  0  0  0  0
   18.8081   16.7424    3.1944 H   0  0  0  0  0  0
   20.8857   14.8155    7.2751 H   0  0  0  0  0  0
   18.6128   14.1408    6.6005 H   0  0  0  0  0  0
   19.2733   13.5481    3.2094 H   0  0  0  0  0  0
   19.0667   12.1257    2.1740 H   0  0  0  0  0  0
   22.8453   16.2580    6.8358 H   0  0  0  0  0  0
   23.8792   18.0642    5.8024 H   0  0  0  0  0  0
   13.8135   15.6330    6.0030 H   0  0  0  0  0  0
   11.6325   14.8919    5.1758 H   0  0  0  0  0  0
   12.3360   14.3600    3.6656 H   0  0  0  0  0  0
   12.7453   13.5393    5.1764 H   0  0  0  0  0  0
   12.5042   17.1810    4.3811 H   0  0  0  0  0  0
   14.1876   17.5975    4.6668 H   0  0  0  0  0  0
   13.7640   16.7547    3.2030 H   0  0  0  0  0  0
  1  2  2  0  0  0
  1  4  1  0  0  0
  2  3  1  0  0  0
  2 25  1  0  0  0
  3  6  2  0  0  0
  4 14  1  0  0  0
  4  5  2  0  0  0
  5  9  1  0  0  0
  5  6  1  0  0  0
  6  7  1  0  0  0
  7  8  1  0  0  0
  7 21  1  0  0  0
  8  9  2  0  0  0
  9 10  1  0  0  0
 10 11  2  0  0  0
 10 13  1  0  0  0
 11 16  1  0  0  0
 11 26  1  0  0  0
 12 13  2  0  0  0
 12 27  1  0  0  0
 12 15  1  0  0  0
 13 28  1  0  0  0
 14 29  1  0  0  0
 14 30  1  0  0  0
 15 16  2  0  0  0
 15 20  1  0  0  0
 16 17  1  0  0  0
 17 24  2  0  0  0
 17 18  1  0  0  0
 18 19  2  0  0  0
 19 20  1  0  0  0
 19 32  1  0  0  0
 20 31  1  0  0  0
 21 22  1  0  0  0
 21 23  1  0  0  0
 21 33  1  0  0  0
 22 34  1  0  0  0
 22 35  1  0  0  0
 22 36  1  0  0  0
 23 37  1  0  0  0
 23 38  1  0  0  0
 23 39  1  0  0  0
M  END
> <s_m_entry_id>
6136

> <s_m_entry_name>
dock_pv.62

> <s_m_Source_Path>
/home/csk/Desktop/cluster/DUD-E-result/abl1

> <s_m_Source_File>
dock_pv.maegz

> <i_m_Source_File_Index>
62

> <chembl_id>
CHEMBL1241776

> <chembl_pref_name>
None

> <i_lp_mmshare_version>
53161

> <i_f3d_flags>
0

> <r_lp_tautomer_probability>
0.116051

> <s_lp_Force_Field>
OPLS_2005

> <r_lp_Energy>
16.971674

> <b_lp_Chiralities_Consistent>
1

> <s_lp_Variant>
CHEMBL1862_lig524-2

> <s_i_glide_gridfile>
glide-grid_2hzi

> <i_i_glide_lignum>
622

> <i_i_glide_rotatable_bonds>
2

> <r_i_docking_score>
-10.7883809451581

> <r_i_glide_ligand_efficiency>
-0.449515872714922

> <r_i_glide_ligand_efficiency_sa>
-1.29662814716533

> <r_i_glide_ligand_efficiency_ln>
-2.58215460672025

> <r_i_glide_gscore>
-10.7883809451581

> <r_i_glide_lipo>
-3.36896388662424

> <r_i_glide_hbond>
-0.608

> <r_i_glide_metal>
0

> <r_i_glide_rewards>
-4.04555039008131

> <r_i_glide_evdw>
-36.8127174377441

> <r_i_glide_ecoul>
-7.37458896636963

> <r_i_glide_erotb>
0.180957548390086

> <r_i_glide_esite>
0

> <r_i_glide_emodel>
-55.1742448925758

> <r_i_glide_energy>
-44.1873064041138

> <r_i_glide_einternal>
6.55472278594971

> <i_i_glide_confnum>
1

> <i_i_glide_posenum>
112

> <r_i_glide_eff_state_penalty>
0

> <s_user_duplicate_titles>
CHEMBL1862_lig524,CHEMBL1862_lig524

> <s_m_subgroup_title>
dock_pv

> <s_m_subgroupid>
dock_pv

> <b_m_subgroup_collapsed>
0

$$$$
CHEMBL1862_lig543
                    3D
 Schrodinger Suite 2021-1.
 37 40  0  0  1  0            999 V2000
   16.7029   12.0367    2.3288 N   0  0  0  0  0  0
   15.3649   12.2424    2.4031 C   0  0  0  0  0  0
   14.7209   13.1850    3.1186 N   0  0  0  0  0  0
   17.4903   12.9545    2.9373 C   0  0  0  0  0  0
   16.9537   13.9989    3.6843 C   0  0  0  0  0  0
   15.5528   14.0027    3.7673 C   0  0  0  0  0  0
   15.2525   14.9724    4.6868 N   0  0  0  0  0  0
   16.3605   15.6495    5.0693 N   0  0  0  0  0  0
   17.3877   15.1179    4.4572 C   0  0  0  0  0  0
   18.7633   15.6243    4.6822 C   0  0  0  0  0  0
   19.3149   16.5960    3.8368 C   0  0  0  0  0  0
   20.7219   15.6329    6.1140 C   0  0  0  0  0  0
   19.4558   15.1538    5.7963 C   0  0  0  0  0  0
   18.8526   12.8330    2.8030 N   0  0  0  0  0  0
   13.9620   15.4212    5.1600 C   0  0  0  0  0  0
   12.8517   14.3440    5.0950 C   0  0  0  0  0  0
   13.5831   16.6501    4.3177 C   0  0  0  0  0  0
   21.2971   16.6198    5.3061 C   0  0  0  0  0  0
   20.5854   17.0836    4.1738 C   0  0  0  0  0  0
   21.4130   18.0302    3.5992 N   0  0  0  0  0  0
   22.5576   18.1938    4.2908 N   0  0  0  0  0  0
   22.5097   17.3710    5.3037 C   0  0  0  0  0  0
   21.3640   15.1715    7.2028 F   0  0  0  0  0  0
   14.7228   11.6330    1.7927 H   0  0  0  0  0  0
   18.7727   16.9613    2.9775 H   0  0  0  0  0  0
   19.0002   14.4125    6.4352 H   0  0  0  0  0  0
   19.4567   13.5500    3.1790 H   0  0  0  0  0  0
   19.2080   12.1106    2.1744 H   0  0  0  0  0  0
   14.1638   15.6330    6.2092 H   0  0  0  0  0  0
   11.9473   14.6650    5.6030 H   0  0  0  0  0  0
   12.5498   14.1264    4.0704 H   0  0  0  0  0  0
   13.1554   13.4109    5.5605 H   0  0  0  0  0  0
   12.5247   16.8911    4.4030 H   0  0  0  0  0  0
   14.1643   17.5312    4.5881 H   0  0  0  0  0  0
   13.7642   16.4567    3.2600 H   0  0  0  0  0  0
   21.2495   18.5631    2.7581 H   0  0  0  0  0  0
   23.3221   17.3158    6.0146 H   0  0  0  0  0  0
  1  2  2  0  0  0
  1  4  1  0  0  0
  2  3  1  0  0  0
  2 24  1  0  0  0
  3  6  2  0  0  0
  4 14  1  0  0  0
  4  5  2  0  0  0
  5  9  1  0  0  0
  5  6  1  0  0  0
  6  7  1  0  0  0
  7 15  1  0  0  0
  7  8  1  0  0  0
  8  9  2  0  0  0
  9 10  1  0  0  0
 10 13  1  0  0  0
 10 11  2  0  0  0
 11 19  1  0  0  0
 11 25  1  0  0  0
 12 18  1  0  0  0
 12 13  2  0  0  0
 12 23  1  0  0  0
 13 26  1  0  0  0
 14 27  1  0  0  0
 14 28  1  0  0  0
 15 16  1  0  0  0
 15 17  1  0  0  0
 15 29  1  0  0  0
 16 30  1  0  0  0
 16 31  1  0  0  0
 16 32  1  0  0  0
 17 33  1  0  0  0
 17 34  1  0  0  0
 17 35  1  0  0  0
 18 19  2  0  0  0
 18 22  1  0  0  0
 19 20  1  0  0  0
 20 21  1  0  0  0
 20 36  1  0  0  0
 21 22  2  0  0  0
 22 37  1  0  0  0
M  END
> <s_m_entry_id>
6138

> <s_m_entry_name>
dock_pv.64

> <s_m_Source_Path>
/home/csk/Desktop/cluster/DUD-E-result/abl1

> <s_m_Source_File>
dock_pv.maegz

> <i_m_Source_File_Index>
64

> <chembl_id>
CHEMBL1242573

> <chembl_pref_name>
None

> <i_lp_mmshare_version>
53161

> <i_f3d_flags>
0

> <r_lp_tautomer_probability>
0.980392156862745

> <s_lp_Force_Field>
OPLS_2005

> <r_lp_Energy>
11.200047

> <b_lp_Chiralities_Consistent>
1

> <s_lp_Variant>
CHEMBL1862_lig543-1

> <s_i_glide_gridfile>
glide-grid_2hzi

> <i_i_glide_lignum>
645

> <i_i_glide_rotatable_bonds>
2

> <r_i_docking_score>
-10.7681883247821

> <r_i_glide_ligand_efficiency>
-0.468182101077483

> <r_i_glide_ligand_efficiency_sa>
-1.3314476164202

> <r_i_glide_ligand_efficiency_ln>
-2.6038455774657

> <r_i_glide_gscore>
-10.7681883247821

> <r_i_glide_lipo>
-3.42713960055609

> <r_i_glide_hbond>
-0.609649587673794

> <r_i_glide_metal>
0

> <r_i_glide_rewards>
-4.00067189763889

> <r_i_glide_evdw>
-32.9681243896484

> <r_i_glide_ecoul>
-8.32906627655029

> <r_i_glide_erotb>
0.191331589197815

> <r_i_glide_esite>
-0.0242926671461813

> <r_i_glide_emodel>
-51.2059349643623

> <r_i_glide_energy>
-41.2971906661987

> <r_i_glide_einternal>
6.49102210998535

> <i_i_glide_confnum>
2

> <i_i_glide_posenum>
99

> <r_i_glide_eff_state_penalty>
0

> <s_user_duplicate_titles>
CHEMBL1862_lig543,CHEMBL1862_lig543

> <s_m_subgroup_title>
dock_pv

> <s_m_subgroupid>
dock_pv

> <b_m_subgroup_collapsed>
0

$$$$
CHEMBL1862_lig500
                    3D
 Schrodinger Suite 2021-1.
 38 40  0  0  1  0            999 V2000
   16.7047   12.0635    2.3178 N   0  0  0  0  0  0
   15.3669   12.2594    2.4030 C   0  0  0  0  0  0
   14.7241   13.1987    3.1231 N   0  0  0  0  0  0
   17.4946   12.9681    2.9393 C   0  0  0  0  0  0
   16.9592   14.0037    3.7004 C   0  0  0  0  0  0
   15.5572   14.0127    3.7757 C   0  0  0  0  0  0
   15.2548   14.9793    4.6969 N   0  0  0  0  0  0
   16.3630   15.6483    5.0933 N   0  0  0  0  0  0
   17.3939   15.1037    4.4995 C   0  0  0  0  0  0
   18.7727   15.5744    4.7756 C   0  0  0  0  0  0
   19.4698   14.9703    5.8188 C   0  0  0  0  0  0
   20.7315   15.4309    6.1776 C   0  0  0  0  0  0
   21.3238   16.5103    5.5149 C   0  0  0  0  0  0
   20.6265   17.1029    4.4493 C   0  0  0  0  0  0
   19.3623   16.6380    4.0828 C   0  0  0  0  0  0
   18.8558   12.8330    2.8030 N   0  0  0  0  0  0
   13.9628   15.4260    5.1664 C   0  0  0  0  0  0
   12.8530   14.3484    5.0995 C   0  0  0  0  0  0
   13.5837   16.6534    4.3213 C   0  0  0  0  0  0
   22.5569   16.9344    5.9741 O   0  0  0  0  0  0
   21.3640   14.8330    7.2030 F   0  0  0  0  0  0
   18.7155   17.2329    3.0584 F   0  0  0  0  0  0
   23.1552   18.0945    5.4074 C   0  0  0  0  0  0
   14.7274   11.6330    1.8056 H   0  0  0  0  0  0
   19.0286   14.1527    6.3690 H   0  0  0  0  0  0
   21.0461   17.9305    3.8986 H   0  0  0  0  0  0
   19.4676   13.5456    3.1736 H   0  0  0  0  0  0
   19.2018   12.1133    2.1660 H   0  0  0  0  0  0
   14.1640   15.6330    6.2167 H   0  0  0  0  0  0
   11.9469   14.6715    5.6030 H   0  0  0  0  0  0
   12.5538   14.1287    4.0747 H   0  0  0  0  0  0
   13.1547   13.4165    5.5685 H   0  0  0  0  0  0
   12.5250   16.8939    4.4030 H   0  0  0  0  0  0
   14.1640   17.5357    4.5897 H   0  0  0  0  0  0
   13.7640   16.4572    3.2640 H   0  0  0  0  0  0
   24.1035   18.2920    5.9077 H   0  0  0  0  0  0
   23.3640   17.9534    4.3471 H   0  0  0  0  0  0
   22.5256   18.9765    5.5364 H   0  0  0  0  0  0
  1  2  2  0  0  0
  1  4  1  0  0  0
  2  3  1  0  0  0
  2 24  1  0  0  0
  3  6  2  0  0  0
  4  5  2  0  0  0
  4 16  1  0  0  0
  5  9  1  0  0  0
  5  6  1  0  0  0
  6  7  1  0  0  0
  7 17  1  0  0  0
  7  8  1  0  0  0
  8  9  2  0  0  0
  9 10  1  0  0  0
 10 15  1  0  0  0
 10 11  2  0  0  0
 11 12  1  0  0  0
 11 25  1  0  0  0
 12 13  2  0  0  0
 12 21  1  0  0  0
 13 14  1  0  0  0
 13 20  1  0  0  0
 14 15  2  0  0  0
 14 26  1  0  0  0
 15 22  1  0  0  0
 16 27  1  0  0  0
 16 28  1  0  0  0
 17 18  1  0  0  0
 17 19  1  0  0  0
 17 29  1  0  0  0
 18 30  1  0  0  0
 18 31  1  0  0  0
 18 32  1  0  0  0
 19 33  1  0  0  0
 19 34  1  0  0  0
 19 35  1  0  0  0
 20 23  1  0  0  0
 23 36  1  0  0  0
 23 37  1  0  0  0
 23 38  1  0  0  0
M  END
> <s_m_entry_id>
6139

> <s_m_entry_name>
dock_pv.65

> <s_m_Source_Path>
/home/csk/Desktop/cluster/DUD-E-result/abl1

> <s_m_Source_File>
dock_pv.maegz

> <i_m_Source_File_Index>
65

> <chembl_id>
CHEMBL1242027

> <chembl_pref_name>
None

> <i_lp_mmshare_version>
53161

> <i_f3d_flags>
0

> <r_lp_tautomer_probability>
1

> <s_lp_Force_Field>
OPLS_2005

> <r_lp_Energy>
25.097284

> <b_lp_Chiralities_Consistent>
1

> <s_lp_Variant>
CHEMBL1862_lig500-1

> <s_i_glide_gridfile>
glide-grid_2hzi

> <i_i_glide_lignum>
594

> <i_i_glide_rotatable_bonds>
3

> <r_i_docking_score>
-10.7577873149765

> <r_i_glide_ligand_efficiency>
-0.467729883259849

> <r_i_glide_ligand_efficiency_sa>
-1.33016156910228

> <r_i_glide_ligand_efficiency_ln>
-2.60133051898357

> <r_i_glide_gscore>
-10.7577873149765

> <r_i_glide_lipo>
-3.44974001051667

> <r_i_glide_hbond>
-0.611037521205266

> <r_i_glide_metal>
0

> <r_i_glide_rewards>
-4.17862400584449

> <r_i_glide_evdw>
-29.3504791259766

> <r_i_glide_ecoul>
-7.90640258789062

> <r_i_glide_erotb>
0.182986903215273

> <r_i_glide_esite>
-0.0478883361429557

> <r_i_glide_emodel>
-37.7178833307048

> <r_i_glide_energy>
-37.2568817138672

> <r_i_glide_einternal>
8.42157173156738

> <i_i_glide_confnum>
2

> <i_i_glide_posenum>
36

> <r_i_glide_eff_state_penalty>
0

> <s_user_duplicate_titles>
CHEMBL1862_lig500

> <s_m_subgroup_title>
dock_pv

> <s_m_subgroupid>
dock_pv

> <b_m_subgroup_collapsed>
0

$$$$
CHEMBL1862_lig424
                    3D
 Schrodinger Suite 2021-1.
 37 39  0  0  1  0            999 V2000
   16.8789   12.0330    2.3089 N   0  0  0  0  0  0
   15.5298   12.1420    2.2742 C   0  0  0  0  0  0
   14.7871   13.1043    2.8373 N   0  0  0  0  0  0
   17.5698   12.9977    2.9453 C   0  0  0  0  0  0
   16.9155   14.0158    3.6373 C   0  0  0  0  0  0
   15.5208   13.9818    3.5245 C   0  0  0  0  0  0
   15.0697   15.0776    4.1930 N   0  0  0  0  0  0
   16.0732   15.7202    4.8294 N   0  0  0  0  0  0
   17.1965   15.1617    4.4459 C   0  0  0  0  0  0
   18.5189   15.6830    4.8636 C   0  0  0  0  0  0
   19.3356   14.8726    5.6487 C   0  0  0  0  0  0
   20.6056   15.3001    6.0185 C   0  0  0  0  0  0
   21.0753   16.5489    5.6030 C   0  0  0  0  0  0
   20.2562   17.3722    4.8280 C   0  0  0  0  0  0
   18.9769   16.9433    4.4652 C   0  0  0  0  0  0
   18.9367   12.9623    2.8030 N   0  0  0  0  0  0
   22.3123   16.9695    5.9567 F   0  0  0  0  0  0
   21.3640   14.4805    6.8029 O   0  0  0  0  0  0
   13.7002   15.5385    4.1580 C   0  0  2  0  0  0
   13.5793   17.0618    4.1647 C   0  0  0  0  0  0
   12.8183   14.8126    5.1838 C   0  0  0  0  0  0
   12.5628   13.4297    4.8343 N   0  0  0  0  0  0
   14.9640   11.4430    1.6782 H   0  0  0  0  0  0
   18.9817   13.9061    5.9703 H   0  0  0  0  0  0
   20.6165   18.3381    4.5061 H   0  0  0  0  0  0
   18.3533   17.5794    3.8556 H   0  0  0  0  0  0
   19.5038   13.7238    3.1483 H   0  0  0  0  0  0
   19.3241   12.2379    2.1970 H   0  0  0  0  0  0
   22.3063   14.6968    6.7948 H   0  0  0  0  0  0
   13.3639   15.2330    3.1769 H   0  0  0  0  0  0
   12.5561   17.3384    4.4029 H   0  0  0  0  0  0
   14.2680   17.5615    4.8370 H   0  0  0  0  0  0
   13.7640   17.4946    3.2030 H   0  0  0  0  0  0
   13.2864   14.8329    6.1672 H   0  0  0  0  0  0
   11.8467   15.3048    5.2030 H   0  0  0  0  0  0
   11.8975   13.0250    5.4771 H   0  0  0  0  0  0
   12.1654   13.3482    3.9083 H   0  0  0  0  0  0
  1  2  2  0  0  0
  1  4  1  0  0  0
  2  3  1  0  0  0
  2 23  1  0  0  0
  3  6  2  0  0  0
  4  5  2  0  0  0
  4 16  1  0  0  0
  5  9  1  0  0  0
  5  6  1  0  0  0
  6  7  1  0  0  0
  7  8  1  0  0  0
  7 19  1  0  0  0
  8  9  2  0  0  0
  9 10  1  0  0  0
 10 11  2  0  0  0
 10 15  1  0  0  0
 11 12  1  0  0  0
 11 24  1  0  0  0
 12 13  2  0  0  0
 12 18  1  0  0  0
 13 14  1  0  0  0
 13 17  1  0  0  0
 14 15  2  0  0  0
 14 25  1  0  0  0
 15 26  1  0  0  0
 16 27  1  0  0  0
 16 28  1  0  0  0
 18 29  1  0  0  0
 19 20  1  0  0  0
 19 21  1  0  0  0
 19 30  1  0  0  0
 20 31  1  0  0  0
 20 32  1  0  0  0
 20 33  1  0  0  0
 21 22  1  0  0  0
 21 34  1  0  0  0
 21 35  1  0  0  0
 22 36  1  0  0  0
 22 37  1  0  0  0
M  END
> <s_m_entry_id>
6140

> <s_m_entry_name>
dock_pv.66

> <s_m_Source_Path>
/home/csk/Desktop/cluster/DUD-E-result/abl1

> <s_m_Source_File>
dock_pv.maegz

> <i_m_Source_File_Index>
66

> <chembl_id>
CHEMBL1242378

> <chembl_pref_name>
None

> <i_lp_mmshare_version>
53161

> <i_f3d_flags>
0

> <r_lp_tautomer_probability>
0.999999999997365

> <s_lp_Force_Field>
OPLS_2005

> <r_lp_Energy>
11.93136

> <b_lp_Chiralities_Consistent>
1

> <s_lp_Variant>
CHEMBL1862_lig424-1

> <s_i_glide_gridfile>
glide-grid_2hzi

> <i_i_glide_lignum>
509

> <i_i_glide_rotatable_bonds>
4

> <r_i_docking_score>
-10.7471197062457

> <r_i_glide_ligand_efficiency>
-0.488505441192986

> <r_i_glide_ligand_efficiency_sa>
-1.36881145805156

> <r_i_glide_ligand_efficiency_ln>
-2.62698806692251

> <r_i_glide_gscore>
-10.7471197062457

> <r_i_glide_lipo>
-3.01040494406226

> <r_i_glide_hbond>
-1.19658184489592

> <r_i_glide_metal>
0

> <r_i_glide_rewards>
-4.80023358507561

> <r_i_glide_evdw>
-17.5750560760498

> <r_i_glide_ecoul>
-8.42693519592285

> <r_i_glide_erotb>
0.402893750979008

> <r_i_glide_esite>
0

> <r_i_glide_emodel>
-25.7649924475969

> <r_i_glide_energy>
-26.0019912719727

> <r_i_glide_einternal>
4.42789649963379

> <i_i_glide_confnum>
2

> <i_i_glide_posenum>
55

> <r_i_glide_eff_state_penalty>
0

> <s_user_duplicate_titles>
CHEMBL1862_lig424

> <s_m_subgroup_title>
dock_pv

> <s_m_subgroupid>
dock_pv

> <b_m_subgroup_collapsed>
0

$$$$
CHEMBL1862_lig449
                    3D
 Schrodinger Suite 2021-1.
 39 42  0  0  1  0            999 V2000
   16.4803   12.0422    2.2253 N   0  0  0  0  0  0
   15.1381   12.2105    2.3082 C   0  0  0  0  0  0
   14.4652   13.1117    3.0512 N   0  0  0  0  0  0
   17.2431   12.9412    2.8868 C   0  0  0  0  0  0
   16.6770   13.9637    3.6377 C   0  0  0  0  0  0
   15.2743   13.9473    3.7043 C   0  0  0  0  0  0
   14.9474   14.9590    4.5690 N   0  0  0  0  0  0
   16.0444   15.6330    4.9771 N   0  0  0  0  0  0
   17.0832   15.0952    4.4030 C   0  0  0  0  0  0
   13.6571   15.4858    4.9442 C   0  0  0  0  0  0
   12.4669   14.5266    4.7216 C   0  0  0  0  0  0
   13.4949   16.8330    4.2462 C   0  0  0  0  0  0
   18.6107   12.8330    2.8030 N   0  0  0  0  0  0
   18.3805   15.6626    4.5880 C   0  0  0  0  0  0
   19.3220   15.0405    5.3627 N   0  0  0  0  0  0
   18.9119   16.8505    4.1210 C   0  0  0  0  0  0
   20.2112   16.9999    4.6900 C   0  0  0  0  0  0
   20.4366   15.8379    5.4810 C   0  0  0  0  0  0
   21.6027   15.6613    6.2144 C   0  0  0  0  0  0
   22.5244   16.7043    6.1841 C   0  0  0  0  0  0
   22.3434   17.8476    5.4162 C   0  0  0  0  0  0
   21.2024   17.9915    4.6332 C   0  0  0  0  0  0
   23.2948   18.8329    5.4569 O   0  0  0  0  0  0
   14.5221   11.6330    1.6447 H   0  0  0  0  0  0
   13.7640   15.6330    6.0030 H   0  0  0  0  0  0
   11.5523   14.9264    5.1580 H   0  0  0  0  0  0
   12.2631   14.3664    3.6627 H   0  0  0  0  0  0
   12.6443   13.5551    5.1848 H   0  0  0  0  0  0
   12.4780   17.2094    4.3300 H   0  0  0  0  0  0
   14.1640   17.5860    4.6649 H   0  0  0  0  0  0
   13.7640   16.7456    3.2030 H   0  0  0  0  0  0
   19.1885   13.5648    3.1906 H   0  0  0  0  0  0
   18.9970   12.1299    2.1739 H   0  0  0  0  0  0
   19.1450   14.1552    5.8134 H   0  0  0  0  0  0
   18.4041   17.5497    3.4794 H   0  0  0  0  0  0
   21.7640   14.7773    6.8035 H   0  0  0  0  0  0
   23.3958   16.6277    6.8030 H   0  0  0  0  0  0
   21.0736   18.8499    4.0031 H   0  0  0  0  0  0
   22.9640   19.7377    5.4317 H   0  0  0  0  0  0
  1  2  2  0  0  0
  1  4  1  0  0  0
  2  3  1  0  0  0
  2 24  1  0  0  0
  3  6  2  0  0  0
  4 13  1  0  0  0
  4  5  2  0  0  0
  5  9  1  0  0  0
  5  6  1  0  0  0
  6  7  1  0  0  0
  7  8  1  0  0  0
  7 10  1  0  0  0
  8  9  2  0  0  0
  9 14  1  0  0  0
 10 11  1  0  0  0
 10 12  1  0  0  0
 10 25  1  0  0  0
 11 26  1  0  0  0
 11 27  1  0  0  0
 11 28  1  0  0  0
 12 29  1  0  0  0
 12 30  1  0  0  0
 12 31  1  0  0  0
 13 32  1  0  0  0
 13 33  1  0  0  0
 14 15  1  0  0  0
 14 16  2  0  0  0
 15 18  1  0  0  0
 15 34  1  0  0  0
 16 17  1  0  0  0
 16 35  1  0  0  0
 17 18  2  0  0  0
 17 22  1  0  0  0
 18 19  1  0  0  0
 19 20  2  0  0  0
 19 36  1  0  0  0
 20 21  1  0  0  0
 20 37  1  0  0  0
 21 22  2  0  0  0
 21 23  1  0  0  0
 22 38  1  0  0  0
 23 39  1  0  0  0
M  END
> <s_m_entry_id>
6141

> <s_m_entry_name>
dock_pv.67

> <s_m_Source_Path>
/home/csk/Desktop/cluster/DUD-E-result/abl1

> <s_m_Source_File>
dock_pv.maegz

> <i_m_Source_File_Index>
67

> <chembl_id>
CHEMBL1241674

> <chembl_pref_name>
None

> <i_lp_mmshare_version>
53161

> <i_f3d_flags>
0

> <r_lp_tautomer_probability>
1

> <s_lp_Force_Field>
OPLS_2005

> <r_lp_Energy>
7.712214

> <b_lp_Chiralities_Consistent>
1

> <s_lp_Variant>
CHEMBL1862_lig449-1

> <s_i_glide_gridfile>
glide-grid_2hzi

> <i_i_glide_lignum>
537

> <i_i_glide_rotatable_bonds>
3

> <r_i_docking_score>
-10.7408082530818

> <r_i_glide_ligand_efficiency>
-0.46699166317747

> <r_i_glide_ligand_efficiency_sa>
-1.32806216938833

> <r_i_glide_ligand_efficiency_ln>
-2.5972248278598

> <r_i_glide_gscore>
-10.7408082530818

> <r_i_glide_lipo>
-3.75573897025844

> <r_i_glide_hbond>
-0.655379721899215

> <r_i_glide_metal>
0

> <r_i_glide_rewards>
-3.60517926421388

> <r_i_glide_evdw>
-32.6430511474609

> <r_i_glide_ecoul>
-8.19046974182129

> <r_i_glide_erotb>
0.136212721935974

> <r_i_glide_esite>
0

> <r_i_glide_emodel>
-38.5730781121255

> <r_i_glide_energy>
-40.8335208892822

> <r_i_glide_einternal>
6.45925903320312

> <i_i_glide_confnum>
2

> <i_i_glide_posenum>
80

> <r_i_glide_eff_state_penalty>
0

> <s_user_duplicate_titles>
CHEMBL1862_lig449

> <s_m_subgroup_title>
dock_pv

> <s_m_subgroupid>
dock_pv

> <b_m_subgroup_collapsed>
0

$$$$
CHEMBL1862_lig538
                    3D
 Schrodinger Suite 2021-1.
 37 40  0  0  1  0            999 V2000
   16.8226   12.0499    2.3725 N   0  0  0  0  0  0
   15.4867   12.2609    2.4196 C   0  0  0  0  0  0
   14.8374   13.2195    3.1050 N   0  0  0  0  0  0
   17.6072   12.9626    2.9860 C   0  0  0  0  0  0
   17.0645   14.0036    3.7440 C   0  0  0  0  0  0
   15.6578   14.0330    3.7736 C   0  0  0  0  0  0
   15.3301   15.0323    4.6533 N   0  0  0  0  0  0
   16.4368   15.6721    5.1023 N   0  0  0  0  0  0
   17.4844   15.0957    4.5672 C   0  0  0  0  0  0
   18.8582   15.5295    4.9231 C   0  0  0  0  0  0
   19.4522   16.6256    4.2893 C   0  0  0  0  0  0
   20.7878   15.2329    6.3929 C   0  0  0  0  0  0
   19.5179   14.8597    5.9551 C   0  0  0  0  0  0
   18.9640   12.8340    2.8030 N   0  0  0  0  0  0
   14.0247   15.5143    5.0679 C   0  0  0  0  0  0
   12.8597   14.5231    4.8289 C   0  0  0  0  0  0
   13.7640   16.8330    4.3311 C   0  0  0  0  0  0
   21.3719   16.3306    5.7598 C   0  0  0  0  0  0
   20.7282   17.0343    4.7123 C   0  0  0  0  0  0
   21.6594   18.0587    4.3627 C   0  0  0  0  0  0
   22.7358   18.0075    5.1035 N   0  0  0  0  0  0
   22.5772   16.9731    5.9473 N   0  0  0  0  0  0
   14.8540   11.6330    1.8173 H   0  0  0  0  0  0
   18.9358   17.1508    3.4995 H   0  0  0  0  0  0
   21.2825   14.7021    7.1884 H   0  0  0  0  0  0
   19.0257   14.0330    6.4410 H   0  0  0  0  0  0
   19.5828   13.5508    3.1557 H   0  0  0  0  0  0
   19.2938   12.1122    2.1583 H   0  0  0  0  0  0
   14.1516   15.6330    6.1422 H   0  0  0  0  0  0
   11.9176   14.9173    5.2030 H   0  0  0  0  0  0
   12.6838   14.3432    3.7686 H   0  0  0  0  0  0
   13.0337   13.5645    5.3167 H   0  0  0  0  0  0
   12.7209   17.1368    4.4030 H   0  0  0  0  0  0
   14.3881   17.6354    4.7274 H   0  0  0  0  0  0
   13.9786   16.7256    3.2686 H   0  0  0  0  0  0
   21.5603   18.8171    3.6027 H   0  0  0  0  0  0
   23.3069   16.7392    6.6067 H   0  0  0  0  0  0
  1  2  2  0  0  0
  1  4  1  0  0  0
  2  3  1  0  0  0
  2 23  1  0  0  0
  3  6  2  0  0  0
  4 14  1  0  0  0
  4  5  2  0  0  0
  5  9  1  0  0  0
  5  6  1  0  0  0
  6  7  1  0  0  0
  7 15  1  0  0  0
  7  8  1  0  0  0
  8  9  2  0  0  0
  9 10  1  0  0  0
 10 11  2  0  0  0
 10 13  1  0  0  0
 11 19  1  0  0  0
 11 24  1  0  0  0
 12 18  1  0  0  0
 12 13  2  0  0  0
 12 25  1  0  0  0
 13 26  1  0  0  0
 14 27  1  0  0  0
 14 28  1  0  0  0
 15 16  1  0  0  0
 15 17  1  0  0  0
 15 29  1  0  0  0
 16 30  1  0  0  0
 16 31  1  0  0  0
 16 32  1  0  0  0
 17 33  1  0  0  0
 17 34  1  0  0  0
 17 35  1  0  0  0
 18 19  2  0  0  0
 18 22  1  0  0  0
 19 20  1  0  0  0
 20 21  2  0  0  0
 20 36  1  0  0  0
 21 22  1  0  0  0
 22 37  1  0  0  0
M  END
> <s_m_entry_id>
6142

> <s_m_entry_name>
dock_pv.68

> <s_m_Source_Path>
/home/csk/Desktop/cluster/DUD-E-result/abl1

> <s_m_Source_File>
dock_pv.maegz

> <i_m_Source_File_Index>
68

> <chembl_id>
CHEMBL1242386

> <chembl_pref_name>
None

> <i_lp_mmshare_version>
53161

> <i_f3d_flags>
0

> <r_lp_tautomer_probability>
0.980392156862745

> <s_lp_Force_Field>
OPLS_2005

> <r_lp_Energy>
13.324155

> <b_lp_Chiralities_Consistent>
1

> <s_lp_Variant>
CHEMBL1862_lig538-1

> <s_i_glide_gridfile>
glide-grid_2hzi

> <i_i_glide_lignum>
636

> <i_i_glide_rotatable_bonds>
2

> <r_i_docking_score>
-10.7337630549108

> <r_i_glide_ligand_efficiency>
-0.487898320677762

> <r_i_glide_ligand_efficiency_sa>
-1.36711028249121

> <r_i_glide_ligand_efficiency_ln>
-2.62372321414056

> <r_i_glide_gscore>
-10.7337630549108

> <r_i_glide_lipo>
-3.44481616479294

> <r_i_glide_hbond>
-0.605621312177233

> <r_i_glide_metal>
0

> <r_i_glide_rewards>
-4.12963925722849

> <r_i_glide_evdw>
-33.450252532959

> <r_i_glide_ecoul>
-7.29018831253052

> <r_i_glide_erotb>
0.212354552815411

> <r_i_glide_esite>
0

> <r_i_glide_emodel>
-50.5373126256423

> <r_i_glide_energy>
-40.7404408454895

> <r_i_glide_einternal>
6.66138219833374

> <i_i_glide_confnum>
1

> <i_i_glide_posenum>
195

> <r_i_glide_eff_state_penalty>
0

> <s_user_duplicate_titles>
CHEMBL1862_lig538,CHEMBL1862_lig538

> <s_m_subgroup_title>
dock_pv

> <s_m_subgroupid>
dock_pv

> <b_m_subgroup_collapsed>
0

$$$$
CHEMBL1862_lig431
                    3D
 Schrodinger Suite 2021-1.
 42 45  0  0  1  0            999 V2000
   16.1105   12.0344    2.2363 N   0  0  0  0  0  0
   17.2972   12.6077    2.5481 C   0  0  0  0  0  0
   17.5075   13.6871    3.3409 N   0  0  0  0  0  0
   15.0099   12.5716    2.8059 C   0  0  0  0  0  0
   15.0937   13.6250    3.7194 C   0  0  0  0  0  0
   16.3846   14.1518    3.9094 C   0  0  0  0  0  0
   16.2395   15.1943    4.8029 N   0  0  0  0  0  0
   14.9444   15.2559    5.2513 N   0  0  0  0  0  0
   14.2291   14.3418    4.6064 C   0  0  0  0  0  0
   12.7412   14.0785    4.7697 C   0  0  0  0  0  0
   12.0665   13.8016    5.9683 C   0  0  0  0  0  0
   10.6781   13.6327    6.0032 C   0  0  0  0  0  0
    9.9417   13.6350    4.8238 C   0  0  0  0  0  0
   10.5975   13.8140    3.6160 C   0  0  0  0  0  0
   11.9762   14.0330    3.6030 C   0  0  0  0  0  0
   13.7867   12.0323    2.4698 N   0  0  0  0  0  0
    8.5998   13.4609    4.8454 F   0  0  0  0  0  0
   10.0368   13.4503    7.1974 O   0  0  0  0  0  0
   17.3185   16.0451    5.3614 C   0  0  1  0  0  0
   18.3707   15.2331    6.1439 C   0  0  0  0  0  0
   19.7717   15.7633    5.8030 C   0  0  0  0  0  0
   19.5626   16.9861    4.9096 C   0  0  2  0  0  0
   18.1770   16.7642    4.2951 C   0  0  0  0  0  0
   20.6635   17.1507    3.8473 C   0  0  0  0  0  0
   18.1633   12.2181    2.0354 H   0  0  0  0  0  0
   12.5640   13.8017    6.9199 H   0  0  0  0  0  0
   10.0246   13.8001    2.7027 H   0  0  0  0  0  0
   12.4721   14.2181    2.6644 H   0  0  0  0  0  0
   12.9747   12.3478    2.9781 H   0  0  0  0  0  0
   13.7649   11.1274    1.9975 H   0  0  0  0  0  0
    9.0813   13.3892    7.0981 H   0  0  0  0  0  0
   16.8575   16.7849    6.0204 H   0  0  0  0  0  0
   18.1670   15.2748    7.2082 H   0  0  0  0  0  0
   18.3664   14.1815    5.8605 H   0  0  0  0  0  0
   20.3334   16.0234    6.7005 H   0  0  0  0  0  0
   20.3521   14.9948    5.2881 H   0  0  0  0  0  0
   19.5435   17.8860    5.5284 H   0  0  0  0  0  0
   18.2800   16.1715    3.3858 H   0  0  0  0  0  0
   17.7641   17.7181    4.0038 H   0  0  0  0  0  0
   20.7321   16.2748    3.2003 H   0  0  0  0  0  0
   20.4715   18.0140    3.2103 H   0  0  0  0  0  0
   21.6400   17.2949    4.3117 H   0  0  0  0  0  0
  1  2  2  0  0  0
  1  4  1  0  0  0
  2  3  1  0  0  0
  2 25  1  0  0  0
  3  6  2  0  0  0
  4  5  2  0  0  0
  4 16  1  0  0  0
  5  9  1  0  0  0
  5  6  1  0  0  0
  6  7  1  0  0  0
  7  8  1  0  0  0
  7 19  1  0  0  0
  8  9  2  0  0  0
  9 10  1  0  0  0
 10 15  1  0  0  0
 10 11  2  0  0  0
 11 12  1  0  0  0
 11 26  1  0  0  0
 12 13  2  0  0  0
 12 18  1  0  0  0
 13 14  1  0  0  0
 13 17  1  0  0  0
 14 15  2  0  0  0
 14 27  1  0  0  0
 15 28  1  0  0  0
 16 29  1  0  0  0
 16 30  1  0  0  0
 18 31  1  0  0  0
 19 20  1  0  0  0
 19 23  1  0  0  0
 19 32  1  0  0  0
 20 21  1  0  0  0
 20 33  1  0  0  0
 20 34  1  0  0  0
 21 22  1  0  0  0
 21 35  1  0  0  0
 21 36  1  0  0  0
 22 23  1  0  0  0
 22 24  1  0  0  0
 22 37  1  0  0  0
 23 38  1  0  0  0
 23 39  1  0  0  0
 24 40  1  0  0  0
 24 41  1  0  0  0
 24 42  1  0  0  0
M  END
> <s_m_entry_id>
6143

> <s_m_entry_name>
dock_pv.69

> <s_m_Source_Path>
/home/csk/Desktop/cluster/DUD-E-result/abl1

> <s_m_Source_File>
dock_pv.maegz

> <i_m_Source_File_Index>
69

> <chembl_id>
CHEMBL1242656

> <chembl_pref_name>
None

> <i_lp_mmshare_version>
53161

> <i_f3d_flags>
0

> <r_lp_tautomer_probability>
0.999999999997365

> <s_lp_Force_Field>
OPLS_2005

> <r_lp_Energy>
30.720797

> <b_lp_Chiralities_Consistent>
1

> <s_lp_Variant>
CHEMBL1862_lig431-2

> <s_i_glide_gridfile>
glide-grid_2hzi

> <i_i_glide_lignum>
517

> <i_i_glide_rotatable_bonds>
3

> <r_i_docking_score>
-10.7276561616728

> <r_i_glide_ligand_efficiency>
-0.446985673403035

> <r_i_glide_ligand_efficiency_sa>
-1.28932978943234

> <r_i_glide_ligand_efficiency_ln>
-2.56762037955347

> <r_i_glide_gscore>
-10.7276561616728

> <r_i_glide_lipo>
-3.80421280390912

> <r_i_glide_hbond>
-0.714367229334481

> <r_i_glide_metal>
0

> <r_i_glide_rewards>
-3.77711800836783

> <r_i_glide_evdw>
-29.1000499725342

> <r_i_glide_ecoul>
-8.1475658416748

> <r_i_glide_erotb>
0.245179254816529

> <r_i_glide_esite>
0

> <r_i_glide_emodel>
-38.9351321343846

> <r_i_glide_energy>
-37.247615814209

> <r_i_glide_einternal>
2.35354471206665

> <i_i_glide_confnum>
30

> <i_i_glide_posenum>
180

> <r_i_glide_eff_state_penalty>
0

> <s_user_duplicate_titles>
CHEMBL1862_lig431

> <s_m_subgroup_title>
dock_pv

> <s_m_subgroupid>
dock_pv

> <b_m_subgroup_collapsed>
0

$$$$
CHEMBL1862_lig440
                    3D
 Schrodinger Suite 2021-1.
 38 40  0  0  1  0            999 V2000
   16.7105   12.0330    2.3903 N   0  0  0  0  0  0
   15.3648   12.1429    2.4743 C   0  0  0  0  0  0
   14.6701   13.0860    3.1426 N   0  0  0  0  0  0
   17.4532   12.9871    2.9845 C   0  0  0  0  0  0
   16.8636   14.0065    3.7324 C   0  0  0  0  0  0
   15.4554   13.9703    3.7686 C   0  0  0  0  0  0
   15.0899   15.0043    4.5921 N   0  0  0  0  0  0
   16.1751   15.6752    5.0520 N   0  0  0  0  0  0
   17.2449   15.1227    4.5396 C   0  0  0  0  0  0
   18.6108   15.6008    4.8776 C   0  0  0  0  0  0
   19.1006   16.8157    4.3879 C   0  0  0  0  0  0
   20.4030   17.2258    4.6911 C   0  0  0  0  0  0
   21.2028   16.4377    5.5298 C   0  0  0  0  0  0
   20.7115   15.2335    6.0297 C   0  0  0  0  0  0
   19.4210   14.8186    5.7035 C   0  0  0  0  0  0
   18.8148   12.9090    2.8030 N   0  0  0  0  0  0
   22.4537   16.8342    5.8603 F   0  0  0  0  0  0
   20.8690   18.4130    4.1853 O   0  0  0  0  0  0
   13.7677   15.4889    4.9432 C   0  0  0  0  0  0
   12.6114   14.4937    4.6980 C   0  0  0  0  0  0
   13.5496   16.8330    4.2596 C   0  0  0  0  0  0
   21.7676   18.2614    3.0933 C   0  0  0  0  0  0
   14.7782   11.4036    1.9485 H   0  0  0  0  0  0
   18.4819   17.4322    3.7522 H   0  0  0  0  0  0
   21.3361   14.6205    6.6622 H   0  0  0  0  0  0
   19.0511   13.8798    6.0892 H   0  0  0  0  0  0
   19.4122   13.6455    3.1510 H   0  0  0  0  0  0
   19.1695   12.1837    2.1795 H   0  0  0  0  0  0
   13.8253   15.6330    6.0030 H   0  0  0  0  0  0
   11.6791   14.8610    5.1262 H   0  0  0  0  0  0
   12.4279   14.3347    3.6350 H   0  0  0  0  0  0
   12.8116   13.5258    5.1594 H   0  0  0  0  0  0
   12.5225   17.1689    4.3951 H   0  0  0  0  0  0
   14.2083   17.6045    4.6584 H   0  0  0  0  0  0
   13.7640   16.7516    3.2030 H   0  0  0  0  0  0
   22.1632   19.2330    2.8030 H   0  0  0  0  0  0
   22.6220   17.6330    3.3477 H   0  0  0  0  0  0
   21.2656   17.8325    2.2244 H   0  0  0  0  0  0
  1  2  2  0  0  0
  1  4  1  0  0  0
  2  3  1  0  0  0
  2 23  1  0  0  0
  3  6  2  0  0  0
  4  5  2  0  0  0
  4 16  1  0  0  0
  5  9  1  0  0  0
  5  6  1  0  0  0
  6  7  1  0  0  0
  7  8  1  0  0  0
  7 19  1  0  0  0
  8  9  2  0  0  0
  9 10  1  0  0  0
 10 11  2  0  0  0
 10 15  1  0  0  0
 11 12  1  0  0  0
 11 24  1  0  0  0
 12 13  2  0  0  0
 12 18  1  0  0  0
 13 14  1  0  0  0
 13 17  1  0  0  0
 14 15  2  0  0  0
 14 25  1  0  0  0
 15 26  1  0  0  0
 16 27  1  0  0  0
 16 28  1  0  0  0
 18 22  1  0  0  0
 19 20  1  0  0  0
 19 21  1  0  0  0
 19 29  1  0  0  0
 20 30  1  0  0  0
 20 31  1  0  0  0
 20 32  1  0  0  0
 21 33  1  0  0  0
 21 34  1  0  0  0
 21 35  1  0  0  0
 22 36  1  0  0  0
 22 37  1  0  0  0
 22 38  1  0  0  0
M  END
> <s_m_entry_id>
6144

> <s_m_entry_name>
dock_pv.70

> <s_m_Source_Path>
/home/csk/Desktop/cluster/DUD-E-result/abl1

> <s_m_Source_File>
dock_pv.maegz

> <i_m_Source_File_Index>
70

> <chembl_id>
CHEMBL1241483

> <chembl_pref_name>
None

> <i_lp_mmshare_version>
53161

> <i_f3d_flags>
0

> <r_lp_tautomer_probability>
1

> <s_lp_Force_Field>
OPLS_2005

> <r_lp_Energy>
16.042216

> <b_lp_Chiralities_Consistent>
1

> <s_lp_Variant>
CHEMBL1862_lig440-1

> <s_i_glide_gridfile>
glide-grid_2hzi

> <i_i_glide_lignum>
528

> <i_i_glide_rotatable_bonds>
3

> <r_i_docking_score>
-10.7252583988482

> <r_i_glide_ligand_efficiency>
-0.487511745402191

> <r_i_glide_ligand_efficiency_sa>
-1.36602708336591

> <r_i_glide_ligand_efficiency_ln>
-2.621644365984

> <r_i_glide_gscore>
-10.7252583988482

> <r_i_glide_lipo>
-3.43123429329798

> <r_i_glide_hbond>
-0.611001743580864

> <r_i_glide_metal>
0

> <r_i_glide_rewards>
-4.42856370181494

> <r_i_glide_evdw>
-29.6906280517578

> <r_i_glide_ecoul>
-6.48354864120483

> <r_i_glide_erotb>
0.202605038614198

> <r_i_glide_esite>
0

> <r_i_glide_emodel>
-41.920887318034

> <r_i_glide_energy>
-36.1741766929626

> <r_i_glide_einternal>
12.401517868042

> <i_i_glide_confnum>
4

> <i_i_glide_posenum>
378

> <r_i_glide_eff_state_penalty>
0

> <s_user_duplicate_titles>
CHEMBL1862_lig440

> <s_m_subgroup_title>
dock_pv

> <s_m_subgroupid>
dock_pv

> <b_m_subgroup_collapsed>
0

$$$$
CHEMBL1862_lig551
                    3D
 Schrodinger Suite 2021-1.
 37 40  0  0  1  0            999 V2000
   16.5868   12.0672    2.2442 N   0  0  0  0  0  0
   15.2475   12.2522    2.3138 C   0  0  0  0  0  0
   14.5869   13.1819    3.0299 N   0  0  0  0  0  0
   17.3596   12.9606    2.9029 C   0  0  0  0  0  0
   16.8066   13.9860    3.6643 C   0  0  0  0  0  0
   15.4024   13.9994    3.6997 C   0  0  0  0  0  0
   15.0728   14.9971    4.5780 N   0  0  0  0  0  0
   16.1778   15.6329    5.0414 N   0  0  0  0  0  0
   17.2270   15.0736    4.4910 C   0  0  0  0  0  0
   18.6066   15.5331    4.8053 C   0  0  0  0  0  0
   19.2579   16.4379    3.9552 C   0  0  0  0  0  0
   20.4841   15.5319    6.3669 C   0  0  0  0  0  0
   19.2123   15.1015    5.9906 C   0  0  0  0  0  0
   18.7241   12.8330    2.8030 N   0  0  0  0  0  0
   13.7645   15.4934    4.9550 C   0  0  0  0  0  0
   12.5962   14.5038    4.7414 C   0  0  0  0  0  0
   13.5476   16.8330    4.2609 C   0  0  0  0  0  0
   21.1005   16.4679    5.5360 C   0  0  0  0  0  0
   20.5179   16.9342    4.3335 C   0  0  0  0  0  0
   21.4653   17.8688    3.8098 C   0  0  0  0  0  0
   22.4927   17.9359    4.7418 C   0  0  0  0  0  0
   22.2974   17.0749    5.7780 O   0  0  0  0  0  0
   14.6218   11.6330    1.6945 H   0  0  0  0  0  0
   18.7841   16.7771    3.0462 H   0  0  0  0  0  0
   20.9536   15.2037    7.2787 H   0  0  0  0  0  0
   18.6765   14.4330    6.6438 H   0  0  0  0  0  0
   19.3187   13.5340    3.2213 H   0  0  0  0  0  0
   19.0955   12.1224    2.1725 H   0  0  0  0  0  0
   13.8516   15.6330    6.0134 H   0  0  0  0  0  0
   11.6798   14.8696    5.2028 H   0  0  0  0  0  0
   12.3730   14.3556    3.6847 H   0  0  0  0  0  0
   12.8095   13.5306    5.1857 H   0  0  0  0  0  0
   12.5210   17.1712    4.3941 H   0  0  0  0  0  0
   14.2068   17.6055    4.6566 H   0  0  0  0  0  0
   13.7640   16.7465    3.2030 H   0  0  0  0  0  0
   21.4082   18.4329    2.8921 H   0  0  0  0  0  0
   23.3993   18.5194    4.8030 H   0  0  0  0  0  0
  1  2  2  0  0  0
  1  4  1  0  0  0
  2  3  1  0  0  0
  2 23  1  0  0  0
  3  6  2  0  0  0
  4 14  1  0  0  0
  4  5  2  0  0  0
  5  9  1  0  0  0
  5  6  1  0  0  0
  6  7  1  0  0  0
  7 15  1  0  0  0
  7  8  1  0  0  0
  8  9  2  0  0  0
  9 10  1  0  0  0
 10 11  2  0  0  0
 10 13  1  0  0  0
 11 19  1  0  0  0
 11 24  1  0  0  0
 12 18  1  0  0  0
 12 13  2  0  0  0
 12 25  1  0  0  0
 13 26  1  0  0  0
 14 27  1  0  0  0
 14 28  1  0  0  0
 15 16  1  0  0  0
 15 17  1  0  0  0
 15 29  1  0  0  0
 16 30  1  0  0  0
 16 31  1  0  0  0
 16 32  1  0  0  0
 17 33  1  0  0  0
 17 34  1  0  0  0
 17 35  1  0  0  0
 18 19  2  0  0  0
 18 22  1  0  0  0
 19 20  1  0  0  0
 20 21  2  0  0  0
 20 36  1  0  0  0
 21 22  1  0  0  0
 21 37  1  0  0  0
M  END
> <s_m_entry_id>
6145

> <s_m_entry_name>
dock_pv.71

> <s_m_Source_Path>
/home/csk/Desktop/cluster/DUD-E-result/abl1

> <s_m_Source_File>
dock_pv.maegz

> <i_m_Source_File_Index>
71

> <chembl_id>
CHEMBL1241490

> <chembl_pref_name>
None

> <i_lp_mmshare_version>
53161

> <i_f3d_flags>
0

> <r_lp_tautomer_probability>
1

> <s_lp_Force_Field>
OPLS_2005

> <r_lp_Energy>
11.805126

> <b_lp_Chiralities_Consistent>
1

> <s_lp_Variant>
CHEMBL1862_lig551-1

> <s_i_glide_gridfile>
glide-grid_2hzi

> <i_i_glide_lignum>
654

> <i_i_glide_rotatable_bonds>
2

> <r_i_docking_score>
-10.7214355582857

> <r_i_glide_ligand_efficiency>
-0.487337979922076

> <r_i_glide_ligand_efficiency_sa>
-1.36554018565682

> <r_i_glide_ligand_efficiency_ln>
-2.62070992430902

> <r_i_glide_gscore>
-10.7214355582857

> <r_i_glide_lipo>
-3.7119312873223

> <r_i_glide_hbond>
-0.608

> <r_i_glide_metal>
0

> <r_i_glide_rewards>
-4.13438432536812

> <r_i_glide_evdw>
-30.7592315673828

> <r_i_glide_ecoul>
-6.27678060531616

> <r_i_glide_erotb>
0.212358723571313

> <r_i_glide_esite>
0

> <r_i_glide_emodel>
-44.3707207898278

> <r_i_glide_energy>
-37.036012172699

> <r_i_glide_einternal>
7.14501667022705

> <i_i_glide_confnum>
4

> <i_i_glide_posenum>
22

> <r_i_glide_eff_state_penalty>
0

> <s_user_duplicate_titles>
CHEMBL1862_lig551

> <s_m_subgroup_title>
dock_pv

> <s_m_subgroupid>
dock_pv

> <b_m_subgroup_collapsed>
0

$$$$
CHEMBL1862_lig532
                    3D
 Schrodinger Suite 2021-1.
 31 34  0  0  1  0            999 V2000
   16.4285   12.0530    2.4980 N   0  0  0  0  0  0
   15.0976   12.3043    2.5342 C   0  0  0  0  0  0
   14.4680   13.3113    3.1834 N   0  0  0  0  0  0
   17.2237   12.9181    3.1735 C   0  0  0  0  0  0
   16.7162   14.0368    3.8429 C   0  0  0  0  0  0
   15.3185   14.1456    3.7926 C   0  0  0  0  0  0
   15.0232   15.2946    4.4692 N   0  0  0  0  0  0
   16.1231   15.8537    5.0290 N   0  0  0  0  0  0
   17.1669   15.1628    4.6196 C   0  0  0  0  0  0
   18.5676   15.5614    4.9711 C   0  0  0  0  0  0
   19.1784   16.6626    4.3534 C   0  0  0  0  0  0
   20.5617   15.1438    6.3412 N   0  0  0  0  0  0
   19.2947   14.8610    5.9420 C   0  0  0  0  0  0
   18.5640   12.6389    3.1977 N   0  0  0  0  0  0
   13.7195   15.8820    4.6241 C   0  0  0  0  0  0
   21.1125   16.1922    5.7292 C   0  0  0  0  0  0
   20.4935   17.0012    4.7325 C   0  0  0  0  0  0
   21.4565   18.0051    4.3715 C   0  0  0  0  0  0
   22.5773   17.7931    5.1545 C   0  0  0  0  0  0
   22.3736   16.6966    5.9570 N   0  0  0  0  0  0
   14.4636   11.6359    1.9741 H   0  0  0  0  0  0
   18.6524   17.2353    3.6041 H   0  0  0  0  0  0
   18.8565   14.0344    6.4607 H   0  0  0  0  0  0
   19.1919   13.3080    3.6204 H   0  0  0  0  0  0
   18.9148   11.8834    2.6186 H   0  0  0  0  0  0
   13.0172   15.4084    3.9463 H   0  0  0  0  0  0
   13.3641   15.6332    5.6043 H   0  0  0  0  0  0
   13.7604   16.9550    4.4349 H   0  0  0  0  0  0
   21.3635   18.7917    3.6388 H   0  0  0  0  0  0
   23.5178   18.3259    5.2029 H   0  0  0  0  0  0
   23.0718   16.3422    6.5964 H   0  0  0  0  0  0
  1  4  1  0  0  0
  1  2  2  0  0  0
  2  3  1  0  0  0
  2 21  1  0  0  0
  3  6  2  0  0  0
  4 14  1  0  0  0
  4  5  2  0  0  0
  5  6  1  0  0  0
  5  9  1  0  0  0
  6  7  1  0  0  0
  7 15  1  0  0  0
  7  8  1  0  0  0
  8  9  2  0  0  0
  9 10  1  0  0  0
 10 11  2  0  0  0
 10 13  1  0  0  0
 11 17  1  0  0  0
 11 22  1  0  0  0
 12 16  1  0  0  0
 12 13  2  0  0  0
 13 23  1  0  0  0
 14 24  1  0  0  0
 14 25  1  0  0  0
 15 26  1  0  0  0
 15 27  1  0  0  0
 15 28  1  0  0  0
 16 17  2  0  0  0
 16 20  1  0  0  0
 17 18  1  0  0  0
 18 19  2  0  0  0
 18 29  1  0  0  0
 19 20  1  0  0  0
 19 30  1  0  0  0
 20 31  1  0  0  0
M  END
> <s_m_entry_id>
6146

> <s_m_entry_name>
dock_pv.72

> <s_m_Source_Path>
/home/csk/Desktop/cluster/DUD-E-result/abl1

> <s_m_Source_File>
dock_pv.maegz

> <i_m_Source_File_Index>
72

> <chembl_id>
CHEMBL1240565

> <chembl_pref_name>
None

> <i_lp_mmshare_version>
53161

> <i_f3d_flags>
0

> <r_lp_tautomer_probability>
0.999998432528457

> <s_lp_Force_Field>
OPLS_2005

> <r_lp_Energy>
9.306603

> <b_lp_Chiralities_Consistent>
1

> <s_lp_Variant>
CHEMBL1862_lig532-1

> <s_i_glide_gridfile>
glide-grid_2hzi

> <i_i_glide_lignum>
630

> <i_i_glide_rotatable_bonds>
1

> <r_i_docking_score>
-10.6970926550331

> <r_i_glide_ligand_efficiency>
-0.534854632751653

> <r_i_glide_ligand_efficiency_sa>
-1.45181883600873

> <r_i_glide_ligand_efficiency_ln>
-2.67712947782624

> <r_i_glide_gscore>
-10.6970926550331

> <r_i_glide_lipo>
-2.73932411713549

> <r_i_glide_hbond>
-0.579110146239899

> <r_i_glide_metal>
0

> <r_i_glide_rewards>
-4.80830096979597

> <r_i_glide_evdw>
-37.4463310241699

> <r_i_glide_ecoul>
-5.83354949951172

> <r_i_glide_erotb>
0.176991554273547

> <r_i_glide_esite>
0

> <r_i_glide_emodel>
-65.8802206580761

> <r_i_glide_energy>
-43.2798805236816

> <r_i_glide_einternal>
3.49046444892883

> <i_i_glide_confnum>
2

> <i_i_glide_posenum>
363

> <r_i_glide_eff_state_penalty>
0

> <s_user_duplicate_titles>
CHEMBL1862_lig532

> <s_m_subgroup_title>
dock_pv

> <s_m_subgroupid>
dock_pv

> <b_m_subgroup_collapsed>
0

$$$$
CHEMBL1862_lig442
                    3D
 Schrodinger Suite 2021-1.
 37 39  0  0  1  0            999 V2000
   16.8935   12.0346    2.3110 N   0  0  0  0  0  0
   15.5373   12.0543    2.3534 C   0  0  0  0  0  0
   14.7689   12.9500    2.9861 N   0  0  0  0  0  0
   17.5673   13.0071    2.9503 C   0  0  0  0  0  0
   16.8887   13.9892    3.6618 C   0  0  0  0  0  0
   15.4946   13.8746    3.6152 C   0  0  0  0  0  0
   15.0173   14.9613    4.2698 N   0  0  0  0  0  0
   16.0090   15.6650    4.8596 N   0  0  0  0  0  0
   17.1436   15.1478    4.4547 C   0  0  0  0  0  0
   18.4550   15.7336    4.8087 C   0  0  0  0  0  0
   19.3159   15.0208    5.6409 C   0  0  0  0  0  0
   20.5698   15.5360    5.9538 C   0  0  0  0  0  0
   20.9865   16.7597    5.4170 C   0  0  0  0  0  0
   20.1197   17.4796    4.5941 C   0  0  0  0  0  0
   18.8542   16.9721    4.2983 C   0  0  0  0  0  0
   18.9371   13.0088    2.8049 N   0  0  0  0  0  0
   22.5577   17.3998    5.7542 Cl  0  0  0  0  0  0
   21.3649   14.8244    6.8032 O   0  0  0  0  0  0
   13.6361   15.3695    4.2052 C   0  0  1  0  0  0
   12.7778   14.5016    5.1480 C   0  0  0  0  0  0
   13.4910   16.8910    4.2137 C   0  0  0  0  0  0
   11.3652   14.5775    4.8026 N   0  0  0  0  0  0
   14.9709   11.3443    1.7686 H   0  0  0  0  0  0
   19.0158   14.0624    6.0404 H   0  0  0  0  0  0
   20.4316   18.4273    4.1805 H   0  0  0  0  0  0
   18.1950   17.5279    3.6504 H   0  0  0  0  0  0
   19.4891   13.7800    3.1630 H   0  0  0  0  0  0
   19.3372   12.2977    2.2013 H   0  0  0  0  0  0
   22.2815   15.1221    6.7936 H   0  0  0  0  0  0
   13.3622   15.0852    3.1981 H   0  0  0  0  0  0
   13.0680   13.4527    5.0666 H   0  0  0  0  0  0
   12.9671   14.7673    6.1794 H   0  0  0  0  0  0
   12.4582   17.1833    4.3939 H   0  0  0  0  0  0
   14.1661   17.3879    4.9045 H   0  0  0  0  0  0
   13.7655   17.3003    3.2512 H   0  0  0  0  0  0
   11.2106   14.1456    3.9013 H   0  0  0  0  0  0
   10.8230   14.0375    5.4636 H   0  0  0  0  0  0
  1  2  2  0  0  0
  1  4  1  0  0  0
  2  3  1  0  0  0
  2 23  1  0  0  0
  3  6  2  0  0  0
  4  5  2  0  0  0
  4 16  1  0  0  0
  5  9  1  0  0  0
  5  6  1  0  0  0
  6  7  1  0  0  0
  7  8  1  0  0  0
  7 19  1  0  0  0
  8  9  2  0  0  0
  9 10  1  0  0  0
 10 11  2  0  0  0
 10 15  1  0  0  0
 11 12  1  0  0  0
 11 24  1  0  0  0
 12 13  2  0  0  0
 12 18  1  0  0  0
 13 14  1  0  0  0
 13 17  1  0  0  0
 14 15  2  0  0  0
 14 25  1  0  0  0
 15 26  1  0  0  0
 16 27  1  0  0  0
 16 28  1  0  0  0
 18 29  1  0  0  0
 19 20  1  0  0  0
 19 21  1  0  0  0
 19 30  1  0  0  0
 20 22  1  0  0  0
 20 31  1  0  0  0
 20 32  1  0  0  0
 21 33  1  0  0  0
 21 34  1  0  0  0
 21 35  1  0  0  0
 22 36  1  0  0  0
 22 37  1  0  0  0
M  END
> <s_m_entry_id>
6147

> <s_m_entry_name>
dock_pv.73

> <s_m_Source_Path>
/home/csk/Desktop/cluster/DUD-E-result/abl1

> <s_m_Source_File>
dock_pv.maegz

> <i_m_Source_File_Index>
73

> <chembl_id>
CHEMBL1241579

> <chembl_pref_name>
None

> <i_lp_mmshare_version>
53161

> <i_f3d_flags>
0

> <r_lp_tautomer_probability>
0.999999999997365

> <s_lp_Force_Field>
OPLS_2005

> <r_lp_Energy>
13.637549

> <b_lp_Chiralities_Consistent>
1

> <s_lp_Variant>
CHEMBL1862_lig442-1

> <s_i_glide_gridfile>
glide-grid_2hzi

> <i_i_glide_lignum>
530

> <i_i_glide_rotatable_bonds>
4

> <r_i_docking_score>
-10.6918443642159

> <r_i_glide_ligand_efficiency>
-0.485992925646176

> <r_i_glide_ligand_efficiency_sa>
-1.36177129067777

> <r_i_glide_ligand_efficiency_ln>
-2.61347675711334

> <r_i_glide_gscore>
-10.6918443642159

> <r_i_glide_lipo>
-3.49687635135176

> <r_i_glide_hbond>
-0.95369851754873

> <r_i_glide_metal>
0

> <r_i_glide_rewards>
-4.15706444196659

> <r_i_glide_evdw>
-23.9440326690674

> <r_i_glide_ecoul>
-8.36057567596436

> <r_i_glide_erotb>
0.36708293149922

> <r_i_glide_esite>
0

> <r_i_glide_emodel>
-37.513465610113

> <r_i_glide_energy>
-32.3046083450317

> <r_i_glide_einternal>
6.06533765792847

> <i_i_glide_confnum>
3

> <i_i_glide_posenum>
23

> <r_i_glide_eff_state_penalty>
0

> <s_user_duplicate_titles>
CHEMBL1862_lig442

> <s_m_subgroup_title>
dock_pv

> <s_m_subgroupid>
dock_pv

> <b_m_subgroup_collapsed>
0

$$$$
CHEMBL1862_lig555
                    3D
 Schrodinger Suite 2021-1.
 40 43  0  0  1  0            999 V2000
   16.8483   12.0342    2.4030 N   0  0  0  0  0  0
   15.5069   12.1684    2.5092 C   0  0  0  0  0  0
   14.8370   13.1166    3.1955 N   0  0  0  0  0  0
   17.6070   12.9838    2.9963 C   0  0  0  0  0  0
   17.0475   14.0113    3.7589 C   0  0  0  0  0  0
   15.6416   13.9846    3.8225 C   0  0  0  0  0  0
   15.3022   14.9817    4.7014 N   0  0  0  0  0  0
   16.3924   15.6768    5.1063 N   0  0  0  0  0  0
   17.4522   15.1254    4.5653 C   0  0  0  0  0  0
   18.8237   15.6029    4.8952 C   0  0  0  0  0  0
   19.3030   16.8235    4.4092 C   0  0  0  0  0  0
   20.9193   15.2580    6.0835 C   0  0  0  0  0  0
   19.6346   14.8328    5.7377 C   0  0  0  0  0  0
   18.9638   12.8964    2.8031 N   0  0  0  0  0  0
   13.9921   15.4092    5.1530 C   0  0  0  0  0  0
   12.9031   14.3128    5.0754 C   0  0  0  0  0  0
   13.5953   16.6291    4.3092 C   0  0  0  0  0  0
   21.3953   16.4711    5.5928 C   0  0  0  0  0  0
   20.5825   17.2546    4.7593 C   0  0  0  0  0  0
   21.0392   18.4332    4.2075 O   0  0  0  0  0  0
   22.1252   19.0358    4.9284 C   0  0  0  0  0  0
   23.1966   17.9776    5.2594 C   0  0  0  0  0  0
   22.6389   16.8923    6.0155 O   0  0  0  0  0  0
   14.9032   11.4380    1.9921 H   0  0  0  0  0  0
   18.6906   17.4284    3.7563 H   0  0  0  0  0  0
   21.5399   14.6552    6.7284 H   0  0  0  0  0  0
   19.2702   13.8911    6.1176 H   0  0  0  0  0  0
   19.5662   13.6396    3.1273 H   0  0  0  0  0  0
   19.3028   12.1689    2.1695 H   0  0  0  0  0  0
   14.1583   15.6330    6.2030 H   0  0  0  0  0  0
   11.9978   14.6051    5.6021 H   0  0  0  0  0  0
   12.6032   14.1053    4.0470 H   0  0  0  0  0  0
   13.2308   13.3760    5.5161 H   0  0  0  0  0  0
   12.5349   16.8572    4.4030 H   0  0  0  0  0  0
   14.1641   17.5190    4.5748 H   0  0  0  0  0  0
   13.7659   16.4341    3.2508 H   0  0  0  0  0  0
   21.7631   19.4694    5.8616 H   0  0  0  0  0  0
   22.5635   19.8398    4.3319 H   0  0  0  0  0  0
   24.0177   18.4254    5.8214 H   0  0  0  0  0  0
   23.6020   17.6100    4.3165 H   0  0  0  0  0  0
  1  2  2  0  0  0
  1  4  1  0  0  0
  2  3  1  0  0  0
  2 24  1  0  0  0
  3  6  2  0  0  0
  4 14  1  0  0  0
  4  5  2  0  0  0
  5  9  1  0  0  0
  5  6  1  0  0  0
  6  7  1  0  0  0
  7 15  1  0  0  0
  7  8  1  0  0  0
  8  9  2  0  0  0
  9 10  1  0  0  0
 10 13  1  0  0  0
 10 11  2  0  0  0
 11 19  1  0  0  0
 11 25  1  0  0  0
 12 18  1  0  0  0
 12 13  2  0  0  0
 12 26  1  0  0  0
 13 27  1  0  0  0
 14 28  1  0  0  0
 14 29  1  0  0  0
 15 16  1  0  0  0
 15 17  1  0  0  0
 15 30  1  0  0  0
 16 31  1  0  0  0
 16 32  1  0  0  0
 16 33  1  0  0  0
 17 34  1  0  0  0
 17 35  1  0  0  0
 17 36  1  0  0  0
 18 19  2  0  0  0
 18 23  1  0  0  0
 19 20  1  0  0  0
 20 21  1  0  0  0
 21 22  1  0  0  0
 21 37  1  0  0  0
 21 38  1  0  0  0
 22 23  1  0  0  0
 22 39  1  0  0  0
 22 40  1  0  0  0
M  END
> <s_m_entry_id>
6148

> <s_m_entry_name>
dock_pv.74

> <s_m_Source_Path>
/home/csk/Desktop/cluster/DUD-E-result/abl1

> <s_m_Source_File>
dock_pv.maegz

> <i_m_Source_File_Index>
74

> <chembl_id>
CHEMBL1241588

> <chembl_pref_name>
None

> <i_lp_mmshare_version>
53161

> <i_f3d_flags>
0

> <r_lp_tautomer_probability>
1

> <s_lp_Force_Field>
OPLS_2005

> <r_lp_Energy>
16.363978

> <b_lp_Chiralities_Consistent>
1

> <s_lp_Variant>
CHEMBL1862_lig555-1

> <s_i_glide_gridfile>
glide-grid_2hzi

> <i_i_glide_lignum>
658

> <i_i_glide_rotatable_bonds>
2

> <r_i_docking_score>
-10.6884494012094

> <r_i_glide_ligand_efficiency>
-0.464715191356931

> <r_i_glide_ligand_efficiency_sa>
-1.3215881863541

> <r_i_glide_ligand_efficiency_ln>
-2.58456398271324

> <r_i_glide_gscore>
-10.6884494012094

> <r_i_glide_lipo>
-3.64391476148747

> <r_i_glide_hbond>
-0.627060086566283

> <r_i_glide_metal>
0

> <r_i_glide_rewards>
-4.04842534072497

> <r_i_glide_evdw>
-32.358097076416

> <r_i_glide_ecoul>
-6.28301811218262

> <r_i_glide_erotb>
0.191308358217488

> <r_i_glide_esite>
0

> <r_i_glide_emodel>
-47.2360717092071

> <r_i_glide_energy>
-38.6411151885986

> <r_i_glide_einternal>
5.94728136062622

> <i_i_glide_confnum>
8

> <i_i_glide_posenum>
16

> <r_i_glide_eff_state_penalty>
0

> <s_user_duplicate_titles>
CHEMBL1862_lig555

> <s_m_subgroup_title>
dock_pv

> <s_m_subgroupid>
dock_pv

> <b_m_subgroup_collapsed>
0

$$$$
CHEMBL1862_lig481
                    3D
 Schrodinger Suite 2021-1.
 35 37  0  0  1  0            999 V2000
   16.8340   12.0330    2.4030 N   0  0  0  0  0  0
   15.4940   12.1912    2.4926 C   0  0  0  0  0  0
   14.8376   13.1591    3.1635 N   0  0  0  0  0  0
   17.6087   12.9671    2.9904 C   0  0  0  0  0  0
   17.0611   14.0055    3.7432 C   0  0  0  0  0  0
   15.6543   14.0142    3.7907 C   0  0  0  0  0  0
   15.3293   15.0339    4.6492 N   0  0  0  0  0  0
   16.4378   15.6800    5.0907 N   0  0  0  0  0  0
   17.4853   15.0968    4.5639 C   0  0  0  0  0  0
   18.8667   15.4889    4.9460 C   0  0  0  0  0  0
   19.5490   16.5432    4.3260 C   0  0  0  0  0  0
   20.8428   16.8871    4.7469 C   0  0  0  0  0  0
   21.4459   16.1762    5.7914 C   0  0  0  0  0  0
   20.7648   15.1292    6.4033 C   0  0  0  0  0  0
   19.4793   14.7939    5.9911 C   0  0  0  0  0  0
   18.9640   12.8501    2.8030 N   0  0  0  0  0  0
   14.0257   15.5149    5.0694 C   0  0  0  0  0  0
   12.8589   14.5255    4.8326 C   0  0  0  0  0  0
   13.7640   16.8330    4.3322 C   0  0  0  0  0  0
   21.5704   17.9734    4.1061 C   0  0  0  0  0  0
   22.1570   18.8330    3.6030 N   0  0  0  0  0  0
   22.6852   16.4937    6.2323 F   0  0  0  0  0  0
   14.8771   11.4678    1.9787 H   0  0  0  0  0  0
   19.0679   17.0834    3.5215 H   0  0  0  0  0  0
   21.2348   14.5799    7.2030 H   0  0  0  0  0  0
   18.9639   13.9847    6.4846 H   0  0  0  0  0  0
   19.5797   13.5783    3.1361 H   0  0  0  0  0  0
   19.2951   12.1227    2.1653 H   0  0  0  0  0  0
   14.1564   15.6330    6.1436 H   0  0  0  0  0  0
   11.9169   14.9238    5.2030 H   0  0  0  0  0  0
   12.6871   14.3397    3.7725 H   0  0  0  0  0  0
   13.0289   13.5696    5.3272 H   0  0  0  0  0  0
   12.7205   17.1360    4.4030 H   0  0  0  0  0  0
   14.3868   17.6364    4.7284 H   0  0  0  0  0  0
   13.9785   16.7261    3.2696 H   0  0  0  0  0  0
  1  2  2  0  0  0
  1  4  1  0  0  0
  2  3  1  0  0  0
  2 23  1  0  0  0
  3  6  2  0  0  0
  4  5  2  0  0  0
  4 16  1  0  0  0
  5  9  1  0  0  0
  5  6  1  0  0  0
  6  7  1  0  0  0
  7 17  1  0  0  0
  7  8  1  0  0  0
  8  9  2  0  0  0
  9 10  1  0  0  0
 10 11  2  0  0  0
 10 15  1  0  0  0
 11 12  1  0  0  0
 11 24  1  0  0  0
 12 13  2  0  0  0
 12 20  1  0  0  0
 13 14  1  0  0  0
 13 22  1  0  0  0
 14 15  2  0  0  0
 14 25  1  0  0  0
 15 26  1  0  0  0
 16 27  1  0  0  0
 16 28  1  0  0  0
 17 18  1  0  0  0
 17 19  1  0  0  0
 17 29  1  0  0  0
 18 30  1  0  0  0
 18 31  1  0  0  0
 18 32  1  0  0  0
 19 33  1  0  0  0
 19 34  1  0  0  0
 19 35  1  0  0  0
 20 21  3  0  0  0
M  END
> <s_m_entry_id>
6149

> <s_m_entry_name>
dock_pv.75

> <s_m_Source_Path>
/home/csk/Desktop/cluster/DUD-E-result/abl1

> <s_m_Source_File>
dock_pv.maegz

> <i_m_Source_File_Index>
75

> <chembl_id>
CHEMBL1241680

> <chembl_pref_name>
None

> <i_lp_mmshare_version>
53161

> <i_f3d_flags>
0

> <r_lp_tautomer_probability>
1

> <s_lp_Force_Field>
OPLS_2005

> <r_lp_Energy>
11.003203

> <b_lp_Chiralities_Consistent>
1

> <s_lp_Variant>
CHEMBL1862_lig481-1

> <s_i_glide_gridfile>
glide-grid_2hzi

> <i_i_glide_lignum>
571

> <i_i_glide_rotatable_bonds>
2

> <r_i_docking_score>
-10.6836256908813

> <r_i_glide_ligand_efficiency>
-0.485619349585513

> <r_i_glide_ligand_efficiency_sa>
-1.36072451586388

> <r_i_glide_ligand_efficiency_ln>
-2.61146781356697

> <r_i_glide_gscore>
-10.6836256908813

> <r_i_glide_lipo>
-3.10428538114861

> <r_i_glide_hbond>
-0.61653263687944

> <r_i_glide_metal>
0

> <r_i_glide_rewards>
-4.74637275564149

> <r_i_glide_evdw>
-31.1589527130127

> <r_i_glide_ecoul>
-5.78087043762207

> <r_i_glide_erotb>
0.208643284082195

> <r_i_glide_esite>
0

> <r_i_glide_emodel>
-45.4911973157112

> <r_i_glide_energy>
-36.9398231506348

> <r_i_glide_einternal>
6.85717248916626

> <i_i_glide_confnum>
1

> <i_i_glide_posenum>
257

> <r_i_glide_eff_state_penalty>
0

> <s_user_duplicate_titles>
CHEMBL1862_lig481

> <s_m_subgroup_title>
dock_pv

> <s_m_subgroupid>
dock_pv

> <b_m_subgroup_collapsed>
0

$$$$
CHEMBL1862_lig722
                    3D
 Schrodinger Suite 2021-1.
 50 52  0  0  1  0            999 V2000
   11.7106   11.5742    2.2022 N   0  0  0  0  0  0
   12.4459   12.4906    2.8435 C   0  0  0  0  0  0
   11.9494   13.4551    3.4360 O   0  0  0  0  0  0
   13.7551   12.2287    2.7642 N   0  0  0  0  0  0
   16.4086   12.6291    2.8028 S   0  0  0  0  0  0
   14.7722   13.0315    3.2609 C   0  0  0  0  0  0
   14.6315   14.0620    4.0545 N   0  0  0  0  0  0
   15.8274   14.6156    4.3711 C   0  0  0  0  0  0
   16.9542   14.0035    3.7588 C   0  0  0  0  0  0
   18.2508   14.4597    4.0103 C   0  0  0  0  0  0
   18.4152   15.5094    4.9153 C   0  0  0  0  0  0
   17.3047   16.1102    5.5251 C   0  0  0  0  0  0
   16.0060   15.6866    5.2516 C   0  0  0  0  0  0
   19.7690   16.0357    5.2036 C   0  0  0  0  0  0
   20.2958   17.1424    4.5092 C   0  0  0  0  0  0
   21.5517   17.6550    4.8717 C   0  0  0  0  0  0
   22.2872   17.0633    5.8937 C   0  0  0  0  0  0
   21.7740   15.9485    6.5511 C   0  0  0  0  0  0
   20.5312   15.4346    6.2084 C   0  0  0  0  0  0
   19.5231   17.7870    3.3592 C   0  0  0  0  0  0
   20.2233   17.6105    2.0047 C   0  0  0  0  0  0
   10.2523   11.5292    2.2434 C   0  0  0  0  0  0
    9.6353   11.1141    0.8885 C   0  0  0  0  0  0
    9.3619   12.2563   -0.0047 N   0  0  0  0  0  0
    8.3989   13.1886    0.5786 C   0  0  0  0  0  0
    8.8286   11.7728   -1.2747 C   0  0  0  0  0  0
   12.1648   10.7019    1.9526 H   0  0  0  0  0  0
   14.0196   11.3964    2.2551 H   0  0  0  0  0  0
   19.1088   14.0003    3.5368 H   0  0  0  0  0  0
   17.4602   16.9277    6.2146 H   0  0  0  0  0  0
   15.1604   16.1609    5.7278 H   0  0  0  0  0  0
   21.9671   18.5099    4.3562 H   0  0  0  0  0  0
   23.2510   17.4545    6.1815 H   0  0  0  0  0  0
   22.3469   15.4949    7.3400 H   0  0  0  0  0  0
   20.1426   14.5726    6.7384 H   0  0  0  0  0  0
   18.5220   17.3742    3.2695 H   0  0  0  0  0  0
   19.3457   18.8246    3.6059 H   0  0  0  0  0  0
   19.6108   18.0211    1.2024 H   0  0  0  0  0  0
   21.1959   18.1066    1.9738 H   0  0  0  0  0  0
   20.3796   16.5518    1.7862 H   0  0  0  0  0  0
    9.8508   12.4790    2.6030 H   0  0  0  0  0  0
    9.9510   10.8298    3.0227 H   0  0  0  0  0  0
    8.6607   10.6625    1.0854 H   0  0  0  0  0  0
   10.2407   10.3430    0.4042 H   0  0  0  0  0  0
    8.0256   13.9009   -0.1622 H   0  0  0  0  0  0
    8.8412   13.7855    1.3794 H   0  0  0  0  0  0
    7.5576   12.6344    0.9951 H   0  0  0  0  0  0
    8.6587   12.6017   -1.9700 H   0  0  0  0  0  0
    9.4868   11.0675   -1.7849 H   0  0  0  0  0  0
    7.8787   11.2578   -1.1294 H   0  0  0  0  0  0
  1  2  1  0  0  0
  1 22  1  0  0  0
  1 27  1  0  0  0
  2  3  2  0  0  0
  2  4  1  0  0  0
  4  6  1  0  0  0
  4 28  1  0  0  0
  5  6  1  0  0  0
  5  9  1  0  0  0
  6  7  2  0  0  0
  7  8  1  0  0  0
  8  9  1  0  0  0
  8 13  2  0  0  0
  9 10  2  0  0  0
 10 11  1  0  0  0
 10 29  1  0  0  0
 11 12  2  0  0  0
 11 14  1  0  0  0
 12 13  1  0  0  0
 12 30  1  0  0  0
 13 31  1  0  0  0
 14 15  1  0  0  0
 14 19  2  0  0  0
 15 16  2  0  0  0
 15 20  1  0  0  0
 16 17  1  0  0  0
 16 32  1  0  0  0
 17 18  2  0  0  0
 17 33  1  0  0  0
 18 19  1  0  0  0
 18 34  1  0  0  0
 19 35  1  0  0  0
 20 21  1  0  0  0
 20 36  1  0  0  0
 20 37  1  0  0  0
 21 38  1  0  0  0
 21 39  1  0  0  0
 21 40  1  0  0  0
 22 23  1  0  0  0
 22 41  1  0  0  0
 22 42  1  0  0  0
 23 24  1  0  0  0
 23 43  1  0  0  0
 23 44  1  0  0  0
 24 25  1  0  0  0
 24 26  1  0  0  0
 25 45  1  0  0  0
 25 46  1  0  0  0
 25 47  1  0  0  0
 26 48  1  0  0  0
 26 49  1  0  0  0
 26 50  1  0  0  0
M  END
> <s_m_entry_id>
6150

> <s_m_entry_name>
dock_pv.76

> <s_m_Source_Path>
/home/csk/Desktop/cluster/DUD-E-result/abl1

> <s_m_Source_File>
dock_pv.maegz

> <i_m_Source_File_Index>
76

> <chembl_id>
CHEMBL2347731

> <chembl_pref_name>
None

> <i_lp_mmshare_version>
53161

> <i_f3d_flags>
0

> <r_lp_tautomer_probability>
1

> <s_lp_Force_Field>
OPLS_2005

> <r_lp_Energy>
21.460925

> <b_lp_Chiralities_Consistent>
1

> <s_lp_Variant>
CHEMBL1862_lig722-1

> <s_i_glide_gridfile>
glide-grid_2hzi

> <i_i_glide_lignum>
855

> <i_i_glide_rotatable_bonds>
8

> <r_i_docking_score>
-10.6692526946663

> <r_i_glide_ligand_efficiency>
-0.410355872871781

> <r_i_glide_ligand_efficiency_sa>
-1.21567765871026

> <r_i_glide_ligand_efficiency_ln>
-2.50563898666885

> <r_i_glide_gscore>
-10.6692526946663

> <r_i_glide_lipo>
-4.87397491067249

> <r_i_glide_hbond>
-0.575005554218534

> <r_i_glide_metal>
0

> <r_i_glide_rewards>
-2.74828774729392

> <r_i_glide_evdw>
-46.6402015686035

> <r_i_glide_ecoul>
-6.60973024368286

> <r_i_glide_erotb>
0.851485132501242

> <r_i_glide_esite>
0

> <r_i_glide_emodel>
-54.5775875931197

> <r_i_glide_energy>
-53.2499318122864

> <r_i_glide_einternal>
9.87433338165283

> <i_i_glide_confnum>
35

> <i_i_glide_posenum>
186

> <r_i_glide_eff_state_penalty>
0

> <s_user_duplicate_titles>
CHEMBL1862_lig722

> <s_m_subgroup_title>
dock_pv

> <s_m_subgroupid>
dock_pv

> <b_m_subgroup_collapsed>
0

$$$$
CHEMBL1862_lig843
                    3D
 Schrodinger Suite 2021-1.
 39 41  0  0  1  0            999 V2000
   16.5099   14.7554    4.0639 C   0  0  0  0  0  0
   17.7514   14.2135    3.6956 C   0  0  0  0  0  0
   17.7772   12.9556    3.0863 C   0  0  0  0  0  0
   16.6806   12.2074    2.7927 N   0  0  0  0  0  0
   15.3496   14.0239    3.7727 C   0  0  0  0  0  0
   15.5155   12.7682    3.1237 C   0  0  0  0  0  0
   14.2594   12.2517    2.8952 N   0  0  0  0  0  0
   13.3095   13.1266    3.3805 C   0  0  0  0  0  0
   13.9435   14.2109    3.9674 C   0  0  0  0  0  0
   11.8867   12.8332    3.2030 C   0  0  0  0  0  0
   18.9685   14.8810    3.9042 N   0  0  0  0  0  0
   19.0110   16.1039    4.6957 C   0  0  0  0  0  0
   11.6719   11.7528    2.4032 O   0  0  0  0  0  0
   20.4015   16.7220    4.7023 C   0  0  0  0  0  0
   21.2067   16.5645    5.8369 C   0  0  0  0  0  0
   22.4387   17.2093    5.9242 C   0  0  0  0  0  0
   22.8737   18.0208    4.8808 C   0  0  0  0  0  0
   22.0965   18.1539    3.7312 C   0  0  0  0  0  0
   20.8670   17.4962    3.6221 C   0  0  0  0  0  0
   10.3512   11.3439    2.0808 C   0  0  0  0  0  0
   10.9998   13.5323    3.7005 O   0  0  0  0  0  0
   20.0678   17.6315    2.3322 C   0  0  0  0  0  0
   16.4311   15.7118    4.5542 H   0  0  0  0  0  0
   18.7215   12.5109    2.8039 H   0  0  0  0  0  0
   14.0087   11.3780    2.4444 H   0  0  0  0  0  0
   13.4448   15.0478    4.4353 H   0  0  0  0  0  0
   19.6745   14.7955    3.1808 H   0  0  0  0  0  0
   18.3046   16.8388    4.3101 H   0  0  0  0  0  0
   18.6879   15.8823    5.7145 H   0  0  0  0  0  0
   20.8722   15.9555    6.6647 H   0  0  0  0  0  0
   23.0560   17.0906    6.8031 H   0  0  0  0  0  0
   23.8188   18.5347    4.9617 H   0  0  0  0  0  0
   22.4569   18.7706    2.9213 H   0  0  0  0  0  0
   10.3757   10.3847    1.5641 H   0  0  0  0  0  0
    9.8701   12.0730    1.4290 H   0  0  0  0  0  0
    9.7405   11.2328    2.9787 H   0  0  0  0  0  0
   20.5867   18.2380    1.5887 H   0  0  0  0  0  0
   19.8977   16.6487    1.8895 H   0  0  0  0  0  0
   19.0906   18.0751    2.5235 H   0  0  0  0  0  0
  1  5  1  0  0  0
  1  2  2  0  0  0
  1 23  1  0  0  0
  2  3  1  0  0  0
  2 11  1  0  0  0
  3  4  2  0  0  0
  3 24  1  0  0  0
  4  6  1  0  0  0
  5  6  2  0  0  0
  5  9  1  0  0  0
  6  7  1  0  0  0
  7  8  1  0  0  0
  7 25  1  0  0  0
  8  9  2  0  0  0
  8 10  1  0  0  0
  9 26  1  0  0  0
 10 13  1  0  0  0
 10 21  2  0  0  0
 11 12  1  0  0  0
 11 27  1  0  0  0
 12 14  1  0  0  0
 12 28  1  0  0  0
 12 29  1  0  0  0
 13 20  1  0  0  0
 14 15  2  0  0  0
 14 19  1  0  0  0
 15 16  1  0  0  0
 15 30  1  0  0  0
 16 17  2  0  0  0
 16 31  1  0  0  0
 17 18  1  0  0  0
 17 32  1  0  0  0
 18 19  2  0  0  0
 18 33  1  0  0  0
 19 22  1  0  0  0
 20 34  1  0  0  0
 20 35  1  0  0  0
 20 36  1  0  0  0
 22 37  1  0  0  0
 22 38  1  0  0  0
 22 39  1  0  0  0
M  END
> <s_m_entry_id>
6151

> <s_m_entry_name>
dock_pv.77

> <s_m_Source_Path>
/home/csk/Desktop/cluster/DUD-E-result/abl1

> <s_m_Source_File>
dock_pv.maegz

> <i_m_Source_File_Index>
77

> <chembl_id>
CHEMBL3347452

> <chembl_pref_name>
None

> <i_lp_mmshare_version>
53161

> <i_f3d_flags>
0

> <r_lp_tautomer_probability>
1

> <s_lp_Force_Field>
OPLS_2005

> <r_lp_Energy>
12.027529

> <b_lp_Chiralities_Consistent>
1

> <s_lp_Variant>
CHEMBL1862_lig843-1

> <s_i_glide_gridfile>
glide-grid_2hzi

> <i_i_glide_lignum>
982

> <i_i_glide_rotatable_bonds>
5

> <r_i_docking_score>
-10.657330247088

> <r_i_glide_ligand_efficiency>
-0.484424102140364

> <r_i_glide_ligand_efficiency_sa>
-1.35737538551615

> <r_i_glide_ligand_efficiency_ln>
-2.60504024795427

> <r_i_glide_gscore>
-10.657330247088

> <r_i_glide_lipo>
-4.29299830204455

> <r_i_glide_hbond>
-0.62610572047254

> <r_i_glide_metal>
0

> <r_i_glide_rewards>
-3.13394965043755

> <r_i_glide_evdw>
-46.1666450500488

> <r_i_glide_ecoul>
-5.8899359703064

> <r_i_glide_erotb>
0.587546073915042

> <r_i_glide_esite>
0

> <r_i_glide_emodel>
-83.7200084192179

> <r_i_glide_energy>
-52.0565810203552

> <r_i_glide_einternal>
2.58191800117493

> <i_i_glide_confnum>
10

> <i_i_glide_posenum>
94

> <r_i_glide_eff_state_penalty>
0

> <s_user_duplicate_titles>
CHEMBL1862_lig843

> <s_m_subgroup_title>
dock_pv

> <s_m_subgroupid>
dock_pv

> <b_m_subgroup_collapsed>
0

$$$$
CHEMBL1862_lig506
                    3D
 Schrodinger Suite 2021-1.
 36 38  0  0  1  0            999 V2000
   16.4968   12.0330    2.3050 N   0  0  0  0  0  0
   15.1473   12.0600    2.4031 C   0  0  0  0  0  0
   14.3982   12.9520    3.0850 N   0  0  0  0  0  0
   17.1902   13.0030    2.9317 C   0  0  0  0  0  0
   16.5389   13.9942    3.6703 C   0  0  0  0  0  0
   15.1285   13.8913    3.6962 C   0  0  0  0  0  0
   14.6975   14.9331    4.4858 N   0  0  0  0  0  0
   15.7470   15.6389    4.9643 N   0  0  0  0  0  0
   16.8561   15.1325    4.4776 C   0  0  0  0  0  0
   18.2003   15.6925    4.8191 C   0  0  0  0  0  0
   19.1668   14.9077    5.4545 C   0  0  0  0  0  0
   20.4257   15.4362    5.7545 C   0  0  0  0  0  0
   20.7574   16.7491    5.4018 C   0  0  0  0  0  0
   19.7831   17.5347    4.7651 C   0  0  0  0  0  0
   18.5195   17.0118    4.4886 C   0  0  0  0  0  0
   18.5641   12.9576    2.8044 N   0  0  0  0  0  0
   13.3617   15.3109    4.9235 C   0  0  0  0  0  0
   12.2032   14.4378    4.4071 C   0  0  0  0  0  0
   21.3438   14.6577    6.4064 O   0  0  0  0  0  0
   22.0325   17.1901    5.7169 O   0  0  0  0  0  0
   22.4224   18.5147    5.3680 C   0  0  0  0  0  0
   14.6048   11.3003    1.8592 H   0  0  0  0  0  0
   18.9441   13.8866    5.7271 H   0  0  0  0  0  0
   19.9875   18.5537    4.4762 H   0  0  0  0  0  0
   17.7832   17.6330    4.0033 H   0  0  0  0  0  0
   19.1303   13.7016    3.1853 H   0  0  0  0  0  0
   18.9642   12.2442    2.1984 H   0  0  0  0  0  0
   13.3910   15.2330    6.0030 H   0  0  0  0  0  0
   13.2031   16.3549    4.6533 H   0  0  0  0  0  0
   11.2492   14.8108    4.7811 H   0  0  0  0  0  0
   12.1476   14.4324    3.3197 H   0  0  0  0  0  0
   12.2995   13.4067    4.7479 H   0  0  0  0  0  0
   22.2208   15.0593    6.4031 H   0  0  0  0  0  0
   23.4502   18.6845    5.6913 H   0  0  0  0  0  0
   22.3853   18.6720    4.2887 H   0  0  0  0  0  0
   21.7963   19.2598    5.8613 H   0  0  0  0  0  0
  1  2  2  0  0  0
  1  4  1  0  0  0
  2  3  1  0  0  0
  2 22  1  0  0  0
  3  6  2  0  0  0
  4  5  2  0  0  0
  4 16  1  0  0  0
  5  6  1  0  0  0
  5  9  1  0  0  0
  6  7  1  0  0  0
  7 17  1  0  0  0
  7  8  1  0  0  0
  8  9  2  0  0  0
  9 10  1  0  0  0
 10 11  2  0  0  0
 10 15  1  0  0  0
 11 12  1  0  0  0
 11 23  1  0  0  0
 12 13  2  0  0  0
 12 19  1  0  0  0
 13 14  1  0  0  0
 13 20  1  0  0  0
 14 15  2  0  0  0
 14 24  1  0  0  0
 15 25  1  0  0  0
 16 26  1  0  0  0
 16 27  1  0  0  0
 17 18  1  0  0  0
 17 28  1  0  0  0
 17 29  1  0  0  0
 18 30  1  0  0  0
 18 31  1  0  0  0
 18 32  1  0  0  0
 19 33  1  0  0  0
 20 21  1  0  0  0
 21 34  1  0  0  0
 21 35  1  0  0  0
 21 36  1  0  0  0
M  END
> <s_m_entry_id>
6152

> <s_m_entry_name>
dock_pv.78

> <s_m_Source_Path>
/home/csk/Desktop/cluster/DUD-E-result/abl1

> <s_m_Source_File>
dock_pv.maegz

> <i_m_Source_File_Index>
78

> <chembl_id>
CHEMBL1242113

> <chembl_pref_name>
None

> <i_lp_mmshare_version>
53161

> <i_f3d_flags>
0

> <r_lp_tautomer_probability>
0.999999999999776

> <s_lp_Force_Field>
OPLS_2005

> <r_lp_Energy>
12.493812

> <b_lp_Chiralities_Consistent>
1

> <s_lp_Variant>
CHEMBL1862_lig506-1

> <s_i_glide_gridfile>
glide-grid_2hzi

> <i_i_glide_lignum>
600

> <i_i_glide_rotatable_bonds>
4

> <r_i_docking_score>
-10.6540086271217

> <r_i_glide_ligand_efficiency>
-0.507333744148653

> <r_i_glide_ligand_efficiency_sa>
-1.3996953308052

> <r_i_glide_ligand_efficiency_ln>
-2.63418210460433

> <r_i_glide_gscore>
-10.6540086271217

> <r_i_glide_lipo>
-3.2908502105924

> <r_i_glide_hbond>
-0.593410387957681

> <r_i_glide_metal>
0

> <r_i_glide_rewards>
-4.01442729128853

> <r_i_glide_evdw>
-34.0106773376465

> <r_i_glide_ecoul>
-8.07199764251709

> <r_i_glide_erotb>
0.156012775976788

> <r_i_glide_esite>
0

> <r_i_glide_emodel>
-64.1705821376643

> <r_i_glide_energy>
-42.0826749801636

> <r_i_glide_einternal>
7.74827098846436

> <i_i_glide_confnum>
3

> <i_i_glide_posenum>
396

> <r_i_glide_eff_state_penalty>
0

> <s_user_duplicate_titles>
CHEMBL1862_lig506

> <s_m_subgroup_title>
dock_pv

> <s_m_subgroupid>
dock_pv

> <b_m_subgroup_collapsed>
0

$$$$
CHEMBL1862_lig842
                    3D
 Schrodinger Suite 2021-1.
 39 41  0  0  1  0            999 V2000
   15.6847   14.6641    3.8416 C   0  0  0  0  0  0
   16.8902   14.1269    3.3676 C   0  0  0  0  0  0
   16.8781   12.8471    2.8030 C   0  0  0  0  0  0
   15.7640   12.0944    2.6007 N   0  0  0  0  0  0
   14.5101   13.9236    3.6569 C   0  0  0  0  0  0
   14.6267   12.6615    3.0114 C   0  0  0  0  0  0
   13.3525   12.1662    2.8498 N   0  0  0  0  0  0
   12.4396   13.0674    3.3607 C   0  0  0  0  0  0
   13.1223   14.1202    3.9463 C   0  0  0  0  0  0
   11.0004   12.8330    3.2030 C   0  0  0  0  0  0
   18.1113   14.8151    3.4255 N   0  0  0  0  0  0
   18.1851   16.2072    3.8533 C   0  0  0  0  0  0
   10.7369   11.7613    2.4053 O   0  0  0  0  0  0
   19.6222   16.6295    4.1346 C   0  0  0  0  0  0
   20.2269   17.5495    3.2701 C   0  0  0  0  0  0
   21.5081   18.0330    3.5281 C   0  0  0  0  0  0
   22.2006   17.5989    4.6536 C   0  0  0  0  0  0
   21.6189   16.6662    5.5097 C   0  0  0  0  0  0
   20.3256   16.1705    5.2689 C   0  0  0  0  0  0
    9.3986   11.3858    2.1165 C   0  0  0  0  0  0
   10.1489   13.5629    3.7158 O   0  0  0  0  0  0
   19.7065   15.1587    6.2459 C   0  0  0  0  0  0
   19.3640   14.0330    5.6471 F   0  0  0  0  0  0
   20.5673   14.8330    7.2030 F   0  0  0  0  0  0
   18.5978   15.6330    6.8030 F   0  0  0  0  0  0
   15.6348   15.6330    4.3098 H   0  0  0  0  0  0
   17.7988   12.4094    2.4420 H   0  0  0  0  0  0
   13.0818   11.2972    2.4030 H   0  0  0  0  0  0
   12.6616   14.9649    4.4374 H   0  0  0  0  0  0
   18.9366   14.2597    3.6100 H   0  0  0  0  0  0
   17.7640   16.8330    3.0694 H   0  0  0  0  0  0
   17.5910   16.3842    4.7491 H   0  0  0  0  0  0
   19.6995   17.9025    2.3953 H   0  0  0  0  0  0
   21.9635   18.7457    2.8555 H   0  0  0  0  0  0
   23.1938   17.9730    4.8572 H   0  0  0  0  0  0
   22.1900   16.3395    6.3677 H   0  0  0  0  0  0
    9.3894   10.4519    1.5538 H   0  0  0  0  0  0
    8.8999   12.1510    1.5205 H   0  0  0  0  0  0
    8.8254   11.2330    3.0323 H   0  0  0  0  0  0
  1  5  1  0  0  0
  1  2  2  0  0  0
  1 26  1  0  0  0
  2  3  1  0  0  0
  2 11  1  0  0  0
  3  4  2  0  0  0
  3 27  1  0  0  0
  4  6  1  0  0  0
  5  6  2  0  0  0
  5  9  1  0  0  0
  6  7  1  0  0  0
  7  8  1  0  0  0
  7 28  1  0  0  0
  8  9  2  0  0  0
  8 10  1  0  0  0
  9 29  1  0  0  0
 10 13  1  0  0  0
 10 21  2  0  0  0
 11 12  1  0  0  0
 11 30  1  0  0  0
 12 14  1  0  0  0
 12 31  1  0  0  0
 12 32  1  0  0  0
 13 20  1  0  0  0
 14 15  2  0  0  0
 14 19  1  0  0  0
 15 16  1  0  0  0
 15 33  1  0  0  0
 16 17  2  0  0  0
 16 34  1  0  0  0
 17 18  1  0  0  0
 17 35  1  0  0  0
 18 19  2  0  0  0
 18 36  1  0  0  0
 19 22  1  0  0  0
 20 37  1  0  0  0
 20 38  1  0  0  0
 20 39  1  0  0  0
 22 23  1  0  0  0
 22 24  1  0  0  0
 22 25  1  0  0  0
M  END
> <s_m_entry_id>
6153

> <s_m_entry_name>
dock_pv.79

> <s_m_Source_Path>
/home/csk/Desktop/cluster/DUD-E-result/abl1

> <s_m_Source_File>
dock_pv.maegz

> <i_m_Source_File_Index>
79

> <chembl_id>
CHEMBL3347453

> <chembl_pref_name>
None

> <i_lp_mmshare_version>
53161

> <i_f3d_flags>
0

> <r_lp_tautomer_probability>
1

> <s_lp_Force_Field>
OPLS_2005

> <r_lp_Energy>
13.244873

> <b_lp_Chiralities_Consistent>
1

> <s_lp_Variant>
CHEMBL1862_lig842-1

> <s_i_glide_gridfile>
glide-grid_2hzi

> <i_i_glide_lignum>
981

> <i_i_glide_rotatable_bonds>
6

> <r_i_docking_score>
-10.6451638180553

> <r_i_glide_ligand_efficiency>
-0.42580655272221

> <r_i_glide_ligand_efficiency_sa>
-1.24506591187111

> <r_i_glide_ligand_efficiency_ln>
-2.52322283469621

> <r_i_glide_gscore>
-10.6451638180553

> <r_i_glide_lipo>
-4.02337149632746

> <r_i_glide_hbond>
-0.570576169440037

> <r_i_glide_metal>
0

> <r_i_glide_rewards>
-3.52490214604695

> <r_i_glide_evdw>
-41.0895118713379

> <r_i_glide_ecoul>
-6.05953884124756

> <r_i_glide_erotb>
0.437092413513221

> <r_i_glide_esite>
0

> <r_i_glide_emodel>
-74.850594811042

> <r_i_glide_energy>
-47.1490507125854

> <r_i_glide_einternal>
4.08319616317749

> <i_i_glide_confnum>
22

> <i_i_glide_posenum>
328

> <r_i_glide_eff_state_penalty>
0

> <s_user_duplicate_titles>
CHEMBL1862_lig842

> <s_m_subgroup_title>
dock_pv

> <s_m_subgroupid>
dock_pv

> <b_m_subgroup_collapsed>
0

$$$$
CHEMBL1862_lig833
                    3D
 Schrodinger Suite 2021-1.
 42 45  0  0  1  0            999 V2000
   15.5778   14.5999    3.9840 C   0  0  0  0  0  0
   16.7892   14.0846    3.4956 C   0  0  0  0  0  0
   16.7670   12.8688    2.8030 C   0  0  0  0  0  0
   15.6469   12.1495    2.5241 N   0  0  0  0  0  0
   14.3971   13.8935    3.7196 C   0  0  0  0  0  0
   14.5103   12.6861    2.9775 C   0  0  0  0  0  0
   13.2344   12.2025    2.7884 N   0  0  0  0  0  0
   12.3200   13.0671    3.3583 C   0  0  0  0  0  0
   13.0060   14.0828    4.0030 C   0  0  0  0  0  0
   10.8781   12.8330    3.2030 C   0  0  0  0  0  0
   18.0223   14.7352    3.6670 N   0  0  0  0  0  0
   18.1087   16.0097    4.3710 C   0  0  0  0  0  0
   10.6126   11.7658    2.4030 O   0  0  0  0  0  0
   19.5285   16.3238    4.8155 C   0  0  0  0  0  0
   20.1684   15.5736    5.8217 C   0  0  0  0  0  0
   21.4330   15.9235    6.3021 C   0  0  0  0  0  0
   20.1479   17.4485    4.2608 C   0  0  0  0  0  0
    9.2736   11.3897    2.1191 C   0  0  0  0  0  0
   10.0286   13.5569    3.7275 O   0  0  0  0  0  0
   21.3975   17.8327    4.7532 C   0  0  0  0  0  0
   22.0179   17.0669    5.7679 C   0  0  0  0  0  0
   23.1897   17.7343    6.0221 N   0  0  0  0  0  0
   23.1999   18.8326    5.2027 C   0  0  0  0  0  0
   22.1651   18.9087    4.4059 N   0  0  0  0  0  0
   19.4892   14.3737    6.4549 C   0  0  0  0  0  0
   15.5287   15.5272    4.5311 H   0  0  0  0  0  0
   17.6873   12.4469    2.4229 H   0  0  0  0  0  0
   12.9641   11.3584    2.2972 H   0  0  0  0  0  0
   12.5471   14.8921    4.5517 H   0  0  0  0  0  0
   18.8663   14.1795    3.6540 H   0  0  0  0  0  0
   17.7639   16.7990    3.7053 H   0  0  0  0  0  0
   17.4742   16.0231    5.2576 H   0  0  0  0  0  0
   21.9185   15.3589    7.0780 H   0  0  0  0  0  0
   19.6615   18.0326    3.4943 H   0  0  0  0  0  0
    9.2635   10.4576    1.5535 H   0  0  0  0  0  0
    8.7710   12.1558    1.5277 H   0  0  0  0  0  0
    8.7046   11.2331    3.0368 H   0  0  0  0  0  0
   23.9272   17.5043    6.6745 H   0  0  0  0  0  0
   24.0384   19.5115    5.2030 H   0  0  0  0  0  0
   20.1155   13.8910    7.2029 H   0  0  0  0  0  0
   18.5605   14.6815    6.9299 H   0  0  0  0  0  0
   19.2409   13.6323    5.7014 H   0  0  0  0  0  0
  1  5  1  0  0  0
  1  2  2  0  0  0
  1 26  1  0  0  0
  2  3  1  0  0  0
  2 11  1  0  0  0
  3  4  2  0  0  0
  3 27  1  0  0  0
  4  6  1  0  0  0
  5  6  2  0  0  0
  5  9  1  0  0  0
  6  7  1  0  0  0
  7  8  1  0  0  0
  7 28  1  0  0  0
  8  9  2  0  0  0
  8 10  1  0  0  0
  9 29  1  0  0  0
 10 13  1  0  0  0
 10 19  2  0  0  0
 11 12  1  0  0  0
 11 30  1  0  0  0
 12 14  1  0  0  0
 12 31  1  0  0  0
 12 32  1  0  0  0
 13 18  1  0  0  0
 14 15  2  0  0  0
 14 17  1  0  0  0
 15 16  1  0  0  0
 15 25  1  0  0  0
 16 21  2  0  0  0
 16 33  1  0  0  0
 17 20  2  0  0  0
 17 34  1  0  0  0
 18 35  1  0  0  0
 18 36  1  0  0  0
 18 37  1  0  0  0
 20 21  1  0  0  0
 20 24  1  0  0  0
 21 22  1  0  0  0
 22 23  1  0  0  0
 22 38  1  0  0  0
 23 24  2  0  0  0
 23 39  1  0  0  0
 25 40  1  0  0  0
 25 41  1  0  0  0
 25 42  1  0  0  0
M  END
> <s_m_entry_id>
6155

> <s_m_entry_name>
dock_pv.81

> <s_m_Source_Path>
/home/csk/Desktop/cluster/DUD-E-result/abl1

> <s_m_Source_File>
dock_pv.maegz

> <i_m_Source_File_Index>
81

> <chembl_id>
CHEMBL3347425

> <chembl_pref_name>
None

> <i_lp_mmshare_version>
53161

> <i_f3d_flags>
0

> <r_lp_tautomer_probability>
1

> <s_lp_Force_Field>
OPLS_2005

> <r_lp_Energy>
9.69666

> <b_lp_Chiralities_Consistent>
1

> <s_lp_Variant>
CHEMBL1862_lig833-1

> <s_i_glide_gridfile>
glide-grid_2hzi

> <i_i_glide_lignum>
971

> <i_i_glide_rotatable_bonds>
5

> <r_i_docking_score>
-10.6312787240633

> <r_i_glide_ligand_efficiency>
-0.425251148962531

> <r_i_glide_ligand_efficiency_sa>
-1.24344190142768

> <r_i_glide_ligand_efficiency_ln>
-2.51993165131742

> <r_i_glide_gscore>
-10.6312787240633

> <r_i_glide_lipo>
-4.06451487091133

> <r_i_glide_hbond>
-0.507035808128304

> <r_i_glide_metal>
0

> <r_i_glide_rewards>
-3.18580307942591

> <r_i_glide_evdw>
-49.9517936706543

> <r_i_glide_ecoul>
-5.64127397537231

> <r_i_glide_erotb>
0.46985581424083

> <r_i_glide_esite>
0

> <r_i_glide_emodel>
-88.5341226370827

> <r_i_glide_energy>
-55.5930676460266

> <r_i_glide_einternal>
2.41972494125366

> <i_i_glide_confnum>
37

> <i_i_glide_posenum>
127

> <r_i_glide_eff_state_penalty>
0

> <s_user_duplicate_titles>
CHEMBL1862_lig833

> <s_m_subgroup_title>
dock_pv

> <s_m_subgroupid>
dock_pv

> <b_m_subgroup_collapsed>
0

$$$$
CHEMBL1862_lig525
                    3D
 Schrodinger Suite 2021-1.
 41 44  0  0  1  0            999 V2000
   15.9324   12.1065    2.0031 N   0  0  0  0  0  0
   14.5852   12.0330    2.0046 C   0  0  0  0  0  0
   13.7163   12.6699    2.8153 N   0  0  0  0  0  0
   16.4969   12.9871    2.8529 C   0  0  0  0  0  0
   15.6984   13.8466    3.6418 C   0  0  0  0  0  0
   14.3085   13.5680    3.6056 C   0  0  0  0  0  0
   13.7100   14.3936    4.5379 N   0  0  0  0  0  0
   14.6395   15.2319    5.0698 N   0  0  0  0  0  0
   15.8193   14.9826    4.5178 C   0  0  0  0  0  0
   17.0257   15.8677    4.7582 C   0  0  0  0  0  0
   18.0718   15.9157    3.8209 C   0  0  0  0  0  0
   18.1484   17.6286    6.0030 C   0  0  0  0  0  0
   17.0829   16.7405    5.8469 C   0  0  0  0  0  0
   17.8823   12.9260    2.9299 N   0  0  0  0  0  0
   19.2468   17.6216    5.1283 C   0  0  0  0  0  0
   19.1913   16.7692    3.9926 C   0  0  0  0  0  0
   20.2640   16.8346    3.0749 C   0  0  0  0  0  0
   21.3455   17.6725    3.3473 C   0  0  0  0  0  0
   21.3503   18.4309    4.5138 C   0  0  0  0  0  0
   20.3163   18.4322    5.3900 N   0  0  0  0  0  0
   12.2873   14.4745    4.9586 C   0  0  0  0  0  0
   11.9913   13.6632    6.2387 C   0  0  0  0  0  0
   11.2945   14.0349    3.8633 C   0  0  0  0  0  0
   22.4512   19.2330    4.8031 N   0  0  0  0  0  0
   14.1566   11.3377    1.2954 H   0  0  0  0  0  0
   18.0205   15.3552    2.9042 H   0  0  0  0  0  0
   18.1574   18.3161    6.8340 H   0  0  0  0  0  0
   16.2741   16.7607    6.5634 H   0  0  0  0  0  0
   18.3702   13.5197    3.5833 H   0  0  0  0  0  0
   18.3807   12.2794    2.3299 H   0  0  0  0  0  0
   20.2444   16.2242    2.1844 H   0  0  0  0  0  0
   22.1752   17.7261    2.6628 H   0  0  0  0  0  0
   12.0979   15.5282    5.1600 H   0  0  0  0  0  0
   10.9438   13.7713    6.5241 H   0  0  0  0  0  0
   12.1640   12.5977    6.1182 H   0  0  0  0  0  0
   12.5640   14.0297    7.0856 H   0  0  0  0  0  0
   10.2859   14.3867    4.0828 H   0  0  0  0  0  0
   11.5756   14.4172    2.8907 H   0  0  0  0  0  0
   11.2413   12.9488    3.7696 H   0  0  0  0  0  0
   23.2218   19.2646    4.1560 H   0  0  0  0  0  0
   22.4622   19.8156    5.6345 H   0  0  0  0  0  0
  1  2  2  0  0  0
  1  4  1  0  0  0
  2  3  1  0  0  0
  2 25  1  0  0  0
  3  6  2  0  0  0
  4 14  1  0  0  0
  4  5  2  0  0  0
  5  9  1  0  0  0
  5  6  1  0  0  0
  6  7  1  0  0  0
  7  8  1  0  0  0
  7 21  1  0  0  0
  8  9  2  0  0  0
  9 10  1  0  0  0
 10 13  1  0  0  0
 10 11  2  0  0  0
 11 16  1  0  0  0
 11 26  1  0  0  0
 12 15  1  0  0  0
 12 13  2  0  0  0
 12 27  1  0  0  0
 13 28  1  0  0  0
 14 29  1  0  0  0
 14 30  1  0  0  0
 15 16  2  0  0  0
 15 20  1  0  0  0
 16 17  1  0  0  0
 17 18  2  0  0  0
 17 31  1  0  0  0
 18 19  1  0  0  0
 18 32  1  0  0  0
 19 20  2  0  0  0
 19 24  1  0  0  0
 21 22  1  0  0  0
 21 23  1  0  0  0
 21 33  1  0  0  0
 22 34  1  0  0  0
 22 35  1  0  0  0
 22 36  1  0  0  0
 23 37  1  0  0  0
 23 38  1  0  0  0
 23 39  1  0  0  0
 24 40  1  0  0  0
 24 41  1  0  0  0
M  END
> <s_m_entry_id>
6156

> <s_m_entry_name>
dock_pv.82

> <s_m_Source_Path>
/home/csk/Desktop/cluster/DUD-E-result/abl1

> <s_m_Source_File>
dock_pv.maegz

> <i_m_Source_File_Index>
82

> <chembl_id>
CHEMBL1241949

> <chembl_pref_name>
None

> <i_lp_mmshare_version>
53161

> <i_f3d_flags>
0

> <r_lp_tautomer_probability>
1

> <s_lp_Force_Field>
OPLS_2005

> <r_lp_Energy>
13.925958

> <b_lp_Chiralities_Consistent>
1

> <s_lp_Variant>
CHEMBL1862_lig525-1

> <s_i_glide_gridfile>
glide-grid_2hzi

> <i_i_glide_lignum>
623

> <i_i_glide_rotatable_bonds>
2

> <r_i_docking_score>
-10.6081217936041

> <r_i_glide_ligand_efficiency>
-0.442005074733505

> <r_i_glide_ligand_efficiency_sa>
-1.27496325686555

> <r_i_glide_ligand_efficiency_ln>
-2.53901032019989

> <r_i_glide_gscore>
-10.6081217936041

> <r_i_glide_lipo>
-3.63794579844384

> <r_i_glide_hbond>
-0.63875543762091

> <r_i_glide_metal>
0

> <r_i_glide_rewards>
-3.71686030521493

> <r_i_glide_evdw>
-32.8542098999023

> <r_i_glide_ecoul>
-7.33268070220947

> <r_i_glide_erotb>
0.128052348002106

> <r_i_glide_esite>
0

> <r_i_glide_emodel>
-50.5078854863966

> <r_i_glide_energy>
-40.1868906021118

> <r_i_glide_einternal>
2.58876991271973

> <i_i_glide_confnum>
1

> <i_i_glide_posenum>
119

> <r_i_glide_eff_state_penalty>
0

> <s_user_duplicate_titles>
CHEMBL1862_lig525

> <s_m_subgroup_title>
dock_pv

> <s_m_subgroupid>
dock_pv

> <b_m_subgroup_collapsed>
0

$$$$
CHEMBL1862_lig540
                    3D
 Schrodinger Suite 2021-1.
 39 42  0  0  1  0            999 V2000
   16.5209   12.0582    2.2129 N   0  0  0  0  0  0
   15.1801   12.2324    2.2939 C   0  0  0  0  0  0
   14.5127   13.1418    3.0328 N   0  0  0  0  0  0
   17.2869   12.9492    2.8805 C   0  0  0  0  0  0
   16.7264   13.9689    3.6378 C   0  0  0  0  0  0
   15.3250   13.9682    3.6959 C   0  0  0  0  0  0
   15.0023   14.9741    4.5714 N   0  0  0  0  0  0
   16.1092   15.6310    5.0008 N   0  0  0  0  0  0
   17.1474   15.0743    4.4295 C   0  0  0  0  0  0
   18.5223   15.5886    4.6277 C   0  0  0  0  0  0
   19.0359   16.4823    3.6828 C   0  0  0  0  0  0
   20.5191   15.7535    6.0042 C   0  0  0  0  0  0
   19.2564   15.2173    5.7557 C   0  0  0  0  0  0
   18.6539   12.8330    2.8030 N   0  0  0  0  0  0
   13.7007   15.4884    4.9444 C   0  0  0  0  0  0
   12.5217   14.5137    4.7259 C   0  0  0  0  0  0
   13.5113   16.8330    4.2501 C   0  0  0  0  0  0
   21.0224   16.7176    5.1190 C   0  0  0  0  0  0
   20.2840   17.0442    3.9568 C   0  0  0  0  0  0
   21.0573   17.9641    3.2791 N   0  0  0  0  0  0
   22.1641   18.2941    3.9660 N   0  0  0  0  0  0
   22.1637   17.5723    5.0547 C   0  0  0  0  0  0
   23.1376   17.6570    6.0024 N   0  0  0  0  0  0
   14.5635   11.6330    1.6494 H   0  0  0  0  0  0
   18.4751   16.7543    2.8031 H   0  0  0  0  0  0
   21.0730   15.4771    6.8886 H   0  0  0  0  0  0
   18.8363   14.5136    6.4584 H   0  0  0  0  0  0
   19.2374   13.5341    3.2363 H   0  0  0  0  0  0
   19.0410   12.1263    2.1786 H   0  0  0  0  0  0
   13.7846   15.6330    6.0030 H   0  0  0  0  0  0
   11.6091   14.8909    5.1867 H   0  0  0  0  0  0
   12.3021   14.3675    3.6682 H   0  0  0  0  0  0
   12.7215   13.5380    5.1710 H   0  0  0  0  0  0
   12.4870   17.1870    4.3449 H   0  0  0  0  0  0
   14.1664   17.5989    4.6647 H   0  0  0  0  0  0
   13.7640   16.7483    3.2030 H   0  0  0  0  0  0
   20.8636   18.3964    2.3876 H   0  0  0  0  0  0
   23.5203   16.8118    6.4047 H   0  0  0  0  0  0
   23.7966   18.4205    5.9526 H   0  0  0  0  0  0
  1  2  2  0  0  0
  1  4  1  0  0  0
  2  3  1  0  0  0
  2 24  1  0  0  0
  3  6  2  0  0  0
  4 14  1  0  0  0
  4  5  2  0  0  0
  5  9  1  0  0  0
  5  6  1  0  0  0
  6  7  1  0  0  0
  7 15  1  0  0  0
  7  8  1  0  0  0
  8  9  2  0  0  0
  9 10  1  0  0  0
 10 13  1  0  0  0
 10 11  2  0  0  0
 11 19  1  0  0  0
 11 25  1  0  0  0
 12 18  1  0  0  0
 12 13  2  0  0  0
 12 26  1  0  0  0
 13 27  1  0  0  0
 14 28  1  0  0  0
 14 29  1  0  0  0
 15 16  1  0  0  0
 15 17  1  0  0  0
 15 30  1  0  0  0
 16 31  1  0  0  0
 16 32  1  0  0  0
 16 33  1  0  0  0
 17 34  1  0  0  0
 17 35  1  0  0  0
 17 36  1  0  0  0
 18 19  2  0  0  0
 18 22  1  0  0  0
 19 20  1  0  0  0
 20 21  1  0  0  0
 20 37  1  0  0  0
 21 22  2  0  0  0
 22 23  1  0  0  0
 23 38  1  0  0  0
 23 39  1  0  0  0
M  END
> <s_m_entry_id>
6157

> <s_m_entry_name>
dock_pv.83

> <s_m_Source_Path>
/home/csk/Desktop/cluster/DUD-E-result/abl1

> <s_m_Source_File>
dock_pv.maegz

> <i_m_Source_File_Index>
83

> <chembl_id>
CHEMBL1242476

> <chembl_pref_name>
None

> <i_lp_mmshare_version>
53161

> <i_f3d_flags>
0

> <r_lp_tautomer_probability>
1

> <s_lp_Force_Field>
OPLS_2005

> <r_lp_Energy>
12.152854

> <b_lp_Chiralities_Consistent>
1

> <s_lp_Variant>
CHEMBL1862_lig540-1

> <s_i_glide_gridfile>
glide-grid_2hzi

> <i_i_glide_lignum>
640

> <i_i_glide_rotatable_bonds>
2

> <r_i_docking_score>
-10.6039281885838

> <r_i_glide_ligand_efficiency>
-0.461040356025382

> <r_i_glide_ligand_efficiency_sa>
-1.31113744350924

> <r_i_glide_ligand_efficiency_ln>
-2.56412598710438

> <r_i_glide_gscore>
-10.6039281885838

> <r_i_glide_lipo>
-3.28667061448699

> <r_i_glide_hbond>
-0.608

> <r_i_glide_metal>
0

> <r_i_glide_rewards>
-4.00311761212425

> <r_i_glide_evdw>
-33.9291915893555

> <r_i_glide_ecoul>
-7.63927030563354

> <r_i_glide_erotb>
0.136210163340262

> <r_i_glide_esite>
0

> <r_i_glide_emodel>
-49.0770509214982

> <r_i_glide_energy>
-41.568461894989

> <r_i_glide_einternal>
7.73087882995605

> <i_i_glide_confnum>
2

> <i_i_glide_posenum>
103

> <r_i_glide_eff_state_penalty>
0

> <s_user_duplicate_titles>
CHEMBL1862_lig540

> <s_m_subgroup_title>
dock_pv

> <s_m_subgroupid>
dock_pv

> <b_m_subgroup_collapsed>
0

$$$$
CHEMBL1862_lig832
                    3D
 Schrodinger Suite 2021-1.
 39 42  0  0  1  0            999 V2000
   15.6497   14.4704    4.0030 C   0  0  0  0  0  0
   16.9176   14.0330    3.5849 C   0  0  0  0  0  0
   17.0071   12.8765    2.8030 C   0  0  0  0  0  0
   15.9493   12.1262    2.4030 N   0  0  0  0  0  0
   14.5255   13.7312    3.6030 C   0  0  0  0  0  0
   14.7609   12.5806    2.8030 C   0  0  0  0  0  0
   13.5388   12.0330    2.5027 N   0  0  0  0  0  0
   12.5322   12.7889    3.0570 C   0  0  0  0  0  0
   13.1036   13.8285    3.7793 C   0  0  0  0  0  0
   11.1282   12.4330    2.8030 C   0  0  0  0  0  0
   18.1066   14.7034    3.9040 N   0  0  0  0  0  0
   18.1224   15.6773    4.9823 C   0  0  0  0  0  0
   10.9860   11.3790    1.9629 O   0  0  0  0  0  0
   19.5412   16.1545    5.2027 C   0  0  0  0  0  0
   20.3852   15.4711    6.0847 C   0  0  0  0  0  0
   21.6451   15.8628    6.4071 N   0  0  0  0  0  0
   20.0121   17.3012    4.5534 C   0  0  0  0  0  0
    9.6898   10.9719    1.5493 C   0  0  0  0  0  0
   10.1947   13.0683    3.3004 O   0  0  0  0  0  0
   21.3084   17.7442    4.8588 C   0  0  0  0  0  0
   22.0517   16.9840    5.8059 C   0  0  0  0  0  0
   23.2487   17.6330    6.0030 N   0  0  0  0  0  0
   23.3028   18.7466    5.2030 C   0  0  0  0  0  0
   22.1466   18.8330    4.4549 C   0  0  0  0  0  0
   15.5261   15.3571    4.6044 H   0  0  0  0  0  0
   17.9714   12.5222    2.4649 H   0  0  0  0  0  0
   13.3640   11.1626    2.0030 H   0  0  0  0  0  0
   12.5542   14.5787    4.3290 H   0  0  0  0  0  0
   18.9536   14.1563    3.8364 H   0  0  0  0  0  0
   17.4754   16.5222    4.7410 H   0  0  0  0  0  0
   17.7319   15.2330    5.8998 H   0  0  0  0  0  0
   20.0389   14.5770    6.5833 H   0  0  0  0  0  0
   19.3919   17.8406    3.8528 H   0  0  0  0  0  0
    9.7476   10.0330    1.0022 H   0  0  0  0  0  0
    9.2455   11.7198    0.8915 H   0  0  0  0  0  0
    9.0251   10.8330    2.4030 H   0  0  0  0  0  0
   24.0003   17.3562    6.6201 H   0  0  0  0  0  0
   24.1702   19.3904    5.2250 H   0  0  0  0  0  0
   21.9291   19.6105    3.7379 H   0  0  0  0  0  0
  1  5  1  0  0  0
  1  2  2  0  0  0
  1 25  1  0  0  0
  2  3  1  0  0  0
  2 11  1  0  0  0
  3  4  2  0  0  0
  3 26  1  0  0  0
  4  6  1  0  0  0
  5  6  2  0  0  0
  5  9  1  0  0  0
  6  7  1  0  0  0
  7  8  1  0  0  0
  7 27  1  0  0  0
  8  9  2  0  0  0
  8 10  1  0  0  0
  9 28  1  0  0  0
 10 13  1  0  0  0
 10 19  2  0  0  0
 11 12  1  0  0  0
 11 29  1  0  0  0
 12 14  1  0  0  0
 12 30  1  0  0  0
 12 31  1  0  0  0
 13 18  1  0  0  0
 14 15  2  0  0  0
 14 17  1  0  0  0
 15 16  1  0  0  0
 15 32  1  0  0  0
 16 21  2  0  0  0
 17 20  2  0  0  0
 17 33  1  0  0  0
 18 34  1  0  0  0
 18 35  1  0  0  0
 18 36  1  0  0  0
 20 21  1  0  0  0
 20 24  1  0  0  0
 21 22  1  0  0  0
 22 23  1  0  0  0
 22 37  1  0  0  0
 23 24  2  0  0  0
 23 38  1  0  0  0
 24 39  1  0  0  0
M  END
> <s_m_entry_id>
6158

> <s_m_entry_name>
dock_pv.84

> <s_m_Source_Path>
/home/csk/Desktop/cluster/DUD-E-result/abl1

> <s_m_Source_File>
dock_pv.maegz

> <i_m_Source_File_Index>
84

> <chembl_id>
CHEMBL3347426

> <chembl_pref_name>
None

> <i_lp_mmshare_version>
53161

> <i_f3d_flags>
0

> <r_lp_tautomer_probability>
0.999998432528457

> <s_lp_Force_Field>
OPLS_2005

> <r_lp_Energy>
7.331946

> <b_lp_Chiralities_Consistent>
1

> <s_lp_Variant>
CHEMBL1862_lig832-1

> <s_i_glide_gridfile>
glide-grid_2hzi

> <i_i_glide_lignum>
970

> <i_i_glide_rotatable_bonds>
5

> <r_i_docking_score>
-10.5951659503582

> <r_i_glide_ligand_efficiency>
-0.44146524793159

> <r_i_glide_ligand_efficiency_sa>
-1.27340612692099

> <r_i_glide_ligand_efficiency_ln>
-2.53590939240622

> <r_i_glide_gscore>
-10.5951659503582

> <r_i_glide_lipo>
-3.68878322493385

> <r_i_glide_hbond>
-0.565801348177319

> <r_i_glide_metal>
0

> <r_i_glide_rewards>
-3.42683981163811

> <r_i_glide_evdw>
-46.0417938232422

> <r_i_glide_ecoul>
-7.33759927749634

> <r_i_glide_erotb>
0.506690307469696

> <r_i_glide_esite>
-0.0177022902920071

> <r_i_glide_emodel>
-84.3522504726646

> <r_i_glide_energy>
-53.3793931007385

> <r_i_glide_einternal>
3.63420391082764

> <i_i_glide_confnum>
4

> <i_i_glide_posenum>
56

> <r_i_glide_eff_state_penalty>
0

> <s_user_duplicate_titles>
CHEMBL1862_lig832

> <s_m_subgroup_title>
dock_pv

> <s_m_subgroupid>
dock_pv

> <b_m_subgroup_collapsed>
0

$$$$
CHEMBL1862_lig834
                    3D
 Schrodinger Suite 2021-1.
 39 42  0  0  1  0            999 V2000
   15.6232   14.4706    4.0015 C   0  0  0  0  0  0
   16.8898   14.0330    3.5797 C   0  0  0  0  0  0
   16.9799   12.8735    2.8030 C   0  0  0  0  0  0
   15.9223   12.1237    2.4030 N   0  0  0  0  0  0
   14.4994   13.7307    3.6030 C   0  0  0  0  0  0
   14.7351   12.5800    2.8030 C   0  0  0  0  0  0
   13.5139   12.0330    2.5028 N   0  0  0  0  0  0
   12.5073   12.7884    3.0578 C   0  0  0  0  0  0
   13.0780   13.8277    3.7806 C   0  0  0  0  0  0
   11.1041   12.4330    2.8030 C   0  0  0  0  0  0
   18.0795   14.7018    3.8938 N   0  0  0  0  0  0
   18.0805   15.7635    4.8859 C   0  0  0  0  0  0
   10.9640   11.3791    1.9625 O   0  0  0  0  0  0
   19.5072   16.1838    5.1652 C   0  0  0  0  0  0
   20.2830   15.4215    6.0450 C   0  0  0  0  0  0
   21.5780   15.7966    6.4032 C   0  0  0  0  0  0
   20.0205   17.3407    4.5697 C   0  0  0  0  0  0
    9.6681   10.9717    1.5485 C   0  0  0  0  0  0
   10.1699   13.0680    3.2995 O   0  0  0  0  0  0
   21.3167   17.7412    4.9173 C   0  0  0  0  0  0
   22.0644   16.9747    5.8444 C   0  0  0  0  0  0
   23.2295   17.6828    6.0030 N   0  0  0  0  0  0
   23.1291   18.7915    5.2030 C   0  0  0  0  0  0
   22.0271   18.8330    4.5002 N   0  0  0  0  0  0
   15.5002   15.3581    4.6020 H   0  0  0  0  0  0
   17.9443   12.5192    2.4651 H   0  0  0  0  0  0
   13.3427   11.1623    2.0030 H   0  0  0  0  0  0
   12.5286   14.5777    4.3306 H   0  0  0  0  0  0
   18.9216   14.1431    3.8845 H   0  0  0  0  0  0
   17.4911   16.6110    4.5326 H   0  0  0  0  0  0
   17.6153   15.4179    5.8110 H   0  0  0  0  0  0
   19.8618   14.5267    6.4818 H   0  0  0  0  0  0
   22.1640   15.2320    7.1069 H   0  0  0  0  0  0
   19.4308   17.9222    3.8768 H   0  0  0  0  0  0
    9.7261   10.0330    1.0012 H   0  0  0  0  0  0
    9.2238   11.7196    0.8907 H   0  0  0  0  0  0
    9.0034   10.8330    2.4025 H   0  0  0  0  0  0
   24.0232   17.4777    6.5952 H   0  0  0  0  0  0
   23.9237   19.5249    5.1939 H   0  0  0  0  0  0
  1  5  1  0  0  0
  1  2  2  0  0  0
  1 25  1  0  0  0
  2  3  1  0  0  0
  2 11  1  0  0  0
  3  4  2  0  0  0
  3 26  1  0  0  0
  4  6  1  0  0  0
  5  6  2  0  0  0
  5  9  1  0  0  0
  6  7  1  0  0  0
  7  8  1  0  0  0
  7 27  1  0  0  0
  8  9  2  0  0  0
  8 10  1  0  0  0
  9 28  1  0  0  0
 10 13  1  0  0  0
 10 19  2  0  0  0
 11 12  1  0  0  0
 11 29  1  0  0  0
 12 14  1  0  0  0
 12 30  1  0  0  0
 12 31  1  0  0  0
 13 18  1  0  0  0
 14 15  2  0  0  0
 14 17  1  0  0  0
 15 16  1  0  0  0
 15 32  1  0  0  0
 16 21  2  0  0  0
 16 33  1  0  0  0
 17 20  2  0  0  0
 17 34  1  0  0  0
 18 35  1  0  0  0
 18 36  1  0  0  0
 18 37  1  0  0  0
 20 21  1  0  0  0
 20 24  1  0  0  0
 21 22  1  0  0  0
 22 23  1  0  0  0
 22 38  1  0  0  0
 23 24  2  0  0  0
 23 39  1  0  0  0
M  END
> <s_m_entry_id>
6159

> <s_m_entry_name>
dock_pv.85

> <s_m_Source_Path>
/home/csk/Desktop/cluster/DUD-E-result/abl1

> <s_m_Source_File>
dock_pv.maegz

> <i_m_Source_File_Index>
85

> <chembl_id>
CHEMBL3347424

> <chembl_pref_name>
None

> <i_lp_mmshare_version>
53161

> <i_f3d_flags>
0

> <r_lp_tautomer_probability>
1

> <s_lp_Force_Field>
OPLS_2005

> <r_lp_Energy>
10.359518

> <b_lp_Chiralities_Consistent>
1

> <s_lp_Variant>
CHEMBL1862_lig834-1

> <s_i_glide_gridfile>
glide-grid_2hzi

> <i_i_glide_lignum>
972

> <i_i_glide_rotatable_bonds>
5

> <r_i_docking_score>
-10.5831031628883

> <r_i_glide_ligand_efficiency>
-0.440962631787011

> <r_i_glide_ligand_efficiency_sa>
-1.27195633108543

> <r_i_glide_ligand_efficiency_ln>
-2.53302221383943

> <r_i_glide_gscore>
-10.5831031628883

> <r_i_glide_lipo>
-3.77108080661683

> <r_i_glide_hbond>
-0.564467364857684

> <r_i_glide_metal>
0

> <r_i_glide_rewards>
-3.31236888260936

> <r_i_glide_evdw>
-46.0343894958496

> <r_i_glide_ecoul>
-7.48284149169922

> <r_i_glide_erotb>
0.506690307469696

> <r_i_glide_esite>
-0.0177307177267238

> <r_i_glide_emodel>
-84.8319758883596

> <r_i_glide_energy>
-53.5172309875488

> <r_i_glide_einternal>
2.8121542930603

> <i_i_glide_confnum>
43

> <i_i_glide_posenum>
121

> <r_i_glide_eff_state_penalty>
0

> <s_user_duplicate_titles>
CHEMBL1862_lig834

> <s_m_subgroup_title>
dock_pv

> <s_m_subgroupid>
dock_pv

> <b_m_subgroup_collapsed>
0

$$$$
CHEMBL1862_lig494
                    3D
 Schrodinger Suite 2021-1.
 41 44  0  0  1  0            999 V2000
   16.8460   12.0333    2.4018 N   0  0  0  0  0  0
   15.4929   12.0331    2.4036 C   0  0  0  0  0  0
   14.6845   12.8959    3.0312 N   0  0  0  0  0  0
   17.4539   13.0769    3.0048 C   0  0  0  0  0  0
   16.7235   14.0263    3.7291 C   0  0  0  0  0  0
   15.3287   13.8533    3.6886 C   0  0  0  0  0  0
   14.7907   14.8576    4.4499 N   0  0  0  0  0  0
   15.7792   15.6424    4.9612 N   0  0  0  0  0  0
   16.9415   15.1710    4.5503 C   0  0  0  0  0  0
   18.2716   15.7314    4.9401 C   0  0  0  0  0  0
   19.2038   14.9366    5.6179 C   0  0  0  0  0  0
   20.4914   15.4040    5.8760 C   0  0  0  0  0  0
   20.8770   16.6728    5.4378 C   0  0  0  0  0  0
   19.9525   17.4738    4.7709 C   0  0  0  0  0  0
   18.6565   17.0118    4.5406 C   0  0  0  0  0  0
   18.8132   13.1864    2.8060 N   0  0  0  0  0  0
   22.4822   17.2625    5.6987 Cl  0  0  0  0  0  0
   21.3640   14.5972    6.5498 O   0  0  0  0  0  0
   13.3828   15.1964    4.6777 C   0  0  0  0  0  0
   12.3559   14.0150    4.6637 C   0  0  1  0  0  0
   11.0028   14.3691    5.2982 C   0  0  0  0  0  0
    9.9813   13.6339    4.5790 N   0  0  2  0  0  0
   10.4079   13.7624    3.2034 C   0  0  0  0  0  0
   11.9147   13.5256    3.2772 C   0  0  0  0  0  0
   14.9648   11.2895    1.8278 H   0  0  0  0  0  0
   18.9557   13.9359    5.9273 H   0  0  0  0  0  0
   20.2496   18.4435    4.4099 H   0  0  0  0  0  0
   17.9684   17.6331    4.0028 H   0  0  0  0  0  0
   19.3226   13.9878    3.1493 H   0  0  0  0  0  0
   19.2509   12.4827    2.2187 H   0  0  0  0  0  0
   22.2830   14.8740    6.4521 H   0  0  0  0  0  0
   13.1104   16.0001    4.0031 H   0  0  0  0  0  0
   13.3642   15.6329    5.6492 H   0  0  0  0  0  0
   12.7828   13.1794    5.2183 H   0  0  0  0  0  0
   10.8023   15.4377    5.2029 H   0  0  0  0  0  0
   10.9682   14.0790    6.3504 H   0  0  0  0  0  0
    9.0616   14.0280    4.7234 H   0  0  0  0  0  0
    9.9084   13.0051    2.5975 H   0  0  0  0  0  0
   10.1643   14.7475    2.8029 H   0  0  0  0  0  0
   12.1086   12.4585    3.1511 H   0  0  0  0  0  0
   12.4709   14.0319    2.4896 H   0  0  0  0  0  0
  1  2  2  0  0  0
  1  4  1  0  0  0
  2  3  1  0  0  0
  2 25  1  0  0  0
  3  6  2  0  0  0
  4  5  2  0  0  0
  4 16  1  0  0  0
  5  9  1  0  0  0
  5  6  1  0  0  0
  6  7  1  0  0  0
  7  8  1  0  0  0
  7 19  1  0  0  0
  8  9  2  0  0  0
  9 10  1  0  0  0
 10 15  1  0  0  0
 10 11  2  0  0  0
 11 12  1  0  0  0
 11 26  1  0  0  0
 12 13  2  0  0  0
 12 18  1  0  0  0
 13 14  1  0  0  0
 13 17  1  0  0  0
 14 15  2  0  0  0
 14 27  1  0  0  0
 15 28  1  0  0  0
 16 29  1  0  0  0
 16 30  1  0  0  0
 18 31  1  0  0  0
 19 20  1  0  0  0
 19 32  1  0  0  0
 19 33  1  0  0  0
 20 21  1  0  0  0
 20 24  1  0  0  0
 20 34  1  0  0  0
 21 22  1  0  0  0
 21 35  1  0  0  0
 21 36  1  0  0  0
 22 23  1  0  0  0
 22 37  1  0  0  0
 23 24  1  0  0  0
 23 38  1  0  0  0
 23 39  1  0  0  0
 24 40  1  0  0  0
 24 41  1  0  0  0
M  END
> <s_m_entry_id>
6160

> <s_m_entry_name>
dock_pv.86

> <s_m_Source_Path>
/home/csk/Desktop/cluster/DUD-E-result/abl1

> <s_m_Source_File>
dock_pv.maegz

> <i_m_Source_File_Index>
86

> <chembl_id>
CHEMBL1241770

> <chembl_pref_name>
None

> <i_lp_mmshare_version>
53161

> <i_f3d_flags>
0

> <r_lp_tautomer_probability>
0.999999999997365

> <s_lp_Force_Field>
OPLS_2005

> <r_lp_Energy>
27.419074

> <b_lp_Chiralities_Consistent>
1

> <s_lp_Variant>
CHEMBL1862_lig494-2

> <s_i_glide_gridfile>
glide-grid_2hzi

> <i_i_glide_lignum>
586

> <i_i_glide_rotatable_bonds>
4

> <r_i_docking_score>
-10.5830878823082

> <r_i_glide_ligand_efficiency>
-0.440961995096175

> <r_i_glide_ligand_efficiency_sa>
-1.27195449455127

> <r_i_glide_ligand_efficiency_ln>
-2.53301855649544

> <r_i_glide_gscore>
-10.5830878823082

> <r_i_glide_lipo>
-3.90319308005463

> <r_i_glide_hbond>
-0.887766723198656

> <r_i_glide_metal>
0

> <r_i_glide_rewards>
-3.6369768941883

> <r_i_glide_evdw>
-33.565013885498

> <r_i_glide_ecoul>
-6.37431144714355

> <r_i_glide_erotb>
0.479246226479821

> <r_i_glide_esite>
0

> <r_i_glide_emodel>
-55.0308395911387

> <r_i_glide_energy>
-39.9393253326416

> <r_i_glide_einternal>
5.0263409614563

> <i_i_glide_confnum>
20

> <i_i_glide_posenum>
9

> <r_i_glide_eff_state_penalty>
0

> <s_user_duplicate_titles>
CHEMBL1862_lig494

> <s_m_subgroup_title>
dock_pv

> <s_m_subgroupid>
dock_pv

> <b_m_subgroup_collapsed>
0

$$$$
CHEMBL1862_lig528
                    3D
 Schrodinger Suite 2021-1.
 39 42  0  0  1  0            999 V2000
   16.1704   12.0942    2.0047 N   0  0  0  0  0  0
   14.8215   12.1597    2.1179 C   0  0  0  0  0  0
   14.0885   12.8759    2.9892 N   0  0  0  0  0  0
   16.8820   12.9229    2.8022 C   0  0  0  0  0  0
   16.2366   13.8181    3.6551 C   0  0  0  0  0  0
   14.8410   13.6715    3.7422 C   0  0  0  0  0  0
   14.4537   14.4541    4.7963 N   0  0  0  0  0  0
   15.4886   15.2335    5.2211 N   0  0  0  0  0  0
   16.5671   14.8633    4.5642 C   0  0  0  0  0  0
   17.9270   15.4300    4.7864 C   0  0  0  0  0  0
   18.5509   16.0899    3.7257 C   0  0  0  0  0  0
   19.9505   15.6726    6.0976 C   0  0  0  0  0  0
   18.6247   15.2669    5.9874 C   0  0  0  0  0  0
   18.2651   12.8331    2.8046 N   0  0  0  0  0  0
   20.5381   16.3790    5.0594 C   0  0  0  0  0  0
   19.8402   16.6125    3.8658 C   0  0  0  0  0  0
   20.4608   17.4356    2.7934 C   0  0  0  0  0  0
   21.7163   18.0419    3.2032 C   0  0  0  0  0  0
   22.2978   17.7570    4.3852 C   0  0  0  0  0  0
   21.7964   16.8905    5.2964 O   0  0  0  0  0  0
   13.1256   14.6308    5.3770 C   0  0  0  0  0  0
   12.2265   13.3842    5.4779 C   0  0  0  0  0  0
   19.9225   17.6329    1.7059 O   0  0  0  0  0  0
   12.3724   15.7282    4.6191 C   0  0  0  0  0  0
   14.2218   11.6276    1.4191 H   0  0  0  0  0  0
   18.0076   16.2321    2.8057 H   0  0  0  0  0  0
   20.5029   15.5174    7.0113 H   0  0  0  0  0  0
   18.1645   14.8330    6.8512 H   0  0  0  0  0  0
   18.7983   13.4704    3.3760 H   0  0  0  0  0  0
   18.7214   12.1882    2.1627 H   0  0  0  0  0  0
   22.1642   18.7541    2.5334 H   0  0  0  0  0  0
   23.2304   18.1886    4.7238 H   0  0  0  0  0  0
   13.3645   14.8302    6.4036 H   0  0  0  0  0  0
   11.2143   13.6633    5.7735 H   0  0  0  0  0  0
   12.1368   12.8330    4.5451 H   0  0  0  0  0  0
   12.5612   12.7303    6.2625 H   0  0  0  0  0  0
   11.7642   16.4053    5.2007 H   0  0  0  0  0  0
   13.0286   16.3479    4.0044 H   0  0  0  0  0  0
   11.6281   15.2335    4.0033 H   0  0  0  0  0  0
  1  2  2  0  0  0
  1  4  1  0  0  0
  2  3  1  0  0  0
  2 25  1  0  0  0
  3  6  2  0  0  0
  4 14  1  0  0  0
  4  5  2  0  0  0
  5  9  1  0  0  0
  5  6  1  0  0  0
  6  7  1  0  0  0
  7  8  1  0  0  0
  7 21  1  0  0  0
  8  9  2  0  0  0
  9 10  1  0  0  0
 10 13  1  0  0  0
 10 11  2  0  0  0
 11 16  1  0  0  0
 11 26  1  0  0  0
 12 15  1  0  0  0
 12 13  2  0  0  0
 12 27  1  0  0  0
 13 28  1  0  0  0
 14 29  1  0  0  0
 14 30  1  0  0  0
 15 16  2  0  0  0
 15 20  1  0  0  0
 16 17  1  0  0  0
 17 18  1  0  0  0
 17 23  2  0  0  0
 18 19  2  0  0  0
 18 31  1  0  0  0
 19 20  1  0  0  0
 19 32  1  0  0  0
 21 22  1  0  0  0
 21 24  1  0  0  0
 21 33  1  0  0  0
 22 34  1  0  0  0
 22 35  1  0  0  0
 22 36  1  0  0  0
 24 37  1  0  0  0
 24 38  1  0  0  0
 24 39  1  0  0  0
M  END
> <s_m_entry_id>
6161

> <s_m_entry_name>
dock_pv.87

> <s_m_Source_Path>
/home/csk/Desktop/cluster/DUD-E-result/abl1

> <s_m_Source_File>
dock_pv.maegz

> <i_m_Source_File_Index>
87

> <chembl_id>
CHEMBL1242118

> <chembl_pref_name>
None

> <i_lp_mmshare_version>
53161

> <i_f3d_flags>
0

> <r_lp_tautomer_probability>
1

> <s_lp_Force_Field>
OPLS_2005

> <r_lp_Energy>
12.311979

> <b_lp_Chiralities_Consistent>
1

> <s_lp_Variant>
CHEMBL1862_lig528-1

> <s_i_glide_gridfile>
glide-grid_2hzi

> <i_i_glide_lignum>
626

> <i_i_glide_rotatable_bonds>
2

> <r_i_docking_score>
-10.563023181663

> <r_i_glide_ligand_efficiency>
-0.440125965902626

> <r_i_glide_ligand_efficiency_sa>
-1.2695429690635

> <r_i_glide_ligand_efficiency_ln>
-2.52821615292193

> <r_i_glide_gscore>
-10.563023181663

> <r_i_glide_lipo>
-3.80337462473321

> <r_i_glide_hbond>
-0.608

> <r_i_glide_metal>
0

> <r_i_glide_rewards>
-3.98890098208673

> <r_i_glide_evdw>
-28.3664798736572

> <r_i_glide_ecoul>
-5.80730772018433

> <r_i_glide_erotb>
0.126672576867424

> <r_i_glide_esite>
0

> <r_i_glide_emodel>
-34.9318571514568

> <r_i_glide_energy>
-34.1737875938416

> <r_i_glide_einternal>
3.13178157806396

> <i_i_glide_confnum>
3

> <i_i_glide_posenum>
65

> <r_i_glide_eff_state_penalty>
0

> <s_user_duplicate_titles>
CHEMBL1862_lig528

> <s_m_subgroup_title>
dock_pv

> <s_m_subgroupid>
dock_pv

> <b_m_subgroup_collapsed>
0

$$$$
CHEMBL1862_lig521
                    3D
 Schrodinger Suite 2021-1.
 39 42  0  0  1  0            999 V2000
   16.2592   12.0336    2.0043 N   0  0  0  0  0  0
   14.9085   12.0330    2.0979 C   0  0  0  0  0  0
   14.1413   12.7421    2.9585 N   0  0  0  0  0  0
   16.9331   12.8905    2.8029 C   0  0  0  0  0  0
   16.2489   13.7736    3.6337 C   0  0  0  0  0  0
   14.8582   13.5739    3.7206 C   0  0  0  0  0  0
   14.4524   14.3405    4.7916 N   0  0  0  0  0  0
   15.4551   15.1669    5.1982 N   0  0  0  0  0  0
   16.5406   14.8390    4.5315 C   0  0  0  0  0  0
   17.8846   15.4296    4.7857 C   0  0  0  0  0  0
   18.5719   16.0977    3.7684 C   0  0  0  0  0  0
   19.8088   15.6330    6.2487 C   0  0  0  0  0  0
   18.4930   15.2540    6.0276 C   0  0  0  0  0  0
   18.3180   12.8330    2.8030 N   0  0  0  0  0  0
   20.4847   16.3973    5.2768 C   0  0  0  0  0  0
   19.8567   16.6443    4.0184 C   0  0  0  0  0  0
   20.5481   17.4577    3.0870 C   0  0  0  0  0  0
   21.7640   18.0330    3.4570 C   0  0  0  0  0  0
   22.2942   17.7538    4.7157 C   0  0  0  0  0  0
   21.6926   16.9286    5.6032 N   0  0  0  0  0  0
   13.1215   14.5130    5.3709 C   0  0  0  0  0  0
   12.2362   13.2663    5.4777 C   0  0  0  0  0  0
   12.3623   15.4599    4.4620 C   0  0  0  0  0  0
   23.7640   18.5049    5.2030 Cl  0  0  0  0  0  0
   14.3867   11.3646    1.4293 H   0  0  0  0  0  0
   18.1097   16.2503    2.8037 H   0  0  0  0  0  0
   20.2742   15.4638    7.2084 H   0  0  0  0  0  0
   17.9441   14.8330    6.8503 H   0  0  0  0  0  0
   18.8399   13.4858    3.3691 H   0  0  0  0  0  0
   18.7848   12.1899    2.1679 H   0  0  0  0  0  0
   20.1118   17.6596    2.1190 H   0  0  0  0  0  0
   22.2820   18.6930    2.7773 H   0  0  0  0  0  0
   13.3104   14.8330    6.3881 H   0  0  0  0  0  0
   11.2204   13.5348    5.7725 H   0  0  0  0  0  0
   12.1632   12.7815    4.5104 H   0  0  0  0  0  0
   12.5637   12.5791    6.2321 H   0  0  0  0  0  0
   11.4341   15.8288    4.8941 H   0  0  0  0  0  0
   12.9640   16.3183    4.1547 H   0  0  0  0  0  0
   12.0863   14.8330    3.6030 H   0  0  0  0  0  0
  1  2  2  0  0  0
  1  4  1  0  0  0
  2  3  1  0  0  0
  2 25  1  0  0  0
  3  6  2  0  0  0
  4 14  1  0  0  0
  4  5  2  0  0  0
  5  9  1  0  0  0
  5  6  1  0  0  0
  6  7  1  0  0  0
  7  8  1  0  0  0
  7 21  1  0  0  0
  8  9  2  0  0  0
  9 10  1  0  0  0
 10 13  1  0  0  0
 10 11  2  0  0  0
 11 16  1  0  0  0
 11 26  1  0  0  0
 12 15  1  0  0  0
 12 13  2  0  0  0
 12 27  1  0  0  0
 13 28  1  0  0  0
 14 29  1  0  0  0
 14 30  1  0  0  0
 15 16  1  0  0  0
 15 20  2  0  0  0
 16 17  2  0  0  0
 17 18  1  0  0  0
 17 31  1  0  0  0
 18 19  2  0  0  0
 18 32  1  0  0  0
 19 20  1  0  0  0
 19 24  1  0  0  0
 21 22  1  0  0  0
 21 23  1  0  0  0
 21 33  1  0  0  0
 22 34  1  0  0  0
 22 35  1  0  0  0
 22 36  1  0  0  0
 23 37  1  0  0  0
 23 38  1  0  0  0
 23 39  1  0  0  0
M  END
> <s_m_entry_id>
6162

> <s_m_entry_name>
dock_pv.88

> <s_m_Source_Path>
/home/csk/Desktop/cluster/DUD-E-result/abl1

> <s_m_Source_File>
dock_pv.maegz

> <i_m_Source_File_Index>
88

> <chembl_id>
CHEMBL1241683

> <chembl_pref_name>
None

> <i_lp_mmshare_version>
53161

> <i_f3d_flags>
0

> <r_lp_tautomer_probability>
1

> <s_lp_Force_Field>
OPLS_2005

> <r_lp_Energy>
14.854001

> <b_lp_Chiralities_Consistent>
1

> <s_lp_Variant>
CHEMBL1862_lig521-1

> <s_i_glide_gridfile>
glide-grid_2hzi

> <i_i_glide_lignum>
618

> <i_i_glide_rotatable_bonds>
2

> <r_i_docking_score>
-10.562099859732

> <r_i_glide_ligand_efficiency>
-0.440087494155501

> <r_i_glide_ligand_efficiency_sa>
-1.2694319973421

> <r_i_glide_ligand_efficiency_ln>
-2.52799515961536

> <r_i_glide_gscore>
-10.562099859732

> <r_i_glide_lipo>
-4.14400752881509

> <r_i_glide_hbond>
-0.608

> <r_i_glide_metal>
0

> <r_i_glide_rewards>
-3.61642577115434

> <r_i_glide_evdw>
-27.8008136749268

> <r_i_glide_ecoul>
-6.12659502029419

> <r_i_glide_erotb>
0.115363377027878

> <r_i_glide_esite>
0

> <r_i_glide_emodel>
-33.0439912404433

> <r_i_glide_energy>
-33.9274086952209

> <r_i_glide_einternal>
4.07390022277832

> <i_i_glide_confnum>
1

> <i_i_glide_posenum>
4

> <r_i_glide_eff_state_penalty>
0

> <s_user_duplicate_titles>
CHEMBL1862_lig521

> <s_m_subgroup_title>
dock_pv

> <s_m_subgroupid>
dock_pv

> <b_m_subgroup_collapsed>
0

$$$$
CHEMBL1862_lig497
                    3D
 Schrodinger Suite 2021-1.
 47 50  0  0  1  0            999 V2000
   16.6609   12.0331    2.3536 N   0  0  0  0  0  0
   15.3092   12.0838    2.4027 C   0  0  0  0  0  0
   14.5559   13.0040    3.0385 N   0  0  0  0  0  0
   17.3401   13.0312    2.9519 C   0  0  0  0  0  0
   16.6838   14.0330    3.6716 C   0  0  0  0  0  0
   15.2805   13.9311    3.6705 C   0  0  0  0  0  0
   14.8353   14.9400    4.4836 N   0  0  0  0  0  0
   15.8696   15.6690    4.9642 N   0  0  0  0  0  0
   16.9818   15.1870    4.4619 C   0  0  0  0  0  0
   18.3133   15.7752    4.7788 C   0  0  0  0  0  0
   19.2324   15.0443    5.5404 C   0  0  0  0  0  0
   20.4986   15.5641    5.8138 C   0  0  0  0  0  0
   20.8667   16.8198    5.3128 C   0  0  0  0  0  0
   19.9478   17.5575    4.5674 C   0  0  0  0  0  0
   18.6742   17.0434    4.3110 C   0  0  0  0  0  0
   18.7086   13.0142    2.8036 N   0  0  0  0  0  0
   22.4411   17.4735    5.6033 Cl  0  0  0  0  0  0
   21.3640   14.8330    6.5821 O   0  0  0  0  0  0
   13.4656   15.2620    4.8597 C   0  0  0  0  0  0
   12.6984   14.0662    5.4800 C   0  0  0  0  0  0
   11.3416   13.6641    4.8523 C   0  0  2  0  0  0
   11.4648   13.0483    3.4447 C   0  0  0  0  0  0
   10.0824   12.6956    2.8629 C   0  0  0  0  0  0
    9.0924   13.8699    2.9726 C   0  0  0  0  0  0
    8.9951   14.3451    4.3527 N   0  0  2  0  0  0
   10.3010   14.8035    4.8316 C   0  0  0  0  0  0
   14.7715   11.3172    1.8669 H   0  0  0  0  0  0
   18.9654   14.0666    5.9151 H   0  0  0  0  0  0
   20.2233   18.5252    4.1749 H   0  0  0  0  0  0
   17.9833   17.6289    3.7255 H   0  0  0  0  0  0
   19.2660   13.7764    3.1587 H   0  0  0  0  0  0
   19.1056   12.2847    2.2136 H   0  0  0  0  0  0
   22.2674   15.1600    6.5334 H   0  0  0  0  0  0
   12.9649   15.6948    4.0030 H   0  0  0  0  0  0
   13.5592   16.0325    5.6006 H   0  0  0  0  0  0
   12.5642   14.2007    6.5497 H   0  0  0  0  0  0
   13.3638   13.2328    5.4334 H   0  0  0  0  0  0
   10.8940   12.8832    5.4710 H   0  0  0  0  0  0
   12.1063   12.1683    3.4540 H   0  0  0  0  0  0
   11.9716   13.7649    2.8030 H   0  0  0  0  0  0
    9.6624   11.8072    3.3366 H   0  0  0  0  0  0
   10.1949   12.4305    1.8121 H   0  0  0  0  0  0
    8.1083   13.5503    2.6374 H   0  0  0  0  0  0
    9.3907   14.7002    2.3294 H   0  0  0  0  0  0
    8.7051   13.5628    4.9239 H   0  0  0  0  0  0
   10.6757   15.6331    4.2379 H   0  0  0  0  0  0
   10.1602   15.1940    5.8405 H   0  0  0  0  0  0
  1  2  2  0  0  0
  1  4  1  0  0  0
  2  3  1  0  0  0
  2 27  1  0  0  0
  3  6  2  0  0  0
  4  5  2  0  0  0
  4 16  1  0  0  0
  5  9  1  0  0  0
  5  6  1  0  0  0
  6  7  1  0  0  0
  7  8  1  0  0  0
  7 19  1  0  0  0
  8  9  2  0  0  0
  9 10  1  0  0  0
 10 15  1  0  0  0
 10 11  2  0  0  0
 11 12  1  0  0  0
 11 28  1  0  0  0
 12 13  2  0  0  0
 12 18  1  0  0  0
 13 14  1  0  0  0
 13 17  1  0  0  0
 14 15  2  0  0  0
 14 29  1  0  0  0
 15 30  1  0  0  0
 16 31  1  0  0  0
 16 32  1  0  0  0
 18 33  1  0  0  0
 19 20  1  0  0  0
 19 34  1  0  0  0
 19 35  1  0  0  0
 20 21  1  0  0  0
 20 36  1  0  0  0
 20 37  1  0  0  0
 21 22  1  0  0  0
 21 26  1  0  0  0
 21 38  1  0  0  0
 22 23  1  0  0  0
 22 39  1  0  0  0
 22 40  1  0  0  0
 23 24  1  0  0  0
 23 41  1  0  0  0
 23 42  1  0  0  0
 24 25  1  0  0  0
 24 43  1  0  0  0
 24 44  1  0  0  0
 25 26  1  0  0  0
 25 45  1  0  0  0
 26 46  1  0  0  0
 26 47  1  0  0  0
M  END
> <s_m_entry_id>
6163

> <s_m_entry_name>
dock_pv.89

> <s_m_Source_Path>
/home/csk/Desktop/cluster/DUD-E-result/abl1

> <s_m_Source_File>
dock_pv.maegz

> <i_m_Source_File_Index>
89

> <chembl_id>
CHEMBL1241943

> <chembl_pref_name>
None

> <i_lp_mmshare_version>
53161

> <i_f3d_flags>
0

> <r_lp_tautomer_probability>
0.999999999997365

> <s_lp_Force_Field>
OPLS_2005

> <r_lp_Energy>
19.179169

> <b_lp_Chiralities_Consistent>
1

> <s_lp_Variant>
CHEMBL1862_lig497-1

> <s_i_glide_gridfile>
glide-grid_2hzi

> <i_i_glide_lignum>
590

> <i_i_glide_rotatable_bonds>
5

> <r_i_docking_score>
-10.5585852694616

> <r_i_glide_ligand_efficiency>
-0.406099433440833

> <r_i_glide_ligand_efficiency_sa>
-1.20306797364436

> <r_i_glide_ligand_efficiency_ln>
-2.47964910498898

> <r_i_glide_gscore>
-10.5585852694616

> <r_i_glide_lipo>
-3.82206026878339

> <r_i_glide_hbond>
-0.813876467180409

> <r_i_glide_metal>
0

> <r_i_glide_rewards>
-3.32494750504237

> <r_i_glide_evdw>
-34.4347877502441

> <r_i_glide_ecoul>
-9.54547500610352

> <r_i_glide_erotb>
0.555859609972254

> <r_i_glide_esite>
0

> <r_i_glide_emodel>
-56.5123166344106

> <r_i_glide_energy>
-43.9802627563477

> <r_i_glide_einternal>
9.93764591217041

> <i_i_glide_confnum>
104

> <i_i_glide_posenum>
313

> <r_i_glide_eff_state_penalty>
0

> <s_user_duplicate_titles>
CHEMBL1862_lig497

> <s_m_subgroup_title>
dock_pv

> <s_m_subgroupid>
dock_pv

> <b_m_subgroup_collapsed>
0

$$$$
CHEMBL1862_lig431
                    3D
 Schrodinger Suite 2021-1.
 42 45  0  0  1  0            999 V2000
   16.3580   12.0330    2.6094 N   0  0  0  0  0  0
   17.4583   12.7955    2.8030 C   0  0  0  0  0  0
   17.5382   13.9678    3.4662 N   0  0  0  0  0  0
   15.2211   12.4575    3.2030 C   0  0  0  0  0  0
   15.1635   13.6504    3.9102 C   0  0  0  0  0  0
   16.3740   14.3500    4.0000 C   0  0  0  0  0  0
   16.1116   15.4439    4.7838 N   0  0  0  0  0  0
   14.8065   15.4337    5.2030 N   0  0  0  0  0  0
   14.2026   14.3929    4.6506 C   0  0  0  0  0  0
   12.7377   14.0354    4.7589 C   0  0  0  0  0  0
   12.0497   13.8802    5.9587 C   0  0  0  0  0  0
   10.6747   13.6330    6.0010 C   0  0  0  0  0  0
    9.9710   13.4438    4.8150 C   0  0  0  0  0  0
   10.6599   13.4568    3.6086 C   0  0  0  0  0  0
   12.0275   13.7463    3.5947 C   0  0  0  0  0  0
   14.1210   11.6330    3.2030 N   0  0  0  0  0  0
    8.6386   13.2086    4.8319 F   0  0  0  0  0  0
   10.0217   13.5854    7.2030 O   0  0  0  0  0  0
   17.0880   16.4425    5.2492 C   0  0  1  0  0  0
   17.9204   15.9291    6.4030 C   0  0  0  0  0  0
   19.2174   15.3584    5.8298 C   0  0  0  0  0  0
   19.5114   16.2131    4.5869 C   0  0  1  0  0  0
   18.1640   16.8747    4.2120 C   0  0  0  0  0  0
   20.6533   17.2249    4.7974 C   0  0  0  0  0  0
   18.3856   12.4330    2.4030 H   0  0  0  0  0  0
   12.5640   14.0330    6.8823 H   0  0  0  0  0  0
   10.1224   13.2330    2.7016 H   0  0  0  0  0  0
   12.5640   13.7497    2.6618 H   0  0  0  0  0  0
   13.2804   11.9248    3.6767 H   0  0  0  0  0  0
   14.1640   10.7399    2.7109 H   0  0  0  0  0  0
    9.0730   13.4545    7.1066 H   0  0  0  0  0  0
   16.4417   17.2668    5.5520 H   0  0  0  0  0  0
   18.1640   16.7958    7.0050 H   0  0  0  0  0  0
   17.3938   15.2330    7.0560 H   0  0  0  0  0  0
   20.0212   15.3960    6.5668 H   0  0  0  0  0  0
   19.0941   14.3082    5.5637 H   0  0  0  0  0  0
   19.8141   15.5503    3.7729 H   0  0  0  0  0  0
   17.8716   16.6325    3.1901 H   0  0  0  0  0  0
   18.2572   17.9611    4.2302 H   0  0  0  0  0  0
   20.4261   17.9238    5.6030 H   0  0  0  0  0  0
   21.5860   16.7187    5.0494 H   0  0  0  0  0  0
   20.8335   17.8071    3.8928 H   0  0  0  0  0  0
  1  2  2  0  0  0
  1  4  1  0  0  0
  2  3  1  0  0  0
  2 25  1  0  0  0
  3  6  2  0  0  0
  4  5  2  0  0  0
  4 16  1  0  0  0
  5  9  1  0  0  0
  5  6  1  0  0  0
  6  7  1  0  0  0
  7  8  1  0  0  0
  7 19  1  0  0  0
  8  9  2  0  0  0
  9 10  1  0  0  0
 10 15  1  0  0  0
 10 11  2  0  0  0
 11 12  1  0  0  0
 11 26  1  0  0  0
 12 13  2  0  0  0
 12 18  1  0  0  0
 13 14  1  0  0  0
 13 17  1  0  0  0
 14 15  2  0  0  0
 14 27  1  0  0  0
 15 28  1  0  0  0
 16 29  1  0  0  0
 16 30  1  0  0  0
 18 31  1  0  0  0
 19 20  1  0  0  0
 19 23  1  0  0  0
 19 32  1  0  0  0
 20 21  1  0  0  0
 20 33  1  0  0  0
 20 34  1  0  0  0
 21 22  1  0  0  0
 21 35  1  0  0  0
 21 36  1  0  0  0
 22 23  1  0  0  0
 22 24  1  0  0  0
 22 37  1  0  0  0
 23 38  1  0  0  0
 23 39  1  0  0  0
 24 40  1  0  0  0
 24 41  1  0  0  0
 24 42  1  0  0  0
M  END
> <s_m_entry_id>
6164

> <s_m_entry_name>
dock_pv.90

> <s_m_Source_Path>
/home/csk/Desktop/cluster/DUD-E-result/abl1

> <s_m_Source_File>
dock_pv.maegz

> <i_m_Source_File_Index>
90

> <chembl_id>
CHEMBL1242656

> <chembl_pref_name>
None

> <i_lp_mmshare_version>
53161

> <i_f3d_flags>
0

> <r_lp_tautomer_probability>
0.999999999997365

> <s_lp_Force_Field>
OPLS_2005

> <r_lp_Energy>
30.711329

> <b_lp_Chiralities_Consistent>
1

> <s_lp_Variant>
CHEMBL1862_lig431-4

> <s_i_glide_gridfile>
glide-grid_2hzi

> <i_i_glide_lignum>
519

> <i_i_glide_rotatable_bonds>
3

> <r_i_docking_score>
-10.545478188489

> <r_i_glide_ligand_efficiency>
-0.439394924520376

> <r_i_glide_ligand_efficiency_sa>
-1.26743428082688

> <r_i_glide_ligand_efficiency_ln>
-2.52401683096812

> <r_i_glide_gscore>
-10.545478188489

> <r_i_glide_lipo>
-3.86021452725105

> <r_i_glide_hbond>
-0.636827177889439

> <r_i_glide_metal>
0

> <r_i_glide_rewards>
-3.8781018822589

> <r_i_glide_evdw>
-21.6033954620361

> <r_i_glide_ecoul>
-8.66788196563721

> <r_i_glide_erotb>
0.245179254816529

> <r_i_glide_esite>
-0.0351617879587846

> <r_i_glide_emodel>
-33.7186892493263

> <r_i_glide_energy>
-30.2712774276733

> <r_i_glide_einternal>
6.79898166656494

> <i_i_glide_confnum>
25

> <i_i_glide_posenum>
236

> <r_i_glide_eff_state_penalty>
0

> <s_user_duplicate_titles>
CHEMBL1862_lig431

> <s_m_subgroup_title>
dock_pv

> <s_m_subgroupid>
dock_pv

> <b_m_subgroup_collapsed>
0

$$$$
CHEMBL1862_lig484
                    3D
 Schrodinger Suite 2021-1.
 36 38  0  0  1  0            999 V2000
   16.5540   12.0330    2.2685 N   0  0  0  0  0  0
   15.2098   12.1380    2.3883 C   0  0  0  0  0  0
   14.5286   13.0568    3.1028 N   0  0  0  0  0  0
   17.3094   12.9491    2.9054 C   0  0  0  0  0  0
   16.7335   13.9656    3.6567 C   0  0  0  0  0  0
   15.3283   13.9320    3.7220 C   0  0  0  0  0  0
   14.9872   14.9607    4.5622 N   0  0  0  0  0  0
   16.0822   15.6324    4.9922 N   0  0  0  0  0  0
   17.1339   15.0836    4.4466 C   0  0  0  0  0  0
   18.4970   15.6011    4.7105 C   0  0  0  0  0  0
   19.3274   14.9407    5.6162 C   0  0  0  0  0  0
   20.5921   15.4489    5.9104 C   0  0  0  0  0  0
   21.0478   16.6216    5.2903 C   0  0  0  0  0  0
   20.2128   17.2769    4.3747 C   0  0  0  0  0  0
   18.9423   16.7731    4.0947 C   0  0  0  0  0  0
   18.6755   12.8344    2.8032 N   0  0  0  0  0  0
   13.6832   15.4649    4.9383 C   0  0  0  0  0  0
   12.5040   14.5022    4.6781 C   0  0  0  0  0  0
   13.5060   16.8342    4.2868 C   0  0  0  0  0  0
   22.3988   17.1611    5.6020 C   0  0  0  0  0  0
   22.8783   18.1696    5.0857 O   0  0  0  0  0  0
   21.3553   14.7953    6.8128 F   0  0  0  0  0  0
   14.6102   11.4246    1.8413 H   0  0  0  0  0  0
   18.9872   14.0375    6.1038 H   0  0  0  0  0  0
   20.5385   18.1822    3.8794 H   0  0  0  0  0  0
   18.3023   17.2926    3.3971 H   0  0  0  0  0  0
   19.2671   13.5464    3.2070 H   0  0  0  0  0  0
   19.0512   12.1212    2.1794 H   0  0  0  0  0  0
   13.7646   15.5769    6.0032 H   0  0  0  0  0  0
   11.5825   14.8810    5.1191 H   0  0  0  0  0  0
   12.3129   14.3684    3.6123 H   0  0  0  0  0  0
   12.6890   13.5212    5.1197 H   0  0  0  0  0  0
   12.4858   17.1990    4.4020 H   0  0  0  0  0  0
   14.1649   17.5749    4.7408 H   0  0  0  0  0  0
   13.7668   16.7943    3.2295 H   0  0  0  0  0  0
   22.9655   16.5941    6.3410 H   0  0  0  0  0  0
  1  2  2  0  0  0
  1  4  1  0  0  0
  2  3  1  0  0  0
  2 23  1  0  0  0
  3  6  2  0  0  0
  4  5  2  0  0  0
  4 16  1  0  0  0
  5  9  1  0  0  0
  5  6  1  0  0  0
  6  7  1  0  0  0
  7 17  1  0  0  0
  7  8  1  0  0  0
  8  9  2  0  0  0
  9 10  1  0  0  0
 10 11  2  0  0  0
 10 15  1  0  0  0
 11 12  1  0  0  0
 11 24  1  0  0  0
 12 13  2  0  0  0
 12 22  1  0  0  0
 13 14  1  0  0  0
 13 20  1  0  0  0
 14 15  2  0  0  0
 14 25  1  0  0  0
 15 26  1  0  0  0
 16 27  1  0  0  0
 16 28  1  0  0  0
 17 18  1  0  0  0
 17 19  1  0  0  0
 17 29  1  0  0  0
 18 30  1  0  0  0
 18 31  1  0  0  0
 18 32  1  0  0  0
 19 33  1  0  0  0
 19 34  1  0  0  0
 19 35  1  0  0  0
 20 21  2  0  0  0
 20 36  1  0  0  0
M  END
> <s_m_entry_id>
6165

> <s_m_entry_name>
dock_pv.91

> <s_m_Source_Path>
/home/csk/Desktop/cluster/DUD-E-result/abl1

> <s_m_Source_File>
dock_pv.maegz

> <i_m_Source_File_Index>
91

> <chembl_id>
CHEMBL1241860

> <chembl_pref_name>
None

> <i_lp_mmshare_version>
53161

> <i_f3d_flags>
0

> <r_lp_tautomer_probability>
1

> <s_lp_Force_Field>
OPLS_2005

> <r_lp_Energy>
14.13241

> <b_lp_Chiralities_Consistent>
1

> <s_lp_Variant>
CHEMBL1862_lig484-1

> <s_i_glide_gridfile>
glide-grid_2hzi

> <i_i_glide_lignum>
574

> <i_i_glide_rotatable_bonds>
3

> <r_i_docking_score>
-10.5409741105186

> <r_i_glide_ligand_efficiency>
-0.479135186841752

> <r_i_glide_ligand_efficiency_sa>
-1.34255563684821

> <r_i_glide_ligand_efficiency_ln>
-2.5765985639835

> <r_i_glide_gscore>
-10.5409741105186

> <r_i_glide_lipo>
-3.06926152442403

> <r_i_glide_hbond>
-0.608

> <r_i_glide_metal>
0

> <r_i_glide_rewards>
-4.34512508700094

> <r_i_glide_evdw>
-30.920446395874

> <r_i_glide_ecoul>
-7.81327199935913

> <r_i_glide_erotb>
0.204999374191978

> <r_i_glide_esite>
-0.00557375358798561

> <r_i_glide_emodel>
-46.1826250810659

> <r_i_glide_energy>
-38.7337183952332

> <r_i_glide_einternal>
6.40753221511841

> <i_i_glide_confnum>
4

> <i_i_glide_posenum>
138

> <r_i_glide_eff_state_penalty>
0

> <s_user_duplicate_titles>
CHEMBL1862_lig484

> <s_m_subgroup_title>
dock_pv

> <s_m_subgroupid>
dock_pv

> <b_m_subgroup_collapsed>
0

$$$$
CHEMBL1862_lig504
                    3D
 Schrodinger Suite 2021-1.
 30 32  0  0  1  0            999 V2000
   16.1886   12.3974    2.6132 N   0  0  0  0  0  0
   14.8575   12.5370    2.8478 C   0  0  0  0  0  0
   14.2446   13.4830    3.6101 N   0  0  0  0  0  0
   17.0153   13.2978    3.2024 C   0  0  0  0  0  0
   16.5094   14.3325    4.0029 C   0  0  0  0  0  0
   15.1071   14.3454    4.1611 C   0  0  0  0  0  0
   14.8382   15.3945    5.0088 N   0  0  0  0  0  0
   15.9672   16.0329    5.3769 N   0  0  0  0  0  0
   16.9774   15.4399    4.7834 C   0  0  0  0  0  0
   18.3751   15.9002    4.9906 C   0  0  0  0  0  0
   19.2455   15.1430    5.7739 C   0  0  0  0  0  0
   20.5480   15.5828    6.0029 C   0  0  0  0  0  0
   21.0154   16.7800    5.4463 C   0  0  0  0  0  0
   20.1362   17.5336    4.6504 C   0  0  0  0  0  0
   18.8273   17.0996    4.4327 C   0  0  0  0  0  0
   18.3758   13.1503    2.9712 N   0  0  0  0  0  0
   21.3640   14.8326    6.8027 O   0  0  0  0  0  0
   22.3199   17.1489    5.7318 O   0  0  0  0  0  0
   22.8211   18.3867    5.2352 C   0  0  0  0  0  0
   14.2101   11.8075    2.3795 H   0  0  0  0  0  0
   13.9417   15.6869    5.3668 H   0  0  0  0  0  0
   18.9115   14.2182    6.2212 H   0  0  0  0  0  0
   20.4498   18.4592    4.1953 H   0  0  0  0  0  0
   18.1644   17.6939    3.8212 H   0  0  0  0  0  0
   19.0211   13.8300    3.3474 H   0  0  0  0  0  0
   18.6900   12.4090    2.3551 H   0  0  0  0  0  0
   22.2843   15.1081    6.7213 H   0  0  0  0  0  0
   23.8467   18.5248    5.5771 H   0  0  0  0  0  0
   22.2372   19.2327    5.6032 H   0  0  0  0  0  0
   22.8306   18.4044    4.1447 H   0  0  0  0  0  0
  1  4  1  0  0  0
  1  2  2  0  0  0
  2  3  1  0  0  0
  2 20  1  0  0  0
  3  6  2  0  0  0
  4  5  2  0  0  0
  4 16  1  0  0  0
  5  9  1  0  0  0
  5  6  1  0  0  0
  6  7  1  0  0  0
  7  8  1  0  0  0
  7 21  1  0  0  0
  8  9  2  0  0  0
  9 10  1  0  0  0
 10 11  2  0  0  0
 10 15  1  0  0  0
 11 12  1  0  0  0
 11 22  1  0  0  0
 12 13  2  0  0  0
 12 17  1  0  0  0
 13 14  1  0  0  0
 13 18  1  0  0  0
 14 15  2  0  0  0
 14 23  1  0  0  0
 15 24  1  0  0  0
 16 25  1  0  0  0
 16 26  1  0  0  0
 17 27  1  0  0  0
 18 19  1  0  0  0
 19 28  1  0  0  0
 19 29  1  0  0  0
 19 30  1  0  0  0
M  END
> <s_m_entry_id>
6166

> <s_m_entry_name>
dock_pv.92

> <s_m_Source_Path>
/home/csk/Desktop/cluster/DUD-E-result/abl1

> <s_m_Source_File>
dock_pv.maegz

> <i_m_Source_File_Index>
92

> <chembl_id>
CHEMBL1241300

> <chembl_pref_name>
None

> <i_lp_mmshare_version>
53161

> <i_f3d_flags>
0

> <r_lp_tautomer_probability>
0.999999999999776

> <s_lp_Force_Field>
OPLS_2005

> <r_lp_Energy>
10.504714

> <b_lp_Chiralities_Consistent>
1

> <s_lp_Variant>
CHEMBL1862_lig504-1

> <s_i_glide_gridfile>
glide-grid_2hzi

> <i_i_glide_lignum>
598

> <i_i_glide_rotatable_bonds>
3

> <r_i_docking_score>
-10.526537390556

> <r_i_glide_ligand_efficiency>
-0.554028283713473

> <r_i_glide_ligand_efficiency_sa>
-1.47836998424863

> <r_i_glide_ligand_efficiency_ln>
-2.6687033177987

> <r_i_glide_gscore>
-10.526537390556

> <r_i_glide_lipo>
-2.86718437017136

> <r_i_glide_hbond>
-0.443283346639365

> <r_i_glide_metal>
0

> <r_i_glide_rewards>
-4.42834219710334

> <r_i_glide_evdw>
-39.5938949584961

> <r_i_glide_ecoul>
-6.63097238540649

> <r_i_glide_erotb>
0.186613129093849

> <r_i_glide_esite>
0

> <r_i_glide_emodel>
-73.3872763203675

> <r_i_glide_energy>
-46.2248673439026

> <r_i_glide_einternal>
4.3774676322937

> <i_i_glide_confnum>
3

> <i_i_glide_posenum>
234

> <r_i_glide_eff_state_penalty>
0

> <s_user_duplicate_titles>
CHEMBL1862_lig504

> <s_m_subgroup_title>
dock_pv

> <s_m_subgroupid>
dock_pv

> <b_m_subgroup_collapsed>
0

$$$$
CHEMBL1862_lig608
                    3D
 Schrodinger Suite 2021-1.
 37 40  0  0  1  0            999 V2000
   13.6526   13.7321    3.9617 C   0  0  0  0  0  0
   14.3046   12.8300    3.1408 N   0  0  0  0  0  0
   15.6272   12.8328    2.8165 C   0  0  0  0  0  0
   14.3190   14.7399    4.5803 C   0  0  0  0  0  0
   15.7502   14.8203    4.3972 C   0  0  0  0  0  0
   16.3423   13.8590    3.5620 C   0  0  0  0  0  0
   17.6851   14.1541    3.6269 C   0  0  0  0  0  0
   17.8060   15.2443    4.4689 N   0  0  0  0  0  0
   16.6145   15.6382    4.9498 N   0  0  0  0  0  0
   18.7441   13.5425    3.0311 N   0  0  0  0  0  0
   12.1865   13.5285    4.1508 C   0  0  0  0  0  0
   18.9875   15.8985    4.8816 C   0  0  0  0  0  0
   19.9337   15.2017    5.6413 C   0  0  0  0  0  0
   21.1353   15.8152    5.9847 C   0  0  0  0  0  0
   21.3810   17.1233    5.5741 C   0  0  0  0  0  0
   20.4366   17.8254    4.8250 C   0  0  0  0  0  0
   19.2291   17.2161    4.4854 C   0  0  0  0  0  0
   16.1064   12.0331    2.0160 O   0  0  0  0  0  0
   11.5450   14.0226    5.2904 C   0  0  0  0  0  0
   10.1621   13.9538    5.4455 C   0  0  0  0  0  0
    9.3927   13.3772    4.4411 C   0  0  0  0  0  0
   10.0067   12.8317    3.3207 C   0  0  0  0  0  0
   11.3964   12.8713    3.2029 C   0  0  0  0  0  0
   13.7946   12.0764    2.7066 H   0  0  0  0  0  0
   13.8193   15.4619    5.2096 H   0  0  0  0  0  0
   18.6048   12.7229    2.4515 H   0  0  0  0  0  0
   19.6503   13.9877    2.9642 H   0  0  0  0  0  0
   19.7478   14.1805    5.9493 H   0  0  0  0  0  0
   21.8802   15.2791    6.5571 H   0  0  0  0  0  0
   22.3184   17.5976    5.8339 H   0  0  0  0  0  0
   20.6490   18.8326    4.5035 H   0  0  0  0  0  0
   18.5051   17.7569    3.8930 H   0  0  0  0  0  0
   12.1449   14.4330    6.0820 H   0  0  0  0  0  0
    9.6919   14.3394    6.3393 H   0  0  0  0  0  0
    8.3215   13.3248    4.5430 H   0  0  0  0  0  0
    9.4117   12.3506    2.5590 H   0  0  0  0  0  0
   11.8442   12.4365    2.3231 H   0  0  0  0  0  0
  1 11  1  0  0  0
  1  2  1  0  0  0
  1  4  2  0  0  0
  2  3  1  0  0  0
  2 24  1  0  0  0
  3  6  1  0  0  0
  3 18  2  0  0  0
  4  5  1  0  0  0
  4 25  1  0  0  0
  5  9  2  0  0  0
  5  6  1  0  0  0
  6  7  2  0  0  0
  7  8  1  0  0  0
  7 10  1  0  0  0
  8 12  1  0  0  0
  8  9  1  0  0  0
 10 26  1  0  0  0
 10 27  1  0  0  0
 11 19  2  0  0  0
 11 23  1  0  0  0
 12 13  2  0  0  0
 12 17  1  0  0  0
 13 14  1  0  0  0
 13 28  1  0  0  0
 14 15  2  0  0  0
 14 29  1  0  0  0
 15 16  1  0  0  0
 15 30  1  0  0  0
 16 17  2  0  0  0
 16 31  1  0  0  0
 17 32  1  0  0  0
 19 20  1  0  0  0
 19 33  1  0  0  0
 20 21  2  0  0  0
 20 34  1  0  0  0
 21 22  1  0  0  0
 21 35  1  0  0  0
 22 23  2  0  0  0
 22 36  1  0  0  0
 23 37  1  0  0  0
M  END
> <s_m_entry_id>
6167

> <s_m_entry_name>
dock_pv.93

> <s_m_Source_Path>
/home/csk/Desktop/cluster/DUD-E-result/abl1

> <s_m_Source_File>
dock_pv.maegz

> <i_m_Source_File_Index>
93

> <chembl_id>
CHEMBL1813790

> <chembl_pref_name>
None

> <i_lp_mmshare_version>
53161

> <i_f3d_flags>
0

> <r_lp_tautomer_probability>
1

> <s_lp_Force_Field>
OPLS_2005

> <r_lp_Energy>
29.944531

> <b_lp_Chiralities_Consistent>
1

> <s_lp_Variant>
CHEMBL1862_lig608-1

> <s_i_glide_gridfile>
glide-grid_2hzi

> <i_i_glide_lignum>
714

> <i_i_glide_rotatable_bonds>
2

> <r_i_docking_score>
-10.5264404544295

> <r_i_glide_ligand_efficiency>
-0.457671324105632

> <r_i_glide_ligand_efficiency_sa>
-1.30155636488861

> <r_i_glide_ligand_efficiency_ln>
-2.54538875036596

> <r_i_glide_gscore>
-10.5264404544295

> <r_i_glide_lipo>
-4.4674296968829

> <r_i_glide_hbond>
-0.588157630582404

> <r_i_glide_metal>
0

> <r_i_glide_rewards>
-2.74795115302672

> <r_i_glide_evdw>
-39.3414764404297

> <r_i_glide_ecoul>
-7.72445392608643

> <r_i_glide_erotb>
0.402839936996925

> <r_i_glide_esite>
0

> <r_i_glide_emodel>
-69.5309952642497

> <r_i_glide_energy>
-47.0659303665161

> <r_i_glide_einternal>
4.42322826385498

> <i_i_glide_confnum>
5

> <i_i_glide_posenum>
201

> <r_i_glide_eff_state_penalty>
0

> <s_user_duplicate_titles>
CHEMBL1862_lig608

> <s_m_subgroup_title>
dock_pv

> <s_m_subgroupid>
dock_pv

> <b_m_subgroup_collapsed>
0

$$$$
CHEMBL1862_lig454
                    3D
 Schrodinger Suite 2021-1.
 38 40  0  0  1  0            999 V2000
   16.8248   12.0331    2.4026 N   0  0  0  0  0  0
   15.4832   12.1886    2.4891 C   0  0  0  0  0  0
   14.8193   13.1443    3.1725 N   0  0  0  0  0  0
   17.5948   12.9641    3.0052 C   0  0  0  0  0  0
   17.0387   13.9792    3.7859 C   0  0  0  0  0  0
   15.6318   13.9830    3.8262 C   0  0  0  0  0  0
   15.2995   14.9715    4.7186 N   0  0  0  0  0  0
   16.3973   15.6332    5.1602 N   0  0  0  0  0  0
   17.4500   15.0486    4.6430 C   0  0  0  0  0  0
   18.8302   15.4491    5.0301 C   0  0  0  0  0  0
   19.4725   16.5717    4.4855 C   0  0  0  0  0  0
   20.7686   16.8972    4.8943 C   0  0  0  0  0  0
   21.4225   16.1147    5.8422 C   0  0  0  0  0  0
   20.7823   15.0125    6.4016 C   0  0  0  0  0  0
   19.4869   14.6883    6.0023 C   0  0  0  0  0  0
   18.9515   12.8684    2.8029 N   0  0  0  0  0  0
   22.6934   16.4380    6.2183 O   0  0  0  0  0  0
   13.9907   15.4100    5.1601 C   0  0  0  0  0  0
   12.8960   14.3176    5.0865 C   0  0  0  0  0  0
   13.5992   16.6288    4.3096 C   0  0  0  0  0  0
   18.7752   17.4422    3.4622 C   0  0  0  0  0  0
   14.8710   11.4734    1.9590 H   0  0  0  0  0  0
   21.2760   17.7556    4.4771 H   0  0  0  0  0  0
   21.2829   14.4029    7.1367 H   0  0  0  0  0  0
   18.9955   13.8347    6.4424 H   0  0  0  0  0  0
   19.5626   13.5926    3.1538 H   0  0  0  0  0  0
   19.2881   12.1493    2.1589 H   0  0  0  0  0  0
   23.1359   15.7492    6.7250 H   0  0  0  0  0  0
   14.1633   15.6332    6.2114 H   0  0  0  0  0  0
   11.9885   14.6198    5.6024 H   0  0  0  0  0  0
   12.5996   14.1032    4.0596 H   0  0  0  0  0  0
   13.2144   13.3857    5.5426 H   0  0  0  0  0  0
   12.5393   16.8603    4.4030 H   0  0  0  0  0  0
   14.1691   17.5191    4.5721 H   0  0  0  0  0  0
   13.7689   16.4299    3.2518 H   0  0  0  0  0  0
   19.4318   18.1964    3.0330 H   0  0  0  0  0  0
   18.3900   16.8318    2.6451 H   0  0  0  0  0  0
   17.9330   17.9298    3.9505 H   0  0  0  0  0  0
  1  2  2  0  0  0
  1  4  1  0  0  0
  2  3  1  0  0  0
  2 22  1  0  0  0
  3  6  2  0  0  0
  4  5  2  0  0  0
  4 16  1  0  0  0
  5  6  1  0  0  0
  5  9  1  0  0  0
  6  7  1  0  0  0
  7  8  1  0  0  0
  7 18  1  0  0  0
  8  9  2  0  0  0
  9 10  1  0  0  0
 10 11  2  0  0  0
 10 15  1  0  0  0
 11 12  1  0  0  0
 11 21  1  0  0  0
 12 13  2  0  0  0
 12 23  1  0  0  0
 13 14  1  0  0  0
 13 17  1  0  0  0
 14 15  2  0  0  0
 14 24  1  0  0  0
 15 25  1  0  0  0
 16 26  1  0  0  0
 16 27  1  0  0  0
 17 28  1  0  0  0
 18 19  1  0  0  0
 18 20  1  0  0  0
 18 29  1  0  0  0
 19 30  1  0  0  0
 19 31  1  0  0  0
 19 32  1  0  0  0
 20 33  1  0  0  0
 20 34  1  0  0  0
 20 35  1  0  0  0
 21 36  1  0  0  0
 21 37  1  0  0  0
 21 38  1  0  0  0
M  END
> <s_m_entry_id>
6168

> <s_m_entry_name>
dock_pv.94

> <s_m_Source_Path>
/home/csk/Desktop/cluster/DUD-E-result/abl1

> <s_m_Source_File>
dock_pv.maegz

> <i_m_Source_File_Index>
94

> <chembl_id>
CHEMBL1242024

> <chembl_pref_name>
None

> <i_lp_mmshare_version>
53161

> <i_f3d_flags>
0

> <r_lp_tautomer_probability>
0.999999999997365

> <s_lp_Force_Field>
OPLS_2005

> <r_lp_Energy>
26.140467

> <b_lp_Chiralities_Consistent>
1

> <s_lp_Variant>
CHEMBL1862_lig454-1

> <s_i_glide_gridfile>
glide-grid_2hzi

> <i_i_glide_lignum>
542

> <i_i_glide_rotatable_bonds>
3

> <r_i_docking_score>
-10.5237124553903

> <r_i_glide_ligand_efficiency>
-0.501129164542396

> <r_i_glide_ligand_efficiency_sa>
-1.38257736614259

> <r_i_glide_ligand_efficiency_ln>
-2.60196663943195

> <r_i_glide_gscore>
-10.5237124553903

> <r_i_glide_lipo>
-3.42499232104023

> <r_i_glide_hbond>
-0.82168735502112

> <r_i_glide_metal>
0

> <r_i_glide_rewards>
-3.99033717237997

> <r_i_glide_evdw>
-26.7159748077393

> <r_i_glide_ecoul>
-7.84319448471069

> <r_i_glide_erotb>
0.225582306144578

> <r_i_glide_esite>
0

> <r_i_glide_emodel>
-37.759963700347

> <r_i_glide_energy>
-34.55916929245

> <r_i_glide_einternal>
6.73081636428833

> <i_i_glide_confnum>
2

> <i_i_glide_posenum>
1

> <r_i_glide_eff_state_penalty>
0

> <s_user_duplicate_titles>
CHEMBL1862_lig454

> <s_m_subgroup_title>
dock_pv

> <s_m_subgroupid>
dock_pv

> <b_m_subgroup_collapsed>
0

$$$$
CHEMBL1862_lig835
                    3D
 Schrodinger Suite 2021-1.
 40 43  0  0  1  0            999 V2000
   15.7519   14.4614    4.0030 C   0  0  0  0  0  0
   16.9452   13.9099    3.5098 C   0  0  0  0  0  0
   16.8861   12.7061    2.8030 C   0  0  0  0  0  0
   15.7417   12.0389    2.4999 N   0  0  0  0  0  0
   14.5474   13.8043    3.7191 C   0  0  0  0  0  0
   14.6242   12.6064    2.9581 C   0  0  0  0  0  0
   13.3381   12.1596    2.7668 N   0  0  0  0  0  0
   12.4491   13.0404    3.3493 C   0  0  0  0  0  0
   13.1615   14.0361    3.9982 C   0  0  0  0  0  0
   11.0035   12.8330    3.2030 C   0  0  0  0  0  0
   18.1954   14.5141    3.6980 N   0  0  0  0  0  0
   18.2284   15.9695    3.7236 C   0  0  0  0  0  0
   10.7125   11.7708    2.4030 O   0  0  0  0  0  0
   19.6311   16.4983    3.9373 C   0  0  0  0  0  0
   20.1721   17.3838    3.0051 C   0  0  0  0  0  0
   21.3755   18.0410    3.2504 C   0  0  0  0  0  0
   20.3213   16.1610    5.1059 C   0  0  0  0  0  0
    9.3654   11.4117    2.1363 C   0  0  0  0  0  0
   10.1692   13.5690    3.7354 O   0  0  0  0  0  0
   21.5133   16.8437    5.3559 C   0  0  0  0  0  0
   22.0267   17.8359    4.4726 C   0  0  0  0  0  0
   23.1531   18.4330    5.1295 C   0  0  0  0  0  0
   23.3623   17.7314    6.2894 C   0  0  0  0  0  0
   22.3992   16.7628    6.4030 N   0  0  0  0  0  0
   15.7407   15.3717    4.5806 H   0  0  0  0  0  0
   17.7933   12.2557    2.4240 H   0  0  0  0  0  0
   13.0444   11.3252    2.2720 H   0  0  0  0  0  0
   12.7256   14.8533    4.5545 H   0  0  0  0  0  0
   18.9407   14.1279    3.1337 H   0  0  0  0  0  0
   17.7975   16.3627    2.8030 H   0  0  0  0  0  0
   17.6144   16.3533    4.5386 H   0  0  0  0  0  0
   19.6344   17.6042    2.0936 H   0  0  0  0  0  0
   21.7637   18.7563    2.5396 H   0  0  0  0  0  0
   19.9137   15.4482    5.8080 H   0  0  0  0  0  0
    9.3364   10.4956    1.5459 H   0  0  0  0  0  0
    8.8553   12.1968    1.5771 H   0  0  0  0  0  0
    8.8155   11.2330    3.0614 H   0  0  0  0  0  0
   23.7599   19.2644    4.8030 H   0  0  0  0  0  0
   24.1252   17.8298    7.0513 H   0  0  0  0  0  0
   22.3693   16.1275    7.1864 H   0  0  0  0  0  0
  1  5  1  0  0  0
  1  2  2  0  0  0
  1 25  1  0  0  0
  2  3  1  0  0  0
  2 11  1  0  0  0
  3  4  2  0  0  0
  3 26  1  0  0  0
  4  6  1  0  0  0
  5  6  2  0  0  0
  5  9  1  0  0  0
  6  7  1  0  0  0
  7  8  1  0  0  0
  7 27  1  0  0  0
  8  9  2  0  0  0
  8 10  1  0  0  0
  9 28  1  0  0  0
 10 13  1  0  0  0
 10 19  2  0  0  0
 11 12  1  0  0  0
 11 29  1  0  0  0
 12 14  1  0  0  0
 12 30  1  0  0  0
 12 31  1  0  0  0
 13 18  1  0  0  0
 14 15  2  0  0  0
 14 17  1  0  0  0
 15 16  1  0  0  0
 15 32  1  0  0  0
 16 21  2  0  0  0
 16 33  1  0  0  0
 17 20  2  0  0  0
 17 34  1  0  0  0
 18 35  1  0  0  0
 18 36  1  0  0  0
 18 37  1  0  0  0
 20 21  1  0  0  0
 20 24  1  0  0  0
 21 22  1  0  0  0
 22 23  2  0  0  0
 22 38  1  0  0  0
 23 24  1  0  0  0
 23 39  1  0  0  0
 24 40  1  0  0  0
M  END
> <s_m_entry_id>
6169

> <s_m_entry_name>
dock_pv.95

> <s_m_Source_Path>
/home/csk/Desktop/cluster/DUD-E-result/abl1

> <s_m_Source_File>
dock_pv.maegz

> <i_m_Source_File_Index>
95

> <chembl_id>
CHEMBL3347420

> <chembl_pref_name>
None

> <i_lp_mmshare_version>
53161

> <i_f3d_flags>
0

> <r_lp_tautomer_probability>
1

> <s_lp_Force_Field>
OPLS_2005

> <r_lp_Energy>
11.394593

> <b_lp_Chiralities_Consistent>
1

> <s_lp_Variant>
CHEMBL1862_lig835-1

> <s_i_glide_gridfile>
glide-grid_2hzi

> <i_i_glide_lignum>
973

> <i_i_glide_rotatable_bonds>
5

> <r_i_docking_score>
-10.5112254199168

> <r_i_glide_ligand_efficiency>
-0.437967725829867

> <r_i_glide_ligand_efficiency_sa>
-1.26331752743498

> <r_i_glide_ligand_efficiency_ln>
-2.51581857169165

> <r_i_glide_gscore>
-10.5112254199168

> <r_i_glide_lipo>
-4.40296887529805

> <r_i_glide_hbond>
-0.53863678031689

> <r_i_glide_metal>
0

> <r_i_glide_rewards>
-2.9648142046363

> <r_i_glide_evdw>
-45.2039337158203

> <r_i_glide_ecoul>
-5.69371128082275

> <r_i_glide_erotb>
0.509447818248869

> <r_i_glide_esite>
0

> <r_i_glide_emodel>
-79.5284388404096

> <r_i_glide_energy>
-50.8976449966431

> <r_i_glide_einternal>
4.30204200744629

> <i_i_glide_confnum>
6

> <i_i_glide_posenum>
2

> <r_i_glide_eff_state_penalty>
0

> <s_user_duplicate_titles>
CHEMBL1862_lig835

> <s_m_subgroup_title>
dock_pv

> <s_m_subgroupid>
dock_pv

> <b_m_subgroup_collapsed>
0

$$$$
CHEMBL1862_lig547
                    3D
 Schrodinger Suite 2021-1.
 38 41  0  0  1  0            999 V2000
   16.8202   12.0563    2.3519 N   0  0  0  0  0  0
   15.4844   12.2675    2.4030 C   0  0  0  0  0  0
   14.8377   13.2250    3.0936 N   0  0  0  0  0  0
   17.6061   12.9626    2.9732 C   0  0  0  0  0  0
   17.0663   13.9975    3.7380 C   0  0  0  0  0  0
   15.6602   14.0330    3.7676 C   0  0  0  0  0  0
   15.3377   15.0288    4.6545 N   0  0  0  0  0  0
   16.4501   15.6529    5.1148 N   0  0  0  0  0  0
   17.4948   15.0733    4.5751 C   0  0  0  0  0  0
   18.8778   15.4936    4.9205 C   0  0  0  0  0  0
   20.7252   15.4672    6.4984 C   0  0  0  0  0  0
   19.4466   15.0716    6.1216 C   0  0  0  0  0  0
   18.9640   12.8330    2.8030 N   0  0  0  0  0  0
   14.0327   15.5139    5.0725 C   0  0  0  0  0  0
   21.4974   16.3266    5.7225 C   0  0  0  0  0  0
   12.8673   14.5223    4.8353 C   0  0  0  0  0  0
   13.7640   16.8330    4.3359 C   0  0  0  0  0  0
   20.9356   16.7541    4.5179 C   0  0  0  0  0  0
   19.6361   16.3358    4.0862 C   0  0  0  0  0  0
   19.4257   16.9331    2.8030 C   0  0  0  0  0  0
   20.5640   17.6330    2.4836 C   0  0  0  0  0  0
   21.4333   17.5893    3.5415 N   0  0  0  0  0  0
   14.8510   11.6330    1.8073 H   0  0  0  0  0  0
   21.1134   15.1259    7.4404 H   0  0  0  0  0  0
   18.8832   14.4330    6.7833 H   0  0  0  0  0  0
   19.5807   13.5454    3.1678 H   0  0  0  0  0  0
   19.2986   12.1139    2.1578 H   0  0  0  0  0  0
   14.1622   15.6330    6.1471 H   0  0  0  0  0  0
   22.4828   16.6359    6.0417 H   0  0  0  0  0  0
   11.9239   14.9192    5.2030 H   0  0  0  0  0  0
   12.6929   14.3384    3.7756 H   0  0  0  0  0  0
   13.0392   13.5657    5.3277 H   0  0  0  0  0  0
   12.7190   17.1313    4.4030 H   0  0  0  0  0  0
   14.3841   17.6378    4.7335 H   0  0  0  0  0  0
   13.9825   16.7269    3.2741 H   0  0  0  0  0  0
   18.5640   16.8330    2.1712 H   0  0  0  0  0  0
   20.8310   18.1876    1.5978 H   0  0  0  0  0  0
   22.3282   18.0569    3.5334 H   0  0  0  0  0  0
  1  2  2  0  0  0
  1  4  1  0  0  0
  2  3  1  0  0  0
  2 23  1  0  0  0
  3  6  2  0  0  0
  4 13  1  0  0  0
  4  5  2  0  0  0
  5  6  1  0  0  0
  5  9  1  0  0  0
  6  7  1  0  0  0
  7 14  1  0  0  0
  7  8  1  0  0  0
  8  9  2  0  0  0
  9 10  1  0  0  0
 10 12  1  0  0  0
 10 19  2  0  0  0
 11 15  1  0  0  0
 11 12  2  0  0  0
 11 24  1  0  0  0
 12 25  1  0  0  0
 13 26  1  0  0  0
 13 27  1  0  0  0
 14 16  1  0  0  0
 14 17  1  0  0  0
 14 28  1  0  0  0
 15 18  2  0  0  0
 15 29  1  0  0  0
 16 30  1  0  0  0
 16 31  1  0  0  0
 16 32  1  0  0  0
 17 33  1  0  0  0
 17 34  1  0  0  0
 17 35  1  0  0  0
 18 19  1  0  0  0
 18 22  1  0  0  0
 19 20  1  0  0  0
 20 21  2  0  0  0
 20 36  1  0  0  0
 21 22  1  0  0  0
 21 37  1  0  0  0
 22 38  1  0  0  0
M  END
> <s_m_entry_id>
6170

> <s_m_entry_name>
dock_pv.96

> <s_m_Source_Path>
/home/csk/Desktop/cluster/DUD-E-result/abl1

> <s_m_Source_File>
dock_pv.maegz

> <i_m_Source_File_Index>
96

> <chembl_id>
CHEMBL1242757

> <chembl_pref_name>
None

> <i_lp_mmshare_version>
53161

> <i_f3d_flags>
0

> <r_lp_tautomer_probability>
1

> <s_lp_Force_Field>
OPLS_2005

> <r_lp_Energy>
21.445422

> <b_lp_Chiralities_Consistent>
1

> <s_lp_Variant>
CHEMBL1862_lig547-1

> <s_i_glide_gridfile>
glide-grid_2hzi

> <i_i_glide_lignum>
650

> <i_i_glide_rotatable_bonds>
2

> <r_i_docking_score>
-10.5062235654048

> <r_i_glide_ligand_efficiency>
-0.477555616609309

> <r_i_glide_ligand_efficiency_sa>
-1.33812961893593

> <r_i_glide_ligand_efficiency_ln>
-2.56810426320076

> <r_i_glide_gscore>
-10.5062235654048

> <r_i_glide_lipo>
-3.56693580931459

> <r_i_glide_hbond>
-0.602488618674799

> <r_i_glide_metal>
0

> <r_i_glide_rewards>
-4.11709104528274

> <r_i_glide_evdw>
-29.9602546691895

> <r_i_glide_ecoul>
-6.23536157608032

> <r_i_glide_erotb>
0.213608877738853

> <r_i_glide_esite>
0

> <r_i_glide_emodel>
-34.932048725783

> <r_i_glide_energy>
-36.1956162452698

> <r_i_glide_einternal>
10.5021724700928

> <i_i_glide_confnum>
2

> <i_i_glide_posenum>
283

> <r_i_glide_eff_state_penalty>
0

> <s_user_duplicate_titles>
CHEMBL1862_lig547

> <s_m_subgroup_title>
dock_pv

> <s_m_subgroupid>
dock_pv

> <b_m_subgroup_collapsed>
0

$$$$
CHEMBL1862_lig637
                    3D
 Schrodinger Suite 2021-1.
 44 47  0  0  1  0            999 V2000
   17.4513   15.6330    6.1457 C   0  0  0  0  0  0
   18.8032   15.8577    6.3607 C   0  0  0  0  0  0
   17.7640   16.0330    3.8032 C   0  0  0  0  0  0
   16.9504   15.6037    4.8528 C   0  0  0  0  0  0
   19.0663   16.5371    4.0353 C   0  0  0  0  0  0
   19.6131   16.4165    5.3429 C   0  0  0  0  0  0
   20.9325   16.8766    5.5895 C   0  0  0  0  0  0
   21.6703   17.5097    4.5783 C   0  0  0  0  0  0
   21.1136   17.6330    3.3065 C   0  0  0  0  0  0
   19.8448   17.1356    3.0158 C   0  0  0  0  0  0
   15.7640   12.1158    2.0030 N   0  0  0  0  0  0
   14.4156   12.0330    2.0030 C   0  0  0  0  0  0
   13.5367   12.6782    2.8030 N   0  0  0  0  0  0
   16.3182   13.0284    2.8209 C   0  0  0  0  0  0
   15.5096   13.8468    3.6303 C   0  0  0  0  0  0
   14.1245   13.5704    3.6030 C   0  0  0  0  0  0
   13.5460   14.3826    4.5612 N   0  0  0  0  0  0
   14.4963   15.1802    5.1312 N   0  0  0  0  0  0
   15.6548   14.9227    4.5517 C   0  0  0  0  0  0
   17.7078   13.0705    2.8439 N   0  0  0  0  0  0
   12.1419   14.4346    5.0346 C   0  0  0  0  0  0
   11.9455   13.6330    6.3398 C   0  0  0  0  0  0
   11.1034   13.9650    3.9971 C   0  0  0  0  0  0
   22.9375   18.0329    4.7496 O   0  0  0  0  0  0
   23.5170   18.0543    6.0505 C   0  0  0  0  0  0
   16.8440   15.2677    6.9615 H   0  0  0  0  0  0
   19.2288   15.6330    7.3252 H   0  0  0  0  0  0
   17.3709   16.0330    2.8027 H   0  0  0  0  0  0
   21.3364   16.7646    6.5839 H   0  0  0  0  0  0
   21.6879   18.1072    2.5236 H   0  0  0  0  0  0
   19.4431   17.2218    2.0161 H   0  0  0  0  0  0
   13.9952   11.3346    1.2932 H   0  0  0  0  0  0
   18.1727   13.7333    3.4474 H   0  0  0  0  0  0
   18.2323   12.4468    2.2439 H   0  0  0  0  0  0
   11.9349   15.4900    5.2030 H   0  0  0  0  0  0
   10.9146   13.7006    6.6893 H   0  0  0  0  0  0
   12.1640   12.5756    6.2175 H   0  0  0  0  0  0
   12.5640   14.0276    7.1408 H   0  0  0  0  0  0
   10.0915   14.2133    4.3190 H   0  0  0  0  0  0
   11.2568   14.4330    3.0339 H   0  0  0  0  0  0
   11.1304   12.8853    3.8464 H   0  0  0  0  0  0
   24.5340   18.4404    5.9886 H   0  0  0  0  0  0
   22.9640   18.7134    6.7183 H   0  0  0  0  0  0
   23.5710   17.0605    6.4958 H   0  0  0  0  0  0
  1  2  2  0  0  0
  1  4  1  0  0  0
  1 26  1  0  0  0
  2  6  1  0  0  0
  2 27  1  0  0  0
  3  5  1  0  0  0
  3  4  2  0  0  0
  3 28  1  0  0  0
  4 19  1  0  0  0
  5  6  1  0  0  0
  5 10  2  0  0  0
  6  7  2  0  0  0
  7  8  1  0  0  0
  7 29  1  0  0  0
  8  9  2  0  0  0
  8 24  1  0  0  0
  9 10  1  0  0  0
  9 30  1  0  0  0
 10 31  1  0  0  0
 11 14  1  0  0  0
 11 12  2  0  0  0
 12 13  1  0  0  0
 12 32  1  0  0  0
 13 16  2  0  0  0
 14 15  2  0  0  0
 14 20  1  0  0  0
 15 16  1  0  0  0
 15 19  1  0  0  0
 16 17  1  0  0  0
 17 18  1  0  0  0
 17 21  1  0  0  0
 18 19  2  0  0  0
 20 33  1  0  0  0
 20 34  1  0  0  0
 21 22  1  0  0  0
 21 23  1  0  0  0
 21 35  1  0  0  0
 22 36  1  0  0  0
 22 37  1  0  0  0
 22 38  1  0  0  0
 23 39  1  0  0  0
 23 40  1  0  0  0
 23 41  1  0  0  0
 24 25  1  0  0  0
 25 42  1  0  0  0
 25 43  1  0  0  0
 25 44  1  0  0  0
M  END
> <s_m_entry_id>
6171

> <s_m_entry_name>
dock_pv.97

> <s_m_Source_Path>
/home/csk/Desktop/cluster/DUD-E-result/abl1

> <s_m_Source_File>
dock_pv.maegz

> <i_m_Source_File_Index>
97

> <chembl_id>
CHEMBL2070045

> <chembl_pref_name>
None

> <i_lp_mmshare_version>
53161

> <i_f3d_flags>
0

> <r_lp_tautomer_probability>
1

> <s_lp_Force_Field>
OPLS_2005

> <r_lp_Energy>
20.439739

> <b_lp_Chiralities_Consistent>
1

> <s_lp_Variant>
CHEMBL1862_lig637-1

> <s_i_glide_gridfile>
glide-grid_2hzi

> <i_i_glide_lignum>
745

> <i_i_glide_rotatable_bonds>
3

> <r_i_docking_score>
-10.5045484536947

> <r_i_glide_ligand_efficiency>
-0.420181938147787

> <r_i_glide_ligand_efficiency_sa>
-1.22861943910253

> <r_i_glide_ligand_efficiency_ln>
-2.48989277944033

> <r_i_glide_gscore>
-10.5045484536947

> <r_i_glide_lipo>
-4.31601632179583

> <r_i_glide_hbond>
-0.468524970644375

> <r_i_glide_metal>
0

> <r_i_glide_rewards>
-3.46974799093228

> <r_i_glide_evdw>
-34.981502532959

> <r_i_glide_ecoul>
-4.13253974914551

> <r_i_glide_erotb>
0.118696918697581

> <r_i_glide_esite>
0

> <r_i_glide_emodel>
-37.3198772818295

> <r_i_glide_energy>
-39.1140422821045

> <r_i_glide_einternal>
5.19923448562622

> <i_i_glide_confnum>
4

> <i_i_glide_posenum>
37

> <r_i_glide_eff_state_penalty>
0

> <s_user_duplicate_titles>
CHEMBL1862_lig637

> <s_m_subgroup_title>
dock_pv

> <s_m_subgroupid>
dock_pv

> <b_m_subgroup_collapsed>
0

$$$$
CHEMBL1862_lig426
                    3D
 Schrodinger Suite 2021-1.
 36 38  0  0  1  0            999 V2000
   16.8577   12.1406    2.4030 N   0  0  0  0  0  0
   15.5088   12.1120    2.5402 C   0  0  0  0  0  0
   14.7456   12.9178    3.3072 N   0  0  0  0  0  0
   17.5150   13.1560    3.0102 C   0  0  0  0  0  0
   16.8400   14.0844    3.8052 C   0  0  0  0  0  0
   15.4655   13.8574    3.9268 C   0  0  0  0  0  0
   15.0427   14.7378    4.8798 N   0  0  0  0  0  0
   16.0003   15.6313    5.2189 N   0  0  0  0  0  0
   17.1013   15.2330    4.6186 C   0  0  0  0  0  0
   18.4245   15.8288    4.8983 C   0  0  0  0  0  0
   19.2821   15.1059    5.7250 C   0  0  0  0  0  0
   20.5625   15.5737    5.9869 C   0  0  0  0  0  0
   21.0026   16.7748    5.4251 C   0  0  0  0  0  0
   20.1419   17.5089    4.6072 C   0  0  0  0  0  0
   18.8508   17.0410    4.3491 C   0  0  0  0  0  0
   18.8755   13.2330    2.8030 N   0  0  0  0  0  0
   22.2526   17.2316    5.6724 F   0  0  0  0  0  0
   21.3640   14.8330    6.8030 O   0  0  0  0  0  0
   13.7168   14.7643    5.4340 C   0  0  0  0  0  0
   12.7575   15.3921    4.4158 C   0  0  0  0  0  0
   11.6247   14.4127    4.0211 C   0  0  0  0  0  0
   10.8055   13.9753    5.1640 C   0  0  0  0  0  0
   10.1640   13.6330    6.0634 N   0  0  0  0  0  0
   14.9640   11.3893    1.9575 H   0  0  0  0  0  0
   18.9640   14.1676    6.1551 H   0  0  0  0  0  0
   20.4823   18.4330    4.1667 H   0  0  0  0  0  0
   18.1950   17.6047    3.7048 H   0  0  0  0  0  0
   19.4148   14.0083    3.1620 H   0  0  0  0  0  0
   19.2890   12.5275    2.2004 H   0  0  0  0  0  0
   22.2897   15.1010    6.7631 H   0  0  0  0  0  0
   13.4332   13.7257    5.6030 H   0  0  0  0  0  0
   13.7640   15.2330    6.4030 H   0  0  0  0  0  0
   12.3231   16.3120    4.8030 H   0  0  0  0  0  0
   13.3640   15.6966    3.5551 H   0  0  0  0  0  0
   10.9358   14.8330    3.2923 H   0  0  0  0  0  0
   12.0433   13.5162    3.5634 H   0  0  0  0  0  0
  1  2  2  0  0  0
  1  4  1  0  0  0
  2  3  1  0  0  0
  2 24  1  0  0  0
  3  6  2  0  0  0
  4  5  2  0  0  0
  4 16  1  0  0  0
  5  9  1  0  0  0
  5  6  1  0  0  0
  6  7  1  0  0  0
  7  8  1  0  0  0
  7 19  1  0  0  0
  8  9  2  0  0  0
  9 10  1  0  0  0
 10 15  1  0  0  0
 10 11  2  0  0  0
 11 12  1  0  0  0
 11 25  1  0  0  0
 12 13  2  0  0  0
 12 18  1  0  0  0
 13 14  1  0  0  0
 13 17  1  0  0  0
 14 15  2  0  0  0
 14 26  1  0  0  0
 15 27  1  0  0  0
 16 28  1  0  0  0
 16 29  1  0  0  0
 18 30  1  0  0  0
 19 20  1  0  0  0
 19 31  1  0  0  0
 19 32  1  0  0  0
 20 21  1  0  0  0
 20 33  1  0  0  0
 20 34  1  0  0  0
 21 22  1  0  0  0
 21 35  1  0  0  0
 21 36  1  0  0  0
 22 23  3  0  0  0
M  END
> <s_m_entry_id>
6172

> <s_m_entry_name>
dock_pv.98

> <s_m_Source_Path>
/home/csk/Desktop/cluster/DUD-E-result/abl1

> <s_m_Source_File>
dock_pv.maegz

> <i_m_Source_File_Index>
98

> <chembl_id>
CHEMBL1242469

> <chembl_pref_name>
None

> <i_lp_mmshare_version>
53161

> <i_f3d_flags>
0

> <r_lp_tautomer_probability>
0.999999999997365

> <s_lp_Force_Field>
OPLS_2005

> <r_lp_Energy>
8.969662

> <b_lp_Chiralities_Consistent>
1

> <s_lp_Variant>
CHEMBL1862_lig426-1

> <s_i_glide_gridfile>
glide-grid_2hzi

> <i_i_glide_lignum>
511

> <i_i_glide_rotatable_bonds>
5

> <r_i_docking_score>
-10.5014542125174

> <r_i_glide_ligand_efficiency>
-0.456584965761627

> <r_i_glide_ligand_efficiency_sa>
-1.29846690626904

> <r_i_glide_ligand_efficiency_ln>
-2.53934685050889

> <r_i_glide_gscore>
-10.5014542125174

> <r_i_glide_lipo>
-3.0116920050003

> <r_i_glide_hbond>
-0.958152989938338

> <r_i_glide_metal>
0

> <r_i_glide_rewards>
-4.53373906914725

> <r_i_glide_evdw>
-30.9061088562012

> <r_i_glide_ecoul>
-6.82255268096924

> <r_i_glide_erotb>
0.570818196523913

> <r_i_glide_esite>
0

> <r_i_glide_emodel>
-41.4806071654794

> <r_i_glide_energy>
-37.7286615371704

> <r_i_glide_einternal>
9.0091495513916

> <i_i_glide_confnum>
3

> <i_i_glide_posenum>
104

> <r_i_glide_eff_state_penalty>
0

> <s_user_duplicate_titles>
CHEMBL1862_lig426

> <s_m_subgroup_title>
dock_pv

> <s_m_subgroupid>
dock_pv

> <b_m_subgroup_collapsed>
0

$$$$
CHEMBL1862_lig541
                    3D
 Schrodinger Suite 2021-1.
 37 40  0  0  1  0            999 V2000
   16.6548   12.0330    2.3909 N   0  0  0  0  0  0
   15.3099   12.1002    2.5159 C   0  0  0  0  0  0
   14.6055   13.0244    3.2025 N   0  0  0  0  0  0
   17.3881   12.9998    2.9662 C   0  0  0  0  0  0
   16.7882   14.0130    3.7037 C   0  0  0  0  0  0
   15.3851   13.9388    3.7910 C   0  0  0  0  0  0
   15.0256   14.9830    4.6041 N   0  0  0  0  0  0
   16.1120   15.6730    5.0304 N   0  0  0  0  0  0
   17.1655   15.1596    4.4521 C   0  0  0  0  0  0
   18.5204   15.7326    4.6068 C   0  0  0  0  0  0
   19.3248   15.3408    5.6770 C   0  0  0  0  0  0
   20.2341   17.2427    3.7677 C   0  0  0  0  0  0
   18.9702   16.6639    3.6699 C   0  0  0  0  0  0
   18.7520   12.9312    2.8030 N   0  0  0  0  0  0
   13.7104   15.4853    4.9448 C   0  0  0  0  0  0
   12.5423   14.5071    4.6886 C   0  0  0  0  0  0
   13.5219   16.8330    4.2569 C   0  0  0  0  0  0
   21.0604   16.8668    4.8359 C   0  0  0  0  0  0
   20.6046   15.9013    5.7896 C   0  0  0  0  0  0
   21.5364   15.6356    6.7506 N   0  0  0  0  0  0
   22.5620   16.4327    6.4024 N   0  0  0  0  0  0
   22.3608   17.2060    5.2870 C   0  0  0  0  0  0
   14.7361   11.3290    2.0246 H   0  0  0  0  0  0
   18.9716   14.6158    6.3958 H   0  0  0  0  0  0
   20.5679   17.9601    3.0324 H   0  0  0  0  0  0
   18.3297   16.9401    2.8455 H   0  0  0  0  0  0
   19.3376   13.6737    3.1589 H   0  0  0  0  0  0
   19.1225   12.2029    2.1938 H   0  0  0  0  0  0
   13.7676   15.6329    6.0032 H   0  0  0  0  0  0
   11.6082   14.8948    5.0943 H   0  0  0  0  0  0
   12.3771   14.3388    3.6242 H   0  0  0  0  0  0
   12.7174   13.5410    5.1640 H   0  0  0  0  0  0
   12.5001   17.1834    4.3986 H   0  0  0  0  0  0
   14.1831   17.5980    4.6608 H   0  0  0  0  0  0
   13.7641   16.7538    3.2030 H   0  0  0  0  0  0
   23.4228   16.4311    6.9340 H   0  0  0  0  0  0
   23.1328   17.8747    4.9353 H   0  0  0  0  0  0
  1  2  2  0  0  0
  1  4  1  0  0  0
  2  3  1  0  0  0
  2 23  1  0  0  0
  3  6  2  0  0  0
  4 14  1  0  0  0
  4  5  2  0  0  0
  5  9  1  0  0  0
  5  6  1  0  0  0
  6  7  1  0  0  0
  7 15  1  0  0  0
  7  8  1  0  0  0
  8  9  2  0  0  0
  9 10  1  0  0  0
 10 11  2  0  0  0
 10 13  1  0  0  0
 11 19  1  0  0  0
 11 24  1  0  0  0
 12 13  2  0  0  0
 12 25  1  0  0  0
 12 18  1  0  0  0
 13 26  1  0  0  0
 14 27  1  0  0  0
 14 28  1  0  0  0
 15 16  1  0  0  0
 15 17  1  0  0  0
 15 29  1  0  0  0
 16 30  1  0  0  0
 16 31  1  0  0  0
 16 32  1  0  0  0
 17 33  1  0  0  0
 17 34  1  0  0  0
 17 35  1  0  0  0
 18 19  1  0  0  0
 18 22  2  0  0  0
 19 20  2  0  0  0
 20 21  1  0  0  0
 21 36  1  0  0  0
 21 22  1  0  0  0
 22 37  1  0  0  0
M  END
> <s_m_entry_id>
6173

> <s_m_entry_name>
dock_pv.99

> <s_m_Source_Path>
/home/csk/Desktop/cluster/DUD-E-result/abl1

> <s_m_Source_File>
dock_pv.maegz

> <i_m_Source_File_Index>
99

> <chembl_id>
CHEMBL1242477

> <chembl_pref_name>
None

> <i_lp_mmshare_version>
53161

> <i_f3d_flags>
0

> <r_lp_tautomer_probability>
0.0196078431372549

> <s_lp_Force_Field>
OPLS_2005

> <r_lp_Energy>
26.513781

> <b_lp_Chiralities_Consistent>
1

> <s_lp_Variant>
CHEMBL1862_lig541-2

> <s_i_glide_gridfile>
glide-grid_2hzi

> <i_i_glide_lignum>
642

> <i_i_glide_rotatable_bonds>
2

> <r_i_docking_score>
-10.4940429817598

> <r_i_glide_ligand_efficiency>
-0.477001953716355

> <r_i_glide_ligand_efficiency_sa>
-1.33657823373555

> <r_i_glide_ligand_efficiency_ln>
-2.56512688426035

> <r_i_glide_gscore>
-10.4940429817598

> <r_i_glide_lipo>
-3.31869896268072

> <r_i_glide_hbond>
-0.637261223947935

> <r_i_glide_metal>
0

> <r_i_glide_rewards>
-3.89907826667827

> <r_i_glide_evdw>
-31.4235897064209

> <r_i_glide_ecoul>
-8.53453063964844

> <r_i_glide_erotb>
0.212354552815411

> <r_i_glide_esite>
0

> <r_i_glide_emodel>
-50.2351077408562

> <r_i_glide_energy>
-39.9581203460693

> <r_i_glide_einternal>
7.78153371810913

> <i_i_glide_confnum>
3

> <i_i_glide_posenum>
245

> <r_i_glide_eff_state_penalty>
0

> <s_user_duplicate_titles>
CHEMBL1862_lig541,CHEMBL1862_lig541

> <s_m_subgroup_title>
dock_pv

> <s_m_subgroupid>
dock_pv

> <b_m_subgroup_collapsed>
0

$$$$
CHEMBL1862_lig625
                    3D
 Schrodinger Suite 2021-1.
 29 31  0  0  1  0            999 V2000
   21.6130   18.3858    4.6378 C   0  0  0  0  0  0
   22.5636   17.5134    5.1559 C   0  0  0  0  0  0
   22.1831   16.2844    5.6882 C   0  0  0  0  0  0
   20.8407   15.9172    5.7077 C   0  0  0  0  0  0
   19.8765   16.7980    5.2051 C   0  0  0  0  0  0
   20.2666   18.0330    4.6752 C   0  0  0  0  0  0
   18.4254   16.4967    5.3530 C   0  0  0  0  0  0
   17.7845   15.3510    4.6189 C   0  0  0  0  0  0
   17.7354   17.2869    6.0017 O   0  0  0  0  0  0
   18.5453   14.4288    3.8814 C   0  0  0  0  0  0
   17.9555   13.3633    3.1982 C   0  0  0  0  0  0
   16.3830   15.2334    4.6669 C   0  0  0  0  0  0
   15.7987   14.1976    3.9423 C   0  0  0  0  0  0
   16.5593   13.2584    3.2031 C   0  0  0  0  0  0
   15.7481   12.3306    2.6021 N   0  0  0  0  0  0
   14.5431   12.6824    2.9667 C   0  0  0  0  0  0
   14.5005   13.7962    3.7576 N   0  0  0  0  0  0
   13.4010   12.0330    2.6422 N   0  0  0  0  0  0
   21.9199   19.3385    4.2303 H   0  0  0  0  0  0
   23.6074   17.7932    5.1499 H   0  0  0  0  0  0
   22.9404   15.6329    6.0964 H   0  0  0  0  0  0
   20.5571   14.9700    6.1461 H   0  0  0  0  0  0
   19.5281   18.7299    4.3038 H   0  0  0  0  0  0
   19.6201   14.5200    3.8165 H   0  0  0  0  0  0
   18.5619   12.6603    2.6446 H   0  0  0  0  0  0
   15.7722   15.9266    5.2294 H   0  0  0  0  0  0
   13.6466   14.1841    4.1246 H   0  0  0  0  0  0
   13.4392   11.0671    2.3130 H   0  0  0  0  0  0
   12.4851   12.3931    2.8578 H   0  0  0  0  0  0
  1  6  1  0  0  0
  1  2  2  0  0  0
  1 19  1  0  0  0
  2  3  1  0  0  0
  2 20  1  0  0  0
  3  4  2  0  0  0
  3 21  1  0  0  0
  4  5  1  0  0  0
  4 22  1  0  0  0
  5  6  2  0  0  0
  5  7  1  0  0  0
  6 23  1  0  0  0
  7  9  2  0  0  0
  7  8  1  0  0  0
  8 10  2  0  0  0
  8 12  1  0  0  0
 10 11  1  0  0  0
 10 24  1  0  0  0
 11 14  2  0  0  0
 11 25  1  0  0  0
 12 13  2  0  0  0
 12 26  1  0  0  0
 13 14  1  0  0  0
 13 17  1  0  0  0
 14 15  1  0  0  0
 15 16  2  0  0  0
 16 17  1  0  0  0
 16 18  1  0  0  0
 17 27  1  0  0  0
 18 28  1  0  0  0
 18 29  1  0  0  0
M  END
> <s_m_entry_id>
6174

> <s_m_entry_name>
dock_pv.100

> <s_m_Source_Path>
/home/csk/Desktop/cluster/DUD-E-result/abl1

> <s_m_Source_File>
dock_pv.maegz

> <i_m_Source_File_Index>
100

> <chembl_id>
CHEMBL2030560

> <chembl_pref_name>
None

> <i_lp_mmshare_version>
53161

> <i_f3d_flags>
0

> <r_lp_tautomer_probability>
1

> <s_lp_Force_Field>
OPLS_2005

> <r_lp_Energy>
17.275203

> <b_lp_Chiralities_Consistent>
1

> <s_lp_Variant>
CHEMBL1862_lig625-1

> <s_i_glide_gridfile>
glide-grid_2hzi

> <i_i_glide_lignum>
732

> <i_i_glide_rotatable_bonds>
2

> <r_i_docking_score>
-10.4727518743771

> <r_i_glide_ligand_efficiency>
-0.581819548576504

> <r_i_glide_ligand_efficiency_sa>
-1.5247985734453

> <r_i_glide_ligand_efficiency_ln>
-2.69196686746475

> <r_i_glide_gscore>
-10.4727518743771

> <r_i_glide_lipo>
-3.47156195749243

> <r_i_glide_hbond>
-0.469173251365704

> <r_i_glide_metal>
0

> <r_i_glide_rewards>
-4.04448022901308

> <r_i_glide_evdw>
-37.1499633789062

> <r_i_glide_ecoul>
-7.05800342559814

> <r_i_glide_erotb>
0.428662246279174

> <r_i_glide_esite>
0

> <r_i_glide_emodel>
-65.8628172181762

> <r_i_glide_energy>
-44.2079668045044

> <r_i_glide_einternal>
7.86579847335815

> <i_i_glide_confnum>
11

> <i_i_glide_posenum>
219

> <r_i_glide_eff_state_penalty>
0

> <s_user_duplicate_titles>
CHEMBL1862_lig625

> <s_m_subgroup_title>
dock_pv

> <s_m_subgroupid>
dock_pv

> <b_m_subgroup_collapsed>
0

$$$$
CHEMBL1862_lig482
                    3D
 Schrodinger Suite 2021-1.
 35 37  0  0  1  0            999 V2000
   16.6901   12.0330    2.4029 N   0  0  0  0  0  0
   15.3436   12.1036    2.5151 C   0  0  0  0  0  0
   14.6309   13.0289    3.1907 N   0  0  0  0  0  0
   17.4151   13.0096    2.9800 C   0  0  0  0  0  0
   16.8071   14.0228    3.7181 C   0  0  0  0  0  0
   15.4012   13.9455    3.7871 C   0  0  0  0  0  0
   15.0255   14.9885    4.5957 N   0  0  0  0  0  0
   16.1001   15.6884    5.0269 N   0  0  0  0  0  0
   17.1675   15.1719    4.4801 C   0  0  0  0  0  0
   18.5073   15.7504    4.7204 C   0  0  0  0  0  0
   19.3791   15.1288    5.6127 C   0  0  0  0  0  0
   20.6174   15.7003    5.8967 C   0  0  0  0  0  0
   21.0020   16.8959    5.2723 C   0  0  0  0  0  0
   20.1314   17.5099    4.3664 C   0  0  0  0  0  0
   18.8857   16.9430    4.0999 C   0  0  0  0  0  0
   18.7784   12.9574    2.8031 N   0  0  0  0  0  0
   13.7076   15.4812    4.9399 C   0  0  0  0  0  0
   12.5461   14.4988    4.6725 C   0  0  0  0  0  0
   13.5155   16.8330    4.2583 C   0  0  0  0  0  0
   21.4113   15.0924    6.8030 F   0  0  0  0  0  0
   22.2833   17.5258    5.5643 C   0  0  0  0  0  0
   23.2972   18.0330    5.7931 N   0  0  0  0  0  0
   14.7715   11.3304    2.0233 H   0  0  0  0  0  0
   19.0873   14.2135    6.1071 H   0  0  0  0  0  0
   20.4046   18.4329    3.8734 H   0  0  0  0  0  0
   18.2112   17.4329    3.4136 H   0  0  0  0  0  0
   19.3602   13.7114    3.1389 H   0  0  0  0  0  0
   19.1478   12.2288    2.1931 H   0  0  0  0  0  0
   13.7643   15.6245    6.0030 H   0  0  0  0  0  0
   11.6075   14.8823    5.0717 H   0  0  0  0  0  0
   12.3902   14.3320    3.6063 H   0  0  0  0  0  0
   12.7220   13.5328    5.1473 H   0  0  0  0  0  0
   12.4906   17.1770    4.3923 H   0  0  0  0  0  0
   14.1692   17.5946    4.6835 H   0  0  0  0  0  0
   13.7640   16.7670    3.2030 H   0  0  0  0  0  0
  1  2  2  0  0  0
  1  4  1  0  0  0
  2  3  1  0  0  0
  2 23  1  0  0  0
  3  6  2  0  0  0
  4  5  2  0  0  0
  4 16  1  0  0  0
  5  9  1  0  0  0
  5  6  1  0  0  0
  6  7  1  0  0  0
  7 17  1  0  0  0
  7  8  1  0  0  0
  8  9  2  0  0  0
  9 10  1  0  0  0
 10 11  2  0  0  0
 10 15  1  0  0  0
 11 12  1  0  0  0
 11 24  1  0  0  0
 12 13  2  0  0  0
 12 20  1  0  0  0
 13 14  1  0  0  0
 13 21  1  0  0  0
 14 15  2  0  0  0
 14 25  1  0  0  0
 15 26  1  0  0  0
 16 27  1  0  0  0
 16 28  1  0  0  0
 17 18  1  0  0  0
 17 19  1  0  0  0
 17 29  1  0  0  0
 18 30  1  0  0  0
 18 31  1  0  0  0
 18 32  1  0  0  0
 19 33  1  0  0  0
 19 34  1  0  0  0
 19 35  1  0  0  0
 21 22  3  0  0  0
M  END
> <s_m_entry_id>
6175

> <s_m_entry_name>
dock_pv.101

> <s_m_Source_Path>
/home/csk/Desktop/cluster/DUD-E-result/abl1

> <s_m_Source_File>
dock_pv.maegz

> <i_m_Source_File_Index>
101

> <chembl_id>
CHEMBL1241771

> <chembl_pref_name>
None

> <i_lp_mmshare_version>
53161

> <i_f3d_flags>
0

> <r_lp_tautomer_probability>
1

> <s_lp_Force_Field>
OPLS_2005

> <r_lp_Energy>
12.833515

> <b_lp_Chiralities_Consistent>
1

> <s_lp_Variant>
CHEMBL1862_lig482-1

> <s_i_glide_gridfile>
glide-grid_2hzi

> <i_i_glide_lignum>
572

> <i_i_glide_rotatable_bonds>
2

> <r_i_docking_score>
-10.472485028134

> <r_i_glide_ligand_efficiency>
-0.476022046733363

> <r_i_glide_ligand_efficiency_sa>
-1.33383249583165

> <r_i_glide_ligand_efficiency_ln>
-2.55985733404873

> <r_i_glide_gscore>
-10.472485028134

> <r_i_glide_lipo>
-3.07013162713662

> <r_i_glide_hbond>
-0.608912285153965

> <r_i_glide_metal>
0

> <r_i_glide_rewards>
-4.53272366689338

> <r_i_glide_evdw>
-31.6427841186523

> <r_i_glide_ecoul>
-5.91481018066406

> <r_i_glide_erotb>
0.208643284082195

> <r_i_glide_esite>
0

> <r_i_glide_emodel>
-45.5706954246451

> <r_i_glide_energy>
-37.5575942993164

> <r_i_glide_einternal>
6.79587078094482

> <i_i_glide_confnum>
4

> <i_i_glide_posenum>
67

> <r_i_glide_eff_state_penalty>
0

> <s_user_duplicate_titles>
CHEMBL1862_lig482

> <s_m_subgroup_title>
dock_pv

> <s_m_subgroupid>
dock_pv

> <b_m_subgroup_collapsed>
0

$$$$
CHEMBL1862_lig483
                    3D
 Schrodinger Suite 2021-1.
 39 41  0  0  1  0            999 V2000
   16.7103   12.0330    2.4029 N   0  0  0  0  0  0
   15.3637   12.1040    2.5141 C   0  0  0  0  0  0
   14.6486   13.0235    3.1955 N   0  0  0  0  0  0
   17.4333   13.0073    2.9903 C   0  0  0  0  0  0
   16.8239   14.0132    3.7409 C   0  0  0  0  0  0
   15.4161   13.9361    3.8012 C   0  0  0  0  0  0
   15.0326   14.9791    4.6070 N   0  0  0  0  0  0
   16.1038   15.6717    5.0526 N   0  0  0  0  0  0
   17.1790   15.1589    4.5153 C   0  0  0  0  0  0
   18.5102   15.7663    4.7577 C   0  0  0  0  0  0
   18.7259   17.0822    4.3524 C   0  0  0  0  0  0
   19.9505   17.6953    4.5812 C   0  0  0  0  0  0
   20.9737   16.9950    5.2293 C   0  0  0  0  0  0
   20.7548   15.6696    5.6336 C   0  0  0  0  0  0
   19.5279   15.0555    5.3919 C   0  0  0  0  0  0
   18.7958   12.9622    2.8030 N   0  0  0  0  0  0
   13.7130   15.4787    4.9403 C   0  0  0  0  0  0
   12.5520   14.4971    4.6694 C   0  0  0  0  0  0
   13.5257   16.8329    4.2569 C   0  0  0  0  0  0
   22.2653   17.6634    5.5596 C   0  0  0  0  0  0
   22.6800   18.8915    4.7529 C   0  0  0  0  0  0
   23.0431   17.2329    6.4028 O   0  0  0  0  0  0
   14.7937   11.3387    2.0094 H   0  0  0  0  0  0
   17.9371   17.6323    3.8654 H   0  0  0  0  0  0
   20.0769   18.7211    4.2687 H   0  0  0  0  0  0
   21.5297   15.1093    6.1404 H   0  0  0  0  0  0
   19.3627   14.0375    5.7136 H   0  0  0  0  0  0
   19.3786   13.7182    3.1348 H   0  0  0  0  0  0
   19.1614   12.2382    2.1856 H   0  0  0  0  0  0
   13.7641   15.6246    6.0030 H   0  0  0  0  0  0
   11.6118   14.8827    5.0628 H   0  0  0  0  0  0
   12.4018   14.3277    3.6032 H   0  0  0  0  0  0
   12.7250   13.5320    5.1475 H   0  0  0  0  0  0
   12.5028   17.1844    4.3824 H   0  0  0  0  0  0
   14.1868   17.5934    4.6720 H   0  0  0  0  0  0
   13.7640   16.7569    3.2030 H   0  0  0  0  0  0
   22.4519   18.7525    3.6963 H   0  0  0  0  0  0
   23.7539   19.0545    4.8428 H   0  0  0  0  0  0
   22.1641   19.7786    5.1150 H   0  0  0  0  0  0
  1  2  2  0  0  0
  1  4  1  0  0  0
  2  3  1  0  0  0
  2 23  1  0  0  0
  3  6  2  0  0  0
  4  5  2  0  0  0
  4 16  1  0  0  0
  5  9  1  0  0  0
  5  6  1  0  0  0
  6  7  1  0  0  0
  7 17  1  0  0  0
  7  8  1  0  0  0
  8  9  2  0  0  0
  9 10  1  0  0  0
 10 11  2  0  0  0
 10 15  1  0  0  0
 11 12  1  0  0  0
 11 24  1  0  0  0
 12 13  2  0  0  0
 12 25  1  0  0  0
 13 14  1  0  0  0
 13 20  1  0  0  0
 14 15  2  0  0  0
 14 26  1  0  0  0
 15 27  1  0  0  0
 16 28  1  0  0  0
 16 29  1  0  0  0
 17 18  1  0  0  0
 17 19  1  0  0  0
 17 30  1  0  0  0
 18 31  1  0  0  0
 18 32  1  0  0  0
 18 33  1  0  0  0
 19 34  1  0  0  0
 19 35  1  0  0  0
 19 36  1  0  0  0
 20 21  1  0  0  0
 20 22  2  0  0  0
 21 37  1  0  0  0
 21 38  1  0  0  0
 21 39  1  0  0  0
M  END
> <s_m_entry_id>
6176

> <s_m_entry_name>
dock_pv.102

> <s_m_Source_Path>
/home/csk/Desktop/cluster/DUD-E-result/abl1

> <s_m_Source_File>
dock_pv.maegz

> <i_m_Source_File_Index>
102

> <chembl_id>
CHEMBL1241773

> <chembl_pref_name>
None

> <i_lp_mmshare_version>
53161

> <i_f3d_flags>
0

> <r_lp_tautomer_probability>
0.99995

> <s_lp_Force_Field>
OPLS_2005

> <r_lp_Energy>
17.971122

> <b_lp_Chiralities_Consistent>
1

> <s_lp_Variant>
CHEMBL1862_lig483-1

> <s_i_glide_gridfile>
glide-grid_2hzi

> <i_i_glide_lignum>
573

> <i_i_glide_rotatable_bonds>
3

> <r_i_docking_score>
-10.4719404918317

> <r_i_glide_ligand_efficiency>
-0.47599729508326

> <r_i_glide_ligand_efficiency_sa>
-1.33376314073463

> <r_i_glide_ligand_efficiency_ln>
-2.55972422951401

> <r_i_glide_gscore>
-10.4719404918317

> <r_i_glide_lipo>
-3.36967509001558

> <r_i_glide_hbond>
-0.611005731394224

> <r_i_glide_metal>
0

> <r_i_glide_rewards>
-4.39442455632265

> <r_i_glide_evdw>
-30.8916759490967

> <r_i_glide_ecoul>
-5.08056735992432

> <r_i_glide_erotb>
0.209833787344225

> <r_i_glide_esite>
0

> <r_i_glide_emodel>
-43.6428748801271

> <r_i_glide_energy>
-35.972243309021

> <r_i_glide_einternal>
6.09184741973877

> <i_i_glide_confnum>
2

> <i_i_glide_posenum>
12

> <r_i_glide_eff_state_penalty>
0

> <s_user_duplicate_titles>
CHEMBL1862_lig483

> <s_m_subgroup_title>
dock_pv

> <s_m_subgroupid>
dock_pv

> <b_m_subgroup_collapsed>
0

$$$$
CHEMBL1862_lig717
                    3D
 Schrodinger Suite 2021-1.
 47 50  0  0  1  0            999 V2000
   13.6673   12.3491    2.4150 N   0  0  0  0  0  0
   12.6646   12.8420    3.2028 C   0  0  0  0  0  0
   13.0777   13.7846    4.1144 N   0  0  0  0  0  0
   15.0041   12.6141    2.3608 C   0  0  0  0  0  0
   15.3339   13.6158    3.3172 C   0  0  0  0  0  0
   14.4177   14.1637    4.2095 C   0  0  0  0  0  0
   14.9789   14.9715    5.0833 N   0  0  0  0  0  0
   16.5491   14.1856    3.6386 N   0  0  0  0  0  0
   16.2539   14.9338    4.7495 C   0  0  0  0  0  0
   17.4486   15.3629    5.2424 N   0  0  0  0  0  0
   18.4660   15.0832    4.3305 C   0  0  0  0  0  0
   17.9100   14.2727    3.3413 C   0  0  0  0  0  0
   19.8508   15.6325    4.5043 C   0  0  0  0  0  0
   20.6048   15.2350    5.6171 C   0  0  0  0  0  0
   21.7833   15.8987    5.9542 C   0  0  0  0  0  0
   22.2384   16.9504    5.1664 C   0  0  0  0  0  0
   21.5370   17.3096    4.0163 C   0  0  0  0  0  0
   20.3553   16.6470    3.6653 C   0  0  0  0  0  0
   12.0952   14.3804    5.0235 C   0  0  0  0  0  0
   15.7655   12.0336    1.6086 O   0  0  0  0  0  0
   11.5124   12.4375    3.0602 O   0  0  0  0  0  0
   17.5556   15.9553    6.5610 C   0  0  0  0  0  0
   17.2998   17.4507    6.5231 C   0  0  0  0  0  0
   18.4638   18.2911    5.9645 C   0  0  0  0  0  0
   18.6283   19.6350    6.6801 C   0  0  0  0  0  0
   19.6209   17.0894    2.4081 C   0  0  0  0  0  0
   13.3724   11.6036    1.7991 H   0  0  0  0  0  0
   18.3567   13.7793    2.4900 H   0  0  0  0  0  0
   20.2505   14.4386    6.2554 H   0  0  0  0  0  0
   22.3415   15.6158    6.8325 H   0  0  0  0  0  0
   23.1476   17.4702    5.4326 H   0  0  0  0  0  0
   21.9183   18.1092    3.3971 H   0  0  0  0  0  0
   11.9902   15.4443    4.8069 H   0  0  0  0  0  0
   11.1077   13.9223    4.9583 H   0  0  0  0  0  0
   12.4389   14.2657    6.0511 H   0  0  0  0  0  0
   18.5125   15.7112    7.0159 H   0  0  0  0  0  0
   16.8086   15.4844    7.2017 H   0  0  0  0  0  0
   17.0422   17.7256    7.5452 H   0  0  0  0  0  0
   16.3836   17.6330    5.9641 H   0  0  0  0  0  0
   18.3247   18.4338    4.8947 H   0  0  0  0  0  0
   19.4074   17.7555    6.0034 H   0  0  0  0  0  0
   19.6856   19.8597    6.8001 H   0  0  0  0  0  0
   18.1969   19.6391    7.6816 H   0  0  0  0  0  0
   18.1628   20.4384    6.1129 H   0  0  0  0  0  0
   20.0071   18.0296    2.0097 H   0  0  0  0  0  0
   19.7071   16.3233    1.6372 H   0  0  0  0  0  0
   18.5645   17.2369    2.6198 H   0  0  0  0  0  0
  1  2  1  0  0  0
  1  4  1  0  0  0
  1 27  1  0  0  0
  2  3  1  0  0  0
  2 21  2  0  0  0
  3  6  1  0  0  0
  3 19  1  0  0  0
  4  5  1  0  0  0
  4 20  2  0  0  0
  5  6  2  0  0  0
  5  8  1  0  0  0
  6  7  1  0  0  0
  7  9  2  0  0  0
  8  9  1  0  0  0
  8 12  1  0  0  0
  9 10  1  0  0  0
 10 11  1  0  0  0
 10 22  1  0  0  0
 11 12  2  0  0  0
 11 13  1  0  0  0
 12 28  1  0  0  0
 13 14  2  0  0  0
 13 18  1  0  0  0
 14 15  1  0  0  0
 14 29  1  0  0  0
 15 16  2  0  0  0
 15 30  1  0  0  0
 16 17  1  0  0  0
 16 31  1  0  0  0
 17 18  2  0  0  0
 17 32  1  0  0  0
 18 26  1  0  0  0
 19 33  1  0  0  0
 19 34  1  0  0  0
 19 35  1  0  0  0
 22 23  1  0  0  0
 22 36  1  0  0  0
 22 37  1  0  0  0
 23 24  1  0  0  0
 23 38  1  0  0  0
 23 39  1  0  0  0
 24 25  1  0  0  0
 24 40  1  0  0  0
 24 41  1  0  0  0
 25 42  1  0  0  0
 25 43  1  0  0  0
 25 44  1  0  0  0
 26 45  1  0  0  0
 26 46  1  0  0  0
 26 47  1  0  0  0
M  END
> <s_m_entry_id>
6177

> <s_m_entry_name>
dock_pv.103

> <s_m_Source_Path>
/home/csk/Desktop/cluster/DUD-E-result/abl1

> <s_m_Source_File>
dock_pv.maegz

> <i_m_Source_File_Index>
103

> <chembl_id>
CHEMBL2333603

> <chembl_pref_name>
None

> <i_lp_mmshare_version>
53161

> <i_f3d_flags>
0

> <r_lp_tautomer_probability>
1

> <s_lp_Force_Field>
OPLS_2005

> <r_lp_Energy>
43.981532

> <b_lp_Chiralities_Consistent>
1

> <s_lp_Variant>
CHEMBL1862_lig717-1

> <s_i_glide_gridfile>
glide-grid_2hzi

> <i_i_glide_lignum>
850

> <i_i_glide_rotatable_bonds>
4

> <r_i_docking_score>
-10.4670188007032

> <r_i_glide_ligand_efficiency>
-0.402577646180892

> <r_i_glide_ligand_efficiency_sa>
-1.19263469274435

> <r_i_glide_ligand_efficiency_ln>
-2.45814502025515

> <r_i_glide_gscore>
-10.4670188007032

> <r_i_glide_lipo>
-3.8151472011327

> <r_i_glide_hbond>
-0.428031095469137

> <r_i_glide_metal>
0

> <r_i_glide_rewards>
-3.75281958325701

> <r_i_glide_evdw>
-42.6752853393555

> <r_i_glide_ecoul>
-4.41072607040405

> <r_i_glide_erotb>
0.324352256684027

> <r_i_glide_esite>
0

> <r_i_glide_emodel>
-68.1830265279518

> <r_i_glide_energy>
-47.0860114097595

> <r_i_glide_einternal>
3.24407362937927

> <i_i_glide_confnum>
17

> <i_i_glide_posenum>
102

> <r_i_glide_eff_state_penalty>
0

> <s_user_duplicate_titles>
CHEMBL1862_lig717

> <s_m_subgroup_title>
dock_pv

> <s_m_subgroupid>
dock_pv

> <b_m_subgroup_collapsed>
0

$$$$
CHEMBL1862_lig251
                    3D
 Schrodinger Suite 2021-1.
 46 49  0  0  1  0            999 V2000
   12.2576   14.0327    4.1432 C   0  0  0  0  0  0
   11.9830   13.0077    3.2273 C   0  0  0  0  0  0
   13.0451   12.3969    2.5555 C   0  0  0  0  0  0
   13.5674   14.4634    4.3681 C   0  0  0  0  0  0
   14.6567   13.8402    3.7052 C   0  0  0  0  0  0
   14.3802   12.7702    2.8035 C   0  0  0  0  0  0
   15.3642   12.0838    2.1635 N   0  0  0  0  0  0
   16.6460   12.4330    2.4030 C   0  0  0  0  0  0
   17.0088   13.4765    3.2248 C   0  0  0  0  0  0
   16.0197   14.2175    3.8896 C   0  0  0  0  0  0
   11.2393   14.6778    4.8030 O   0  0  0  0  0  0
   10.6582   12.6506    3.0383 O   0  0  0  0  0  0
   10.3356   11.5960    2.1346 C   0  0  0  0  0  0
   10.6332   13.9198    5.8458 C   0  0  0  0  0  0
   16.3356   15.2532    4.7472 O   0  0  0  0  0  0
   17.6166   15.7522    4.7578 C   0  0  0  0  0  0
   18.1640   16.3423    3.6201 C   0  0  0  0  0  0
   19.7062   16.0333    5.9005 C   0  0  0  0  0  0
   18.3892   15.6035    5.8943 C   0  0  0  0  0  0
   20.2766   16.7180    4.7818 C   0  0  0  0  0  0
   19.4720   16.8433    3.6087 C   0  0  0  0  0  0
   19.9855   17.4639    2.4511 C   0  0  0  0  0  0
   21.2462   18.0330    2.4781 C   0  0  0  0  0  0
   22.0078   17.9979    3.6312 C   0  0  0  0  0  0
   21.5893   17.3015    4.7690 C   0  0  0  0  0  0
   22.5425   17.1259    5.9199 C   0  0  0  0  0  0
   23.3639   18.1362    6.2011 N   0  0  0  0  0  0
   22.5645   16.0818    6.5579 O   0  0  0  0  0  0
   12.8722   11.6102    1.8394 H   0  0  0  0  0  0
   13.7588   15.2707    5.0605 H   0  0  0  0  0  0
   17.4246   11.8415    1.9485 H   0  0  0  0  0  0
   18.0617   13.6731    3.3627 H   0  0  0  0  0  0
    9.2613   11.4135    2.1609 H   0  0  0  0  0  0
   10.6028   11.8558    1.1093 H   0  0  0  0  0  0
   10.8310   10.6619    2.4033 H   0  0  0  0  0  0
    9.8659   14.5204    6.3342 H   0  0  0  0  0  0
   10.1475   13.0167    5.4758 H   0  0  0  0  0  0
   11.3627   13.6325    6.6056 H   0  0  0  0  0  0
   17.5638   16.4320    2.7303 H   0  0  0  0  0  0
   20.2678   15.8819    6.8031 H   0  0  0  0  0  0
   17.9736   15.1313    6.7709 H   0  0  0  0  0  0
   19.3830   17.5225    1.5558 H   0  0  0  0  0  0
   21.6289   18.5334    1.6031 H   0  0  0  0  0  0
   22.9640   18.4804    3.6037 H   0  0  0  0  0  0
   24.0444   18.0049    6.9346 H   0  0  0  0  0  0
   23.2546   19.0410    5.7672 H   0  0  0  0  0  0
  1  2  2  0  0  0
  1  4  1  0  0  0
  1 11  1  0  0  0
  2  3  1  0  0  0
  2 12  1  0  0  0
  3  6  2  0  0  0
  3 29  1  0  0  0
  4  5  2  0  0  0
  4 30  1  0  0  0
  5 10  1  0  0  0
  5  6  1  0  0  0
  6  7  1  0  0  0
  7  8  2  0  0  0
  8  9  1  0  0  0
  8 31  1  0  0  0
  9 10  2  0  0  0
  9 32  1  0  0  0
 10 15  1  0  0  0
 11 14  1  0  0  0
 12 13  1  0  0  0
 13 33  1  0  0  0
 13 34  1  0  0  0
 13 35  1  0  0  0
 14 36  1  0  0  0
 14 37  1  0  0  0
 14 38  1  0  0  0
 15 16  1  0  0  0
 16 17  2  0  0  0
 16 19  1  0  0  0
 17 21  1  0  0  0
 17 39  1  0  0  0
 18 20  1  0  0  0
 18 19  2  0  0  0
 18 40  1  0  0  0
 19 41  1  0  0  0
 20 21  1  0  0  0
 20 25  2  0  0  0
 21 22  2  0  0  0
 22 23  1  0  0  0
 22 42  1  0  0  0
 23 24  2  0  0  0
 23 43  1  0  0  0
 24 25  1  0  0  0
 24 44  1  0  0  0
 25 26  1  0  0  0
 26 27  1  0  0  0
 26 28  2  0  0  0
 27 45  1  0  0  0
 27 46  1  0  0  0
M  END
> <s_m_entry_id>
6178

> <s_m_entry_name>
dock_pv.104

> <s_m_Source_Path>
/home/csk/Desktop/cluster/DUD-E-result/abl1

> <s_m_Source_File>
dock_pv.maegz

> <i_m_Source_File_Index>
104

> <chembl_id>
CHEMBL271984

> <chembl_pref_name>
None

> <i_lp_mmshare_version>
53161

> <i_f3d_flags>
0

> <r_lp_tautomer_probability>
1

> <s_lp_Force_Field>
OPLS_2005

> <r_lp_Energy>
31.707454

> <b_lp_Chiralities_Consistent>
1

> <s_lp_Variant>
CHEMBL1862_lig251-1

> <s_i_glide_gridfile>
glide-grid_2hzi

> <i_i_glide_lignum>
291

> <i_i_glide_rotatable_bonds>
5

> <r_i_docking_score>
-10.4658190158042

> <r_i_glide_ligand_efficiency>
-0.373779250564434

> <r_i_glide_ligand_efficiency_sa>
-1.13501394891921

> <r_i_glide_ligand_efficiency_ln>
-2.41581831864648

> <r_i_glide_gscore>
-10.4658190158042

> <r_i_glide_lipo>
-5.53085182242452

> <r_i_glide_hbond>
-0.32

> <r_i_glide_metal>
0

> <r_i_glide_rewards>
-2.11677237654755

> <r_i_glide_evdw>
-48.5405616760254

> <r_i_glide_ecoul>
-2.31371903419495

> <r_i_glide_erotb>
0.275891122098432

> <r_i_glide_esite>
0

> <r_i_glide_emodel>
-73.9861729540489

> <r_i_glide_energy>
-50.8542807102203

> <r_i_glide_einternal>
13.3540678024292

> <i_i_glide_confnum>
1

> <i_i_glide_posenum>
35

> <r_i_glide_eff_state_penalty>
0

> <s_user_duplicate_titles>
CHEMBL1862_lig251,441171

> <s_m_subgroup_title>
dock_pv

> <s_m_subgroupid>
dock_pv

> <b_m_subgroup_collapsed>
0

$$$$
CHEMBL1862_lig505
                    3D
 Schrodinger Suite 2021-1.
 33 35  0  0  1  0            999 V2000
   16.4796   12.0330    2.3160 N   0  0  0  0  0  0
   15.1272   12.0848    2.4043 C   0  0  0  0  0  0
   14.3854   12.9847    3.0869 N   0  0  0  0  0  0
   17.1874   12.9989    2.9420 C   0  0  0  0  0  0
   16.5422   13.9974    3.6842 C   0  0  0  0  0  0
   15.1338   13.9068    3.6996 C   0  0  0  0  0  0
   14.7011   14.9576    4.4620 N   0  0  0  0  0  0
   15.7394   15.6512    4.9763 N   0  0  0  0  0  0
   16.8545   15.1391    4.4952 C   0  0  0  0  0  0
   18.1985   15.7032    4.8348 C   0  0  0  0  0  0
   19.1759   14.9281    5.4674 C   0  0  0  0  0  0
   20.4324   15.4675    5.7570 C   0  0  0  0  0  0
   20.7516   16.7820    5.3971 C   0  0  0  0  0  0
   19.7688   17.5571    4.7603 C   0  0  0  0  0  0
   18.5081   17.0222    4.4945 C   0  0  0  0  0  0
   18.5639   12.9520    2.8032 N   0  0  0  0  0  0
   13.3338   15.2862    4.8031 C   0  0  0  0  0  0
   21.3624   14.7004    6.4055 O   0  0  0  0  0  0
   22.0233   17.2363    5.7059 O   0  0  0  0  0  0
   22.3997   18.5629    5.3479 C   0  0  0  0  0  0
   14.5648   11.3416    1.8559 H   0  0  0  0  0  0
   18.9628   13.9055    5.7447 H   0  0  0  0  0  0
   19.9645   18.5750    4.4627 H   0  0  0  0  0  0
   17.7678   17.6332    4.0026 H   0  0  0  0  0  0
   19.1331   13.6906    3.1908 H   0  0  0  0  0  0
   18.9636   12.2369    2.1990 H   0  0  0  0  0  0
   12.6605   14.8608    4.0579 H   0  0  0  0  0  0
   13.1006   14.8334    5.7664 H   0  0  0  0  0  0
   13.2042   16.3676    4.8030 H   0  0  0  0  0  0
   22.2318   15.1161    6.4033 H   0  0  0  0  0  0
   23.4247   18.7471    5.6709 H   0  0  0  0  0  0
   22.3620   18.7118    4.2673 H   0  0  0  0  0  0
   21.7648   19.3046    5.8347 H   0  0  0  0  0  0
  1  4  1  0  0  0
  1  2  2  0  0  0
  2  3  1  0  0  0
  2 21  1  0  0  0
  3  6  2  0  0  0
  4  5  2  0  0  0
  4 16  1  0  0  0
  5  6  1  0  0  0
  5  9  1  0  0  0
  6  7  1  0  0  0
  7 17  1  0  0  0
  7  8  1  0  0  0
  8  9  2  0  0  0
  9 10  1  0  0  0
 10 11  2  0  0  0
 10 15  1  0  0  0
 11 12  1  0  0  0
 11 22  1  0  0  0
 12 13  2  0  0  0
 12 18  1  0  0  0
 13 14  1  0  0  0
 13 19  1  0  0  0
 14 15  2  0  0  0
 14 23  1  0  0  0
 15 24  1  0  0  0
 16 25  1  0  0  0
 16 26  1  0  0  0
 17 27  1  0  0  0
 17 28  1  0  0  0
 17 29  1  0  0  0
 18 30  1  0  0  0
 19 20  1  0  0  0
 20 31  1  0  0  0
 20 32  1  0  0  0
 20 33  1  0  0  0
M  END
> <s_m_entry_id>
6179

> <s_m_entry_name>
dock_pv.105

> <s_m_Source_Path>
/home/csk/Desktop/cluster/DUD-E-result/abl1

> <s_m_Source_File>
dock_pv.maegz

> <i_m_Source_File_Index>
105

> <chembl_id>
CHEMBL1241301

> <chembl_pref_name>
None

> <i_lp_mmshare_version>
53161

> <i_f3d_flags>
0

> <r_lp_tautomer_probability>
0.999999999999776

> <s_lp_Force_Field>
OPLS_2005

> <r_lp_Energy>
9.94595

> <b_lp_Chiralities_Consistent>
1

> <s_lp_Variant>
CHEMBL1862_lig505-1

> <s_i_glide_gridfile>
glide-grid_2hzi

> <i_i_glide_lignum>
599

> <i_i_glide_rotatable_bonds>
3

> <r_i_docking_score>
-10.4625241665423

> <r_i_glide_ligand_efficiency>
-0.523126208327113

> <r_i_glide_ligand_efficiency_sa>
-1.41998299416765

> <r_i_glide_ligand_efficiency_ln>
-2.61842472174353

> <r_i_glide_gscore>
-10.4625241665423

> <r_i_glide_lipo>
-2.9899187064058

> <r_i_glide_hbond>
-0.594961509833197

> <r_i_glide_metal>
0

> <r_i_glide_rewards>
-4.13079012199375

> <r_i_glide_evdw>
-34.2960510253906

> <r_i_glide_ecoul>
-8.01553153991699

> <r_i_glide_erotb>
0.170278453947571

> <r_i_glide_esite>
0

> <r_i_glide_emodel>
-65.7378410125704

> <r_i_glide_energy>
-42.3115825653076

> <r_i_glide_einternal>
3.60583162307739

> <i_i_glide_confnum>
3

> <i_i_glide_posenum>
166

> <r_i_glide_eff_state_penalty>
0

> <s_user_duplicate_titles>
CHEMBL1862_lig505

> <s_m_subgroup_title>
dock_pv

> <s_m_subgroupid>
dock_pv

> <b_m_subgroup_collapsed>
0

$$$$
CHEMBL1862_lig554
                    3D
 Schrodinger Suite 2021-1.
 39 42  0  0  1  0            999 V2000
   16.8585   12.0330    2.4030 N   0  0  0  0  0  0
   15.5158   12.1051    2.5649 C   0  0  0  0  0  0
   14.8300   13.0232    3.2803 N   0  0  0  0  0  0
   17.5998   13.0114    2.9640 C   0  0  0  0  0  0
   17.0165   14.0324    3.7073 C   0  0  0  0  0  0
   15.6215   13.9391    3.8536 C   0  0  0  0  0  0
   15.2895   14.9463    4.7272 N   0  0  0  0  0  0
   16.3749   15.6912    5.0583 N   0  0  0  0  0  0
   17.4023   15.2138    4.4030 C   0  0  0  0  0  0
   18.7156   15.9036    4.3603 C   0  0  0  0  0  0
   19.6440   15.8407    5.4083 C   0  0  0  0  0  0
   20.2189   17.3352    3.0904 C   0  0  0  0  0  0
   19.0111   16.6478    3.2092 C   0  0  0  0  0  0
   18.9640   12.9475    2.8030 N   0  0  0  0  0  0
   13.9834   15.3860    5.1786 C   0  0  0  0  0  0
   12.8850   14.2975    5.1147 C   0  0  0  0  0  0
   13.5904   16.5989    4.3171 C   0  0  0  0  0  0
   21.1078   17.2864    4.1565 C   0  0  0  0  0  0
   20.8424   16.5532    5.2996 C   0  0  0  0  0  0
   22.0609   16.6209    6.1599 C   0  0  0  0  0  0
   22.8499   17.7565    5.4926 C   0  0  0  0  0  0
   22.3337   17.8999    4.1698 O   0  0  0  0  0  0
   14.9261   11.3342    2.0910 H   0  0  0  0  0  0
   19.4280   15.2436    6.2823 H   0  0  0  0  0  0
   20.4465   17.8928    2.1941 H   0  0  0  0  0  0
   18.2973   16.6953    2.4030 H   0  0  0  0  0  0
   19.5454   13.7107    3.1215 H   0  0  0  0  0  0
   19.3292   12.2149    2.1929 H   0  0  0  0  0  0
   14.1640   15.6330    6.2234 H   0  0  0  0  0  0
   11.9690   14.6187    5.6030 H   0  0  0  0  0  0
   12.6081   14.0571    4.0879 H   0  0  0  0  0  0
   13.1867   13.3765    5.6022 H   0  0  0  0  0  0
   12.5305   16.8330    4.4030 H   0  0  0  0  0  0
   14.1640   17.4893    4.5735 H   0  0  0  0  0  0
   13.7673   16.3962    3.2606 H   0  0  0  0  0  0
   21.8495   16.8330    7.2030 H   0  0  0  0  0  0
   22.6288   15.6902    6.1157 H   0  0  0  0  0  0
   23.9319   17.6330    5.5184 H   0  0  0  0  0  0
   22.6377   18.6897    6.0183 H   0  0  0  0  0  0
  1  2  2  0  0  0
  1  4  1  0  0  0
  2  3  1  0  0  0
  2 23  1  0  0  0
  3  6  2  0  0  0
  4 14  1  0  0  0
  4  5  2  0  0  0
  5  9  1  0  0  0
  5  6  1  0  0  0
  6  7  1  0  0  0
  7 15  1  0  0  0
  7  8  1  0  0  0
  8  9  2  0  0  0
  9 10  1  0  0  0
 10 11  2  0  0  0
 10 13  1  0  0  0
 11 19  1  0  0  0
 11 24  1  0  0  0
 12 18  1  0  0  0
 12 13  2  0  0  0
 12 25  1  0  0  0
 13 26  1  0  0  0
 14 27  1  0  0  0
 14 28  1  0  0  0
 15 16  1  0  0  0
 15 17  1  0  0  0
 15 29  1  0  0  0
 16 30  1  0  0  0
 16 31  1  0  0  0
 16 32  1  0  0  0
 17 33  1  0  0  0
 17 34  1  0  0  0
 17 35  1  0  0  0
 18 19  2  0  0  0
 18 22  1  0  0  0
 19 20  1  0  0  0
 20 21  1  0  0  0
 20 36  1  0  0  0
 20 37  1  0  0  0
 21 22  1  0  0  0
 21 38  1  0  0  0
 21 39  1  0  0  0
M  END
> <s_m_entry_id>
6180

> <s_m_entry_name>
dock_pv.106

> <s_m_Source_Path>
/home/csk/Desktop/cluster/DUD-E-result/abl1

> <s_m_Source_File>
dock_pv.maegz

> <i_m_Source_File_Index>
106

> <chembl_id>
CHEMBL1241587

> <chembl_pref_name>
None

> <i_lp_mmshare_version>
53161

> <i_f3d_flags>
0

> <r_lp_tautomer_probability>
1

> <s_lp_Force_Field>
OPLS_2005

> <r_lp_Energy>
24.074011

> <b_lp_Chiralities_Consistent>
1

> <s_lp_Variant>
CHEMBL1862_lig554-1

> <s_i_glide_gridfile>
glide-grid_2hzi

> <i_i_glide_lignum>
657

> <i_i_glide_rotatable_bonds>
2

> <r_i_docking_score>
-10.4448876871017

> <r_i_glide_ligand_efficiency>
-0.474767622140987

> <r_i_glide_ligand_efficiency_sa>
-1.33031754879009

> <r_i_glide_ligand_efficiency_ln>
-2.55311153726297

> <r_i_glide_gscore>
-10.4448876871017

> <r_i_glide_lipo>
-3.68739646359466

> <r_i_glide_hbond>
-0.624950333384834

> <r_i_glide_metal>
0

> <r_i_glide_rewards>
-3.85378324489503

> <r_i_glide_evdw>
-30.0302066802979

> <r_i_glide_ecoul>
-6.58054065704346

> <r_i_glide_erotb>
0.209833787344225

> <r_i_glide_esite>
0

> <r_i_glide_emodel>
-44.6395967558532

> <r_i_glide_energy>
-36.6107473373413

> <r_i_glide_einternal>
7.23059320449829

> <i_i_glide_confnum>
4

> <i_i_glide_posenum>
87

> <r_i_glide_eff_state_penalty>
0

> <s_user_duplicate_titles>
CHEMBL1862_lig554

> <s_m_subgroup_title>
dock_pv

> <s_m_subgroupid>
dock_pv

> <b_m_subgroup_collapsed>
0

$$$$
CHEMBL1862_lig851
                    3D
 Schrodinger Suite 2021-1.
 33 35  0  0  1  0            999 V2000
   16.3083   14.7343    4.0014 C   0  0  0  0  0  0
   17.6144   14.2726    3.7577 C   0  0  0  0  0  0
   17.7732   13.0088    3.1702 C   0  0  0  0  0  0
   16.7521   12.1854    2.8030 N   0  0  0  0  0  0
   15.2300   13.9128    3.6420 C   0  0  0  0  0  0
   15.5261   12.6579    3.0521 C   0  0  0  0  0  0
   14.3229   12.0339    2.7925 N   0  0  0  0  0  0
   13.2709   12.8414    3.1649 C   0  0  0  0  0  0
   13.8033   13.9999    3.7184 C   0  0  0  0  0  0
   11.8445   12.4035    2.9040 C   0  0  0  0  0  0
   18.7878   14.9930    4.0689 N   0  0  0  0  0  0
   18.9219   16.1535    4.7505 C   0  0  0  0  0  0
   10.9305   13.2329    3.6033 O   0  0  0  0  0  0
   20.3366   16.6306    4.9260 C   0  0  0  0  0  0
   18.0041   16.8308    5.2108 O   0  0  0  0  0  0
   20.7448   17.7974    4.2683 C   0  0  0  0  0  0
   22.0228   18.3197    4.4681 C   0  0  0  0  0  0
   22.9052   17.6838    5.3380 C   0  0  0  0  0  0
   22.5086   16.5232    6.0031 C   0  0  0  0  0  0
   21.2312   15.9934    5.8095 C   0  0  0  0  0  0
   20.7524   14.4336    6.8013 Br  0  0  0  0  0  0
   16.1037   15.6904    4.4520 H   0  0  0  0  0  0
   18.7613   12.6213    2.9639 H   0  0  0  0  0  0
   14.1661   11.1089    2.4003 H   0  0  0  0  0  0
   13.2146   14.8157    4.1135 H   0  0  0  0  0  0
   11.6192   12.4330    1.8387 H   0  0  0  0  0  0
   11.6893   11.3656    3.1980 H   0  0  0  0  0  0
   19.6523   14.5725    3.7565 H   0  0  0  0  0  0
   10.0396   12.9020    3.4480 H   0  0  0  0  0  0
   20.0636   18.3142    3.6069 H   0  0  0  0  0  0
   22.3227   19.2244    3.9598 H   0  0  0  0  0  0
   23.8913   18.0931    5.5063 H   0  0  0  0  0  0
   23.1948   16.0357    6.6827 H   0  0  0  0  0  0
  1  5  1  0  0  0
  1  2  2  0  0  0
  1 22  1  0  0  0
  2  3  1  0  0  0
  2 11  1  0  0  0
  3  4  2  0  0  0
  3 23  1  0  0  0
  4  6  1  0  0  0
  5  6  2  0  0  0
  5  9  1  0  0  0
  6  7  1  0  0  0
  7  8  1  0  0  0
  7 24  1  0  0  0
  8  9  2  0  0  0
  8 10  1  0  0  0
  9 25  1  0  0  0
 10 13  1  0  0  0
 10 26  1  0  0  0
 10 27  1  0  0  0
 11 12  1  0  0  0
 11 28  1  0  0  0
 12 14  1  0  0  0
 12 15  2  0  0  0
 13 29  1  0  0  0
 14 16  2  0  0  0
 14 20  1  0  0  0
 16 17  1  0  0  0
 16 30  1  0  0  0
 17 18  2  0  0  0
 17 31  1  0  0  0
 18 19  1  0  0  0
 18 32  1  0  0  0
 19 20  2  0  0  0
 19 33  1  0  0  0
 20 21  1  0  0  0
M  END
> <s_m_entry_id>
6181

> <s_m_entry_name>
dock_pv.107

> <s_m_Source_Path>
/home/csk/Desktop/cluster/DUD-E-result/abl1

> <s_m_Source_File>
dock_pv.maegz

> <i_m_Source_File_Index>
107

> <chembl_id>
CHEMBL3347651

> <chembl_pref_name>
None

> <i_lp_mmshare_version>
53161

> <i_f3d_flags>
0

> <r_lp_tautomer_probability>
0.999998432528457

> <s_lp_Force_Field>
OPLS_2005

> <r_lp_Energy>
19.826781

> <b_lp_Chiralities_Consistent>
1

> <s_lp_Variant>
CHEMBL1862_lig851-1

> <s_i_glide_gridfile>
glide-grid_2hzi

> <i_i_glide_lignum>
991

> <i_i_glide_rotatable_bonds>
5

> <r_i_docking_score>
-10.4430184920712

> <r_i_glide_ligand_efficiency>
-0.497286594860531

> <r_i_glide_ligand_efficiency_sa>
-1.37197600775863

> <r_i_glide_ligand_efficiency_ln>
-2.58201522005879

> <r_i_glide_gscore>
-10.4430184920712

> <r_i_glide_lipo>
-3.72664886610239

> <r_i_glide_hbond>
-0.525129713229046

> <r_i_glide_metal>
0

> <r_i_glide_rewards>
-3.10226566138093

> <r_i_glide_evdw>
-46.6288566589355

> <r_i_glide_ecoul>
-8.01110935211182

> <r_i_glide_erotb>
0.444134984404773

> <r_i_glide_esite>
0

> <r_i_glide_emodel>
-85.8758970475013

> <r_i_glide_energy>
-54.6399660110474

> <r_i_glide_einternal>
5.92099761962891

> <i_i_glide_confnum>
3

> <i_i_glide_posenum>
273

> <r_i_glide_eff_state_penalty>
0

> <s_user_duplicate_titles>
CHEMBL1862_lig851

> <s_m_subgroup_title>
dock_pv

> <s_m_subgroupid>
dock_pv

> <b_m_subgroup_collapsed>
0

$$$$
CHEMBL1862_lig492
                    3D
 Schrodinger Suite 2021-1.
 37 40  0  0  1  0            999 V2000
   15.7520   12.0412    2.0041 N   0  0  0  0  0  0
   14.4013   12.0330    2.0030 C   0  0  0  0  0  0
   13.5415   12.6781    2.8093 N   0  0  0  0  0  0
   16.3400   12.8817    2.8714 C   0  0  0  0  0  0
   15.5582   13.7650    3.6498 C   0  0  0  0  0  0
   14.1571   13.5468    3.5991 C   0  0  0  0  0  0
   13.5758   14.4034    4.5019 N   0  0  0  0  0  0
   14.5358   15.1876    5.0591 N   0  0  0  0  0  0
   15.7067   14.8898    4.5181 C   0  0  0  0  0  0
   16.9425   15.7090    4.7520 C   0  0  0  0  0  0
   17.9955   15.7069    3.8206 C   0  0  0  0  0  0
   19.1405   16.4787    4.0086 C   0  0  0  0  0  0
   19.2274   17.3079    5.1258 C   0  0  0  0  0  0
   18.1475   17.3912    6.0030 C   0  0  0  0  0  0
   17.0327   16.5717    5.8464 C   0  0  0  0  0  0
   17.7234   12.7655    2.9636 N   0  0  0  0  0  0
   20.6641   18.2148    5.4436 Cl  0  0  0  0  0  0
   20.1640   16.4330    3.0943 O   0  0  0  0  0  0
   12.1685   14.5136    4.9505 C   0  0  2  0  0  0
   11.8162   13.6330    6.1360 C   0  0  0  0  0  0
   10.2951   13.6330    6.1086 C   0  0  0  0  0  0
   10.0318   13.4891    4.7229 O   0  0  0  0  0  0
   11.0188   14.1940    3.9693 C   0  0  0  0  0  0
   13.9531   11.3661    1.2799 H   0  0  0  0  0  0
   17.9120   15.1629    2.8977 H   0  0  0  0  0  0
   18.1640   18.0907    6.8211 H   0  0  0  0  0  0
   16.2214   16.6402    6.5577 H   0  0  0  0  0  0
   18.2205   13.2994    3.6600 H   0  0  0  0  0  0
   18.2049   12.1037    2.3670 H   0  0  0  0  0  0
   20.1471   15.6981    2.4704 H   0  0  0  0  0  0
   12.0661   15.5687    5.2030 H   0  0  0  0  0  0
   12.1640   12.6127    6.0030 H   0  0  0  0  0  0
   12.2170   14.0007    7.0784 H   0  0  0  0  0  0
    9.8511   12.8196    6.6806 H   0  0  0  0  0  0
    9.8442   14.5533    6.4841 H   0  0  0  0  0  0
   10.5640   15.1152    3.6030 H   0  0  0  0  0  0
   11.2973   13.5853    3.1177 H   0  0  0  0  0  0
  1  2  2  0  0  0
  1  4  1  0  0  0
  2  3  1  0  0  0
  2 24  1  0  0  0
  3  6  2  0  0  0
  4  5  2  0  0  0
  4 16  1  0  0  0
  5  9  1  0  0  0
  5  6  1  0  0  0
  6  7  1  0  0  0
  7  8  1  0  0  0
  7 19  1  0  0  0
  8  9  2  0  0  0
  9 10  1  0  0  0
 10 15  1  0  0  0
 10 11  2  0  0  0
 11 12  1  0  0  0
 11 25  1  0  0  0
 12 13  2  0  0  0
 12 18  1  0  0  0
 13 14  1  0  0  0
 13 17  1  0  0  0
 14 15  2  0  0  0
 14 26  1  0  0  0
 15 27  1  0  0  0
 16 28  1  0  0  0
 16 29  1  0  0  0
 18 30  1  0  0  0
 19 20  1  0  0  0
 19 23  1  0  0  0
 19 31  1  0  0  0
 20 21  1  0  0  0
 20 32  1  0  0  0
 20 33  1  0  0  0
 21 22  1  0  0  0
 21 34  1  0  0  0
 21 35  1  0  0  0
 22 23  1  0  0  0
 23 36  1  0  0  0
 23 37  1  0  0  0
M  END
> <s_m_entry_id>
6182

> <s_m_entry_name>
dock_pv.108

> <s_m_Source_Path>
/home/csk/Desktop/cluster/DUD-E-result/abl1

> <s_m_Source_File>
dock_pv.maegz

> <i_m_Source_File_Index>
108

> <chembl_id>
CHEMBL1241768

> <chembl_pref_name>
None

> <i_lp_mmshare_version>
53161

> <i_f3d_flags>
0

> <r_lp_tautomer_probability>
0.999999999997365

> <s_lp_Force_Field>
OPLS_2005

> <r_lp_Energy>
26.894429

> <b_lp_Chiralities_Consistent>
1

> <s_lp_Variant>
CHEMBL1862_lig492-1

> <s_i_glide_gridfile>
glide-grid_2hzi

> <i_i_glide_lignum>
582

> <i_i_glide_rotatable_bonds>
3

> <r_i_docking_score>
-10.4367295863558

> <r_i_glide_ligand_efficiency>
-0.453770851580688

> <r_i_glide_ligand_efficiency_sa>
-1.2904639398807

> <r_i_glide_ligand_efficiency_ln>
-2.52369584901256

> <r_i_glide_gscore>
-10.4367295863558

> <r_i_glide_lipo>
-3.666192953939

> <r_i_glide_hbond>
-0.758008800021061

> <r_i_glide_metal>
0

> <r_i_glide_rewards>
-3.56917854093725

> <r_i_glide_evdw>
-31.4290885925293

> <r_i_glide_ecoul>
-7.40904140472412

> <r_i_glide_erotb>
0.239461348876563

> <r_i_glide_esite>
0

> <r_i_glide_emodel>
-40.9459761875396

> <r_i_glide_energy>
-38.8381299972534

> <r_i_glide_einternal>
5.77503347396851

> <i_i_glide_confnum>
11

> <i_i_glide_posenum>
93

> <r_i_glide_eff_state_penalty>
0

> <s_user_duplicate_titles>
CHEMBL1862_lig492

> <s_m_subgroup_title>
dock_pv

> <s_m_subgroupid>
dock_pv

> <b_m_subgroup_collapsed>
0

$$$$
CHEMBL1862_lig844
                    3D
 Schrodinger Suite 2021-1.
 36 38  0  0  1  0            999 V2000
   16.5048   14.8237    4.1271 C   0  0  0  0  0  0
   17.7579   14.3111    3.7574 C   0  0  0  0  0  0
   17.8097   13.0706    3.1141 C   0  0  0  0  0  0
   16.7285   12.3154    2.7830 N   0  0  0  0  0  0
   15.3597   14.0780    3.8111 C   0  0  0  0  0  0
   15.5516   12.8433    3.1281 C   0  0  0  0  0  0
   14.3063   12.3088    2.8838 N   0  0  0  0  0  0
   13.3380   13.1517    3.3893 C   0  0  0  0  0  0
   13.9493   14.2347    4.0028 C   0  0  0  0  0  0
   11.9220   12.8345    3.2030 C   0  0  0  0  0  0
   18.9645   14.9861    4.0001 N   0  0  0  0  0  0
   18.9730   16.2391    4.7468 C   0  0  0  0  0  0
   11.7286   11.7522    2.4030 O   0  0  0  0  0  0
   20.3913   16.7526    4.9438 C   0  0  0  0  0  0
   20.7928   17.9093    4.2656 C   0  0  0  0  0  0
   22.0713   18.4342    4.4521 C   0  0  0  0  0  0
   22.9568   17.8098    5.3270 C   0  0  0  0  0  0
   22.5640   16.6555    6.0032 C   0  0  0  0  0  0
   21.2891   16.1228    5.8209 C   0  0  0  0  0  0
   10.4164   11.3286    2.0667 C   0  0  0  0  0  0
   11.0212   13.5150    3.6998 O   0  0  0  0  0  0
   20.8096   14.5584    6.8019 Br  0  0  0  0  0  0
   16.4057   15.7667    4.6396 H   0  0  0  0  0  0
   18.7628   12.6510    2.8240 H   0  0  0  0  0  0
   14.0749   11.4403    2.4139 H   0  0  0  0  0  0
   13.4330   15.0497    4.4887 H   0  0  0  0  0  0
   19.6939   14.8771    3.3049 H   0  0  0  0  0  0
   18.3721   16.9821    4.2193 H   0  0  0  0  0  0
   18.5022   16.0947    5.7205 H   0  0  0  0  0  0
   20.1087   18.4102    3.5975 H   0  0  0  0  0  0
   22.3726   19.3311    3.9293 H   0  0  0  0  0  0
   23.9454   18.2172    5.4838 H   0  0  0  0  0  0
   23.2555   16.1719    6.6797 H   0  0  0  0  0  0
   10.4549   10.3622    1.5624 H   0  0  0  0  0  0
    9.9411   12.0451    1.3946 H   0  0  0  0  0  0
    9.7900   11.2244    2.9542 H   0  0  0  0  0  0
  1  5  1  0  0  0
  1  2  2  0  0  0
  1 23  1  0  0  0
  2  3  1  0  0  0
  2 11  1  0  0  0
  3  4  2  0  0  0
  3 24  1  0  0  0
  4  6  1  0  0  0
  5  6  2  0  0  0
  5  9  1  0  0  0
  6  7  1  0  0  0
  7  8  1  0  0  0
  7 25  1  0  0  0
  8  9  2  0  0  0
  8 10  1  0  0  0
  9 26  1  0  0  0
 10 13  1  0  0  0
 10 21  2  0  0  0
 11 12  1  0  0  0
 11 27  1  0  0  0
 12 14  1  0  0  0
 12 28  1  0  0  0
 12 29  1  0  0  0
 13 20  1  0  0  0
 14 15  2  0  0  0
 14 19  1  0  0  0
 15 16  1  0  0  0
 15 30  1  0  0  0
 16 17  2  0  0  0
 16 31  1  0  0  0
 17 18  1  0  0  0
 17 32  1  0  0  0
 18 19  2  0  0  0
 18 33  1  0  0  0
 19 22  1  0  0  0
 20 34  1  0  0  0
 20 35  1  0  0  0
 20 36  1  0  0  0
M  END
> <s_m_entry_id>
6183

> <s_m_entry_name>
dock_pv.109

> <s_m_Source_Path>
/home/csk/Desktop/cluster/DUD-E-result/abl1

> <s_m_Source_File>
dock_pv.maegz

> <i_m_Source_File_Index>
109

> <chembl_id>
CHEMBL3347451

> <chembl_pref_name>
None

> <i_lp_mmshare_version>
53161

> <i_f3d_flags>
0

> <r_lp_tautomer_probability>
1

> <s_lp_Force_Field>
OPLS_2005

> <r_lp_Energy>
11.57949

> <b_lp_Chiralities_Consistent>
1

> <s_lp_Variant>
CHEMBL1862_lig844-1

> <s_i_glide_gridfile>
glide-grid_2hzi

> <i_i_glide_lignum>
983

> <i_i_glide_rotatable_bonds>
5

> <r_i_docking_score>
-10.4161815165049

> <r_i_glide_ligand_efficiency>
-0.473462796204769

> <r_i_glide_ligand_efficiency_sa>
-1.32666137520092

> <r_i_glide_ligand_efficiency_ln>
-2.5460947020861

> <r_i_glide_gscore>
-10.4161815165049

> <r_i_glide_lipo>
-4.14339667479529

> <r_i_glide_hbond>
-0.474215821632779

> <r_i_glide_metal>
0

> <r_i_glide_rewards>
-2.81846406983497

> <r_i_glide_evdw>
-48.7875862121582

> <r_i_glide_ecoul>
-6.36370754241943

> <r_i_glide_erotb>
0.41383049172893

> <r_i_glide_esite>
0

> <r_i_glide_emodel>
-87.9250488681927

> <r_i_glide_energy>
-55.1512937545776

> <r_i_glide_einternal>
2.38286876678467

> <i_i_glide_confnum>
11

> <i_i_glide_posenum>
260

> <r_i_glide_eff_state_penalty>
0

> <s_user_duplicate_titles>
CHEMBL1862_lig844

> <s_m_subgroup_title>
dock_pv

> <s_m_subgroupid>
dock_pv

> <b_m_subgroup_collapsed>
0

$$$$
CHEMBL1862_lig502
                    3D
 Schrodinger Suite 2021-1.
 38 40  0  0  1  0            999 V2000
   16.8490   12.0330    2.4030 N   0  0  0  0  0  0
   15.5061   12.1674    2.5033 C   0  0  0  0  0  0
   14.8329   13.1177    3.1856 N   0  0  0  0  0  0
   17.6066   12.9849    2.9917 C   0  0  0  0  0  0
   17.0430   14.0128    3.7503 C   0  0  0  0  0  0
   15.6373   13.9854    3.8122 C   0  0  0  0  0  0
   15.2983   14.9815    4.6927 N   0  0  0  0  0  0
   16.3879   15.6768    5.0994 N   0  0  0  0  0  0
   17.4454   15.1261    4.5587 C   0  0  0  0  0  0
   18.8152   15.5977    4.8985 C   0  0  0  0  0  0
   19.3238   16.8060    4.4107 C   0  0  0  0  0  0
   20.6122   17.2344    4.7513 C   0  0  0  0  0  0
   21.3907   16.4328    5.6039 C   0  0  0  0  0  0
   20.8865   15.2334    6.1004 C   0  0  0  0  0  0
   19.6010   14.8252    5.7544 C   0  0  0  0  0  0
   18.9640   12.8975    2.8030 N   0  0  0  0  0  0
   13.9895   15.4094    5.1441 C   0  0  0  0  0  0
   12.9002   14.3124    5.0696 C   0  0  0  0  0  0
   13.5923   16.6302    4.3006 C   0  0  0  0  0  0
   21.0373   18.4330    4.2134 O   0  0  0  0  0  0
   22.3275   18.9295    4.5597 C   0  0  0  0  0  0
   14.9015   11.4339    1.9897 H   0  0  0  0  0  0
   18.7188   17.4163    3.7563 H   0  0  0  0  0  0
   22.3905   16.7204    5.8920 H   0  0  0  0  0  0
   21.4948   14.6202    6.7484 H   0  0  0  0  0  0
   19.2175   13.8937    6.1449 H   0  0  0  0  0  0
   19.5649   13.6421    3.1287 H   0  0  0  0  0  0
   19.3071   12.1717    2.1710 H   0  0  0  0  0  0
   14.1640   15.6330    6.1952 H   0  0  0  0  0  0
   11.9981   14.6010    5.6030 H   0  0  0  0  0  0
   12.5949   14.1103    4.0424 H   0  0  0  0  0  0
   13.2307   13.3752    5.5060 H   0  0  0  0  0  0
   12.5329   16.8601    4.4030 H   0  0  0  0  0  0
   14.1641   17.5196    4.5627 H   0  0  0  0  0  0
   13.7642   16.4330    3.2421 H   0  0  0  0  0  0
   22.5299   19.8448    4.0032 H   0  0  0  0  0  0
   22.3883   19.1692    5.6223 H   0  0  0  0  0  0
   23.1126   18.2144    4.3119 H   0  0  0  0  0  0
  1  2  2  0  0  0
  1  4  1  0  0  0
  2  3  1  0  0  0
  2 22  1  0  0  0
  3  6  2  0  0  0
  4  5  2  0  0  0
  4 16  1  0  0  0
  5  6  1  0  0  0
  5  9  1  0  0  0
  6  7  1  0  0  0
  7 17  1  0  0  0
  7  8  1  0  0  0
  8  9  2  0  0  0
  9 10  1  0  0  0
 10 11  2  0  0  0
 10 15  1  0  0  0
 11 12  1  0  0  0
 11 23  1  0  0  0
 12 13  2  0  0  0
 12 20  1  0  0  0
 13 14  1  0  0  0
 13 24  1  0  0  0
 14 15  2  0  0  0
 14 25  1  0  0  0
 15 26  1  0  0  0
 16 27  1  0  0  0
 16 28  1  0  0  0
 17 18  1  0  0  0
 17 19  1  0  0  0
 17 29  1  0  0  0
 18 30  1  0  0  0
 18 31  1  0  0  0
 18 32  1  0  0  0
 19 33  1  0  0  0
 19 34  1  0  0  0
 19 35  1  0  0  0
 20 21  1  0  0  0
 21 36  1  0  0  0
 21 37  1  0  0  0
 21 38  1  0  0  0
M  END
> <s_m_entry_id>
6184

> <s_m_entry_name>
dock_pv.110

> <s_m_Source_Path>
/home/csk/Desktop/cluster/DUD-E-result/abl1

> <s_m_Source_File>
dock_pv.maegz

> <i_m_Source_File_Index>
110

> <chembl_id>
CHEMBL1242029

> <chembl_pref_name>
None

> <i_lp_mmshare_version>
53161

> <i_f3d_flags>
0

> <r_lp_tautomer_probability>
1

> <s_lp_Force_Field>
OPLS_2005

> <r_lp_Energy>
15.489394

> <b_lp_Chiralities_Consistent>
1

> <s_lp_Variant>
CHEMBL1862_lig502-1

> <s_i_glide_gridfile>
glide-grid_2hzi

> <i_i_glide_lignum>
596

> <i_i_glide_rotatable_bonds>
3

> <r_i_docking_score>
-10.3804353341646

> <r_i_glide_ligand_efficiency>
-0.494306444484031

> <r_i_glide_ligand_efficiency_sa>
-1.36375399884399

> <r_i_glide_ligand_efficiency_ln>
-2.56654166072758

> <r_i_glide_gscore>
-10.3804353341646

> <r_i_glide_lipo>
-3.4706914484638

> <r_i_glide_hbond>
-0.626557698975164

> <r_i_glide_metal>
0

> <r_i_glide_rewards>
-4.03583944433205

> <r_i_glide_evdw>
-28.6577053070068

> <r_i_glide_ecoul>
-6.93362522125244

> <r_i_glide_erotb>
0.225582306144578

> <r_i_glide_esite>
0

> <r_i_glide_emodel>
-41.136262530602

> <r_i_glide_energy>
-35.5913305282593

> <r_i_glide_einternal>
9.32695007324219

> <i_i_glide_confnum>
4

> <i_i_glide_posenum>
15

> <r_i_glide_eff_state_penalty>
0

> <s_user_duplicate_titles>
CHEMBL1862_lig502

> <s_m_subgroup_title>
dock_pv

> <s_m_subgroupid>
dock_pv

> <b_m_subgroup_collapsed>
0

$$$$
CHEMBL1862_lig853
                    3D
 Schrodinger Suite 2021-1.
 35 37  0  0  1  0            999 V2000
   10.5034   10.8760    1.5551 C   0  0  0  0  0  0
   11.7639   11.3713    1.9780 O   0  0  0  0  0  0
   11.8470   12.4330    2.8031 C   0  0  0  0  0  0
   10.8774   13.0417    3.2626 O   0  0  0  0  0  0
   13.2287   12.8342    3.0869 C   0  0  0  0  0  0
   13.7235   13.9794    3.6902 C   0  0  0  0  0  0
   15.1527   13.9056    3.6256 C   0  0  0  0  0  0
   16.2181   14.7363    4.0043 C   0  0  0  0  0  0
   17.5327   14.2892    3.7771 C   0  0  0  0  0  0
   18.6944   15.0198    4.1008 N   0  0  0  0  0  0
   18.8125   16.1724    4.7958 C   0  0  0  0  0  0
   17.8885   16.8305    5.2736 O   0  0  0  0  0  0
   20.2247   16.6538    4.9672 C   0  0  0  0  0  0
   20.6234   17.8255    4.3101 C   0  0  0  0  0  0
   21.9071   18.3401    4.4906 C   0  0  0  0  0  0
   22.8022   17.6932    5.3394 C   0  0  0  0  0  0
   22.4149   16.5306    6.0027 C   0  0  0  0  0  0
   21.1323   16.0081    5.8281 C   0  0  0  0  0  0
   20.6684   14.4334    6.8029 Br  0  0  0  0  0  0
   17.7148   13.0301    3.1926 C   0  0  0  0  0  0
   16.7112   12.1965    2.8024 N   0  0  0  0  0  0
   15.4766   12.6586    3.0222 C   0  0  0  0  0  0
   14.2870   12.0332    2.7099 N   0  0  0  0  0  0
   10.6503   10.0352    0.8795 H   0  0  0  0  0  0
    9.9407   11.6426    1.0205 H   0  0  0  0  0  0
    9.9078   10.5376    2.4026 H   0  0  0  0  0  0
   13.1201   14.7806    4.0912 H   0  0  0  0  0  0
   16.0009   15.6881    4.4589 H   0  0  0  0  0  0
   19.5622   14.6166    3.7796 H   0  0  0  0  0  0
   19.9355   18.3480    3.6593 H   0  0  0  0  0  0
   22.2051   19.2440    3.9787 H   0  0  0  0  0  0
   23.7954   18.0933    5.4878 H   0  0  0  0  0  0
   23.1139   16.0335    6.6611 H   0  0  0  0  0  0
   18.7097   12.6517    3.0031 H   0  0  0  0  0  0
   14.1430   11.1155    2.2936 H   0  0  0  0  0  0
  1  2  1  0  0  0
  1 24  1  0  0  0
  1 25  1  0  0  0
  1 26  1  0  0  0
  2  3  1  0  0  0
  3  4  2  0  0  0
  3  5  1  0  0  0
  5  6  2  0  0  0
  5 23  1  0  0  0
  6  7  1  0  0  0
  6 27  1  0  0  0
  7  8  2  0  0  0
  7 22  1  0  0  0
  8  9  1  0  0  0
  8 28  1  0  0  0
  9 10  1  0  0  0
  9 20  2  0  0  0
 10 11  1  0  0  0
 10 29  1  0  0  0
 11 12  2  0  0  0
 11 13  1  0  0  0
 13 14  2  0  0  0
 13 18  1  0  0  0
 14 15  1  0  0  0
 14 30  1  0  0  0
 15 16  2  0  0  0
 15 31  1  0  0  0
 16 17  1  0  0  0
 16 32  1  0  0  0
 17 18  2  0  0  0
 17 33  1  0  0  0
 18 19  1  0  0  0
 20 21  1  0  0  0
 20 34  1  0  0  0
 21 22  2  0  0  0
 22 23  1  0  0  0
 23 35  1  0  0  0
M  END
> <s_m_entry_id>
6185

> <s_m_entry_name>
dock_pv.111

> <s_m_Source_Path>
/home/csk/Desktop/cluster/DUD-E-result/abl1

> <s_m_Source_File>
dock_pv.maegz

> <i_m_Source_File_Index>
111

> <chembl_id>
CHEMBL3347636

> <chembl_pref_name>
None

> <i_lp_mmshare_version>
53161

> <i_f3d_flags>
0

> <r_lp_tautomer_probability>
1

> <s_lp_Force_Field>
OPLS_2005

> <r_lp_Energy>
20.906631

> <b_lp_Chiralities_Consistent>
1

> <s_lp_Variant>
CHEMBL1862_lig853-1

> <s_i_glide_gridfile>
glide-grid_2hzi

> <i_i_glide_lignum>
993

> <i_i_glide_rotatable_bonds>
5

> <r_i_docking_score>
-10.3759057926051

> <r_i_glide_ligand_efficiency>
-0.451126338808919

> <r_i_glide_ligand_efficiency_sa>
-1.28294329733913

> <r_i_glide_ligand_efficiency_ln>
-2.50898810416397

> <r_i_glide_gscore>
-10.3759057926051

> <r_i_glide_lipo>
-3.73581223656887

> <r_i_glide_hbond>
-0.523685948066285

> <r_i_glide_metal>
0

> <r_i_glide_rewards>
-2.93833369273376

> <r_i_glide_evdw>
-48.7037391662598

> <r_i_glide_ecoul>
-7.53003311157227

> <r_i_glide_erotb>
0.386618009812596

> <r_i_glide_esite>
0

> <r_i_glide_emodel>
-90.5962808637649

> <r_i_glide_energy>
-56.233772277832

> <r_i_glide_einternal>
2.5519711971283

> <i_i_glide_confnum>
24

> <i_i_glide_posenum>
141

> <r_i_glide_eff_state_penalty>
0

> <s_user_duplicate_titles>
CHEMBL1862_lig853

> <s_m_subgroup_title>
dock_pv

> <s_m_subgroupid>
dock_pv

> <b_m_subgroup_collapsed>
0

$$$$
CHEMBL1862_lig526
                    3D
 Schrodinger Suite 2021-1.
 43 46  0  0  1  0            999 V2000
   15.3353   12.0313    2.0052 N   0  0  0  0  0  0
   13.9768   12.0344    2.0033 C   0  0  0  0  0  0
   13.1320   12.7156    2.8000 N   0  0  0  0  0  0
   15.9390   12.8566    2.8733 C   0  0  0  0  0  0
   15.1727   13.7287    3.6750 C   0  0  0  0  0  0
   13.7696   13.5606    3.6037 C   0  0  0  0  0  0
   13.2175   14.4087    4.5324 N   0  0  0  0  0  0
   14.2009   15.1293    5.1321 N   0  0  0  0  0  0
   15.3547   14.8302    4.5684 C   0  0  0  0  0  0
   16.5999   15.6318    4.7766 C   0  0  0  0  0  0
   17.5457   15.6556    3.7471 C   0  0  0  0  0  0
   17.9377   17.2325    6.0036 C   0  0  0  0  0  0
   16.8061   16.4228    5.9063 C   0  0  0  0  0  0
   17.3219   12.7464    2.9501 N   0  0  0  0  0  0
   18.9269   17.2433    4.9990 C   0  0  0  0  0  0
   18.6920   16.4724    3.8263 C   0  0  0  0  0  0
   19.6005   16.6106    2.7552 C   0  0  0  0  0  0
   20.7003   17.4440    2.8981 C   0  0  0  0  0  0
   20.9526   18.0343    4.1340 C   0  0  0  0  0  0
   20.0590   17.9866    5.1627 N   0  0  0  0  0  0
   11.8294   14.5081    5.0291 C   0  0  0  0  0  0
   11.7106   13.6736    6.3201 C   0  0  0  0  0  0
   10.7164   14.1239    4.0306 C   0  0  0  0  0  0
   22.1609   18.7190    4.3032 N   0  0  0  0  0  0
   22.7783   18.8312    5.6034 N   0  0  0  0  0  0
   13.4981   11.3683    1.2950 H   0  0  0  0  0  0
   17.3475   15.1725    2.8035 H   0  0  0  0  0  0
   18.0591   17.8724    6.8615 H   0  0  0  0  0  0
   16.0608   16.4344    6.6930 H   0  0  0  0  0  0
   17.8162   13.3223    3.6157 H   0  0  0  0  0  0
   17.8133   12.1042    2.3447 H   0  0  0  0  0  0
   19.4550   16.0720    1.8290 H   0  0  0  0  0  0
   21.3682   17.5852    2.0666 H   0  0  0  0  0  0
   11.6712   15.5707    5.1957 H   0  0  0  0  0  0
   10.7234   13.7591    6.7760 H   0  0  0  0  0  0
   11.9191   12.6258    6.1377 H   0  0  0  0  0  0
   12.4341   14.0276    7.0554 H   0  0  0  0  0  0
    9.7372   14.3010    4.4794 H   0  0  0  0  0  0
   10.7337   14.7273    3.1273 H   0  0  0  0  0  0
   10.7406   13.0685    3.7550 H   0  0  0  0  0  0
   22.8726   18.5033    3.6181 H   0  0  0  0  0  0
   22.6246   19.7688    5.9816 H   0  0  0  0  0  0
   22.4042   18.1145    6.2111 H   0  0  0  0  0  0
  1  2  2  0  0  0
  1  4  1  0  0  0
  2  3  1  0  0  0
  2 26  1  0  0  0
  3  6  2  0  0  0
  4 14  1  0  0  0
  4  5  2  0  0  0
  5  9  1  0  0  0
  5  6  1  0  0  0
  6  7  1  0  0  0
  7  8  1  0  0  0
  7 21  1  0  0  0
  8  9  2  0  0  0
  9 10  1  0  0  0
 10 13  1  0  0  0
 10 11  2  0  0  0
 11 16  1  0  0  0
 11 27  1  0  0  0
 12 15  1  0  0  0
 12 13  2  0  0  0
 12 28  1  0  0  0
 13 29  1  0  0  0
 14 30  1  0  0  0
 14 31  1  0  0  0
 15 16  2  0  0  0
 15 20  1  0  0  0
 16 17  1  0  0  0
 17 18  2  0  0  0
 17 32  1  0  0  0
 18 19  1  0  0  0
 18 33  1  0  0  0
 19 20  2  0  0  0
 19 24  1  0  0  0
 21 22  1  0  0  0
 21 23  1  0  0  0
 21 34  1  0  0  0
 22 35  1  0  0  0
 22 36  1  0  0  0
 22 37  1  0  0  0
 23 38  1  0  0  0
 23 39  1  0  0  0
 23 40  1  0  0  0
 24 25  1  0  0  0
 24 41  1  0  0  0
 25 42  1  0  0  0
 25 43  1  0  0  0
M  END
> <s_m_entry_id>
6187

> <s_m_entry_name>
dock_pv.113

> <s_m_Source_Path>
/home/csk/Desktop/cluster/DUD-E-result/abl1

> <s_m_Source_File>
dock_pv.maegz

> <i_m_Source_File_Index>
113

> <chembl_id>
CHEMBL1241950

> <chembl_pref_name>
None

> <i_lp_mmshare_version>
53161

> <i_f3d_flags>
0

> <r_lp_tautomer_probability>
1

> <s_lp_Force_Field>
OPLS_2005

> <r_lp_Energy>
15.364118

> <b_lp_Chiralities_Consistent>
1

> <s_lp_Variant>
CHEMBL1862_lig526-1

> <s_i_glide_gridfile>
glide-grid_2hzi

> <i_i_glide_lignum>
624

> <i_i_glide_rotatable_bonds>
3

> <r_i_docking_score>
-10.3545226598221

> <r_i_glide_ligand_efficiency>
-0.414180906392884

> <r_i_glide_ligand_efficiency_sa>
-1.21107231582245

> <r_i_glide_ligand_efficiency_ln>
-2.45433217038228

> <r_i_glide_gscore>
-10.3545226598221

> <r_i_glide_lipo>
-3.82213123461038

> <r_i_glide_hbond>
-0.456

> <r_i_glide_metal>
0

> <r_i_glide_rewards>
-3.51379348233761

> <r_i_glide_evdw>
-37.6798820495605

> <r_i_glide_ecoul>
-5.64854860305786

> <r_i_glide_erotb>
0.168678450062584

> <r_i_glide_esite>
0

> <r_i_glide_emodel>
-52.9994850209126

> <r_i_glide_energy>
-43.3284306526184

> <r_i_glide_einternal>
2.07549285888672

> <i_i_glide_confnum>
1

> <i_i_glide_posenum>
14

> <r_i_glide_eff_state_penalty>
0

> <s_user_duplicate_titles>
CHEMBL1862_lig526

> <s_m_subgroup_title>
dock_pv

> <s_m_subgroupid>
dock_pv

> <b_m_subgroup_collapsed>
0

$$$$
CHEMBL1862_lig466
                    3D
 Schrodinger Suite 2021-1.
 36 38  0  0  1  0            999 V2000
   15.8110   12.2240    2.4364 N   0  0  0  0  0  0
   14.4934   12.4054    2.7316 C   0  0  0  0  0  0
   13.9426   13.3480    3.5490 N   0  0  0  0  0  0
   16.6887   13.0765    3.0192 C   0  0  0  0  0  0
   16.2429   14.1142    3.8543 C   0  0  0  0  0  0
   14.8522   14.1703    4.0745 C   0  0  0  0  0  0
   14.6553   15.2116    4.9533 N   0  0  0  0  0  0
   15.8199   15.7981    5.2919 N   0  0  0  0  0  0
   16.7788   15.1873    4.6351 C   0  0  0  0  0  0
   18.1969   15.5991    4.7503 C   0  0  0  0  0  0
   18.7894   16.2847    3.6931 C   0  0  0  0  0  0
   20.1074   16.7565    3.7931 C   0  0  0  0  0  0
   20.8329   16.5300    4.9697 C   0  0  0  0  0  0
   20.2508   15.7764    6.0027 C   0  0  0  0  0  0
   18.9335   15.3350    5.9029 C   0  0  0  0  0  0
   18.0460   12.8554    2.8030 N   0  0  0  0  0  0
   20.7374   17.4638    2.7904 O   0  0  0  0  0  0
   22.0972   17.0806    5.0354 O   0  0  0  0  0  0
   22.8117   17.0991    6.2646 C   0  0  0  0  0  0
   20.1713   17.4527    1.4889 C   0  0  0  0  0  0
   23.7646   18.2913    6.2048 C   0  0  0  0  0  0
   13.8096   11.6933    2.2837 H   0  0  0  0  0  0
   13.7851   15.5235    5.3550 H   0  0  0  0  0  0
   18.2003   16.4765    2.8089 H   0  0  0  0  0  0
   20.7940   15.5505    6.9063 H   0  0  0  0  0  0
   18.4884   14.7901    6.7211 H   0  0  0  0  0  0
   18.7146   13.4854    3.2192 H   0  0  0  0  0  0
   18.3493   12.1123    2.1834 H   0  0  0  0  0  0
   23.3538   16.1613    6.3925 H   0  0  0  0  0  0
   22.1595   17.2329    7.1262 H   0  0  0  0  0  0
   20.8851   17.8977    0.8027 H   0  0  0  0  0  0
   19.9829   16.4340    1.1485 H   0  0  0  0  0  0
   19.2486   18.0327    1.4406 H   0  0  0  0  0  0
   24.4390   18.3066    7.0618 H   0  0  0  0  0  0
   23.2107   19.2308    6.1900 H   0  0  0  0  0  0
   24.3711   18.2615    5.3008 H   0  0  0  0  0  0
  1  2  2  0  0  0
  1  4  1  0  0  0
  2  3  1  0  0  0
  2 22  1  0  0  0
  3  6  2  0  0  0
  4  5  2  0  0  0
  4 16  1  0  0  0
  5  6  1  0  0  0
  5  9  1  0  0  0
  6  7  1  0  0  0
  7  8  1  0  0  0
  7 23  1  0  0  0
  8  9  2  0  0  0
  9 10  1  0  0  0
 10 11  2  0  0  0
 10 15  1  0  0  0
 11 12  1  0  0  0
 11 24  1  0  0  0
 12 13  2  0  0  0
 12 17  1  0  0  0
 13 14  1  0  0  0
 13 18  1  0  0  0
 14 15  2  0  0  0
 14 25  1  0  0  0
 15 26  1  0  0  0
 16 27  1  0  0  0
 16 28  1  0  0  0
 17 20  1  0  0  0
 18 19  1  0  0  0
 19 21  1  0  0  0
 19 29  1  0  0  0
 19 30  1  0  0  0
 20 31  1  0  0  0
 20 32  1  0  0  0
 20 33  1  0  0  0
 21 34  1  0  0  0
 21 35  1  0  0  0
 21 36  1  0  0  0
M  END
> <s_m_entry_id>
6188

> <s_m_entry_name>
dock_pv.114

> <s_m_Source_Path>
/home/csk/Desktop/cluster/DUD-E-result/abl1

> <s_m_Source_File>
dock_pv.maegz

> <i_m_Source_File_Index>
114

> <chembl_id>
CHEMBL1242471

> <chembl_pref_name>
None

> <i_lp_mmshare_version>
53161

> <i_f3d_flags>
0

> <r_lp_tautomer_probability>
1

> <s_lp_Force_Field>
OPLS_2005

> <r_lp_Energy>
13.727446

> <b_lp_Chiralities_Consistent>
1

> <s_lp_Variant>
CHEMBL1862_lig466-1

> <s_i_glide_gridfile>
glide-grid_2hzi

> <i_i_glide_lignum>
555

> <i_i_glide_rotatable_bonds>
4

> <r_i_docking_score>
-10.3467371701142

> <r_i_glide_ligand_efficiency>
-0.492701770005438

> <r_i_glide_ligand_efficiency_sa>
-1.35932682363427

> <r_i_glide_ligand_efficiency_ln>
-2.55820985775966

> <r_i_glide_gscore>
-10.3467371701142

> <r_i_glide_lipo>
-3.24059281605216

> <r_i_glide_hbond>
-0.586293711283969

> <r_i_glide_metal>
0

> <r_i_glide_rewards>
-3.80571662213033

> <r_i_glide_evdw>
-44.6573143005371

> <r_i_glide_ecoul>
-5.28862571716309

> <r_i_glide_erotb>
0.312025551953576

> <r_i_glide_esite>
0

> <r_i_glide_emodel>
-77.6678852234891

> <r_i_glide_energy>
-49.9459400177002

> <r_i_glide_einternal>
4.38016366958618

> <i_i_glide_confnum>
11

> <i_i_glide_posenum>
337

> <r_i_glide_eff_state_penalty>
0

> <s_user_duplicate_titles>
CHEMBL1862_lig466

> <s_m_subgroup_title>
dock_pv

> <s_m_subgroupid>
dock_pv

> <b_m_subgroup_collapsed>
0

$$$$
CHEMBL1862_lig431
                    3D
 Schrodinger Suite 2021-1.
 42 45  0  0  1  0            999 V2000
   16.0801   12.0330    2.3706 N   0  0  0  0  0  0
   17.2572   12.5860    2.7466 C   0  0  0  0  0  0
   17.4356   13.6874    3.5054 N   0  0  0  0  0  0
   14.9521   12.5811    2.8757 C   0  0  0  0  0  0
   15.0023   13.6488    3.7745 C   0  0  0  0  0  0
   16.2938   14.1724    4.0018 C   0  0  0  0  0  0
   16.1322   15.2508    4.8344 N   0  0  0  0  0  0
   14.8202   15.3252    5.2421 N   0  0  0  0  0  0
   14.1136   14.3822    4.6238 C   0  0  0  0  0  0
   12.6273   14.0834    4.8235 C   0  0  0  0  0  0
   11.7757   13.9052    3.7406 C   0  0  0  0  0  0
   10.4154   13.5867    3.8721 C   0  0  0  0  0  0
    9.8520   13.4954    5.1393 C   0  0  0  0  0  0
   10.6728   13.6318    6.2433 C   0  0  0  0  0  0
   12.0354   13.8635    6.0626 C   0  0  0  0  0  0
   13.7437   12.0342    2.4910 N   0  0  0  0  0  0
    8.5345   13.2367    5.3085 F   0  0  0  0  0  0
    9.6343   13.3131    2.7852 O   0  0  0  0  0  0
   17.1909   16.1889    5.3118 C   0  0  2  0  0  0
   18.1637   16.7040    4.2129 C   0  0  0  0  0  0
   19.5040   15.9668    4.3476 C   0  0  0  0  0  0
   19.4258   15.1285    5.6311 C   0  0  2  0  0  0
   18.1620   15.6158    6.3579 C   0  0  0  0  0  0
   20.7086   15.2287    6.4766 C   0  0  0  0  0  0
   18.1624   12.1137    2.4031 H   0  0  0  0  0  0
   12.2388   14.0329    2.8031 H   0  0  0  0  0  0
   10.2593   13.5566    7.2381 H   0  0  0  0  0  0
   12.5641   14.0180    6.9702 H   0  0  0  0  0  0
   12.9180   12.3066    2.9993 H   0  0  0  0  0  0
   13.7643   11.1383    2.0007 H   0  0  0  0  0  0
   10.1180   13.1924    1.9655 H   0  0  0  0  0  0
   16.5922   17.0040    5.7247 H   0  0  0  0  0  0
   17.7655   16.5939    3.2046 H   0  0  0  0  0  0
   18.3263   17.7733    4.3518 H   0  0  0  0  0  0
   19.6774   15.3214    3.4850 H   0  0  0  0  0  0
   20.3321   16.6775    4.3654 H   0  0  0  0  0  0
   19.2890   14.0775    5.3730 H   0  0  0  0  0  0
   18.4118   16.4332    7.0127 H   0  0  0  0  0  0
   17.7639   14.8430    7.0066 H   0  0  0  0  0  0
   20.9688   16.2597    6.7178 H   0  0  0  0  0  0
   20.5963   14.6845    7.4136 H   0  0  0  0  0  0
   21.5591   14.7949    5.9485 H   0  0  0  0  0  0
  1  2  2  0  0  0
  1  4  1  0  0  0
  2  3  1  0  0  0
  2 25  1  0  0  0
  3  6  2  0  0  0
  4  5  2  0  0  0
  4 16  1  0  0  0
  5  9  1  0  0  0
  5  6  1  0  0  0
  6  7  1  0  0  0
  7  8  1  0  0  0
  7 19  1  0  0  0
  8  9  2  0  0  0
  9 10  1  0  0  0
 10 15  1  0  0  0
 10 11  2  0  0  0
 11 12  1  0  0  0
 11 26  1  0  0  0
 12 13  2  0  0  0
 12 18  1  0  0  0
 13 14  1  0  0  0
 13 17  1  0  0  0
 14 15  2  0  0  0
 14 27  1  0  0  0
 15 28  1  0  0  0
 16 29  1  0  0  0
 16 30  1  0  0  0
 18 31  1  0  0  0
 19 20  1  0  0  0
 19 23  1  0  0  0
 19 32  1  0  0  0
 20 21  1  0  0  0
 20 33  1  0  0  0
 20 34  1  0  0  0
 21 22  1  0  0  0
 21 35  1  0  0  0
 21 36  1  0  0  0
 22 23  1  0  0  0
 22 24  1  0  0  0
 22 37  1  0  0  0
 23 38  1  0  0  0
 23 39  1  0  0  0
 24 40  1  0  0  0
 24 41  1  0  0  0
 24 42  1  0  0  0
M  END
> <s_m_entry_id>
6189

> <s_m_entry_name>
dock_pv.115

> <s_m_Source_Path>
/home/csk/Desktop/cluster/DUD-E-result/abl1

> <s_m_Source_File>
dock_pv.maegz

> <i_m_Source_File_Index>
115

> <chembl_id>
CHEMBL1242656

> <chembl_pref_name>
None

> <i_lp_mmshare_version>
53161

> <i_f3d_flags>
0

> <r_lp_tautomer_probability>
0.999999999997365

> <s_lp_Force_Field>
OPLS_2005

> <r_lp_Energy>
30.895167

> <b_lp_Chiralities_Consistent>
1

> <s_lp_Variant>
CHEMBL1862_lig431-1

> <s_i_glide_gridfile>
glide-grid_2hzi

> <i_i_glide_lignum>
516

> <i_i_glide_rotatable_bonds>
3

> <r_i_docking_score>
-10.3426828320293

> <r_i_glide_ligand_efficiency>
-0.430945118001222

> <r_i_glide_ligand_efficiency_sa>
-1.24306082120984

> <r_i_glide_ligand_efficiency_ln>
-2.47547859649477

> <r_i_glide_gscore>
-10.3426828320293

> <r_i_glide_lipo>
-3.92787609984435

> <r_i_glide_hbond>
-0.600393670481793

> <r_i_glide_metal>
0

> <r_i_glide_rewards>
-3.82918619908044

> <r_i_glide_evdw>
-23.9976577758789

> <r_i_glide_ecoul>
-6.8701548576355

> <r_i_glide_erotb>
0.245179254816529

> <r_i_glide_esite>
0

> <r_i_glide_emodel>
-40.0299115911398

> <r_i_glide_energy>
-30.8678126335144

> <r_i_glide_einternal>
2.27064323425293

> <i_i_glide_confnum>
23

> <i_i_glide_posenum>
339

> <r_i_glide_eff_state_penalty>
0

> <s_user_duplicate_titles>
CHEMBL1862_lig431

> <s_m_subgroup_title>
dock_pv

> <s_m_subgroupid>
dock_pv

> <b_m_subgroup_collapsed>
0

$$$$
CHEMBL1862_lig852
                    3D
 Schrodinger Suite 2021-1.
 36 38  0  0  1  0            999 V2000
   16.3884   14.7641    3.9934 C   0  0  0  0  0  0
   17.7023   14.3135    3.7721 C   0  0  0  0  0  0
   17.8819   13.0539    3.1863 C   0  0  0  0  0  0
   16.8771   12.2166    2.8030 N   0  0  0  0  0  0
   15.3263   13.9284    3.6231 C   0  0  0  0  0  0
   15.6443   12.6754    3.0397 C   0  0  0  0  0  0
   14.4502   12.0330    2.7809 N   0  0  0  0  0  0
   13.3895   12.8326    3.1440 C   0  0  0  0  0  0
   13.8999   14.0022    3.6853 C   0  0  0  0  0  0
   11.9699   12.3878    2.8792 C   0  0  0  0  0  0
   18.8613   15.0514    4.0952 N   0  0  0  0  0  0
   18.9678   16.1936    4.8103 C   0  0  0  0  0  0
   11.0597   13.2261    3.5879 O   0  0  0  0  0  0
   20.3713   16.6987    4.9771 C   0  0  0  0  0  0
   18.0393   16.8306    5.3090 O   0  0  0  0  0  0
   20.7410   17.8852    4.3305 C   0  0  0  0  0  0
   22.0121   18.4278    4.5106 C   0  0  0  0  0  0
   22.9249   17.7927    5.3485 C   0  0  0  0  0  0
   22.5639   16.6157    6.0031 C   0  0  0  0  0  0
   21.2935   16.0645    5.8307 C   0  0  0  0  0  0
   20.8698   14.4735    6.8022 Br  0  0  0  0  0  0
    9.6986   12.9012    3.3403 C   0  0  0  0  0  0
   16.1692   15.7191    4.4392 H   0  0  0  0  0  0
   18.8759   12.6750    2.9916 H   0  0  0  0  0  0
   14.3048   11.1028    2.4005 H   0  0  0  0  0  0
   13.2981   14.8151    4.0649 H   0  0  0  0  0  0
   11.7679   12.4266    1.8089 H   0  0  0  0  0  0
   11.8393   11.3489    3.1834 H   0  0  0  0  0  0
   19.7315   14.6613    3.7613 H   0  0  0  0  0  0
   20.0380   18.3997    3.6915 H   0  0  0  0  0  0
   22.2895   19.3440    4.0092 H   0  0  0  0  0  0
   23.9103   18.2113    5.4957 H   0  0  0  0  0  0
   23.2768   16.1306    6.6552 H   0  0  0  0  0  0
    9.0541   13.5429    3.9412 H   0  0  0  0  0  0
    9.4395   13.0557    2.2918 H   0  0  0  0  0  0
    9.4752   11.8653    3.6020 H   0  0  0  0  0  0
  1  5  1  0  0  0
  1  2  2  0  0  0
  1 23  1  0  0  0
  2  3  1  0  0  0
  2 11  1  0  0  0
  3  4  2  0  0  0
  3 24  1  0  0  0
  4  6  1  0  0  0
  5  6  2  0  0  0
  5  9  1  0  0  0
  6  7  1  0  0  0
  7  8  1  0  0  0
  7 25  1  0  0  0
  8  9  2  0  0  0
  8 10  1  0  0  0
  9 26  1  0  0  0
 10 13  1  0  0  0
 10 27  1  0  0  0
 10 28  1  0  0  0
 11 12  1  0  0  0
 11 29  1  0  0  0
 12 14  1  0  0  0
 12 15  2  0  0  0
 13 22  1  0  0  0
 14 16  2  0  0  0
 14 20  1  0  0  0
 16 17  1  0  0  0
 16 30  1  0  0  0
 17 18  2  0  0  0
 17 31  1  0  0  0
 18 19  1  0  0  0
 18 32  1  0  0  0
 19 20  2  0  0  0
 19 33  1  0  0  0
 20 21  1  0  0  0
 22 34  1  0  0  0
 22 35  1  0  0  0
 22 36  1  0  0  0
M  END
> <s_m_entry_id>
6190

> <s_m_entry_name>
dock_pv.116

> <s_m_Source_Path>
/home/csk/Desktop/cluster/DUD-E-result/abl1

> <s_m_Source_File>
dock_pv.maegz

> <i_m_Source_File_Index>
116

> <chembl_id>
CHEMBL3347650

> <chembl_pref_name>
None

> <i_lp_mmshare_version>
53161

> <i_f3d_flags>
0

> <r_lp_tautomer_probability>
0.999998432528457

> <s_lp_Force_Field>
OPLS_2005

> <r_lp_Energy>
21.021526

> <b_lp_Chiralities_Consistent>
1

> <s_lp_Variant>
CHEMBL1862_lig852-1

> <s_i_glide_gridfile>
glide-grid_2hzi

> <i_i_glide_lignum>
992

> <i_i_glide_rotatable_bonds>
5

> <r_i_docking_score>
-10.3408739543195

> <r_i_glide_ligand_efficiency>
-0.470039725196341

> <r_i_glide_ligand_efficiency_sa>
-1.31706979561356

> <r_i_glide_ligand_efficiency_ln>
-2.52768678697791

> <r_i_glide_gscore>
-10.3408739543195

> <r_i_glide_lipo>
-3.71340938006006

> <r_i_glide_hbond>
-0.488501479118379

> <r_i_glide_metal>
0

> <r_i_glide_rewards>
-3.02508648695543

> <r_i_glide_evdw>
-48.5651092529297

> <r_i_glide_ecoul>
-7.32967758178711

> <r_i_glide_erotb>
0.41383049172893

> <r_i_glide_esite>
0

> <r_i_glide_emodel>
-87.4886511928668

> <r_i_glide_energy>
-55.8947868347168

> <r_i_glide_einternal>
5.75287866592407

> <i_i_glide_confnum>
16

> <i_i_glide_posenum>
211

> <r_i_glide_eff_state_penalty>
0

> <s_user_duplicate_titles>
CHEMBL1862_lig852

> <s_m_subgroup_title>
dock_pv

> <s_m_subgroupid>
dock_pv

> <b_m_subgroup_collapsed>
0

$$$$
CHEMBL1862_lig475
                    3D
 Schrodinger Suite 2021-1.
 40 42  0  0  1  0            999 V2000
   16.5135   12.0330    2.2534 N   0  0  0  0  0  0
   15.1701   12.1616    2.3656 C   0  0  0  0  0  0
   14.4974   13.0867    3.0836 N   0  0  0  0  0  0
   17.2742   12.9401    2.9006 C   0  0  0  0  0  0
   16.7079   13.9495    3.6671 C   0  0  0  0  0  0
   15.3052   13.9410    3.7225 C   0  0  0  0  0  0
   14.9797   14.9632    4.5797 N   0  0  0  0  0  0
   16.0854   15.6038    5.0379 N   0  0  0  0  0  0
   17.1284   15.0263    4.4996 C   0  0  0  0  0  0
   18.5142   15.4461    4.8136 C   0  0  0  0  0  0
   19.2143   16.2534    3.9180 C   0  0  0  0  0  0
   20.5143   16.6987    4.2153 C   0  0  0  0  0  0
   21.1072   16.2938    5.4237 C   0  0  0  0  0  0
   20.4181   15.4588    6.3027 C   0  0  0  0  0  0
   19.1184   15.0533    6.0075 C   0  0  0  0  0  0
   18.6408   12.8330    2.8030 N   0  0  0  0  0  0
   13.6806   15.4869    4.9437 C   0  0  0  0  0  0
   12.4948   14.5242    4.7120 C   0  0  0  0  0  0
   13.5085   16.8330    4.2489 C   0  0  0  0  0  0
   22.3919   16.7182    5.7681 N   0  0  0  0  0  0
   21.2422   17.5283    3.3816 O   0  0  0  0  0  0
   20.7895   17.7473    2.0520 C   0  0  0  0  0  0
   14.5640   11.4624    1.8079 H   0  0  0  0  0  0
   18.7208   16.5392    3.0022 H   0  0  0  0  0  0
   20.8753   15.1461    7.2287 H   0  0  0  0  0  0
   18.5796   14.4330    6.7082 H   0  0  0  0  0  0
   19.2274   13.5383    3.2251 H   0  0  0  0  0  0
   19.0230   12.1255    2.1767 H   0  0  0  0  0  0
   13.7640   15.6330    6.0030 H   0  0  0  0  0  0
   11.5771   14.9192    5.1467 H   0  0  0  0  0  0
   12.2966   14.3679    3.6514 H   0  0  0  0  0  0
   12.6729   13.5517    5.1731 H   0  0  0  0  0  0
   12.4882   17.1988    4.3395 H   0  0  0  0  0  0
   14.1691   17.5924    4.6664 H   0  0  0  0  0  0
   13.7640   16.7461    3.2030 H   0  0  0  0  0  0
   22.8681   16.3113    6.5607 H   0  0  0  0  0  0
   22.8890   17.2998    5.1083 H   0  0  0  0  0  0
   21.4604   18.4738    1.6030 H   0  0  0  0  0  0
   20.8194   16.8332    1.4576 H   0  0  0  0  0  0
   19.7822   18.1593    2.0046 H   0  0  0  0  0  0
  1  2  2  0  0  0
  1  4  1  0  0  0
  2  3  1  0  0  0
  2 23  1  0  0  0
  3  6  2  0  0  0
  4  5  2  0  0  0
  4 16  1  0  0  0
  5  9  1  0  0  0
  5  6  1  0  0  0
  6  7  1  0  0  0
  7 17  1  0  0  0
  7  8  1  0  0  0
  8  9  2  0  0  0
  9 10  1  0  0  0
 10 11  2  0  0  0
 10 15  1  0  0  0
 11 12  1  0  0  0
 11 24  1  0  0  0
 12 13  2  0  0  0
 12 21  1  0  0  0
 13 14  1  0  0  0
 13 20  1  0  0  0
 14 15  2  0  0  0
 14 25  1  0  0  0
 15 26  1  0  0  0
 16 27  1  0  0  0
 16 28  1  0  0  0
 17 18  1  0  0  0
 17 19  1  0  0  0
 17 29  1  0  0  0
 18 30  1  0  0  0
 18 31  1  0  0  0
 18 32  1  0  0  0
 19 33  1  0  0  0
 19 34  1  0  0  0
 19 35  1  0  0  0
 20 36  1  0  0  0
 20 37  1  0  0  0
 21 22  1  0  0  0
 22 38  1  0  0  0
 22 39  1  0  0  0
 22 40  1  0  0  0
M  END
> <s_m_entry_id>
6191

> <s_m_entry_name>
dock_pv.117

> <s_m_Source_Path>
/home/csk/Desktop/cluster/DUD-E-result/abl1

> <s_m_Source_File>
dock_pv.maegz

> <i_m_Source_File_Index>
117

> <chembl_id>
CHEMBL1241485

> <chembl_pref_name>
None

> <i_lp_mmshare_version>
53161

> <i_f3d_flags>
0

> <r_lp_tautomer_probability>
1

> <s_lp_Force_Field>
OPLS_2005

> <r_lp_Energy>
17.627038

> <b_lp_Chiralities_Consistent>
1

> <s_lp_Variant>
CHEMBL1862_lig475-1

> <s_i_glide_gridfile>
glide-grid_2hzi

> <i_i_glide_lignum>
564

> <i_i_glide_rotatable_bonds>
3

> <r_i_docking_score>
-10.3311302575559

> <r_i_glide_ligand_efficiency>
-0.469596829888905

> <r_i_glide_ligand_efficiency_sa>
-1.31582878554404

> <r_i_glide_ligand_efficiency_ln>
-2.52530507207891

> <r_i_glide_gscore>
-10.3311302575559

> <r_i_glide_lipo>
-3.25298333647958

> <r_i_glide_hbond>
-0.608

> <r_i_glide_metal>
0

> <r_i_glide_rewards>
-3.92732980303214

> <r_i_glide_evdw>
-30.8570823669434

> <r_i_glide_ecoul>
-7.62847471237183

> <r_i_glide_erotb>
0.144308207158738

> <r_i_glide_esite>
0

> <r_i_glide_emodel>
-46.6774518901206

> <r_i_glide_energy>
-38.4855570793152

> <r_i_glide_einternal>
7.0087718963623

> <i_i_glide_confnum>
3

> <i_i_glide_posenum>
314

> <r_i_glide_eff_state_penalty>
0

> <s_user_duplicate_titles>
CHEMBL1862_lig475

> <s_m_subgroup_title>
dock_pv

> <s_m_subgroupid>
dock_pv

> <b_m_subgroup_collapsed>
0

$$$$
CHEMBL1862_lig457
                    3D
 Schrodinger Suite 2021-1.
 38 40  0  0  1  0            999 V2000
   16.5653   12.0332    2.2971 N   0  0  0  0  0  0
   15.2220   12.1606    2.4027 C   0  0  0  0  0  0
   14.5488   13.0911    3.1119 N   0  0  0  0  0  0
   17.3256   12.9471    2.9353 C   0  0  0  0  0  0
   16.7609   13.9662    3.6983 C   0  0  0  0  0  0
   15.3533   13.9505    3.7455 C   0  0  0  0  0  0
   15.0118   14.9773    4.5868 N   0  0  0  0  0  0
   16.1100   15.6330    5.0356 N   0  0  0  0  0  0
   17.1703   15.0641    4.5219 C   0  0  0  0  0  0
   18.5422   15.5207    4.8799 C   0  0  0  0  0  0
   19.0240   16.7708    4.4763 C   0  0  0  0  0  0
   20.3171   17.1783    4.8197 C   0  0  0  0  0  0
   21.1414   16.3438    5.5899 C   0  0  0  0  0  0
   20.6519   15.1033    6.0039 C   0  0  0  0  0  0
   19.3639   14.6962    5.6522 C   0  0  0  0  0  0
   18.6891   12.8342    2.8036 N   0  0  0  0  0  0
   22.5539   16.7646    5.9774 C   0  0  0  0  0  0
   20.7679   18.4010    4.4002 O   0  0  0  0  0  0
   13.7035   15.4876    4.9433 C   0  0  0  0  0  0
   12.5263   14.5128    4.7091 C   0  0  0  0  0  0
   13.5196   16.8327    4.2486 C   0  0  0  0  0  0
   14.6183   11.4526    1.8515 H   0  0  0  0  0  0
   18.3982   17.4244    3.8851 H   0  0  0  0  0  0
   21.2766   14.4451    6.5893 H   0  0  0  0  0  0
   19.0077   13.7307    5.9804 H   0  0  0  0  0  0
   19.2833   13.5498    3.1983 H   0  0  0  0  0  0
   19.0571   12.1272    2.1683 H   0  0  0  0  0  0
   23.1698   16.8988    5.0884 H   0  0  0  0  0  0
   22.5433   17.7155    6.5098 H   0  0  0  0  0  0
   23.0426   16.0325    6.6231 H   0  0  0  0  0  0
   21.6744   18.5566    4.6723 H   0  0  0  0  0  0
   13.7696   15.6328    6.0029 H   0  0  0  0  0  0
   11.6044   14.8965    5.1475 H   0  0  0  0  0  0
   12.3274   14.3590    3.6481 H   0  0  0  0  0  0
   12.7120   13.5410    5.1659 H   0  0  0  0  0  0
   12.4952   17.1893    4.3365 H   0  0  0  0  0  0
   14.1708   17.5999    4.6662 H   0  0  0  0  0  0
   13.7750   16.7490    3.2037 H   0  0  0  0  0  0
  1  2  2  0  0  0
  1  4  1  0  0  0
  2  3  1  0  0  0
  2 22  1  0  0  0
  3  6  2  0  0  0
  4  5  2  0  0  0
  4 16  1  0  0  0
  5  6  1  0  0  0
  5  9  1  0  0  0
  6  7  1  0  0  0
  7  8  1  0  0  0
  7 19  1  0  0  0
  8  9  2  0  0  0
  9 10  1  0  0  0
 10 11  2  0  0  0
 10 15  1  0  0  0
 11 12  1  0  0  0
 11 23  1  0  0  0
 12 13  2  0  0  0
 12 18  1  0  0  0
 13 14  1  0  0  0
 13 17  1  0  0  0
 14 15  2  0  0  0
 14 24  1  0  0  0
 15 25  1  0  0  0
 16 26  1  0  0  0
 16 27  1  0  0  0
 17 28  1  0  0  0
 17 29  1  0  0  0
 17 30  1  0  0  0
 18 31  1  0  0  0
 19 20  1  0  0  0
 19 21  1  0  0  0
 19 32  1  0  0  0
 20 33  1  0  0  0
 20 34  1  0  0  0
 20 35  1  0  0  0
 21 36  1  0  0  0
 21 37  1  0  0  0
 21 38  1  0  0  0
M  END
> <s_m_entry_id>
6192

> <s_m_entry_name>
dock_pv.118

> <s_m_Source_Path>
/home/csk/Desktop/cluster/DUD-E-result/abl1

> <s_m_Source_File>
dock_pv.maegz

> <i_m_Source_File_Index>
118

> <chembl_id>
CHEMBL1242026

> <chembl_pref_name>
None

> <i_lp_mmshare_version>
53161

> <i_f3d_flags>
0

> <r_lp_tautomer_probability>
0.999999999997365

> <s_lp_Force_Field>
OPLS_2005

> <r_lp_Energy>
11.744878

> <b_lp_Chiralities_Consistent>
1

> <s_lp_Variant>
CHEMBL1862_lig457-1

> <s_i_glide_gridfile>
glide-grid_2hzi

> <i_i_glide_lignum>
545

> <i_i_glide_rotatable_bonds>
3

> <r_i_docking_score>
-10.3262892784673

> <r_i_glide_ligand_efficiency>
-0.491728060879394

> <r_i_glide_ligand_efficiency_sa>
-1.35664043398839

> <r_i_glide_ligand_efficiency_ln>
-2.55315415786881

> <r_i_glide_gscore>
-10.3262892784673

> <r_i_glide_lipo>
-3.38176680086027

> <r_i_glide_hbond>
-0.608

> <r_i_glide_metal>
0

> <r_i_glide_rewards>
-4.02279711792668

> <r_i_glide_evdw>
-27.6355266571045

> <r_i_glide_ecoul>
-7.7168755531311

> <r_i_glide_erotb>
0.225582306144578

> <r_i_glide_esite>
0

> <r_i_glide_emodel>
-43.2385826215328

> <r_i_glide_energy>
-35.3524022102356

> <r_i_glide_einternal>
4.54818773269653

> <i_i_glide_confnum>
2

> <i_i_glide_posenum>
27

> <r_i_glide_eff_state_penalty>
0

> <s_user_duplicate_titles>
CHEMBL1862_lig457

> <s_m_subgroup_title>
dock_pv

> <s_m_subgroupid>
dock_pv

> <b_m_subgroup_collapsed>
0

$$$$
CHEMBL1862_lig741
                    3D
 Schrodinger Suite 2021-1.
 40 42  0  0  1  0            999 V2000
   18.6138   15.7363    4.7053 C   0  0  0  0  0  0
   17.5522   16.3322    5.3935 C   0  0  0  0  0  0
   16.2367   15.8824    5.2554 C   0  0  0  0  0  0
   18.3863   14.6432    3.8637 C   0  0  0  0  0  0
   17.0732   14.1751    3.7237 C   0  0  0  0  0  0
   15.9918   14.7989    4.4025 C   0  0  0  0  0  0
   14.7686   14.2544    4.1634 N   0  0  0  0  0  0
   14.8570   13.2307    3.3487 C   0  0  0  0  0  0
   16.4597   12.8111    2.8022 S   0  0  0  0  0  0
   13.8217   12.4320    2.8839 N   0  0  0  0  0  0
   12.5037   12.6656    3.0162 C   0  0  0  0  0  0
   11.7760   11.7147    2.4028 N   0  0  0  0  0  0
   12.0048   13.6272    3.6028 O   0  0  0  0  0  0
   10.3155   11.7066    2.2837 C   0  0  0  0  0  0
    9.8504   11.6146    0.8264 C   0  0  0  0  0  0
   19.9797   16.2948    4.8334 C   0  0  0  0  0  0
   20.4303   17.2792    3.9402 C   0  0  0  0  0  0
   21.6970   17.8501    4.1055 C   0  0  0  0  0  0
   22.5299   17.4203    5.1378 C   0  0  0  0  0  0
   22.1036   16.4145    6.0028 C   0  0  0  0  0  0
   20.8337   15.8567    5.8522 C   0  0  0  0  0  0
   19.6055   17.7173    2.9327 O   0  0  0  0  0  0
   19.9145   17.1973    1.6460 C   0  0  0  0  0  0
   17.7485   17.1801    6.0353 H   0  0  0  0  0  0
   15.4271   16.3611    5.7894 H   0  0  0  0  0  0
   19.2024   14.1812    3.3257 H   0  0  0  0  0  0
   14.0932   11.6092    2.3650 H   0  0  0  0  0  0
   12.2465   10.8650    2.1194 H   0  0  0  0  0  0
    9.8522   12.5756    2.7606 H   0  0  0  0  0  0
    9.9367   10.8392    2.8214 H   0  0  0  0  0  0
    8.7620   11.6520    0.7693 H   0  0  0  0  0  0
   10.1608   10.6621    0.4009 H   0  0  0  0  0  0
   10.2419   12.4320    0.2174 H   0  0  0  0  0  0
   22.0309   18.6280    3.4338 H   0  0  0  0  0  0
   23.5097   17.8559    5.2629 H   0  0  0  0  0  0
   22.7583   16.0699    6.7913 H   0  0  0  0  0  0
   20.5084   15.0870    6.5371 H   0  0  0  0  0  0
   19.2463   17.6338    0.9051 H   0  0  0  0  0  0
   20.9369   17.4236    1.3394 H   0  0  0  0  0  0
   19.7640   16.1181    1.6206 H   0  0  0  0  0  0
  1  2  2  0  0  0
  1  4  1  0  0  0
  1 16  1  0  0  0
  2  3  1  0  0  0
  2 24  1  0  0  0
  3  6  2  0  0  0
  3 25  1  0  0  0
  4  5  2  0  0  0
  4 26  1  0  0  0
  5  6  1  0  0  0
  5  9  1  0  0  0
  6  7  1  0  0  0
  7  8  2  0  0  0
  8  9  1  0  0  0
  8 10  1  0  0  0
 10 11  1  0  0  0
 10 27  1  0  0  0
 11 12  1  0  0  0
 11 13  2  0  0  0
 12 14  1  0  0  0
 12 28  1  0  0  0
 14 15  1  0  0  0
 14 29  1  0  0  0
 14 30  1  0  0  0
 15 31  1  0  0  0
 15 32  1  0  0  0
 15 33  1  0  0  0
 16 17  2  0  0  0
 16 21  1  0  0  0
 17 18  1  0  0  0
 17 22  1  0  0  0
 18 19  2  0  0  0
 18 34  1  0  0  0
 19 20  1  0  0  0
 19 35  1  0  0  0
 20 21  2  0  0  0
 20 36  1  0  0  0
 21 37  1  0  0  0
 22 23  1  0  0  0
 23 38  1  0  0  0
 23 39  1  0  0  0
 23 40  1  0  0  0
M  END
> <s_m_entry_id>
6194

> <s_m_entry_name>
dock_pv.120

> <s_m_Source_Path>
/home/csk/Desktop/cluster/DUD-E-result/abl1

> <s_m_Source_File>
dock_pv.maegz

> <i_m_Source_File_Index>
120

> <chembl_id>
CHEMBL2347710

> <chembl_pref_name>
None

> <i_lp_mmshare_version>
53161

> <i_f3d_flags>
0

> <r_lp_tautomer_probability>
1

> <s_lp_Force_Field>
OPLS_2005

> <r_lp_Energy>
17.972238

> <b_lp_Chiralities_Consistent>
1

> <s_lp_Variant>
CHEMBL1862_lig741-1

> <s_i_glide_gridfile>
glide-grid_2hzi

> <i_i_glide_lignum>
874

> <i_i_glide_rotatable_bonds>
6

> <r_i_docking_score>
-10.2973715344768

> <r_i_glide_ligand_efficiency>
-0.447711805846816

> <r_i_glide_ligand_efficiency_sa>
-1.27323281980674

> <r_i_glide_ligand_efficiency_ln>
-2.48999780843925

> <r_i_glide_gscore>
-10.2973715344768

> <r_i_glide_lipo>
-4.6571864231945

> <r_i_glide_hbond>
-0.474698545464014

> <r_i_glide_metal>
0

> <r_i_glide_rewards>
-2.34663237277574

> <r_i_glide_evdw>
-50.5621032714844

> <r_i_glide_ecoul>
-6.60725784301758

> <r_i_glide_erotb>
0.700339646984339

> <r_i_glide_esite>
0

> <r_i_glide_emodel>
-86.4162191761673

> <r_i_glide_energy>
-57.169361114502

> <r_i_glide_einternal>
9.88735389709473

> <i_i_glide_confnum>
6

> <i_i_glide_posenum>
31

> <r_i_glide_eff_state_penalty>
0

> <s_user_duplicate_titles>
CHEMBL1862_lig741

> <s_m_subgroup_title>
dock_pv

> <s_m_subgroupid>
dock_pv

> <b_m_subgroup_collapsed>
0

$$$$
CHEMBL1862_lig739
                    3D
 Schrodinger Suite 2021-1.
 40 42  0  0  1  0            999 V2000
   18.3027   15.7959    4.1135 C   0  0  0  0  0  0
   17.3654   16.2600    5.0453 C   0  0  0  0  0  0
   16.1189   15.6464    5.2019 C   0  0  0  0  0  0
   18.0730   14.6062    3.4201 C   0  0  0  0  0  0
   16.8263   13.9892    3.5576 C   0  0  0  0  0  0
   15.8258   14.5327    4.4029 C   0  0  0  0  0  0
   14.6304   13.8900    4.3663 N   0  0  0  0  0  0
   14.6734   12.8718    3.5448 C   0  0  0  0  0  0
   16.2103   12.5311    2.7998 S   0  0  0  0  0  0
   13.6243   12.0409    3.2024 N   0  0  0  0  0  0
   12.3482   12.4414    3.0740 C   0  0  0  0  0  0
   11.6366   11.5291    2.3959 N   0  0  0  0  0  0
   11.8897   13.5082    3.4871 O   0  0  0  0  0  0
   10.3022   11.6905    1.8172 C   0  0  0  0  0  0
    9.1946   12.0273    2.8264 C   0  0  0  0  0  0
   19.5127   16.5974    3.8067 C   0  0  0  0  0  0
   20.4688   16.8944    4.7847 C   0  0  0  0  0  0
   21.5576   17.7225    4.4924 C   0  0  0  0  0  0
   21.7354   18.1943    3.1980 C   0  0  0  0  0  0
   20.8332   17.8359    2.2005 C   0  0  0  0  0  0
   19.7184   17.0646    2.5058 C   0  0  0  0  0  0
   20.3627   16.2821    6.0025 O   0  0  0  0  0  0
   21.4221   15.3834    6.3032 C   0  0  0  0  0  0
   21.8223   14.6953    5.2367 F   0  0  0  0  0  0
   22.4612   16.0391    6.8028 F   0  0  0  0  0  0
   20.9641   14.5159    7.2009 F   0  0  0  0  0  0
   17.5753   17.1620    5.6032 H   0  0  0  0  0  0
   15.3816   16.0500    5.8809 H   0  0  0  0  0  0
   18.8204   14.2102    2.7464 H   0  0  0  0  0  0
   13.8602   11.1462    2.7909 H   0  0  0  0  0  0
   12.0682   10.6270    2.2417 H   0  0  0  0  0  0
   10.0526   10.7492    1.3248 H   0  0  0  0  0  0
   10.3251   12.4327    1.0202 H   0  0  0  0  0  0
    8.2342   12.0861    2.3175 H   0  0  0  0  0  0
    9.3565   12.9880    3.3152 H   0  0  0  0  0  0
    9.1061   11.2591    3.5941 H   0  0  0  0  0  0
   22.2791   17.9735    5.2557 H   0  0  0  0  0  0
   22.5640   18.8373    2.9620 H   0  0  0  0  0  0
   20.9687   18.1962    1.1967 H   0  0  0  0  0  0
   19.0101   16.8336    1.7245 H   0  0  0  0  0  0
  1  2  2  0  0  0
  1  4  1  0  0  0
  1 16  1  0  0  0
  2  3  1  0  0  0
  2 27  1  0  0  0
  3  6  2  0  0  0
  3 28  1  0  0  0
  4  5  2  0  0  0
  4 29  1  0  0  0
  5  6  1  0  0  0
  5  9  1  0  0  0
  6  7  1  0  0  0
  7  8  2  0  0  0
  8  9  1  0  0  0
  8 10  1  0  0  0
 10 11  1  0  0  0
 10 30  1  0  0  0
 11 12  1  0  0  0
 11 13  2  0  0  0
 12 14  1  0  0  0
 12 31  1  0  0  0
 14 15  1  0  0  0
 14 32  1  0  0  0
 14 33  1  0  0  0
 15 34  1  0  0  0
 15 35  1  0  0  0
 15 36  1  0  0  0
 16 17  2  0  0  0
 16 21  1  0  0  0
 17 18  1  0  0  0
 17 22  1  0  0  0
 18 19  2  0  0  0
 18 37  1  0  0  0
 19 20  1  0  0  0
 19 38  1  0  0  0
 20 21  2  0  0  0
 20 39  1  0  0  0
 21 40  1  0  0  0
 22 23  1  0  0  0
 23 24  1  0  0  0
 23 25  1  0  0  0
 23 26  1  0  0  0
M  END
> <s_m_entry_id>
6195

> <s_m_entry_name>
dock_pv.121

> <s_m_Source_Path>
/home/csk/Desktop/cluster/DUD-E-result/abl1

> <s_m_Source_File>
dock_pv.maegz

> <i_m_Source_File_Index>
121

> <chembl_id>
CHEMBL2347712

> <chembl_pref_name>
None

> <i_lp_mmshare_version>
53161

> <i_f3d_flags>
0

> <r_lp_tautomer_probability>
1

> <s_lp_Force_Field>
OPLS_2005

> <r_lp_Energy>
14.118382

> <b_lp_Chiralities_Consistent>
1

> <s_lp_Variant>
CHEMBL1862_lig739-1

> <s_i_glide_gridfile>
glide-grid_2hzi

> <i_i_glide_lignum>
872

> <i_i_glide_rotatable_bonds>
7

> <r_i_docking_score>
-10.2829149205506

> <r_i_glide_ligand_efficiency>
-0.395496727713483

> <r_i_glide_ligand_efficiency_sa>
-1.17165749964672

> <r_i_glide_ligand_efficiency_ln>
-2.4149088280954

> <r_i_glide_gscore>
-10.2829149205506

> <r_i_glide_lipo>
-4.39727073491503

> <r_i_glide_hbond>
-0.608

> <r_i_glide_metal>
0

> <r_i_glide_rewards>
-2.83630545852517

> <r_i_glide_evdw>
-40.5303382873535

> <r_i_glide_ecoul>
-7.00168085098267

> <r_i_glide_erotb>
0.667273800729845

> <r_i_glide_esite>
-0.0318434858251172

> <r_i_glide_emodel>
-62.6493594665696

> <r_i_glide_energy>
-47.5320191383362

> <r_i_glide_einternal>
17.5672035217285

> <i_i_glide_confnum>
19

> <i_i_glide_posenum>
400

> <r_i_glide_eff_state_penalty>
0

> <s_user_duplicate_titles>
CHEMBL1862_lig739

> <s_m_subgroup_title>
dock_pv

> <s_m_subgroupid>
dock_pv

> <b_m_subgroup_collapsed>
0

$$$$
CHEMBL1862_lig896
                    3D
 Schrodinger Suite 2021-1.
 36 38  0  0  1  0            999 V2000
   13.5431   12.6402    2.8022 N   0  0  0  0  0  0
   14.4598   12.0331    2.0054 C   0  0  0  0  0  0
   15.8021   12.1983    2.0037 N   0  0  0  0  0  0
   16.3041   13.1120    2.8597 C   0  0  0  0  0  0
   14.0791   13.5570    3.6158 C   0  0  0  0  0  0
   15.4555   13.8714    3.6844 C   0  0  0  0  0  0
   15.5516   14.9188    4.6464 C   0  0  0  0  0  0
   14.3677   15.1807    5.1494 N   0  0  0  0  0  0
   13.4559   14.3714    4.5497 N   0  0  0  0  0  0
   17.6885   13.2317    2.9032 N   0  0  0  0  0  0
   12.0579   14.4108    5.0245 C   0  0  0  0  0  0
   11.9129   13.6330    6.3465 C   0  0  0  0  0  0
   11.0288   13.9111    3.9939 C   0  0  0  0  0  0
   16.7761   15.5991    5.0390 C   0  0  0  0  0  0
   17.9013   16.0367    5.2260 C   0  0  0  0  0  0
   19.2985   16.4318    5.3333 C   0  0  0  0  0  0
   19.7193   17.6676    4.8355 C   0  0  0  0  0  0
   21.0647   18.0244    4.9154 C   0  0  0  0  0  0
   21.9808   17.1461    5.4913 C   0  0  0  0  0  0
   21.5652   15.9103    5.9825 C   0  0  0  0  0  0
   20.2218   15.5508    5.9045 C   0  0  0  0  0  0
   14.0798   11.3179    1.2886 H   0  0  0  0  0  0
   18.1052   13.9128    3.5216 H   0  0  0  0  0  0
   18.2519   12.6528    2.2945 H   0  0  0  0  0  0
   11.8324   15.4611    5.2021 H   0  0  0  0  0  0
   10.8936   13.6827    6.7310 H   0  0  0  0  0  0
   12.1638   12.5817    6.2254 H   0  0  0  0  0  0
   12.5640   14.0328    7.1194 H   0  0  0  0  0  0
   10.0110   14.0847    4.3458 H   0  0  0  0  0  0
   11.1309   14.4305    3.0489 H   0  0  0  0  0  0
   11.1202   12.8416    3.8025 H   0  0  0  0  0  0
   19.0137   18.3483    4.3802 H   0  0  0  0  0  0
   21.4020   18.9733    4.5269 H   0  0  0  0  0  0
   23.0240   17.4209    5.5502 H   0  0  0  0  0  0
   22.2868   15.2327    6.4116 H   0  0  0  0  0  0
   19.9086   14.5863    6.2792 H   0  0  0  0  0  0
  1  2  2  0  0  0
  1  5  1  0  0  0
  2  3  1  0  0  0
  2 22  1  0  0  0
  3  4  2  0  0  0
  4 10  1  0  0  0
  4  6  1  0  0  0
  5  6  2  0  0  0
  5  9  1  0  0  0
  6  7  1  0  0  0
  7 14  1  0  0  0
  7  8  2  0  0  0
  8  9  1  0  0  0
  9 11  1  0  0  0
 10 23  1  0  0  0
 10 24  1  0  0  0
 11 12  1  0  0  0
 11 13  1  0  0  0
 11 25  1  0  0  0
 12 26  1  0  0  0
 12 27  1  0  0  0
 12 28  1  0  0  0
 13 29  1  0  0  0
 13 30  1  0  0  0
 13 31  1  0  0  0
 14 15  3  0  0  0
 15 16  1  0  0  0
 16 17  2  0  0  0
 16 21  1  0  0  0
 17 18  1  0  0  0
 17 32  1  0  0  0
 18 19  2  0  0  0
 18 33  1  0  0  0
 19 20  1  0  0  0
 19 34  1  0  0  0
 20 21  2  0  0  0
 20 35  1  0  0  0
 21 36  1  0  0  0
M  END
> <s_m_entry_id>
6196

> <s_m_entry_name>
dock_pv.122

> <s_m_Source_Path>
/home/csk/Desktop/cluster/DUD-E-result/abl1

> <s_m_Source_File>
dock_pv.maegz

> <i_m_Source_File_Index>
122

> <chembl_id>
CHEMBL2058538

> <chembl_pref_name>
None

> <i_lp_mmshare_version>
53161

> <i_f3d_flags>
0

> <r_lp_tautomer_probability>
1

> <s_lp_Force_Field>
OPLS_2005

> <r_lp_Energy>
8.3313

> <b_lp_Chiralities_Consistent>
1

> <s_lp_Variant>
CHEMBL1862_lig896-1

> <s_i_glide_gridfile>
glide-grid_2hzi

> <i_i_glide_lignum>
1052

> <i_i_glide_rotatable_bonds>
3

> <r_i_docking_score>
-10.2806922631269

> <r_i_glide_ligand_efficiency>
-0.489556774434617

> <r_i_glide_ligand_efficiency_sa>
-1.35065001932813

> <r_i_glide_ligand_efficiency_ln>
-2.54188038796336

> <r_i_glide_gscore>
-10.2806922631269

> <r_i_glide_lipo>
-3.87457212141041

> <r_i_glide_hbond>
-0.385596225673336

> <r_i_glide_metal>
0

> <r_i_glide_rewards>
-3.97616500866276

> <r_i_glide_evdw>
-34.5646057128906

> <r_i_glide_ecoul>
-4.29277610778809

> <r_i_glide_erotb>
0.327787794432305

> <r_i_glide_esite>
0

> <r_i_glide_emodel>
-45.378942393643

> <r_i_glide_energy>
-38.8573818206787

> <r_i_glide_einternal>
2.02472591400146

> <i_i_glide_confnum>
1

> <i_i_glide_posenum>
3

> <r_i_glide_eff_state_penalty>
0

> <s_user_duplicate_titles>
CHEMBL1862_lig896

> <s_m_subgroup_title>
dock_pv

> <s_m_subgroupid>
dock_pv

> <b_m_subgroup_collapsed>
0

$$$$
CHEMBL1862_lig836
                    3D
 Schrodinger Suite 2021-1.
 39 41  0  0  1  0            999 V2000
   16.4585   14.5926    4.0030 C   0  0  0  0  0  0
   17.6706   13.9774    3.6599 C   0  0  0  0  0  0
   17.6393   12.7235    3.0483 C   0  0  0  0  0  0
   16.5100   12.0330    2.7419 N   0  0  0  0  0  0
   15.2633   13.9110    3.7184 C   0  0  0  0  0  0
   15.3716   12.6448    3.0757 C   0  0  0  0  0  0
   14.0947   12.1768    2.8602 N   0  0  0  0  0  0
   13.1829   13.0880    3.3505 C   0  0  0  0  0  0
   13.8647   14.1562    3.9166 C   0  0  0  0  0  0
   11.7475   12.8330    3.2030 C   0  0  0  0  0  0
   18.9122   14.5811    3.8898 N   0  0  0  0  0  0
   19.1857   15.2979    5.1300 C   0  0  0  0  0  0
   11.4872   11.7599    2.4048 O   0  0  0  0  0  0
   10.1497   11.3740    2.1250 C   0  0  0  0  0  0
   10.8910   13.5500    3.7265 O   0  0  0  0  0  0
   20.3427   16.2684    4.9969 C   0  0  0  0  0  0
   21.4985   16.4293    5.7472 C   0  0  0  0  0  0
   22.1698   17.5203    5.1947 C   0  0  0  0  0  0
   21.5199   18.0330    4.1789 N   0  0  0  0  0  0
   20.4165   17.2743    4.0501 N   0  0  0  0  0  0
   19.4510   17.6089    2.9960 C   0  0  0  0  0  0
   20.1084   17.6330    1.6030 C   0  0  0  0  0  0
   16.4333   15.5627    4.4727 H   0  0  0  0  0  0
   18.5640   12.2261    2.8030 H   0  0  0  0  0  0
   13.8090   11.3088    2.4177 H   0  0  0  0  0  0
   13.4014   15.0137    4.3830 H   0  0  0  0  0  0
   19.6995   14.3467    3.2949 H   0  0  0  0  0  0
   18.3132   15.8511    5.4753 H   0  0  0  0  0  0
   19.3892   14.5604    5.9077 H   0  0  0  0  0  0
   10.1427   10.4330    1.5746 H   0  0  0  0  0  0
    9.6471   12.1287    1.5190 H   0  0  0  0  0  0
    9.5778   11.2330    3.0435 H   0  0  0  0  0  0
   21.8177   15.8340    6.5903 H   0  0  0  0  0  0
   23.1117   17.9293    5.5334 H   0  0  0  0  0  0
   18.6353   16.8912    2.9938 H   0  0  0  0  0  0
   18.9785   18.5547    3.2492 H   0  0  0  0  0  0
   19.3702   17.8427    0.8307 H   0  0  0  0  0  0
   20.8890   18.3918    1.5370 H   0  0  0  0  0  0
   20.5625   16.6707    1.3626 H   0  0  0  0  0  0
  1  5  1  0  0  0
  1  2  2  0  0  0
  1 23  1  0  0  0
  2  3  1  0  0  0
  2 11  1  0  0  0
  3  4  2  0  0  0
  3 24  1  0  0  0
  4  6  1  0  0  0
  5  6  2  0  0  0
  5  9  1  0  0  0
  6  7  1  0  0  0
  7  8  1  0  0  0
  7 25  1  0  0  0
  8  9  2  0  0  0
  8 10  1  0  0  0
  9 26  1  0  0  0
 10 13  1  0  0  0
 10 15  2  0  0  0
 11 12  1  0  0  0
 11 27  1  0  0  0
 12 16  1  0  0  0
 12 28  1  0  0  0
 12 29  1  0  0  0
 13 14  1  0  0  0
 14 30  1  0  0  0
 14 31  1  0  0  0
 14 32  1  0  0  0
 16 17  2  0  0  0
 16 20  1  0  0  0
 17 18  1  0  0  0
 17 33  1  0  0  0
 18 19  2  0  0  0
 18 34  1  0  0  0
 19 20  1  0  0  0
 20 21  1  0  0  0
 21 22  1  0  0  0
 21 35  1  0  0  0
 21 36  1  0  0  0
 22 37  1  0  0  0
 22 38  1  0  0  0
 22 39  1  0  0  0
M  END
> <s_m_entry_id>
6197

> <s_m_entry_name>
dock_pv.123

> <s_m_Source_Path>
/home/csk/Desktop/cluster/DUD-E-result/abl1

> <s_m_Source_File>
dock_pv.maegz

> <i_m_Source_File_Index>
123

> <chembl_id>
CHEMBL3347418

> <chembl_pref_name>
None

> <i_lp_mmshare_version>
53161

> <i_f3d_flags>
0

> <r_lp_tautomer_probability>
1

> <s_lp_Force_Field>
OPLS_2005

> <r_lp_Energy>
8.959593

> <b_lp_Chiralities_Consistent>
1

> <s_lp_Variant>
CHEMBL1862_lig836-1

> <s_i_glide_gridfile>
glide-grid_2hzi

> <i_i_glide_lignum>
974

> <i_i_glide_rotatable_bonds>
6

> <r_i_docking_score>
-10.2781983288176

> <r_i_glide_ligand_efficiency>
-0.467190833128074

> <r_i_glide_ligand_efficiency_sa>
-1.30908708799771

> <r_i_glide_ligand_efficiency_ln>
-2.51236657795626

> <r_i_glide_gscore>
-10.2781983288176

> <r_i_glide_lipo>
-3.64907637408668

> <r_i_glide_hbond>
-0.711847673808008

> <r_i_glide_metal>
0

> <r_i_glide_rewards>
-3.14703398195599

> <r_i_glide_evdw>
-46.4070434570312

> <r_i_glide_ecoul>
-6.82535409927368

> <r_i_glide_erotb>
0.573914988775658

> <r_i_glide_esite>
0

> <r_i_glide_emodel>
-83.3562189614894

> <r_i_glide_energy>
-53.2323975563049

> <r_i_glide_einternal>
2.26680612564087

> <i_i_glide_confnum>
31

> <i_i_glide_posenum>
271

> <r_i_glide_eff_state_penalty>
0

> <s_user_duplicate_titles>
CHEMBL1862_lig836

> <s_m_subgroup_title>
dock_pv

> <s_m_subgroupid>
dock_pv

> <b_m_subgroup_collapsed>
0

$$$$
CHEMBL1862_lig897
                    3D
 Schrodinger Suite 2021-1.
 37 39  0  0  1  0            999 V2000
   11.9131   13.6329    6.3407 C   0  0  0  0  0  0
   12.0526   14.4193    5.0228 C   0  0  0  0  0  0
   11.0190   13.9186    3.9974 C   0  0  0  0  0  0
   13.4493   14.3857    4.5404 N   0  0  0  0  0  0
   14.3654   15.2071    5.1201 N   0  0  0  0  0  0
   14.0662   13.5668    3.6068 C   0  0  0  0  0  0
   13.5245   12.6462    2.8026 N   0  0  0  0  0  0
   14.4355   12.0334    2.0039 C   0  0  0  0  0  0
   15.7788   12.1889    2.0031 N   0  0  0  0  0  0
   16.2873   13.1099    2.8460 C   0  0  0  0  0  0
   17.6714   13.2303    2.8787 N   0  0  0  0  0  0
   15.4432   13.8811    3.6639 C   0  0  0  0  0  0
   17.9128   16.0497    5.1277 C   0  0  0  0  0  0
   19.3273   16.3776    5.2394 C   0  0  0  0  0  0
   19.8666   17.4800    4.5672 C   0  0  0  0  0  0
   20.1636   15.5583    6.0041 C   0  0  0  0  0  0
   21.5220   15.8552    6.1196 C   0  0  0  0  0  0
   22.0558   16.9593    5.4579 C   0  0  0  0  0  0
   21.2305   17.7645    4.6738 C   0  0  0  0  0  0
   21.7640   18.8330    4.0081 O   0  0  0  0  0  0
   15.5455   14.9442    4.6059 C   0  0  0  0  0  0
   16.7759   15.6322    4.9665 C   0  0  0  0  0  0
   10.8938   13.6783    6.7250 H   0  0  0  0  0  0
   12.1640   12.5821    6.2163 H   0  0  0  0  0  0
   12.5640   14.0330    7.1136 H   0  0  0  0  0  0
   11.8252   15.4684    5.2029 H   0  0  0  0  0  0
   10.0030   14.0955    4.3518 H   0  0  0  0  0  0
   11.1177   14.4330    3.0497 H   0  0  0  0  0  0
   11.1044   12.8482    3.8094 H   0  0  0  0  0  0
   14.0497   11.3209    1.2881 H   0  0  0  0  0  0
   18.0919   13.9171    3.4877 H   0  0  0  0  0  0
   18.2316   12.6451    2.2734 H   0  0  0  0  0  0
   19.2377   18.1123    3.9576 H   0  0  0  0  0  0
   19.7664   14.6943    6.5199 H   0  0  0  0  0  0
   22.1640   15.2315    6.7223 H   0  0  0  0  0  0
   23.1103   17.1757    5.5524 H   0  0  0  0  0  0
   22.6888   18.9776    4.2212 H   0  0  0  0  0  0
  1  2  1  0  0  0
  1 23  1  0  0  0
  1 24  1  0  0  0
  1 25  1  0  0  0
  2  3  1  0  0  0
  2  4  1  0  0  0
  2 26  1  0  0  0
  3 27  1  0  0  0
  3 28  1  0  0  0
  3 29  1  0  0  0
  4  5  1  0  0  0
  4  6  1  0  0  0
  5 21  2  0  0  0
  6  7  1  0  0  0
  6 12  2  0  0  0
  7  8  2  0  0  0
  8  9  1  0  0  0
  8 30  1  0  0  0
  9 10  2  0  0  0
 10 11  1  0  0  0
 10 12  1  0  0  0
 11 31  1  0  0  0
 11 32  1  0  0  0
 12 21  1  0  0  0
 13 14  1  0  0  0
 13 22  3  0  0  0
 14 15  1  0  0  0
 14 16  2  0  0  0
 15 19  2  0  0  0
 15 33  1  0  0  0
 16 17  1  0  0  0
 16 34  1  0  0  0
 17 18  2  0  0  0
 17 35  1  0  0  0
 18 19  1  0  0  0
 18 36  1  0  0  0
 19 20  1  0  0  0
 20 37  1  0  0  0
 21 22  1  0  0  0
M  END
> <s_m_entry_id>
6198

> <s_m_entry_name>
dock_pv.124

> <s_m_Source_Path>
/home/csk/Desktop/cluster/DUD-E-result/abl1

> <s_m_Source_File>
dock_pv.maegz

> <i_m_Source_File_Index>
124

> <chembl_id>
CHEMBL1213120

> <chembl_pref_name>
None

> <i_lp_mmshare_version>
53161

> <i_f3d_flags>
0

> <r_lp_tautomer_probability>
1

> <s_lp_Force_Field>
OPLS_2005

> <r_lp_Energy>
9.635874

> <b_lp_Chiralities_Consistent>
1

> <s_lp_Variant>
CHEMBL1862_lig897-1

> <s_i_glide_gridfile>
glide-grid_2hzi

> <i_i_glide_lignum>
1053

> <i_i_glide_rotatable_bonds>
4

> <r_i_docking_score>
-10.2598232551108

> <r_i_glide_ligand_efficiency>
-0.466355602505035

> <r_i_glide_ligand_efficiency_sa>
-1.3067467389442

> <r_i_glide_ligand_efficiency_ln>
-2.50787503969521

> <r_i_glide_gscore>
-10.2598232551108

> <r_i_glide_lipo>
-3.87431555031113

> <r_i_glide_hbond>
-0.389308278033632

> <r_i_glide_metal>
0

> <r_i_glide_rewards>
-3.7908879522506

> <r_i_glide_evdw>
-36.8469390869141

> <r_i_glide_ecoul>
-4.40177822113037

> <r_i_glide_erotb>
0.297302212999838

> <r_i_glide_esite>
0

> <r_i_glide_emodel>
-53.815623987151

> <r_i_glide_energy>
-41.2487173080444

> <r_i_glide_einternal>
3.03819346427917

> <i_i_glide_confnum>
1

> <i_i_glide_posenum>
29

> <r_i_glide_eff_state_penalty>
0

> <s_user_duplicate_titles>
CHEMBL1862_lig897

> <s_m_subgroup_title>
dock_pv

> <s_m_subgroupid>
dock_pv

> <b_m_subgroup_collapsed>
0

$$$$
CHEMBL1862_lig501
                    3D
 Schrodinger Suite 2021-1.
 35 37  0  0  1  0            999 V2000
   16.6599   12.0560    2.3021 N   0  0  0  0  0  0
   15.3227   12.2471    2.4031 C   0  0  0  0  0  0
   14.6835   13.1756    3.1420 N   0  0  0  0  0  0
   17.4500   12.9580    2.9283 C   0  0  0  0  0  0
   16.9182   13.9867    3.6954 C   0  0  0  0  0  0
   15.5197   13.9904    3.7899 C   0  0  0  0  0  0
   15.2309   14.9597    4.7141 N   0  0  0  0  0  0
   16.3439   15.6331    5.0943 N   0  0  0  0  0  0
   17.3627   15.0868    4.4840 C   0  0  0  0  0  0
   18.7461   15.5670    4.6969 C   0  0  0  0  0  0
   19.4315   15.1623    5.8432 C   0  0  0  0  0  0
   20.7177   15.6330    6.0897 C   0  0  0  0  0  0
   21.3203   16.5284    5.2027 C   0  0  0  0  0  0
   20.6400   16.9321    4.0561 C   0  0  0  0  0  0
   19.3595   16.4471    3.7978 C   0  0  0  0  0  0
   18.8125   12.8330    2.8030 N   0  0  0  0  0  0
   13.9460   15.4187    5.1865 C   0  0  0  0  0  0
   12.8266   14.3500    5.1202 C   0  0  0  0  0  0
   13.5807   16.6451    4.3338 C   0  0  0  0  0  0
   22.5701   17.0245    5.4562 O   0  0  0  0  0  0
   21.3640   15.2334    7.2030 F   0  0  0  0  0  0
   18.7216   16.8331    2.6737 F   0  0  0  0  0  0
   14.6789   11.6331    1.7998 H   0  0  0  0  0  0
   18.9649   14.4847    6.5433 H   0  0  0  0  0  0
   21.1048   17.6184    3.3638 H   0  0  0  0  0  0
   19.4169   13.5433    3.1887 H   0  0  0  0  0  0
   19.1688   12.1198    2.1634 H   0  0  0  0  0  0
   14.1620   15.6328    6.2331 H   0  0  0  0  0  0
   11.9145   14.6871    5.6030 H   0  0  0  0  0  0
   12.5387   14.1195    4.0940 H   0  0  0  0  0  0
   13.1116   13.4197    5.6029 H   0  0  0  0  0  0
   12.5224   16.8912    4.4030 H   0  0  0  0  0  0
   14.1669   17.5226    4.6029 H   0  0  0  0  0  0
   13.7651   16.4446    3.2788 H   0  0  0  0  0  0
   22.9870   16.6205    6.2230 H   0  0  0  0  0  0
  1  2  2  0  0  0
  1  4  1  0  0  0
  2  3  1  0  0  0
  2 23  1  0  0  0
  3  6  2  0  0  0
  4  5  2  0  0  0
  4 16  1  0  0  0
  5  9  1  0  0  0
  5  6  1  0  0  0
  6  7  1  0  0  0
  7 17  1  0  0  0
  7  8  1  0  0  0
  8  9  2  0  0  0
  9 10  1  0  0  0
 10 11  2  0  0  0
 10 15  1  0  0  0
 11 12  1  0  0  0
 11 24  1  0  0  0
 12 13  2  0  0  0
 12 21  1  0  0  0
 13 14  1  0  0  0
 13 20  1  0  0  0
 14 15  2  0  0  0
 14 25  1  0  0  0
 15 22  1  0  0  0
 16 26  1  0  0  0
 16 27  1  0  0  0
 17 18  1  0  0  0
 17 19  1  0  0  0
 17 28  1  0  0  0
 18 29  1  0  0  0
 18 30  1  0  0  0
 18 31  1  0  0  0
 19 32  1  0  0  0
 19 33  1  0  0  0
 19 34  1  0  0  0
 20 35  1  0  0  0
M  END
> <s_m_entry_id>
6199

> <s_m_entry_name>
dock_pv.125

> <s_m_Source_Path>
/home/csk/Desktop/cluster/DUD-E-result/abl1

> <s_m_Source_File>
dock_pv.maegz

> <i_m_Source_File_Index>
125

> <chembl_id>
CHEMBL1242028

> <chembl_pref_name>
None

> <i_lp_mmshare_version>
53161

> <i_f3d_flags>
0

> <r_lp_tautomer_probability>
0.999999999997365

> <s_lp_Force_Field>
OPLS_2005

> <r_lp_Energy>
23.208515

> <b_lp_Chiralities_Consistent>
1

> <s_lp_Variant>
CHEMBL1862_lig501-1

> <s_i_glide_gridfile>
glide-grid_2hzi

> <i_i_glide_lignum>
595

> <i_i_glide_rotatable_bonds>
3

> <r_i_docking_score>
-10.2556586073964

> <r_i_glide_ligand_efficiency>
-0.466166300336198

> <r_i_glide_ligand_efficiency_sa>
-1.30621630682228

> <r_i_glide_ligand_efficiency_ln>
-2.50685704788459

> <r_i_glide_gscore>
-10.2556586073964

> <r_i_glide_lipo>
-3.01826876857047

> <r_i_glide_hbond>
-0.608

> <r_i_glide_metal>
0

> <r_i_glide_rewards>
-4.06967813693494

> <r_i_glide_evdw>
-27.9221019744873

> <r_i_glide_ecoul>
-8.94410228729248

> <r_i_glide_erotb>
0.198018496964295

> <r_i_glide_esite>
-0.0200097570370041

> <r_i_glide_emodel>
-38.2723088256837

> <r_i_glide_energy>
-36.8662042617798

> <r_i_glide_einternal>
8.7385835647583

> <i_i_glide_confnum>
2

> <i_i_glide_posenum>
76

> <r_i_glide_eff_state_penalty>
0

> <s_user_duplicate_titles>
CHEMBL1862_lig501

> <s_m_subgroup_title>
dock_pv

> <s_m_subgroupid>
dock_pv

> <b_m_subgroup_collapsed>
0

$$$$
CHEMBL1862_lig537
                    3D
 Schrodinger Suite 2021-1.
 45 49  0  0  1  0            999 V2000
   16.3062   12.0984    2.0935 N   0  0  0  0  0  0
   14.9629   12.1740    2.2582 C   0  0  0  0  0  0
   14.2678   12.9243    3.1294 N   0  0  0  0  0  0
   17.0513   12.9433    2.8419 C   0  0  0  0  0  0
   16.4411   13.8700    3.6881 C   0  0  0  0  0  0
   15.0413   13.7528    3.8157 C   0  0  0  0  0  0
   14.6763   14.6056    4.8231 N   0  0  0  0  0  0
   15.7515   15.3619    5.2006 N   0  0  0  0  0  0
   16.8166   14.9201    4.5668 C   0  0  0  0  0  0
   18.1975   15.4373    4.7872 C   0  0  0  0  0  0
   18.7564   16.2515    3.8006 C   0  0  0  0  0  0
   20.2430   15.5517    6.1267 C   0  0  0  0  0  0
   18.9483   15.0918    5.9166 C   0  0  0  0  0  0
   18.4323   12.8339    2.8032 N   0  0  0  0  0  0
   20.7586   16.4356    5.1785 C   0  0  0  0  0  0
   20.0412   16.7770    3.9921 C   0  0  0  0  0  0
   20.8913   17.6330    3.2281 C   0  0  0  0  0  0
   22.0054   17.8785    4.0027 C   0  0  0  0  0  0
   21.9488   17.1362    5.1560 N   0  0  0  0  0  0
   13.3562   14.8331    5.4458 C   0  0  0  0  0  0
   12.4028   15.6165    4.5622 C   0  0  0  0  0  0
   11.5811   14.5391    3.7594 C   0  0  0  0  0  0
   11.5190   13.2989    4.5900 C   0  0  0  0  0  0
   12.4159   13.6627    5.7639 C   0  0  0  0  0  0
   22.9699   17.0972    6.1837 C   0  0  0  0  0  0
   14.3234   11.6327    1.6026 H   0  0  0  0  0  0
   18.1992   16.4882    2.9079 H   0  0  0  0  0  0
   20.7988   15.2719    7.0087 H   0  0  0  0  0  0
   18.5636   14.4330    6.6715 H   0  0  0  0  0  0
   18.9910   13.4916    3.3278 H   0  0  0  0  0  0
   18.8589   12.1682    2.1624 H   0  0  0  0  0  0
   20.7006   18.0327    2.2443 H   0  0  0  0  0  0
   22.8648   18.5009    3.8223 H   0  0  0  0  0  0
   13.7416   15.2332    6.3822 H   0  0  0  0  0  0
   11.7124   16.1974    5.1682 H   0  0  0  0  0  0
   12.9658   16.3568    4.0032 H   0  0  0  0  0  0
   10.5705   14.8718    3.5162 H   0  0  0  0  0  0
   12.0746   14.3144    2.8086 H   0  0  0  0  0  0
   10.5002   13.0912    4.9219 H   0  0  0  0  0  0
   11.8704   12.4334    4.0030 H   0  0  0  0  0  0
   12.9639   12.8330    5.9923 H   0  0  0  0  0  0
   11.8126   13.8860    6.6452 H   0  0  0  0  0  0
   23.3588   16.0824    6.2697 H   0  0  0  0  0  0
   23.7838   17.7830    5.9454 H   0  0  0  0  0  0
   22.5257   17.3855    7.1328 H   0  0  0  0  0  0
  1  2  2  0  0  0
  1  4  1  0  0  0
  2  3  1  0  0  0
  2 26  1  0  0  0
  3  6  2  0  0  0
  4 14  1  0  0  0
  4  5  2  0  0  0
  5  9  1  0  0  0
  5  6  1  0  0  0
  6  7  1  0  0  0
  7  8  1  0  0  0
  7 20  1  0  0  0
  8  9  2  0  0  0
  9 10  1  0  0  0
 10 13  1  0  0  0
 10 11  2  0  0  0
 11 16  1  0  0  0
 11 27  1  0  0  0
 12 15  1  0  0  0
 12 13  2  0  0  0
 12 28  1  0  0  0
 13 29  1  0  0  0
 14 30  1  0  0  0
 14 31  1  0  0  0
 15 16  2  0  0  0
 15 19  1  0  0  0
 16 17  1  0  0  0
 17 18  2  0  0  0
 17 32  1  0  0  0
 18 19  1  0  0  0
 18 33  1  0  0  0
 19 25  1  0  0  0
 20 21  1  0  0  0
 20 24  1  0  0  0
 20 34  1  0  0  0
 21 22  1  0  0  0
 21 35  1  0  0  0
 21 36  1  0  0  0
 22 23  1  0  0  0
 22 37  1  0  0  0
 22 38  1  0  0  0
 23 24  1  0  0  0
 23 39  1  0  0  0
 23 40  1  0  0  0
 24 41  1  0  0  0
 24 42  1  0  0  0
 25 43  1  0  0  0
 25 44  1  0  0  0
 25 45  1  0  0  0
M  END
> <s_m_entry_id>
6200

> <s_m_entry_name>
dock_pv.126

> <s_m_Source_Path>
/home/csk/Desktop/cluster/DUD-E-result/abl1

> <s_m_Source_File>
dock_pv.maegz

> <i_m_Source_File_Index>
126

> <chembl_id>
CHEMBL1242385

> <chembl_pref_name>
None

> <i_lp_mmshare_version>
53161

> <i_f3d_flags>
0

> <r_lp_tautomer_probability>
1

> <s_lp_Force_Field>
OPLS_2005

> <r_lp_Energy>
30.661385

> <b_lp_Chiralities_Consistent>
1

> <s_lp_Variant>
CHEMBL1862_lig537-1

> <s_i_glide_gridfile>
glide-grid_2hzi

> <i_i_glide_lignum>
635

> <i_i_glide_rotatable_bonds>
2

> <r_i_docking_score>
-10.2535755121586

> <r_i_glide_ligand_efficiency>
-0.410143020486345

> <r_i_glide_ligand_efficiency_sa>
-1.19926546581951

> <r_i_glide_ligand_efficiency_ln>
-2.43040467124413

> <r_i_glide_gscore>
-10.2535755121586

> <r_i_glide_lipo>
-3.96777941824602

> <r_i_glide_hbond>
-0.608

> <r_i_glide_metal>
0

> <r_i_glide_rewards>
-4.06947556894179

> <r_i_glide_evdw>
-16.7660179138184

> <r_i_glide_ecoul>
-6.72439336776733

> <r_i_glide_erotb>
0.238639375885202

> <r_i_glide_esite>
0

> <r_i_glide_emodel>
-50.4135109494245

> <r_i_glide_energy>
-23.4904112815857

> <r_i_glide_einternal>
7.92712783813477

> <i_i_glide_confnum>
48

> <i_i_glide_posenum>
33

> <r_i_glide_eff_state_penalty>
0

> <s_user_duplicate_titles>
CHEMBL1862_lig537

> <s_m_subgroup_title>
dock_pv

> <s_m_subgroupid>
dock_pv

> <b_m_subgroup_collapsed>
0

$$$$
CHEMBL1862_lig624
                    3D
 Schrodinger Suite 2021-1.
 35 37  0  0  1  0            999 V2000
   14.4736   12.7150    2.9419 C   0  0  0  0  0  0
   15.6845   12.3674    2.5847 N   0  0  0  0  0  0
   14.4566   13.8088    3.7804 N   0  0  0  0  0  0
   13.3438   12.0332    2.5331 N   0  0  0  0  0  0
   15.7564   14.2060    3.9645 C   0  0  0  0  0  0
   16.5031   13.2770    3.2030 C   0  0  0  0  0  0
   12.0425   12.4297    2.8035 C   0  0  0  0  0  0
   17.7554   15.3467    4.6273 C   0  0  0  0  0  0
   18.4107   16.4798    5.3742 C   0  0  0  0  0  0
   16.3533   15.2332    4.6938 C   0  0  0  0  0  0
   11.6841   13.3843    3.5020 O   0  0  0  0  0  0
   18.4989   14.4363    3.8537 C   0  0  0  0  0  0
   17.7211   17.2863    6.0027 O   0  0  0  0  0  0
   17.8969   13.3811    3.1676 C   0  0  0  0  0  0
   19.8774   16.7404    5.2729 C   0  0  0  0  0  0
   11.2084   11.5715    2.1928 O   0  0  0  0  0  0
   20.8040   15.7502    5.6228 C   0  0  0  0  0  0
   20.3247   18.0302    4.9560 C   0  0  0  0  0  0
    9.8011   11.6725    2.3605 C   0  0  0  0  0  0
   21.6866   18.3191    4.9595 C   0  0  0  0  0  0
   22.1626   16.0448    5.6275 C   0  0  0  0  0  0
   22.5982   17.3252    5.2983 C   0  0  0  0  0  0
   13.5970   14.1942    4.1488 H   0  0  0  0  0  0
   13.4627   11.1712    2.0086 H   0  0  0  0  0  0
   15.7518   15.9183    5.2755 H   0  0  0  0  0  0
   19.5700   14.5286    3.7516 H   0  0  0  0  0  0
   18.4910   12.6920    2.5848 H   0  0  0  0  0  0
   20.4816   14.7590    5.9144 H   0  0  0  0  0  0
   19.6175   18.8120    4.7145 H   0  0  0  0  0  0
    9.3101   10.8420    1.8532 H   0  0  0  0  0  0
    9.5230   11.6339    3.4150 H   0  0  0  0  0  0
    9.4237   12.6035    1.9373 H   0  0  0  0  0  0
   22.0371   19.3122    4.7151 H   0  0  0  0  0  0
   22.8780   15.2838    5.9025 H   0  0  0  0  0  0
   23.6545   17.5538    5.3157 H   0  0  0  0  0  0
  1  2  2  0  0  0
  1  3  1  0  0  0
  1  4  1  0  0  0
  2  6  1  0  0  0
  3  5  1  0  0  0
  3 23  1  0  0  0
  4  7  1  0  0  0
  4 24  1  0  0  0
  5 10  2  0  0  0
  5  6  1  0  0  0
  6 14  2  0  0  0
  7 11  2  0  0  0
  7 16  1  0  0  0
  8 10  1  0  0  0
  8  9  1  0  0  0
  8 12  2  0  0  0
  9 13  2  0  0  0
  9 15  1  0  0  0
 10 25  1  0  0  0
 12 14  1  0  0  0
 12 26  1  0  0  0
 14 27  1  0  0  0
 15 17  2  0  0  0
 15 18  1  0  0  0
 16 19  1  0  0  0
 17 21  1  0  0  0
 17 28  1  0  0  0
 18 20  2  0  0  0
 18 29  1  0  0  0
 19 30  1  0  0  0
 19 31  1  0  0  0
 19 32  1  0  0  0
 20 22  1  0  0  0
 20 33  1  0  0  0
 21 22  2  0  0  0
 21 34  1  0  0  0
 22 35  1  0  0  0
M  END
> <s_m_entry_id>
6201

> <s_m_entry_name>
dock_pv.127

> <s_m_Source_Path>
/home/csk/Desktop/cluster/DUD-E-result/abl1

> <s_m_Source_File>
dock_pv.maegz

> <i_m_Source_File_Index>
127

> <chembl_id>
CHEMBL685

> <chembl_pref_name>
MEBENDAZOLE

> <i_lp_mmshare_version>
53161

> <i_f3d_flags>
0

> <r_lp_tautomer_probability>
1

> <s_lp_Force_Field>
OPLS_2005

> <r_lp_Energy>
20.528778

> <b_lp_Chiralities_Consistent>
1

> <s_lp_Variant>
CHEMBL1862_lig624-1

> <s_i_glide_gridfile>
glide-grid_2hzi

> <i_i_glide_lignum>
731

> <i_i_glide_rotatable_bonds>
5

> <r_i_docking_score>
-10.2475361687946

> <r_i_glide_ligand_efficiency>
-0.465797098581574

> <r_i_glide_ligand_efficiency_sa>
-1.30518178898594

> <r_i_glide_ligand_efficiency_ln>
-2.50487162761718

> <r_i_glide_gscore>
-10.2475361687946

> <r_i_glide_lipo>
-3.48630133428279

> <r_i_glide_hbond>
-0.426426682224133

> <r_i_glide_metal>
0

> <r_i_glide_rewards>
-3.71978687289118

> <r_i_glide_evdw>
-43.1534423828125

> <r_i_glide_ecoul>
-6.96696615219116

> <r_i_glide_erotb>
0.587695762572765

> <r_i_glide_esite>
0

> <r_i_glide_emodel>
-75.4559003163882

> <r_i_glide_energy>
-50.1204085350037

> <r_i_glide_einternal>
6.69410133361816

> <i_i_glide_confnum>
39

> <i_i_glide_posenum>
144

> <r_i_glide_eff_state_penalty>
0

> <s_user_duplicate_titles>
CHEMBL1862_lig624

> <s_m_subgroup_title>
dock_pv

> <s_m_subgroupid>
dock_pv

> <b_m_subgroup_collapsed>
0

$$$$
CHEMBL1862_lig510
                    3D
 Schrodinger Suite 2021-1.
 39 42  0  0  1  0            999 V2000
   16.4870   12.0330    2.0950 N   0  0  0  0  0  0
   15.1385   12.0557    2.2153 C   0  0  0  0  0  0
   14.4099   12.8470    3.0297 N   0  0  0  0  0  0
   17.1919   12.9300    2.8168 C   0  0  0  0  0  0
   16.5591   13.8738    3.6175 C   0  0  0  0  0  0
   15.1656   13.7196    3.7064 C   0  0  0  0  0  0
   14.7852   14.5688    4.7086 N   0  0  0  0  0  0
   15.7962   15.3881    5.0842 N   0  0  0  0  0  0
   16.8844   14.9753    4.4770 C   0  0  0  0  0  0
   18.2185   15.5731    4.7797 C   0  0  0  0  0  0
   19.1906   14.8354    5.4604 C   0  0  0  0  0  0
   20.4377   15.3985    5.7433 C   0  0  0  0  0  0
   20.7498   16.7005    5.3334 C   0  0  0  0  0  0
   19.7648   17.4424    4.6613 C   0  0  0  0  0  0
   18.5116   16.8855    4.4020 C   0  0  0  0  0  0
   18.5640   12.8330    2.8030 N   0  0  0  0  0  0
   21.3640   14.6657    6.4346 O   0  0  0  0  0  0
   22.0155   17.1764    5.6339 O   0  0  0  0  0  0
   22.3939   18.4827    5.2102 C   0  0  0  0  0  0
   13.4809   14.6920    5.3094 C   0  0  0  0  0  0
   12.3648   15.1569    4.4030 C   0  0  0  0  0  0
   11.4252   14.2562    5.0580 N   0  0  2  0  0  0
   12.5632   13.4968    5.5617 C   0  0  0  0  0  0
   14.5798   11.3586    1.6060 H   0  0  0  0  0  0
   18.9755   13.8263    5.7806 H   0  0  0  0  0  0
   19.9527   18.4529    4.3351 H   0  0  0  0  0  0
   17.7646   17.4766    3.8958 H   0  0  0  0  0  0
   19.1207   13.5319    3.2724 H   0  0  0  0  0  0
   18.9840   12.1526    2.1717 H   0  0  0  0  0  0
   22.2368   15.0737    6.4030 H   0  0  0  0  0  0
   23.4204   18.6793    5.5207 H   0  0  0  0  0  0
   21.7640   19.2488    5.6626 H   0  0  0  0  0  0
   22.3533   18.5804    4.1242 H   0  0  0  0  0  0
   13.6618   15.2330    6.2231 H   0  0  0  0  0  0
   12.0568   16.1992    4.4960 H   0  0  0  0  0  0
   12.5640   14.8330    3.3813 H   0  0  0  0  0  0
   10.7533   13.7673    4.4800 H   0  0  0  0  0  0
   12.7775   12.6346    4.9304 H   0  0  0  0  0  0
   12.3856   13.2330    6.6044 H   0  0  0  0  0  0
  1  2  2  0  0  0
  1  4  1  0  0  0
  2  3  1  0  0  0
  2 24  1  0  0  0
  3  6  2  0  0  0
  4  5  2  0  0  0
  4 16  1  0  0  0
  5  9  1  0  0  0
  5  6  1  0  0  0
  6  7  1  0  0  0
  7  8  1  0  0  0
  7 20  1  0  0  0
  8  9  2  0  0  0
  9 10  1  0  0  0
 10 15  1  0  0  0
 10 11  2  0  0  0
 11 12  1  0  0  0
 11 25  1  0  0  0
 12 13  2  0  0  0
 12 17  1  0  0  0
 13 14  1  0  0  0
 13 18  1  0  0  0
 14 15  2  0  0  0
 14 26  1  0  0  0
 15 27  1  0  0  0
 16 28  1  0  0  0
 16 29  1  0  0  0
 17 30  1  0  0  0
 18 19  1  0  0  0
 19 31  1  0  0  0
 19 32  1  0  0  0
 19 33  1  0  0  0
 20 21  1  0  0  0
 20 23  1  0  0  0
 20 34  1  0  0  0
 21 22  1  0  0  0
 21 35  1  0  0  0
 21 36  1  0  0  0
 22 23  1  0  0  0
 22 37  1  0  0  0
 23 38  1  0  0  0
 23 39  1  0  0  0
M  END
> <s_m_entry_id>
6202

> <s_m_entry_name>
dock_pv.128

> <s_m_Source_Path>
/home/csk/Desktop/cluster/DUD-E-result/abl1

> <s_m_Source_File>
dock_pv.maegz

> <i_m_Source_File_Index>
128

> <chembl_id>
CHEMBL1242203

> <chembl_pref_name>
None

> <i_lp_mmshare_version>
53161

> <i_f3d_flags>
0

> <r_lp_tautomer_probability>
0.999999999999776

> <s_lp_Force_Field>
OPLS_2005

> <r_lp_Energy>
22.641148

> <b_lp_Chiralities_Consistent>
1

> <s_lp_Variant>
CHEMBL1862_lig510-1

> <s_i_glide_gridfile>
glide-grid_2hzi

> <i_i_glide_lignum>
607

> <i_i_glide_rotatable_bonds>
4

> <r_i_docking_score>
-10.2422972649454

> <r_i_glide_ligand_efficiency>
-0.445317272388929

> <r_i_glide_ligand_efficiency_sa>
-1.26642308518082

> <r_i_glide_ligand_efficiency_ln>
-2.47668035068069

> <r_i_glide_gscore>
-10.2422972649454

> <r_i_glide_lipo>
-3.35969630023893

> <r_i_glide_hbond>
-0.59140937449171

> <r_i_glide_metal>
0

> <r_i_glide_rewards>
-3.71315793667354

> <r_i_glide_evdw>
-28.605655670166

> <r_i_glide_ecoul>
-9.42730331420898

> <r_i_glide_erotb>
0.26634462709846

> <r_i_glide_esite>
0

> <r_i_glide_emodel>
-50.7712913847971

> <r_i_glide_energy>
-38.032958984375

> <r_i_glide_einternal>
7.27662134170532

> <i_i_glide_confnum>
7

> <i_i_glide_posenum>
378

> <r_i_glide_eff_state_penalty>
0

> <s_user_duplicate_titles>
CHEMBL1862_lig510

> <s_m_subgroup_title>
dock_pv

> <s_m_subgroupid>
dock_pv

> <b_m_subgroup_collapsed>
0

$$$$
CHEMBL1862_lig487
                    3D
 Schrodinger Suite 2021-1.
 36 38  0  0  1  0            999 V2000
   16.5347   12.0330    2.3326 N   0  0  0  0  0  0
   15.1910   12.1473    2.4307 C   0  0  0  0  0  0
   14.5090   13.0726    3.1351 N   0  0  0  0  0  0
   17.2930   12.9581    2.9417 C   0  0  0  0  0  0
   16.7179   13.9833    3.6840 C   0  0  0  0  0  0
   15.3110   13.9472    3.7516 C   0  0  0  0  0  0
   14.9705   14.9763    4.5877 N   0  0  0  0  0  0
   16.0651   15.6485    5.0138 N   0  0  0  0  0  0
   17.1159   15.1145    4.4532 C   0  0  0  0  0  0
   18.6548   12.8339    2.8031 N   0  0  0  0  0  0
   13.6684   15.4932    4.9452 C   0  0  0  0  0  0
   12.4860   14.5259    4.7163 C   0  0  0  0  0  0
   13.4994   16.8354    4.2373 C   0  0  0  0  0  0
   18.4366   15.6315    4.6869 C   0  0  0  0  0  0
   19.4408   15.0496    5.4385 C   0  0  0  0  0  0
   20.6427   15.7681    5.4638 C   0  0  0  0  0  0
   20.5316   16.9572    4.7296 C   0  0  0  0  0  0
   18.9642   17.1358    4.0063 S   0  0  0  0  0  0
   21.8392   15.3163    6.2577 C   0  0  0  0  0  0
   21.5078   18.0092    4.4793 C   0  0  0  0  0  0
   22.6551   17.9982    4.9219 O   0  0  0  0  0  0
   14.5965   11.4269    1.8880 H   0  0  0  0  0  0
   19.2592   13.5542    3.1710 H   0  0  0  0  0  0
   19.0103   12.1120    2.1771 H   0  0  0  0  0  0
   13.7640   15.6334    6.0028 H   0  0  0  0  0  0
   11.5656   14.9229    5.1436 H   0  0  0  0  0  0
   12.2934   14.3588    3.6565 H   0  0  0  0  0  0
   12.6636   13.5583    5.1877 H   0  0  0  0  0  0
   12.4817   17.2135    4.2691 H   0  0  0  0  0  0
   14.1640   17.5993    4.6438 H   0  0  0  0  0  0
   13.7641   16.7235    3.2030 H   0  0  0  0  0  0
   19.3081   14.1105    5.9557 H   0  0  0  0  0  0
   22.3500   16.1423    6.7529 H   0  0  0  0  0  0
   21.5668   14.6155    7.0453 H   0  0  0  0  0  0
   22.5654   14.8328    5.6067 H   0  0  0  0  0  0
   21.1524   18.8256    3.8516 H   0  0  0  0  0  0
  1  2  2  0  0  0
  1  4  1  0  0  0
  2  3  1  0  0  0
  2 22  1  0  0  0
  3  6  2  0  0  0
  4 10  1  0  0  0
  4  5  2  0  0  0
  5  6  1  0  0  0
  5  9  1  0  0  0
  6  7  1  0  0  0
  7 11  1  0  0  0
  7  8  1  0  0  0
  8  9  2  0  0  0
  9 14  1  0  0  0
 10 23  1  0  0  0
 10 24  1  0  0  0
 11 12  1  0  0  0
 11 13  1  0  0  0
 11 25  1  0  0  0
 12 26  1  0  0  0
 12 27  1  0  0  0
 12 28  1  0  0  0
 13 29  1  0  0  0
 13 30  1  0  0  0
 13 31  1  0  0  0
 14 15  2  0  0  0
 14 18  1  0  0  0
 15 16  1  0  0  0
 15 32  1  0  0  0
 16 17  2  0  0  0
 16 19  1  0  0  0
 17 18  1  0  0  0
 17 20  1  0  0  0
 19 33  1  0  0  0
 19 34  1  0  0  0
 19 35  1  0  0  0
 20 21  2  0  0  0
 20 36  1  0  0  0
M  END
> <s_m_entry_id>
6203

> <s_m_entry_name>
dock_pv.129

> <s_m_Source_Path>
/home/csk/Desktop/cluster/DUD-E-result/abl1

> <s_m_Source_File>
dock_pv.maegz

> <i_m_Source_File_Index>
129

> <chembl_id>
CHEMBL1241947

> <chembl_pref_name>
None

> <i_lp_mmshare_version>
53161

> <i_f3d_flags>
0

> <r_lp_tautomer_probability>
1

> <s_lp_Force_Field>
OPLS_2005

> <r_lp_Energy>
10.440518

> <b_lp_Chiralities_Consistent>
1

> <s_lp_Variant>
CHEMBL1862_lig487-1

> <s_i_glide_gridfile>
glide-grid_2hzi

> <i_i_glide_lignum>
577

> <i_i_glide_rotatable_bonds>
3

> <r_i_docking_score>
-10.239091168743

> <r_i_glide_ligand_efficiency>
-0.487575769940142

> <r_i_glide_ligand_efficiency_sa>
-1.34518457814035

> <r_i_glide_ligand_efficiency_ln>
-2.53159460143985

> <r_i_glide_gscore>
-10.239091168743

> <r_i_glide_lipo>
-2.95531253358544

> <r_i_glide_hbond>
-0.608

> <r_i_glide_metal>
0

> <r_i_glide_rewards>
-4.27792710609158

> <r_i_glide_evdw>
-32.0428810119629

> <r_i_glide_ecoul>
-6.65503263473511

> <r_i_glide_erotb>
0.202547416742456

> <r_i_glide_esite>
0

> <r_i_glide_emodel>
-41.729518998613

> <r_i_glide_energy>
-38.697913646698

> <r_i_glide_einternal>
9.51833438873291

> <i_i_glide_confnum>
1

> <i_i_glide_posenum>
188

> <r_i_glide_eff_state_penalty>
0

> <s_user_duplicate_titles>
CHEMBL1862_lig487

> <s_m_subgroup_title>
dock_pv

> <s_m_subgroupid>
dock_pv

> <b_m_subgroup_collapsed>
0

$$$$
CHEMBL1862_lig906
                    3D
 Schrodinger Suite 2021-1.
 37 39  0  0  1  0            999 V2000
   15.7683   12.1836    2.0041 N   0  0  0  0  0  0
   14.4245   12.0336    2.0130 C   0  0  0  0  0  0
   13.5155   12.6570    2.8031 N   0  0  0  0  0  0
   16.2806   13.1072    2.8427 C   0  0  0  0  0  0
   15.4393   13.8860    3.6583 C   0  0  0  0  0  0
   14.0605   13.5799    3.6015 C   0  0  0  0  0  0
   13.4419   14.4164    4.5156 N   0  0  0  0  0  0
   14.3630   15.2304    5.0985 N   0  0  0  0  0  0
   15.5446   14.9514    4.5978 C   0  0  0  0  0  0
   12.0479   14.4559    5.0026 C   0  0  0  0  0  0
   11.9122   13.6328    6.2986 C   0  0  0  0  0  0
   10.9789   14.0342    3.9772 C   0  0  0  0  0  0
   17.6655   13.2240    2.8712 N   0  0  0  0  0  0
   16.7765   15.6331    4.9652 C   0  0  0  0  0  0
   17.9058   16.0729    5.1212 C   0  0  0  0  0  0
   19.3139   16.4576    5.2065 C   0  0  0  0  0  0
   19.7317   17.6580    4.6219 C   0  0  0  0  0  0
   21.0757   18.0339    4.6685 C   0  0  0  0  0  0
   22.0104   17.2225    5.3085 C   0  0  0  0  0  0
   21.6036   16.0236    5.8908 C   0  0  0  0  0  0
   20.2653   15.6321    5.8366 C   0  0  0  0  0  0
   19.9194   14.4330    6.4075 O   0  0  0  0  0  0
   14.0343   11.3210    1.3007 H   0  0  0  0  0  0
   11.8424   15.5055    5.2028 H   0  0  0  0  0  0
   10.8959   13.6711    6.6919 H   0  0  0  0  0  0
   12.1636   12.5832    6.1482 H   0  0  0  0  0  0
   12.5624   14.0231    7.0788 H   0  0  0  0  0  0
    9.9874   14.0583    4.4302 H   0  0  0  0  0  0
   10.9367   14.7305    3.1477 H   0  0  0  0  0  0
   11.1183   13.0229    3.5976 H   0  0  0  0  0  0
   18.0920   13.9217    3.4621 H   0  0  0  0  0  0
   18.2199   12.6337    2.2660 H   0  0  0  0  0  0
   19.0227   18.3038    4.1222 H   0  0  0  0  0  0
   21.3946   18.9598    4.2102 H   0  0  0  0  0  0
   23.0494   17.5174    5.3491 H   0  0  0  0  0  0
   22.3335   15.3927    6.3776 H   0  0  0  0  0  0
   18.9796   14.2547    6.3200 H   0  0  0  0  0  0
  1  2  2  0  0  0
  1  4  1  0  0  0
  2  3  1  0  0  0
  2 23  1  0  0  0
  3  6  2  0  0  0
  4  5  2  0  0  0
  4 13  1  0  0  0
  5  6  1  0  0  0
  5  9  1  0  0  0
  6  7  1  0  0  0
  7  8  1  0  0  0
  7 10  1  0  0  0
  8  9  2  0  0  0
  9 14  1  0  0  0
 10 11  1  0  0  0
 10 12  1  0  0  0
 10 24  1  0  0  0
 11 25  1  0  0  0
 11 26  1  0  0  0
 11 27  1  0  0  0
 12 28  1  0  0  0
 12 29  1  0  0  0
 12 30  1  0  0  0
 13 31  1  0  0  0
 13 32  1  0  0  0
 14 15  3  0  0  0
 15 16  1  0  0  0
 16 17  2  0  0  0
 16 21  1  0  0  0
 17 18  1  0  0  0
 17 33  1  0  0  0
 18 19  2  0  0  0
 18 34  1  0  0  0
 19 20  1  0  0  0
 19 35  1  0  0  0
 20 21  2  0  0  0
 20 36  1  0  0  0
 21 22  1  0  0  0
 22 37  1  0  0  0
M  END
> <s_m_entry_id>
6204

> <s_m_entry_name>
dock_pv.130

> <s_m_Source_Path>
/home/csk/Desktop/cluster/DUD-E-result/abl1

> <s_m_Source_File>
dock_pv.maegz

> <i_m_Source_File_Index>
130

> <chembl_id>
CHEMBL3736306

> <chembl_pref_name>
None

> <i_lp_mmshare_version>
53161

> <i_f3d_flags>
0

> <r_lp_tautomer_probability>
1

> <s_lp_Force_Field>
OPLS_2005

> <r_lp_Energy>
8.832761

> <b_lp_Chiralities_Consistent>
1

> <s_lp_Variant>
CHEMBL1862_lig906-1

> <s_i_glide_gridfile>
glide-grid_2hzi

> <i_i_glide_lignum>
1062

> <i_i_glide_rotatable_bonds>
4

> <r_i_docking_score>
-10.2383314327913

> <r_i_glide_ligand_efficiency>
-0.465378701490515

> <r_i_glide_ligand_efficiency_sa>
-1.30400942388217

> <r_i_glide_ligand_efficiency_ln>
-2.50262165438707

> <r_i_glide_gscore>
-10.2383314327913

> <r_i_glide_lipo>
-3.85783948011759

> <r_i_glide_hbond>
-0.391801352151182

> <r_i_glide_metal>
0

> <r_i_glide_rewards>
-3.75234770816045

> <r_i_glide_evdw>
-36.9034309387207

> <r_i_glide_ecoul>
-4.58982372283936

> <r_i_glide_erotb>
0.297302212999838

> <r_i_glide_esite>
0

> <r_i_glide_emodel>
-57.1692453034214

> <r_i_glide_energy>
-41.4932546615601

> <r_i_glide_einternal>
2.80539965629578

> <i_i_glide_confnum>
1

> <i_i_glide_posenum>
12

> <r_i_glide_eff_state_penalty>
0

> <s_user_duplicate_titles>
CHEMBL1862_lig906

> <s_m_subgroup_title>
dock_pv

> <s_m_subgroupid>
dock_pv

> <b_m_subgroup_collapsed>
0

$$$$
CHEMBL1862_lig428
                    3D
 Schrodinger Suite 2021-1.
 36 39  0  0  1  0            999 V2000
   15.7761   12.0741    2.0437 N   0  0  0  0  0  0
   14.4268   12.0330    2.0030 C   0  0  0  0  0  0
   13.5312   12.6817    2.7703 N   0  0  0  0  0  0
   16.3239   12.9382    2.9184 C   0  0  0  0  0  0
   15.5035   13.8014    3.6752 C   0  0  0  0  0  0
   14.1113   13.5646    3.5729 C   0  0  0  0  0  0
   13.4931   14.4250    4.4437 N   0  0  0  0  0  0
   14.4084   15.2061    5.0496 N   0  0  0  0  0  0
   15.5990   14.9174    4.5611 C   0  0  0  0  0  0
   16.7841   15.7666    4.8655 C   0  0  0  0  0  0
   17.8704   15.8579    3.9826 C   0  0  0  0  0  0
   18.9202   16.7419    4.2217 C   0  0  0  0  0  0
   18.8733   17.5651    5.3470 C   0  0  0  0  0  0
   17.7870   17.4909    6.2218 C   0  0  0  0  0  0
   16.7688   16.5753    6.0030 C   0  0  0  0  0  0
   17.7074   12.8701    3.0450 N   0  0  0  0  0  0
   19.8778   18.4331    5.6030 F   0  0  0  0  0  0
   19.9756   16.8103    3.3452 O   0  0  0  0  0  0
   12.0851   14.5146    4.8287 C   0  0  0  0  0  0
   10.9188   13.9321    4.0030 C   0  0  0  0  0  0
   10.1823   13.7209    5.3342 C   0  0  0  0  0  0
   11.5721   13.6329    5.9837 C   0  0  0  0  0  0
   14.0142   11.3501    1.2735 H   0  0  0  0  0  0
   17.8724   15.3114    3.0564 H   0  0  0  0  0  0
   17.7625   18.1341    7.0886 H   0  0  0  0  0  0
   15.9440   16.5310    6.7001 H   0  0  0  0  0  0
   18.1700   13.4223    3.7507 H   0  0  0  0  0  0
   18.2207   12.2125    2.4721 H   0  0  0  0  0  0
   19.9973   16.1154    2.6807 H   0  0  0  0  0  0
   11.9272   15.5811    5.0055 H   0  0  0  0  0  0
   10.4609   14.6132    3.2858 H   0  0  0  0  0  0
   11.1317   12.9950    3.4875 H   0  0  0  0  0  0
    9.5980   14.5832    5.6613 H   0  0  0  0  0  0
    9.5579   12.8321    5.4010 H   0  0  0  0  0  0
   12.0271   12.6447    6.0026 H   0  0  0  0  0  0
   11.6737   14.0326    6.9902 H   0  0  0  0  0  0
  1  2  2  0  0  0
  1  4  1  0  0  0
  2  3  1  0  0  0
  2 23  1  0  0  0
  3  6  2  0  0  0
  4  5  2  0  0  0
  4 16  1  0  0  0
  5  9  1  0  0  0
  5  6  1  0  0  0
  6  7  1  0  0  0
  7  8  1  0  0  0
  7 19  1  0  0  0
  8  9  2  0  0  0
  9 10  1  0  0  0
 10 11  2  0  0  0
 10 15  1  0  0  0
 11 12  1  0  0  0
 11 24  1  0  0  0
 12 13  2  0  0  0
 12 18  1  0  0  0
 13 14  1  0  0  0
 13 17  1  0  0  0
 14 15  2  0  0  0
 14 25  1  0  0  0
 15 26  1  0  0  0
 16 27  1  0  0  0
 16 28  1  0  0  0
 18 29  1  0  0  0
 19 20  1  0  0  0
 19 22  1  0  0  0
 19 30  1  0  0  0
 20 21  1  0  0  0
 20 31  1  0  0  0
 20 32  1  0  0  0
 21 22  1  0  0  0
 21 33  1  0  0  0
 21 34  1  0  0  0
 22 35  1  0  0  0
 22 36  1  0  0  0
M  END
> <s_m_entry_id>
6205

> <s_m_entry_name>
dock_pv.131

> <s_m_Source_Path>
/home/csk/Desktop/cluster/DUD-E-result/abl1

> <s_m_Source_File>
dock_pv.maegz

> <i_m_Source_File_Index>
131

> <chembl_id>
CHEMBL1242566

> <chembl_pref_name>
None

> <i_lp_mmshare_version>
53161

> <i_f3d_flags>
0

> <r_lp_tautomer_probability>
0.999999999997365

> <s_lp_Force_Field>
OPLS_2005

> <r_lp_Energy>
21.086361

> <b_lp_Chiralities_Consistent>
1

> <s_lp_Variant>
CHEMBL1862_lig428-1

> <s_i_glide_gridfile>
glide-grid_2hzi

> <i_i_glide_lignum>
513

> <i_i_glide_rotatable_bonds>
3

> <r_i_docking_score>
-10.2294648939355

> <r_i_glide_ligand_efficiency>
-0.464975676997067

> <r_i_glide_ligand_efficiency_sa>
-1.30288013340148

> <r_i_glide_ligand_efficiency_ln>
-2.50045434887584

> <r_i_glide_gscore>
-10.2294648939355

> <r_i_glide_lipo>
-3.51089673020796

> <r_i_glide_hbond>
-0.427229923723048

> <r_i_glide_metal>
0

> <r_i_glide_rewards>
-4.1103142544372

> <r_i_glide_evdw>
-29.9495487213135

> <r_i_glide_ecoul>
-6.47030448913574

> <r_i_glide_erotb>
0.286999123868769

> <r_i_glide_esite>
0

> <r_i_glide_emodel>
-44.1792395806482

> <r_i_glide_energy>
-36.4198532104492

> <r_i_glide_einternal>
12.8144693374634

> <i_i_glide_confnum>
12

> <i_i_glide_posenum>
46

> <r_i_glide_eff_state_penalty>
0

> <s_user_duplicate_titles>
CHEMBL1862_lig428

> <s_m_subgroup_title>
dock_pv

> <s_m_subgroupid>
dock_pv

> <b_m_subgroup_collapsed>
0

$$$$
CHEMBL1862_lig586
                    3D
 Schrodinger Suite 2021-1.
 43 46  0  0  1  0            999 V2000
   16.7133   12.0330    2.0030 N   0  0  0  0  0  0
   15.3644   12.0330    2.0030 C   0  0  0  0  0  0
   14.5534   12.7626    2.7635 N   0  0  0  0  0  0
   17.3400   12.9023    2.8042 C   0  0  0  0  0  0
   16.6133   13.7794    3.5948 C   0  0  0  0  0  0
   15.2185   13.6233    3.5232 C   0  0  0  0  0  0
   14.6900   14.5532    4.3577 N   0  0  0  0  0  0
   15.6935   15.2330    4.9995 N   0  0  0  0  0  0
   16.8422   14.8385    4.5022 C   0  0  0  0  0  0
   18.7143   12.8737    2.8030 N   0  0  0  0  0  0
   13.2653   14.8884    4.5369 C   0  0  0  0  0  0
   13.2190   16.4136    4.4030 C   0  0  0  0  0  0
   12.8188   14.3035    5.8604 C   0  0  0  0  0  0
   18.1668   15.4157    4.8528 C   0  0  0  0  0  0
   18.8026   16.2487    3.9326 C   0  0  0  0  0  0
   20.0951   15.5372    6.3185 C   0  0  0  0  0  0
   18.8114   15.0793    6.0412 C   0  0  0  0  0  0
   20.7498   16.4082    5.4188 C   0  0  0  0  0  0
   20.0928   16.7672    4.2020 C   0  0  0  0  0  0
   20.7494   17.6330    3.2967 C   0  0  0  0  0  0
   21.9986   18.1592    3.6119 C   0  0  0  0  0  0
   22.6329   17.8211    4.8030 C   0  0  0  0  0  0
   22.0322   16.9419    5.6985 C   0  0  0  0  0  0
   12.2816   14.2348    3.5306 C   0  0  0  0  0  0
   14.8774   11.3200    1.3520 H   0  0  0  0  0  0
   19.2370   13.5560    3.3327 H   0  0  0  0  0  0
   19.1667   12.2208    2.1636 H   0  0  0  0  0  0
   13.6996   16.7362    3.4794 H   0  0  0  0  0  0
   12.2137   16.8330    4.4343 H   0  0  0  0  0  0
   13.8728   16.8330    5.1540 H   0  0  0  0  0  0
   12.9638   13.2330    5.8568 H   0  0  0  0  0  0
   13.3971   14.6948    6.6839 H   0  0  0  0  0  0
   11.7472   14.4330    6.0030 H   0  0  0  0  0  0
   18.3148   16.5033    3.0023 H   0  0  0  0  0  0
   20.5851   15.2542    7.2384 H   0  0  0  0  0  0
   18.3283   14.4330    6.7546 H   0  0  0  0  0  0
   20.2684   17.8978    2.3658 H   0  0  0  0  0  0
   22.4813   18.8336    2.9209 H   0  0  0  0  0  0
   23.6045   18.2356    5.0313 H   0  0  0  0  0  0
   22.5370   16.6751    6.6167 H   0  0  0  0  0  0
   12.2107   13.1511    3.6396 H   0  0  0  0  0  0
   11.2641   14.6065    3.6627 H   0  0  0  0  0  0
   12.5640   14.4327    2.5039 H   0  0  0  0  0  0
  1  2  2  0  0  0
  1  4  1  0  0  0
  2  3  1  0  0  0
  2 25  1  0  0  0
  3  6  2  0  0  0
  4  5  2  0  0  0
  4 10  1  0  0  0
  5  9  1  0  0  0
  5  6  1  0  0  0
  6  7  1  0  0  0
  7  8  1  0  0  0
  7 11  1  0  0  0
  8  9  2  0  0  0
  9 14  1  0  0  0
 10 26  1  0  0  0
 10 27  1  0  0  0
 11 12  1  0  0  0
 11 13  1  0  0  0
 11 24  1  0  0  0
 12 28  1  0  0  0
 12 29  1  0  0  0
 12 30  1  0  0  0
 13 31  1  0  0  0
 13 32  1  0  0  0
 13 33  1  0  0  0
 14 15  2  0  0  0
 14 17  1  0  0  0
 15 19  1  0  0  0
 15 34  1  0  0  0
 16 18  1  0  0  0
 16 17  2  0  0  0
 16 35  1  0  0  0
 17 36  1  0  0  0
 18 19  1  0  0  0
 18 23  2  0  0  0
 19 20  2  0  0  0
 20 21  1  0  0  0
 20 37  1  0  0  0
 21 22  2  0  0  0
 21 38  1  0  0  0
 22 23  1  0  0  0
 22 39  1  0  0  0
 23 40  1  0  0  0
 24 41  1  0  0  0
 24 42  1  0  0  0
 24 43  1  0  0  0
M  END
> <s_m_entry_id>
6206

> <s_m_entry_name>
dock_pv.132

> <s_m_Source_Path>
/home/csk/Desktop/cluster/DUD-E-result/abl1

> <s_m_Source_File>
dock_pv.maegz

> <i_m_Source_File_Index>
132

> <chembl_id>
CHEMBL1231371

> <chembl_pref_name>
None

> <i_lp_mmshare_version>
53161

> <i_f3d_flags>
0

> <r_lp_tautomer_probability>
1

> <s_lp_Force_Field>
OPLS_2005

> <r_lp_Energy>
23.477339

> <b_lp_Chiralities_Consistent>
1

> <s_lp_Variant>
CHEMBL1862_lig586-1

> <s_i_glide_gridfile>
glide-grid_2hzi

> <i_i_glide_lignum>
692

> <i_i_glide_rotatable_bonds>
2

> <r_i_docking_score>
-10.228851582698

> <r_i_glide_ligand_efficiency>
-0.426202149279084

> <r_i_glide_ligand_efficiency_sa>
-1.22937973202136

> <r_i_glide_ligand_efficiency_ln>
-2.44823355515411

> <r_i_glide_gscore>
-10.228851582698

> <r_i_glide_lipo>
-4.32187076082373

> <r_i_glide_hbond>
-0.608

> <r_i_glide_metal>
0

> <r_i_glide_rewards>
-3.86111177244907

> <r_i_glide_evdw>
-14.9410495758057

> <r_i_glide_ecoul>
-5.46850824356079

> <r_i_glide_erotb>
0.129459665899199

> <r_i_glide_esite>
0

> <r_i_glide_emodel>
-34.2300791274302

> <r_i_glide_energy>
-20.4095578193665

> <r_i_glide_einternal>
7.74134492874146

> <i_i_glide_confnum>
1

> <i_i_glide_posenum>
114

> <r_i_glide_eff_state_penalty>
0

> <s_user_duplicate_titles>
CHEMBL1862_lig586

> <s_m_subgroup_title>
dock_pv

> <s_m_subgroupid>
dock_pv

> <b_m_subgroup_collapsed>
0

$$$$
CHEMBL1862_lig433
                    3D
 Schrodinger Suite 2021-1.
 38 41  0  0  1  0            999 V2000
   15.7886   12.0806    2.0727 N   0  0  0  0  0  0
   14.4407   12.0330    2.0030 C   0  0  0  0  0  0
   13.5233   12.6669    2.7571 N   0  0  0  0  0  0
   16.3104   12.9546    2.9519 C   0  0  0  0  0  0
   15.4668   13.8158    3.6836 C   0  0  0  0  0  0
   14.0782   13.5636    3.5609 C   0  0  0  0  0  0
   13.4361   14.4273    4.4124 N   0  0  0  0  0  0
   14.3396   15.2309    5.0151 N   0  0  0  0  0  0
   15.5411   14.9392    4.5577 C   0  0  0  0  0  0
   16.7263   15.7832    4.8741 C   0  0  0  0  0  0
   17.8005   15.8866    3.9782 C   0  0  0  0  0  0
   18.8585   16.7595    4.2177 C   0  0  0  0  0  0
   18.8325   17.5620    5.3581 C   0  0  0  0  0  0
   17.7640   17.4683    6.2536 C   0  0  0  0  0  0
   16.7339   16.5639    6.0301 C   0  0  0  0  0  0
   17.6919   12.9031    3.1050 N   0  0  0  0  0  0
   19.8378   18.4329    5.6031 F   0  0  0  0  0  0
   19.9012   16.8358    3.3269 O   0  0  0  0  0  0
   12.0300   14.4850    4.8295 C   0  0  2  0  0  0
   11.7230   13.6330    6.0534 C   0  0  0  0  0  0
   10.1934   13.6240    6.0601 C   0  0  0  0  0  0
    9.7533   13.7583    4.6762 N   0  0  1  0  0  0
   10.9297   14.0337    3.8609 C   0  0  0  0  0  0
   14.0491   11.3420    1.2693 H   0  0  0  0  0  0
   17.7856   15.3568    3.0418 H   0  0  0  0  0  0
   17.7574   18.0934    7.1341 H   0  0  0  0  0  0
   15.9180   16.5055    6.7368 H   0  0  0  0  0  0
   18.1361   13.4693    3.8117 H   0  0  0  0  0  0
   18.2216   12.2471    2.5458 H   0  0  0  0  0  0
   19.9138   16.1448    2.6582 H   0  0  0  0  0  0
   11.8581   15.5434    5.0310 H   0  0  0  0  0  0
   12.1287   12.6271    5.9819 H   0  0  0  0  0  0
   12.1355   14.0328    6.9759 H   0  0  0  0  0  0
    9.8079   12.6883    6.4657 H   0  0  0  0  0  0
    9.7898   14.4323    6.6728 H   0  0  0  0  0  0
    9.2864   12.9163    4.3615 H   0  0  0  0  0  0
   10.7006   14.7847    3.1077 H   0  0  0  0  0  0
   11.1905   13.1203    3.3291 H   0  0  0  0  0  0
  1  2  2  0  0  0
  1  4  1  0  0  0
  2  3  1  0  0  0
  2 24  1  0  0  0
  3  6  2  0  0  0
  4  5  2  0  0  0
  4 16  1  0  0  0
  5  9  1  0  0  0
  5  6  1  0  0  0
  6  7  1  0  0  0
  7  8  1  0  0  0
  7 19  1  0  0  0
  8  9  2  0  0  0
  9 10  1  0  0  0
 10 15  1  0  0  0
 10 11  2  0  0  0
 11 12  1  0  0  0
 11 25  1  0  0  0
 12 13  2  0  0  0
 12 18  1  0  0  0
 13 14  1  0  0  0
 13 17  1  0  0  0
 14 15  2  0  0  0
 14 26  1  0  0  0
 15 27  1  0  0  0
 16 28  1  0  0  0
 16 29  1  0  0  0
 18 30  1  0  0  0
 19 20  1  0  0  0
 19 23  1  0  0  0
 19 31  1  0  0  0
 20 21  1  0  0  0
 20 32  1  0  0  0
 20 33  1  0  0  0
 21 22  1  0  0  0
 21 34  1  0  0  0
 21 35  1  0  0  0
 22 23  1  0  0  0
 22 36  1  0  0  0
 23 37  1  0  0  0
 23 38  1  0  0  0
M  END
> <s_m_entry_id>
6207

> <s_m_entry_name>
dock_pv.133

> <s_m_Source_Path>
/home/csk/Desktop/cluster/DUD-E-result/abl1

> <s_m_Source_File>
dock_pv.maegz

> <i_m_Source_File_Index>
133

> <chembl_id>
CHEMBL1242658

> <chembl_pref_name>
None

> <i_lp_mmshare_version>
53161

> <i_f3d_flags>
0

> <r_lp_tautomer_probability>
0.999999999997365

> <s_lp_Force_Field>
OPLS_2005

> <r_lp_Energy>
31.108095

> <b_lp_Chiralities_Consistent>
1

> <s_lp_Variant>
CHEMBL1862_lig433-1

> <s_i_glide_gridfile>
glide-grid_2hzi

> <i_i_glide_lignum>
521

> <i_i_glide_rotatable_bonds>
3

> <r_i_docking_score>
-10.2272898971993

> <r_i_glide_ligand_efficiency>
-0.444664778139102

> <r_i_glide_ligand_efficiency_sa>
-1.26456747833113

> <r_i_glide_ligand_efficiency_ln>
-2.47305143308041

> <r_i_glide_gscore>
-10.2272898971993

> <r_i_glide_lipo>
-3.53037301887745

> <r_i_glide_hbond>
-0.376372449968004

> <r_i_glide_metal>
0

> <r_i_glide_rewards>
-4.00798696579104

> <r_i_glide_evdw>
-30.5733737945557

> <r_i_glide_ecoul>
-6.98182916641235

> <r_i_glide_erotb>
0.263385602126789

> <r_i_glide_esite>
0

> <r_i_glide_emodel>
-42.9327350398959

> <r_i_glide_energy>
-37.555202960968

> <r_i_glide_einternal>
5.52227258682251

> <i_i_glide_confnum>
12

> <i_i_glide_posenum>
105

> <r_i_glide_eff_state_penalty>
0

> <s_user_duplicate_titles>
CHEMBL1862_lig433

> <s_m_subgroup_title>
dock_pv

> <s_m_subgroupid>
dock_pv

> <b_m_subgroup_collapsed>
0

$$$$
CHEMBL1862_lig509
                    3D
 Schrodinger Suite 2021-1.
 46 49  0  0  1  0            999 V2000
   16.9781   12.0613    2.3945 N   0  0  0  0  0  0
   15.6248   12.0349    2.4030 C   0  0  0  0  0  0
   14.8058   12.8671    3.0637 N   0  0  0  0  0  0
   17.5761   13.1120    2.9993 C   0  0  0  0  0  0
   16.8416   14.0148    3.7750 C   0  0  0  0  0  0
   15.4603   13.7692    3.7962 C   0  0  0  0  0  0
   14.9679   14.5558    4.8030 N   0  0  0  0  0  0
   15.8973   15.4663    5.2029 N   0  0  0  0  0  0
   17.0379   15.1431    4.6292 C   0  0  0  0  0  0
   18.3357   15.7760    4.9784 C   0  0  0  0  0  0
   19.2507   15.0434    5.7358 C   0  0  0  0  0  0
   20.5053   15.5705    6.0323 C   0  0  0  0  0  0
   20.8823   16.8350    5.5630 C   0  0  0  0  0  0
   19.9511   17.5738    4.8107 C   0  0  0  0  0  0
   18.6852   17.0521    4.5332 C   0  0  0  0  0  0
   18.9346   13.2330    2.8030 N   0  0  0  0  0  0
   21.3640   14.8332    6.8010 O   0  0  0  0  0  0
   22.1540   17.2780    5.8843 O   0  0  0  0  0  0
   22.5839   18.5571    5.4294 C   0  0  0  0  0  0
   13.5932   14.6317    5.2878 C   0  0  1  0  0  0
   12.8151   15.5837    4.4030 C   0  0  0  0  0  0
   11.3567   15.0417    4.4040 C   0  0  0  0  0  0
   11.4568   13.5361    4.4876 C   0  0  2  0  0  0
   12.7574   13.3117    5.2543 C   0  0  0  0  0  0
   11.4088   12.8317    3.1205 C   0  0  0  0  0  0
   15.1205   11.2598    1.8425 H   0  0  0  0  0  0
   18.9916   14.0563    6.0912 H   0  0  0  0  0  0
   20.1952   18.5517    4.4271 H   0  0  0  0  0  0
   17.9881   17.6296    3.9460 H   0  0  0  0  0  0
   19.4481   14.0330    3.1449 H   0  0  0  0  0  0
   19.3640   12.5331    2.2056 H   0  0  0  0  0  0
   22.2631   15.1791    6.7545 H   0  0  0  0  0  0
   23.5963   18.7468    5.7867 H   0  0  0  0  0  0
   22.6017   18.6090    4.3398 H   0  0  0  0  0  0
   21.9456   19.3528    5.8143 H   0  0  0  0  0  0
   13.7177   14.9509    6.3206 H   0  0  0  0  0  0
   12.8540   16.5989    4.7592 H   0  0  0  0  0  0
   13.3640   15.5813    3.4440 H   0  0  0  0  0  0
   10.8069   15.4061    5.2596 H   0  0  0  0  0  0
   10.6900   15.3155    3.6030 H   0  0  0  0  0  0
   10.6184   13.1660    5.0814 H   0  0  0  0  0  0
   13.2609   12.4607    4.8030 H   0  0  0  0  0  0
   12.5010   13.0294    6.2745 H   0  0  0  0  0  0
   12.1701   13.2224    2.4460 H   0  0  0  0  0  0
   11.5809   11.7588    3.2030 H   0  0  0  0  0  0
   10.4327   12.9570    2.6516 H   0  0  0  0  0  0
  1  2  2  0  0  0
  1  4  1  0  0  0
  2  3  1  0  0  0
  2 26  1  0  0  0
  3  6  2  0  0  0
  4  5  2  0  0  0
  4 16  1  0  0  0
  5  9  1  0  0  0
  5  6  1  0  0  0
  6  7  1  0  0  0
  7  8  1  0  0  0
  7 20  1  0  0  0
  8  9  2  0  0  0
  9 10  1  0  0  0
 10 15  1  0  0  0
 10 11  2  0  0  0
 11 12  1  0  0  0
 11 27  1  0  0  0
 12 13  2  0  0  0
 12 17  1  0  0  0
 13 14  1  0  0  0
 13 18  1  0  0  0
 14 15  2  0  0  0
 14 28  1  0  0  0
 15 29  1  0  0  0
 16 30  1  0  0  0
 16 31  1  0  0  0
 17 32  1  0  0  0
 18 19  1  0  0  0
 19 33  1  0  0  0
 19 34  1  0  0  0
 19 35  1  0  0  0
 20 21  1  0  0  0
 20 24  1  0  0  0
 20 36  1  0  0  0
 21 22  1  0  0  0
 21 37  1  0  0  0
 21 38  1  0  0  0
 22 23  1  0  0  0
 22 39  1  0  0  0
 22 40  1  0  0  0
 23 24  1  0  0  0
 23 25  1  0  0  0
 23 41  1  0  0  0
 24 42  1  0  0  0
 24 43  1  0  0  0
 25 44  1  0  0  0
 25 45  1  0  0  0
 25 46  1  0  0  0
M  END
> <s_m_entry_id>
6208

> <s_m_entry_name>
dock_pv.134

> <s_m_Source_Path>
/home/csk/Desktop/cluster/DUD-E-result/abl1

> <s_m_Source_File>
dock_pv.maegz

> <i_m_Source_File_Index>
134

> <chembl_id>
CHEMBL1242202

> <chembl_pref_name>
None

> <i_lp_mmshare_version>
53161

> <i_f3d_flags>
0

> <r_lp_tautomer_probability>
0.999999999999776

> <s_lp_Force_Field>
OPLS_2005

> <r_lp_Energy>
33.796646

> <b_lp_Chiralities_Consistent>
1

> <s_lp_Variant>
CHEMBL1862_lig509-2

> <s_i_glide_gridfile>
glide-grid_2hzi

> <i_i_glide_lignum>
604

> <i_i_glide_rotatable_bonds>
4

> <r_i_docking_score>
-10.2269758676297

> <r_i_glide_ligand_efficiency>
-0.409079034705188

> <r_i_glide_ligand_efficiency_sa>
-1.19615435252554

> <r_i_glide_ligand_efficiency_ln>
-2.42409975836376

> <r_i_glide_gscore>
-10.2269758676297

> <r_i_glide_lipo>
-3.83530061838629

> <r_i_glide_hbond>
-0.568364216281712

> <r_i_glide_metal>
0

> <r_i_glide_rewards>
-3.93107945730744

> <r_i_glide_evdw>
-27.1647071838379

> <r_i_glide_ecoul>
-5.75051832199097

> <r_i_glide_erotb>
0.328581531836272

> <r_i_glide_esite>
0

> <r_i_glide_emodel>
-30.4898954986687

> <r_i_glide_energy>
-32.9152255058289

> <r_i_glide_einternal>
10.1908073425293

> <i_i_glide_confnum>
24

> <i_i_glide_posenum>
262

> <r_i_glide_eff_state_penalty>
0

> <s_user_duplicate_titles>
CHEMBL1862_lig509

> <s_m_subgroup_title>
dock_pv

> <s_m_subgroupid>
dock_pv

> <b_m_subgroup_collapsed>
0

$$$$
CHEMBL1862_lig467
                    3D
 Schrodinger Suite 2021-1.
 45 47  0  0  1  0            999 V2000
   16.0181   12.1165    2.0030 N   0  0  0  0  0  0
   14.6700   12.0330    2.0030 C   0  0  0  0  0  0
   13.7916   12.6539    2.8130 N   0  0  0  0  0  0
   16.5711   13.0145    2.8391 C   0  0  0  0  0  0
   15.7577   13.8605    3.6194 C   0  0  0  0  0  0
   14.3713   13.5630    3.5944 C   0  0  0  0  0  0
   13.7589   14.4026    4.5002 N   0  0  0  0  0  0
   14.6828   15.2460    5.0272 N   0  0  0  0  0  0
   15.8641   15.0015    4.4745 C   0  0  0  0  0  0
   17.0628   15.8883    4.6941 C   0  0  0  0  0  0
   18.0924   16.0226    3.7372 C   0  0  0  0  0  0
   19.1781   16.8951    3.9354 C   0  0  0  0  0  0
   19.2429   17.6211    5.1294 C   0  0  0  0  0  0
   18.1640   17.5836    6.0030 C   0  0  0  0  0  0
   17.1100   16.6994    5.8255 C   0  0  0  0  0  0
   17.9590   13.0044    2.8998 N   0  0  0  0  0  0
   20.1821   17.1073    3.0114 O   0  0  0  0  0  0
   20.3032   18.4330    5.4701 O   0  0  0  0  0  0
   21.6265   17.8814    5.4805 C   0  0  0  0  0  0
   19.8685   17.0538    1.6269 C   0  0  0  0  0  0
   12.3284   14.5007    4.8892 C   0  0  0  0  0  0
   12.0001   13.6896    6.1595 C   0  0  0  0  0  0
   11.3592   14.0649    3.7704 C   0  0  0  0  0  0
   21.7640   16.5203    6.1909 C   0  0  0  0  0  0
   14.2482   11.3258    1.3025 H   0  0  0  0  0  0
   18.0246   15.4932    2.8030 H   0  0  0  0  0  0
   18.1640   18.2284    6.8662 H   0  0  0  0  0  0
   16.3141   16.6738    6.5567 H   0  0  0  0  0  0
   18.4354   13.6218    3.5403 H   0  0  0  0  0  0
   18.4696   12.3615    2.3059 H   0  0  0  0  0  0
   22.0195   17.8193    4.4659 H   0  0  0  0  0  0
   22.2633   18.6064    5.9888 H   0  0  0  0  0  0
   20.6850   17.5008    1.0597 H   0  0  0  0  0  0
   19.7640   16.0330    1.2784 H   0  0  0  0  0  0
   18.9640   17.6134    1.3878 H   0  0  0  0  0  0
   12.1415   15.5572    5.0832 H   0  0  0  0  0  0
   10.9492   13.8064    6.4273 H   0  0  0  0  0  0
   12.1640   12.6241    6.0312 H   0  0  0  0  0  0
   12.5640   14.0330    7.0205 H   0  0  0  0  0  0
   10.3509   14.4373    3.9532 H   0  0  0  0  0  0
   11.6798   14.4318    2.8030 H   0  0  0  0  0  0
   11.2899   12.9793    3.6876 H   0  0  0  0  0  0
   22.8115   16.2244    6.2614 H   0  0  0  0  0  0
   21.3640   16.5585    7.2030 H   0  0  0  0  0  0
   21.2397   15.7309    5.6521 H   0  0  0  0  0  0
  1  2  2  0  0  0
  1  4  1  0  0  0
  2  3  1  0  0  0
  2 25  1  0  0  0
  3  6  2  0  0  0
  4  5  2  0  0  0
  4 16  1  0  0  0
  5  9  1  0  0  0
  5  6  1  0  0  0
  6  7  1  0  0  0
  7  8  1  0  0  0
  7 21  1  0  0  0
  8  9  2  0  0  0
  9 10  1  0  0  0
 10 15  1  0  0  0
 10 11  2  0  0  0
 11 12  1  0  0  0
 11 26  1  0  0  0
 12 13  2  0  0  0
 12 17  1  0  0  0
 13 14  1  0  0  0
 13 18  1  0  0  0
 14 15  2  0  0  0
 14 27  1  0  0  0
 15 28  1  0  0  0
 16 29  1  0  0  0
 16 30  1  0  0  0
 17 20  1  0  0  0
 18 19  1  0  0  0
 19 24  1  0  0  0
 19 31  1  0  0  0
 19 32  1  0  0  0
 20 33  1  0  0  0
 20 34  1  0  0  0
 20 35  1  0  0  0
 21 22  1  0  0  0
 21 23  1  0  0  0
 21 36  1  0  0  0
 22 37  1  0  0  0
 22 38  1  0  0  0
 22 39  1  0  0  0
 23 40  1  0  0  0
 23 41  1  0  0  0
 23 42  1  0  0  0
 24 43  1  0  0  0
 24 44  1  0  0  0
 24 45  1  0  0  0
M  END
> <s_m_entry_id>
6209

> <s_m_entry_name>
dock_pv.135

> <s_m_Source_Path>
/home/csk/Desktop/cluster/DUD-E-result/abl1

> <s_m_Source_File>
dock_pv.maegz

> <i_m_Source_File_Index>
135

> <chembl_id>
CHEMBL1242472

> <chembl_pref_name>
None

> <i_lp_mmshare_version>
53161

> <i_f3d_flags>
0

> <r_lp_tautomer_probability>
1

> <s_lp_Force_Field>
OPLS_2005

> <r_lp_Energy>
18.993813

> <b_lp_Chiralities_Consistent>
1

> <s_lp_Variant>
CHEMBL1862_lig467-1

> <s_i_glide_gridfile>
glide-grid_2hzi

> <i_i_glide_lignum>
556

> <i_i_glide_rotatable_bonds>
5

> <r_i_docking_score>
-10.2235663033706

> <r_i_glide_ligand_efficiency>
-0.425981929307106

> <r_i_glide_ligand_efficiency_sa>
-1.22874450770212

> <r_i_glide_ligand_efficiency_ln>
-2.44696854528539

> <r_i_glide_gscore>
-10.2235663033706

> <r_i_glide_lipo>
-3.80289497185922

> <r_i_glide_hbond>
-0.567870252457307

> <r_i_glide_metal>
0

> <r_i_glide_rewards>
-3.45039669093681

> <r_i_glide_evdw>
-35.0801773071289

> <r_i_glide_ecoul>
-5.95694637298584

> <r_i_glide_erotb>
0.24514643318711

> <r_i_glide_esite>
0

> <r_i_glide_emodel>
-42.9262662492652

> <r_i_glide_energy>
-41.0371236801147

> <r_i_glide_einternal>
15.5266923904419

> <i_i_glide_confnum>
9

> <i_i_glide_posenum>
277

> <r_i_glide_eff_state_penalty>
0

> <s_user_duplicate_titles>
CHEMBL1862_lig467

> <s_m_subgroup_title>
dock_pv

> <s_m_subgroupid>
dock_pv

> <b_m_subgroup_collapsed>
0

$$$$
CHEMBL1862_lig838
                    3D
 Schrodinger Suite 2021-1.
 33 35  0  0  1  0            999 V2000
   16.5016   14.7518    3.9725 C   0  0  0  0  0  0
   17.7410   14.1872    3.6335 C   0  0  0  0  0  0
   17.7600   12.9137    3.0552 C   0  0  0  0  0  0
   16.6572   12.1752    2.7577 N   0  0  0  0  0  0
   15.3386   14.0203    3.6987 C   0  0  0  0  0  0
   15.4946   12.7499    3.0770 C   0  0  0  0  0  0
   14.2333   12.2365    2.8661 N   0  0  0  0  0  0
   13.2921   13.1250    3.3464 C   0  0  0  0  0  0
   13.9354   14.2212    3.8972 C   0  0  0  0  0  0
   11.8655   12.8330    3.2030 C   0  0  0  0  0  0
   18.9640   14.8319    3.8766 N   0  0  0  0  0  0
   19.0038   16.2023    4.3748 C   0  0  0  0  0  0
   11.6316   11.7579    2.4030 O   0  0  0  0  0  0
   20.3830   16.6263    4.8207 C   0  0  0  0  0  0
   10.3026   11.3521    2.1112 C   0  0  0  0  0  0
   10.9920   13.5315    3.7235 O   0  0  0  0  0  0
   21.1021   17.7667    4.4647 C   0  0  0  0  0  0
   22.3237   17.9090    5.1267 C   0  0  0  0  0  0
   22.5641   16.8692    6.0033 C   0  0  0  0  0  0
   21.2869   15.7084    6.0018 S   0  0  0  0  0  0
   16.4248   15.7191    4.4404 H   0  0  0  0  0  0
   18.7029   12.4488    2.8031 H   0  0  0  0  0  0
   13.9753   11.3547    2.4363 H   0  0  0  0  0  0
   13.4431   15.0690    4.3508 H   0  0  0  0  0  0
   19.7414   14.5734    3.2787 H   0  0  0  0  0  0
   18.6123   16.8758    3.6100 H   0  0  0  0  0  0
   18.3489   16.2831    5.2434 H   0  0  0  0  0  0
   10.3144   10.3973    1.5852 H   0  0  0  0  0  0
    9.8037   12.0857    1.4762 H   0  0  0  0  0  0
    9.7147   11.2329    3.0233 H   0  0  0  0  0  0
   20.7395   18.4847    3.7459 H   0  0  0  0  0  0
   22.9996   18.7398    4.9775 H   0  0  0  0  0  0
   23.4195   16.7264    6.6481 H   0  0  0  0  0  0
  1  5  1  0  0  0
  1  2  2  0  0  0
  1 21  1  0  0  0
  2  3  1  0  0  0
  2 11  1  0  0  0
  3  4  2  0  0  0
  3 22  1  0  0  0
  4  6  1  0  0  0
  5  6  2  0  0  0
  5  9  1  0  0  0
  6  7  1  0  0  0
  7  8  1  0  0  0
  7 23  1  0  0  0
  8  9  2  0  0  0
  8 10  1  0  0  0
  9 24  1  0  0  0
 10 13  1  0  0  0
 10 16  2  0  0  0
 11 12  1  0  0  0
 11 25  1  0  0  0
 12 14  1  0  0  0
 12 26  1  0  0  0
 12 27  1  0  0  0
 13 15  1  0  0  0
 14 17  2  0  0  0
 14 20  1  0  0  0
 15 28  1  0  0  0
 15 29  1  0  0  0
 15 30  1  0  0  0
 17 18  1  0  0  0
 17 31  1  0  0  0
 18 19  2  0  0  0
 18 32  1  0  0  0
 19 20  1  0  0  0
 19 33  1  0  0  0
M  END
> <s_m_entry_id>
6210

> <s_m_entry_name>
dock_pv.136

> <s_m_Source_Path>
/home/csk/Desktop/cluster/DUD-E-result/abl1

> <s_m_Source_File>
dock_pv.maegz

> <i_m_Source_File_Index>
136

> <chembl_id>
CHEMBL3347389

> <chembl_pref_name>
None

> <i_lp_mmshare_version>
53161

> <i_f3d_flags>
0

> <r_lp_tautomer_probability>
1

> <s_lp_Force_Field>
OPLS_2005

> <r_lp_Energy>
6.488602

> <b_lp_Chiralities_Consistent>
1

> <s_lp_Variant>
CHEMBL1862_lig838-1

> <s_i_glide_gridfile>
glide-grid_2hzi

> <i_i_glide_lignum>
977

> <i_i_glide_rotatable_bonds>
5

> <r_i_docking_score>
-10.2094855328909

> <r_i_glide_ligand_efficiency>
-0.510474276644545

> <r_i_glide_ligand_efficiency_sa>
-1.38564036795883

> <r_i_glide_ligand_efficiency_ln>
-2.55509749751329

> <r_i_glide_gscore>
-10.2094855328909

> <r_i_glide_lipo>
-3.66557420952922

> <r_i_glide_hbond>
-0.670056596113002

> <r_i_glide_metal>
0

> <r_i_glide_rewards>
-3.28571632647189

> <r_i_glide_evdw>
-43.7594261169434

> <r_i_glide_ecoul>
-6.77691078186035

> <r_i_glide_erotb>
0.616369522349429

> <r_i_glide_esite>
0

> <r_i_glide_emodel>
-80.4528249600344

> <r_i_glide_energy>
-50.5363368988037

> <r_i_glide_einternal>
1.13239550590515

> <i_i_glide_confnum>
18

> <i_i_glide_posenum>
371

> <r_i_glide_eff_state_penalty>
0

> <s_user_duplicate_titles>
CHEMBL1862_lig838

> <s_m_subgroup_title>
dock_pv

> <s_m_subgroupid>
dock_pv

> <b_m_subgroup_collapsed>
0

$$$$
CHEMBL1862_lig459
                    3D
 Schrodinger Suite 2021-1.
 35 37  0  0  1  0            999 V2000
   16.8765   12.0331    2.4030 N   0  0  0  0  0  0
   15.5291   12.0959    2.5233 C   0  0  0  0  0  0
   14.8100   13.0211    3.1957 N   0  0  0  0  0  0
   17.5915   13.0226    2.9860 C   0  0  0  0  0  0
   16.9775   14.0330    3.7303 C   0  0  0  0  0  0
   15.5703   13.9461    3.7944 C   0  0  0  0  0  0
   15.1795   14.9827    4.6094 N   0  0  0  0  0  0
   16.2451   15.6977    5.0361 N   0  0  0  0  0  0
   17.3245   15.1922    4.4983 C   0  0  0  0  0  0
   18.6507   15.8244    4.7397 C   0  0  0  0  0  0
   19.6123   15.2277    5.5645 C   0  0  0  0  0  0
   20.8296   15.8739    5.8028 C   0  0  0  0  0  0
   21.0939   17.1132    5.2231 C   0  0  0  0  0  0
   20.1310   17.7201    4.4208 C   0  0  0  0  0  0
   18.9154   17.0795    4.1800 C   0  0  0  0  0  0
   18.9552   12.9933    2.8030 N   0  0  0  0  0  0
   21.7640   15.3023    6.6195 O   0  0  0  0  0  0
   19.3638   14.0330    6.1503 F   0  0  0  0  0  0
   13.8530   15.4451    4.9831 C   0  0  0  0  0  0
   12.7246   14.4110    4.7808 C   0  0  0  0  0  0
   13.5706   16.7629    4.2623 C   0  0  0  0  0  0
   14.9612   11.3167    2.0364 H   0  0  0  0  0  0
   22.0310   17.6179    5.4096 H   0  0  0  0  0  0
   20.3271   18.6947    4.0026 H   0  0  0  0  0  0
   18.1680   17.5649    3.5689 H   0  0  0  0  0  0
   19.5328   13.7503    3.1398 H   0  0  0  0  0  0
   19.3284   12.2619    2.1974 H   0  0  0  0  0  0
   22.6313   15.7145    6.5747 H   0  0  0  0  0  0
   13.9388   15.6330    6.0393 H   0  0  0  0  0  0
   11.7863   14.7697    5.2027 H   0  0  0  0  0  0
   12.5369   14.2150    3.7247 H   0  0  0  0  0  0
   12.9555   13.4630    5.2669 H   0  0  0  0  0  0
   12.5320   17.0598    4.4026 H   0  0  0  0  0  0
   14.2017   17.5739    4.6245 H   0  0  0  0  0  0
   13.7641   16.6532    3.2030 H   0  0  0  0  0  0
  1  2  2  0  0  0
  1  4  1  0  0  0
  2  3  1  0  0  0
  2 22  1  0  0  0
  3  6  2  0  0  0
  4  5  2  0  0  0
  4 16  1  0  0  0
  5  6  1  0  0  0
  5  9  1  0  0  0
  6  7  1  0  0  0
  7  8  1  0  0  0
  7 19  1  0  0  0
  8  9  2  0  0  0
  9 10  1  0  0  0
 10 11  2  0  0  0
 10 15  1  0  0  0
 11 12  1  0  0  0
 11 18  1  0  0  0
 12 13  2  0  0  0
 12 17  1  0  0  0
 13 14  1  0  0  0
 13 23  1  0  0  0
 14 15  2  0  0  0
 14 24  1  0  0  0
 15 25  1  0  0  0
 16 26  1  0  0  0
 16 27  1  0  0  0
 17 28  1  0  0  0
 19 20  1  0  0  0
 19 21  1  0  0  0
 19 29  1  0  0  0
 20 30  1  0  0  0
 20 31  1  0  0  0
 20 32  1  0  0  0
 21 33  1  0  0  0
 21 34  1  0  0  0
 21 35  1  0  0  0
M  END
> <s_m_entry_id>
6211

> <s_m_entry_name>
dock_pv.137

> <s_m_Source_Path>
/home/csk/Desktop/cluster/DUD-E-result/abl1

> <s_m_Source_File>
dock_pv.maegz

> <i_m_Source_File_Index>
137

> <chembl_id>
CHEMBL1242110

> <chembl_pref_name>
None

> <i_lp_mmshare_version>
53161

> <i_f3d_flags>
0

> <r_lp_tautomer_probability>
0.999999999997365

> <s_lp_Force_Field>
OPLS_2005

> <r_lp_Energy>
24.724492

> <b_lp_Chiralities_Consistent>
1

> <s_lp_Variant>
CHEMBL1862_lig459-1

> <s_i_glide_gridfile>
glide-grid_2hzi

> <i_i_glide_lignum>
548

> <i_i_glide_rotatable_bonds>
3

> <r_i_docking_score>
-10.2083608931626

> <r_i_glide_ligand_efficiency>
-0.486112423483933

> <r_i_glide_ligand_efficiency_sa>
-1.34114731622799

> <r_i_glide_ligand_efficiency_ln>
-2.52399660289898

> <r_i_glide_gscore>
-10.2083608931626

> <r_i_glide_lipo>
-3.13360226868435

> <r_i_glide_hbond>
-0.726019995196221

> <r_i_glide_metal>
0

> <r_i_glide_rewards>
-4.15473791007713

> <r_i_glide_evdw>
-24.7857189178467

> <r_i_glide_ecoul>
-7.83271789550781

> <r_i_glide_erotb>
0.220192911013604

> <r_i_glide_esite>
0

> <r_i_glide_emodel>
-35.8072791923569

> <r_i_glide_energy>
-32.6184368133545

> <r_i_glide_einternal>
10.3301668167114

> <i_i_glide_confnum>
1

> <i_i_glide_posenum>
37

> <r_i_glide_eff_state_penalty>
0

> <s_user_duplicate_titles>
CHEMBL1862_lig459

> <s_m_subgroup_title>
dock_pv

> <s_m_subgroupid>
dock_pv

> <b_m_subgroup_collapsed>
0

$$$$
CHEMBL1862_lig629
                    3D
 Schrodinger Suite 2021-1.
 39 41  0  0  1  0            999 V2000
   22.1261   16.0040    5.6682 C   0  0  0  0  0  0
   22.5658   17.2880    5.3571 C   0  0  0  0  0  0
   21.6590   18.2842    5.0122 C   0  0  0  0  0  0
   20.2976   17.9941    4.9858 C   0  0  0  0  0  0
   19.8441   16.7025    5.2866 C   0  0  0  0  0  0
   20.7662   15.7100    5.6402 C   0  0  0  0  0  0
   18.3733   16.4511    5.3754 C   0  0  0  0  0  0
   17.7084   15.3265    4.6233 C   0  0  0  0  0  0
   17.6866   17.2622    6.0017 O   0  0  0  0  0  0
   18.4423   14.4042    3.8564 C   0  0  0  0  0  0
   17.8280   13.3543    3.1716 C   0  0  0  0  0  0
   16.3041   15.2330    4.6809 C   0  0  0  0  0  0
   15.6955   14.2109    3.9540 C   0  0  0  0  0  0
   16.4323   13.2659    3.2025 C   0  0  0  0  0  0
   15.6029   12.3581    2.5958 N   0  0  0  0  0  0
   14.3958   12.7258    2.9468 C   0  0  0  0  0  0
   14.3907   13.8303    3.7691 N   0  0  0  0  0  0
   13.2598   12.0330    2.5707 N   0  0  0  0  0  0
   11.9818   12.3918    2.8030 C   0  0  0  0  0  0
   11.6410   13.3993    3.4276 O   0  0  0  0  0  0
   10.9058   11.4234    2.3005 C   0  0  0  0  0  0
    9.9883   12.0328    1.2293 C   0  0  0  0  0  0
    9.0951   11.0077    0.7262 N   0  0  0  0  0  0
   22.8376   15.2412    5.9478 H   0  0  0  0  0  0
   23.6217   17.5159    5.3929 H   0  0  0  0  0  0
   22.0128   19.2791    4.7815 H   0  0  0  0  0  0
   19.5956   18.7789    4.7393 H   0  0  0  0  0  0
   20.4389   14.7181    5.9204 H   0  0  0  0  0  0
   19.5158   14.4822    3.7627 H   0  0  0  0  0  0
   18.4151   12.6522    2.5967 H   0  0  0  0  0  0
   15.7073   15.9293    5.2545 H   0  0  0  0  0  0
   13.5361   14.2283    4.1350 H   0  0  0  0  0  0
   13.4154   11.1444    2.1005 H   0  0  0  0  0  0
   10.2964   11.1450    3.1591 H   0  0  0  0  0  0
   11.3639   10.5025    1.9309 H   0  0  0  0  0  0
   10.5651   12.4317    0.3928 H   0  0  0  0  0  0
    9.3995   12.8538    1.6438 H   0  0  0  0  0  0
    8.5798   10.5754    1.4828 H   0  0  0  0  0  0
    8.4147   11.3971    0.0908 H   0  0  0  0  0  0
  1  6  1  0  0  0
  1  2  2  0  0  0
  1 24  1  0  0  0
  2  3  1  0  0  0
  2 25  1  0  0  0
  3  4  2  0  0  0
  3 26  1  0  0  0
  4  5  1  0  0  0
  4 27  1  0  0  0
  5  6  2  0  0  0
  5  7  1  0  0  0
  6 28  1  0  0  0
  7  8  1  0  0  0
  7  9  2  0  0  0
  8 12  1  0  0  0
  8 10  2  0  0  0
 10 11  1  0  0  0
 10 29  1  0  0  0
 11 14  2  0  0  0
 11 30  1  0  0  0
 12 13  2  0  0  0
 12 31  1  0  0  0
 13 14  1  0  0  0
 13 17  1  0  0  0
 14 15  1  0  0  0
 15 16  2  0  0  0
 16 17  1  0  0  0
 16 18  1  0  0  0
 17 32  1  0  0  0
 18 19  1  0  0  0
 18 33  1  0  0  0
 19 20  2  0  0  0
 19 21  1  0  0  0
 21 22  1  0  0  0
 21 34  1  0  0  0
 21 35  1  0  0  0
 22 23  1  0  0  0
 22 36  1  0  0  0
 22 37  1  0  0  0
 23 38  1  0  0  0
 23 39  1  0  0  0
M  END
> <s_m_entry_id>
6212

> <s_m_entry_name>
dock_pv.138

> <s_m_Source_Path>
/home/csk/Desktop/cluster/DUD-E-result/abl1

> <s_m_Source_File>
dock_pv.maegz

> <i_m_Source_File_Index>
138

> <chembl_id>
CHEMBL2059166

> <chembl_pref_name>
None

> <i_lp_mmshare_version>
53161

> <i_f3d_flags>
0

> <r_lp_tautomer_probability>
1

> <s_lp_Force_Field>
OPLS_2005

> <r_lp_Energy>
23.234922

> <b_lp_Chiralities_Consistent>
1

> <s_lp_Variant>
CHEMBL1862_lig629-1

> <s_i_glide_gridfile>
glide-grid_2hzi

> <i_i_glide_lignum>
737

> <i_i_glide_rotatable_bonds>
6

> <r_i_docking_score>
-10.1878876876195

> <r_i_glide_ligand_efficiency>
-0.442951638592154

> <r_i_glide_ligand_efficiency_sa>
-1.25969553734678

> <r_i_glide_ligand_efficiency_ln>
-2.46352362152453

> <r_i_glide_gscore>
-10.1878876876195

> <r_i_glide_lipo>
-3.8062158676835

> <r_i_glide_hbond>
-0.430322869312723

> <r_i_glide_metal>
0

> <r_i_glide_rewards>
-3.61088182699506

> <r_i_glide_evdw>
-43.659481048584

> <r_i_glide_ecoul>
-5.59046316146851

> <r_i_glide_erotb>
0.681076403021228

> <r_i_glide_esite>
0

> <r_i_glide_emodel>
-73.0273553484177

> <r_i_glide_energy>
-49.2499442100525

> <r_i_glide_einternal>
9.13932991027832

> <i_i_glide_confnum>
68

> <i_i_glide_posenum>
302

> <r_i_glide_eff_state_penalty>
0

> <s_user_duplicate_titles>
CHEMBL1862_lig629

> <s_m_subgroup_title>
dock_pv

> <s_m_subgroupid>
dock_pv

> <b_m_subgroup_collapsed>
0

$$$$
CHEMBL1862_lig826
                    3D
 Schrodinger Suite 2021-1.
 42 46  0  0  1  0            999 V2000
   13.9130   12.5031    2.8103 C   0  0  0  0  0  0
   14.4891   14.7684    4.4030 C   0  0  0  0  0  0
   15.5632   14.0330    3.8235 C   0  0  0  0  0  0
   15.2561   12.8771    3.0313 C   0  0  0  0  0  0
   16.2255   12.0852    2.5034 N   0  0  0  0  0  0
   17.5013   12.4330    2.7752 C   0  0  0  0  0  0
   17.9194   13.5019    3.4743 N   0  0  0  0  0  0
   16.9606   14.3012    4.0030 C   0  0  0  0  0  0
   17.4329   15.3516    4.8099 N   0  0  0  0  0  0
   18.7364   15.4627    5.3243 C   0  0  0  0  0  0
   19.6065   16.4280    4.8329 C   0  0  0  0  0  0
   20.9130   16.5018    5.3296 C   0  0  0  0  0  0
   21.3640   15.6062    6.2945 C   0  0  0  0  0  0
   20.4937   14.6714    6.8030 C   0  0  0  0  0  0
   19.1944   14.6004    6.3230 C   0  0  0  0  0  0
   12.8899   13.2332    3.3954 C   0  0  0  0  0  0
   13.1758   14.3394    4.2070 C   0  0  0  0  0  0
   12.1681   15.0672    4.8030 O   0  0  0  0  0  0
   10.9551   14.3261    4.9800 C   0  0  0  0  0  0
   10.5628   13.6330    3.6596 C   0  0  0  0  0  0
   11.6052   12.7645    3.2030 O   0  0  0  0  0  0
   21.7856   17.5996    4.9370 C   0  0  0  0  0  0
   21.6775   18.4786    3.8809 C   0  0  0  0  0  0
   22.5640   19.5155    4.1315 C   0  0  0  0  0  0
   23.3495   19.1433    5.2030 C   0  0  0  0  0  0
   22.8705   17.9740    5.6858 N   0  0  0  0  0  0
   13.6864   11.6330    2.2113 H   0  0  0  0  0  0
   14.6875   15.6314    5.0211 H   0  0  0  0  0  0
   18.2678   11.7745    2.4030 H   0  0  0  0  0  0
   16.7332   15.9340    5.2419 H   0  0  0  0  0  0
   19.2601   17.1223    4.0823 H   0  0  0  0  0  0
   22.3688   15.6490    6.6896 H   0  0  0  0  0  0
   20.8332   14.0330    7.5912 H   0  0  0  0  0  0
   18.5640   13.8602    6.7512 H   0  0  0  0  0  0
   11.0987   13.5720    5.7565 H   0  0  0  0  0  0
   10.1640   14.9959    5.3136 H   0  0  0  0  0  0
    9.6512   13.0497    3.7924 H   0  0  0  0  0  0
   10.3563   14.3923    2.9050 H   0  0  0  0  0  0
   20.9475   18.4330    3.0874 H   0  0  0  0  0  0
   22.6611   20.4330    3.5783 H   0  0  0  0  0  0
   24.1640   19.6330    5.6903 H   0  0  0  0  0  0
   23.2073   17.4992    6.5114 H   0  0  0  0  0  0
  1 16  1  0  0  0
  1  4  2  0  0  0
  1 27  1  0  0  0
  2  3  2  0  0  0
  2 17  1  0  0  0
  2 28  1  0  0  0
  3  4  1  0  0  0
  3  8  1  0  0  0
  4  5  1  0  0  0
  5  6  2  0  0  0
  6  7  1  0  0  0
  6 29  1  0  0  0
  7  8  2  0  0  0
  8  9  1  0  0  0
  9 10  1  0  0  0
  9 30  1  0  0  0
 10 11  2  0  0  0
 10 15  1  0  0  0
 11 12  1  0  0  0
 11 31  1  0  0  0
 12 13  2  0  0  0
 12 22  1  0  0  0
 13 14  1  0  0  0
 13 32  1  0  0  0
 14 15  2  0  0  0
 14 33  1  0  0  0
 15 34  1  0  0  0
 16 17  2  0  0  0
 16 21  1  0  0  0
 17 18  1  0  0  0
 18 19  1  0  0  0
 19 20  1  0  0  0
 19 35  1  0  0  0
 19 36  1  0  0  0
 20 21  1  0  0  0
 20 37  1  0  0  0
 20 38  1  0  0  0
 22 23  2  0  0  0
 22 26  1  0  0  0
 23 24  1  0  0  0
 23 39  1  0  0  0
 24 25  2  0  0  0
 24 40  1  0  0  0
 25 26  1  0  0  0
 25 41  1  0  0  0
 26 42  1  0  0  0
M  END
> <s_m_entry_id>
6213

> <s_m_entry_name>
dock_pv.139

> <s_m_Source_Path>
/home/csk/Desktop/cluster/DUD-E-result/abl1

> <s_m_Source_File>
dock_pv.maegz

> <i_m_Source_File_Index>
139

> <chembl_id>
CHEMBL3297959

> <chembl_pref_name>
None

> <i_lp_mmshare_version>
53161

> <i_f3d_flags>
0

> <r_lp_tautomer_probability>
0.999978000241998

> <s_lp_Force_Field>
OPLS_2005

> <r_lp_Energy>
18.432626

> <b_lp_Chiralities_Consistent>
1

> <s_lp_Variant>
CHEMBL1862_lig826-1

> <s_i_glide_gridfile>
glide-grid_2hzi

> <i_i_glide_lignum>
964

> <i_i_glide_rotatable_bonds>
3

> <r_i_docking_score>
-10.1427553255401

> <r_i_glide_ligand_efficiency>
-0.390105974059236

> <r_i_glide_ligand_efficiency_sa>
-1.1556874131576

> <r_i_glide_ligand_efficiency_ln>
-2.38199280710835

> <r_i_glide_gscore>
-10.1427553255401

> <r_i_glide_lipo>
-5.12515130328564

> <r_i_glide_hbond>
-0.32

> <r_i_glide_metal>
0

> <r_i_glide_rewards>
-2.80616674200614

> <r_i_glide_evdw>
-41.2327003479004

> <r_i_glide_ecoul>
-2.06743860244751

> <r_i_glide_erotb>
0.480313527513786

> <r_i_glide_esite>
0

> <r_i_glide_emodel>
-55.2844444948677

> <r_i_glide_energy>
-43.3001389503479

> <r_i_glide_einternal>
5.18830347061157

> <i_i_glide_confnum>
11

> <i_i_glide_posenum>
96

> <r_i_glide_eff_state_penalty>
0

> <s_user_duplicate_titles>
CHEMBL1862_lig826

> <s_m_subgroup_title>
dock_pv

> <s_m_subgroupid>
dock_pv

> <b_m_subgroup_collapsed>
0

$$$$
CHEMBL1862_lig499
                    3D
 Schrodinger Suite 2021-1.
 35 37  0  0  1  0            999 V2000
   16.5640   12.0329    2.3283 N   0  0  0  0  0  0
   15.2205   12.1593    2.4132 C   0  0  0  0  0  0
   14.5389   13.0897    3.1114 N   0  0  0  0  0  0
   17.3220   12.9560    2.9468 C   0  0  0  0  0  0
   16.7476   13.9800    3.6966 C   0  0  0  0  0  0
   15.3387   13.9547    3.7443 C   0  0  0  0  0  0
   14.9900   14.9783    4.5858 N   0  0  0  0  0  0
   16.0813   15.6412    5.0319 N   0  0  0  0  0  0
   17.1408   15.0973    4.4963 C   0  0  0  0  0  0
   18.4980   15.6022    4.8198 C   0  0  0  0  0  0
   19.3312   14.8299    5.6289 C   0  0  0  0  0  0
   20.5918   15.2960    5.9920 C   0  0  0  0  0  0
   21.0398   16.5382    5.5346 C   0  0  0  0  0  0
   20.2101   17.3166    4.7252 C   0  0  0  0  0  0
   18.9392   16.8534    4.3743 C   0  0  0  0  0  0
   18.6838   12.8335    2.8032 N   0  0  0  0  0  0
   13.6832   15.4910    4.9423 C   0  0  0  0  0  0
   12.5064   14.5193    4.7033 C   0  0  0  0  0  0
   13.5054   16.8354    4.2410 C   0  0  0  0  0  0
   22.2808   17.0034    5.8855 O   0  0  0  0  0  0
   21.3638   14.5419    6.8012 F   0  0  0  0  0  0
   14.6233   11.4443    1.8659 H   0  0  0  0  0  0
   18.9939   13.8706    5.9939 H   0  0  0  0  0  0
   20.5498   18.2799    4.3739 H   0  0  0  0  0  0
   18.2971   17.4649    3.7567 H   0  0  0  0  0  0
   19.2895   13.5508    3.1745 H   0  0  0  0  0  0
   19.0375   12.1136    2.1734 H   0  0  0  0  0  0
   13.7647   15.6330    6.0029 H   0  0  0  0  0  0
   11.5822   14.9099    5.1282 H   0  0  0  0  0  0
   12.3191   14.3571    3.6418 H   0  0  0  0  0  0
   12.6871   13.5502    5.1701 H   0  0  0  0  0  0
   12.4841   17.2033    4.2912 H   0  0  0  0  0  0
   14.1642   17.6020    4.6489 H   0  0  0  0  0  0
   13.7647   16.7327    3.2031 H   0  0  0  0  0  0
   22.7977   16.3591    6.3785 H   0  0  0  0  0  0
  1  2  2  0  0  0
  1  4  1  0  0  0
  2  3  1  0  0  0
  2 22  1  0  0  0
  3  6  2  0  0  0
  4  5  2  0  0  0
  4 16  1  0  0  0
  5  6  1  0  0  0
  5  9  1  0  0  0
  6  7  1  0  0  0
  7 17  1  0  0  0
  7  8  1  0  0  0
  8  9  2  0  0  0
  9 10  1  0  0  0
 10 11  2  0  0  0
 10 15  1  0  0  0
 11 12  1  0  0  0
 11 23  1  0  0  0
 12 13  2  0  0  0
 12 21  1  0  0  0
 13 14  1  0  0  0
 13 20  1  0  0  0
 14 15  2  0  0  0
 14 24  1  0  0  0
 15 25  1  0  0  0
 16 26  1  0  0  0
 16 27  1  0  0  0
 17 18  1  0  0  0
 17 19  1  0  0  0
 17 28  1  0  0  0
 18 29  1  0  0  0
 18 30  1  0  0  0
 18 31  1  0  0  0
 19 32  1  0  0  0
 19 33  1  0  0  0
 19 34  1  0  0  0
 20 35  1  0  0  0
M  END
> <s_m_entry_id>
6214

> <s_m_entry_name>
dock_pv.140

> <s_m_Source_Path>
/home/csk/Desktop/cluster/DUD-E-result/abl1

> <s_m_Source_File>
dock_pv.maegz

> <i_m_Source_File_Index>
140

> <chembl_id>
CHEMBL1241945

> <chembl_pref_name>
None

> <i_lp_mmshare_version>
53161

> <i_f3d_flags>
0

> <r_lp_tautomer_probability>
0.999999999997365

> <s_lp_Force_Field>
OPLS_2005

> <r_lp_Energy>
11.860464

> <b_lp_Chiralities_Consistent>
1

> <s_lp_Variant>
CHEMBL1862_lig499-1

> <s_i_glide_gridfile>
glide-grid_2hzi

> <i_i_glide_lignum>
593

> <i_i_glide_rotatable_bonds>
3

> <r_i_docking_score>
-10.1412144427669

> <r_i_glide_ligand_efficiency>
-0.482914973465091

> <r_i_glide_ligand_efficiency_sa>
-1.33232579407719

> <r_i_glide_ligand_efficiency_ln>
-2.50739477872082

> <r_i_glide_gscore>
-10.1412144427669

> <r_i_glide_lipo>
-3.04143639573124

> <r_i_glide_hbond>
-0.608

> <r_i_glide_metal>
0

> <r_i_glide_rewards>
-4.07095448324101

> <r_i_glide_evdw>
-27.0939254760742

> <r_i_glide_ecoul>
-8.35751342773438

> <r_i_glide_erotb>
0.220192911013604

> <r_i_glide_esite>
-0.0326931868443972

> <r_i_glide_emodel>
-43.6877764682796

> <r_i_glide_energy>
-35.4514389038086

> <r_i_glide_einternal>
6.61867332458496

> <i_i_glide_confnum>
2

> <i_i_glide_posenum>
340

> <r_i_glide_eff_state_penalty>
0

> <s_user_duplicate_titles>
CHEMBL1862_lig499

> <s_m_subgroup_title>
dock_pv

> <s_m_subgroupid>
dock_pv

> <b_m_subgroup_collapsed>
0

$$$$
CHEMBL1862_lig479
                    3D
 Schrodinger Suite 2021-1.
 38 40  0  0  1  0            999 V2000
   15.9099   12.1401    2.0459 N   0  0  0  0  0  0
   14.5635   12.0330    2.0030 C   0  0  0  0  0  0
   13.6468   12.6430    2.7841 N   0  0  0  0  0  0
   16.4189   13.0296    2.9213 C   0  0  0  0  0  0
   15.5687   13.8543    3.6852 C   0  0  0  0  0  0
   14.1868   13.5553    3.5903 C   0  0  0  0  0  0
   13.5383   14.3889    4.4764 N   0  0  0  0  0  0
   14.4303   15.2094    5.0711 N   0  0  0  0  0  0
   15.6317   14.9648    4.5855 C   0  0  0  0  0  0
   16.7966   15.8380    4.9305 C   0  0  0  0  0  0
   17.8813   16.0059    4.0550 C   0  0  0  0  0  0
   18.9114   16.9117    4.3382 C   0  0  0  0  0  0
   18.8412   17.6590    5.5141 C   0  0  0  0  0  0
   17.7639   17.5067    6.3857 C   0  0  0  0  0  0
   16.7662   16.5805    6.1127 C   0  0  0  0  0  0
   17.8019   13.0247    3.0515 N   0  0  0  0  0  0
   12.1235   14.4425    4.8863 C   0  0  0  0  0  0
   11.9204   13.6329    6.1812 C   0  0  0  0  0  0
   11.1458   13.9892    3.7830 C   0  0  0  0  0  0
   20.1024   17.1109    3.4015 C   0  0  0  0  0  0
   19.8444   16.8330    2.0387 O   0  0  0  0  0  0
   14.1721   11.3286    1.2814 H   0  0  0  0  0  0
   17.8932   15.4986    3.1056 H   0  0  0  0  0  0
   19.6145   18.3764    5.7486 H   0  0  0  0  0  0
   17.7155   18.1203    7.2687 H   0  0  0  0  0  0
   15.9410   16.4780    6.8033 H   0  0  0  0  0  0
   18.2393   13.6260    3.7333 H   0  0  0  0  0  0
   18.3436   12.3916    2.4781 H   0  0  0  0  0  0
   11.9045   15.4915    5.0859 H   0  0  0  0  0  0
   10.8892   13.6887    6.5314 H   0  0  0  0  0  0
   12.1640   12.5830    6.0462 H   0  0  0  0  0  0
   12.5558   14.0169    6.9779 H   0  0  0  0  0  0
   10.1220   14.2735    4.0271 H   0  0  0  0  0  0
   11.3926   14.4303    2.8194 H   0  0  0  0  0  0
   11.1524   12.9061    3.6536 H   0  0  0  0  0  0
   20.4176   18.1539    3.4442 H   0  0  0  0  0  0
   20.9453   16.5119    3.7490 H   0  0  0  0  0  0
   20.2017   15.9576    1.8317 H   0  0  0  0  0  0
  1  2  2  0  0  0
  1  4  1  0  0  0
  2  3  1  0  0  0
  2 22  1  0  0  0
  3  6  2  0  0  0
  4  5  2  0  0  0
  4 16  1  0  0  0
  5  6  1  0  0  0
  5  9  1  0  0  0
  6  7  1  0  0  0
  7 17  1  0  0  0
  7  8  1  0  0  0
  8  9  2  0  0  0
  9 10  1  0  0  0
 10 11  2  0  0  0
 10 15  1  0  0  0
 11 12  1  0  0  0
 11 23  1  0  0  0
 12 13  2  0  0  0
 12 20  1  0  0  0
 13 14  1  0  0  0
 13 24  1  0  0  0
 14 15  2  0  0  0
 14 25  1  0  0  0
 15 26  1  0  0  0
 16 27  1  0  0  0
 16 28  1  0  0  0
 17 18  1  0  0  0
 17 19  1  0  0  0
 17 29  1  0  0  0
 18 30  1  0  0  0
 18 31  1  0  0  0
 18 32  1  0  0  0
 19 33  1  0  0  0
 19 34  1  0  0  0
 19 35  1  0  0  0
 20 21  1  0  0  0
 20 36  1  0  0  0
 20 37  1  0  0  0
 21 38  1  0  0  0
M  END
> <s_m_entry_id>
6215

> <s_m_entry_name>
dock_pv.141

> <s_m_Source_Path>
/home/csk/Desktop/cluster/DUD-E-result/abl1

> <s_m_Source_File>
dock_pv.maegz

> <i_m_Source_File_Index>
141

> <chembl_id>
CHEMBL1241582

> <chembl_pref_name>
None

> <i_lp_mmshare_version>
53161

> <i_f3d_flags>
0

> <r_lp_tautomer_probability>
1

> <s_lp_Force_Field>
OPLS_2005

> <r_lp_Energy>
14.033506

> <b_lp_Chiralities_Consistent>
1

> <s_lp_Variant>
CHEMBL1862_lig479-1

> <s_i_glide_gridfile>
glide-grid_2hzi

> <i_i_glide_lignum>
569

> <i_i_glide_rotatable_bonds>
4

> <r_i_docking_score>
-10.1381380445324

> <r_i_glide_ligand_efficiency>
-0.482768478311065

> <r_i_glide_ligand_efficiency_sa>
-1.33192162505543

> <r_i_glide_ligand_efficiency_ln>
-2.50663414547377

> <r_i_glide_gscore>
-10.1381380445324

> <r_i_glide_lipo>
-3.31618047127492

> <r_i_glide_hbond>
-0.698655867277187

> <r_i_glide_metal>
0

> <r_i_glide_rewards>
-3.93135309581465

> <r_i_glide_evdw>
-26.7425632476807

> <r_i_glide_ecoul>
-7.80423784255981

> <r_i_glide_erotb>
0.31581522860241

> <r_i_glide_esite>
0

> <r_i_glide_emodel>
-44.1054761626682

> <r_i_glide_energy>
-34.5468010902405

> <r_i_glide_einternal>
3.52293395996094

> <i_i_glide_confnum>
8

> <i_i_glide_posenum>
364

> <r_i_glide_eff_state_penalty>
0

> <s_user_duplicate_titles>
CHEMBL1862_lig479

> <s_m_subgroup_title>
dock_pv

> <s_m_subgroupid>
dock_pv

> <b_m_subgroup_collapsed>
0

$$$$
CHEMBL1862_lig516
                    3D
 Schrodinger Suite 2021-1.
 39 42  0  0  1  0            999 V2000
   16.6860   12.0330    2.0375 N   0  0  0  0  0  0
   15.3334   12.0378    2.0827 C   0  0  0  0  0  0
   14.5581   12.8685    2.8030 N   0  0  0  0  0  0
   17.3582   12.9060    2.8030 C   0  0  0  0  0  0
   16.6819   13.8701    3.5201 C   0  0  0  0  0  0
   15.2871   13.7652    3.4753 C   0  0  0  0  0  0
   14.8418   14.8109    4.2136 N   0  0  0  0  0  0
   15.8587   15.4889    4.8030 N   0  0  0  0  0  0
   16.9676   15.0097    4.3090 C   0  0  0  0  0  0
   18.2945   15.6100    4.5536 C   0  0  0  0  0  0
   18.9917   16.2061    3.5003 C   0  0  0  0  0  0
   20.1341   16.0330    6.0474 N   0  0  0  0  0  0
   18.8750   15.6141    5.8180 C   0  0  0  0  0  0
   18.7309   12.8330    2.8030 N   0  0  0  0  0  0
   20.7720   16.7186    5.0772 C   0  0  0  0  0  0
   20.2249   16.8465    3.7669 C   0  0  0  0  0  0
   20.9075   17.6330    2.8175 C   0  0  0  0  0  0
   22.0490   18.3304    3.2029 C   0  0  0  0  0  0
   22.5686   18.2169    4.4885 C   0  0  0  0  0  0
   21.9647   17.3869    5.4195 C   0  0  0  0  0  0
   13.4663   15.2100    4.3198 C   0  0  0  0  0  0
   13.4267   16.7477    4.2587 C   0  0  0  0  0  0
   12.8294   14.4340    5.4797 C   0  0  0  0  0  0
   17.9405   15.2330    7.2030 Cl  0  0  0  0  0  0
   14.8146   11.3067    1.4786 H   0  0  0  0  0  0
   18.5652   16.2637    2.5100 H   0  0  0  0  0  0
   19.2736   13.5277    3.2945 H   0  0  0  0  0  0
   19.1646   12.1515    2.1795 H   0  0  0  0  0  0
   20.5148   17.7307    1.8151 H   0  0  0  0  0  0
   22.5426   18.9589    2.4832 H   0  0  0  0  0  0
   23.4520   18.7686    4.7765 H   0  0  0  0  0  0
   22.3700   17.2952    6.4178 H   0  0  0  0  0  0
   12.9640   14.8330    3.4267 H   0  0  0  0  0  0
   12.4219   17.1386    4.4030 H   0  0  0  0  0  0
   14.1640   17.2393    4.9048 H   0  0  0  0  0  0
   13.7640   17.0521    3.2722 H   0  0  0  0  0  0
   11.7756   14.6730    5.5977 H   0  0  0  0  0  0
   12.8789   13.3591    5.3000 H   0  0  0  0  0  0
   13.3640   14.6228    6.4030 H   0  0  0  0  0  0
  1  2  2  0  0  0
  1  4  1  0  0  0
  2  3  1  0  0  0
  2 25  1  0  0  0
  3  6  2  0  0  0
  4 14  1  0  0  0
  4  5  2  0  0  0
  5  9  1  0  0  0
  5  6  1  0  0  0
  6  7  1  0  0  0
  7  8  1  0  0  0
  7 21  1  0  0  0
  8  9  2  0  0  0
  9 10  1  0  0  0
 10 13  1  0  0  0
 10 11  2  0  0  0
 11 16  1  0  0  0
 11 26  1  0  0  0
 12 15  1  0  0  0
 12 13  2  0  0  0
 13 24  1  0  0  0
 14 27  1  0  0  0
 14 28  1  0  0  0
 15 16  1  0  0  0
 15 20  2  0  0  0
 16 17  2  0  0  0
 17 18  1  0  0  0
 17 29  1  0  0  0
 18 19  2  0  0  0
 18 30  1  0  0  0
 19 20  1  0  0  0
 19 31  1  0  0  0
 20 32  1  0  0  0
 21 22  1  0  0  0
 21 23  1  0  0  0
 21 33  1  0  0  0
 22 34  1  0  0  0
 22 35  1  0  0  0
 22 36  1  0  0  0
 23 37  1  0  0  0
 23 38  1  0  0  0
 23 39  1  0  0  0
M  END
> <s_m_entry_id>
6216

> <s_m_entry_name>
dock_pv.142

> <s_m_Source_Path>
/home/csk/Desktop/cluster/DUD-E-result/abl1

> <s_m_Source_File>
dock_pv.maegz

> <i_m_Source_File_Index>
142

> <chembl_id>
CHEMBL1242663

> <chembl_pref_name>
None

> <i_lp_mmshare_version>
53161

> <i_f3d_flags>
0

> <r_lp_tautomer_probability>
1

> <s_lp_Force_Field>
OPLS_2005

> <r_lp_Energy>
29.661447

> <b_lp_Chiralities_Consistent>
1

> <s_lp_Variant>
CHEMBL1862_lig516-1

> <s_i_glide_gridfile>
glide-grid_2hzi

> <i_i_glide_lignum>
613

> <i_i_glide_rotatable_bonds>
2

> <r_i_docking_score>
-10.1367488237185

> <r_i_glide_ligand_efficiency>
-0.422364534321604

> <r_i_glide_ligand_efficiency_sa>
-1.21831013498623

> <r_i_glide_ligand_efficiency_ln>
-2.4261891386101

> <r_i_glide_gscore>
-10.1367488237185

> <r_i_glide_lipo>
-3.91898097282133

> <r_i_glide_hbond>
-0.608

> <r_i_glide_metal>
0

> <r_i_glide_rewards>
-3.72669365639947

> <r_i_glide_evdw>
-18.5860366821289

> <r_i_glide_ecoul>
-7.12757158279419

> <r_i_glide_erotb>
0.115363377027878

> <r_i_glide_esite>
0

> <r_i_glide_emodel>
-48.8354824087775

> <r_i_glide_energy>
-25.7136082649231

> <r_i_glide_einternal>
3.87657999992371

> <i_i_glide_confnum>
1

> <i_i_glide_posenum>
66

> <r_i_glide_eff_state_penalty>
0

> <s_user_duplicate_titles>
CHEMBL1862_lig516

> <s_m_subgroup_title>
dock_pv

> <s_m_subgroupid>
dock_pv

> <b_m_subgroup_collapsed>
0

$$$$
CHEMBL1862_lig553
                    3D
 Schrodinger Suite 2021-1.
 38 41  0  0  1  0            999 V2000
   15.7727   12.0336    2.0207 N   0  0  0  0  0  0
   14.4243   12.0331    2.0026 C   0  0  0  0  0  0
   13.5654   12.6882    2.8039 N   0  0  0  0  0  0
   16.3614   12.8707    2.8956 C   0  0  0  0  0  0
   15.5801   13.7516    3.6762 C   0  0  0  0  0  0
   14.1812   13.5373    3.6192 C   0  0  0  0  0  0
   13.6093   14.3563    4.5687 N   0  0  0  0  0  0
   14.5660   15.1514    5.1195 N   0  0  0  0  0  0
   15.7320   14.8729    4.5572 C   0  0  0  0  0  0
   16.9641   15.7076    4.7793 C   0  0  0  0  0  0
   18.0128   15.7101    3.8355 C   0  0  0  0  0  0
   18.1459   17.4511    6.0030 C   0  0  0  0  0  0
   17.0513   16.5878    5.8697 C   0  0  0  0  0  0
   17.7427   12.7476    3.0130 N   0  0  0  0  0  0
   12.2004   14.4504    5.0203 C   0  0  0  0  0  0
   11.9626   13.6420    6.3144 C   0  0  0  0  0  0
   11.1689   14.0126    3.9618 C   0  0  0  0  0  0
   19.1849   17.3691    5.0939 C   0  0  0  0  0  0
   19.1238   16.5225    4.0336 C   0  0  0  0  0  0
   20.2853   16.7119    3.3197 N   0  0  0  0  0  0
   21.0726   17.6351    3.9138 C   0  0  0  0  0  0
   20.3797   18.0331    4.9965 N   0  0  0  0  0  0
   22.1764   18.0337    3.5669 O   0  0  0  0  0  0
   13.9777   11.3812    1.2625 H   0  0  0  0  0  0
   17.9509   15.1431    2.9244 H   0  0  0  0  0  0
   18.1628   18.1705    6.8047 H   0  0  0  0  0  0
   16.2497   16.6445    6.5884 H   0  0  0  0  0  0
   18.2335   13.3132    3.6931 H   0  0  0  0  0  0
   18.2380   12.0816    2.4323 H   0  0  0  0  0  0
   12.0198   15.5105    5.1940 H   0  0  0  0  0  0
   10.9234   13.7247    6.6400 H   0  0  0  0  0  0
   12.1632   12.5828    6.1923 H   0  0  0  0  0  0
   12.5640   14.0328    7.1324 H   0  0  0  0  0  0
   10.1611   14.3279    4.2411 H   0  0  0  0  0  0
   11.3860   14.4322    2.9900 H   0  0  0  0  0  0
   11.1416   12.9275    3.8443 H   0  0  0  0  0  0
   20.5636   16.1879    2.5009 H   0  0  0  0  0  0
   20.7348   18.7078    5.6557 H   0  0  0  0  0  0
  1  2  2  0  0  0
  1  4  1  0  0  0
  2  3  1  0  0  0
  2 24  1  0  0  0
  3  6  2  0  0  0
  4 14  1  0  0  0
  4  5  2  0  0  0
  5  9  1  0  0  0
  5  6  1  0  0  0
  6  7  1  0  0  0
  7 15  1  0  0  0
  7  8  1  0  0  0
  8  9  2  0  0  0
  9 10  1  0  0  0
 10 13  1  0  0  0
 10 11  2  0  0  0
 11 19  1  0  0  0
 11 25  1  0  0  0
 12 18  1  0  0  0
 12 13  2  0  0  0
 12 26  1  0  0  0
 13 27  1  0  0  0
 14 28  1  0  0  0
 14 29  1  0  0  0
 15 16  1  0  0  0
 15 17  1  0  0  0
 15 30  1  0  0  0
 16 31  1  0  0  0
 16 32  1  0  0  0
 16 33  1  0  0  0
 17 34  1  0  0  0
 17 35  1  0  0  0
 17 36  1  0  0  0
 18 19  2  0  0  0
 18 22  1  0  0  0
 19 20  1  0  0  0
 20 21  1  0  0  0
 20 37  1  0  0  0
 21 22  1  0  0  0
 21 23  2  0  0  0
 22 38  1  0  0  0
M  END
> <s_m_entry_id>
6217

> <s_m_entry_name>
dock_pv.143

> <s_m_Source_Path>
/home/csk/Desktop/cluster/DUD-E-result/abl1

> <s_m_Source_File>
dock_pv.maegz

> <i_m_Source_File_Index>
143

> <chembl_id>
CHEMBL1241586

> <chembl_pref_name>
None

> <i_lp_mmshare_version>
53161

> <i_f3d_flags>
0

> <r_lp_tautomer_probability>
1

> <s_lp_Force_Field>
OPLS_2005

> <r_lp_Energy>
38.256623

> <b_lp_Chiralities_Consistent>
1

> <s_lp_Variant>
CHEMBL1862_lig553-1

> <s_i_glide_gridfile>
glide-grid_2hzi

> <i_i_glide_lignum>
656

> <i_i_glide_rotatable_bonds>
2

> <r_i_docking_score>
-10.1331118225402

> <r_i_glide_ligand_efficiency>
-0.440570079240878

> <r_i_glide_ligand_efficiency_sa>
-1.25292269935421

> <r_i_glide_ligand_efficiency_ln>
-2.45027832066827

> <r_i_glide_gscore>
-10.1331118225402

> <r_i_glide_lipo>
-3.01530536103684

> <r_i_glide_hbond>
-0.582078618190444

> <r_i_glide_metal>
0

> <r_i_glide_rewards>
-3.99304029832674

> <r_i_glide_evdw>
-35.6708908081055

> <r_i_glide_ecoul>
-5.96395254135132

> <r_i_glide_erotb>
0.135449876621794

> <r_i_glide_esite>
0

> <r_i_glide_emodel>
-53.3099276634366

> <r_i_glide_energy>
-41.6348433494568

> <r_i_glide_einternal>
2.08868885040283

> <i_i_glide_confnum>
3

> <i_i_glide_posenum>
5

> <r_i_glide_eff_state_penalty>
0

> <s_user_duplicate_titles>
CHEMBL1862_lig553

> <s_m_subgroup_title>
dock_pv

> <s_m_subgroupid>
dock_pv

> <b_m_subgroup_collapsed>
0

$$$$
CHEMBL1862_lig473
                    3D
 Schrodinger Suite 2021-1.
 38 40  0  0  1  0            999 V2000
   16.5137   12.0330    2.2665 N   0  0  0  0  0  0
   15.1711   12.1417    2.4025 C   0  0  0  0  0  0
   14.4995   13.0594    3.1295 N   0  0  0  0  0  0
   17.2750   12.9514    2.8937 C   0  0  0  0  0  0
   16.7086   13.9721    3.6441 C   0  0  0  0  0  0
   15.3077   13.9352    3.7376 C   0  0  0  0  0  0
   14.9831   14.9653    4.5836 N   0  0  0  0  0  0
   16.0887   15.6330    5.0022 N   0  0  0  0  0  0
   17.1258   15.0966    4.4126 C   0  0  0  0  0  0
   18.6411   12.8330    2.8030 N   0  0  0  0  0  0
   13.6818   15.4872    4.9455 C   0  0  0  0  0  0
   12.4957   14.5241    4.7155 C   0  0  0  0  0  0
   13.5063   16.8330    4.2484 C   0  0  0  0  0  0
   18.4975   15.6441    4.5591 C   0  0  0  0  0  0
   19.0676   16.3165    3.4780 C   0  0  0  0  0  0
   20.3456   16.8522    3.5891 C   0  0  0  0  0  0
   21.0700   16.7167    4.7717 C   0  0  0  0  0  0
   20.5012   16.0224    5.8513 C   0  0  0  0  0  0
   19.2124   15.4995    5.7485 C   0  0  0  0  0  0
   22.3233   17.2949    4.7835 O   0  0  0  0  0  0
   23.0942   17.2572    5.9762 C   0  0  0  0  0  0
   14.5641   11.4319    1.8594 H   0  0  0  0  0  0
   19.2294   13.5468    3.2084 H   0  0  0  0  0  0
   19.0209   12.1170    2.1851 H   0  0  0  0  0  0
   13.7640   15.6330    6.0030 H   0  0  0  0  0  0
   11.5771   14.9220    5.1456 H   0  0  0  0  0  0
   12.3004   14.3622    3.6553 H   0  0  0  0  0  0
   12.6714   13.5541    5.1828 H   0  0  0  0  0  0
   12.4849   17.1965    4.3361 H   0  0  0  0  0  0
   14.1640   17.5954    4.6650 H   0  0  0  0  0  0
   13.7640   16.7448    3.2030 H   0  0  0  0  0  0
   18.5220   16.4330    2.5535 H   0  0  0  0  0  0
   20.7822   17.3742    2.7501 H   0  0  0  0  0  0
   21.0402   15.8908    6.7767 H   0  0  0  0  0  0
   18.7732   14.9758    6.5854 H   0  0  0  0  0  0
   24.0154   17.8195    5.8245 H   0  0  0  0  0  0
   22.5640   17.7225    6.8030 H   0  0  0  0  0  0
   23.3635   16.2366    6.2522 H   0  0  0  0  0  0
  1  2  2  0  0  0
  1  4  1  0  0  0
  2  3  1  0  0  0
  2 22  1  0  0  0
  3  6  2  0  0  0
  4 10  1  0  0  0
  4  5  2  0  0  0
  5  6  1  0  0  0
  5  9  1  0  0  0
  6  7  1  0  0  0
  7 11  1  0  0  0
  7  8  1  0  0  0
  8  9  2  0  0  0
  9 14  1  0  0  0
 10 23  1  0  0  0
 10 24  1  0  0  0
 11 12  1  0  0  0
 11 13  1  0  0  0
 11 25  1  0  0  0
 12 26  1  0  0  0
 12 27  1  0  0  0
 12 28  1  0  0  0
 13 29  1  0  0  0
 13 30  1  0  0  0
 13 31  1  0  0  0
 14 15  2  0  0  0
 14 19  1  0  0  0
 15 16  1  0  0  0
 15 32  1  0  0  0
 16 17  2  0  0  0
 16 33  1  0  0  0
 17 18  1  0  0  0
 17 20  1  0  0  0
 18 19  2  0  0  0
 18 34  1  0  0  0
 19 35  1  0  0  0
 20 21  1  0  0  0
 21 36  1  0  0  0
 21 37  1  0  0  0
 21 38  1  0  0  0
M  END
> <s_m_entry_id>
6218

> <s_m_entry_name>
dock_pv.144

> <s_m_Source_Path>
/home/csk/Desktop/cluster/DUD-E-result/abl1

> <s_m_Source_File>
dock_pv.maegz

> <i_m_Source_File_Index>
144

> <chembl_id>
CHEMBL1242847

> <chembl_pref_name>
None

> <i_lp_mmshare_version>
53161

> <i_f3d_flags>
0

> <r_lp_tautomer_probability>
1

> <s_lp_Force_Field>
OPLS_2005

> <r_lp_Energy>
15.548574

> <b_lp_Chiralities_Consistent>
1

> <s_lp_Variant>
CHEMBL1862_lig473-1

> <s_i_glide_gridfile>
glide-grid_2hzi

> <i_i_glide_lignum>
562

> <i_i_glide_rotatable_bonds>
3

> <r_i_docking_score>
-10.1263361246221

> <r_i_glide_ligand_efficiency>
-0.482206482124861

> <r_i_glide_ligand_efficiency_sa>
-1.33037112019185

> <r_i_glide_ligand_efficiency_ln>
-2.50371614462398

> <r_i_glide_gscore>
-10.1263361246221

> <r_i_glide_lipo>
-3.01768280340488

> <r_i_glide_hbond>
-0.608

> <r_i_glide_metal>
0

> <r_i_glide_rewards>
-4.12724734928335

> <r_i_glide_evdw>
-28.2506675720215

> <r_i_glide_ecoul>
-7.45853471755981

> <r_i_glide_erotb>
0.157907614301205

> <r_i_glide_esite>
0

> <r_i_glide_emodel>
-44.0443041425725

> <r_i_glide_energy>
-35.7092022895813

> <r_i_glide_einternal>
7.66314506530762

> <i_i_glide_confnum>
3

> <i_i_glide_posenum>
23

> <r_i_glide_eff_state_penalty>
0

> <s_user_duplicate_titles>
CHEMBL1862_lig473

> <s_m_subgroup_title>
dock_pv

> <s_m_subgroupid>
dock_pv

> <b_m_subgroup_collapsed>
0

$$$$
CHEMBL1862_lig907
                    3D
 Schrodinger Suite 2021-1.
 39 41  0  0  1  0            999 V2000
   15.7765   12.1556    2.0291 N   0  0  0  0  0  0
   14.4302   12.0368    2.0053 C   0  0  0  0  0  0
   13.5194   12.6745    2.7822 N   0  0  0  0  0  0
   16.2926   13.0512    2.8956 C   0  0  0  0  0  0
   15.4543   13.8497    3.7005 C   0  0  0  0  0  0
   14.0683   13.5743    3.6033 C   0  0  0  0  0  0
   13.4482   14.3886    4.5342 N   0  0  0  0  0  0
   14.3754   15.1547    5.1654 N   0  0  0  0  0  0
   15.5699   14.8851    4.6844 C   0  0  0  0  0  0
   12.0471   14.4284    5.0122 C   0  0  0  0  0  0
   11.9111   13.6328    6.3268 C   0  0  0  0  0  0
   10.9887   13.9454    3.9954 C   0  0  0  0  0  0
   17.6798   13.0883    2.9743 N   0  0  0  0  0  0
   16.7953   15.5098    5.1579 C   0  0  0  0  0  0
   17.8427   15.8646    4.3868 C   0  0  0  0  0  0
   19.1715   16.2869    4.8589 C   0  0  0  0  0  0
   19.8387   17.3398    4.2231 C   0  0  0  0  0  0
   21.1278   17.7016    4.6192 C   0  0  0  0  0  0
   21.7686   17.0019    5.6409 C   0  0  0  0  0  0
   21.1145   15.9470    6.2769 C   0  0  0  0  0  0
   19.8161   15.6003    5.8970 C   0  0  0  0  0  0
   21.7647   18.7428    4.0036 O   0  0  0  0  0  0
   14.0389   11.3366    1.2805 H   0  0  0  0  0  0
   11.8301   15.4783    5.2026 H   0  0  0  0  0  0
   10.8940   13.6753    6.7180 H   0  0  0  0  0  0
   12.1641   12.5834    6.1968 H   0  0  0  0  0  0
   12.5639   14.0321    7.0998 H   0  0  0  0  0  0
    9.9897   14.0222    4.4263 H   0  0  0  0  0  0
   10.9650   14.5444    3.0905 H   0  0  0  0  0  0
   11.1215   12.9005    3.7156 H   0  0  0  0  0  0
   18.1253   13.7076    3.6346 H   0  0  0  0  0  0
   18.2210   12.4790    2.3746 H   0  0  0  0  0  0
   16.8492   15.6331    6.2305 H   0  0  0  0  0  0
   17.7448   15.7801    3.3131 H   0  0  0  0  0  0
   19.3631   17.8782    3.4158 H   0  0  0  0  0  0
   22.7703   17.2672    5.9471 H   0  0  0  0  0  0
   21.6152   15.4016    7.0632 H   0  0  0  0  0  0
   19.3254   14.7752    6.3922 H   0  0  0  0  0  0
   22.6192   18.9385    4.3938 H   0  0  0  0  0  0
  1  2  2  0  0  0
  1  4  1  0  0  0
  2  3  1  0  0  0
  2 23  1  0  0  0
  3  6  2  0  0  0
  4  5  2  0  0  0
  4 13  1  0  0  0
  5  6  1  0  0  0
  5  9  1  0  0  0
  6  7  1  0  0  0
  7  8  1  0  0  0
  7 10  1  0  0  0
  8  9  2  0  0  0
  9 14  1  0  0  0
 10 11  1  0  0  0
 10 12  1  0  0  0
 10 24  1  0  0  0
 11 25  1  0  0  0
 11 26  1  0  0  0
 11 27  1  0  0  0
 12 28  1  0  0  0
 12 29  1  0  0  0
 12 30  1  0  0  0
 13 31  1  0  0  0
 13 32  1  0  0  0
 14 15  2  0  0  0
 14 33  1  0  0  0
 15 16  1  0  0  0
 15 34  1  0  0  0
 16 17  2  0  0  0
 16 21  1  0  0  0
 17 18  1  0  0  0
 17 35  1  0  0  0
 18 19  2  0  0  0
 18 22  1  0  0  0
 19 20  1  0  0  0
 19 36  1  0  0  0
 20 21  2  0  0  0
 20 37  1  0  0  0
 21 38  1  0  0  0
 22 39  1  0  0  0
M  END
> <s_m_entry_id>
6219

> <s_m_entry_name>
dock_pv.145

> <s_m_Source_Path>
/home/csk/Desktop/cluster/DUD-E-result/abl1

> <s_m_Source_File>
dock_pv.maegz

> <i_m_Source_File_Index>
145

> <chembl_id>
CHEMBL3735312

> <chembl_pref_name>
None

> <i_lp_mmshare_version>
53161

> <i_f3d_flags>
0

> <r_lp_tautomer_probability>
1

> <s_lp_Force_Field>
OPLS_2005

> <r_lp_Energy>
11.951751

> <b_lp_Chiralities_Consistent>
1

> <s_lp_Variant>
CHEMBL1862_lig907-1

> <s_i_glide_gridfile>
glide-grid_2hzi

> <i_i_glide_lignum>
1063

> <i_i_glide_rotatable_bonds>
4

> <r_i_docking_score>
-10.111047900891

> <r_i_glide_ligand_efficiency>
-0.459593086404136

> <r_i_glide_ligand_efficiency_sa>
-1.28779790287481

> <r_i_glide_ligand_efficiency_ln>
-2.471508916411

> <r_i_glide_gscore>
-10.111047900891

> <r_i_glide_lipo>
-3.78006584583407

> <r_i_glide_hbond>
-0.396675656064822

> <r_i_glide_metal>
0

> <r_i_glide_rewards>
-3.8310501903411

> <r_i_glide_evdw>
-35.9246215820312

> <r_i_glide_ecoul>
-4.00528287887573

> <r_i_glide_erotb>
0.293767302281915

> <r_i_glide_esite>
0

> <r_i_glide_emodel>
-59.3530743093599

> <r_i_glide_energy>
-39.929904460907

> <r_i_glide_einternal>
7.61383438110352

> <i_i_glide_confnum>
9

> <i_i_glide_posenum>
285

> <r_i_glide_eff_state_penalty>
0

> <s_user_duplicate_titles>
CHEMBL1862_lig907

> <s_m_subgroup_title>
dock_pv

> <s_m_subgroupid>
dock_pv

> <b_m_subgroup_collapsed>
0

$$$$
CHEMBL1862_lig740
                    3D
 Schrodinger Suite 2021-1.
 43 45  0  0  1  0            999 V2000
   18.6163   15.7027    4.9300 C   0  0  0  0  0  0
   17.5050   16.3169    5.5190 C   0  0  0  0  0  0
   16.2041   15.8819    5.2757 C   0  0  0  0  0  0
   18.4461   14.6104    4.0693 C   0  0  0  0  0  0
   17.1395   14.1675    3.8050 C   0  0  0  0  0  0
   16.0181   14.8043    4.4029 C   0  0  0  0  0  0
   14.8107   14.2733    4.0854 N   0  0  0  0  0  0
   14.9346   13.2438    3.2883 C   0  0  0  0  0  0
   16.5648   12.8328    2.8030 S   0  0  0  0  0  0
   13.9126   12.4330    2.8149 N   0  0  0  0  0  0
   12.5892   12.6314    2.9742 C   0  0  0  0  0  0
   11.8966   11.6329    2.4030 N   0  0  0  0  0  0
   12.0741   13.5920    3.5481 O   0  0  0  0  0  0
   10.5230   11.6346    1.8916 C   0  0  0  0  0  0
    9.4683   12.3701    2.7400 C   0  0  0  0  0  0
   19.9640   16.2742    5.1776 C   0  0  0  0  0  0
   20.2963   17.5495    4.6873 C   0  0  0  0  0  0
   21.5320   18.1260    4.9845 C   0  0  0  0  0  0
   22.4646   17.4282    5.7422 C   0  0  0  0  0  0
   22.1561   16.1546    6.2102 C   0  0  0  0  0  0
   20.9174   15.5747    5.9275 C   0  0  0  0  0  0
   19.4378   18.2536    3.8804 O   0  0  0  0  0  0
   19.2735   17.7655    2.5415 C   0  0  0  0  0  0
   20.5637   17.3178    1.8400 C   0  0  0  0  0  0
   17.6555   17.1635    6.1740 H   0  0  0  0  0  0
   15.3611   16.3688    5.7435 H   0  0  0  0  0  0
   19.2995   14.1408    3.5981 H   0  0  0  0  0  0
   14.1888   11.6058    2.3050 H   0  0  0  0  0  0
   12.3992   10.7651    2.2475 H   0  0  0  0  0  0
   10.2210   10.5907    1.7864 H   0  0  0  0  0  0
   10.5322   12.0339    0.8769 H   0  0  0  0  0  0
    8.4708   12.1953    2.3368 H   0  0  0  0  0  0
    9.6256   13.4488    2.7358 H   0  0  0  0  0  0
    9.4680   12.0316    3.7754 H   0  0  0  0  0  0
   21.7739   19.1090    4.6074 H   0  0  0  0  0  0
   23.4248   17.8709    5.9668 H   0  0  0  0  0  0
   22.8889   15.6336    6.8024 H   0  0  0  0  0  0
   20.6909   14.5894    6.3094 H   0  0  0  0  0  0
   18.5508   16.9516    2.5241 H   0  0  0  0  0  0
   18.8332   18.5677    1.9542 H   0  0  0  0  0  0
   20.3718   17.0530    0.8039 H   0  0  0  0  0  0
   21.3242   18.0985    1.8550 H   0  0  0  0  0  0
   20.9640   16.4329    2.3306 H   0  0  0  0  0  0
  1  2  2  0  0  0
  1  4  1  0  0  0
  1 16  1  0  0  0
  2  3  1  0  0  0
  2 25  1  0  0  0
  3  6  2  0  0  0
  3 26  1  0  0  0
  4  5  2  0  0  0
  4 27  1  0  0  0
  5  6  1  0  0  0
  5  9  1  0  0  0
  6  7  1  0  0  0
  7  8  2  0  0  0
  8  9  1  0  0  0
  8 10  1  0  0  0
 10 11  1  0  0  0
 10 28  1  0  0  0
 11 12  1  0  0  0
 11 13  2  0  0  0
 12 14  1  0  0  0
 12 29  1  0  0  0
 14 15  1  0  0  0
 14 30  1  0  0  0
 14 31  1  0  0  0
 15 32  1  0  0  0
 15 33  1  0  0  0
 15 34  1  0  0  0
 16 17  2  0  0  0
 16 21  1  0  0  0
 17 18  1  0  0  0
 17 22  1  0  0  0
 18 19  2  0  0  0
 18 35  1  0  0  0
 19 20  1  0  0  0
 19 36  1  0  0  0
 20 21  2  0  0  0
 20 37  1  0  0  0
 21 38  1  0  0  0
 22 23  1  0  0  0
 23 24  1  0  0  0
 23 39  1  0  0  0
 23 40  1  0  0  0
 24 41  1  0  0  0
 24 42  1  0  0  0
 24 43  1  0  0  0
M  END
> <s_m_entry_id>
6220

> <s_m_entry_name>
dock_pv.146

> <s_m_Source_Path>
/home/csk/Desktop/cluster/DUD-E-result/abl1

> <s_m_Source_File>
dock_pv.maegz

> <i_m_Source_File_Index>
146

> <chembl_id>
CHEMBL2347711

> <chembl_pref_name>
None

> <i_lp_mmshare_version>
53161

> <i_f3d_flags>
0

> <r_lp_tautomer_probability>
1

> <s_lp_Force_Field>
OPLS_2005

> <r_lp_Energy>
17.574855

> <b_lp_Chiralities_Consistent>
1

> <s_lp_Variant>
CHEMBL1862_lig740-1

> <s_i_glide_gridfile>
glide-grid_2hzi

> <i_i_glide_lignum>
873

> <i_i_glide_rotatable_bonds>
7

> <r_i_docking_score>
-10.0851942767681

> <r_i_glide_ligand_efficiency>
-0.420216428198671

> <r_i_glide_ligand_efficiency_sa>
-1.21211392472724

> <r_i_glide_ligand_efficiency_ln>
-2.41384976984086

> <r_i_glide_gscore>
-10.0851942767681

> <r_i_glide_lipo>
-4.90253218507228

> <r_i_glide_hbond>
-0.459493478731034

> <r_i_glide_metal>
0

> <r_i_glide_rewards>
-2.06400961315087

> <r_i_glide_evdw>
-49.5265312194824

> <r_i_glide_ecoul>
-6.6374568939209

> <r_i_glide_erotb>
0.812786095248346

> <r_i_glide_esite>
0

> <r_i_glide_emodel>
-82.7883709916796

> <r_i_glide_energy>
-56.1639881134033

> <r_i_glide_einternal>
11.2114715576172

> <i_i_glide_confnum>
58

> <i_i_glide_posenum>
334

> <r_i_glide_eff_state_penalty>
0

> <s_user_duplicate_titles>
CHEMBL1862_lig740

> <s_m_subgroup_title>
dock_pv

> <s_m_subgroupid>
dock_pv

> <b_m_subgroup_collapsed>
0

$$$$
CHEMBL1862_lig476
                    3D
 Schrodinger Suite 2021-1.
 50 52  0  0  1  0            999 V2000
   16.5947   12.0330    2.0042 N   0  0  0  0  0  0
   15.2433   12.0332    2.0289 C   0  0  0  0  0  0
   14.4518   12.7850    2.8085 N   0  0  0  0  0  0
   17.2446   12.9057    2.7942 C   0  0  0  0  0  0
   16.5488   13.8621    3.5129 C   0  0  0  0  0  0
   15.1571   13.6724    3.5099 C   0  0  0  0  0  0
   14.6622   14.6403    4.3092 N   0  0  0  0  0  0
   15.6580   15.4217    4.8084 N   0  0  0  0  0  0
   16.7802   15.0757    4.2293 C   0  0  0  0  0  0
   17.9951   15.9592    4.2414 C   0  0  0  0  0  0
   18.1627   16.9622    5.2019 C   0  0  0  0  0  0
   19.3035   17.7829    5.2038 C   0  0  0  0  0  0
   20.3322   17.5142    4.2850 C   0  0  0  0  0  0
   20.1233   16.6026    3.2623 C   0  0  0  0  0  0
   18.9616   15.8506    3.2358 C   0  0  0  0  0  0
   18.6159   12.8328    2.8030 N   0  0  0  0  0  0
   13.2521   14.9664    4.3985 C   0  0  0  0  0  0
   13.1382   16.4731    4.4030 C   0  0  0  0  0  0
   12.5784   14.2031    5.5431 C   0  0  0  0  0  0
   21.5982   18.1080    4.3577 N   0  0  0  0  0  0
   19.4882   18.8333    6.0772 O   0  0  0  0  0  0
   18.3928   19.3861    6.8022 C   0  0  0  0  0  0
   22.3832   17.8993    5.5795 C   0  0  2  0  0  0
   23.7595   18.5280    5.3633 C   0  0  0  0  0  0
   22.5647   16.4115    6.0030 C   0  0  0  0  0  0
   21.3909   15.7751    6.4735 O   0  0  0  0  0  0
   14.7352   11.3347    1.3806 H   0  0  0  0  0  0
   17.3857   17.0932    5.9366 H   0  0  0  0  0  0
   20.8753   16.4339    2.5050 H   0  0  0  0  0  0
   18.8432   15.1860    2.4029 H   0  0  0  0  0  0
   19.1559   13.4763    3.3630 H   0  0  0  0  0  0
   19.0564   12.1493    2.1876 H   0  0  0  0  0  0
   12.7788   14.6153    3.4821 H   0  0  0  0  0  0
   12.1118   16.8165    4.4833 H   0  0  0  0  0  0
   13.7710   16.8330    5.2013 H   0  0  0  0  0  0
   13.6075   16.9190    3.5344 H   0  0  0  0  0  0
   11.5155   14.4344    5.6016 H   0  0  0  0  0  0
   12.6480   13.1276    5.3876 H   0  0  0  0  0  0
   13.0424   14.4328    6.4953 H   0  0  0  0  0  0
   22.1531   18.0139    3.5205 H   0  0  0  0  0  0
   18.7839   20.0263    7.5923 H   0  0  0  0  0  0
   17.7785   20.0235    6.1687 H   0  0  0  0  0  0
   17.7662   18.6450    7.2938 H   0  0  0  0  0  0
   21.9223   18.4380    6.4019 H   0  0  0  0  0  0
   24.3849   18.4334    6.2505 H   0  0  0  0  0  0
   24.2574   18.0324    4.5295 H   0  0  0  0  0  0
   23.6830   19.5924    5.1360 H   0  0  0  0  0  0
   23.3012   16.3400    6.8038 H   0  0  0  0  0  0
   22.9644   15.8303    5.1744 H   0  0  0  0  0  0
   21.5247   14.8262    6.4045 H   0  0  0  0  0  0
  1  2  2  0  0  0
  1  4  1  0  0  0
  2  3  1  0  0  0
  2 27  1  0  0  0
  3  6  2  0  0  0
  4  5  2  0  0  0
  4 16  1  0  0  0
  5  9  1  0  0  0
  5  6  1  0  0  0
  6  7  1  0  0  0
  7 17  1  0  0  0
  7  8  1  0  0  0
  8  9  2  0  0  0
  9 10  1  0  0  0
 10 15  1  0  0  0
 10 11  2  0  0  0
 11 12  1  0  0  0
 11 28  1  0  0  0
 12 13  2  0  0  0
 12 21  1  0  0  0
 13 14  1  0  0  0
 13 20  1  0  0  0
 14 15  2  0  0  0
 14 29  1  0  0  0
 15 30  1  0  0  0
 16 31  1  0  0  0
 16 32  1  0  0  0
 17 18  1  0  0  0
 17 19  1  0  0  0
 17 33  1  0  0  0
 18 34  1  0  0  0
 18 35  1  0  0  0
 18 36  1  0  0  0
 19 37  1  0  0  0
 19 38  1  0  0  0
 19 39  1  0  0  0
 20 23  1  0  0  0
 20 40  1  0  0  0
 21 22  1  0  0  0
 22 41  1  0  0  0
 22 42  1  0  0  0
 22 43  1  0  0  0
 23 24  1  0  0  0
 23 25  1  0  0  0
 23 44  1  0  0  0
 24 45  1  0  0  0
 24 46  1  0  0  0
 24 47  1  0  0  0
 25 26  1  0  0  0
 25 48  1  0  0  0
 25 49  1  0  0  0
 26 50  1  0  0  0
M  END
> <s_m_entry_id>
6221

> <s_m_entry_name>
dock_pv.147

> <s_m_Source_Path>
/home/csk/Desktop/cluster/DUD-E-result/abl1

> <s_m_Source_File>
dock_pv.maegz

> <i_m_Source_File_Index>
147

> <chembl_id>
CHEMBL1241486

> <chembl_pref_name>
None

> <i_lp_mmshare_version>
53161

> <i_f3d_flags>
0

> <r_lp_tautomer_probability>
1

> <s_lp_Force_Field>
OPLS_2005

> <r_lp_Energy>
19.64816

> <b_lp_Chiralities_Consistent>
1

> <s_lp_Variant>
CHEMBL1862_lig476-1

> <s_i_glide_gridfile>
glide-grid_2hzi

> <i_i_glide_lignum>
565

> <i_i_glide_rotatable_bonds>
7

> <r_i_docking_score>
-10.0816365284026

> <r_i_glide_ligand_efficiency>
-0.387755251092407

> <r_i_glide_ligand_efficiency_sa>
-1.14872340561802

> <r_i_glide_ligand_efficiency_ln>
-2.36763925814773

> <r_i_glide_gscore>
-10.0816365284026

> <r_i_glide_lipo>
-3.77733300250864

> <r_i_glide_hbond>
-0.608

> <r_i_glide_metal>
0

> <r_i_glide_rewards>
-3.37050029007079

> <r_i_glide_evdw>
-26.3362789154053

> <r_i_glide_ecoul>
-9.53785800933838

> <r_i_glide_erotb>
0.421689411347875

> <r_i_glide_esite>
0

> <r_i_glide_emodel>
-43.4300775322351

> <r_i_glide_energy>
-35.8741369247437

> <r_i_glide_einternal>
14.1882095336914

> <i_i_glide_confnum>
88

> <i_i_glide_posenum>
178

> <r_i_glide_eff_state_penalty>
0

> <s_user_duplicate_titles>
CHEMBL1862_lig476

> <s_m_subgroup_title>
dock_pv

> <s_m_subgroupid>
dock_pv

> <b_m_subgroup_collapsed>
0

$$$$
CHEMBL1862_lig509
                    3D
 Schrodinger Suite 2021-1.
 46 49  0  0  1  0            999 V2000
   16.3120   12.0331    2.1122 N   0  0  0  0  0  0
   14.9641   12.0854    2.2458 C   0  0  0  0  0  0
   14.2468   12.8910    3.0649 N   0  0  0  0  0  0
   17.0360   12.9339    2.8126 C   0  0  0  0  0  0
   16.4084   13.8929    3.6053 C   0  0  0  0  0  0
   15.0103   13.7609    3.7377 C   0  0  0  0  0  0
   14.6639   14.6243    4.7595 N   0  0  0  0  0  0
   15.7247   15.4092    5.1004 N   0  0  0  0  0  0
   16.7718   15.0001    4.4231 C   0  0  0  0  0  0
   18.1283   15.5984    4.5665 C   0  0  0  0  0  0
   18.6839   16.3002    3.4951 C   0  0  0  0  0  0
   19.9682   16.8394    3.5811 C   0  0  0  0  0  0
   20.7312   16.6740    4.7470 C   0  0  0  0  0  0
   20.1722   15.9512    5.8160 C   0  0  0  0  0  0
   18.8778   15.4337    5.7324 C   0  0  0  0  0  0
   18.4186   12.8330    2.8030 N   0  0  0  0  0  0
   20.4721   17.5247    2.5029 O   0  0  0  0  0  0
   21.9983   17.2329    4.7727 O   0  0  0  0  0  0
   22.8121   17.0825    5.9299 C   0  0  0  0  0  0
   13.3778   14.8147    5.4521 C   0  0  1  0  0  0
   12.4473   15.7362    4.6543 C   0  0  0  0  0  0
   11.4276   14.8009    4.0030 C   0  0  0  0  0  0
   11.1569   13.7096    5.0085 C   0  0  1  0  0  0
   12.5248   13.5332    5.6751 C   0  0  0  0  0  0
    9.9820   13.9552    5.9725 C   0  0  0  0  0  0
   14.3988   11.4080    1.6244 H   0  0  0  0  0  0
   18.1090   16.4330    2.5925 H   0  0  0  0  0  0
   20.7267   15.7887    6.7272 H   0  0  0  0  0  0
   18.4667   14.8830    6.5662 H   0  0  0  0  0  0
   18.9691   13.5151    3.3035 H   0  0  0  0  0  0
   18.8560   12.1449    2.1934 H   0  0  0  0  0  0
   19.9600   17.4066    1.7009 H   0  0  0  0  0  0
   23.7640   17.5879    5.7674 H   0  0  0  0  0  0
   22.3474   17.5371    6.8030 H   0  0  0  0  0  0
   23.0214   16.0332    6.1414 H   0  0  0  0  0  0
   13.7640   15.2299    6.3889 H   0  0  0  0  0  0
   11.8384   16.4330    5.2030 H   0  0  0  0  0  0
   13.0232   16.3831    4.0030 H   0  0  0  0  0  0
   10.5063   15.2845    3.6911 H   0  0  0  0  0  0
   11.8692   14.3554    3.1128 H   0  0  0  0  0  0
   10.8993   12.8330    4.4219 H   0  0  0  0  0  0
   12.9640   12.6635    5.2030 H   0  0  0  0  0  0
   12.4001   13.3263    6.7375 H   0  0  0  0  0  0
   10.1275   14.8330    6.5934 H   0  0  0  0  0  0
    9.0479   14.0901    5.4262 H   0  0  0  0  0  0
    9.8441   13.1056    6.6419 H   0  0  0  0  0  0
  1  2  2  0  0  0
  1  4  1  0  0  0
  2  3  1  0  0  0
  2 26  1  0  0  0
  3  6  2  0  0  0
  4  5  2  0  0  0
  4 16  1  0  0  0
  5  9  1  0  0  0
  5  6  1  0  0  0
  6  7  1  0  0  0
  7  8  1  0  0  0
  7 20  1  0  0  0
  8  9  2  0  0  0
  9 10  1  0  0  0
 10 15  1  0  0  0
 10 11  2  0  0  0
 11 12  1  0  0  0
 11 27  1  0  0  0
 12 13  2  0  0  0
 12 17  1  0  0  0
 13 14  1  0  0  0
 13 18  1  0  0  0
 14 15  2  0  0  0
 14 28  1  0  0  0
 15 29  1  0  0  0
 16 30  1  0  0  0
 16 31  1  0  0  0
 17 32  1  0  0  0
 18 19  1  0  0  0
 19 33  1  0  0  0
 19 34  1  0  0  0
 19 35  1  0  0  0
 20 21  1  0  0  0
 20 24  1  0  0  0
 20 36  1  0  0  0
 21 22  1  0  0  0
 21 37  1  0  0  0
 21 38  1  0  0  0
 22 23  1  0  0  0
 22 39  1  0  0  0
 22 40  1  0  0  0
 23 24  1  0  0  0
 23 25  1  0  0  0
 23 41  1  0  0  0
 24 42  1  0  0  0
 24 43  1  0  0  0
 25 44  1  0  0  0
 25 45  1  0  0  0
 25 46  1  0  0  0
M  END
> <s_m_entry_id>
6222

> <s_m_entry_name>
dock_pv.148

> <s_m_Source_Path>
/home/csk/Desktop/cluster/DUD-E-result/abl1

> <s_m_Source_File>
dock_pv.maegz

> <i_m_Source_File_Index>
148

> <chembl_id>
CHEMBL1242202

> <chembl_pref_name>
None

> <i_lp_mmshare_version>
53161

> <i_f3d_flags>
0

> <r_lp_tautomer_probability>
0.999999999999776

> <s_lp_Force_Field>
OPLS_2005

> <r_lp_Energy>
33.923071

> <b_lp_Chiralities_Consistent>
1

> <s_lp_Variant>
CHEMBL1862_lig509-4

> <s_i_glide_gridfile>
glide-grid_2hzi

> <i_i_glide_lignum>
606

> <i_i_glide_rotatable_bonds>
4

> <r_i_docking_score>
-10.0797869861139

> <r_i_glide_ligand_efficiency>
-0.403191479444558

> <r_i_glide_ligand_efficiency_sa>
-1.17893903652722

> <r_i_glide_ligand_efficiency_ln>
-2.38921158254968

> <r_i_glide_gscore>
-10.0797869861139

> <r_i_glide_lipo>
-3.67089014477629

> <r_i_glide_hbond>
-0.608

> <r_i_glide_metal>
0

> <r_i_glide_rewards>
-3.59130029881591

> <r_i_glide_evdw>
-27.837064743042

> <r_i_glide_ecoul>
-6.9850025177002

> <r_i_glide_erotb>
0.23000707228539

> <r_i_glide_esite>
0

> <r_i_glide_emodel>
-50.6119987175673

> <r_i_glide_energy>
-34.8220672607422

> <r_i_glide_einternal>
5.44090175628662

> <i_i_glide_confnum>
51

> <i_i_glide_posenum>
164

> <r_i_glide_eff_state_penalty>
0

> <s_user_duplicate_titles>
CHEMBL1862_lig509

> <s_m_subgroup_title>
dock_pv

> <s_m_subgroupid>
dock_pv

> <b_m_subgroup_collapsed>
0

$$$$
CHEMBL1862_lig476
                    3D
 Schrodinger Suite 2021-1.
 50 52  0  0  1  0            999 V2000
   16.2108   12.0331    2.0266 N   0  0  0  0  0  0
   14.8609   12.0330    2.1136 C   0  0  0  0  0  0
   14.0885   12.7336    2.9732 N   0  0  0  0  0  0
   16.8814   12.8970    2.8198 C   0  0  0  0  0  0
   16.1965   13.7688    3.6749 C   0  0  0  0  0  0
   14.8011   13.5632    3.7391 C   0  0  0  0  0  0
   14.3714   14.3234    4.7998 N   0  0  0  0  0  0
   15.3456   15.1752    5.2031 N   0  0  0  0  0  0
   16.4619   14.8311    4.6061 C   0  0  0  0  0  0
   17.7677   15.4305    5.0017 C   0  0  0  0  0  0
   17.8757   16.8099    5.1373 C   0  0  0  0  0  0
   19.0982   17.4174    5.4303 C   0  0  0  0  0  0
   20.2540   16.6195    5.5694 C   0  0  0  0  0  0
   20.1298   15.2330    5.5088 C   0  0  0  0  0  0
   18.8994   14.6454    5.2281 C   0  0  0  0  0  0
   18.2644   12.8331    2.8030 N   0  0  0  0  0  0
   13.0344   14.4891    5.3543 C   0  0  0  0  0  0
   12.1536   13.2331    5.4442 C   0  0  0  0  0  0
   12.3095   15.4580    4.4486 C   0  0  0  0  0  0
   21.5491   17.1191    5.7863 N   0  0  0  0  0  0
   19.1267   18.7802    5.6030 O   0  0  0  0  0  0
   18.4026   19.2745    6.7232 C   0  0  0  0  0  0
   22.0504   18.3019    5.0836 C   0  0  1  0  0  0
   23.4223   18.6986    5.6397 C   0  0  0  0  0  0
   22.0907   18.2042    3.5284 C   0  0  0  0  0  0
   20.9538   17.6330    2.9025 O   0  0  0  0  0  0
   14.3433   11.3688    1.4379 H   0  0  0  0  0  0
   16.9946   17.4139    5.0140 H   0  0  0  0  0  0
   20.9941   14.6001    5.6518 H   0  0  0  0  0  0
   18.8279   13.5694    5.2031 H   0  0  0  0  0  0
   18.7939   13.5348    3.2984 H   0  0  0  0  0  0
   18.7166   12.1968    2.1515 H   0  0  0  0  0  0
   13.2046   14.8330    6.3651 H   0  0  0  0  0  0
   11.1888   13.4796    5.8898 H   0  0  0  0  0  0
   11.9431   12.8330    4.4548 H   0  0  0  0  0  0
   12.5636   12.4554    6.0555 H   0  0  0  0  0  0
   11.4046   15.8747    4.8856 H   0  0  0  0  0  0
   12.9639   16.2774    4.1283 H   0  0  0  0  0  0
   12.0008   14.8330    3.6030 H   0  0  0  0  0  0
   22.2568   16.4187    5.9554 H   0  0  0  0  0  0
   19.0956   19.6543    7.4722 H   0  0  0  0  0  0
   17.7654   20.0956    6.4034 H   0  0  0  0  0  0
   17.7641   18.5331    7.2044 H   0  0  0  0  0  0
   21.3945   19.1327    5.3338 H   0  0  0  0  0  0
   23.7724   19.6329    5.2028 H   0  0  0  0  0  0
   23.3888   18.8332    6.7215 H   0  0  0  0  0  0
   24.1640   17.9304    5.4310 H   0  0  0  0  0  0
   22.9640   17.6330    3.2189 H   0  0  0  0  0  0
   22.2132   19.2042    3.1110 H   0  0  0  0  0  0
   21.1489   17.4752    1.9751 H   0  0  0  0  0  0
  1  2  2  0  0  0
  1  4  1  0  0  0
  2  3  1  0  0  0
  2 27  1  0  0  0
  3  6  2  0  0  0
  4  5  2  0  0  0
  4 16  1  0  0  0
  5  9  1  0  0  0
  5  6  1  0  0  0
  6  7  1  0  0  0
  7 17  1  0  0  0
  7  8  1  0  0  0
  8  9  2  0  0  0
  9 10  1  0  0  0
 10 15  1  0  0  0
 10 11  2  0  0  0
 11 12  1  0  0  0
 11 28  1  0  0  0
 12 13  2  0  0  0
 12 21  1  0  0  0
 13 14  1  0  0  0
 13 20  1  0  0  0
 14 15  2  0  0  0
 14 29  1  0  0  0
 15 30  1  0  0  0
 16 31  1  0  0  0
 16 32  1  0  0  0
 17 18  1  0  0  0
 17 19  1  0  0  0
 17 33  1  0  0  0
 18 34  1  0  0  0
 18 35  1  0  0  0
 18 36  1  0  0  0
 19 37  1  0  0  0
 19 38  1  0  0  0
 19 39  1  0  0  0
 20 23  1  0  0  0
 20 40  1  0  0  0
 21 22  1  0  0  0
 22 41  1  0  0  0
 22 42  1  0  0  0
 22 43  1  0  0  0
 23 24  1  0  0  0
 23 25  1  0  0  0
 23 44  1  0  0  0
 24 45  1  0  0  0
 24 46  1  0  0  0
 24 47  1  0  0  0
 25 26  1  0  0  0
 25 48  1  0  0  0
 25 49  1  0  0  0
 26 50  1  0  0  0
M  END
> <s_m_entry_id>
6223

> <s_m_entry_name>
dock_pv.149

> <s_m_Source_Path>
/home/csk/Desktop/cluster/DUD-E-result/abl1

> <s_m_Source_File>
dock_pv.maegz

> <i_m_Source_File_Index>
149

> <chembl_id>
CHEMBL1241486

> <chembl_pref_name>
None

> <i_lp_mmshare_version>
53161

> <i_f3d_flags>
0

> <r_lp_tautomer_probability>
1

> <s_lp_Force_Field>
OPLS_2005

> <r_lp_Energy>
19.26286

> <b_lp_Chiralities_Consistent>
1

> <s_lp_Variant>
CHEMBL1862_lig476-2

> <s_i_glide_gridfile>
glide-grid_2hzi

> <i_i_glide_lignum>
566

> <i_i_glide_rotatable_bonds>
7

> <r_i_docking_score>
-10.0769017167883

> <r_i_glide_ligand_efficiency>
-0.387573142953395

> <r_i_glide_ligand_efficiency_sa>
-1.14818391097275

> <r_i_glide_ligand_efficiency_ln>
-2.36652730317629

> <r_i_glide_gscore>
-10.0769017167883

> <r_i_glide_lipo>
-3.90845836053773

> <r_i_glide_hbond>
-0.608

> <r_i_glide_metal>
0

> <r_i_glide_rewards>
-3.37951161758162

> <r_i_glide_evdw>
-28.4598655700684

> <r_i_glide_ecoul>
-7.86418581008911

> <r_i_glide_erotb>
0.421689411347875

> <r_i_glide_esite>
0

> <r_i_glide_emodel>
-50.7690796171626

> <r_i_glide_energy>
-36.3240513801575

> <r_i_glide_einternal>
12.3150644302368

> <i_i_glide_confnum>
66

> <i_i_glide_posenum>
68

> <r_i_glide_eff_state_penalty>
0

> <s_user_duplicate_titles>
CHEMBL1862_lig476

> <s_m_subgroup_title>
dock_pv

> <s_m_subgroupid>
dock_pv

> <b_m_subgroup_collapsed>
0

$$$$
CHEMBL1862_lig845
                    3D
 Schrodinger Suite 2021-1.
 35 37  0  0  1  0            999 V2000
   16.2360   14.8008    4.2319 C   0  0  0  0  0  0
   17.4942   14.2666    3.9016 C   0  0  0  0  0  0
   17.5518   13.0558    3.2030 C   0  0  0  0  0  0
   16.4709   12.3380    2.7981 N   0  0  0  0  0  0
   15.0927   14.0822    3.8476 C   0  0  0  0  0  0
   15.2911   12.8658    3.1335 C   0  0  0  0  0  0
   14.0477   12.3358    2.8666 N   0  0  0  0  0  0
   13.0732   13.1661    3.3805 C   0  0  0  0  0  0
   13.6781   14.2469    4.0030 C   0  0  0  0  0  0
   11.6577   12.8330    3.2030 C   0  0  0  0  0  0
   18.7193   14.8330    4.2872 N   0  0  0  0  0  0
   18.9755   16.0756    4.7472 C   0  0  0  0  0  0
   11.4718   11.7474    2.4030 O   0  0  0  0  0  0
   20.3368   16.2605    5.1842 C   0  0  0  0  0  0
   18.1640   17.0015    4.8030 O   0  0  0  0  0  0
   10.1617   11.3092    2.0732 C   0  0  0  0  0  0
   10.7532   13.5050    3.7048 O   0  0  0  0  0  0
   20.9962   17.4995    5.2030 C   0  0  0  0  0  0
   22.2566   17.2851    5.7205 C   0  0  0  0  0  0
   22.2578   15.9479    6.0030 N   0  0  0  0  0  0
   21.1168   15.3247    5.6950 N   0  0  0  0  0  0
   23.4376   18.1859    5.9617 C   0  0  0  0  0  0
   16.1297   15.7095    4.8030 H   0  0  0  0  0  0
   18.5061   12.6192    2.9421 H   0  0  0  0  0  0
   13.8234   11.4651    2.3967 H   0  0  0  0  0  0
   13.1561   15.0525    4.4992 H   0  0  0  0  0  0
   19.5214   14.2252    4.2184 H   0  0  0  0  0  0
   10.2060   10.3269    1.6030 H   0  0  0  0  0  0
    9.5312   11.2330    2.9606 H   0  0  0  0  0  0
    9.6890   12.0016    1.3759 H   0  0  0  0  0  0
   20.5929   18.4359    4.8558 H   0  0  0  0  0  0
   23.0434   15.4478    6.4029 H   0  0  0  0  0  0
   23.1418   19.2330    6.0030 H   0  0  0  0  0  0
   23.9524   17.9588    6.8949 H   0  0  0  0  0  0
   24.1640   18.0923    5.1581 H   0  0  0  0  0  0
  1  5  1  0  0  0
  1  2  2  0  0  0
  1 23  1  0  0  0
  2  3  1  0  0  0
  2 11  1  0  0  0
  3  4  2  0  0  0
  3 24  1  0  0  0
  4  6  1  0  0  0
  5  6  2  0  0  0
  5  9  1  0  0  0
  6  7  1  0  0  0
  7  8  1  0  0  0
  7 25  1  0  0  0
  8  9  2  0  0  0
  8 10  1  0  0  0
  9 26  1  0  0  0
 10 13  1  0  0  0
 10 17  2  0  0  0
 11 12  1  0  0  0
 11 27  1  0  0  0
 12 15  2  0  0  0
 12 14  1  0  0  0
 13 16  1  0  0  0
 14 21  2  0  0  0
 14 18  1  0  0  0
 16 28  1  0  0  0
 16 29  1  0  0  0
 16 30  1  0  0  0
 18 19  2  0  0  0
 18 31  1  0  0  0
 19 20  1  0  0  0
 19 22  1  0  0  0
 20 21  1  0  0  0
 20 32  1  0  0  0
 22 33  1  0  0  0
 22 34  1  0  0  0
 22 35  1  0  0  0
M  END
> <s_m_entry_id>
6224

> <s_m_entry_name>
dock_pv.150

> <s_m_Source_Path>
/home/csk/Desktop/cluster/DUD-E-result/abl1

> <s_m_Source_File>
dock_pv.maegz

> <i_m_Source_File_Index>
150

> <chembl_id>
CHEMBL3347440

> <chembl_pref_name>
None

> <i_lp_mmshare_version>
53161

> <i_f3d_flags>
0

> <r_lp_tautomer_probability>
0.5

> <s_lp_Force_Field>
OPLS_2005

> <r_lp_Energy>
16.273343

> <b_lp_Chiralities_Consistent>
1

> <s_lp_Variant>
CHEMBL1862_lig845-2

> <s_i_glide_gridfile>
glide-grid_2hzi

> <i_i_glide_lignum>
985

> <i_i_glide_rotatable_bonds>
5

> <r_i_docking_score>
-10.0430776534642

> <r_i_glide_ligand_efficiency>
-0.456503529702917

> <r_i_glide_ligand_efficiency_sa>
-1.27914084349262

> <r_i_glide_ligand_efficiency_ln>
-2.45489450866487

> <r_i_glide_gscore>
-10.0430776534642

> <r_i_glide_lipo>
-3.09995715774994

> <r_i_glide_hbond>
-0.723707760030613

> <r_i_glide_metal>
0

> <r_i_glide_rewards>
-3.21803613121491

> <r_i_glide_evdw>
-47.9229888916016

> <r_i_glide_ecoul>
-7.86191082000732

> <r_i_glide_erotb>
0.574059463112459

> <r_i_glide_esite>
0

> <r_i_glide_emodel>
-88.6069929076035

> <r_i_glide_energy>
-55.7848997116089

> <r_i_glide_einternal>
1.91876304149628

> <i_i_glide_confnum>
2

> <i_i_glide_posenum>
291

> <r_i_glide_eff_state_penalty>
0

> <s_user_duplicate_titles>
CHEMBL1862_lig845,CHEMBL1862_lig845

> <s_m_subgroup_title>
dock_pv

> <s_m_subgroupid>
dock_pv

> <b_m_subgroup_collapsed>
0

$$$$
CHEMBL1862_lig503
                    3D
 Schrodinger Suite 2021-1.
 39 41  0  0  1  0            999 V2000
   16.4766   12.0330    2.2744 N   0  0  0  0  0  0
   15.1457   12.2769    2.2567 C   0  0  0  0  0  0
   14.4867   13.2239    2.9572 N   0  0  0  0  0  0
   17.2414   12.8344    3.0400 C   0  0  0  0  0  0
   16.6984   13.9063    3.7360 C   0  0  0  0  0  0
   15.3012   14.0008    3.6800 C   0  0  0  0  0  0
   14.9827   14.9911    4.5741 N   0  0  0  0  0  0
   16.0936   15.5869    5.0816 N   0  0  0  0  0  0
   17.1319   14.9639    4.5844 C   0  0  0  0  0  0
   18.5283   15.3398    4.9040 C   0  0  0  0  0  0
   19.1977   16.1842    4.0221 C   0  0  0  0  0  0
   20.5256   16.5732    4.2604 C   0  0  0  0  0  0
   21.1739   16.0879    5.4090 C   0  0  0  0  0  0
   20.5062   15.2334    6.2891 C   0  0  0  0  0  0
   19.1826   14.8704    6.0431 C   0  0  0  0  0  0
   18.5640   12.4990    3.2030 N   0  0  0  0  0  0
   13.6848   15.5122    4.9389 C   0  0  0  0  0  0
   12.4992   14.5506    4.6974 C   0  0  0  0  0  0
   13.5185   16.8602    4.2504 C   0  0  0  0  0  0
   21.2205   17.4219    3.4185 O   0  0  0  0  0  0
   20.7155   17.6555    2.1068 C   0  0  0  0  0  0
   22.4743   16.4330    5.6809 O   0  0  0  0  0  0
   14.5379   11.6330    1.6366 H   0  0  0  0  0  0
   18.6627   16.5297    3.1513 H   0  0  0  0  0  0
   21.0052   14.8587    7.1695 H   0  0  0  0  0  0
   18.6692   14.2184    6.7334 H   0  0  0  0  0  0
   19.1626   13.1263    3.7184 H   0  0  0  0  0  0
   18.9479   11.7684    2.6135 H   0  0  0  0  0  0
   13.7640   15.6330    6.0030 H   0  0  0  0  0  0
   11.5858   14.9315    5.1531 H   0  0  0  0  0  0
   12.2868   14.4193    3.6364 H   0  0  0  0  0  0
   12.6863   13.5677    5.1320 H   0  0  0  0  0  0
   12.5005   17.2325    4.3418 H   0  0  0  0  0  0
   14.1865   17.6135    4.6676 H   0  0  0  0  0  0
   13.7640   16.7744    3.2030 H   0  0  0  0  0  0
   21.3852   18.3489    1.6030 H   0  0  0  0  0  0
   20.6666   16.7380    1.5190 H   0  0  0  0  0  0
   19.7246   18.1079    2.1133 H   0  0  0  0  0  0
   22.8671   15.9358    6.4030 H   0  0  0  0  0  0
  1  2  2  0  0  0
  1  4  1  0  0  0
  2  3  1  0  0  0
  2 23  1  0  0  0
  3  6  2  0  0  0
  4  5  2  0  0  0
  4 16  1  0  0  0
  5  9  1  0  0  0
  5  6  1  0  0  0
  6  7  1  0  0  0
  7 17  1  0  0  0
  7  8  1  0  0  0
  8  9  2  0  0  0
  9 10  1  0  0  0
 10 11  2  0  0  0
 10 15  1  0  0  0
 11 12  1  0  0  0
 11 24  1  0  0  0
 12 13  2  0  0  0
 12 20  1  0  0  0
 13 14  1  0  0  0
 13 22  1  0  0  0
 14 15  2  0  0  0
 14 25  1  0  0  0
 15 26  1  0  0  0
 16 27  1  0  0  0
 16 28  1  0  0  0
 17 18  1  0  0  0
 17 19  1  0  0  0
 17 29  1  0  0  0
 18 30  1  0  0  0
 18 31  1  0  0  0
 18 32  1  0  0  0
 19 33  1  0  0  0
 19 34  1  0  0  0
 19 35  1  0  0  0
 20 21  1  0  0  0
 21 36  1  0  0  0
 21 37  1  0  0  0
 21 38  1  0  0  0
 22 39  1  0  0  0
M  END
> <s_m_entry_id>
6225

> <s_m_entry_name>
dock_pv.151

> <s_m_Source_Path>
/home/csk/Desktop/cluster/DUD-E-result/abl1

> <s_m_Source_File>
dock_pv.maegz

> <i_m_Source_File_Index>
151

> <chembl_id>
CHEMBL1242112

> <chembl_pref_name>
None

> <i_lp_mmshare_version>
53161

> <i_f3d_flags>
0

> <r_lp_tautomer_probability>
1

> <s_lp_Force_Field>
OPLS_2005

> <r_lp_Energy>
15.428897

> <b_lp_Chiralities_Consistent>
1

> <s_lp_Variant>
CHEMBL1862_lig503-1

> <s_i_glide_gridfile>
glide-grid_2hzi

> <i_i_glide_lignum>
597

> <i_i_glide_rotatable_bonds>
4

> <r_i_docking_score>
-10.0277716685513

> <r_i_glide_ligand_efficiency>
-0.455807803115967

> <r_i_glide_ligand_efficiency_sa>
-1.27719139023462

> <r_i_glide_ligand_efficiency_ln>
-2.45115316765279

> <r_i_glide_gscore>
-10.0277716685513

> <r_i_glide_lipo>
-3.29147146621705

> <r_i_glide_hbond>
-0.57051519465741

> <r_i_glide_metal>
0

> <r_i_glide_rewards>
-3.82521138289197

> <r_i_glide_evdw>
-32.1108360290527

> <r_i_glide_ecoul>
-5.85673713684082

> <r_i_glide_erotb>
0.143478747193915

> <r_i_glide_esite>
0

> <r_i_glide_emodel>
-44.5425861868566

> <r_i_glide_energy>
-37.9675731658936

> <r_i_glide_einternal>
7.57510852813721

> <i_i_glide_confnum>
4

> <i_i_glide_posenum>
150

> <r_i_glide_eff_state_penalty>
0

> <s_user_duplicate_titles>
CHEMBL1862_lig503

> <s_m_subgroup_title>
dock_pv

> <s_m_subgroupid>
dock_pv

> <b_m_subgroup_collapsed>
0

$$$$
CHEMBL1862_lig937
                    3D
 Schrodinger Suite 2021-1.
 48 51  0  0  1  0            999 V2000
   14.1869   12.7718    2.7942 N   0  0  0  0  0  0
   15.0145   12.0334    2.0233 C   0  0  0  0  0  0
   16.3646   12.0456    2.0078 N   0  0  0  0  0  0
   16.9815   12.9414    2.8033 C   0  0  0  0  0  0
   14.8406   13.6405    3.5698 C   0  0  0  0  0  0
   16.2382   13.8199    3.6015 C   0  0  0  0  0  0
   16.4623   14.9063    4.4917 C   0  0  0  0  0  0
   15.3191   15.2790    5.0390 N   0  0  0  0  0  0
   14.3271   14.5009    4.5140 N   0  0  0  0  0  0
   18.3670   12.9320    2.8034 N   0  0  0  0  0  0
   17.7952   15.5416    4.7304 C   0  0  0  0  0  0
   18.3542   16.2792    3.6844 C   0  0  0  0  0  0
   19.8414   15.7921    6.0433 N   0  0  0  0  0  0
   18.5618   15.3592    5.8855 C   0  0  0  0  0  0
   20.3232   16.5242    5.0392 C   0  0  0  0  0  0
   19.6429   16.8149    3.8288 C   0  0  0  0  0  0
   20.5275   17.6202    3.0387 C   0  0  0  0  0  0
   21.6650   17.8276    3.7992 C   0  0  0  0  0  0
   21.5495   17.1503    4.9899 N   0  0  0  0  0  0
   12.9319   14.6870    4.9386 C   0  0  0  0  0  0
   12.0041   13.4591    4.7884 C   0  0  0  0  0  0
   11.3504   13.5137    3.5463 O   0  0  0  0  0  0
   11.1055   13.4185    5.8684 O   0  0  0  0  0  0
    9.9623   14.2641    5.8033 C   0  0  0  0  0  0
   10.6613   12.3073    3.2003 C   0  0  0  0  0  0
    9.8568   12.4310    1.9052 C   0  0  0  0  0  0
    9.3628   14.4114    7.2024 C   0  0  0  0  0  0
   14.5639   11.3436    1.3357 H   0  0  0  0  0  0
   18.8673   13.6111    3.3588 H   0  0  0  0  0  0
   18.8496   12.2853    2.1846 H   0  0  0  0  0  0
   17.7853   16.4329    2.7915 H   0  0  0  0  0  0
   18.1646   14.8330    6.7345 H   0  0  0  0  0  0
   20.3600   18.0071    2.0435 H   0  0  0  0  0  0
   22.5638   18.3873    3.5851 H   0  0  0  0  0  0
   22.2738   17.1417    5.6936 H   0  0  0  0  0  0
   13.0079   14.8332    6.0043 H   0  0  0  0  0  0
   12.4912   15.5924    4.5228 H   0  0  0  0  0  0
   12.6149   12.5603    4.8526 H   0  0  0  0  0  0
   10.2256   15.2329    5.3943 H   0  0  0  0  0  0
    9.2149   13.8377    5.1349 H   0  0  0  0  0  0
   11.3770   11.4896    3.1006 H   0  0  0  0  0  0
    9.9567   12.0346    3.9852 H   0  0  0  0  0  0
    9.1816   11.5822    1.7942 H   0  0  0  0  0  0
    9.2549   13.3388    1.8982 H   0  0  0  0  0  0
   10.5056   12.4320    1.0307 H   0  0  0  0  0  0
    8.4886   15.0617    7.1939 H   0  0  0  0  0  0
    9.0467   13.4446    7.5957 H   0  0  0  0  0  0
   10.0810   14.8369    7.9033 H   0  0  0  0  0  0
  1  5  1  0  0  0
  1  2  2  0  0  0
  2  3  1  0  0  0
  2 28  1  0  0  0
  3  4  2  0  0  0
  4  6  1  0  0  0
  4 10  1  0  0  0
  5  6  2  0  0  0
  5  9  1  0  0  0
  6  7  1  0  0  0
  7  8  2  0  0  0
  7 11  1  0  0  0
  8  9  1  0  0  0
  9 20  1  0  0  0
 10 29  1  0  0  0
 10 30  1  0  0  0
 11 12  2  0  0  0
 11 14  1  0  0  0
 12 16  1  0  0  0
 12 31  1  0  0  0
 13 15  1  0  0  0
 13 14  2  0  0  0
 14 32  1  0  0  0
 15 16  2  0  0  0
 15 19  1  0  0  0
 16 17  1  0  0  0
 17 18  2  0  0  0
 17 33  1  0  0  0
 18 19  1  0  0  0
 18 34  1  0  0  0
 19 35  1  0  0  0
 20 21  1  0  0  0
 20 36  1  0  0  0
 20 37  1  0  0  0
 21 22  1  0  0  0
 21 23  1  0  0  0
 21 38  1  0  0  0
 22 25  1  0  0  0
 23 24  1  0  0  0
 24 27  1  0  0  0
 24 39  1  0  0  0
 24 40  1  0  0  0
 25 26  1  0  0  0
 25 41  1  0  0  0
 25 42  1  0  0  0
 26 43  1  0  0  0
 26 44  1  0  0  0
 26 45  1  0  0  0
 27 46  1  0  0  0
 27 47  1  0  0  0
 27 48  1  0  0  0
M  END
> <s_m_entry_id>
6226

> <s_m_entry_name>
dock_pv.152

> <s_m_Source_Path>
/home/csk/Desktop/cluster/DUD-E-result/abl1

> <s_m_Source_File>
dock_pv.maegz

> <i_m_Source_File_Index>
152

> <chembl_id>
CHEMBL3799221

> <chembl_pref_name>
None

> <i_lp_mmshare_version>
53161

> <i_f3d_flags>
0

> <r_lp_tautomer_probability>
0.999998432528457

> <s_lp_Force_Field>
OPLS_2005

> <r_lp_Energy>
9.196139

> <b_lp_Chiralities_Consistent>
1

> <s_lp_Variant>
CHEMBL1862_lig937-1

> <s_i_glide_gridfile>
glide-grid_2hzi

> <i_i_glide_lignum>
1099

> <i_i_glide_rotatable_bonds>
7

> <r_i_docking_score>
-10.0188336403547

> <r_i_glide_ligand_efficiency>
-0.37106791260573

> <r_i_glide_ligand_efficiency_sa>
-1.11320373659421

> <r_i_glide_ligand_efficiency_ln>
-2.33221929809301

> <r_i_glide_gscore>
-10.0188336403547

> <r_i_glide_lipo>
-3.14974912744651

> <r_i_glide_hbond>
-0.608

> <r_i_glide_metal>
0

> <r_i_glide_rewards>
-4.04023858577936

> <r_i_glide_evdw>
-33.5589866638184

> <r_i_glide_ecoul>
-6.94823837280273

> <r_i_glide_erotb>
0.499339161982492

> <r_i_glide_esite>
0

> <r_i_glide_emodel>
-46.6691453240013

> <r_i_glide_energy>
-40.5072250366211

> <r_i_glide_einternal>
16.8772888183594

> <i_i_glide_confnum>
131

> <i_i_glide_posenum>
76

> <r_i_glide_eff_state_penalty>
0

> <s_user_duplicate_titles>
CHEMBL1862_lig937

> <s_m_subgroup_title>
dock_pv

> <s_m_subgroupid>
dock_pv

> <b_m_subgroup_collapsed>
0

$$$$
CHEMBL1862_lig763
                    3D
 Schrodinger Suite 2021-1.
 40 42  0  0  1  0            999 V2000
   18.0690   15.0111    4.1223 C   0  0  0  0  0  0
   18.6203   13.9488    3.3976 C   0  0  0  0  0  0
   17.8696   12.8959    2.8942 C   0  0  0  0  0  0
   16.6712   15.0680    4.3032 C   0  0  0  0  0  0
   15.9019   14.0593    3.7063 C   0  0  0  0  0  0
   16.4891   12.9761    3.0099 C   0  0  0  0  0  0
   15.5574   12.1115    2.5205 N   0  0  0  0  0  0
   14.4201   12.6316    2.8822 C   0  0  0  0  0  0
   14.5537   13.7947    3.6140 N   0  0  0  0  0  0
   13.2369   12.0332    2.5275 N   0  0  0  0  0  0
   11.9969   12.4335    2.8270 C   0  0  0  0  0  0
   11.0953   11.6188    2.2661 N   0  0  0  0  0  0
   11.7140   13.4241    3.5068 O   0  0  0  0  0  0
    9.6870   11.9249    2.0392 C   0  0  0  0  0  0
    9.3285   11.7900    0.5550 C   0  0  0  0  0  0
   18.9812   16.0683    4.6712 C   0  0  0  0  0  0
   20.3238   15.8001    4.9966 C   0  0  0  0  0  0
   21.1826   16.8077    5.4472 C   0  0  0  0  0  0
   20.6996   18.1052    5.6028 C   0  0  0  0  0  0
   19.3642   18.3824    5.3288 C   0  0  0  0  0  0
   18.5273   17.3772    4.8561 C   0  0  0  0  0  0
   22.6328   16.5054    5.7658 C   0  0  0  0  0  0
   19.6818   13.9261    3.2034 H   0  0  0  0  0  0
   18.3405   12.0625    2.4029 H   0  0  0  0  0  0
   16.2024   15.8634    4.8617 H   0  0  0  0  0  0
   13.7589   14.3065    3.9726 H   0  0  0  0  0  0
   13.3449   11.1693    2.0053 H   0  0  0  0  0  0
   11.3934   10.6880    2.0098 H   0  0  0  0  0  0
    9.4229   12.9250    2.3900 H   0  0  0  0  0  0
    9.0889   11.2305    2.6315 H   0  0  0  0  0  0
    8.2912   12.0689    0.3813 H   0  0  0  0  0  0
    9.4476   10.7609    0.2118 H   0  0  0  0  0  0
    9.9481   12.4339   -0.0692 H   0  0  0  0  0  0
   20.7228   14.8052    4.8883 H   0  0  0  0  0  0
   21.3519   18.8925    5.9541 H   0  0  0  0  0  0
   18.9626   19.3696    5.4830 H   0  0  0  0  0  0
   17.5079   17.6330    4.6257 H   0  0  0  0  0  0
   22.8482   16.7441    6.8031 H   0  0  0  0  0  0
   22.8827   15.4584    5.6026 H   0  0  0  0  0  0
   23.2919   17.1223    5.1556 H   0  0  0  0  0  0
  1  2  2  0  0  0
  1  4  1  0  0  0
  1 16  1  0  0  0
  2  3  1  0  0  0
  2 23  1  0  0  0
  3  6  2  0  0  0
  3 24  1  0  0  0
  4  5  2  0  0  0
  4 25  1  0  0  0
  5  6  1  0  0  0
  5  9  1  0  0  0
  6  7  1  0  0  0
  7  8  2  0  0  0
  8  9  1  0  0  0
  8 10  1  0  0  0
  9 26  1  0  0  0
 10 11  1  0  0  0
 10 27  1  0  0  0
 11 12  1  0  0  0
 11 13  2  0  0  0
 12 14  1  0  0  0
 12 28  1  0  0  0
 14 15  1  0  0  0
 14 29  1  0  0  0
 14 30  1  0  0  0
 15 31  1  0  0  0
 15 32  1  0  0  0
 15 33  1  0  0  0
 16 17  2  0  0  0
 16 21  1  0  0  0
 17 18  1  0  0  0
 17 34  1  0  0  0
 18 19  2  0  0  0
 18 22  1  0  0  0
 19 20  1  0  0  0
 19 35  1  0  0  0
 20 21  2  0  0  0
 20 36  1  0  0  0
 21 37  1  0  0  0
 22 38  1  0  0  0
 22 39  1  0  0  0
 22 40  1  0  0  0
M  END
> <s_m_entry_id>
6227

> <s_m_entry_name>
dock_pv.153

> <s_m_Source_Path>
/home/csk/Desktop/cluster/DUD-E-result/abl1

> <s_m_Source_File>
dock_pv.maegz

> <i_m_Source_File_Index>
153

> <chembl_id>
CHEMBL2347734

> <chembl_pref_name>
None

> <i_lp_mmshare_version>
53161

> <i_f3d_flags>
0

> <r_lp_tautomer_probability>
1

> <s_lp_Force_Field>
OPLS_2005

> <r_lp_Energy>
14.016906

> <b_lp_Chiralities_Consistent>
1

> <s_lp_Variant>
CHEMBL1862_lig763-1

> <s_i_glide_gridfile>
glide-grid_2hzi

> <i_i_glide_lignum>
896

> <i_i_glide_rotatable_bonds>
5

> <r_i_docking_score>
-10.0132434546823

> <r_i_glide_ligand_efficiency>
-0.455147429758286

> <r_i_glide_ligand_efficiency_sa>
-1.27534099811538

> <r_i_glide_ligand_efficiency_ln>
-2.44760194225373

> <r_i_glide_gscore>
-10.0132434546823

> <r_i_glide_lipo>
-3.6212773081254

> <r_i_glide_hbond>
-0.563487534799714

> <r_i_glide_metal>
0

> <r_i_glide_rewards>
-3.45589125622086

> <r_i_glide_evdw>
-36.2665748596191

> <r_i_glide_ecoul>
-7.66828298568726

> <r_i_glide_erotb>
0.590983835297722

> <r_i_glide_esite>
0

> <r_i_glide_emodel>
-70.3834494950772

> <r_i_glide_energy>
-43.9348578453064

> <r_i_glide_einternal>
4.5888147354126

> <i_i_glide_confnum>
8

> <i_i_glide_posenum>
59

> <r_i_glide_eff_state_penalty>
0

> <s_user_duplicate_titles>
CHEMBL1862_lig763

> <s_m_subgroup_title>
dock_pv

> <s_m_subgroupid>
dock_pv

> <b_m_subgroup_collapsed>
0

$$$$
CHEMBL1862_lig462
                    3D
 Schrodinger Suite 2021-1.
 39 42  0  0  1  0            999 V2000
   16.7331   12.1776    2.3542 N   0  0  0  0  0  0
   17.8272   12.8330    2.8030 C   0  0  0  0  0  0
   17.8592   13.9237    3.6020 N   0  0  0  0  0  0
   15.5324   12.6721    2.7193 C   0  0  0  0  0  0
   15.4210   13.7399    3.6123 C   0  0  0  0  0  0
   16.6472   14.3157    4.0131 C   0  0  0  0  0  0
   16.3285   15.1809    5.0445 N   0  0  0  0  0  0
   14.9805   15.2641    5.1901 N   0  0  0  0  0  0
   14.4067   14.4012    4.3737 C   0  0  0  0  0  0
   12.9438   14.0552    4.4658 C   0  0  0  0  0  0
   12.3642   14.0327    5.7270 C   0  0  0  0  0  0
   11.0459   13.6330    5.9372 C   0  0  0  0  0  0
   10.2526   13.2675    4.8593 C   0  0  0  0  0  0
   10.8161   13.2424    3.5894 C   0  0  0  0  0  0
   12.1494   13.6330    3.3973 C   0  0  0  0  0  0
   14.4134   12.0330    2.2347 N   0  0  0  0  0  0
   10.5357   13.6330    7.2030 O   0  0  0  0  0  0
   10.0641   12.8328    2.5449 F   0  0  0  0  0  0
   17.2004   15.7654    6.0900 C   0  0  0  0  0  0
   18.6490   15.2336    6.1753 C   0  0  0  0  0  0
   19.4981   16.1540    5.2789 C   0  0  0  0  0  0
   18.5851   17.3342    4.9113 C   0  0  0  0  0  0
   17.3873   17.2330    5.8643 C   0  0  0  0  0  0
   18.7844   12.4514    2.4861 H   0  0  0  0  0  0
   12.9637   14.3187    6.5755 H   0  0  0  0  0  0
    9.2256   12.9673    5.0078 H   0  0  0  0  0  0
   12.5594   13.6503    2.4030 H   0  0  0  0  0  0
   13.5177   12.2725    2.6296 H   0  0  0  0  0  0
   14.5049   11.1768    1.7011 H   0  0  0  0  0  0
   11.1477   14.0083    7.8497 H   0  0  0  0  0  0
   16.6425   15.5700    7.0088 H   0  0  0  0  0  0
   18.9950   15.3402    7.2030 H   0  0  0  0  0  0
   18.7581   14.1729    5.9523 H   0  0  0  0  0  0
   20.3877   16.4951    5.8105 H   0  0  0  0  0  0
   19.8444   15.6363    4.3830 H   0  0  0  0  0  0
   19.0944   18.2953    4.9926 H   0  0  0  0  0  0
   18.2464   17.2344    3.8783 H   0  0  0  0  0  0
   16.4550   17.6327    5.4802 H   0  0  0  0  0  0
   17.6032   17.7423    6.8032 H   0  0  0  0  0  0
  1  2  2  0  0  0
  1  4  1  0  0  0
  2  3  1  0  0  0
  2 24  1  0  0  0
  3  6  2  0  0  0
  4  5  2  0  0  0
  4 16  1  0  0  0
  5  9  1  0  0  0
  5  6  1  0  0  0
  6  7  1  0  0  0
  7  8  1  0  0  0
  7 19  1  0  0  0
  8  9  2  0  0  0
  9 10  1  0  0  0
 10 15  1  0  0  0
 10 11  2  0  0  0
 11 12  1  0  0  0
 11 25  1  0  0  0
 12 13  2  0  0  0
 12 17  1  0  0  0
 13 14  1  0  0  0
 13 26  1  0  0  0
 14 15  2  0  0  0
 14 18  1  0  0  0
 15 27  1  0  0  0
 16 28  1  0  0  0
 16 29  1  0  0  0
 17 30  1  0  0  0
 19 20  1  0  0  0
 19 23  1  0  0  0
 19 31  1  0  0  0
 20 21  1  0  0  0
 20 32  1  0  0  0
 20 33  1  0  0  0
 21 22  1  0  0  0
 21 34  1  0  0  0
 21 35  1  0  0  0
 22 23  1  0  0  0
 22 36  1  0  0  0
 22 37  1  0  0  0
 23 38  1  0  0  0
 23 39  1  0  0  0
M  END
> <s_m_entry_id>
6228

> <s_m_entry_name>
dock_pv.154

> <s_m_Source_Path>
/home/csk/Desktop/cluster/DUD-E-result/abl1

> <s_m_Source_File>
dock_pv.maegz

> <i_m_Source_File_Index>
154

> <chembl_id>
CHEMBL1242199

> <chembl_pref_name>
None

> <i_lp_mmshare_version>
53161

> <i_f3d_flags>
0

> <r_lp_tautomer_probability>
0.999999999997365

> <s_lp_Force_Field>
OPLS_2005

> <r_lp_Energy>
29.967803

> <b_lp_Chiralities_Consistent>
1

> <s_lp_Variant>
CHEMBL1862_lig462-1

> <s_i_glide_gridfile>
glide-grid_2hzi

> <i_i_glide_lignum>
551

> <i_i_glide_rotatable_bonds>
3

> <r_i_docking_score>
-9.98957068510999

> <r_i_glide_ligand_efficiency>
-0.434329160222173

> <r_i_glide_ligand_efficiency_sa>
-1.23517435585154

> <r_i_glide_ligand_efficiency_ln>
-2.41556877207857

> <r_i_glide_gscore>
-9.98957068510999

> <r_i_glide_lipo>
-3.67289738608435

> <r_i_glide_hbond>
-0.759984503887533

> <r_i_glide_metal>
0

> <r_i_glide_rewards>
-3.37828481615136

> <r_i_glide_evdw>
-24.6337699890137

> <r_i_glide_ecoul>
-8.07708835601807

> <r_i_glide_erotb>
0.264847773866639

> <r_i_glide_esite>
0

> <r_i_glide_emodel>
-34.2644695502701

> <r_i_glide_energy>
-32.7108583450317

> <r_i_glide_einternal>
2.40014290809631

> <i_i_glide_confnum>
43

> <i_i_glide_posenum>
293

> <r_i_glide_eff_state_penalty>
0

> <s_user_duplicate_titles>
CHEMBL1862_lig462

> <s_m_subgroup_title>
dock_pv

> <s_m_subgroupid>
dock_pv

> <b_m_subgroup_collapsed>
0

$$$$
CHEMBL1862_lig434
                    3D
 Schrodinger Suite 2021-1.
 37 40  0  0  1  0            999 V2000
   16.1074   12.0676    2.1116 N   0  0  0  0  0  0
   14.7651   12.0326    2.0030 C   0  0  0  0  0  0
   13.8356   12.6901    2.7269 N   0  0  0  0  0  0
   16.6151   12.9433    2.9918 C   0  0  0  0  0  0
   15.7677   13.8348    3.6828 C   0  0  0  0  0  0
   14.3751   13.5870    3.5382 C   0  0  0  0  0  0
   13.7239   14.4536    4.3933 N   0  0  0  0  0  0
   14.6348   15.2606    4.9941 N   0  0  0  0  0  0
   15.8411   14.9808    4.5264 C   0  0  0  0  0  0
   17.0396   15.8398    4.8025 C   0  0  0  0  0  0
   18.1565   15.8407    3.9373 C   0  0  0  0  0  0
   19.2526   16.6823    4.1434 C   0  0  0  0  0  0
   19.2165   17.5817    5.2095 C   0  0  0  0  0  0
   18.0897   17.6252    6.0143 C   0  0  0  0  0  0
   17.0262   16.7460    5.8521 C   0  0  0  0  0  0
   17.9830   12.8398    3.1983 N   0  0  0  0  0  0
   20.2576   18.4041    5.4946 F   0  0  0  0  0  0
   20.3388   16.6215    3.3102 O   0  0  0  0  0  0
   12.3053   14.5144    4.8029 C   0  0  1  0  0  0
   11.1929   14.0418    3.8744 C   0  0  0  0  0  0
   10.0353   13.6675    4.8067 C   0  0  0  0  0  0
   10.6067   13.6244    6.1115 O   0  0  0  0  0  0
   12.0243   13.6336    6.0217 C   0  0  0  0  0  0
   14.4092   11.3770    1.2298 H   0  0  0  0  0  0
   18.1743   15.2242    3.0653 H   0  0  0  0  0  0
   18.0361   18.3611    6.8012 H   0  0  0  0  0  0
   16.1693   16.8072    6.5105 H   0  0  0  0  0  0
   18.4278   13.4144    3.8976 H   0  0  0  0  0  0
   18.5062   12.1684    2.6532 H   0  0  0  0  0  0
   20.3337   15.8844    2.6866 H   0  0  0  0  0  0
   12.1392   15.5542    5.0835 H   0  0  0  0  0  0
   10.8776   14.8314    3.2000 H   0  0  0  0  0  0
   11.4574   13.1578    3.2911 H   0  0  0  0  0  0
    9.2725   14.4447    4.7858 H   0  0  0  0  0  0
    9.5979   12.7082    4.5193 H   0  0  0  0  0  0
   12.3976   12.6264    5.9024 H   0  0  0  0  0  0
   12.4585   14.0420    6.9327 H   0  0  0  0  0  0
  1  2  2  0  0  0
  1  4  1  0  0  0
  2  3  1  0  0  0
  2 24  1  0  0  0
  3  6  2  0  0  0
  4  5  2  0  0  0
  4 16  1  0  0  0
  5  9  1  0  0  0
  5  6  1  0  0  0
  6  7  1  0  0  0
  7  8  1  0  0  0
  7 19  1  0  0  0
  8  9  2  0  0  0
  9 10  1  0  0  0
 10 15  1  0  0  0
 10 11  2  0  0  0
 11 12  1  0  0  0
 11 25  1  0  0  0
 12 13  2  0  0  0
 12 18  1  0  0  0
 13 14  1  0  0  0
 13 17  1  0  0  0
 14 15  2  0  0  0
 14 26  1  0  0  0
 15 27  1  0  0  0
 16 28  1  0  0  0
 16 29  1  0  0  0
 18 30  1  0  0  0
 19 20  1  0  0  0
 19 23  1  0  0  0
 19 31  1  0  0  0
 20 21  1  0  0  0
 20 32  1  0  0  0
 20 33  1  0  0  0
 21 22  1  0  0  0
 21 34  1  0  0  0
 21 35  1  0  0  0
 22 23  1  0  0  0
 23 36  1  0  0  0
 23 37  1  0  0  0
M  END
> <s_m_entry_id>
6229

> <s_m_entry_name>
dock_pv.155

> <s_m_Source_Path>
/home/csk/Desktop/cluster/DUD-E-result/abl1

> <s_m_Source_File>
dock_pv.maegz

> <i_m_Source_File_Index>
155

> <chembl_id>
CHEMBL1242748

> <chembl_pref_name>
None

> <i_lp_mmshare_version>
53161

> <i_f3d_flags>
0

> <r_lp_tautomer_probability>
0.999999999997365

> <s_lp_Force_Field>
OPLS_2005

> <r_lp_Energy>
25.719462

> <b_lp_Chiralities_Consistent>
1

> <s_lp_Variant>
CHEMBL1862_lig434-1

> <s_i_glide_gridfile>
glide-grid_2hzi

> <i_i_glide_lignum>
522

> <i_i_glide_rotatable_bonds>
3

> <r_i_docking_score>
-9.98673597345887

> <r_i_glide_ligand_efficiency>
-0.434205911889516

> <r_i_glide_ligand_efficiency_sa>
-1.23482385398834

> <r_i_glide_ligand_efficiency_ln>
-2.41488331309758

> <r_i_glide_gscore>
-9.98673597345887

> <r_i_glide_lipo>
-3.16055550741701

> <r_i_glide_hbond>
-0.614361723669093

> <r_i_glide_metal>
0

> <r_i_glide_rewards>
-4.02846893810187

> <r_i_glide_evdw>
-25.8728713989258

> <r_i_glide_ecoul>
-7.6776442527771

> <r_i_glide_erotb>
0.261940403591956

> <r_i_glide_esite>
0

> <r_i_glide_emodel>
-31.3182257591873

> <r_i_glide_energy>
-33.5505156517029

> <r_i_glide_einternal>
6.05429220199585

> <i_i_glide_confnum>
12

> <i_i_glide_posenum>
154

> <r_i_glide_eff_state_penalty>
0

> <s_user_duplicate_titles>
CHEMBL1862_lig434

> <s_m_subgroup_title>
dock_pv

> <s_m_subgroupid>
dock_pv

> <b_m_subgroup_collapsed>
0

$$$$
CHEMBL1862_lig468
                    3D
 Schrodinger Suite 2021-1.
 49 52  0  0  1  0            999 V2000
   16.1714   12.0577    2.0105 N   0  0  0  0  0  0
   14.8251   12.0335    2.1242 C   0  0  0  0  0  0
   14.0630   12.6645    3.0416 N   0  0  0  0  0  0
   16.8381   12.9245    2.8023 C   0  0  0  0  0  0
   16.1441   13.8217    3.6227 C   0  0  0  0  0  0
   14.7604   13.5458    3.7586 C   0  0  0  0  0  0
   14.3257   14.3230    4.8032 N   0  0  0  0  0  0
   15.2854   15.2323    5.1238 N   0  0  0  0  0  0
   16.3759   14.9884    4.4258 C   0  0  0  0  0  0
   17.5781   15.9015    4.4970 C   0  0  0  0  0  0
   18.5556   15.9331    3.4893 C   0  0  0  0  0  0
   19.6477   16.8106    3.5488 C   0  0  0  0  0  0
   19.8066   17.6351    4.6643 C   0  0  0  0  0  0
   18.7863   17.6929    5.6029 C   0  0  0  0  0  0
   17.7042   16.8179    5.5486 C   0  0  0  0  0  0
   18.2207   12.8342    2.8025 N   0  0  0  0  0  0
   20.5834   16.9114    2.5501 O   0  0  0  0  0  0
   20.9124   18.4332    4.8530 O   0  0  0  0  0  0
   22.1809   17.7799    4.8527 C   0  0  0  0  0  0
   20.1246   16.9958    1.2130 C   0  0  0  0  0  0
   23.2110   18.6676    5.5534 C   0  0  0  0  0  0
   12.9822   14.4804    5.3922 C   0  0  0  0  0  0
   12.1578   15.4075    4.5196 C   0  0  0  0  0  0
   11.3423   14.4330    3.6326 C   0  0  0  0  0  0
   10.8884   13.3590    4.5793 C   0  0  0  0  0  0
   12.0523   13.2617    5.5783 C   0  0  0  0  0  0
   14.3249   11.3158    1.4875 H   0  0  0  0  0  0
   18.4686   15.2977    2.6305 H   0  0  0  0  0  0
   18.8555   18.4111    6.4035 H   0  0  0  0  0  0
   16.9519   16.8693    6.3228 H   0  0  0  0  0  0
   18.7594   13.4357    3.4062 H   0  0  0  0  0  0
   18.6720   12.1680    2.1814 H   0  0  0  0  0  0
   22.5155   17.6068    3.8309 H   0  0  0  0  0  0
   22.1317   16.8116    5.3536 H   0  0  0  0  0  0
   20.9544   17.2912    0.5710 H   0  0  0  0  0  0
   19.7654   16.0331    0.8660 H   0  0  0  0  0  0
   19.3279   17.7332    1.1050 H   0  0  0  0  0  0
   24.1987   18.2149    5.5247 H   0  0  0  0  0  0
   22.9632   18.8306    6.5998 H   0  0  0  0  0  0
   23.2810   19.6402    5.0715 H   0  0  0  0  0  0
   13.2859   14.8330    6.3695 H   0  0  0  0  0  0
   11.4771   16.0118    5.1139 H   0  0  0  0  0  0
   12.8218   16.1088    4.0038 H   0  0  0  0  0  0
   10.4909   14.9184    3.1647 H   0  0  0  0  0  0
   11.9575   14.0285    2.8307 H   0  0  0  0  0  0
    9.9720   13.6610    5.0897 H   0  0  0  0  0  0
   10.6717   12.4561    4.0040 H   0  0  0  0  0  0
   12.5650   12.3587    5.4120 H   0  0  0  0  0  0
   11.6718   13.2197    6.6009 H   0  0  0  0  0  0
  1  2  2  0  0  0
  1  4  1  0  0  0
  2  3  1  0  0  0
  2 27  1  0  0  0
  3  6  2  0  0  0
  4  5  2  0  0  0
  4 16  1  0  0  0
  5  9  1  0  0  0
  5  6  1  0  0  0
  6  7  1  0  0  0
  7  8  1  0  0  0
  7 22  1  0  0  0
  8  9  2  0  0  0
  9 10  1  0  0  0
 10 15  1  0  0  0
 10 11  2  0  0  0
 11 12  1  0  0  0
 11 28  1  0  0  0
 12 13  2  0  0  0
 12 17  1  0  0  0
 13 14  1  0  0  0
 13 18  1  0  0  0
 14 15  2  0  0  0
 14 29  1  0  0  0
 15 30  1  0  0  0
 16 31  1  0  0  0
 16 32  1  0  0  0
 17 20  1  0  0  0
 18 19  1  0  0  0
 19 21  1  0  0  0
 19 33  1  0  0  0
 19 34  1  0  0  0
 20 35  1  0  0  0
 20 36  1  0  0  0
 20 37  1  0  0  0
 21 38  1  0  0  0
 21 39  1  0  0  0
 21 40  1  0  0  0
 22 23  1  0  0  0
 22 26  1  0  0  0
 22 41  1  0  0  0
 23 24  1  0  0  0
 23 42  1  0  0  0
 23 43  1  0  0  0
 24 25  1  0  0  0
 24 44  1  0  0  0
 24 45  1  0  0  0
 25 26  1  0  0  0
 25 46  1  0  0  0
 25 47  1  0  0  0
 26 48  1  0  0  0
 26 49  1  0  0  0
M  END
> <s_m_entry_id>
6230

> <s_m_entry_name>
dock_pv.156

> <s_m_Source_Path>
/home/csk/Desktop/cluster/DUD-E-result/abl1

> <s_m_Source_File>
dock_pv.maegz

> <i_m_Source_File_Index>
156

> <chembl_id>
CHEMBL1240554

> <chembl_pref_name>
None

> <i_lp_mmshare_version>
53161

> <i_f3d_flags>
0

> <r_lp_tautomer_probability>
1

> <s_lp_Force_Field>
OPLS_2005

> <r_lp_Energy>
37.551492

> <b_lp_Chiralities_Consistent>
1

> <s_lp_Variant>
CHEMBL1862_lig468-1

> <s_i_glide_gridfile>
glide-grid_2hzi

> <i_i_glide_lignum>
557

> <i_i_glide_rotatable_bonds>
5

> <r_i_docking_score>
-9.96911663152362

> <r_i_glide_ligand_efficiency>
-0.383427562750908

> <r_i_glide_ligand_efficiency_sa>
-1.13590264593496

> <r_i_glide_ligand_efficiency_ln>
-2.3412143295736

> <r_i_glide_gscore>
-9.96911663152362

> <r_i_glide_lipo>
-3.95706289915898

> <r_i_glide_hbond>
-0.608

> <r_i_glide_metal>
0

> <r_i_glide_rewards>
-3.30682065216228

> <r_i_glide_evdw>
-27.0499324798584

> <r_i_glide_ecoul>
-7.10536527633667

> <r_i_glide_erotb>
0.321068335241063

> <r_i_glide_esite>
0

> <r_i_glide_emodel>
-36.107660367475

> <r_i_glide_energy>
-34.1552977561951

> <r_i_glide_einternal>
12.764048576355

> <i_i_glide_confnum>
157

> <i_i_glide_posenum>
301

> <r_i_glide_eff_state_penalty>
0

> <s_user_duplicate_titles>
CHEMBL1862_lig468

> <s_m_subgroup_title>
dock_pv

> <s_m_subgroupid>
dock_pv

> <b_m_subgroup_collapsed>
0

$$$$
CHEMBL1862_lig477
                    3D
 Schrodinger Suite 2021-1.
 41 44  0  0  1  0            999 V2000
   15.7640   12.1064    2.0030 N   0  0  0  0  0  0
   14.4156   12.0330    2.0030 C   0  0  0  0  0  0
   13.5371   12.6832    2.7958 N   0  0  0  0  0  0
   16.3181   13.0110    2.8288 C   0  0  0  0  0  0
   15.5080   13.8488    3.6222 C   0  0  0  0  0  0
   14.1220   13.5856    3.5804 C   0  0  0  0  0  0
   13.5309   14.4333    4.4911 N   0  0  0  0  0  0
   14.4808   15.2273    5.0746 N   0  0  0  0  0  0
   15.6499   14.9394    4.5304 C   0  0  0  0  0  0
   16.9615   15.5998    4.8187 C   0  0  0  0  0  0
   17.7640   15.9483    3.7312 C   0  0  0  0  0  0
   19.1263   16.1879    3.8689 C   0  0  0  0  0  0
   19.7150   16.0660    5.1338 C   0  0  0  0  0  0
   18.9039   15.7718    6.2311 C   0  0  0  0  0  0
   17.5223   15.6330    6.0924 C   0  0  0  0  0  0
   17.7077   13.0262    2.8647 N   0  0  0  0  0  0
   21.0910   16.2255    5.3221 N   0  0  0  0  0  0
   19.8509   16.4531    2.7339 O   0  0  0  0  0  0
   12.1191   14.4987    4.9311 C   0  0  0  0  0  0
   10.9953   14.0694    3.9619 C   0  0  0  0  0  0
    9.7630   13.8093    4.8416 C   0  0  0  0  0  0
   10.2841   13.6329    6.2718 C   0  0  0  0  0  0
   11.8132   13.6330    6.1573 C   0  0  0  0  0  0
   13.9931   11.3345    1.2945 H   0  0  0  0  0  0
   17.3284   15.9539    2.7503 H   0  0  0  0  0  0
   19.3471   15.6330    7.2030 H   0  0  0  0  0  0
   16.9260   15.3677    6.9534 H   0  0  0  0  0  0
   18.1784   13.6800    3.4727 H   0  0  0  0  0  0
   18.2257   12.3952    2.2668 H   0  0  0  0  0  0
   21.4898   16.1427    6.2457 H   0  0  0  0  0  0
   21.6525   16.5531    4.5493 H   0  0  0  0  0  0
   20.5640   15.8222    2.5795 H   0  0  0  0  0  0
   11.9603   15.5458    5.1891 H   0  0  0  0  0  0
   10.7736   14.8161    3.2029 H   0  0  0  0  0  0
   11.2174   13.1315    3.4573 H   0  0  0  0  0  0
    9.0664   14.6472    4.7937 H   0  0  0  0  0  0
    9.2190   12.9250    4.5044 H   0  0  0  0  0  0
    9.9489   14.4571    6.9021 H   0  0  0  0  0  0
    9.9073   12.7217    6.7339 H   0  0  0  0  0  0
   12.1640   12.6155    6.0030 H   0  0  0  0  0  0
   12.2961   14.0038    7.0599 H   0  0  0  0  0  0
  1  2  2  0  0  0
  1  4  1  0  0  0
  2  3  1  0  0  0
  2 24  1  0  0  0
  3  6  2  0  0  0
  4  5  2  0  0  0
  4 16  1  0  0  0
  5  9  1  0  0  0
  5  6  1  0  0  0
  6  7  1  0  0  0
  7  8  1  0  0  0
  7 19  1  0  0  0
  8  9  2  0  0  0
  9 10  1  0  0  0
 10 15  1  0  0  0
 10 11  2  0  0  0
 11 12  1  0  0  0
 11 25  1  0  0  0
 12 13  2  0  0  0
 12 18  1  0  0  0
 13 14  1  0  0  0
 13 17  1  0  0  0
 14 15  2  0  0  0
 14 26  1  0  0  0
 15 27  1  0  0  0
 16 28  1  0  0  0
 16 29  1  0  0  0
 17 30  1  0  0  0
 17 31  1  0  0  0
 18 32  1  0  0  0
 19 20  1  0  0  0
 19 23  1  0  0  0
 19 33  1  0  0  0
 20 21  1  0  0  0
 20 34  1  0  0  0
 20 35  1  0  0  0
 21 22  1  0  0  0
 21 36  1  0  0  0
 21 37  1  0  0  0
 22 23  1  0  0  0
 22 38  1  0  0  0
 22 39  1  0  0  0
 23 40  1  0  0  0
 23 41  1  0  0  0
M  END
> <s_m_entry_id>
6231

> <s_m_entry_name>
dock_pv.157

> <s_m_Source_Path>
/home/csk/Desktop/cluster/DUD-E-result/abl1

> <s_m_Source_File>
dock_pv.maegz

> <i_m_Source_File_Index>
157

> <chembl_id>
CHEMBL1241487

> <chembl_pref_name>
None

> <i_lp_mmshare_version>
53161

> <i_f3d_flags>
0

> <r_lp_tautomer_probability>
1

> <s_lp_Force_Field>
OPLS_2005

> <r_lp_Energy>
31.861289

> <b_lp_Chiralities_Consistent>
1

> <s_lp_Variant>
CHEMBL1862_lig477-1

> <s_i_glide_gridfile>
glide-grid_2hzi

> <i_i_glide_lignum>
567

> <i_i_glide_rotatable_bonds>
3

> <r_i_docking_score>
-9.94723098355619

> <r_i_glide_ligand_efficiency>
-0.432488303632878

> <r_i_glide_ligand_efficiency_sa>
-1.22993920458807

> <r_i_glide_ligand_efficiency_ln>
-2.40533064832767

> <r_i_glide_gscore>
-9.94723098355619

> <r_i_glide_lipo>
-3.44343615579358

> <r_i_glide_hbond>
-0.715321680904247

> <r_i_glide_metal>
0

> <r_i_glide_rewards>
-3.57196245584689

> <r_i_glide_evdw>
-29.6914291381836

> <r_i_glide_ecoul>
-6.67510366439819

> <r_i_glide_erotb>
0.269326315557431

> <r_i_glide_esite>
0

> <r_i_glide_emodel>
-29.9789757147513

> <r_i_glide_energy>
-36.3665328025818

> <r_i_glide_einternal>
15.4495038986206

> <i_i_glide_confnum>
13

> <i_i_glide_posenum>
188

> <r_i_glide_eff_state_penalty>
0

> <s_user_duplicate_titles>
CHEMBL1862_lig477

> <s_m_subgroup_title>
dock_pv

> <s_m_subgroupid>
dock_pv

> <b_m_subgroup_collapsed>
0

$$$$
CHEMBL1862_lig513
                    3D
 Schrodinger Suite 2021-1.
 42 44  0  0  1  0            999 V2000
   15.9669   12.0999    2.0030 N   0  0  0  0  0  0
   14.6178   12.0330    2.0030 C   0  0  0  0  0  0
   13.7464   12.6603    2.8148 N   0  0  0  0  0  0
   16.5303   12.9901    2.8403 C   0  0  0  0  0  0
   15.7269   13.8414    3.6247 C   0  0  0  0  0  0
   14.3378   13.5596    3.5985 C   0  0  0  0  0  0
   13.7351   14.4045    4.5040 N   0  0  0  0  0  0
   14.6674   15.2341    5.0377 N   0  0  0  0  0  0
   15.8454   14.9788    4.4838 C   0  0  0  0  0  0
   17.0495   15.8575    4.7021 C   0  0  0  0  0  0
   18.0694   15.9908    3.7350 C   0  0  0  0  0  0
   19.1504   16.8716    3.9182 C   0  0  0  0  0  0
   19.2223   17.6039    5.1054 C   0  0  0  0  0  0
   18.1640   17.5545    6.0030 C   0  0  0  0  0  0
   17.1108   16.6651    5.8367 C   0  0  0  0  0  0
   17.9181   12.9687    2.8988 N   0  0  0  0  0  0
   12.3083   14.5099    4.8966 C   0  0  0  0  0  0
   11.9910   13.6902    6.1634 C   0  0  0  0  0  0
   20.1449   17.0950    2.9862 O   0  0  0  0  0  0
   20.2784   18.4330    5.3935 O   0  0  0  0  0  0
   21.5246   17.7810    5.6189 C   0  0  0  0  0  0
   11.3311   14.0844    3.7788 C   0  0  0  0  0  0
   19.8181   17.0513    1.6047 C   0  0  0  0  0  0
   14.1871   11.3424    1.2921 H   0  0  0  0  0  0
   17.9959   15.4590    2.8034 H   0  0  0  0  0  0
   18.1639   18.2050    6.8617 H   0  0  0  0  0  0
   16.3224   16.6367    6.5759 H   0  0  0  0  0  0
   18.3999   13.5867    3.5347 H   0  0  0  0  0  0
   18.4245   12.3263    2.3009 H   0  0  0  0  0  0
   12.1287   15.5661    5.0983 H   0  0  0  0  0  0
   10.9424   13.8056    6.4412 H   0  0  0  0  0  0
   12.1641   12.6274    6.0242 H   0  0  0  0  0  0
   12.5640   14.0258    7.0215 H   0  0  0  0  0  0
   22.2561   18.5150    5.9583 H   0  0  0  0  0  0
   21.4423   17.0164    6.3937 H   0  0  0  0  0  0
   21.9238   17.3190    4.7156 H   0  0  0  0  0  0
   10.3297   14.4754    3.9599 H   0  0  0  0  0  0
   11.6545   14.4328    2.8040 H   0  0  0  0  0  0
   11.2422   12.9996    3.7061 H   0  0  0  0  0  0
   20.6054   17.5483    1.0379 H   0  0  0  0  0  0
   19.7640   16.0330    1.2398 H   0  0  0  0  0  0
   18.8848   17.5671    1.3805 H   0  0  0  0  0  0
  1  2  2  0  0  0
  1  4  1  0  0  0
  2  3  1  0  0  0
  2 24  1  0  0  0
  3  6  2  0  0  0
  4  5  2  0  0  0
  4 16  1  0  0  0
  5  9  1  0  0  0
  5  6  1  0  0  0
  6  7  1  0  0  0
  7 17  1  0  0  0
  7  8  1  0  0  0
  8  9  2  0  0  0
  9 10  1  0  0  0
 10 15  1  0  0  0
 10 11  2  0  0  0
 11 12  1  0  0  0
 11 25  1  0  0  0
 12 13  2  0  0  0
 12 19  1  0  0  0
 13 14  1  0  0  0
 13 20  1  0  0  0
 14 15  2  0  0  0
 14 26  1  0  0  0
 15 27  1  0  0  0
 16 28  1  0  0  0
 16 29  1  0  0  0
 17 18  1  0  0  0
 17 22  1  0  0  0
 17 30  1  0  0  0
 18 31  1  0  0  0
 18 32  1  0  0  0
 18 33  1  0  0  0
 19 23  1  0  0  0
 20 21  1  0  0  0
 21 34  1  0  0  0
 21 35  1  0  0  0
 21 36  1  0  0  0
 22 37  1  0  0  0
 22 38  1  0  0  0
 22 39  1  0  0  0
 23 40  1  0  0  0
 23 41  1  0  0  0
 23 42  1  0  0  0
M  END
> <s_m_entry_id>
6232

> <s_m_entry_name>
dock_pv.158

> <s_m_Source_Path>
/home/csk/Desktop/cluster/DUD-E-result/abl1

> <s_m_Source_File>
dock_pv.maegz

> <i_m_Source_File_Index>
158

> <chembl_id>
CHEMBL1242290

> <chembl_pref_name>
None

> <i_lp_mmshare_version>
53161

> <i_f3d_flags>
0

> <r_lp_tautomer_probability>
1

> <s_lp_Force_Field>
OPLS_2005

> <r_lp_Energy>
19.660092

> <b_lp_Chiralities_Consistent>
1

> <s_lp_Variant>
CHEMBL1862_lig513-1

> <s_i_glide_gridfile>
glide-grid_2hzi

> <i_i_glide_lignum>
610

> <i_i_glide_rotatable_bonds>
4

> <r_i_docking_score>
-9.91607105559126

> <r_i_glide_ligand_efficiency>
-0.431133524156142

> <r_i_glide_ligand_efficiency_sa>
-1.22608639197323

> <r_i_glide_ligand_efficiency_ln>
-2.39779589520314

> <r_i_glide_gscore>
-9.91607105559126

> <r_i_glide_lipo>
-3.45683001076753

> <r_i_glide_hbond>
-0.562682544210319

> <r_i_glide_metal>
0

> <r_i_glide_rewards>
-3.5430310753309

> <r_i_glide_evdw>
-32.5377883911133

> <r_i_glide_ecoul>
-5.72695636749268

> <r_i_glide_erotb>
0.132405449397063

> <r_i_glide_esite>
0

> <r_i_glide_emodel>
-40.6584153215419

> <r_i_glide_energy>
-38.264744758606

> <r_i_glide_einternal>
11.7589063644409

> <i_i_glide_confnum>
3

> <i_i_glide_posenum>
38

> <r_i_glide_eff_state_penalty>
0

> <s_user_duplicate_titles>
CHEMBL1862_lig513

> <s_m_subgroup_title>
dock_pv

> <s_m_subgroupid>
dock_pv

> <b_m_subgroup_collapsed>
0

$$$$
CHEMBL1862_lig558
                    3D
 Schrodinger Suite 2021-1.
 46 49  0  0  1  0            999 V2000
   16.7123   12.0330    2.0117 N   0  0  0  0  0  0
   15.3640   12.0330    2.0025 C   0  0  0  0  0  0
   14.5403   12.7853    2.7255 N   0  0  0  0  0  0
   17.3234   12.9261    2.8075 C   0  0  0  0  0  0
   16.5832   13.7973    3.6030 C   0  0  0  0  0  0
   15.1896   13.6473    3.4958 C   0  0  0  0  0  0
   14.6399   14.5686    4.3291 N   0  0  0  0  0  0
   15.6199   15.2332    5.0101 N   0  0  0  0  0  0
   16.7842   14.8123    4.5860 C   0  0  0  0  0  0
   18.6983   12.9131    2.8030 N   0  0  0  0  0  0
   13.2152   14.8898    4.5137 C   0  0  0  0  0  0
   13.1621   16.4170    4.4030 C   0  0  0  0  0  0
   12.7732   14.2983    5.8380 C   0  0  0  0  0  0
   18.0869   15.2886    5.2075 C   0  0  0  0  0  0
   19.0050   16.1014    4.2911 C   0  0  0  0  0  0
   20.6411   17.6330    2.5840 C   0  0  0  0  0  0
   19.3740   17.2487    2.1821 C   0  0  0  0  0  0
   18.5641   16.5238    3.0397 C   0  0  0  0  0  0
   21.1184   17.2895    3.8670 C   0  0  0  0  0  0
   20.3203   16.4617    4.7205 C   0  0  0  0  0  0
   20.8889   16.0288    5.9492 C   0  0  0  0  0  0
   22.1670   16.4327    6.3121 C   0  0  0  0  0  0
   22.8910   17.3166    5.5277 C   0  0  0  0  0  0
   22.3826   17.7416    4.3101 C   0  0  0  0  0  0
   12.2501   14.2308    3.4967 C   0  0  0  0  0  0
   14.8829   11.3123    1.3552 H   0  0  0  0  0  0
   19.1904   13.7474    3.0912 H   0  0  0  0  0  0
   19.1236   12.2746    2.1319 H   0  0  0  0  0  0
   13.6347   16.7631    3.4875 H   0  0  0  0  0  0
   12.1602   16.8327    4.4575 H   0  0  0  0  0  0
   13.8202   16.8330    5.1502 H   0  0  0  0  0  0
   12.9161   13.2330    5.8192 H   0  0  0  0  0  0
   13.3649   14.6589    6.6655 H   0  0  0  0  0  0
   11.7055   14.4330    6.0030 H   0  0  0  0  0  0
   17.8933   15.8967    6.0927 H   0  0  0  0  0  0
   18.6318   14.4100    5.5538 H   0  0  0  0  0  0
   21.2619   18.2218    1.9230 H   0  0  0  0  0  0
   19.0068   17.5397    1.2091 H   0  0  0  0  0  0
   17.5679   16.2862    2.7087 H   0  0  0  0  0  0
   20.3432   15.3670    6.6035 H   0  0  0  0  0  0
   22.6196   16.0467    7.2046 H   0  0  0  0  0  0
   23.8721   17.6371    5.8459 H   0  0  0  0  0  0
   22.9640   18.3944    3.6782 H   0  0  0  0  0  0
   12.1826   13.1469    3.6068 H   0  0  0  0  0  0
   11.2293   14.6005    3.6061 H   0  0  0  0  0  0
   12.5640   14.4277    2.4779 H   0  0  0  0  0  0
  1  2  2  0  0  0
  1  4  1  0  0  0
  2  3  1  0  0  0
  2 26  1  0  0  0
  3  6  2  0  0  0
  4  5  2  0  0  0
  4 10  1  0  0  0
  5  9  1  0  0  0
  5  6  1  0  0  0
  6  7  1  0  0  0
  7  8  1  0  0  0
  7 11  1  0  0  0
  8  9  2  0  0  0
  9 14  1  0  0  0
 10 27  1  0  0  0
 10 28  1  0  0  0
 11 12  1  0  0  0
 11 13  1  0  0  0
 11 25  1  0  0  0
 12 29  1  0  0  0
 12 30  1  0  0  0
 12 31  1  0  0  0
 13 32  1  0  0  0
 13 33  1  0  0  0
 13 34  1  0  0  0
 14 15  1  0  0  0
 14 35  1  0  0  0
 14 36  1  0  0  0
 15 20  2  0  0  0
 15 18  1  0  0  0
 16 19  2  0  0  0
 16 17  1  0  0  0
 16 37  1  0  0  0
 17 18  2  0  0  0
 17 38  1  0  0  0
 18 39  1  0  0  0
 19 20  1  0  0  0
 19 24  1  0  0  0
 20 21  1  0  0  0
 21 22  2  0  0  0
 21 40  1  0  0  0
 22 23  1  0  0  0
 22 41  1  0  0  0
 23 24  2  0  0  0
 23 42  1  0  0  0
 24 43  1  0  0  0
 25 44  1  0  0  0
 25 45  1  0  0  0
 25 46  1  0  0  0
M  END
> <s_m_entry_id>
6233

> <s_m_entry_name>
dock_pv.159

> <s_m_Source_Path>
/home/csk/Desktop/cluster/DUD-E-result/abl1

> <s_m_Source_File>
dock_pv.maegz

> <i_m_Source_File_Index>
159

> <chembl_id>
CHEMBL573578

> <chembl_pref_name>
None

> <i_lp_mmshare_version>
53161

> <i_f3d_flags>
0

> <r_lp_tautomer_probability>
1

> <s_lp_Force_Field>
OPLS_2005

> <r_lp_Energy>
20.98046

> <b_lp_Chiralities_Consistent>
1

> <s_lp_Variant>
CHEMBL1862_lig558-1

> <s_i_glide_gridfile>
glide-grid_2hzi

> <i_i_glide_lignum>
661

> <i_i_glide_rotatable_bonds>
3

> <r_i_docking_score>
-9.91515380898822

> <r_i_glide_ligand_efficiency>
-0.396606152359529

> <r_i_glide_ligand_efficiency_sa>
-1.15968342333932

> <r_i_glide_ligand_efficiency_ln>
-2.35018858591269

> <r_i_glide_gscore>
-9.91515380898822

> <r_i_glide_lipo>
-4.46753470498346

> <r_i_glide_hbond>
-0.608

> <r_i_glide_metal>
0

> <r_i_glide_rewards>
-3.65665371675583

> <r_i_glide_evdw>
-13.9927730560303

> <r_i_glide_ecoul>
-5.50693082809448

> <r_i_glide_erotb>
0.342712889766759

> <r_i_glide_esite>
0

> <r_i_glide_emodel>
-27.5851140684415

> <r_i_glide_energy>
-19.4997038841248

> <r_i_glide_einternal>
3.3348376750946

> <i_i_glide_confnum>
1

> <i_i_glide_posenum>
93

> <r_i_glide_eff_state_penalty>
0

> <s_user_duplicate_titles>
CHEMBL1862_lig558

> <s_m_subgroup_title>
dock_pv

> <s_m_subgroupid>
dock_pv

> <b_m_subgroup_collapsed>
0

$$$$
CHEMBL1862_lig730
                    3D
 Schrodinger Suite 2021-1.
 39 41  0  0  1  0            999 V2000
   18.6144   15.7345    4.7593 C   0  0  0  0  0  0
   17.5463   16.3312    5.4374 C   0  0  0  0  0  0
   16.2315   15.8903    5.2722 C   0  0  0  0  0  0
   18.3946   14.6528    3.8999 C   0  0  0  0  0  0
   17.0818   14.1915    3.7367 C   0  0  0  0  0  0
   15.9950   14.8163    4.4028 C   0  0  0  0  0  0
   14.7769   14.2712    4.1490 N   0  0  0  0  0  0
   14.8722   13.2457    3.3417 C   0  0  0  0  0  0
   16.4782   12.8323    2.8029 S   0  0  0  0  0  0
   13.8424   12.4331    2.8890 N   0  0  0  0  0  0
   12.5242   12.6671    3.0203 C   0  0  0  0  0  0
   11.7955   11.7184    2.4024 N   0  0  0  0  0  0
   12.0243   13.6332    3.6036 O   0  0  0  0  0  0
   10.3339   11.7010    2.2995 C   0  0  0  0  0  0
    9.8421   11.5991    0.8535 C   0  0  0  0  0  0
   19.9796   16.2898    4.8968 C   0  0  0  0  0  0
   20.4512   17.2366    3.9739 C   0  0  0  0  0  0
   21.7424   17.7570    4.1534 C   0  0  0  0  0  0
   22.5637   17.3662    5.1595 N   0  0  0  0  0  0
   22.1052   16.4278    6.0228 C   0  0  0  0  0  0
   20.8263   15.8727    5.9314 C   0  0  0  0  0  0
   19.6224   17.6326    2.9458 O   0  0  0  0  0  0
   20.1968   17.6472    1.6505 C   0  0  0  0  0  0
   17.7382   17.1707    6.0906 H   0  0  0  0  0  0
   15.4170   16.3675    5.7961 H   0  0  0  0  0  0
   19.2180   14.1949    3.3715 H   0  0  0  0  0  0
   14.1136   11.6061    2.3773 H   0  0  0  0  0  0
   12.2712   10.8746    2.1048 H   0  0  0  0  0  0
    9.8774   12.5712    2.7754 H   0  0  0  0  0  0
    9.9672   10.8372    2.8512 H   0  0  0  0  0  0
    8.7513   11.6081    0.8213 H   0  0  0  0  0  0
   10.1638   10.6589    0.4031 H   0  0  0  0  0  0
   10.1905   12.4317    0.2402 H   0  0  0  0  0  0
   22.1431   18.5093    3.4913 H   0  0  0  0  0  0
   22.7905   16.1250    6.8024 H   0  0  0  0  0  0
   20.4980   15.1310    6.6450 H   0  0  0  0  0  0
   19.4238   17.8732    0.9171 H   0  0  0  0  0  0
   20.9660   18.4182    1.5767 H   0  0  0  0  0  0
   20.6205   16.6786    1.3856 H   0  0  0  0  0  0
  1  2  2  0  0  0
  1  4  1  0  0  0
  1 16  1  0  0  0
  2  3  1  0  0  0
  2 24  1  0  0  0
  3  6  2  0  0  0
  3 25  1  0  0  0
  4  5  2  0  0  0
  4 26  1  0  0  0
  5  6  1  0  0  0
  5  9  1  0  0  0
  6  7  1  0  0  0
  7  8  2  0  0  0
  8  9  1  0  0  0
  8 10  1  0  0  0
 10 11  1  0  0  0
 10 27  1  0  0  0
 11 12  1  0  0  0
 11 13  2  0  0  0
 12 14  1  0  0  0
 12 28  1  0  0  0
 14 15  1  0  0  0
 14 29  1  0  0  0
 14 30  1  0  0  0
 15 31  1  0  0  0
 15 32  1  0  0  0
 15 33  1  0  0  0
 16 17  2  0  0  0
 16 21  1  0  0  0
 17 18  1  0  0  0
 17 22  1  0  0  0
 18 19  2  0  0  0
 18 34  1  0  0  0
 19 20  1  0  0  0
 20 21  2  0  0  0
 20 35  1  0  0  0
 21 36  1  0  0  0
 22 23  1  0  0  0
 23 37  1  0  0  0
 23 38  1  0  0  0
 23 39  1  0  0  0
M  END
> <s_m_entry_id>
6234

> <s_m_entry_name>
dock_pv.160

> <s_m_Source_Path>
/home/csk/Desktop/cluster/DUD-E-result/abl1

> <s_m_Source_File>
dock_pv.maegz

> <i_m_Source_File_Index>
160

> <chembl_id>
CHEMBL2347721

> <chembl_pref_name>
None

> <i_lp_mmshare_version>
53161

> <i_f3d_flags>
0

> <r_lp_tautomer_probability>
1

> <s_lp_Force_Field>
OPLS_2005

> <r_lp_Energy>
16.863426

> <b_lp_Chiralities_Consistent>
1

> <s_lp_Variant>
CHEMBL1862_lig730-1

> <s_i_glide_gridfile>
glide-grid_2hzi

> <i_i_glide_lignum>
863

> <i_i_glide_rotatable_bonds>
6

> <r_i_docking_score>
-9.87672010429779

> <r_i_glide_ligand_efficiency>
-0.429422613230339

> <r_i_glide_ligand_efficiency_sa>
-1.22122078889095

> <r_i_glide_ligand_efficiency_ln>
-2.38828047836568

> <r_i_glide_gscore>
-9.87672010429779

> <r_i_glide_lipo>
-4.32276117378374

> <r_i_glide_hbond>
-0.473579268566459

> <r_i_glide_metal>
0

> <r_i_glide_rewards>
-2.29977395141865

> <r_i_glide_evdw>
-51.1668853759766

> <r_i_glide_ecoul>
-6.12588977813721

> <r_i_glide_erotb>
0.696622024990472

> <r_i_glide_esite>
0

> <r_i_glide_emodel>
-86.9170489784987

> <r_i_glide_energy>
-57.2927751541138

> <r_i_glide_einternal>
6.12089347839355

> <i_i_glide_confnum>
26

> <i_i_glide_posenum>
285

> <r_i_glide_eff_state_penalty>
0

> <s_user_duplicate_titles>
CHEMBL1862_lig730

> <s_m_subgroup_title>
dock_pv

> <s_m_subgroupid>
dock_pv

> <b_m_subgroup_collapsed>
0

$$$$
CHEMBL1862_lig721
                    3D
 Schrodinger Suite 2021-1.
 32 34  0  0  1  0            999 V2000
   11.7439   13.3629    3.5692 O   0  0  0  0  0  0
   12.0915   12.4327    2.8302 C   0  0  0  0  0  0
   11.2467   11.6083    2.1893 O   0  0  0  0  0  0
    9.8421   11.7146    2.3708 C   0  0  0  0  0  0
   13.3882   12.0344    2.5419 N   0  0  0  0  0  0
   14.5242   12.6957    2.9600 C   0  0  0  0  0  0
   14.5215   13.8022    3.7806 N   0  0  0  0  0  0
   15.8252   14.1923    3.9458 C   0  0  0  0  0  0
   16.4385   15.2335    4.6406 C   0  0  0  0  0  0
   15.7277   12.3233    2.6080 N   0  0  0  0  0  0
   16.5563   13.2395    3.1990 C   0  0  0  0  0  0
   17.9488   13.3354    3.1358 C   0  0  0  0  0  0
   18.5633   14.4114    3.7746 C   0  0  0  0  0  0
   17.8377   15.3392    4.5423 C   0  0  0  0  0  0
   18.5125   16.4997    5.2208 C   0  0  0  0  0  0
   17.8559   17.4271    5.6980 O   0  0  0  0  0  0
   19.9659   16.5244    5.3647 C   0  0  0  0  0  0
   20.8373   15.4919    5.6921 C   0  0  0  0  0  0
   22.1642   15.9070    5.7675 C   0  0  0  0  0  0
   22.3312   17.2592    5.5234 C   0  0  0  0  0  0
   20.8236   18.0308    5.1772 S   0  0  0  0  0  0
    9.3388   10.9127    1.8291 H   0  0  0  0  0  0
    9.5710   11.6304    3.4241 H   0  0  0  0  0  0
    9.4717   12.6696    1.9943 H   0  0  0  0  0  0
   13.4979   11.1764    2.0087 H   0  0  0  0  0  0
   13.6681   14.2065    4.1432 H   0  0  0  0  0  0
   15.8530   15.9419    5.2099 H   0  0  0  0  0  0
   18.5274   12.6303    2.5563 H   0  0  0  0  0  0
   19.6299   14.5094    3.6371 H   0  0  0  0  0  0
   20.5262   14.4747    5.8777 H   0  0  0  0  0  0
   22.9701   15.2341    5.9990 H   0  0  0  0  0  0
   23.2503   17.8267    5.5320 H   0  0  0  0  0  0
  1  2  2  0  0  0
  2  5  1  0  0  0
  2  3  1  0  0  0
  3  4  1  0  0  0
  4 22  1  0  0  0
  4 23  1  0  0  0
  4 24  1  0  0  0
  5  6  1  0  0  0
  5 25  1  0  0  0
  6 10  2  0  0  0
  6  7  1  0  0  0
  7  8  1  0  0  0
  7 26  1  0  0  0
  8 11  1  0  0  0
  8  9  2  0  0  0
  9 14  1  0  0  0
  9 27  1  0  0  0
 10 11  1  0  0  0
 11 12  2  0  0  0
 12 13  1  0  0  0
 12 28  1  0  0  0
 13 14  2  0  0  0
 13 29  1  0  0  0
 14 15  1  0  0  0
 15 17  1  0  0  0
 15 16  2  0  0  0
 17 18  2  0  0  0
 17 21  1  0  0  0
 18 19  1  0  0  0
 18 30  1  0  0  0
 19 20  2  0  0  0
 19 31  1  0  0  0
 20 21  1  0  0  0
 20 32  1  0  0  0
M  END
> <s_m_entry_id>
6235

> <s_m_entry_name>
dock_pv.161

> <s_m_Source_Path>
/home/csk/Desktop/cluster/DUD-E-result/abl1

> <s_m_Source_File>
dock_pv.maegz

> <i_m_Source_File_Index>
161

> <chembl_id>
CHEMBL9514

> <chembl_pref_name>
NOCODAZOLE

> <i_lp_mmshare_version>
53161

> <i_f3d_flags>
0

> <r_lp_tautomer_probability>
1

> <s_lp_Force_Field>
OPLS_2005

> <r_lp_Energy>
14.490369

> <b_lp_Chiralities_Consistent>
1

> <s_lp_Variant>
CHEMBL1862_lig721-1

> <s_i_glide_gridfile>
glide-grid_2hzi

> <i_i_glide_lignum>
854

> <i_i_glide_rotatable_bonds>
5

> <r_i_docking_score>
-9.87533476873333

> <r_i_glide_ligand_efficiency>
-0.470254036606349

> <r_i_glide_ligand_efficiency_sa>
-1.29739522931742

> <r_i_glide_ligand_efficiency_ln>
-2.44165656657649

> <r_i_glide_gscore>
-9.87533476873333

> <r_i_glide_lipo>
-3.13336382391216

> <r_i_glide_hbond>
-0.455615388238925

> <r_i_glide_metal>
0

> <r_i_glide_rewards>
-3.6406660315041

> <r_i_glide_evdw>
-41.2555923461914

> <r_i_glide_ecoul>
-7.66796970367432

> <r_i_glide_erotb>
0.567285547782577

> <r_i_glide_esite>
0

> <r_i_glide_emodel>
-75.6679054283297

> <r_i_glide_energy>
-48.9235620498657

> <r_i_glide_einternal>
3.65722179412842

> <i_i_glide_confnum>
37

> <i_i_glide_posenum>
313

> <r_i_glide_eff_state_penalty>
0

> <s_user_duplicate_titles>
CHEMBL1862_lig721

> <s_m_subgroup_title>
dock_pv

> <s_m_subgroupid>
dock_pv

> <b_m_subgroup_collapsed>
0

$$$$
CHEMBL1862_lig435
                    3D
 Schrodinger Suite 2021-1.
 37 40  0  0  1  0            999 V2000
   16.8315   12.0330    2.4030 N   0  0  0  0  0  0
   17.9270   12.6395    2.9207 C   0  0  0  0  0  0
   17.9649   13.7798    3.6440 N   0  0  0  0  0  0
   15.6336   12.5877    2.6985 C   0  0  0  0  0  0
   15.5208   13.6801    3.5599 C   0  0  0  0  0  0
   16.7483   14.2430    3.9535 C   0  0  0  0  0  0
   16.4339   15.3152    4.7513 N   0  0  0  0  0  0
   15.0844   15.3862    4.9498 N   0  0  0  0  0  0
   14.5054   14.4107    4.2610 C   0  0  0  0  0  0
   13.0317   14.0612    4.3530 C   0  0  0  0  0  0
   12.4231   14.0330    5.6032 C   0  0  0  0  0  0
   11.0960   13.6331    5.7927 C   0  0  0  0  0  0
   10.3181   13.2852    4.6895 C   0  0  0  0  0  0
   10.9109   13.2494    3.4346 C   0  0  0  0  0  0
   12.2478   13.6330    3.2752 C   0  0  0  0  0  0
   14.5073   12.0330    2.1350 N   0  0  0  0  0  0
    9.0116   12.9585    4.8273 F   0  0  0  0  0  0
   10.5640   13.6330    7.0568 O   0  0  0  0  0  0
   17.3875   16.2447    5.3847 C   0  0  2  0  0  0
   18.2846   16.9605    4.3654 C   0  0  0  0  0  0
   19.7257   16.6758    4.7799 C   0  0  0  0  0  0
   19.6409   15.4913    5.5505 O   0  0  0  0  0  0
   18.4154   15.5182    6.2678 C   0  0  0  0  0  0
   18.8795   12.1441    2.8030 H   0  0  0  0  0  0
   12.9943   14.3406    6.4607 H   0  0  0  0  0  0
   10.3242   12.9382    2.5821 H   0  0  0  0  0  0
   12.6487   13.6329    2.2819 H   0  0  0  0  0  0
   13.6130   12.3248    2.4945 H   0  0  0  0  0  0
   14.5642   11.1685    1.6105 H   0  0  0  0  0  0
   11.1598   13.9921    7.7255 H   0  0  0  0  0  0
   16.7854   16.9452    5.9673 H   0  0  0  0  0  0
   18.1266   16.5999    3.3475 H   0  0  0  0  0  0
   18.1245   18.0330    4.3468 H   0  0  0  0  0  0
   20.3938   16.5322    3.9293 H   0  0  0  0  0  0
   20.1599   17.4724    5.3868 H   0  0  0  0  0  0
   18.5639   16.0330    7.2030 H   0  0  0  0  0  0
   18.1641   14.4947    6.5318 H   0  0  0  0  0  0
  1  2  2  0  0  0
  1  4  1  0  0  0
  2  3  1  0  0  0
  2 24  1  0  0  0
  3  6  2  0  0  0
  4  5  2  0  0  0
  4 16  1  0  0  0
  5  9  1  0  0  0
  5  6  1  0  0  0
  6  7  1  0  0  0
  7  8  1  0  0  0
  7 19  1  0  0  0
  8  9  2  0  0  0
  9 10  1  0  0  0
 10 15  1  0  0  0
 10 11  2  0  0  0
 11 12  1  0  0  0
 11 25  1  0  0  0
 12 13  2  0  0  0
 12 18  1  0  0  0
 13 14  1  0  0  0
 13 17  1  0  0  0
 14 15  2  0  0  0
 14 26  1  0  0  0
 15 27  1  0  0  0
 16 28  1  0  0  0
 16 29  1  0  0  0
 18 30  1  0  0  0
 19 20  1  0  0  0
 19 23  1  0  0  0
 19 31  1  0  0  0
 20 21  1  0  0  0
 20 32  1  0  0  0
 20 33  1  0  0  0
 21 22  1  0  0  0
 21 34  1  0  0  0
 21 35  1  0  0  0
 22 23  1  0  0  0
 23 36  1  0  0  0
 23 37  1  0  0  0
M  END
> <s_m_entry_id>
6236

> <s_m_entry_name>
dock_pv.162

> <s_m_Source_Path>
/home/csk/Desktop/cluster/DUD-E-result/abl1

> <s_m_Source_File>
dock_pv.maegz

> <i_m_Source_File_Index>
162

> <chembl_id>
CHEMBL1242749

> <chembl_pref_name>
None

> <i_lp_mmshare_version>
53161

> <i_f3d_flags>
0

> <r_lp_tautomer_probability>
0.999999999997365

> <s_lp_Force_Field>
OPLS_2005

> <r_lp_Energy>
26.794262

> <b_lp_Chiralities_Consistent>
1

> <s_lp_Variant>
CHEMBL1862_lig435-1

> <s_i_glide_gridfile>
glide-grid_2hzi

> <i_i_glide_lignum>
523

> <i_i_glide_rotatable_bonds>
3

> <r_i_docking_score>
-9.86547447995247

> <r_i_glide_ligand_efficiency>
-0.428933673041412

> <r_i_glide_ligand_efficiency_sa>
-1.219830308034

> <r_i_glide_ligand_efficiency_ln>
-2.3855611844293

> <r_i_glide_gscore>
-9.86547447995247

> <r_i_glide_lipo>
-3.470685711553

> <r_i_glide_hbond>
-0.750218840576177

> <r_i_glide_metal>
0

> <r_i_glide_rewards>
-3.43875050761612

> <r_i_glide_evdw>
-27.8405284881592

> <r_i_glide_ecoul>
-7.17155599594116

> <r_i_glide_erotb>
0.261940403591956

> <r_i_glide_esite>
0

> <r_i_glide_emodel>
-42.0998718888752

> <r_i_glide_energy>
-35.0120844841003

> <r_i_glide_einternal>
2.43426060676575

> <i_i_glide_confnum>
37

> <i_i_glide_posenum>
242

> <r_i_glide_eff_state_penalty>
0

> <s_user_duplicate_titles>
CHEMBL1862_lig435

> <s_m_subgroup_title>
dock_pv

> <s_m_subgroupid>
dock_pv

> <b_m_subgroup_collapsed>
0

$$$$
CHEMBL1862_lig486
                    3D
 Schrodinger Suite 2021-1.
 33 35  0  0  1  0            999 V2000
   16.8307   12.0719    2.4030 N   0  0  0  0  0  0
   15.4937   12.2590    2.4855 C   0  0  0  0  0  0
   14.8462   13.2000    3.1951 N   0  0  0  0  0  0
   17.6115   12.9938    3.0086 C   0  0  0  0  0  0
   17.0721   14.0330    3.7725 C   0  0  0  0  0  0
   15.6675   14.0337    3.8375 C   0  0  0  0  0  0
   15.3421   15.0454    4.7023 N   0  0  0  0  0  0
   16.4484   15.7200    5.1074 N   0  0  0  0  0  0
   17.4944   15.1588    4.5508 C   0  0  0  0  0  0
   18.9639   12.8811    2.8030 N   0  0  0  0  0  0
   14.0329   15.5213    5.1141 C   0  0  0  0  0  0
   12.8665   14.5310    4.8699 C   0  0  0  0  0  0
   13.7640   16.8331    4.3637 C   0  0  0  0  0  0
   18.8361   15.6645    4.7754 C   0  0  0  0  0  0
   19.4783   16.8661    4.4988 C   0  0  0  0  0  0
   20.8088   16.7460    4.9303 C   0  0  0  0  0  0
   20.8971   15.4837    5.4963 C   0  0  0  0  0  0
   19.7097   14.8330    5.3976 O   0  0  0  0  0  0
   21.8842   17.7159    4.8154 C   0  0  0  0  0  0
   21.7641   18.7966    4.2406 O   0  0  0  0  0  0
   14.8560   11.6330    1.8871 H   0  0  0  0  0  0
   19.5834   13.6006    3.1488 H   0  0  0  0  0  0
   19.2911   12.1552    2.1625 H   0  0  0  0  0  0
   14.1640   15.6330    6.1893 H   0  0  0  0  0  0
   11.9162   14.9413    5.2030 H   0  0  0  0  0  0
   12.7110   14.3293    3.8106 H   0  0  0  0  0  0
   13.0192   13.5837    5.3857 H   0  0  0  0  0  0
   12.7152   17.1238    4.4030 H   0  0  0  0  0  0
   14.3703   17.6472    4.7642 H   0  0  0  0  0  0
   14.0021   16.7226    3.3064 H   0  0  0  0  0  0
   19.0378   17.7226    4.0088 H   0  0  0  0  0  0
   21.7026   14.9295    5.9583 H   0  0  0  0  0  0
   22.8261   17.4077    5.2708 H   0  0  0  0  0  0
  1  4  1  0  0  0
  1  2  2  0  0  0
  2  3  1  0  0  0
  2 21  1  0  0  0
  3  6  2  0  0  0
  4 10  1  0  0  0
  4  5  2  0  0  0
  5  6  1  0  0  0
  5  9  1  0  0  0
  6  7  1  0  0  0
  7 11  1  0  0  0
  7  8  1  0  0  0
  8  9  2  0  0  0
  9 14  1  0  0  0
 10 22  1  0  0  0
 10 23  1  0  0  0
 11 12  1  0  0  0
 11 13  1  0  0  0
 11 24  1  0  0  0
 12 25  1  0  0  0
 12 26  1  0  0  0
 12 27  1  0  0  0
 13 28  1  0  0  0
 13 29  1  0  0  0
 13 30  1  0  0  0
 14 15  2  0  0  0
 14 18  1  0  0  0
 15 16  1  0  0  0
 15 31  1  0  0  0
 16 17  2  0  0  0
 16 19  1  0  0  0
 17 18  1  0  0  0
 17 32  1  0  0  0
 19 20  2  0  0  0
 19 33  1  0  0  0
M  END
> <s_m_entry_id>
6237

> <s_m_entry_name>
dock_pv.163

> <s_m_Source_Path>
/home/csk/Desktop/cluster/DUD-E-result/abl1

> <s_m_Source_File>
dock_pv.maegz

> <i_m_Source_File_Index>
163

> <chembl_id>
CHEMBL1241439

> <chembl_pref_name>
None

> <i_lp_mmshare_version>
53161

> <i_f3d_flags>
0

> <r_lp_tautomer_probability>
1

> <s_lp_Force_Field>
OPLS_2005

> <r_lp_Energy>
2.824952

> <b_lp_Chiralities_Consistent>
1

> <s_lp_Variant>
CHEMBL1862_lig486-1

> <s_i_glide_gridfile>
glide-grid_2hzi

> <i_i_glide_lignum>
576

> <i_i_glide_rotatable_bonds>
3

> <r_i_docking_score>
-9.84486966452823

> <r_i_glide_ligand_efficiency>
-0.492243483226412

> <r_i_glide_ligand_efficiency_sa>
-1.33615438118956

> <r_i_glide_ligand_efficiency_ln>
-2.46384617149831

> <r_i_glide_gscore>
-9.84486966452823

> <r_i_glide_lipo>
-2.46270637197562

> <r_i_glide_hbond>
-0.623483988523817

> <r_i_glide_metal>
0

> <r_i_glide_rewards>
-4.49169170455584

> <r_i_glide_evdw>
-27.7415161132812

> <r_i_glide_ecoul>
-7.4877781867981

> <r_i_glide_erotb>
0.243254934210815

> <r_i_glide_esite>
0

> <r_i_glide_emodel>
-43.2730392164038

> <r_i_glide_energy>
-35.2292943000793

> <r_i_glide_einternal>
8.80563926696777

> <i_i_glide_confnum>
2

> <i_i_glide_posenum>
304

> <r_i_glide_eff_state_penalty>
0

> <s_user_duplicate_titles>
CHEMBL1862_lig486

> <s_m_subgroup_title>
dock_pv

> <s_m_subgroupid>
dock_pv

> <b_m_subgroup_collapsed>
0

$$$$
CHEMBL1862_lig901
                    3D
 Schrodinger Suite 2021-1.
 39 41  0  0  1  0            999 V2000
   15.9374   12.3066    2.0889 N   0  0  0  0  0  0
   14.6126   12.0330    2.0031 C   0  0  0  0  0  0
   13.5992   12.5387    2.7500 N   0  0  0  0  0  0
   16.3073   13.2327    2.9992 C   0  0  0  0  0  0
   15.3465   13.9001    3.7752 C   0  0  0  0  0  0
   14.0140   13.4719    3.6100 C   0  0  0  0  0  0
   13.2723   14.1720    4.5380 N   0  0  0  0  0  0
   14.0608   15.0601    5.2026 N   0  0  0  0  0  0
   15.2916   14.9249    4.7607 C   0  0  0  0  0  0
   11.8570   13.9640    4.8926 C   0  0  0  0  0  0
   11.0089   15.2232    4.6626 C   0  0  0  0  0  0
   11.7276   13.4173    6.3274 C   0  0  0  0  0  0
   17.6701   13.4555    3.1599 N   0  0  0  0  0  0
   16.4503   15.6667    5.2308 C   0  0  0  0  0  0
   17.5936   16.0379    5.4511 C   0  0  0  0  0  0
   19.0342   16.1890    5.6035 C   0  0  0  0  0  0
   19.7073   17.3309    5.1530 C   0  0  0  0  0  0
   21.0977   17.4309    5.3036 C   0  0  0  0  0  0
   21.8081   16.3828    5.8958 C   0  0  0  0  0  0
   21.1398   15.2427    6.3357 C   0  0  0  0  0  0
   19.7579   15.1450    6.1907 C   0  0  0  0  0  0
   21.8473   18.6552    4.8116 C   0  0  0  0  0  0
   14.3345   11.2931    1.2658 H   0  0  0  0  0  0
   11.4653   13.1970    4.2224 H   0  0  0  0  0  0
   10.1622   15.2330    5.3455 H   0  0  0  0  0  0
   11.5750   16.1435    4.8033 H   0  0  0  0  0  0
   10.5802   15.2319    3.6590 H   0  0  0  0  0  0
   10.6859   13.3243    6.6330 H   0  0  0  0  0  0
   12.1640   12.4319    6.4040 H   0  0  0  0  0  0
   12.2357   14.0328    7.0619 H   0  0  0  0  0  0
   17.9821   14.1520    3.8214 H   0  0  0  0  0  0
   18.3202   12.9417    2.5818 H   0  0  0  0  0  0
   19.1568   18.1364    4.6863 H   0  0  0  0  0  0
   22.8813   16.4453    6.0136 H   0  0  0  0  0  0
   21.6976   14.4332    6.7817 H   0  0  0  0  0  0
   19.2561   14.2506    6.5349 H   0  0  0  0  0  0
   21.3642   19.0930    3.9391 H   0  0  0  0  0  0
   21.9110   19.4063    5.5989 H   0  0  0  0  0  0
   22.8605   18.3942    4.5026 H   0  0  0  0  0  0
  1  2  2  0  0  0
  1  4  1  0  0  0
  2  3  1  0  0  0
  2 23  1  0  0  0
  3  6  2  0  0  0
  4  5  2  0  0  0
  4 13  1  0  0  0
  5  6  1  0  0  0
  5  9  1  0  0  0
  6  7  1  0  0  0
  7  8  1  0  0  0
  7 10  1  0  0  0
  8  9  2  0  0  0
  9 14  1  0  0  0
 10 11  1  0  0  0
 10 12  1  0  0  0
 10 24  1  0  0  0
 11 25  1  0  0  0
 11 26  1  0  0  0
 11 27  1  0  0  0
 12 28  1  0  0  0
 12 29  1  0  0  0
 12 30  1  0  0  0
 13 31  1  0  0  0
 13 32  1  0  0  0
 14 15  3  0  0  0
 15 16  1  0  0  0
 16 17  2  0  0  0
 16 21  1  0  0  0
 17 18  1  0  0  0
 17 33  1  0  0  0
 18 19  2  0  0  0
 18 22  1  0  0  0
 19 20  1  0  0  0
 19 34  1  0  0  0
 20 21  2  0  0  0
 20 35  1  0  0  0
 21 36  1  0  0  0
 22 37  1  0  0  0
 22 38  1  0  0  0
 22 39  1  0  0  0
M  END
> <s_m_entry_id>
6238

> <s_m_entry_name>
dock_pv.164

> <s_m_Source_Path>
/home/csk/Desktop/cluster/DUD-E-result/abl1

> <s_m_Source_File>
dock_pv.maegz

> <i_m_Source_File_Index>
164

> <chembl_id>
CHEMBL3736026

> <chembl_pref_name>
None

> <i_lp_mmshare_version>
53161

> <i_f3d_flags>
0

> <r_lp_tautomer_probability>
1

> <s_lp_Force_Field>
OPLS_2005

> <r_lp_Energy>
8.302659

> <b_lp_Chiralities_Consistent>
1

> <s_lp_Variant>
CHEMBL1862_lig901-1

> <s_i_glide_gridfile>
glide-grid_2hzi

> <i_i_glide_lignum>
1057

> <i_i_glide_rotatable_bonds>
3

> <r_i_docking_score>
-9.80474264225033

> <r_i_glide_ligand_efficiency>
-0.445670120102288

> <r_i_glide_ligand_efficiency_sa>
-1.24878520373784

> <r_i_glide_ligand_efficiency_ln>
-2.39663673844344

> <r_i_glide_gscore>
-9.80474264225033

> <r_i_glide_lipo>
-4.21998784706292

> <r_i_glide_hbond>
-0.32

> <r_i_glide_metal>
0

> <r_i_glide_rewards>
-3.29359996335394

> <r_i_glide_evdw>
-39.555118560791

> <r_i_glide_ecoul>
-2.82098507881165

> <r_i_glide_erotb>
0.429748858027828

> <r_i_glide_esite>
0

> <r_i_glide_emodel>
-54.8558053545327

> <r_i_glide_energy>
-42.3761036396027

> <r_i_glide_einternal>
-0.116986095905304

> <i_i_glide_confnum>
1

> <i_i_glide_posenum>
48

> <r_i_glide_eff_state_penalty>
0

> <s_user_duplicate_titles>
CHEMBL1862_lig901

> <s_m_subgroup_title>
dock_pv

> <s_m_subgroupid>
dock_pv

> <b_m_subgroup_collapsed>
0

$$$$
CHEMBL1862_lig752
                    3D
 Schrodinger Suite 2021-1.
 40 42  0  0  1  0            999 V2000
   18.6772   15.8890    4.6611 C   0  0  0  0  0  0
   17.7293   16.4480    5.5295 C   0  0  0  0  0  0
   16.3955   16.0334    5.5470 C   0  0  0  0  0  0
   18.3186   14.8570    3.7854 C   0  0  0  0  0  0
   16.9844   14.4360    3.8055 C   0  0  0  0  0  0
   16.0129   15.0169    4.6619 C   0  0  0  0  0  0
   14.7834   14.4366    4.4803 N   0  0  0  0  0  0
   14.9843   13.5030    3.5766 C   0  0  0  0  0  0
   16.2822   13.4694    3.1247 N   0  0  0  0  0  0
   14.0733   12.5969    3.0576 N   0  0  0  0  0  0
   12.7307   12.7049    3.1008 C   0  0  0  0  0  0
   12.1637   11.6533    2.4854 N   0  0  0  0  0  0
   12.1003   13.6338    3.6028 O   0  0  0  0  0  0
   10.8566   11.5595    1.8289 C   0  0  0  0  0  0
    9.6478   12.0961    2.6183 C   0  0  0  0  0  0
   20.0658   16.4341    4.6643 C   0  0  0  0  0  0
   20.9606   16.1200    5.7050 C   0  0  0  0  0  0
   22.2100   16.7340    5.7774 C   0  0  0  0  0  0
   22.5963   17.6500    4.8052 C   0  0  0  0  0  0
   21.7500   17.9271    3.7374 C   0  0  0  0  0  0
   20.4964   17.3157    3.6495 C   0  0  0  0  0  0
   19.6266   17.6330    2.4396 C   0  0  0  0  0  0
   20.5636   14.9622    6.9277 Cl  0  0  0  0  0  0
   18.0310   17.2321    6.2068 H   0  0  0  0  0  0
   15.6799   16.4778    6.2250 H   0  0  0  0  0  0
   19.0485   14.4145    3.1191 H   0  0  0  0  0  0
   16.6164   12.8314    2.4203 H   0  0  0  0  0  0
   14.4527   11.8134    2.5498 H   0  0  0  0  0  0
   12.7469   10.8342    2.3711 H   0  0  0  0  0  0
   10.6832   10.5014    1.6185 H   0  0  0  0  0  0
   10.9213   12.0329    0.8481 H   0  0  0  0  0  0
    8.7202   11.8780    2.0877 H   0  0  0  0  0  0
    9.6929   13.1793    2.7457 H   0  0  0  0  0  0
    9.5702   11.6302    3.6029 H   0  0  0  0  0  0
   22.8890   16.4913    6.5823 H   0  0  0  0  0  0
   23.5649   18.1201    4.8673 H   0  0  0  0  0  0
   22.0724   18.6188    2.9737 H   0  0  0  0  0  0
   20.2131   18.0464    1.6197 H   0  0  0  0  0  0
   19.1583   16.7334    2.0437 H   0  0  0  0  0  0
   18.8433   18.3371    2.7120 H   0  0  0  0  0  0
  1  2  2  0  0  0
  1  4  1  0  0  0
  1 16  1  0  0  0
  2  3  1  0  0  0
  2 24  1  0  0  0
  3  6  2  0  0  0
  3 25  1  0  0  0
  4  5  2  0  0  0
  4 26  1  0  0  0
  5  6  1  0  0  0
  5  9  1  0  0  0
  6  7  1  0  0  0
  7  8  2  0  0  0
  8  9  1  0  0  0
  8 10  1  0  0  0
  9 27  1  0  0  0
 10 11  1  0  0  0
 10 28  1  0  0  0
 11 12  1  0  0  0
 11 13  2  0  0  0
 12 14  1  0  0  0
 12 29  1  0  0  0
 14 15  1  0  0  0
 14 30  1  0  0  0
 14 31  1  0  0  0
 15 32  1  0  0  0
 15 33  1  0  0  0
 15 34  1  0  0  0
 16 17  2  0  0  0
 16 21  1  0  0  0
 17 18  1  0  0  0
 17 23  1  0  0  0
 18 19  2  0  0  0
 18 35  1  0  0  0
 19 20  1  0  0  0
 19 36  1  0  0  0
 20 21  2  0  0  0
 20 37  1  0  0  0
 21 22  1  0  0  0
 22 38  1  0  0  0
 22 39  1  0  0  0
 22 40  1  0  0  0
M  END
> <s_m_entry_id>
6239

> <s_m_entry_name>
dock_pv.165

> <s_m_Source_Path>
/home/csk/Desktop/cluster/DUD-E-result/abl1

> <s_m_Source_File>
dock_pv.maegz

> <i_m_Source_File_Index>
165

> <chembl_id>
CHEMBL2347745

> <chembl_pref_name>
None

> <i_lp_mmshare_version>
53161

> <i_f3d_flags>
0

> <r_lp_tautomer_probability>
1

> <s_lp_Force_Field>
OPLS_2005

> <r_lp_Energy>
17.036593

> <b_lp_Chiralities_Consistent>
1

> <s_lp_Variant>
CHEMBL1862_lig752-1

> <s_i_glide_gridfile>
glide-grid_2hzi

> <i_i_glide_lignum>
885

> <i_i_glide_rotatable_bonds>
5

> <r_i_docking_score>
-9.76520252802775

> <r_i_glide_ligand_efficiency>
-0.424574022957728

> <r_i_glide_ligand_efficiency_sa>
-1.20743204313026

> <r_i_glide_ligand_efficiency_ln>
-2.36131451723811

> <r_i_glide_gscore>
-9.76520252802775

> <r_i_glide_lipo>
-4.17273925802481

> <r_i_glide_hbond>
-0.32

> <r_i_glide_metal>
0

> <r_i_glide_rewards>
-2.61216519623569

> <r_i_glide_evdw>
-49.2315444946289

> <r_i_glide_ecoul>
-5.88366031646729

> <r_i_glide_erotb>
0.695103280663126

> <r_i_glide_esite>
-0.0112750822288397

> <r_i_glide_emodel>
-83.981985142773

> <r_i_glide_energy>
-55.1152048110962

> <r_i_glide_einternal>
2.78440642356873

> <i_i_glide_confnum>
6

> <i_i_glide_posenum>
252

> <r_i_glide_eff_state_penalty>
0

> <s_user_duplicate_titles>
CHEMBL1862_lig752

> <s_m_subgroup_title>
dock_pv

> <s_m_subgroupid>
dock_pv

> <b_m_subgroup_collapsed>
0

$$$$
CHEMBL1862_lig611
                    3D
 Schrodinger Suite 2021-1.
 37 40  0  0  1  0            999 V2000
   16.6616   16.8991    5.6031 C   0  0  0  0  0  0
   17.9840   16.9994    5.4989 N   0  3  0  0  0  0
   18.7183   16.0940    4.8137 C   0  0  0  0  0  0
   15.9502   15.9068    4.9910 C   0  0  0  0  0  0
   16.6159   14.8588    4.3292 C   0  0  0  0  0  0
   18.0497   14.9702    4.2306 C   0  0  0  0  0  0
   18.7867   14.0325    3.6034 N   0  0  0  0  0  0
   18.1598   12.9269    3.1582 C   0  0  0  0  0  0
   16.7829   12.7472    3.2031 C   0  0  0  0  0  0
   15.9294   13.7184    3.7685 C   0  0  0  0  0  0
   14.4131   13.5247    3.8800 C   0  0  0  0  0  0
   13.6662   14.0327    4.9658 C   0  0  0  0  0  0
   12.2762   13.9823    5.0215 C   0  0  0  0  0  0
   11.5680   13.3706    4.0025 C   0  0  0  0  0  0
   12.2631   12.7587    2.9713 C   0  0  0  0  0  0
   13.6544   12.8333    2.9150 C   0  0  0  0  0  0
   18.5097   18.0343    6.0008 O   0  5  0  0  0  0
   20.1671   16.4289    4.6741 C   0  0  0  0  0  0
   20.5815   17.2792    3.6336 C   0  0  0  0  0  0
   21.8352   17.8912    3.6818 C   0  0  0  0  0  0
   22.6997   17.6325    4.7449 C   0  0  0  0  0  0
   22.3345   16.7160    5.7280 C   0  0  0  0  0  0
   21.0779   16.1138    5.6965 C   0  0  0  0  0  0
   19.5357   17.6329    2.2970 Cl  0  0  0  0  0  0
   20.6500   15.0339    6.9782 Cl  0  0  0  0  0  0
   14.3822   12.0329    1.6038 Cl  0  0  0  0  0  0
   10.2179   13.3254    4.0418 F   0  0  0  0  0  0
   16.1552   17.7400    6.0030 H   0  0  0  0  0  0
   14.8873   16.0536    4.9545 H   0  0  0  0  0  0
   18.8067   12.1386    2.8022 H   0  0  0  0  0  0
   16.4241   11.7805    2.9043 H   0  0  0  0  0  0
   14.1511   14.4326    5.8415 H   0  0  0  0  0  0
   11.7446   14.3880    5.8656 H   0  0  0  0  0  0
   11.7153   12.2288    2.2070 H   0  0  0  0  0  0
   22.1367   18.5703    2.8965 H   0  0  0  0  0  0
   23.6652   18.1145    4.7985 H   0  0  0  0  0  0
   23.0249   16.4892    6.5283 H   0  0  0  0  0  0
  1  2  2  0  0  0
  1  4  1  0  0  0
  1 28  1  0  0  0
  2 17  1  0  0  0
  2  3  1  0  0  0
  3  6  2  0  0  0
  3 18  1  0  0  0
  4  5  2  0  0  0
  4 29  1  0  0  0
  5 10  1  0  0  0
  5  6  1  0  0  0
  6  7  1  0  0  0
  7  8  2  0  0  0
  8  9  1  0  0  0
  8 30  1  0  0  0
  9 10  2  0  0  0
  9 31  1  0  0  0
 10 11  1  0  0  0
 11 16  1  0  0  0
 11 12  2  0  0  0
 12 13  1  0  0  0
 12 32  1  0  0  0
 13 14  2  0  0  0
 13 33  1  0  0  0
 14 15  1  0  0  0
 14 27  1  0  0  0
 15 16  2  0  0  0
 15 34  1  0  0  0
 16 26  1  0  0  0
 18 19  2  0  0  0
 18 23  1  0  0  0
 19 20  1  0  0  0
 19 24  1  0  0  0
 20 21  2  0  0  0
 20 35  1  0  0  0
 21 22  1  0  0  0
 21 36  1  0  0  0
 22 23  2  0  0  0
 22 37  1  0  0  0
 23 25  1  0  0  0
M  CHG  2   2   1  17  -1
M  END
> <s_m_entry_id>
6240

> <s_m_entry_name>
dock_pv.166

> <s_m_Source_Path>
/home/csk/Desktop/cluster/DUD-E-result/abl1

> <s_m_Source_File>
dock_pv.maegz

> <i_m_Source_File_Index>
166

> <chembl_id>
CHEMBL1916359

> <chembl_pref_name>
None

> <i_lp_mmshare_version>
53161

> <i_f3d_flags>
0

> <r_lp_tautomer_probability>
1

> <s_lp_Force_Field>
OPLS_2005

> <r_lp_Energy>
27.739305

> <b_lp_Chiralities_Consistent>
1

> <s_lp_Variant>
CHEMBL1862_lig611-1

> <s_i_glide_gridfile>
glide-grid_2hzi

> <i_i_glide_lignum>
717

> <i_i_glide_rotatable_bonds>
2

> <r_i_docking_score>
-9.74287148681288

> <r_i_glide_ligand_efficiency>
-0.360847092104181

> <r_i_glide_ligand_efficiency_sa>
-1.08254127512325

> <r_i_glide_ligand_efficiency_ln>
-2.26797985834015

> <r_i_glide_gscore>
-9.74287148681288

> <r_i_glide_lipo>
-5.8052037261865

> <r_i_glide_hbond>
0

> <r_i_glide_metal>
0

> <r_i_glide_rewards>
-1.99900531866176

> <r_i_glide_evdw>
-35.4845123291016

> <r_i_glide_ecoul>
-2.59414577484131

> <r_i_glide_erotb>
0.224685040716647

> <r_i_glide_esite>
0

> <r_i_glide_emodel>
-36.1109324808928

> <r_i_glide_energy>
-38.0786581039429

> <r_i_glide_einternal>
12.7653512954712

> <i_i_glide_confnum>
16

> <i_i_glide_posenum>
66

> <r_i_glide_eff_state_penalty>
0

> <s_user_duplicate_titles>
CHEMBL1862_lig611

> <s_m_subgroup_title>
dock_pv

> <s_m_subgroupid>
dock_pv

> <b_m_subgroup_collapsed>
0

$$$$
CHEMBL1862_lig448
                    3D
 Schrodinger Suite 2021-1.
 43 46  0  0  1  0            999 V2000
   11.5489   14.6340    4.2115 C   0  0  0  0  0  0
   10.8480   13.9032    5.3576 C   0  0  0  0  0  0
   12.2370   13.5772    5.8951 C   0  0  0  0  0  0
   12.8233   14.7450    5.0763 C   0  0  0  0  0  0
   14.2082   14.7077    4.5732 N   0  0  0  0  0  0
   15.1694   15.5624    5.0385 N   0  0  0  0  0  0
   14.7618   13.7897    3.7227 C   0  0  0  0  0  0
   14.1240   12.8327    3.0459 N   0  0  0  0  0  0
   14.9732   12.0330    2.3674 C   0  0  0  0  0  0
   16.3244   12.0330    2.4029 N   0  0  0  0  0  0
   16.9206   13.0123    3.1108 C   0  0  0  0  0  0
   18.2993   12.9058    3.2030 N   0  0  0  0  0  0
   16.1616   14.0081    3.7616 C   0  0  0  0  0  0
   16.3359   15.2330    4.5028 C   0  0  0  0  0  0
   17.5866   16.0977    4.6208 C   0  0  0  0  0  0
   17.7913   17.1082    5.5845 C   0  0  0  0  0  0
   18.5711   15.9476    3.6369 C   0  0  0  0  0  0
   19.7513   16.6786    3.6496 C   0  0  0  0  0  0
   19.9598   17.6611    4.6201 C   0  0  0  0  0  0
   21.1054   18.4330    4.6941 O   0  0  0  0  0  0
   22.1640   18.2363    3.7675 C   0  0  0  0  0  0
   18.9525   17.9234    5.5579 C   0  0  0  0  0  0
   19.2026   19.0076    6.3897 O   0  0  0  0  0  0
   18.1640   19.5995    7.1365 C   0  0  0  0  0  0
   11.0464   15.5755    4.0030 H   0  0  0  0  0  0
   11.6645   14.0329    3.3072 H   0  0  0  0  0  0
   10.2580   14.5550    6.0033 H   0  0  0  0  0  0
   10.2409   13.0460    5.0635 H   0  0  0  0  0  0
   12.5640   12.6024    5.5492 H   0  0  0  0  0  0
   12.3604   13.6331    6.9764 H   0  0  0  0  0  0
   12.8083   15.6670    5.6030 H   0  0  0  0  0  0
   14.5313   11.2741    1.7408 H   0  0  0  0  0  0
   18.8205   13.5834    3.7391 H   0  0  0  0  0  0
   18.7607   12.1709    2.6811 H   0  0  0  0  0  0
   17.0219   17.2802    6.3214 H   0  0  0  0  0  0
   18.4255   15.2864    2.8030 H   0  0  0  0  0  0
   20.4801   16.4859    2.8758 H   0  0  0  0  0  0
   22.9601   18.9425    4.0029 H   0  0  0  0  0  0
   21.8461   18.4201    2.7398 H   0  0  0  0  0  0
   22.5814   17.2331    3.8475 H   0  0  0  0  0  0
   18.5640   20.4083    7.7461 H   0  0  0  0  0  0
   17.4234   20.0330    6.4653 H   0  0  0  0  0  0
   17.7182   18.8826    7.8192 H   0  0  0  0  0  0
  1  2  1  0  0  0
  1  4  1  0  0  0
  1 25  1  0  0  0
  1 26  1  0  0  0
  2  3  1  0  0  0
  2 27  1  0  0  0
  2 28  1  0  0  0
  3  4  1  0  0  0
  3 29  1  0  0  0
  3 30  1  0  0  0
  4  5  1  0  0  0
  4 31  1  0  0  0
  5  6  1  0  0  0
  5  7  1  0  0  0
  6 14  2  0  0  0
  7  8  2  0  0  0
  7 13  1  0  0  0
  8  9  1  0  0  0
  9 10  2  0  0  0
  9 32  1  0  0  0
 10 11  1  0  0  0
 11 12  1  0  0  0
 11 13  2  0  0  0
 12 33  1  0  0  0
 12 34  1  0  0  0
 13 14  1  0  0  0
 14 15  1  0  0  0
 15 16  2  0  0  0
 15 17  1  0  0  0
 16 22  1  0  0  0
 16 35  1  0  0  0
 17 18  2  0  0  0
 17 36  1  0  0  0
 18 19  1  0  0  0
 18 37  1  0  0  0
 19 20  1  0  0  0
 19 22  2  0  0  0
 20 21  1  0  0  0
 21 38  1  0  0  0
 21 39  1  0  0  0
 21 40  1  0  0  0
 22 23  1  0  0  0
 23 24  1  0  0  0
 24 41  1  0  0  0
 24 42  1  0  0  0
 24 43  1  0  0  0
M  END
> <s_m_entry_id>
6241

> <s_m_entry_name>
dock_pv.167

> <s_m_Source_Path>
/home/csk/Desktop/cluster/DUD-E-result/abl1

> <s_m_Source_File>
dock_pv.maegz

> <i_m_Source_File_Index>
167

> <chembl_id>
CHEMBL1233881

> <chembl_pref_name>
None

> <i_lp_mmshare_version>
53161

> <i_f3d_flags>
0

> <r_lp_tautomer_probability>
1

> <s_lp_Force_Field>
OPLS_2005

> <r_lp_Energy>
28.443608

> <b_lp_Chiralities_Consistent>
1

> <s_lp_Variant>
CHEMBL1862_lig448-1

> <s_i_glide_gridfile>
glide-grid_2hzi

> <i_i_glide_lignum>
536

> <i_i_glide_rotatable_bonds>
4

> <r_i_docking_score>
-9.74173716991859

> <r_i_glide_ligand_efficiency>
-0.405905715413275

> <r_i_glide_ligand_efficiency_sa>
-1.17083468603991

> <r_i_glide_ligand_efficiency_ln>
-2.33164472395209

> <r_i_glide_gscore>
-9.74173716991859

> <r_i_glide_lipo>
-3.42691028175814

> <r_i_glide_hbond>
-0.518965406323314

> <r_i_glide_metal>
0

> <r_i_glide_rewards>
-3.66487170382351

> <r_i_glide_evdw>
-29.665958404541

> <r_i_glide_ecoul>
-5.97017431259155

> <r_i_glide_erotb>
0.247834289102161

> <r_i_glide_esite>
0

> <r_i_glide_emodel>
-38.1284172602132

> <r_i_glide_energy>
-35.6361327171326

> <r_i_glide_einternal>
2.88309812545776

> <i_i_glide_confnum>
6

> <i_i_glide_posenum>
232

> <r_i_glide_eff_state_penalty>
0

> <s_user_duplicate_titles>
CHEMBL1862_lig448

> <s_m_subgroup_title>
dock_pv

> <s_m_subgroupid>
dock_pv

> <b_m_subgroup_collapsed>
0

$$$$
CHEMBL1862_lig726
                    3D
 Schrodinger Suite 2021-1.
 44 46  0  0  1  0            999 V2000
   13.7052   12.4328    2.6748 N   0  0  0  0  0  0
   12.3838   12.5818    2.8977 C   0  0  0  0  0  0
   11.8865   13.4631    3.6032 O   0  0  0  0  0  0
   11.6446   11.6520    2.2639 N   0  0  0  0  0  0
   10.1847   11.5459    2.4038 C   0  0  0  0  0  0
    9.4400   11.0407    1.1559 C   0  0  0  0  0  0
    9.3641   12.0331    0.1544 O   0  0  0  0  0  0
   16.3640   12.7574    2.8029 S   0  0  0  0  0  0
   14.7263   13.2033    3.2195 C   0  0  0  0  0  0
   14.5962   14.2342    4.0160 N   0  0  0  0  0  0
   15.8012   14.7557    4.3573 C   0  0  0  0  0  0
   16.9279   14.1057    3.7853 C   0  0  0  0  0  0
   18.2332   14.5436    4.0580 C   0  0  0  0  0  0
   18.3989   15.6493    4.9032 C   0  0  0  0  0  0
   17.2838   16.2792    5.4665 C   0  0  0  0  0  0
   15.9823   15.8465    5.2138 C   0  0  0  0  0  0
   19.7500   16.1922    5.1891 C   0  0  0  0  0  0
   20.1519   17.4427    4.6834 C   0  0  0  0  0  0
   21.3882   17.9856    5.0367 C   0  0  0  0  0  0
   22.2506   17.2815    5.8690 C   0  0  0  0  0  0
   21.8730   16.0336    6.3544 C   0  0  0  0  0  0
   20.6361   15.4857    6.0118 C   0  0  0  0  0  0
   19.3640   18.1635    3.8207 O   0  0  0  0  0  0
   19.2440   17.6690    2.4809 C   0  0  0  0  0  0
   20.5634   17.2352    1.8351 C   0  0  0  0  0  0
   13.9891   11.6669    2.0832 H   0  0  0  0  0  0
   12.1185   10.8586    1.8498 H   0  0  0  0  0  0
    9.7183   12.4724    2.7471 H   0  0  0  0  0  0
   10.0225   10.8331    3.2029 H   0  0  0  0  0  0
    8.4453   10.6812    1.4174 H   0  0  0  0  0  0
    9.9699   10.1908    0.7261 H   0  0  0  0  0  0
    8.9654   11.6468   -0.6300 H   0  0  0  0  0  0
   19.0887   14.0554    3.6108 H   0  0  0  0  0  0
   17.4323   17.1334    6.1132 H   0  0  0  0  0  0
   15.1345   16.3470    5.6596 H   0  0  0  0  0  0
   21.6874   18.9482    4.6472 H   0  0  0  0  0  0
   23.2105   17.7011    6.1374 H   0  0  0  0  0  0
   22.5529   15.5094    7.0046 H   0  0  0  0  0  0
   20.3532   14.5204    6.4067 H   0  0  0  0  0  0
   18.5245   16.8515    2.4412 H   0  0  0  0  0  0
   18.8304   18.4699    1.8740 H   0  0  0  0  0  0
   20.4226   16.9174    0.8030 H   0  0  0  0  0  0
   21.2991   18.0392    1.8469 H   0  0  0  0  0  0
   20.9641   16.3935    2.3891 H   0  0  0  0  0  0
  1  2  1  0  0  0
  1  9  1  0  0  0
  1 26  1  0  0  0
  2  3  2  0  0  0
  2  4  1  0  0  0
  4  5  1  0  0  0
  4 27  1  0  0  0
  5  6  1  0  0  0
  5 28  1  0  0  0
  5 29  1  0  0  0
  6  7  1  0  0  0
  6 30  1  0  0  0
  6 31  1  0  0  0
  7 32  1  0  0  0
  8  9  1  0  0  0
  8 12  1  0  0  0
  9 10  2  0  0  0
 10 11  1  0  0  0
 11 12  1  0  0  0
 11 16  2  0  0  0
 12 13  2  0  0  0
 13 14  1  0  0  0
 13 33  1  0  0  0
 14 15  2  0  0  0
 14 17  1  0  0  0
 15 16  1  0  0  0
 15 34  1  0  0  0
 16 35  1  0  0  0
 17 18  1  0  0  0
 17 22  2  0  0  0
 18 19  2  0  0  0
 18 23  1  0  0  0
 19 20  1  0  0  0
 19 36  1  0  0  0
 20 21  2  0  0  0
 20 37  1  0  0  0
 21 22  1  0  0  0
 21 38  1  0  0  0
 22 39  1  0  0  0
 23 24  1  0  0  0
 24 25  1  0  0  0
 24 40  1  0  0  0
 24 41  1  0  0  0
 25 42  1  0  0  0
 25 43  1  0  0  0
 25 44  1  0  0  0
M  END
> <s_m_entry_id>
6242

> <s_m_entry_name>
dock_pv.168

> <s_m_Source_Path>
/home/csk/Desktop/cluster/DUD-E-result/abl1

> <s_m_Source_File>
dock_pv.maegz

> <i_m_Source_File_Index>
168

> <chembl_id>
CHEMBL2347727

> <chembl_pref_name>
None

> <i_lp_mmshare_version>
53161

> <i_f3d_flags>
0

> <r_lp_tautomer_probability>
1

> <s_lp_Force_Field>
OPLS_2005

> <r_lp_Energy>
15.801099

> <b_lp_Chiralities_Consistent>
1

> <s_lp_Variant>
CHEMBL1862_lig726-1

> <s_i_glide_gridfile>
glide-grid_2hzi

> <i_i_glide_lignum>
859

> <i_i_glide_rotatable_bonds>
9

> <r_i_docking_score>
-9.73307337884195

> <r_i_glide_ligand_efficiency>
-0.389322935153678

> <r_i_glide_ligand_efficiency_sa>
-1.13838716706101

> <r_i_glide_ligand_efficiency_ln>
-2.30703006745784

> <r_i_glide_gscore>
-9.73307337884195

> <r_i_glide_lipo>
-4.83249293531369

> <r_i_glide_hbond>
-0.366709830522306

> <r_i_glide_metal>
0

> <r_i_glide_rewards>
-2.08067303726906

> <r_i_glide_evdw>
-48.970703125

> <r_i_glide_ecoul>
-7.0240592956543

> <r_i_glide_erotb>
1.04894647486125

> <r_i_glide_esite>
0

> <r_i_glide_emodel>
-82.744148558028

> <r_i_glide_energy>
-55.9947624206543

> <r_i_glide_einternal>
13.6726684570312

> <i_i_glide_confnum>
10

> <i_i_glide_posenum>
374

> <r_i_glide_eff_state_penalty>
0

> <s_user_duplicate_titles>
CHEMBL1862_lig726

> <s_m_subgroup_title>
dock_pv

> <s_m_subgroupid>
dock_pv

> <b_m_subgroup_collapsed>
0

$$$$
CHEMBL1862_lig118
                    3D
 Schrodinger Suite 2021-1.
 30 32  0  0  1  0            999 V2000
   23.2125   17.6560    5.5959 O   0  0  0  0  0  0
   21.9503   17.1649    5.4094 C   0  0  0  0  0  0
   21.6419   15.8648    5.7984 C   0  0  0  0  0  0
   20.3478   15.3798    5.6176 C   0  0  0  0  0  0
   19.3552   16.1946    5.0577 C   0  0  0  0  0  0
   19.6846   17.4982    4.6656 C   0  0  0  0  0  0
   20.9815   17.9780    4.8322 C   0  0  0  0  0  0
   17.9692   15.6954    4.8894 C   0  0  0  0  0  0
   16.9378   16.3455    5.4679 C   0  0  0  0  0  0
   15.6272   16.0317    5.3339 O   0  0  0  0  0  0
   15.2886   14.9710    4.5269 C   0  0  0  0  0  0
   13.9322   14.6890    4.4293 C   0  0  0  0  0  0
   13.5085   13.6048    3.6780 C   0  0  0  0  0  0
   12.1803   13.3098    3.6033 O   0  0  0  0  0  0
   14.4335   12.8181    3.0042 C   0  0  0  0  0  0
   15.7925   13.1117    3.0808 C   0  0  0  0  0  0
   16.6547   12.2897    2.4029 O   0  0  0  0  0  0
   16.2466   14.2014    3.8506 C   0  0  0  0  0  0
   17.6985   14.5478    4.0005 C   0  0  0  0  0  0
   18.5641   13.8945    3.4158 O   0  0  0  0  0  0
   23.8139   17.0262    6.0036 H   0  0  0  0  0  0
   22.3998   15.2333    6.2333 H   0  0  0  0  0  0
   20.1142   14.3711    5.9236 H   0  0  0  0  0  0
   18.9379   18.1336    4.2122 H   0  0  0  0  0  0
   21.2468   18.9732    4.5116 H   0  0  0  0  0  0
   17.0614   17.2085    6.1074 H   0  0  0  0  0  0
   13.2143   15.2995    4.9545 H   0  0  0  0  0  0
   12.0285   12.5284    3.0675 H   0  0  0  0  0  0
   14.1095   11.9660    2.4211 H   0  0  0  0  0  0
   17.5665   12.5911    2.5157 H   0  0  0  0  0  0
  1  2  1  0  0  0
  1 21  1  0  0  0
  2  3  2  0  0  0
  2  7  1  0  0  0
  3  4  1  0  0  0
  3 22  1  0  0  0
  4  5  2  0  0  0
  4 23  1  0  0  0
  5  6  1  0  0  0
  5  8  1  0  0  0
  6  7  2  0  0  0
  6 24  1  0  0  0
  7 25  1  0  0  0
  8  9  2  0  0  0
  8 19  1  0  0  0
  9 10  1  0  0  0
  9 26  1  0  0  0
 10 11  1  0  0  0
 11 12  2  0  0  0
 11 18  1  0  0  0
 12 13  1  0  0  0
 12 27  1  0  0  0
 13 14  1  0  0  0
 13 15  2  0  0  0
 14 28  1  0  0  0
 15 16  1  0  0  0
 15 29  1  0  0  0
 16 17  1  0  0  0
 16 18  2  0  0  0
 17 30  1  0  0  0
 18 19  1  0  0  0
 19 20  2  0  0  0
M  END
> <s_m_entry_id>
6243

> <s_m_entry_name>
dock_pv.169

> <s_m_Source_Path>
/home/csk/Desktop/cluster/DUD-E-result/abl1

> <s_m_Source_File>
dock_pv.maegz

> <i_m_Source_File_Index>
169

> <chembl_id>
CHEMBL44

> <chembl_pref_name>
GENISTEIN

> <i_lp_mmshare_version>
53161

> <i_f3d_flags>
0

> <r_lp_tautomer_probability>
0.999999999997365

> <s_lp_Force_Field>
OPLS_2005

> <r_lp_Energy>
19.365893

> <b_lp_Chiralities_Consistent>
1

> <s_lp_Variant>
CHEMBL1862_lig118-1

> <s_i_glide_gridfile>
glide-grid_2hzi

> <i_i_glide_lignum>
137

> <i_i_glide_rotatable_bonds>
4

> <r_i_docking_score>
-9.73227958341422

> <r_i_glide_ligand_efficiency>
-0.486613979170711

> <r_i_glide_ligand_efficiency_sa>
-1.32087355622333

> <r_i_glide_ligand_efficiency_ln>
-2.43566858766488

> <r_i_glide_gscore>
-9.73227958341422

> <r_i_glide_lipo>
-4.47251751996419

> <r_i_glide_hbond>
0

> <r_i_glide_metal>
0

> <r_i_glide_rewards>
-2.85760222219698

> <r_i_glide_evdw>
-41.7252502441406

> <r_i_glide_ecoul>
-3.73847198486328

> <r_i_glide_erotb>
0.244873468683471

> <r_i_glide_esite>
0

> <r_i_glide_emodel>
-69.5890812261594

> <r_i_glide_energy>
-45.4637222290039

> <r_i_glide_einternal>
3.72847604751587

> <i_i_glide_confnum>
2

> <i_i_glide_posenum>
193

> <r_i_glide_eff_state_penalty>
0

> <s_user_duplicate_titles>
CHEMBL1862_lig118

> <s_m_subgroup_title>
dock_pv

> <s_m_subgroupid>
dock_pv

> <b_m_subgroup_collapsed>
0

$$$$
CHEMBL1862_lig735
                    3D
 Schrodinger Suite 2021-1.
 36 38  0  0  1  0            999 V2000
   18.5940   15.8287    4.7389 C   0  0  0  0  0  0
   17.4951   16.4230    5.3674 C   0  0  0  0  0  0
   16.1981   15.9385    5.2038 C   0  0  0  0  0  0
   18.4151   14.7098    3.9139 C   0  0  0  0  0  0
   17.1134   14.2163    3.7316 C   0  0  0  0  0  0
   16.0039   14.8329    4.3666 C   0  0  0  0  0  0
   14.7971   14.2704    4.1059 N   0  0  0  0  0  0
   14.9119   13.2381    3.3096 C   0  0  0  0  0  0
   16.5363   12.8321    2.8031 S   0  0  0  0  0  0
   13.8828   12.4324    2.8430 N   0  0  0  0  0  0
   12.5619   12.6502    3.0034 C   0  0  0  0  0  0
   11.8270   11.6976    2.4029 N   0  0  0  0  0  0
   12.0666   13.6064    3.6038 O   0  0  0  0  0  0
   10.3665   11.7041    2.2838 C   0  0  0  0  0  0
    9.8872   11.6266    0.8330 C   0  0  0  0  0  0
   19.9463   16.3924    4.9627 C   0  0  0  0  0  0
   20.9212   15.6442    5.6305 C   0  0  0  0  0  0
   22.1733   16.1985    5.8827 C   0  0  0  0  0  0
   22.4667   17.4885    5.4475 C   0  0  0  0  0  0
   21.5110   18.2352    4.7660 C   0  0  0  0  0  0
   20.2497   17.6903    4.5346 C   0  0  0  0  0  0
   17.6507   17.2795    6.0092 H   0  0  0  0  0  0
   15.3637   16.4089    5.7034 H   0  0  0  0  0  0
   19.2601   14.2447    3.4254 H   0  0  0  0  0  0
   14.1522   11.6123    2.3188 H   0  0  0  0  0  0
   12.2939   10.8458    2.1157 H   0  0  0  0  0  0
    9.9121   12.5696    2.7699 H   0  0  0  0  0  0
    9.9818   10.8357    2.8088 H   0  0  0  0  0  0
    8.8005   11.6915    0.7839 H   0  0  0  0  0  0
   10.1631   10.6674    0.3950 H   0  0  0  0  0  0
   10.2933   12.4327    0.2203 H   0  0  0  0  0  0
   20.7054   14.6408    5.9711 H   0  0  0  0  0  0
   22.9292   15.6334    6.4047 H   0  0  0  0  0  0
   23.4421   17.9121    5.6403 H   0  0  0  0  0  0
   21.7487   19.2340    4.4277 H   0  0  0  0  0  0
   19.5066   18.2739    4.0138 H   0  0  0  0  0  0
  1  2  2  0  0  0
  1  4  1  0  0  0
  1 16  1  0  0  0
  2  3  1  0  0  0
  2 22  1  0  0  0
  3  6  2  0  0  0
  3 23  1  0  0  0
  4  5  2  0  0  0
  4 24  1  0  0  0
  5  6  1  0  0  0
  5  9  1  0  0  0
  6  7  1  0  0  0
  7  8  2  0  0  0
  8  9  1  0  0  0
  8 10  1  0  0  0
 10 11  1  0  0  0
 10 25  1  0  0  0
 11 12  1  0  0  0
 11 13  2  0  0  0
 12 14  1  0  0  0
 12 26  1  0  0  0
 14 15  1  0  0  0
 14 27  1  0  0  0
 14 28  1  0  0  0
 15 29  1  0  0  0
 15 30  1  0  0  0
 15 31  1  0  0  0
 16 17  2  0  0  0
 16 21  1  0  0  0
 17 18  1  0  0  0
 17 32  1  0  0  0
 18 19  2  0  0  0
 18 33  1  0  0  0
 19 20  1  0  0  0
 19 34  1  0  0  0
 20 21  2  0  0  0
 20 35  1  0  0  0
 21 36  1  0  0  0
M  END
> <s_m_entry_id>
6244

> <s_m_entry_name>
dock_pv.170

> <s_m_Source_Path>
/home/csk/Desktop/cluster/DUD-E-result/abl1

> <s_m_Source_File>
dock_pv.maegz

> <i_m_Source_File_Index>
170

> <chembl_id>
CHEMBL2347716

> <chembl_pref_name>
None

> <i_lp_mmshare_version>
53161

> <i_f3d_flags>
0

> <r_lp_tautomer_probability>
1

> <s_lp_Force_Field>
OPLS_2005

> <r_lp_Energy>
13.322101

> <b_lp_Chiralities_Consistent>
1

> <s_lp_Variant>
CHEMBL1862_lig735-1

> <s_i_glide_gridfile>
glide-grid_2hzi

> <i_i_glide_lignum>
868

> <i_i_glide_rotatable_bonds>
5

> <r_i_docking_score>
-9.72681433900038

> <r_i_glide_ligand_efficiency>
-0.463181635190494

> <r_i_glide_ligand_efficiency_sa>
-1.27788301008595

> <r_i_glide_ligand_efficiency_ln>
-2.4049351904388

> <r_i_glide_gscore>
-9.72681433900038

> <r_i_glide_lipo>
-4.35343628119247

> <r_i_glide_hbond>
-0.46147911447795

> <r_i_glide_metal>
0

> <r_i_glide_rewards>
-2.56777153832402

> <r_i_glide_evdw>
-45.1521987915039

> <r_i_glide_ecoul>
-6.10554361343384

> <r_i_glide_erotb>
0.829314076584334

> <r_i_glide_esite>
0

> <r_i_glide_emodel>
-78.3584535465416

> <r_i_glide_energy>
-51.2577424049377

> <r_i_glide_einternal>
4.56274366378784

> <i_i_glide_confnum>
18

> <i_i_glide_posenum>
23

> <r_i_glide_eff_state_penalty>
0

> <s_user_duplicate_titles>
CHEMBL1862_lig735

> <s_m_subgroup_title>
dock_pv

> <s_m_subgroupid>
dock_pv

> <b_m_subgroup_collapsed>
0

$$$$
CHEMBL1862_lig203
                    3D
 Schrodinger Suite 2021-1.
 34 37  0  0  1  0            999 V2000
   19.7305   17.1147    4.9191 C   0  0  0  0  0  0
   18.6051   17.5650    5.6030 C   0  0  0  0  0  0
   17.4025   16.8601    5.5953 C   0  0  0  0  0  0
   19.6943   15.9384    4.1734 C   0  0  0  0  0  0
   16.2910   14.9048    4.4689 N   0  0  0  0  0  0
   16.6936   13.9215    3.6022 C   0  0  0  0  0  0
   18.0591   14.0462    3.4057 C   0  0  0  0  0  0
   18.4847   15.2325    4.0833 C   0  0  0  0  0  0
   17.3475   15.7242    4.7904 C   0  0  0  0  0  0
   15.7310   12.9547    3.0602 C   0  0  0  0  0  0
   16.1693   12.0331    2.3723 O   0  0  0  0  0  0
   14.2732   13.0857    3.2815 C   0  0  0  0  0  0
   13.4700   12.1640    2.6453 N   0  0  0  0  0  0
   13.4457   13.9539    3.9906 C   0  0  0  0  0  0
   12.0920   13.5596    3.7338 C   0  0  0  0  0  0
   12.1401   12.4322    2.8639 C   0  0  0  0  0  0
   10.9863   11.7926    2.4016 C   0  0  0  0  0  0
    9.7634   12.3281    2.8079 C   0  0  0  0  0  0
    9.6889   13.4201    3.6685 C   0  0  0  0  0  0
   10.8413   14.0383    4.1475 C   0  0  0  0  0  0
   20.8846   17.8452    4.9823 O   0  0  0  0  0  0
    8.4674   13.8870    4.0632 O   0  0  0  0  0  0
   18.6617   18.4883    6.1565 H   0  0  0  0  0  0
   16.5393   17.2312    6.1264 H   0  0  0  0  0  0
   20.5640   15.5907    3.6387 H   0  0  0  0  0  0
   15.3401   14.9853    4.7875 H   0  0  0  0  0  0
   18.6560   13.3890    2.7924 H   0  0  0  0  0  0
   13.8488   11.3967    2.1013 H   0  0  0  0  0  0
   13.7334   14.7860    4.6078 H   0  0  0  0  0  0
   11.0313   10.9273    1.7546 H   0  0  0  0  0  0
    8.8478   11.8633    2.4706 H   0  0  0  0  0  0
   10.7773   14.8858    4.8110 H   0  0  0  0  0  0
   21.6068   17.4450    4.4935 H   0  0  0  0  0  0
    8.5142   14.4322    4.8495 H   0  0  0  0  0  0
  1  4  2  0  0  0
  1 21  1  0  0  0
  1  2  1  0  0  0
  2  3  2  0  0  0
  2 23  1  0  0  0
  3  9  1  0  0  0
  3 24  1  0  0  0
  4  8  1  0  0  0
  4 25  1  0  0  0
  5  6  1  0  0  0
  5  9  1  0  0  0
  5 26  1  0  0  0
  6  7  2  0  0  0
  6 10  1  0  0  0
  7  8  1  0  0  0
  7 27  1  0  0  0
  8  9  2  0  0  0
 10 11  2  0  0  0
 10 12  1  0  0  0
 12 13  1  0  0  0
 12 14  2  0  0  0
 13 16  1  0  0  0
 13 28  1  0  0  0
 14 15  1  0  0  0
 14 29  1  0  0  0
 15 16  2  0  0  0
 15 20  1  0  0  0
 16 17  1  0  0  0
 17 18  2  0  0  0
 17 30  1  0  0  0
 18 19  1  0  0  0
 18 31  1  0  0  0
 19 20  2  0  0  0
 19 22  1  0  0  0
 20 32  1  0  0  0
 21 33  1  0  0  0
 22 34  1  0  0  0
M  END
> <s_m_entry_id>
6245

> <s_m_entry_name>
dock_pv.171

> <s_m_Source_Path>
/home/csk/Desktop/cluster/DUD-E-result/abl1

> <s_m_Source_File>
dock_pv.maegz

> <i_m_Source_File_Index>
171

> <chembl_id>
CHEMBL377193

> <chembl_pref_name>
None

> <i_lp_mmshare_version>
53161

> <i_f3d_flags>
0

> <r_lp_tautomer_probability>
1

> <s_lp_Force_Field>
OPLS_2005

> <r_lp_Energy>
10.740715

> <b_lp_Chiralities_Consistent>
1

> <s_lp_Variant>
CHEMBL1862_lig203-1

> <s_i_glide_gridfile>
glide-grid_2hzi

> <i_i_glide_lignum>
223

> <i_i_glide_rotatable_bonds>
4

> <r_i_docking_score>
-9.72490249539606

> <r_i_glide_ligand_efficiency>
-0.442041022518003

> <r_i_glide_ligand_efficiency_sa>
-1.23861632958236

> <r_i_glide_ligand_efficiency_ln>
-2.37712089431214

> <r_i_glide_gscore>
-9.72490249539606

> <r_i_glide_lipo>
-3.50054395070506

> <r_i_glide_hbond>
-0.534968877986093

> <r_i_glide_metal>
0

> <r_i_glide_rewards>
-3.03590276056541

> <r_i_glide_evdw>
-38.6386985778809

> <r_i_glide_ecoul>
-7.65930938720703

> <r_i_glide_erotb>
0.427344430835602

> <r_i_glide_esite>
0

> <r_i_glide_emodel>
-68.7974325440074

> <r_i_glide_energy>
-46.2980079650879

> <r_i_glide_einternal>
3.56160473823547

> <i_i_glide_confnum>
1

> <i_i_glide_posenum>
333

> <r_i_glide_eff_state_penalty>
0

> <s_user_duplicate_titles>
CHEMBL1862_lig203

> <s_m_subgroup_title>
dock_pv

> <s_m_subgroupid>
dock_pv

> <b_m_subgroup_collapsed>
0

$$$$
CHEMBL1862_lig736
                    3D
 Schrodinger Suite 2021-1.
 39 41  0  0  1  0            999 V2000
   18.4611   15.7113    4.7210 C   0  0  0  0  0  0
   17.4341   16.3375    5.4395 C   0  0  0  0  0  0
   16.1159   15.9019    5.2888 C   0  0  0  0  0  0
   18.2651   14.6562    3.8768 N   0  0  0  0  0  0
   17.0007   14.2438    3.7503 C   0  0  0  0  0  0
   15.8900   14.8328    4.4097 C   0  0  0  0  0  0
   14.6896   14.2617    4.1363 N   0  0  0  0  0  0
   14.8222   13.2454    3.3191 C   0  0  0  0  0  0
   16.4525   12.8666    2.8029 S   0  0  0  0  0  0
   13.8078   12.4320    2.8361 N   0  0  0  0  0  0
   12.4837   12.6231    3.0015 C   0  0  0  0  0  0
   11.7640   11.6573    2.4025 N   0  0  0  0  0  0
   11.9711   13.5695    3.6037 O   0  0  0  0  0  0
   10.3030   11.6547    2.2713 C   0  0  0  0  0  0
    9.8334   11.4917    0.8232 C   0  0  0  0  0  0
   19.8532   16.2092    4.8129 C   0  0  0  0  0  0
   20.3473   17.1242    3.8682 C   0  0  0  0  0  0
   21.6449   17.6390    4.0183 C   0  0  0  0  0  0
   22.4475   17.2347    5.0846 C   0  0  0  0  0  0
   21.9663   16.3072    6.0030 C   0  0  0  0  0  0
   20.6742   15.7995    5.8704 C   0  0  0  0  0  0
   19.5151   17.5183    2.8403 O   0  0  0  0  0  0
   20.0911   17.6193    1.5447 C   0  0  0  0  0  0
   17.6585   17.1700    6.0919 H   0  0  0  0  0  0
   15.3034   16.3678    5.8278 H   0  0  0  0  0  0
   14.0929   11.6174    2.3122 H   0  0  0  0  0  0
   12.2398   10.8065    2.1282 H   0  0  0  0  0  0
    9.8481   12.5568    2.6892 H   0  0  0  0  0  0
    9.9057   10.8330    2.8610 H   0  0  0  0  0  0
    8.7433   11.4918    0.7738 H   0  0  0  0  0  0
   10.1650   10.5409    0.4030 H   0  0  0  0  0  0
   10.1827   12.3065    0.1890 H   0  0  0  0  0  0
   22.0365   18.3637    3.3208 H   0  0  0  0  0  0
   23.4442   17.6350    5.1953 H   0  0  0  0  0  0
   22.5992   15.9855    6.8181 H   0  0  0  0  0  0
   20.3048   15.0892    6.5972 H   0  0  0  0  0  0
   19.3019   17.8167    0.8212 H   0  0  0  0  0  0
   20.8166   18.4301    1.4720 H   0  0  0  0  0  0
   20.5656   16.6844    1.2458 H   0  0  0  0  0  0
  1  2  2  0  0  0
  1  4  1  0  0  0
  1 16  1  0  0  0
  2  3  1  0  0  0
  2 24  1  0  0  0
  3  6  2  0  0  0
  3 25  1  0  0  0
  4  5  2  0  0  0
  5  6  1  0  0  0
  5  9  1  0  0  0
  6  7  1  0  0  0
  7  8  2  0  0  0
  8  9  1  0  0  0
  8 10  1  0  0  0
 10 11  1  0  0  0
 10 26  1  0  0  0
 11 12  1  0  0  0
 11 13  2  0  0  0
 12 14  1  0  0  0
 12 27  1  0  0  0
 14 15  1  0  0  0
 14 28  1  0  0  0
 14 29  1  0  0  0
 15 30  1  0  0  0
 15 31  1  0  0  0
 15 32  1  0  0  0
 16 17  2  0  0  0
 16 21  1  0  0  0
 17 18  1  0  0  0
 17 22  1  0  0  0
 18 19  2  0  0  0
 18 33  1  0  0  0
 19 20  1  0  0  0
 19 34  1  0  0  0
 20 21  2  0  0  0
 20 35  1  0  0  0
 21 36  1  0  0  0
 22 23  1  0  0  0
 23 37  1  0  0  0
 23 38  1  0  0  0
 23 39  1  0  0  0
M  END
> <s_m_entry_id>
6246

> <s_m_entry_name>
dock_pv.172

> <s_m_Source_Path>
/home/csk/Desktop/cluster/DUD-E-result/abl1

> <s_m_Source_File>
dock_pv.maegz

> <i_m_Source_File_Index>
172

> <chembl_id>
CHEMBL2347715

> <chembl_pref_name>
None

> <i_lp_mmshare_version>
53161

> <i_f3d_flags>
0

> <r_lp_tautomer_probability>
1

> <s_lp_Force_Field>
OPLS_2005

> <r_lp_Energy>
21.382612

> <b_lp_Chiralities_Consistent>
1

> <s_lp_Variant>
CHEMBL1862_lig736-1

> <s_i_glide_gridfile>
glide-grid_2hzi

> <i_i_glide_lignum>
869

> <i_i_glide_rotatable_bonds>
6

> <r_i_docking_score>
-9.72409200053271

> <r_i_glide_ligand_efficiency>
-0.422786608718814

> <r_i_glide_ligand_efficiency_sa>
-1.20234887480221

> <r_i_glide_ligand_efficiency_ln>
-2.35137361892016

> <r_i_glide_gscore>
-9.72409200053271

> <r_i_glide_lipo>
-4.37449222061256

> <r_i_glide_hbond>
-0.46692812428928

> <r_i_glide_metal>
0

> <r_i_glide_rewards>
-2.23470554394837

> <r_i_glide_evdw>
-50.5729484558105

> <r_i_glide_ecoul>
-5.43960475921631

> <r_i_glide_erotb>
0.696622024990472

> <r_i_glide_esite>
0

> <r_i_glide_emodel>
-84.4633912955565

> <r_i_glide_energy>
-56.0125532150269

> <r_i_glide_einternal>
6.03005170822144

> <i_i_glide_confnum>
20

> <i_i_glide_posenum>
67

> <r_i_glide_eff_state_penalty>
0

> <s_user_duplicate_titles>
CHEMBL1862_lig736

> <s_m_subgroup_title>
dock_pv

> <s_m_subgroupid>
dock_pv

> <b_m_subgroup_collapsed>
0

$$$$
CHEMBL1862_lig750
                    3D
 Schrodinger Suite 2021-1.
 45 47  0  0  1  0            999 V2000
   18.4014   16.2035    4.7038 C   0  0  0  0  0  0
   17.4692   16.6144    5.6638 C   0  0  0  0  0  0
   16.1667   16.1118    5.6884 C   0  0  0  0  0  0
   18.0550   15.2720    3.7151 C   0  0  0  0  0  0
   16.7670   14.7382    3.7734 C   0  0  0  0  0  0
   15.8143   15.1502    4.7364 C   0  0  0  0  0  0
   14.6333   14.4772    4.5793 N   0  0  0  0  0  0
   14.8636   13.6294    3.6025 C   0  0  0  0  0  0
   16.1156   13.7645    3.0574 N   0  0  0  0  0  0
   14.0155   12.6725    3.0822 N   0  0  0  0  0  0
   12.6740   12.7244    3.1090 C   0  0  0  0  0  0
   12.1627   11.6550    2.4783 N   0  0  0  0  0  0
   12.0029   13.6322    3.6028 O   0  0  0  0  0  0
   10.8627   11.5303    1.8104 C   0  0  0  0  0  0
    9.6359   12.0349    2.5941 C   0  0  0  0  0  0
   19.8026   16.7011    4.7541 C   0  0  0  0  0  0
   20.6784   16.3114    5.7834 C   0  0  0  0  0  0
   21.9835   16.8026    5.8242 C   0  0  0  0  0  0
   22.4431   17.6627    4.8311 C   0  0  0  0  0  0
   21.5941   18.0325    3.7897 C   0  0  0  0  0  0
   20.2837   17.5450    3.7458 C   0  0  0  0  0  0
   19.4291   17.9137    2.7388 O   0  0  0  0  0  0
   20.2747   15.4878    6.8049 O   0  0  0  0  0  0
   20.0155   14.1419    6.4489 C   0  0  0  0  0  0
   19.8176   17.4840    1.4490 C   0  0  0  0  0  0
   17.7668   17.3318    6.4156 H   0  0  0  0  0  0
   15.4576   16.4328    6.4362 H   0  0  0  0  0  0
   18.7786   14.9351    2.9857 H   0  0  0  0  0  0
   16.4572   13.2108    2.2886 H   0  0  0  0  0  0
   14.4388   11.9116    2.5711 H   0  0  0  0  0  0
   12.7643   10.8442    2.3874 H   0  0  0  0  0  0
   10.7211   10.4703    1.5804 H   0  0  0  0  0  0
   10.9149   12.0314    0.8430 H   0  0  0  0  0  0
    8.7143   11.7536    2.0862 H   0  0  0  0  0  0
    9.6315   13.1223    2.6743 H   0  0  0  0  0  0
    9.5962   11.6210    3.6014 H   0  0  0  0  0  0
   22.6429   16.5118    6.6306 H   0  0  0  0  0  0
   23.4564   18.0389    4.8664 H   0  0  0  0  0  0
   21.9520   18.7024    3.0210 H   0  0  0  0  0  0
   19.3976   13.6371    7.1908 H   0  0  0  0  0  0
   19.5172   14.0322    5.4926 H   0  0  0  0  0  0
   20.9660   13.6333    6.4022 H   0  0  0  0  0  0
   18.9579   17.6344    0.8030 H   0  0  0  0  0  0
   20.6555   18.0520    1.0548 H   0  0  0  0  0  0
   20.0751   16.4267    1.4237 H   0  0  0  0  0  0
  1  2  2  0  0  0
  1  4  1  0  0  0
  1 16  1  0  0  0
  2  3  1  0  0  0
  2 26  1  0  0  0
  3  6  2  0  0  0
  3 27  1  0  0  0
  4  5  2  0  0  0
  4 28  1  0  0  0
  5  6  1  0  0  0
  5  9  1  0  0  0
  6  7  1  0  0  0
  7  8  2  0  0  0
  8  9  1  0  0  0
  8 10  1  0  0  0
  9 29  1  0  0  0
 10 11  1  0  0  0
 10 30  1  0  0  0
 11 12  1  0  0  0
 11 13  2  0  0  0
 12 14  1  0  0  0
 12 31  1  0  0  0
 14 15  1  0  0  0
 14 32  1  0  0  0
 14 33  1  0  0  0
 15 34  1  0  0  0
 15 35  1  0  0  0
 15 36  1  0  0  0
 16 17  2  0  0  0
 16 21  1  0  0  0
 17 18  1  0  0  0
 17 23  1  0  0  0
 18 19  2  0  0  0
 18 37  1  0  0  0
 19 20  1  0  0  0
 19 38  1  0  0  0
 20 21  2  0  0  0
 20 39  1  0  0  0
 21 22  1  0  0  0
 22 25  1  0  0  0
 23 24  1  0  0  0
 24 40  1  0  0  0
 24 41  1  0  0  0
 24 42  1  0  0  0
 25 43  1  0  0  0
 25 44  1  0  0  0
 25 45  1  0  0  0
M  END
> <s_m_entry_id>
6247

> <s_m_entry_name>
dock_pv.173

> <s_m_Source_Path>
/home/csk/Desktop/cluster/DUD-E-result/abl1

> <s_m_Source_File>
dock_pv.maegz

> <i_m_Source_File_Index>
173

> <chembl_id>
CHEMBL2347747

> <chembl_pref_name>
None

> <i_lp_mmshare_version>
53161

> <i_f3d_flags>
0

> <r_lp_tautomer_probability>
1

> <s_lp_Force_Field>
OPLS_2005

> <r_lp_Energy>
24.506283

> <b_lp_Chiralities_Consistent>
1

> <s_lp_Variant>
CHEMBL1862_lig750-1

> <s_i_glide_gridfile>
glide-grid_2hzi

> <i_i_glide_lignum>
883

> <i_i_glide_rotatable_bonds>
7

> <r_i_docking_score>
-9.70679819291102

> <r_i_glide_ligand_efficiency>
-0.388271927716441

> <r_i_glide_ligand_efficiency_sa>
-1.13531400267483

> <r_i_glide_ligand_efficiency_ln>
-2.30080206098843

> <r_i_glide_gscore>
-9.70679819291102

> <r_i_glide_lipo>
-4.15492020160483

> <r_i_glide_hbond>
-0.32

> <r_i_glide_metal>
0

> <r_i_glide_rewards>
-2.38292865228469

> <r_i_glide_evdw>
-50.035587310791

> <r_i_glide_ecoul>
-6.59956169128418

> <r_i_glide_erotb>
0.653796510341135

> <r_i_glide_esite>
-0.0110322301304661

> <r_i_glide_emodel>
-80.0429380048529

> <r_i_glide_energy>
-56.6351490020752

> <r_i_glide_einternal>
14.6423473358154

> <i_i_glide_confnum>
1

> <i_i_glide_posenum>
305

> <r_i_glide_eff_state_penalty>
0

> <s_user_duplicate_titles>
CHEMBL1862_lig750

> <s_m_subgroup_title>
dock_pv

> <s_m_subgroupid>
dock_pv

> <b_m_subgroup_collapsed>
0

$$$$
CHEMBL1862_lig905
                    3D
 Schrodinger Suite 2021-1.
 37 39  0  0  1  0            999 V2000
   16.2078   12.2531    2.2696 N   0  0  0  0  0  0
   14.8739   12.0330    2.1987 C   0  0  0  0  0  0
   13.8888   12.6396    2.9028 N   0  0  0  0  0  0
   16.6207   13.2314    3.1018 C   0  0  0  0  0  0
   15.6950   13.9803    3.8462 C   0  0  0  0  0  0
   14.3405   13.6064    3.7077 C   0  0  0  0  0  0
   13.6307   14.4284    4.5659 N   0  0  0  0  0  0
   14.4754   15.2819    5.2031 N   0  0  0  0  0  0
   15.6964   15.0542    4.7774 C   0  0  0  0  0  0
   12.1967   14.4327    4.9153 C   0  0  0  0  0  0
   11.9472   13.6335    6.2100 C   0  0  0  0  0  0
   11.2888   13.9334    3.7758 C   0  0  0  0  0  0
   17.9920   13.4300    3.2030 N   0  0  0  0  0  0
   16.8866   15.7713    5.2026 C   0  0  0  0  0  0
   18.0164   16.2081    5.3599 C   0  0  0  0  0  0
   19.4138   16.6149    5.3861 C   0  0  0  0  0  0
   19.7927   17.8111    4.7744 C   0  0  0  0  0  0
   21.1263   18.2098    4.8059 C   0  0  0  0  0  0
   22.0701   17.4222    5.4554 C   0  0  0  0  0  0
   21.7039   16.2143    6.0443 C   0  0  0  0  0  0
   20.3721   15.8020    6.0030 C   0  0  0  0  0  0
   23.3637   17.8547    5.5201 O   0  0  0  0  0  0
   14.5638   11.2457    1.5248 H   0  0  0  0  0  0
   11.9326   15.4764    5.0833 H   0  0  0  0  0  0
   10.9077   13.7148    6.5299 H   0  0  0  0  0  0
   12.1641   12.5751    6.0942 H   0  0  0  0  0  0
   12.5634   14.0235    7.0198 H   0  0  0  0  0  0
   10.2436   14.1737    3.9722 H   0  0  0  0  0  0
   11.5618   14.3905    2.8296 H   0  0  0  0  0  0
   11.3495   12.8524    3.6462 H   0  0  0  0  0  0
   18.3435   14.1668    3.7969 H   0  0  0  0  0  0
   18.6059   12.8612    2.6378 H   0  0  0  0  0  0
   19.0624   18.4344    4.2769 H   0  0  0  0  0  0
   21.4317   19.1349    4.3398 H   0  0  0  0  0  0
   22.4465   15.6077    6.5396 H   0  0  0  0  0  0
   20.0891   14.8662    6.4651 H   0  0  0  0  0  0
   23.9422   17.2569    6.0023 H   0  0  0  0  0  0
  1  2  2  0  0  0
  1  4  1  0  0  0
  2  3  1  0  0  0
  2 23  1  0  0  0
  3  6  2  0  0  0
  4  5  2  0  0  0
  4 13  1  0  0  0
  5  6  1  0  0  0
  5  9  1  0  0  0
  6  7  1  0  0  0
  7  8  1  0  0  0
  7 10  1  0  0  0
  8  9  2  0  0  0
  9 14  1  0  0  0
 10 11  1  0  0  0
 10 12  1  0  0  0
 10 24  1  0  0  0
 11 25  1  0  0  0
 11 26  1  0  0  0
 11 27  1  0  0  0
 12 28  1  0  0  0
 12 29  1  0  0  0
 12 30  1  0  0  0
 13 31  1  0  0  0
 13 32  1  0  0  0
 14 15  3  0  0  0
 15 16  1  0  0  0
 16 17  2  0  0  0
 16 21  1  0  0  0
 17 18  1  0  0  0
 17 33  1  0  0  0
 18 19  2  0  0  0
 18 34  1  0  0  0
 19 20  1  0  0  0
 19 22  1  0  0  0
 20 21  2  0  0  0
 20 35  1  0  0  0
 21 36  1  0  0  0
 22 37  1  0  0  0
M  END
> <s_m_entry_id>
6248

> <s_m_entry_name>
dock_pv.174

> <s_m_Source_Path>
/home/csk/Desktop/cluster/DUD-E-result/abl1

> <s_m_Source_File>
dock_pv.maegz

> <i_m_Source_File_Index>
174

> <chembl_id>
CHEMBL3736466

> <chembl_pref_name>
None

> <i_lp_mmshare_version>
53161

> <i_f3d_flags>
0

> <r_lp_tautomer_probability>
1

> <s_lp_Force_Field>
OPLS_2005

> <r_lp_Energy>
7.282843

> <b_lp_Chiralities_Consistent>
1

> <s_lp_Variant>
CHEMBL1862_lig905-1

> <s_i_glide_gridfile>
glide-grid_2hzi

> <i_i_glide_lignum>
1061

> <i_i_glide_rotatable_bonds>
4

> <r_i_docking_score>
-9.69676285524769

> <r_i_glide_ligand_efficiency>
-0.440761947965804

> <r_i_glide_ligand_efficiency_sa>
-1.23503231238395

> <r_i_glide_ligand_efficiency_ln>
-2.37024253984157

> <r_i_glide_gscore>
-9.69676285524769

> <r_i_glide_lipo>
-3.80919025347379

> <r_i_glide_hbond>
-0.32

> <r_i_glide_metal>
0

> <r_i_glide_rewards>
-3.45313072713156

> <r_i_glide_evdw>
-38.165641784668

> <r_i_glide_ecoul>
-4.2058482170105

> <r_i_glide_erotb>
0.424717447142626

> <r_i_glide_esite>
0

> <r_i_glide_emodel>
-55.6797340021363

> <r_i_glide_energy>
-42.3714900016785

> <r_i_glide_einternal>
1.96102297306061

> <i_i_glide_confnum>
1

> <i_i_glide_posenum>
11

> <r_i_glide_eff_state_penalty>
0

> <s_user_duplicate_titles>
CHEMBL1862_lig905

> <s_m_subgroup_title>
dock_pv

> <s_m_subgroupid>
dock_pv

> <b_m_subgroup_collapsed>
0

$$$$
CHEMBL1862_lig509
                    3D
 Schrodinger Suite 2021-1.
 46 49  0  0  1  0            999 V2000
   15.9159   12.0461    2.0042 N   0  0  0  0  0  0
   14.5648   12.0447    2.0544 C   0  0  0  0  0  0
   13.7614   12.7879    2.8496 N   0  0  0  0  0  0
   16.5659   12.9072    2.8129 C   0  0  0  0  0  0
   15.8541   13.7901    3.6456 C   0  0  0  0  0  0
   14.4427   13.6471    3.6116 C   0  0  0  0  0  0
   13.9399   14.5344    4.5395 N   0  0  0  0  0  0
   14.9560   15.2388    5.1095 N   0  0  0  0  0  0
   16.1052   14.8327    4.6015 C   0  0  0  0  0  0
   17.4345   15.3995    5.0416 C   0  0  0  0  0  0
   17.5907   16.7721    5.2441 C   0  0  0  0  0  0
   18.8492   17.3309    5.4893 C   0  0  0  0  0  0
   19.9840   16.5149    5.6029 C   0  0  0  0  0  0
   19.8162   15.1303    5.4847 C   0  0  0  0  0  0
   18.5643   14.5892    5.2033 C   0  0  0  0  0  0
   17.9519   12.8342    2.8011 N   0  0  0  0  0  0
   18.9641   18.6892    5.6390 O   0  0  0  0  0  0
   21.2017   17.1227    5.8659 O   0  0  0  0  0  0
   22.3551   16.3151    6.0781 C   0  0  0  0  0  0
   12.5642   14.6645    5.0677 C   0  0  2  0  0  0
   12.1647   13.5226    6.0082 C   0  0  0  0  0  0
   10.6365   13.4601    5.9858 C   0  0  0  0  0  0
   10.2441   13.8285    4.5521 C   0  0  1  0  0  0
   11.3984   14.7110    4.0522 C   0  0  0  0  0  0
    9.9208   12.6601    3.6022 C   0  0  0  0  0  0
   14.0711   11.3740    1.3668 H   0  0  0  0  0  0
   16.7169   17.3985    5.1988 H   0  0  0  0  0  0
   20.6494   14.4543    5.6015 H   0  0  0  0  0  0
   18.4802   13.5172    5.1443 H   0  0  0  0  0  0
   18.4829   13.5272    3.3059 H   0  0  0  0  0  0
   18.4073   12.1936    2.1605 H   0  0  0  0  0  0
   18.1282   19.1502    5.5454 H   0  0  0  0  0  0
   23.2183   16.9528    6.2689 H   0  0  0  0  0  0
   22.2277   15.6677    6.9456 H   0  0  0  0  0  0
   22.5794   15.7039    5.2044 H   0  0  0  0  0  0
   12.5840   15.6148    5.5777 H   0  0  0  0  0  0
   12.5638   12.5947    5.6025 H   0  0  0  0  0  0
   12.5446   13.6552    7.0201 H   0  0  0  0  0  0
   10.2630   12.4867    6.3000 H   0  0  0  0  0  0
   10.2158   14.1855    6.6850 H   0  0  0  0  0  0
    9.3357   14.4325    4.6082 H   0  0  0  0  0  0
   10.9814   15.7078    4.0038 H   0  0  0  0  0  0
   11.7188   14.4309    3.0544 H   0  0  0  0  0  0
   10.7900   12.0336    3.3979 H   0  0  0  0  0  0
    9.1275   12.0299    4.0037 H   0  0  0  0  0  0
    9.5693   13.0367    2.6416 H   0  0  0  0  0  0
  1  2  2  0  0  0
  1  4  1  0  0  0
  2  3  1  0  0  0
  2 26  1  0  0  0
  3  6  2  0  0  0
  4  5  2  0  0  0
  4 16  1  0  0  0
  5  9  1  0  0  0
  5  6  1  0  0  0
  6  7  1  0  0  0
  7  8  1  0  0  0
  7 20  1  0  0  0
  8  9  2  0  0  0
  9 10  1  0  0  0
 10 15  1  0  0  0
 10 11  2  0  0  0
 11 12  1  0  0  0
 11 27  1  0  0  0
 12 13  2  0  0  0
 12 17  1  0  0  0
 13 14  1  0  0  0
 13 18  1  0  0  0
 14 15  2  0  0  0
 14 28  1  0  0  0
 15 29  1  0  0  0
 16 30  1  0  0  0
 16 31  1  0  0  0
 17 32  1  0  0  0
 18 19  1  0  0  0
 19 33  1  0  0  0
 19 34  1  0  0  0
 19 35  1  0  0  0
 20 21  1  0  0  0
 20 24  1  0  0  0
 20 36  1  0  0  0
 21 22  1  0  0  0
 21 37  1  0  0  0
 21 38  1  0  0  0
 22 23  1  0  0  0
 22 39  1  0  0  0
 22 40  1  0  0  0
 23 24  1  0  0  0
 23 25  1  0  0  0
 23 41  1  0  0  0
 24 42  1  0  0  0
 24 43  1  0  0  0
 25 44  1  0  0  0
 25 45  1  0  0  0
 25 46  1  0  0  0
M  END
> <s_m_entry_id>
6249

> <s_m_entry_name>
dock_pv.175

> <s_m_Source_Path>
/home/csk/Desktop/cluster/DUD-E-result/abl1

> <s_m_Source_File>
dock_pv.maegz

> <i_m_Source_File_Index>
175

> <chembl_id>
CHEMBL1242202

> <chembl_pref_name>
None

> <i_lp_mmshare_version>
53161

> <i_f3d_flags>
0

> <r_lp_tautomer_probability>
0.999999999999776

> <s_lp_Force_Field>
OPLS_2005

> <r_lp_Energy>
34.318355

> <b_lp_Chiralities_Consistent>
1

> <s_lp_Variant>
CHEMBL1862_lig509-3

> <s_i_glide_gridfile>
glide-grid_2hzi

> <i_i_glide_lignum>
605

> <i_i_glide_rotatable_bonds>
4

> <r_i_docking_score>
-9.68913334571438

> <r_i_glide_ligand_efficiency>
-0.387565333828575

> <r_i_glide_ligand_efficiency_sa>
-1.13324790961522

> <r_i_glide_ligand_efficiency_ln>
-2.29661496283007

> <r_i_glide_gscore>
-9.68913334571438

> <r_i_glide_lipo>
-3.76878818169024

> <r_i_glide_hbond>
-0.608

> <r_i_glide_metal>
0

> <r_i_glide_rewards>
-3.31023315290499

> <r_i_glide_evdw>
-25.0136985778809

> <r_i_glide_ecoul>
-6.54289436340332

> <r_i_glide_erotb>
0.23000707228539

> <r_i_glide_esite>
0

> <r_i_glide_emodel>
-40.6107806562347

> <r_i_glide_energy>
-31.5565929412842

> <r_i_glide_einternal>
1.97068870067596

> <i_i_glide_confnum>
37

> <i_i_glide_posenum>
8

> <r_i_glide_eff_state_penalty>
0

> <s_user_duplicate_titles>
CHEMBL1862_lig509

> <s_m_subgroup_title>
dock_pv

> <s_m_subgroupid>
dock_pv

> <b_m_subgroup_collapsed>
0

$$$$
CHEMBL1862_lig480
                    3D
 Schrodinger Suite 2021-1.
 38 40  0  0  1  0            999 V2000
   15.3693   12.0330    2.0031 N   0  0  0  0  0  0
   14.0173   12.0330    2.0031 C   0  0  0  0  0  0
   13.1672   12.6946    2.8038 N   0  0  0  0  0  0
   15.9740   12.8613    2.8666 C   0  0  0  0  0  0
   15.2042   13.7370    3.6602 C   0  0  0  0  0  0
   13.8013   13.5403    3.6047 C   0  0  0  0  0  0
   13.2430   14.3652    4.5508 N   0  0  0  0  0  0
   14.2046   15.1356    5.1052 N   0  0  0  0  0  0
   15.3641   14.8386    4.5497 C   0  0  0  0  0  0
   16.5985   15.6327    4.8136 C   0  0  0  0  0  0
   16.6650   16.4330    5.9522 C   0  0  0  0  0  0
   17.7676   17.2448    6.1601 C   0  0  0  0  0  0
   18.8575   17.2144    5.2824 C   0  0  0  0  0  0
   18.8010   16.4049    4.1489 C   0  0  0  0  0  0
   17.6688   15.6375    3.9098 C   0  0  0  0  0  0
   17.3580   12.7372    2.9388 N   0  0  0  0  0  0
   11.8667   14.4218    5.0732 C   0  0  0  0  0  0
   11.7925   13.6331    6.4025 C   0  0  0  0  0  0
   10.7832   13.9324    4.0933 C   0  0  0  0  0  0
   20.0995   18.0419    5.6033 C   0  0  0  0  0  0
   21.0290   18.2600    4.4806 C   0  0  0  0  0  0
   21.7642   18.4302    3.6038 N   0  0  0  0  0  0
   13.5552   11.3696    1.2851 H   0  0  0  0  0  0
   15.8479   16.4562    6.6596 H   0  0  0  0  0  0
   17.7692   17.8871    7.0281 H   0  0  0  0  0  0
   19.6133   16.3775    3.4361 H   0  0  0  0  0  0
   17.6121   15.1230    2.9681 H   0  0  0  0  0  0
   17.8667   13.2878    3.6143 H   0  0  0  0  0  0
   17.8351   12.0814    2.3353 H   0  0  0  0  0  0
   11.6529   15.4811    5.2029 H   0  0  0  0  0  0
   10.7969   13.6793    6.8456 H   0  0  0  0  0  0
   12.0505   12.5843    6.2731 H   0  0  0  0  0  0
   12.4932   14.0323    7.1333 H   0  0  0  0  0  0
    9.7869   14.1436    4.4820 H   0  0  0  0  0  0
   10.8656   14.4333    3.1345 H   0  0  0  0  0  0
   10.8294   12.8568    3.9220 H   0  0  0  0  0  0
   20.6794   17.5284    6.3689 H   0  0  0  0  0  0
   19.8096   19.0134    6.0019 H   0  0  0  0  0  0
  1  2  2  0  0  0
  1  4  1  0  0  0
  2  3  1  0  0  0
  2 23  1  0  0  0
  3  6  2  0  0  0
  4  5  2  0  0  0
  4 16  1  0  0  0
  5  9  1  0  0  0
  5  6  1  0  0  0
  6  7  1  0  0  0
  7 17  1  0  0  0
  7  8  1  0  0  0
  8  9  2  0  0  0
  9 10  1  0  0  0
 10 11  2  0  0  0
 10 15  1  0  0  0
 11 12  1  0  0  0
 11 24  1  0  0  0
 12 13  2  0  0  0
 12 25  1  0  0  0
 13 14  1  0  0  0
 13 20  1  0  0  0
 14 15  2  0  0  0
 14 26  1  0  0  0
 15 27  1  0  0  0
 16 28  1  0  0  0
 16 29  1  0  0  0
 17 18  1  0  0  0
 17 19  1  0  0  0
 17 30  1  0  0  0
 18 31  1  0  0  0
 18 32  1  0  0  0
 18 33  1  0  0  0
 19 34  1  0  0  0
 19 35  1  0  0  0
 19 36  1  0  0  0
 20 21  1  0  0  0
 20 37  1  0  0  0
 20 38  1  0  0  0
 21 22  3  0  0  0
M  END
> <s_m_entry_id>
6250

> <s_m_entry_name>
dock_pv.176

> <s_m_Source_Path>
/home/csk/Desktop/cluster/DUD-E-result/abl1

> <s_m_Source_File>
dock_pv.maegz

> <i_m_Source_File_Index>
176

> <chembl_id>
CHEMBL1240545

> <chembl_pref_name>
None

> <i_lp_mmshare_version>
53161

> <i_f3d_flags>
0

> <r_lp_tautomer_probability>
1

> <s_lp_Force_Field>
OPLS_2005

> <r_lp_Energy>
14.461161

> <b_lp_Chiralities_Consistent>
1

> <s_lp_Variant>
CHEMBL1862_lig480-1

> <s_i_glide_gridfile>
glide-grid_2hzi

> <i_i_glide_lignum>
570

> <i_i_glide_rotatable_bonds>
3

> <r_i_docking_score>
-9.68587923941444

> <r_i_glide_ligand_efficiency>
-0.440267238155202

> <r_i_glide_ligand_efficiency_sa>
-1.23364611603881

> <r_i_glide_ligand_efficiency_ln>
-2.36758218714239

> <r_i_glide_gscore>
-9.68587923941444

> <r_i_glide_lipo>
-3.43789438369387

> <r_i_glide_hbond>
-0.32

> <r_i_glide_metal>
0

> <r_i_glide_rewards>
-4.343208726158

> <r_i_glide_evdw>
-30.700569152832

> <r_i_glide_ecoul>
-3.17976951599121

> <r_i_glide_erotb>
0.427217755477707

> <r_i_glide_esite>
0

> <r_i_glide_emodel>
-42.7647879715093

> <r_i_glide_energy>
-33.8803386688232

> <r_i_glide_einternal>
2.21621489524841

> <i_i_glide_confnum>
9

> <i_i_glide_posenum>
249

> <r_i_glide_eff_state_penalty>
0

> <s_user_duplicate_titles>
CHEMBL1862_lig480

> <s_m_subgroup_title>
dock_pv

> <s_m_subgroupid>
dock_pv

> <b_m_subgroup_collapsed>
0

$$$$
CHEMBL1862_lig899
                    3D
 Schrodinger Suite 2021-1.
 36 38  0  0  1  0            999 V2000
   15.9973   12.3548    2.1209 N   0  0  0  0  0  0
   14.6834   12.0339    2.0316 C   0  0  0  0  0  0
   13.6480   12.5142    2.7678 N   0  0  0  0  0  0
   16.3298   13.2955    3.0316 C   0  0  0  0  0  0
   15.3433   13.9347    3.8004 C   0  0  0  0  0  0
   14.0249   13.4673    3.6253 C   0  0  0  0  0  0
   13.2534   14.1576    4.5383 N   0  0  0  0  0  0
   14.0102   15.0725    5.2020 N   0  0  0  0  0  0
   15.2520   14.9541    4.7904 C   0  0  0  0  0  0
   11.8391   13.9221    4.8841 C   0  0  0  0  0  0
   10.9655   15.1597    4.6266 C   0  0  0  0  0  0
   11.7051   13.3911    6.3267 C   0  0  0  0  0  0
   17.6831   13.5634    3.2019 N   0  0  0  0  0  0
   16.3872   15.7109    5.2924 C   0  0  0  0  0  0
   17.5239   16.0999    5.5145 C   0  0  0  0  0  0
   18.9650   16.2888    5.5995 C   0  0  0  0  0  0
   19.5663   17.4782    5.1729 C   0  0  0  0  0  0
   20.9578   17.6051    5.2014 C   0  0  0  0  0  0
   21.7493   16.5507    5.6581 C   0  0  0  0  0  0
   21.1524   15.3623    6.0783 C   0  0  0  0  0  0
   19.7643   15.2312    6.0489 C   0  0  0  0  0  0
   21.5448   18.7450    4.7751 F   0  0  0  0  0  0
   14.4413   11.2587    1.3159 H   0  0  0  0  0  0
   11.4730   13.1397    4.2179 H   0  0  0  0  0  0
   10.0865   15.1530    5.2679 H   0  0  0  0  0  0
   11.4975   16.0924    4.8039 H   0  0  0  0  0  0
   10.5851   15.1643    3.6048 H   0  0  0  0  0  0
   10.6599   13.2700    6.6133 H   0  0  0  0  0  0
   12.1638   12.4154    6.4205 H   0  0  0  0  0  0
   12.1766   14.0324    7.0674 H   0  0  0  0  0  0
   17.9656   14.2749    3.8595 H   0  0  0  0  0  0
   18.3533   13.0676    2.6321 H   0  0  0  0  0  0
   18.9663   18.2973    4.8019 H   0  0  0  0  0  0
   22.8256   16.6508    5.6763 H   0  0  0  0  0  0
   21.7639   14.5364    6.4096 H   0  0  0  0  0  0
   19.3180   14.2978    6.3646 H   0  0  0  0  0  0
  1  2  2  0  0  0
  1  4  1  0  0  0
  2  3  1  0  0  0
  2 23  1  0  0  0
  3  6  2  0  0  0
  4  5  2  0  0  0
  4 13  1  0  0  0
  5  6  1  0  0  0
  5  9  1  0  0  0
  6  7  1  0  0  0
  7  8  1  0  0  0
  7 10  1  0  0  0
  8  9  2  0  0  0
  9 14  1  0  0  0
 10 11  1  0  0  0
 10 12  1  0  0  0
 10 24  1  0  0  0
 11 25  1  0  0  0
 11 26  1  0  0  0
 11 27  1  0  0  0
 12 28  1  0  0  0
 12 29  1  0  0  0
 12 30  1  0  0  0
 13 31  1  0  0  0
 13 32  1  0  0  0
 14 15  3  0  0  0
 15 16  1  0  0  0
 16 17  2  0  0  0
 16 21  1  0  0  0
 17 18  1  0  0  0
 17 33  1  0  0  0
 18 19  2  0  0  0
 18 22  1  0  0  0
 19 20  1  0  0  0
 19 34  1  0  0  0
 20 21  2  0  0  0
 20 35  1  0  0  0
 21 36  1  0  0  0
M  END
> <s_m_entry_id>
6251

> <s_m_entry_name>
dock_pv.177

> <s_m_Source_Path>
/home/csk/Desktop/cluster/DUD-E-result/abl1

> <s_m_Source_File>
dock_pv.maegz

> <i_m_Source_File_Index>
177

> <chembl_id>
CHEMBL3735795

> <chembl_pref_name>
None

> <i_lp_mmshare_version>
53161

> <i_f3d_flags>
0

> <r_lp_tautomer_probability>
1

> <s_lp_Force_Field>
OPLS_2005

> <r_lp_Energy>
8.575706

> <b_lp_Chiralities_Consistent>
1

> <s_lp_Variant>
CHEMBL1862_lig899-1

> <s_i_glide_gridfile>
glide-grid_2hzi

> <i_i_glide_lignum>
1055

> <i_i_glide_rotatable_bonds>
3

> <r_i_docking_score>
-9.67654565528209

> <r_i_glide_ligand_efficiency>
-0.439842984331004

> <r_i_glide_ligand_efficiency_sa>
-1.23245734013846

> <r_i_glide_ligand_efficiency_ln>
-2.36530071872969

> <r_i_glide_gscore>
-9.67654565528209

> <r_i_glide_lipo>
-3.91621650396613

> <r_i_glide_hbond>
-0.308626441397489

> <r_i_glide_metal>
0

> <r_i_glide_rewards>
-3.56155843808991

> <r_i_glide_evdw>
-38.4494972229004

> <r_i_glide_ecoul>
-2.58265733718872

> <r_i_glide_erotb>
0.419729189894777

> <r_i_glide_esite>
0

> <r_i_glide_emodel>
-42.8571031691682

> <r_i_glide_energy>
-41.0321545600891

> <r_i_glide_einternal>
-0.0846531242132187

> <i_i_glide_confnum>
1

> <i_i_glide_posenum>
28

> <r_i_glide_eff_state_penalty>
0

> <s_user_duplicate_titles>
CHEMBL1862_lig899

> <s_m_subgroup_title>
dock_pv

> <s_m_subgroupid>
dock_pv

> <b_m_subgroup_collapsed>
0

$$$$
CHEMBL1862_lig753
                    3D
 Schrodinger Suite 2021-1.
 43 45  0  0  1  0            999 V2000
   18.5548   15.9458    4.6196 C   0  0  0  0  0  0
   17.6242   16.4814    5.5208 C   0  0  0  0  0  0
   16.3030   16.0338    5.5824 C   0  0  0  0  0  0
   18.1822   14.9197    3.7374 C   0  0  0  0  0  0
   16.8546   14.4855    3.7866 C   0  0  0  0  0  0
   15.9064   15.0333    4.6864 C   0  0  0  0  0  0
   14.6771   14.4511    4.5291 N   0  0  0  0  0  0
   14.8462   13.5530    3.5846 C   0  0  0  0  0  0
   16.1350   13.5325    3.1011 N   0  0  0  0  0  0
   13.9064   12.6929    3.0350 N   0  0  0  0  0  0
   12.5686   12.8098    3.1503 C   0  0  0  0  0  0
   11.9358   11.8829    2.4061 N   0  0  0  0  0  0
   11.9777   13.6533    3.8295 O   0  0  0  0  0  0
   10.4815   11.7341    2.2971 C   0  0  0  0  0  0
   10.0023   11.5962    0.8487 C   0  0  0  0  0  0
   19.9510   16.4817    4.6050 C   0  0  0  0  0  0
   20.3873   17.3350    3.5694 C   0  0  0  0  0  0
   21.6582   17.9145    3.6199 C   0  0  0  0  0  0
   22.5209   17.6330    4.6752 C   0  0  0  0  0  0
   22.1228   16.7545    5.6761 C   0  0  0  0  0  0
   20.8503   16.1787    5.6486 C   0  0  0  0  0  0
   20.4557   15.2424    6.7805 C   0  0  0  0  0  0
   19.4891   17.6628    2.3853 C   0  0  0  0  0  0
   17.9353   17.2703    6.1914 H   0  0  0  0  0  0
   15.6001   16.4559    6.2856 H   0  0  0  0  0  0
   18.8974   14.4984    3.0433 H   0  0  0  0  0  0
   16.4472   12.9134    2.3708 H   0  0  0  0  0  0
   14.2519   11.9694    2.4232 H   0  0  0  0  0  0
   12.4769   11.0998    2.0574 H   0  0  0  0  0  0
    9.9442   12.5551    2.7780 H   0  0  0  0  0  0
   10.1940   10.8335    2.8354 H   0  0  0  0  0  0
    8.9136   11.5601    0.8096 H   0  0  0  0  0  0
   10.3595   10.6661    0.4059 H   0  0  0  0  0  0
   10.3236   12.4329    0.2270 H   0  0  0  0  0  0
   21.9884   18.5812    2.8357 H   0  0  0  0  0  0
   23.5034   18.0800    4.7134 H   0  0  0  0  0  0
   22.8106   16.5277    6.4796 H   0  0  0  0  0  0
   21.1921   15.2327    7.5830 H   0  0  0  0  0  0
   19.5156   15.5929    7.2034 H   0  0  0  0  0  0
   20.3065   14.2273    6.4076 H   0  0  0  0  0  0
   20.0179   18.2010    1.6016 H   0  0  0  0  0  0
   19.1022   16.7539    1.9329 H   0  0  0  0  0  0
   18.6436   18.2588    2.7222 H   0  0  0  0  0  0
  1  2  2  0  0  0
  1  4  1  0  0  0
  1 16  1  0  0  0
  2  3  1  0  0  0
  2 24  1  0  0  0
  3  6  2  0  0  0
  3 25  1  0  0  0
  4  5  2  0  0  0
  4 26  1  0  0  0
  5  6  1  0  0  0
  5  9  1  0  0  0
  6  7  1  0  0  0
  7  8  2  0  0  0
  8  9  1  0  0  0
  8 10  1  0  0  0
  9 27  1  0  0  0
 10 11  1  0  0  0
 10 28  1  0  0  0
 11 12  1  0  0  0
 11 13  2  0  0  0
 12 14  1  0  0  0
 12 29  1  0  0  0
 14 15  1  0  0  0
 14 30  1  0  0  0
 14 31  1  0  0  0
 15 32  1  0  0  0
 15 33  1  0  0  0
 15 34  1  0  0  0
 16 17  2  0  0  0
 16 21  1  0  0  0
 17 18  1  0  0  0
 17 23  1  0  0  0
 18 19  2  0  0  0
 18 35  1  0  0  0
 19 20  1  0  0  0
 19 36  1  0  0  0
 20 21  2  0  0  0
 20 37  1  0  0  0
 21 22  1  0  0  0
 22 38  1  0  0  0
 22 39  1  0  0  0
 22 40  1  0  0  0
 23 41  1  0  0  0
 23 42  1  0  0  0
 23 43  1  0  0  0
M  END
> <s_m_entry_id>
6252

> <s_m_entry_name>
dock_pv.178

> <s_m_Source_Path>
/home/csk/Desktop/cluster/DUD-E-result/abl1

> <s_m_Source_File>
dock_pv.maegz

> <i_m_Source_File_Index>
178

> <chembl_id>
CHEMBL2347744

> <chembl_pref_name>
None

> <i_lp_mmshare_version>
53161

> <i_f3d_flags>
0

> <r_lp_tautomer_probability>
1

> <s_lp_Force_Field>
OPLS_2005

> <r_lp_Energy>
16.604943

> <b_lp_Chiralities_Consistent>
1

> <s_lp_Variant>
CHEMBL1862_lig753-1

> <s_i_glide_gridfile>
glide-grid_2hzi

> <i_i_glide_lignum>
886

> <i_i_glide_rotatable_bonds>
5

> <r_i_docking_score>
-9.67180836241096

> <r_i_glide_ligand_efficiency>
-0.420513407061346

> <r_i_glide_ligand_efficiency_sa>
-1.19588419167675

> <r_i_glide_ligand_efficiency_ln>
-2.3387309611405

> <r_i_glide_gscore>
-9.67180836241096

> <r_i_glide_lipo>
-4.29924425148734

> <r_i_glide_hbond>
-0.32

> <r_i_glide_metal>
0

> <r_i_glide_rewards>
-2.879879051192

> <r_i_glide_evdw>
-48.3760452270508

> <r_i_glide_ecoul>
-3.54710054397583

> <r_i_glide_erotb>
0.778182283217294

> <r_i_glide_esite>
0

> <r_i_glide_emodel>
-79.2194385138286

> <r_i_glide_energy>
-51.9231457710266

> <r_i_glide_einternal>
2.09229111671448

> <i_i_glide_confnum>
5

> <i_i_glide_posenum>
153

> <r_i_glide_eff_state_penalty>
0

> <s_user_duplicate_titles>
CHEMBL1862_lig753

> <s_m_subgroup_title>
dock_pv

> <s_m_subgroupid>
dock_pv

> <b_m_subgroup_collapsed>
0

$$$$
CHEMBL1862_lig478
                    3D
 Schrodinger Suite 2021-1.
 44 47  0  0  1  0            999 V2000
   16.1723   12.0330    2.0406 N   0  0  0  0  0  0
   14.8251   12.0330    2.1976 C   0  0  0  0  0  0
   14.0914   12.7542    3.0800 N   0  0  0  0  0  0
   16.8784   12.8979    2.8030 C   0  0  0  0  0  0
   16.2323   13.7915    3.6496 C   0  0  0  0  0  0
   14.8405   13.6085    3.7833 C   0  0  0  0  0  0
   14.4616   14.4497    4.8030 N   0  0  0  0  0  0
   15.5118   15.2319    5.1970 N   0  0  0  0  0  0
   16.5777   14.8549    4.5317 C   0  0  0  0  0  0
   17.9394   15.4257    4.7517 C   0  0  0  0  0  0
   18.5774   16.1161    3.7180 C   0  0  0  0  0  0
   19.8926   16.5973    3.8635 C   0  0  0  0  0  0
   20.5722   16.3417    5.0655 C   0  0  0  0  0  0
   19.9468   15.6330    6.0889 C   0  0  0  0  0  0
   18.6268   15.2148    5.9487 C   0  0  0  0  0  0
   18.2631   12.8330    2.8030 N   0  0  0  0  0  0
   21.8810   16.7889    5.2604 N   0  0  0  0  0  0
   20.5640   17.3042    2.8796 O   0  0  0  0  0  0
   13.1311   14.6873    5.3826 C   0  0  0  0  0  0
   12.1104   15.1896    4.4030 C   0  0  0  0  0  0
   10.7488   14.5189    4.6164 C   0  0  0  0  0  0
   10.8671   13.7957    5.9391 C   0  0  0  0  0  0
   12.3676   13.5397    6.0808 C   0  0  0  0  0  0
   19.9782   17.4180    1.5908 C   0  0  0  0  0  0
   14.2724   11.3783    1.5425 H   0  0  0  0  0  0
   18.0302   16.2735    2.8030 H   0  0  0  0  0  0
   20.4708   15.4328    7.0118 H   0  0  0  0  0  0
   18.1640   14.6861    6.7654 H   0  0  0  0  0  0
   18.7876   13.4904    3.3616 H   0  0  0  0  0  0
   18.7284   12.1818    2.1760 H   0  0  0  0  0  0
   22.3302   17.2787    4.4994 H   0  0  0  0  0  0
   22.3949   16.5253    6.0885 H   0  0  0  0  0  0
   13.3640   15.5097    6.0030 H   0  0  0  0  0  0
   12.0421   16.2786    4.4030 H   0  0  0  0  0  0
   12.4697   14.8330    3.4422 H   0  0  0  0  0  0
    9.9274   15.2330    4.6140 H   0  0  0  0  0  0
   10.5516   13.8004    3.8179 H   0  0  0  0  0  0
   10.4878   14.4188    6.7493 H   0  0  0  0  0  0
   10.2850   12.8732    5.9579 H   0  0  0  0  0  0
   12.5640   12.5946    5.5848 H   0  0  0  0  0  0
   12.5640   13.4760    7.1467 H   0  0  0  0  0  0
   20.6744   17.9112    0.9150 H   0  0  0  0  0  0
   19.7640   16.4330    1.1775 H   0  0  0  0  0  0
   19.0619   18.0094    1.6132 H   0  0  0  0  0  0
  1  2  2  0  0  0
  1  4  1  0  0  0
  2  3  1  0  0  0
  2 25  1  0  0  0
  3  6  2  0  0  0
  4  5  2  0  0  0
  4 16  1  0  0  0
  5  9  1  0  0  0
  5  6  1  0  0  0
  6  7  1  0  0  0
  7  8  1  0  0  0
  7 19  1  0  0  0
  8  9  2  0  0  0
  9 10  1  0  0  0
 10 15  1  0  0  0
 10 11  2  0  0  0
 11 12  1  0  0  0
 11 26  1  0  0  0
 12 13  2  0  0  0
 12 18  1  0  0  0
 13 14  1  0  0  0
 13 17  1  0  0  0
 14 15  2  0  0  0
 14 27  1  0  0  0
 15 28  1  0  0  0
 16 29  1  0  0  0
 16 30  1  0  0  0
 17 31  1  0  0  0
 17 32  1  0  0  0
 18 24  1  0  0  0
 19 20  1  0  0  0
 19 23  1  0  0  0
 19 33  1  0  0  0
 20 21  1  0  0  0
 20 34  1  0  0  0
 20 35  1  0  0  0
 21 22  1  0  0  0
 21 36  1  0  0  0
 21 37  1  0  0  0
 22 23  1  0  0  0
 22 38  1  0  0  0
 22 39  1  0  0  0
 23 40  1  0  0  0
 23 41  1  0  0  0
 24 42  1  0  0  0
 24 43  1  0  0  0
 24 44  1  0  0  0
M  END
> <s_m_entry_id>
6253

> <s_m_entry_name>
dock_pv.179

> <s_m_Source_Path>
/home/csk/Desktop/cluster/DUD-E-result/abl1

> <s_m_Source_File>
dock_pv.maegz

> <i_m_Source_File_Index>
179

> <chembl_id>
CHEMBL1241581

> <chembl_pref_name>
None

> <i_lp_mmshare_version>
53161

> <i_f3d_flags>
0

> <r_lp_tautomer_probability>
1

> <s_lp_Force_Field>
OPLS_2005

> <r_lp_Energy>
36.493632

> <b_lp_Chiralities_Consistent>
1

> <s_lp_Variant>
CHEMBL1862_lig478-1

> <s_i_glide_gridfile>
glide-grid_2hzi

> <i_i_glide_lignum>
568

> <i_i_glide_rotatable_bonds>
3

> <r_i_docking_score>
-9.65811054803749

> <r_i_glide_ligand_efficiency>
-0.402421272834895

> <r_i_glide_ligand_efficiency_sa>
-1.1607838144277

> <r_i_glide_ligand_efficiency_ln>
-2.31162903596031

> <r_i_glide_gscore>
-9.65811054803749

> <r_i_glide_lipo>
-3.63193688570991

> <r_i_glide_hbond>
-0.608

> <r_i_glide_metal>
0

> <r_i_glide_rewards>
-3.44235359548729

> <r_i_glide_evdw>
-24.5754718780518

> <r_i_glide_ecoul>
-6.64139986038208

> <r_i_glide_erotb>
0.249163506119612

> <r_i_glide_esite>
0

> <r_i_glide_emodel>
-47.6789863865111

> <r_i_glide_energy>
-31.2168717384338

> <r_i_glide_einternal>
3.39870262145996

> <i_i_glide_confnum>
15

> <i_i_glide_posenum>
304

> <r_i_glide_eff_state_penalty>
0

> <s_user_duplicate_titles>
CHEMBL1862_lig478

> <s_m_subgroup_title>
dock_pv

> <s_m_subgroupid>
dock_pv

> <b_m_subgroup_collapsed>
0

$$$$
CHEMBL1862_lig419
                    3D
 Schrodinger Suite 2021-1.
 42 44  0  0  1  0            999 V2000
   16.4789   12.0330    2.2577 N   0  0  0  0  0  0
   15.1464   12.2751    2.2285 C   0  0  0  0  0  0
   14.4741   13.2159    2.9262 N   0  0  0  0  0  0
   17.2347   12.8305    3.0389 C   0  0  0  0  0  0
   16.6724   13.8820    3.7518 C   0  0  0  0  0  0
   15.2763   13.9809    3.6733 C   0  0  0  0  0  0
   14.9460   14.9564    4.5811 N   0  0  0  0  0  0
   16.0426   15.5244    5.1350 N   0  0  0  0  0  0
   17.0819   14.9000    4.6560 C   0  0  0  0  0  0
   18.4497   15.2200    5.0866 C   0  0  0  0  0  0
   19.2824   15.8463    4.1707 C   0  0  0  0  0  0
   20.5727   16.2028    4.5436 C   0  0  0  0  0  0
   21.0487   15.9040    5.8240 C   0  0  0  0  0  0
   20.2270   15.2330    6.7222 C   0  0  0  0  0  0
   18.9216   14.9140    6.3646 C   0  0  0  0  0  0
   18.5640   12.5076    3.2030 N   0  0  0  0  0  0
   13.6578   15.4884    4.9432 C   0  0  0  0  0  0
   12.4722   14.5244    4.7170 C   0  0  0  0  0  0
   13.5002   16.8331    4.2463 C   0  0  0  0  0  0
   22.7855   16.4330    6.3898 Br  0  0  0  0  0  0
   21.3640   16.8330    3.6351 O   0  0  0  0  0  0
   21.0211   18.1139    3.2575 C   0  0  0  0  0  0
   22.1375   18.9423    3.2434 O   0  0  0  0  0  0
   22.6044   19.3511    4.5198 C   0  0  0  0  0  0
   14.5446   11.6324    1.6030 H   0  0  0  0  0  0
   18.9304   16.0716    3.1739 H   0  0  0  0  0  0
   20.5823   15.0069    7.7128 H   0  0  0  0  0  0
   18.2766   14.4330    7.0832 H   0  0  0  0  0  0
   19.1530   13.1275    3.7378 H   0  0  0  0  0  0
   18.9587   11.7880    2.6069 H   0  0  0  0  0  0
   13.7640   15.6330    6.0030 H   0  0  0  0  0  0
   11.5599   14.9094    5.1711 H   0  0  0  0  0  0
   12.2579   14.3820    3.6578 H   0  0  0  0  0  0
   12.6621   13.5458    5.1601 H   0  0  0  0  0  0
   12.4829   17.2080    4.3294 H   0  0  0  0  0  0
   14.1643   17.5870    4.6681 H   0  0  0  0  0  0
   13.7640   16.7448    3.2030 H   0  0  0  0  0  0
   20.6808   18.0330    2.2237 H   0  0  0  0  0  0
   20.2098   18.5426    3.8532 H   0  0  0  0  0  0
   22.9733   20.3721    4.4388 H   0  0  0  0  0  0
   21.8431   19.3351    5.3020 H   0  0  0  0  0  0
   23.4372   18.7233    4.8327 H   0  0  0  0  0  0
  1  2  2  0  0  0
  1  4  1  0  0  0
  2  3  1  0  0  0
  2 25  1  0  0  0
  3  6  2  0  0  0
  4  5  2  0  0  0
  4 16  1  0  0  0
  5  9  1  0  0  0
  5  6  1  0  0  0
  6  7  1  0  0  0
  7 17  1  0  0  0
  7  8  1  0  0  0
  8  9  2  0  0  0
  9 10  1  0  0  0
 10 15  1  0  0  0
 10 11  2  0  0  0
 11 12  1  0  0  0
 11 26  1  0  0  0
 12 13  2  0  0  0
 12 21  1  0  0  0
 13 14  1  0  0  0
 13 20  1  0  0  0
 14 15  2  0  0  0
 14 27  1  0  0  0
 15 28  1  0  0  0
 16 29  1  0  0  0
 16 30  1  0  0  0
 17 18  1  0  0  0
 17 19  1  0  0  0
 17 31  1  0  0  0
 18 32  1  0  0  0
 18 33  1  0  0  0
 18 34  1  0  0  0
 19 35  1  0  0  0
 19 36  1  0  0  0
 19 37  1  0  0  0
 21 22  1  0  0  0
 22 23  1  0  0  0
 22 38  1  0  0  0
 22 39  1  0  0  0
 23 24  1  0  0  0
 24 40  1  0  0  0
 24 41  1  0  0  0
 24 42  1  0  0  0
M  END
> <s_m_entry_id>
6254

> <s_m_entry_name>
dock_pv.180

> <s_m_Source_Path>
/home/csk/Desktop/cluster/DUD-E-result/abl1

> <s_m_Source_File>
dock_pv.maegz

> <i_m_Source_File_Index>
180

> <chembl_id>
CHEMBL1242286

> <chembl_pref_name>
None

> <i_lp_mmshare_version>
53161

> <i_f3d_flags>
0

> <r_lp_tautomer_probability>
1

> <s_lp_Force_Field>
OPLS_2005

> <r_lp_Energy>
16.245099

> <b_lp_Chiralities_Consistent>
1

> <s_lp_Variant>
CHEMBL1862_lig419-1

> <s_i_glide_gridfile>
glide-grid_2hzi

> <i_i_glide_lignum>
504

> <i_i_glide_rotatable_bonds>
5

> <r_i_docking_score>
-9.63769604023657

> <r_i_glide_ligand_efficiency>
-0.401570668343191

> <r_i_glide_ligand_efficiency_sa>
-1.15833024650497

> <r_i_glide_ligand_efficiency_ln>
-2.30674290748283

> <r_i_glide_gscore>
-9.63769604023657

> <r_i_glide_lipo>
-3.5756744915204

> <r_i_glide_hbond>
-0.577738284726898

> <r_i_glide_metal>
0

> <r_i_glide_rewards>
-3.70925524580473

> <r_i_glide_evdw>
-30.2933330535889

> <r_i_glide_ecoul>
-3.51215815544128

> <r_i_glide_erotb>
0.26646235781109

> <r_i_glide_esite>
0

> <r_i_glide_emodel>
-34.9528147519342

> <r_i_glide_energy>
-33.8054912090302

> <r_i_glide_einternal>
9.32375240325928

> <i_i_glide_confnum>
10

> <i_i_glide_posenum>
167

> <r_i_glide_eff_state_penalty>
0

> <s_user_duplicate_titles>
CHEMBL1862_lig419

> <s_m_subgroup_title>
dock_pv

> <s_m_subgroupid>
dock_pv

> <b_m_subgroup_collapsed>
0

$$$$
CHEMBL1862_lig900
                    3D
 Schrodinger Suite 2021-1.
 36 38  0  0  1  0            999 V2000
   15.9529   12.4279    2.1093 N   0  0  0  0  0  0
   14.6623   12.0330    2.0030 C   0  0  0  0  0  0
   13.5888   12.4358    2.7252 N   0  0  0  0  0  0
   16.2168   13.3735    3.0330 C   0  0  0  0  0  0
   15.1835   13.9342    3.8020 C   0  0  0  0  0  0
   13.8978   13.3911    3.6030 C   0  0  0  0  0  0
   13.0723   14.0134    4.5151 N   0  0  0  0  0  0
   13.7643   14.9589    5.2030 N   0  0  0  0  0  0
   15.0183   14.9256    4.8058 C   0  0  0  0  0  0
   11.6654   13.6884    4.8185 C   0  0  0  0  0  0
   10.7183   14.8359    4.4475 C   0  0  0  0  0  0
   11.4947   13.2453    6.2853 C   0  0  0  0  0  0
   17.5493   13.7283    3.2030 N   0  0  0  0  0  0
   16.1155   15.7225    5.3337 C   0  0  0  0  0  0
   17.2554   16.1085    5.5483 C   0  0  0  0  0  0
   18.7062   16.2453    5.6032 C   0  0  0  0  0  0
   19.3602   17.3208    4.9908 C   0  0  0  0  0  0
   20.7583   17.3796    4.9891 C   0  0  0  0  0  0
   21.5029   16.3710    5.6030 C   0  0  0  0  0  0
   20.8551   15.2960    6.2094 C   0  0  0  0  0  0
   19.4611   15.2327    6.2079 C   0  0  0  0  0  0
   21.5768   18.6830    4.2079 Cl  0  0  0  0  0  0
   14.4699   11.2714    1.2593 H   0  0  0  0  0  0
   11.3924   12.8419    4.1857 H   0  0  0  0  0  0
    9.7310   14.6880    4.8863 H   0  0  0  0  0  0
   11.0977   15.7931    4.8030 H   0  0  0  0  0  0
   10.5640   14.8914    3.3697 H   0  0  0  0  0  0
   10.4773   12.9042    6.4789 H   0  0  0  0  0  0
   12.1640   12.4308    6.5291 H   0  0  0  0  0  0
   11.7126   14.0330    6.9970 H   0  0  0  0  0  0
   17.7888   14.4346    3.8835 H   0  0  0  0  0  0
   18.2496   13.2832    2.6280 H   0  0  0  0  0  0
   18.7928   18.0968    4.4971 H   0  0  0  0  0  0
   22.5832   16.4129    5.5988 H   0  0  0  0  0  0
   21.4353   14.5070    6.6648 H   0  0  0  0  0  0
   18.9732   14.3836    6.6668 H   0  0  0  0  0  0
  1  2  2  0  0  0
  1  4  1  0  0  0
  2  3  1  0  0  0
  2 23  1  0  0  0
  3  6  2  0  0  0
  4  5  2  0  0  0
  4 13  1  0  0  0
  5  6  1  0  0  0
  5  9  1  0  0  0
  6  7  1  0  0  0
  7  8  1  0  0  0
  7 10  1  0  0  0
  8  9  2  0  0  0
  9 14  1  0  0  0
 10 11  1  0  0  0
 10 12  1  0  0  0
 10 24  1  0  0  0
 11 25  1  0  0  0
 11 26  1  0  0  0
 11 27  1  0  0  0
 12 28  1  0  0  0
 12 29  1  0  0  0
 12 30  1  0  0  0
 13 31  1  0  0  0
 13 32  1  0  0  0
 14 15  3  0  0  0
 15 16  1  0  0  0
 16 17  2  0  0  0
 16 21  1  0  0  0
 17 18  1  0  0  0
 17 33  1  0  0  0
 18 19  2  0  0  0
 18 22  1  0  0  0
 19 20  1  0  0  0
 19 34  1  0  0  0
 20 21  2  0  0  0
 20 35  1  0  0  0
 21 36  1  0  0  0
M  END
> <s_m_entry_id>
6255

> <s_m_entry_name>
dock_pv.181

> <s_m_Source_Path>
/home/csk/Desktop/cluster/DUD-E-result/abl1

> <s_m_Source_File>
dock_pv.maegz

> <i_m_Source_File_Index>
181

> <chembl_id>
CHEMBL3735491

> <chembl_pref_name>
None

> <i_lp_mmshare_version>
53161

> <i_f3d_flags>
0

> <r_lp_tautomer_probability>
1

> <s_lp_Force_Field>
OPLS_2005

> <r_lp_Energy>
8.284463

> <b_lp_Chiralities_Consistent>
1

> <s_lp_Variant>
CHEMBL1862_lig900-1

> <s_i_glide_gridfile>
glide-grid_2hzi

> <i_i_glide_lignum>
1056

> <i_i_glide_rotatable_bonds>
3

> <r_i_docking_score>
-9.63546926453781

> <r_i_glide_ligand_efficiency>
-0.437975875660809

> <r_i_glide_ligand_efficiency_sa>
-1.22722562821535

> <r_i_glide_ligand_efficiency_ln>
-2.35526015053403

> <r_i_glide_gscore>
-9.63546926453781

> <r_i_glide_lipo>
-4.43866499212854

> <r_i_glide_hbond>
-0.248008277510842

> <r_i_glide_metal>
0

> <r_i_glide_rewards>
-3.03074830382933

> <r_i_glide_evdw>
-40.9528274536133

> <r_i_glide_ecoul>
-1.68064093589783

> <r_i_glide_erotb>
0.381689821996244

> <r_i_glide_esite>
0

> <r_i_glide_emodel>
-50.1337782081704

> <r_i_glide_energy>
-42.6334683895111

> <r_i_glide_einternal>
-0.133907362818718

> <i_i_glide_confnum>
1

> <i_i_glide_posenum>
40

> <r_i_glide_eff_state_penalty>
0

> <s_user_duplicate_titles>
CHEMBL1862_lig900

> <s_m_subgroup_title>
dock_pv

> <s_m_subgroupid>
dock_pv

> <b_m_subgroup_collapsed>
0

$$$$
CHEMBL1862_lig903
                    3D
 Schrodinger Suite 2021-1.
 40 42  0  0  1  0            999 V2000
   15.7074   12.2130    2.0358 N   0  0  0  0  0  0
   14.3649   12.0353    2.0031 C   0  0  0  0  0  0
   13.4196   12.6146    2.7889 N   0  0  0  0  0  0
   16.1750   13.1078    2.9292 C   0  0  0  0  0  0
   15.2945   13.8384    3.7462 C   0  0  0  0  0  0
   13.9221   13.5196    3.6351 C   0  0  0  0  0  0
   13.2719   14.3175    4.5690 N   0  0  0  0  0  0
   14.1637   15.1172    5.2011 N   0  0  0  0  0  0
   15.3554   14.8609    4.7313 C   0  0  0  0  0  0
   11.8740   14.3491    5.0355 C   0  0  0  0  0  0
   11.7505   13.6009    6.3784 C   0  0  0  0  0  0
   10.8499   13.8489    4.0020 C   0  0  0  0  0  0
   17.5555   13.2439    3.0168 N   0  0  0  0  0  0
   16.5536   15.5323    5.1772 C   0  0  0  0  0  0
   17.6739   15.9652    5.3782 C   0  0  0  0  0  0
   19.0532   16.3883    5.4615 C   0  0  0  0  0  0
   19.4403   17.5678    4.8329 C   0  0  0  0  0  0
   20.7609   17.9821    4.9207 C   0  0  0  0  0  0
   21.6935   17.2303    5.6520 C   0  0  0  0  0  0
   21.3000   16.0329    6.2457 C   0  0  0  0  0  0
   19.9819   15.6027    6.1422 C   0  0  0  0  0  0
   23.0009   17.6149    5.8478 O   0  0  0  0  0  0
   23.4994   18.6723    5.0464 C   0  0  0  0  0  0
   14.0064   11.3464    1.2515 H   0  0  0  0  0  0
   11.6337   15.3986    5.2024 H   0  0  0  0  0  0
   10.7351   13.6451    6.7719 H   0  0  0  0  0  0
   12.0224   12.5518    6.2949 H   0  0  0  0  0  0
   12.4087   14.0324    7.1304 H   0  0  0  0  0  0
    9.8331   13.9500    4.3830 H   0  0  0  0  0  0
   10.9030   14.4292    3.0878 H   0  0  0  0  0  0
   10.9896   12.8013    3.7458 H   0  0  0  0  0  0
   17.9435   13.9150    3.6636 H   0  0  0  0  0  0
   18.1435   12.6934    2.4073 H   0  0  0  0  0  0
   18.7286   18.1653    4.2798 H   0  0  0  0  0  0
   21.0413   18.8927    4.4201 H   0  0  0  0  0  0
   22.0230   15.4452    6.7916 H   0  0  0  0  0  0
   19.6862   14.6756    6.6129 H   0  0  0  0  0  0
   24.5641   18.8274    5.2157 H   0  0  0  0  0  0
   22.9923   19.6239    5.2064 H   0  0  0  0  0  0
   23.3634   18.3927    4.0030 H   0  0  0  0  0  0
  1  2  2  0  0  0
  1  4  1  0  0  0
  2  3  1  0  0  0
  2 24  1  0  0  0
  3  6  2  0  0  0
  4  5  2  0  0  0
  4 13  1  0  0  0
  5  6  1  0  0  0
  5  9  1  0  0  0
  6  7  1  0  0  0
  7  8  1  0  0  0
  7 10  1  0  0  0
  8  9  2  0  0  0
  9 14  1  0  0  0
 10 11  1  0  0  0
 10 12  1  0  0  0
 10 25  1  0  0  0
 11 26  1  0  0  0
 11 27  1  0  0  0
 11 28  1  0  0  0
 12 29  1  0  0  0
 12 30  1  0  0  0
 12 31  1  0  0  0
 13 32  1  0  0  0
 13 33  1  0  0  0
 14 15  3  0  0  0
 15 16  1  0  0  0
 16 17  2  0  0  0
 16 21  1  0  0  0
 17 18  1  0  0  0
 17 34  1  0  0  0
 18 19  2  0  0  0
 18 35  1  0  0  0
 19 20  1  0  0  0
 19 22  1  0  0  0
 20 21  2  0  0  0
 20 36  1  0  0  0
 21 37  1  0  0  0
 22 23  1  0  0  0
 23 38  1  0  0  0
 23 39  1  0  0  0
 23 40  1  0  0  0
M  END
> <s_m_entry_id>
6256

> <s_m_entry_name>
dock_pv.182

> <s_m_Source_Path>
/home/csk/Desktop/cluster/DUD-E-result/abl1

> <s_m_Source_File>
dock_pv.maegz

> <i_m_Source_File_Index>
182

> <chembl_id>
CHEMBL3734907

> <chembl_pref_name>
None

> <i_lp_mmshare_version>
53161

> <i_f3d_flags>
0

> <r_lp_tautomer_probability>
1

> <s_lp_Force_Field>
OPLS_2005

> <r_lp_Energy>
11.329531

> <b_lp_Chiralities_Consistent>
1

> <s_lp_Variant>
CHEMBL1862_lig903-1

> <s_i_glide_gridfile>
glide-grid_2hzi

> <i_i_glide_lignum>
1059

> <i_i_glide_rotatable_bonds>
4

> <r_i_docking_score>
-9.61583490624302

> <r_i_glide_ligand_efficiency>
-0.418079778532305

> <r_i_glide_ligand_efficiency_sa>
-1.18896327586902

> <r_i_glide_ligand_efficiency_ln>
-2.32519607189985

> <r_i_glide_gscore>
-9.61583490624302

> <r_i_glide_lipo>
-4.14781410010497

> <r_i_glide_hbond>
-0.32

> <r_i_glide_metal>
0

> <r_i_glide_rewards>
-3.26634691719279

> <r_i_glide_evdw>
-36.8224792480469

> <r_i_glide_ecoul>
-2.87951517105103

> <r_i_glide_erotb>
0.391377349114743

> <r_i_glide_esite>
0

> <r_i_glide_emodel>
-55.9274749843529

> <r_i_glide_energy>
-39.7019944190979

> <r_i_glide_einternal>
2.53840184211731

> <i_i_glide_confnum>
1

> <i_i_glide_posenum>
3

> <r_i_glide_eff_state_penalty>
0

> <s_user_duplicate_titles>
CHEMBL1862_lig903

> <s_m_subgroup_title>
dock_pv

> <s_m_subgroupid>
dock_pv

> <b_m_subgroup_collapsed>
0

$$$$
CHEMBL1862_lig437
                    3D
 Schrodinger Suite 2021-1.
 44 47  0  0  1  0            999 V2000
   16.8682   12.3425    2.4025 N   0  0  0  0  0  0
   17.8527   13.0379    3.0132 C   0  0  0  0  0  0
   17.7071   14.0832    3.8575 N   0  0  0  0  0  0
   15.5987   12.6876    2.7119 C   0  0  0  0  0  0
   15.3048   13.6747    3.6618 C   0  0  0  0  0  0
   16.4317   14.3744    4.1536 C   0  0  0  0  0  0
   15.9279   15.3398    5.0079 N   0  0  0  0  0  0
   14.5904   15.2082    5.1331 N   0  0  0  0  0  0
   14.1794   14.2127    4.3785 C   0  0  0  0  0  0
   12.7318   13.8007    4.3988 C   0  0  0  0  0  0
   12.0239   13.8382    5.6029 C   0  0  0  0  0  0
   10.6447   13.6313    5.6474 C   0  0  0  0  0  0
    9.9621   13.2750    4.4824 C   0  0  0  0  0  0
   10.6757   13.0947    3.3014 C   0  0  0  0  0  0
   12.0488   13.3553    3.2676 C   0  0  0  0  0  0
   14.5989   12.0330    2.0316 N   0  0  0  0  0  0
    8.6257   13.0621    4.4964 F   0  0  0  0  0  0
    9.9796   13.7403    6.8392 O   0  0  0  0  0  0
   16.5706   16.3663    5.8333 C   0  0  0  0  0  0
   18.0925   16.5794    5.6203 C   0  0  0  0  0  0
   19.0269   15.5528    6.3202 C   0  0  0  0  0  0
   20.5029   15.6018    5.8721 C   0  0  0  0  0  0
   20.5861   15.6960    4.4194 N   0  0  2  0  0  0
   20.0845   16.9955    3.9931 C   0  0  0  0  0  0
   18.5610   17.0570    4.2155 C   0  0  0  0  0  0
   18.8690   12.7429    2.8017 H   0  0  0  0  0  0
   12.5637   14.0329    6.5118 H   0  0  0  0  0  0
   10.1587   12.7678    2.4115 H   0  0  0  0  0  0
   12.5676   13.2631    2.3380 H   0  0  0  0  0  0
   13.6600   12.1015    2.3879 H   0  0  0  0  0  0
   14.8211   11.3063    1.3685 H   0  0  0  0  0  0
   10.5343   14.0411    7.5636 H   0  0  0  0  0  0
   16.3719   16.1203    6.8777 H   0  0  0  0  0  0
   16.0398   17.2959    5.6404 H   0  0  0  0  0  0
   18.3235   17.4730    6.2030 H   0  0  0  0  0  0
   18.6931   14.5350    6.1273 H   0  0  0  0  0  0
   18.9385   15.6330    7.3982 H   0  0  0  0  0  0
   21.0171   14.6887    6.1773 H   0  0  0  0  0  0
   21.0319   16.4302    6.3476 H   0  0  0  0  0  0
   19.9605   15.0027    4.0306 H   0  0  0  0  0  0
   20.3162   17.1206    2.9343 H   0  0  0  0  0  0
   20.5949   17.7985    4.5281 H   0  0  0  0  0  0
   18.1639   18.0336    3.9955 H   0  0  0  0  0  0
   18.1241   16.4640    3.4176 H   0  0  0  0  0  0
  1  2  2  0  0  0
  1  4  1  0  0  0
  2  3  1  0  0  0
  2 26  1  0  0  0
  3  6  2  0  0  0
  4  5  2  0  0  0
  4 16  1  0  0  0
  5  9  1  0  0  0
  5  6  1  0  0  0
  6  7  1  0  0  0
  7  8  1  0  0  0
  7 19  1  0  0  0
  8  9  2  0  0  0
  9 10  1  0  0  0
 10 15  1  0  0  0
 10 11  2  0  0  0
 11 12  1  0  0  0
 11 27  1  0  0  0
 12 13  2  0  0  0
 12 18  1  0  0  0
 13 14  1  0  0  0
 13 17  1  0  0  0
 14 15  2  0  0  0
 14 28  1  0  0  0
 15 29  1  0  0  0
 16 30  1  0  0  0
 16 31  1  0  0  0
 18 32  1  0  0  0
 19 20  1  0  0  0
 19 33  1  0  0  0
 19 34  1  0  0  0
 20 21  1  0  0  0
 20 25  1  0  0  0
 20 35  1  0  0  0
 21 22  1  0  0  0
 21 36  1  0  0  0
 21 37  1  0  0  0
 22 23  1  0  0  0
 22 38  1  0  0  0
 22 39  1  0  0  0
 23 24  1  0  0  0
 23 40  1  0  0  0
 24 25  1  0  0  0
 24 41  1  0  0  0
 24 42  1  0  0  0
 25 43  1  0  0  0
 25 44  1  0  0  0
M  END
> <s_m_entry_id>
6257

> <s_m_entry_name>
dock_pv.183

> <s_m_Source_Path>
/home/csk/Desktop/cluster/DUD-E-result/abl1

> <s_m_Source_File>
dock_pv.maegz

> <i_m_Source_File_Index>
183

> <chembl_id>
CHEMBL1242844

> <chembl_pref_name>
None

> <i_lp_mmshare_version>
53161

> <i_f3d_flags>
0

> <r_lp_tautomer_probability>
0.999999999997365

> <s_lp_Force_Field>
OPLS_2005

> <r_lp_Energy>
20.050689

> <b_lp_Chiralities_Consistent>
1

> <s_lp_Variant>
CHEMBL1862_lig437-1

> <s_i_glide_gridfile>
glide-grid_2hzi

> <i_i_glide_lignum>
525

> <i_i_glide_rotatable_bonds>
4

> <r_i_docking_score>
-9.59715214272836

> <r_i_glide_ligand_efficiency>
-0.383886085709134

> <r_i_glide_ligand_efficiency_sa>
-1.12248972286223

> <r_i_glide_ligand_efficiency_ln>
-2.27481266126817

> <r_i_glide_gscore>
-9.59715214272836

> <r_i_glide_lipo>
-4.04070139029748

> <r_i_glide_hbond>
-0.308041861730351

> <r_i_glide_metal>
0

> <r_i_glide_rewards>
-3.53129273720836

> <r_i_glide_evdw>
-35.5640029907227

> <r_i_glide_ecoul>
-2.75284075737

> <r_i_glide_erotb>
0.485293251859072

> <r_i_glide_esite>
-0.0112831422096068

> <r_i_glide_emodel>
-41.3290261558271

> <r_i_glide_energy>
-38.3168437480927

> <r_i_glide_einternal>
5.22803211212158

> <i_i_glide_confnum>
48

> <i_i_glide_posenum>
66

> <r_i_glide_eff_state_penalty>
0

> <s_user_duplicate_titles>
CHEMBL1862_lig437

> <s_m_subgroup_title>
dock_pv

> <s_m_subgroupid>
dock_pv

> <b_m_subgroup_collapsed>
0

$$$$
CHEMBL1862_lig430
                    3D
 Schrodinger Suite 2021-1.
 39 42  0  0  1  0            999 V2000
   15.8319   12.1169    2.0022 N   0  0  0  0  0  0
   14.4866   12.0336    2.0041 C   0  0  0  0  0  0
   13.6100   12.6806    2.7993 N   0  0  0  0  0  0
   16.3956   12.9953    2.8511 C   0  0  0  0  0  0
   15.5996   13.7898    3.7097 C   0  0  0  0  0  0
   14.1987   13.5534    3.6142 C   0  0  0  0  0  0
   13.5854   14.3964    4.5140 N   0  0  0  0  0  0
   14.5310   15.1335    5.1637 N   0  0  0  0  0  0
   15.7357   14.8173    4.7126 C   0  0  0  0  0  0
   16.9991   15.4998    5.2002 C   0  0  0  0  0  0
   18.2657   14.8897    5.1646 C   0  0  0  0  0  0
   19.4357   15.6375    5.3222 C   0  0  0  0  0  0
   19.3555   17.0034    5.5593 C   0  0  0  0  0  0
   18.1149   17.5873    5.7679 C   0  0  0  0  0  0
   16.9455   16.8349    5.6046 C   0  0  0  0  0  0
   17.7831   13.0291    2.8030 N   0  0  0  0  0  0
   20.4773   17.7617    5.6051 F   0  0  0  0  0  0
   20.6669   15.0491    5.2320 O   0  0  0  0  0  0
   12.1587   14.5012    4.9199 C   0  0  0  0  0  0
   11.0123   14.1776    3.9163 C   0  0  0  0  0  0
    9.8906   13.4834    4.7014 C   0  0  0  0  0  0
   10.2821   13.6339    6.1704 C   0  0  0  0  0  0
   11.8107   13.6328    6.1347 C   0  0  0  0  0  0
   14.0632   11.3466    1.2851 H   0  0  0  0  0  0
   18.3598   13.8286    5.0165 H   0  0  0  0  0  0
   18.0648   18.6370    6.0110 H   0  0  0  0  0  0
   15.9881   17.3275    5.6892 H   0  0  0  0  0  0
   18.2833   13.7464    3.3042 H   0  0  0  0  0  0
   18.2613   12.4295    2.1430 H   0  0  0  0  0  0
   21.3822   15.6850    5.3208 H   0  0  0  0  0  0
   12.0378   15.5468    5.2021 H   0  0  0  0  0  0
   10.5673   15.0891    3.5093 H   0  0  0  0  0  0
   11.3080   13.5341    3.0938 H   0  0  0  0  0  0
    8.9102   13.9209    4.5028 H   0  0  0  0  0  0
    9.8265   12.4339    4.4043 H   0  0  0  0  0  0
    9.9094   14.5775    6.5733 H   0  0  0  0  0  0
    9.8795   12.8324    6.7911 H   0  0  0  0  0  0
   12.1659   12.6143    6.0034 H   0  0  0  0  0  0
   12.2467   14.0096    7.0573 H   0  0  0  0  0  0
  1  2  2  0  0  0
  1  4  1  0  0  0
  2  3  1  0  0  0
  2 24  1  0  0  0
  3  6  2  0  0  0
  4  5  2  0  0  0
  4 16  1  0  0  0
  5  9  1  0  0  0
  5  6  1  0  0  0
  6  7  1  0  0  0
  7  8  1  0  0  0
  7 19  1  0  0  0
  8  9  2  0  0  0
  9 10  1  0  0  0
 10 15  1  0  0  0
 10 11  2  0  0  0
 11 12  1  0  0  0
 11 25  1  0  0  0
 12 13  2  0  0  0
 12 18  1  0  0  0
 13 14  1  0  0  0
 13 17  1  0  0  0
 14 15  2  0  0  0
 14 26  1  0  0  0
 15 27  1  0  0  0
 16 28  1  0  0  0
 16 29  1  0  0  0
 18 30  1  0  0  0
 19 20  1  0  0  0
 19 23  1  0  0  0
 19 31  1  0  0  0
 20 21  1  0  0  0
 20 32  1  0  0  0
 20 33  1  0  0  0
 21 22  1  0  0  0
 21 34  1  0  0  0
 21 35  1  0  0  0
 22 23  1  0  0  0
 22 36  1  0  0  0
 22 37  1  0  0  0
 23 38  1  0  0  0
 23 39  1  0  0  0
M  END
> <s_m_entry_id>
6258

> <s_m_entry_name>
dock_pv.184

> <s_m_Source_Path>
/home/csk/Desktop/cluster/DUD-E-result/abl1

> <s_m_Source_File>
dock_pv.maegz

> <i_m_Source_File_Index>
184

> <chembl_id>
CHEMBL1242568

> <chembl_pref_name>
None

> <i_lp_mmshare_version>
53161

> <i_f3d_flags>
0

> <r_lp_tautomer_probability>
0.999999999997365

> <s_lp_Force_Field>
OPLS_2005

> <r_lp_Energy>
30.942751

> <b_lp_Chiralities_Consistent>
1

> <s_lp_Variant>
CHEMBL1862_lig430-1

> <s_i_glide_gridfile>
glide-grid_2hzi

> <i_i_glide_lignum>
515

> <i_i_glide_rotatable_bonds>
3

> <r_i_docking_score>
-9.59557647531851

> <r_i_glide_ligand_efficiency>
-0.417198977187761

> <r_i_glide_ligand_efficiency_sa>
-1.18645839401208

> <r_i_glide_ligand_efficiency_ln>
-2.32029739960901

> <r_i_glide_gscore>
-9.59557647531851

> <r_i_glide_lipo>
-3.44962567340479

> <r_i_glide_hbond>
-0.531489856331163

> <r_i_glide_metal>
0

> <r_i_glide_rewards>
-3.88784892063633

> <r_i_glide_evdw>
-26.3437442779541

> <r_i_glide_ecoul>
-4.49515056610107

> <r_i_glide_erotb>
0.264847773866639

> <r_i_glide_esite>
0

> <r_i_glide_emodel>
-28.8398993138369

> <r_i_glide_energy>
-30.8388948440552

> <r_i_glide_einternal>
4.15502834320068

> <i_i_glide_confnum>
28

> <i_i_glide_posenum>
333

> <r_i_glide_eff_state_penalty>
0

> <s_user_duplicate_titles>
CHEMBL1862_lig430

> <s_m_subgroup_title>
dock_pv

> <s_m_subgroupid>
dock_pv

> <b_m_subgroup_collapsed>
0

$$$$
CHEMBL1862_lig552
                    3D
 Schrodinger Suite 2021-1.
 41 45  0  0  1  0            999 V2000
   16.4507   12.0330    2.0151 N   0  0  0  0  0  0
   15.1006   12.0350    2.1159 C   0  0  0  0  0  0
   14.3394   12.7385    2.9787 N   0  0  0  0  0  0
   17.1285   12.8947    2.8030 C   0  0  0  0  0  0
   16.4484   13.7697    3.6483 C   0  0  0  0  0  0
   15.0607   13.5665    3.7368 C   0  0  0  0  0  0
   14.6464   14.3278    4.8030 N   0  0  0  0  0  0
   15.6395   15.1757    5.2030 N   0  0  0  0  0  0
   16.7373   14.8330    4.5540 C   0  0  0  0  0  0
   18.0804   15.4508    4.7511 C   0  0  0  0  0  0
   18.5615   16.2157    3.6846 C   0  0  0  0  0  0
   20.1534   15.7957    6.0030 C   0  0  0  0  0  0
   18.8806   15.2330    5.8845 C   0  0  0  0  0  0
   18.5120   12.8330    2.8030 N   0  0  0  0  0  0
   20.5838   16.6071    4.9501 C   0  0  0  0  0  0
   19.8216   16.8088    3.7788 C   0  0  0  0  0  0
   20.6250   17.6330    2.9434 C   0  0  0  0  0  0
   21.7317   17.9694    3.7045 C   0  0  0  0  0  0
   21.7471   17.3189    4.9026 O   0  0  0  0  0  0
   13.2927   14.4569    5.3526 C   0  0  0  0  0  0
   12.4365   15.2325    4.4030 C   0  0  0  0  0  0
   10.9640   14.8330    4.5591 C   0  0  0  0  0  0
   10.9457   13.6330    5.4597 C   0  0  0  0  0  0
   12.4094   13.2330    5.5256 C   0  0  0  0  0  0
   14.5640   11.4078    1.4311 H   0  0  0  0  0  0
   17.9631   16.3604    2.8030 H   0  0  0  0  0  0
   20.7724   15.6328    6.8723 H   0  0  0  0  0  0
   18.5489   14.5993    6.6892 H   0  0  0  0  0  0
   19.0394   13.4972    3.3510 H   0  0  0  0  0  0
   18.9640   12.1882    2.1572 H   0  0  0  0  0  0
   20.4085   17.9883    1.9466 H   0  0  0  0  0  0
   22.5640   18.6256    3.5201 H   0  0  0  0  0  0
   13.4061   14.8345    6.3580 H   0  0  0  0  0  0
   12.6172   16.3083    4.4118 H   0  0  0  0  0  0
   12.7053   14.8330    3.4211 H   0  0  0  0  0  0
   10.4129   15.6330    5.0311 H   0  0  0  0  0  0
   10.4948   14.6264    3.5956 H   0  0  0  0  0  0
   10.5757   13.9034    6.4513 H   0  0  0  0  0  0
   10.3054   12.8369    5.0762 H   0  0  0  0  0  0
   12.6154   12.4696    4.7782 H   0  0  0  0  0  0
   12.5637   12.8330    6.5148 H   0  0  0  0  0  0
  1  2  2  0  0  0
  1  4  1  0  0  0
  2  3  1  0  0  0
  2 25  1  0  0  0
  3  6  2  0  0  0
  4 14  1  0  0  0
  4  5  2  0  0  0
  5  9  1  0  0  0
  5  6  1  0  0  0
  6  7  1  0  0  0
  7  8  1  0  0  0
  7 20  1  0  0  0
  8  9  2  0  0  0
  9 10  1  0  0  0
 10 13  1  0  0  0
 10 11  2  0  0  0
 11 16  1  0  0  0
 11 26  1  0  0  0
 12 15  1  0  0  0
 12 13  2  0  0  0
 12 27  1  0  0  0
 13 28  1  0  0  0
 14 29  1  0  0  0
 14 30  1  0  0  0
 15 16  2  0  0  0
 15 19  1  0  0  0
 16 17  1  0  0  0
 17 18  2  0  0  0
 17 31  1  0  0  0
 18 19  1  0  0  0
 18 32  1  0  0  0
 20 21  1  0  0  0
 20 24  1  0  0  0
 20 33  1  0  0  0
 21 22  1  0  0  0
 21 34  1  0  0  0
 21 35  1  0  0  0
 22 23  1  0  0  0
 22 36  1  0  0  0
 22 37  1  0  0  0
 23 24  1  0  0  0
 23 38  1  0  0  0
 23 39  1  0  0  0
 24 40  1  0  0  0
 24 41  1  0  0  0
M  END
> <s_m_entry_id>
6259

> <s_m_entry_name>
dock_pv.185

> <s_m_Source_Path>
/home/csk/Desktop/cluster/DUD-E-result/abl1

> <s_m_Source_File>
dock_pv.maegz

> <i_m_Source_File_Index>
185

> <chembl_id>
CHEMBL1241491

> <chembl_pref_name>
None

> <i_lp_mmshare_version>
53161

> <i_f3d_flags>
0

> <r_lp_tautomer_probability>
1

> <s_lp_Force_Field>
OPLS_2005

> <r_lp_Energy>
29.88333

> <b_lp_Chiralities_Consistent>
1

> <s_lp_Variant>
CHEMBL1862_lig552-1

> <s_i_glide_gridfile>
glide-grid_2hzi

> <i_i_glide_lignum>
655

> <i_i_glide_rotatable_bonds>
2

> <r_i_docking_score>
-9.582252658419

> <r_i_glide_ligand_efficiency>
-0.399260527434125

> <r_i_glide_ligand_efficiency_sa>
-1.15166664704513

> <r_i_glide_ligand_efficiency_ln>
-2.29347276208287

> <r_i_glide_gscore>
-9.582252658419

> <r_i_glide_lipo>
-3.9963097076039

> <r_i_glide_hbond>
-0.608

> <r_i_glide_metal>
0

> <r_i_glide_rewards>
-3.71063774439573

> <r_i_glide_evdw>
-11.5721616744995

> <r_i_glide_ecoul>
-6.29870986938477

> <r_i_glide_erotb>
0.256109357713324

> <r_i_glide_esite>
0

> <r_i_glide_emodel>
-51.5981328146346

> <r_i_glide_energy>
-17.8708715438843

> <r_i_glide_einternal>
4.99667692184448

> <i_i_glide_confnum>
12

> <i_i_glide_posenum>
266

> <r_i_glide_eff_state_penalty>
0

> <s_user_duplicate_titles>
CHEMBL1862_lig552

> <s_m_subgroup_title>
dock_pv

> <s_m_subgroupid>
dock_pv

> <b_m_subgroup_collapsed>
0

$$$$
CHEMBL1862_lig421
                    3D
 Schrodinger Suite 2021-1.
 36 39  0  0  1  0            999 V2000
   15.8189   12.0524    2.0030 N   0  0  0  0  0  0
   14.4696   12.0330    2.0030 C   0  0  0  0  0  0
   13.6130   12.7039    2.7933 N   0  0  0  0  0  0
   16.4098   12.9228    2.8416 C   0  0  0  0  0  0
   15.6313   13.8100    3.6169 C   0  0  0  0  0  0
   14.2339   13.5867    3.5651 C   0  0  0  0  0  0
   13.6532   14.4558    4.4495 N   0  0  0  0  0  0
   14.5991   15.2332    5.0241 N   0  0  0  0  0  0
   15.7716   14.9393    4.4886 C   0  0  0  0  0  0
   16.9894   15.7758    4.7408 C   0  0  0  0  0  0
   18.0437   15.8026    3.8138 C   0  0  0  0  0  0
   19.1649   16.6025    4.0128 C   0  0  0  0  0  0
   19.2391   17.4195    5.1362 C   0  0  0  0  0  0
   18.1542   17.4775    6.0030 C   0  0  0  0  0  0
   17.0569   16.6362    5.8394 C   0  0  0  0  0  0
   17.7948   12.8330    2.9097 N   0  0  0  0  0  0
   20.8058   18.4330    5.5185 Br  0  0  0  0  0  0
   20.1681   16.6016    3.0856 O   0  0  0  0  0  0
   12.2509   14.5459    4.8673 C   0  0  0  0  0  0
   11.0505   14.0215    4.0460 C   0  0  0  0  0  0
   10.3435   13.7393    5.3800 C   0  0  0  0  0  0
   11.7424   13.6330    6.0030 C   0  0  0  0  0  0
   14.0227   11.3495    1.2952 H   0  0  0  0  0  0
   17.9849   15.2584    2.8881 H   0  0  0  0  0  0
   18.1640   18.1659    6.8315 H   0  0  0  0  0  0
   16.2425   16.6843    6.5487 H   0  0  0  0  0  0
   18.3024   13.4165    3.5575 H   0  0  0  0  0  0
   18.2780   12.1744    2.3106 H   0  0  0  0  0  0
   20.9089   17.1524    3.3486 H   0  0  0  0  0  0
   12.1153   15.6052    5.0947 H   0  0  0  0  0  0
   10.5682   14.7448    3.3876 H   0  0  0  0  0  0
   11.2353   13.1134    3.4721 H   0  0  0  0  0  0
    9.7569   14.5790    5.7580 H   0  0  0  0  0  0
    9.7362   12.8340    5.4131 H   0  0  0  0  0  0
   12.1640   12.6303    6.0004 H   0  0  0  0  0  0
   11.8656   14.0255    7.0111 H   0  0  0  0  0  0
  1  2  2  0  0  0
  1  4  1  0  0  0
  2  3  1  0  0  0
  2 23  1  0  0  0
  3  6  2  0  0  0
  4  5  2  0  0  0
  4 16  1  0  0  0
  5  9  1  0  0  0
  5  6  1  0  0  0
  6  7  1  0  0  0
  7  8  1  0  0  0
  7 19  1  0  0  0
  8  9  2  0  0  0
  9 10  1  0  0  0
 10 11  2  0  0  0
 10 15  1  0  0  0
 11 12  1  0  0  0
 11 24  1  0  0  0
 12 13  2  0  0  0
 12 18  1  0  0  0
 13 14  1  0  0  0
 13 17  1  0  0  0
 14 15  2  0  0  0
 14 25  1  0  0  0
 15 26  1  0  0  0
 16 27  1  0  0  0
 16 28  1  0  0  0
 18 29  1  0  0  0
 19 20  1  0  0  0
 19 22  1  0  0  0
 19 30  1  0  0  0
 20 21  1  0  0  0
 20 31  1  0  0  0
 20 32  1  0  0  0
 21 22  1  0  0  0
 21 33  1  0  0  0
 21 34  1  0  0  0
 22 35  1  0  0  0
 22 36  1  0  0  0
M  END
> <s_m_entry_id>
6260

> <s_m_entry_name>
dock_pv.186

> <s_m_Source_Path>
/home/csk/Desktop/cluster/DUD-E-result/abl1

> <s_m_Source_File>
dock_pv.maegz

> <i_m_Source_File_Index>
186

> <chembl_id>
CHEMBL1242287

> <chembl_pref_name>
None

> <i_lp_mmshare_version>
53161

> <i_f3d_flags>
0

> <r_lp_tautomer_probability>
0.999999999997365

> <s_lp_Force_Field>
OPLS_2005

> <r_lp_Energy>
20.487491

> <b_lp_Chiralities_Consistent>
1

> <s_lp_Variant>
CHEMBL1862_lig421-1

> <s_i_glide_gridfile>
glide-grid_2hzi

> <i_i_glide_lignum>
506

> <i_i_glide_rotatable_bonds>
3

> <r_i_docking_score>
-9.56883180671275

> <r_i_glide_ligand_efficiency>
-0.434946900305125

> <r_i_glide_ligand_efficiency_sa>
-1.21873832014588

> <r_i_glide_ligand_efficiency_ln>
-2.33897152518125

> <r_i_glide_gscore>
-9.56883180671275

> <r_i_glide_lipo>
-3.6480243397243

> <r_i_glide_hbond>
-0.5357313133106

> <r_i_glide_metal>
0

> <r_i_glide_rewards>
-3.33165417221218

> <r_i_glide_evdw>
-32.7754135131836

> <r_i_glide_ecoul>
-4.14375448226929

> <r_i_glide_erotb>
0.206911866533894

> <r_i_glide_esite>
0

> <r_i_glide_emodel>
-45.0562274165527

> <r_i_glide_energy>
-36.9191679954529

> <r_i_glide_einternal>
5.69195032119751

> <i_i_glide_confnum>
13

> <i_i_glide_posenum>
309

> <r_i_glide_eff_state_penalty>
0

> <s_user_duplicate_titles>
CHEMBL1862_lig421

> <s_m_subgroup_title>
dock_pv

> <s_m_subgroupid>
dock_pv

> <b_m_subgroup_collapsed>
0

$$$$
CHEMBL1862_lig489
                    3D
 Schrodinger Suite 2021-1.
 39 42  0  0  1  0            999 V2000
   15.8929   12.1427    2.0031 N   0  0  0  0  0  0
   14.5491   12.0330    2.0033 C   0  0  0  0  0  0
   13.6609   12.6623    2.8027 N   0  0  0  0  0  0
   16.4360   13.0326    2.8535 C   0  0  0  0  0  0
   15.6246   13.8007    3.7177 C   0  0  0  0  0  0
   14.2321   13.5377    3.6302 C   0  0  0  0  0  0
   13.6128   14.3613    4.5477 N   0  0  0  0  0  0
   14.5450   15.1187    5.1897 N   0  0  0  0  0  0
   15.7461   14.8201    4.7241 C   0  0  0  0  0  0
   17.0080   15.4908    5.2024 C   0  0  0  0  0  0
   18.2455   14.8330    5.2331 C   0  0  0  0  0  0
   19.4397   15.5233    5.4290 C   0  0  0  0  0  0
   19.4128   16.9092    5.5656 C   0  0  0  0  0  0
   18.1827   17.5565    5.6766 C   0  0  0  0  0  0
   16.9907   16.8403    5.5362 C   0  0  0  0  0  0
   17.8205   13.1121    2.8030 N   0  0  0  0  0  0
   20.8798   17.8283    5.6029 Cl  0  0  0  0  0  0
   20.6230   14.8347    5.4822 O   0  0  0  0  0  0
   12.1871   14.4612    4.9441 C   0  0  0  0  0  0
   11.0874   14.0331    3.9504 C   0  0  0  0  0  0
    9.8278   13.7639    4.7896 C   0  0  0  0  0  0
   10.2961   13.6330    6.2416 C   0  0  0  0  0  0
   11.8268   13.6330    6.1771 C   0  0  0  0  0  0
   14.1404   11.3387    1.2828 H   0  0  0  0  0  0
   18.2907   13.7613    5.1301 H   0  0  0  0  0  0
   18.1640   18.6218    5.8510 H   0  0  0  0  0  0
   16.0483   17.3665    5.5810 H   0  0  0  0  0  0
   18.3016   13.8279    3.3254 H   0  0  0  0  0  0
   18.3175   12.5234    2.1458 H   0  0  0  0  0  0
   21.3813   15.4175    5.5777 H   0  0  0  0  0  0
   12.0379   15.5144    5.1844 H   0  0  0  0  0  0
   10.8825   14.7909    3.2030 H   0  0  0  0  0  0
   11.3256   13.1024    3.4396 H   0  0  0  0  0  0
    9.1112   14.5811    4.6944 H   0  0  0  0  0  0
    9.3198   12.8578    4.4533 H   0  0  0  0  0  0
    9.9399   14.4786    6.8307 H   0  0  0  0  0  0
    9.9027   12.7382    6.7214 H   0  0  0  0  0  0
   12.1640   12.6079    6.0446 H   0  0  0  0  0  0
   12.2857   14.0095    7.0896 H   0  0  0  0  0  0
  1  2  2  0  0  0
  1  4  1  0  0  0
  2  3  1  0  0  0
  2 24  1  0  0  0
  3  6  2  0  0  0
  4  5  2  0  0  0
  4 16  1  0  0  0
  5  9  1  0  0  0
  5  6  1  0  0  0
  6  7  1  0  0  0
  7  8  1  0  0  0
  7 19  1  0  0  0
  8  9  2  0  0  0
  9 10  1  0  0  0
 10 15  1  0  0  0
 10 11  2  0  0  0
 11 12  1  0  0  0
 11 25  1  0  0  0
 12 13  2  0  0  0
 12 18  1  0  0  0
 13 14  1  0  0  0
 13 17  1  0  0  0
 14 15  2  0  0  0
 14 26  1  0  0  0
 15 27  1  0  0  0
 16 28  1  0  0  0
 16 29  1  0  0  0
 18 30  1  0  0  0
 19 20  1  0  0  0
 19 23  1  0  0  0
 19 31  1  0  0  0
 20 21  1  0  0  0
 20 32  1  0  0  0
 20 33  1  0  0  0
 21 22  1  0  0  0
 21 34  1  0  0  0
 21 35  1  0  0  0
 22 23  1  0  0  0
 22 36  1  0  0  0
 22 37  1  0  0  0
 23 38  1  0  0  0
 23 39  1  0  0  0
M  END
> <s_m_entry_id>
6261

> <s_m_entry_name>
dock_pv.187

> <s_m_Source_Path>
/home/csk/Desktop/cluster/DUD-E-result/abl1

> <s_m_Source_File>
dock_pv.maegz

> <i_m_Source_File_Index>
187

> <chembl_id>
CHEMBL1241676

> <chembl_pref_name>
None

> <i_lp_mmshare_version>
53161

> <i_f3d_flags>
0

> <r_lp_tautomer_probability>
0.999999999997365

> <s_lp_Force_Field>
OPLS_2005

> <r_lp_Energy>
31.055847

> <b_lp_Chiralities_Consistent>
1

> <s_lp_Variant>
CHEMBL1862_lig489-1

> <s_i_glide_gridfile>
glide-grid_2hzi

> <i_i_glide_lignum>
579

> <i_i_glide_rotatable_bonds>
3

> <r_i_docking_score>
-9.55501975696903

> <r_i_glide_ligand_efficiency>
-0.415435641607349

> <r_i_glide_ligand_efficiency_sa>
-1.18144370218579

> <r_i_glide_ligand_efficiency_ln>
-2.31049041736412

> <r_i_glide_gscore>
-9.55501975696903

> <r_i_glide_lipo>
-3.68699626490411

> <r_i_glide_hbond>
-0.523708657957872

> <r_i_glide_metal>
0

> <r_i_glide_rewards>
-3.47334960022647

> <r_i_glide_evdw>
-28.677375793457

> <r_i_glide_ecoul>
-4.52730703353882

> <r_i_glide_erotb>
0.241999610823103

> <r_i_glide_esite>
0

> <r_i_glide_emodel>
-31.939714703874

> <r_i_glide_energy>
-33.2046828269958

> <r_i_glide_einternal>
5.08025217056274

> <i_i_glide_confnum>
28

> <i_i_glide_posenum>
78

> <r_i_glide_eff_state_penalty>
0

> <s_user_duplicate_titles>
CHEMBL1862_lig489

> <s_m_subgroup_title>
dock_pv

> <s_m_subgroupid>
dock_pv

> <b_m_subgroup_collapsed>
0

$$$$
CHEMBL1862_lig902
                    3D
 Schrodinger Suite 2021-1.
 40 42  0  0  1  0            999 V2000
   15.8940   12.3078    2.0812 N   0  0  0  0  0  0
   14.5693   12.0330    2.0036 C   0  0  0  0  0  0
   13.5579   12.5363    2.7523 N   0  0  0  0  0  0
   16.2666   13.2330    2.9904 C   0  0  0  0  0  0
   15.3069   13.9000    3.7692 C   0  0  0  0  0  0
   13.9753   13.4697    3.6092 C   0  0  0  0  0  0
   13.2362   14.1669    4.5394 N   0  0  0  0  0  0
   14.0234   15.0559    5.2021 N   0  0  0  0  0  0
   15.2514   14.9242    4.7547 C   0  0  0  0  0  0
   11.8238   13.9564    4.8953 C   0  0  0  0  0  0
   10.9803   15.2167    4.6566 C   0  0  0  0  0  0
   11.6995   13.4070    6.3306 C   0  0  0  0  0  0
   17.6301   13.4526    3.1468 N   0  0  0  0  0  0
   16.4122   15.6556    5.2302 C   0  0  0  0  0  0
   17.5719   15.9597    5.4611 C   0  0  0  0  0  0
   19.0164   15.9445    5.6330 C   0  0  0  0  0  0
   19.8523   16.8651    4.9892 C   0  0  0  0  0  0
   21.2511   16.7695    5.1306 C   0  0  0  0  0  0
   21.7806   15.7591    5.9317 C   0  0  0  0  0  0
   20.9515   14.8339    6.5569 C   0  0  0  0  0  0
   19.5745   14.9220    6.4025 C   0  0  0  0  0  0
   22.1727   17.5954    4.5204 O   0  0  0  0  0  0
   21.7232   18.5363    3.5611 C   0  0  0  0  0  0
   14.2885   11.2997    1.2596 H   0  0  0  0  0  0
   11.4322   13.1881    4.2264 H   0  0  0  0  0  0
   10.1311   15.2329    5.3347 H   0  0  0  0  0  0
   11.5480   16.1349    4.8031 H   0  0  0  0  0  0
   10.5640   15.2313    3.6483 H   0  0  0  0  0  0
   10.6571   13.2877    6.6289 H   0  0  0  0  0  0
   12.1640   12.4327    6.4077 H   0  0  0  0  0  0
   12.1888   14.0322    7.0705 H   0  0  0  0  0  0
   17.9456   14.1408    3.8154 H   0  0  0  0  0  0
   18.2778   12.9361    2.5687 H   0  0  0  0  0  0
   19.4106   17.6305    4.3696 H   0  0  0  0  0  0
   22.8524   15.6741    6.0443 H   0  0  0  0  0  0
   21.3731   14.0330    7.1411 H   0  0  0  0  0  0
   18.9472   14.1769    6.8698 H   0  0  0  0  0  0
   22.5646   19.1255    3.2038 H   0  0  0  0  0  0
   21.2638   18.0444    2.7022 H   0  0  0  0  0  0
   21.0136   19.2303    4.0030 H   0  0  0  0  0  0
  1  2  2  0  0  0
  1  4  1  0  0  0
  2  3  1  0  0  0
  2 24  1  0  0  0
  3  6  2  0  0  0
  4  5  2  0  0  0
  4 13  1  0  0  0
  5  6  1  0  0  0
  5  9  1  0  0  0
  6  7  1  0  0  0
  7  8  1  0  0  0
  7 10  1  0  0  0
  8  9  2  0  0  0
  9 14  1  0  0  0
 10 11  1  0  0  0
 10 12  1  0  0  0
 10 25  1  0  0  0
 11 26  1  0  0  0
 11 27  1  0  0  0
 11 28  1  0  0  0
 12 29  1  0  0  0
 12 30  1  0  0  0
 12 31  1  0  0  0
 13 32  1  0  0  0
 13 33  1  0  0  0
 14 15  3  0  0  0
 15 16  1  0  0  0
 16 17  2  0  0  0
 16 21  1  0  0  0
 17 18  1  0  0  0
 17 34  1  0  0  0
 18 19  2  0  0  0
 18 22  1  0  0  0
 19 20  1  0  0  0
 19 35  1  0  0  0
 20 21  2  0  0  0
 20 36  1  0  0  0
 21 37  1  0  0  0
 22 23  1  0  0  0
 23 38  1  0  0  0
 23 39  1  0  0  0
 23 40  1  0  0  0
M  END
> <s_m_entry_id>
6262

> <s_m_entry_name>
dock_pv.188

> <s_m_Source_Path>
/home/csk/Desktop/cluster/DUD-E-result/abl1

> <s_m_Source_File>
dock_pv.maegz

> <i_m_Source_File_Index>
188

> <chembl_id>
CHEMBL3734967

> <chembl_pref_name>
None

> <i_lp_mmshare_version>
53161

> <i_f3d_flags>
0

> <r_lp_tautomer_probability>
1

> <s_lp_Force_Field>
OPLS_2005

> <r_lp_Energy>
13.119152

> <b_lp_Chiralities_Consistent>
1

> <s_lp_Variant>
CHEMBL1862_lig902-1

> <s_i_glide_gridfile>
glide-grid_2hzi

> <i_i_glide_lignum>
1058

> <i_i_glide_rotatable_bonds>
4

> <r_i_docking_score>
-9.54789937941915

> <r_i_glide_ligand_efficiency>
-0.415126059974746

> <r_i_glide_ligand_efficiency_sa>
-1.18056329320418

> <r_i_glide_ligand_efficiency_ln>
-2.30876864550854

> <r_i_glide_gscore>
-9.54789937941915

> <r_i_glide_lipo>
-4.13547301599138

> <r_i_glide_hbond>
-0.32

> <r_i_glide_metal>
0

> <r_i_glide_rewards>
-3.13773752373026

> <r_i_glide_evdw>
-40.7273406982422

> <r_i_glide_ecoul>
-2.06466102600098

> <r_i_glide_erotb>
0.391377349114743

> <r_i_glide_esite>
0

> <r_i_glide_emodel>
-49.1998457672738

> <r_i_glide_energy>
-42.7920017242432

> <r_i_glide_einternal>
0.156457126140594

> <i_i_glide_confnum>
1

> <i_i_glide_posenum>
20

> <r_i_glide_eff_state_penalty>
0

> <s_user_duplicate_titles>
CHEMBL1862_lig902

> <s_m_subgroup_title>
dock_pv

> <s_m_subgroupid>
dock_pv

> <b_m_subgroup_collapsed>
0

$$$$
CHEMBL1862_lig831
                    3D
 Schrodinger Suite 2021-1.
 39 42  0  0  1  0            999 V2000
   15.7022   14.4330    4.0030 C   0  0  0  0  0  0
   16.9551   13.9460    3.6030 C   0  0  0  0  0  0
   17.0353   12.7946    2.8185 C   0  0  0  0  0  0
   15.9610   12.0791    2.4030 N   0  0  0  0  0  0
   14.5616   13.7194    3.5939 C   0  0  0  0  0  0
   14.7803   12.5632    2.7936 C   0  0  0  0  0  0
   13.5518   12.0330    2.4931 N   0  0  0  0  0  0
   12.5541   12.7946    3.0503 C   0  0  0  0  0  0
   13.1382   13.8313    3.7709 C   0  0  0  0  0  0
   11.1489   12.4330    2.8030 C   0  0  0  0  0  0
   18.1312   14.4964    4.1057 N   0  0  0  0  0  0
   18.6345   15.7012    3.7809 C   0  0  0  0  0  0
   11.0044   11.3797    1.9613 O   0  0  0  0  0  0
   19.8589   16.1497    4.5317 C   0  0  0  0  0  0
   18.1640   16.4330    2.9153 O   0  0  0  0  0  0
   20.3299   15.4657    5.6621 C   0  0  0  0  0  0
   21.4666   15.8726    6.3521 C   0  0  0  0  0  0
   20.5264   17.2939    4.0807 C   0  0  0  0  0  0
    9.7076   10.9722    1.5495 C   0  0  0  0  0  0
   10.2165   13.0649    3.3065 O   0  0  0  0  0  0
   21.6676   17.7325    4.7431 C   0  0  0  0  0  0
   22.1298   17.0033    5.8754 C   0  0  0  0  0  0
   23.2760   17.6330    6.3024 N   0  0  0  0  0  0
   23.5598   18.6787    5.4698 C   0  0  0  0  0  0
   22.5640   18.8184    4.5363 C   0  0  0  0  0  0
   15.6170   15.3051    4.6345 H   0  0  0  0  0  0
   17.9997   12.4007    2.5314 H   0  0  0  0  0  0
   13.3640   11.1602    2.0030 H   0  0  0  0  0  0
   12.5973   14.5817    4.3291 H   0  0  0  0  0  0
   18.6458   13.9330    4.7629 H   0  0  0  0  0  0
   19.8202   14.5895    6.0355 H   0  0  0  0  0  0
   21.8171   15.3201    7.2030 H   0  0  0  0  0  0
   20.1816   17.8341    3.2108 H   0  0  0  0  0  0
    9.7641   10.0330    1.0027 H   0  0  0  0  0  0
    9.2626   11.7198    0.8918 H   0  0  0  0  0  0
    9.0430   10.8330    2.4030 H   0  0  0  0  0  0
   23.8870   17.3527    7.0581 H   0  0  0  0  0  0
   24.4675   19.2330    5.6030 H   0  0  0  0  0  0
   22.5277   19.5776    3.7697 H   0  0  0  0  0  0
  1  5  1  0  0  0
  1  2  2  0  0  0
  1 26  1  0  0  0
  2  3  1  0  0  0
  2 11  1  0  0  0
  3  4  2  0  0  0
  3 27  1  0  0  0
  4  6  1  0  0  0
  5  6  2  0  0  0
  5  9  1  0  0  0
  6  7  1  0  0  0
  7  8  1  0  0  0
  7 28  1  0  0  0
  8  9  2  0  0  0
  8 10  1  0  0  0
  9 29  1  0  0  0
 10 13  1  0  0  0
 10 20  2  0  0  0
 11 12  1  0  0  0
 11 30  1  0  0  0
 12 14  1  0  0  0
 12 15  2  0  0  0
 13 19  1  0  0  0
 14 16  2  0  0  0
 14 18  1  0  0  0
 16 17  1  0  0  0
 16 31  1  0  0  0
 17 22  2  0  0  0
 17 32  1  0  0  0
 18 21  2  0  0  0
 18 33  1  0  0  0
 19 34  1  0  0  0
 19 35  1  0  0  0
 19 36  1  0  0  0
 21 22  1  0  0  0
 21 25  1  0  0  0
 22 23  1  0  0  0
 23 24  1  0  0  0
 23 37  1  0  0  0
 24 25  2  0  0  0
 24 38  1  0  0  0
 25 39  1  0  0  0
M  END
> <s_m_entry_id>
6263

> <s_m_entry_name>
dock_pv.189

> <s_m_Source_Path>
/home/csk/Desktop/cluster/DUD-E-result/abl1

> <s_m_Source_File>
dock_pv.maegz

> <i_m_Source_File_Index>
189

> <chembl_id>
CHEMBL3347277

> <chembl_pref_name>
None

> <i_lp_mmshare_version>
53161

> <i_f3d_flags>
0

> <r_lp_tautomer_probability>
1

> <s_lp_Force_Field>
OPLS_2005

> <r_lp_Energy>
17.074206

> <b_lp_Chiralities_Consistent>
1

> <s_lp_Variant>
CHEMBL1862_lig831-1

> <s_i_glide_gridfile>
glide-grid_2hzi

> <i_i_glide_lignum>
969

> <i_i_glide_rotatable_bonds>
5

> <r_i_docking_score>
-9.53822699146668

> <r_i_glide_ligand_efficiency>
-0.381529079658667

> <r_i_glide_ligand_efficiency_sa>
-1.11559779536898

> <r_i_glide_ligand_efficiency_ln>
-2.26084563457486

> <r_i_glide_gscore>
-9.53822699146668

> <r_i_glide_lipo>
-4.16729636363581

> <r_i_glide_hbond>
-0.56610654808069

> <r_i_glide_metal>
0

> <r_i_glide_rewards>
-1.89166381579798

> <r_i_glide_evdw>
-43.9786415100098

> <r_i_glide_ecoul>
-7.79316234588623

> <r_i_glide_erotb>
0.472423823393344

> <r_i_glide_esite>
-0.0176776599621316

> <r_i_glide_emodel>
-71.6322155583716

> <r_i_glide_energy>
-51.771803855896

> <r_i_glide_einternal>
5.44203090667725

> <i_i_glide_confnum>
13

> <i_i_glide_posenum>
379

> <r_i_glide_eff_state_penalty>
0

> <s_user_duplicate_titles>
CHEMBL1862_lig831

> <s_m_subgroup_title>
dock_pv

> <s_m_subgroupid>
dock_pv

> <b_m_subgroup_collapsed>
0

$$$$
CHEMBL1862_lig453
                    3D
 Schrodinger Suite 2021-1.
 35 37  0  0  1  0            999 V2000
   15.7640   12.0499    2.0030 N   0  0  0  0  0  0
   14.4143   12.0330    2.0030 C   0  0  0  0  0  0
   13.5592   12.6700    2.8240 N   0  0  0  0  0  0
   16.3545   12.8905    2.8713 C   0  0  0  0  0  0
   15.5756   13.7550    3.6741 C   0  0  0  0  0  0
   14.1779   13.5244    3.6337 C   0  0  0  0  0  0
   13.6063   14.3413    4.5855 N   0  0  0  0  0  0
   14.5597   15.1371    5.1338 N   0  0  0  0  0  0
   15.7224   14.8714    4.5606 C   0  0  0  0  0  0
   16.9434   15.7177    4.7853 C   0  0  0  0  0  0
   17.9697   15.7375    3.8280 C   0  0  0  0  0  0
   19.0912   16.5421    3.9857 C   0  0  0  0  0  0
   19.1675   17.3874    5.0829 C   0  0  0  0  0  0
   18.1272   17.4328    6.0030 C   0  0  0  0  0  0
   17.0362   16.5760    5.8838 C   0  0  0  0  0  0
   17.7399   12.7883    2.9449 N   0  0  0  0  0  0
   20.2632   18.1867    5.2540 O   0  0  0  0  0  0
   12.1981   14.4344    5.0383 C   0  0  0  0  0  0
   11.9583   13.6330    6.3366 C   0  0  0  0  0  0
   11.1655   14.0002    3.9812 C   0  0  0  0  0  0
   13.9656   11.3715    1.2756 H   0  0  0  0  0  0
   17.8896   15.1891    2.9073 H   0  0  0  0  0  0
   19.8721   16.5272    3.2388 H   0  0  0  0  0  0
   18.1640   18.1391    6.8147 H   0  0  0  0  0  0
   16.2433   16.6179    6.6172 H   0  0  0  0  0  0
   18.2427   13.3468    3.6181 H   0  0  0  0  0  0
   18.2237   12.1438    2.3317 H   0  0  0  0  0  0
   20.9387   18.0366    4.5888 H   0  0  0  0  0  0
   12.0184   15.4955    5.2030 H   0  0  0  0  0  0
   10.9207   13.7161    6.6619 H   0  0  0  0  0  0
   12.1640   12.5727    6.2156 H   0  0  0  0  0  0
   12.5640   14.0118    7.1544 H   0  0  0  0  0  0
   10.1598   14.3145    4.2621 H   0  0  0  0  0  0
   11.3853   14.4330    3.0143 H   0  0  0  0  0  0
   11.1368   12.9173    3.8545 H   0  0  0  0  0  0
  1  4  1  0  0  0
  1  2  2  0  0  0
  2  3  1  0  0  0
  2 21  1  0  0  0
  3  6  2  0  0  0
  4  5  2  0  0  0
  4 16  1  0  0  0
  5  6  1  0  0  0
  5  9  1  0  0  0
  6  7  1  0  0  0
  7  8  1  0  0  0
  7 18  1  0  0  0
  8  9  2  0  0  0
  9 10  1  0  0  0
 10 11  2  0  0  0
 10 15  1  0  0  0
 11 12  1  0  0  0
 11 22  1  0  0  0
 12 13  2  0  0  0
 12 23  1  0  0  0
 13 14  1  0  0  0
 13 17  1  0  0  0
 14 15  2  0  0  0
 14 24  1  0  0  0
 15 25  1  0  0  0
 16 26  1  0  0  0
 16 27  1  0  0  0
 17 28  1  0  0  0
 18 19  1  0  0  0
 18 20  1  0  0  0
 18 29  1  0  0  0
 19 30  1  0  0  0
 19 31  1  0  0  0
 19 32  1  0  0  0
 20 33  1  0  0  0
 20 34  1  0  0  0
 20 35  1  0  0  0
M  END
> <s_m_entry_id>
6264

> <s_m_entry_name>
dock_pv.190

> <s_m_Source_Path>
/home/csk/Desktop/cluster/DUD-E-result/abl1

> <s_m_Source_File>
dock_pv.maegz

> <i_m_Source_File_Index>
190

> <chembl_id>
CHEMBL1241241

> <chembl_pref_name>
None

> <i_lp_mmshare_version>
53161

> <i_f3d_flags>
0

> <r_lp_tautomer_probability>
0.999999999997365

> <s_lp_Force_Field>
OPLS_2005

> <r_lp_Energy>
11.331471

> <b_lp_Chiralities_Consistent>
1

> <s_lp_Variant>
CHEMBL1862_lig453-1

> <s_i_glide_gridfile>
glide-grid_2hzi

> <i_i_glide_lignum>
541

> <i_i_glide_rotatable_bonds>
3

> <r_i_docking_score>
-9.52954679715736

> <r_i_glide_ligand_efficiency>
-0.476477339857868

> <r_i_glide_ligand_efficiency_sa>
-1.29335848392696

> <r_i_glide_ligand_efficiency_ln>
-2.38493125783959

> <r_i_glide_gscore>
-9.52954679715736

> <r_i_glide_lipo>
-3.03045115747266

> <r_i_glide_hbond>
-0.507915210486698

> <r_i_glide_metal>
0

> <r_i_glide_rewards>
-3.90703994345028

> <r_i_glide_evdw>
-27.5361957550049

> <r_i_glide_ecoul>
-5.86515235900879

> <r_i_glide_erotb>
0.172442155853835

> <r_i_glide_esite>
0

> <r_i_glide_emodel>
-40.7680978345901

> <r_i_glide_energy>
-33.4013481140137

> <r_i_glide_einternal>
2.45231246948242

> <i_i_glide_confnum>
3

> <i_i_glide_posenum>
114

> <r_i_glide_eff_state_penalty>
0

> <s_user_duplicate_titles>
CHEMBL1862_lig453

> <s_m_subgroup_title>
dock_pv

> <s_m_subgroupid>
dock_pv

> <b_m_subgroup_collapsed>
0

$$$$
CHEMBL1862_lig898
                    3D
 Schrodinger Suite 2021-1.
 38 40  0  0  1  0            999 V2000
   13.3953   12.6588    2.7826 N   0  0  0  0  0  0
   14.3184   12.0339    2.0080 C   0  0  0  0  0  0
   15.6608   12.1980    2.0037 N   0  0  0  0  0  0
   16.1583   13.1316    2.8356 C   0  0  0  0  0  0
   13.9241   13.6033    3.5648 C   0  0  0  0  0  0
   15.3033   13.9150    3.6343 C   0  0  0  0  0  0
   15.3896   14.9823    4.5709 C   0  0  0  0  0  0
   14.1987   15.2714    5.0370 N   0  0  0  0  0  0
   13.2865   14.4647    4.4409 N   0  0  0  0  0  0
   17.5436   13.2473    2.8666 N   0  0  0  0  0  0
   11.9013   14.4816    4.9529 C   0  0  0  0  0  0
   11.8561   13.6329    6.2349 C   0  0  0  0  0  0
   10.8021   14.0569    3.9507 C   0  0  0  0  0  0
   16.6143   15.6330    4.9976 C   0  0  0  0  0  0
   17.7571   15.9758    5.2557 C   0  0  0  0  0  0
   19.1810   16.1394    5.4891 C   0  0  0  0  0  0
   19.8691   15.1295    6.1648 C   0  0  0  0  0  0
   21.2433   15.2330    6.3624 C   0  0  0  0  0  0
   21.9371   16.3466    5.8938 C   0  0  0  0  0  0
   21.2555   17.3539    5.2112 C   0  0  0  0  0  0
   19.8766   17.2548    5.0081 C   0  0  0  0  0  0
   21.9615   18.4510    4.7290 N   0  0  0  0  0  0
   13.9399   11.3111    1.2982 H   0  0  0  0  0  0
   17.9662   13.9394    3.4675 H   0  0  0  0  0  0
   18.1007   12.6484    2.2735 H   0  0  0  0  0  0
   11.6796   15.5179    5.2028 H   0  0  0  0  0  0
   10.8603   13.6135    6.6779 H   0  0  0  0  0  0
   12.1624   12.6067    6.0341 H   0  0  0  0  0  0
   12.5383   14.0284    6.9872 H   0  0  0  0  0  0
    9.8520   13.9387    4.4729 H   0  0  0  0  0  0
   10.6053   14.8095    3.1871 H   0  0  0  0  0  0
   10.9958   13.0979    3.4726 H   0  0  0  0  0  0
   19.3503   14.2524    6.5237 H   0  0  0  0  0  0
   21.7641   14.4360    6.8655 H   0  0  0  0  0  0
   23.0058   16.4095    6.0478 H   0  0  0  0  0  0
   19.3508   18.0315    4.4683 H   0  0  0  0  0  0
   21.4638   19.1934    4.2612 H   0  0  0  0  0  0
   22.9152   18.5902    5.0314 H   0  0  0  0  0  0
  1  2  2  0  0  0
  1  5  1  0  0  0
  2  3  1  0  0  0
  2 23  1  0  0  0
  3  4  2  0  0  0
  4  6  1  0  0  0
  4 10  1  0  0  0
  5  6  2  0  0  0
  5  9  1  0  0  0
  6  7  1  0  0  0
  7 14  1  0  0  0
  7  8  2  0  0  0
  8  9  1  0  0  0
  9 11  1  0  0  0
 10 24  1  0  0  0
 10 25  1  0  0  0
 11 12  1  0  0  0
 11 13  1  0  0  0
 11 26  1  0  0  0
 12 27  1  0  0  0
 12 28  1  0  0  0
 12 29  1  0  0  0
 13 30  1  0  0  0
 13 31  1  0  0  0
 13 32  1  0  0  0
 14 15  3  0  0  0
 15 16  1  0  0  0
 16 17  2  0  0  0
 16 21  1  0  0  0
 17 18  1  0  0  0
 17 33  1  0  0  0
 18 19  2  0  0  0
 18 34  1  0  0  0
 19 20  1  0  0  0
 19 35  1  0  0  0
 20 21  2  0  0  0
 20 22  1  0  0  0
 21 36  1  0  0  0
 22 37  1  0  0  0
 22 38  1  0  0  0
M  END
> <s_m_entry_id>
6265

> <s_m_entry_name>
dock_pv.191

> <s_m_Source_Path>
/home/csk/Desktop/cluster/DUD-E-result/abl1

> <s_m_Source_File>
dock_pv.maegz

> <i_m_Source_File_Index>
191

> <chembl_id>
CHEMBL2058540

> <chembl_pref_name>
None

> <i_lp_mmshare_version>
53161

> <i_f3d_flags>
0

> <r_lp_tautomer_probability>
1

> <s_lp_Force_Field>
OPLS_2005

> <r_lp_Energy>
13.190086

> <b_lp_Chiralities_Consistent>
1

> <s_lp_Variant>
CHEMBL1862_lig898-1

> <s_i_glide_gridfile>
glide-grid_2hzi

> <i_i_glide_lignum>
1054

> <i_i_glide_rotatable_bonds>
3

> <r_i_docking_score>
-9.52244946235398

> <r_i_glide_ligand_efficiency>
-0.432838611925181

> <r_i_glide_ligand_efficiency_sa>
-1.212830813191

> <r_i_glide_ligand_efficiency_ln>
-2.32763398838285

> <r_i_glide_gscore>
-9.52244946235398

> <r_i_glide_lipo>
-3.94364071272922

> <r_i_glide_hbond>
-0.322540709139277

> <r_i_glide_metal>
0

> <r_i_glide_rewards>
-3.2764948148612

> <r_i_glide_evdw>
-37.7834358215332

> <r_i_glide_ecoul>
-3.4521279335022

> <r_i_glide_erotb>
0.427217755477707

> <r_i_glide_esite>
0

> <r_i_glide_emodel>
-52.786178505281

> <r_i_glide_energy>
-41.2355637550354

> <r_i_glide_einternal>
2.27949690818787

> <i_i_glide_confnum>
1

> <i_i_glide_posenum>
66

> <r_i_glide_eff_state_penalty>
0

> <s_user_duplicate_titles>
CHEMBL1862_lig898

> <s_m_subgroup_title>
dock_pv

> <s_m_subgroupid>
dock_pv

> <b_m_subgroup_collapsed>
0

$$$$
CHEMBL1862_lig495
                    3D
 Schrodinger Suite 2021-1.
 44 47  0  0  1  0            999 V2000
   16.8947   12.3843    2.4030 N   0  0  0  0  0  0
   17.8739   13.1022    2.9957 C   0  0  0  0  0  0
   17.7188   14.1563    3.8242 N   0  0  0  0  0  0
   15.6224   12.7172    2.7153 C   0  0  0  0  0  0
   15.3248   13.7104    3.6607 C   0  0  0  0  0  0
   16.4480   14.4278    4.1397 C   0  0  0  0  0  0
   15.9548   15.3818    5.0101 N   0  0  0  0  0  0
   14.6161   15.2294    5.1498 N   0  0  0  0  0  0
   14.1994   14.2394    4.3835 C   0  0  0  0  0  0
   12.7502   13.8107    4.3989 C   0  0  0  0  0  0
   12.0399   13.8406    5.6029 C   0  0  0  0  0  0
   10.6627   13.6331    5.6511 C   0  0  0  0  0  0
    9.9730   13.2949    4.4834 C   0  0  0  0  0  0
   10.6858   13.1085    3.3029 C   0  0  0  0  0  0
   12.0624   13.3527    3.2705 C   0  0  0  0  0  0
   14.6296   12.0330    2.0504 N   0  0  0  0  0  0
    8.2597   13.0718    4.4784 Cl  0  0  0  0  0  0
   10.0191   13.7378    6.8548 O   0  0  0  0  0  0
   16.6249   16.3621    5.8843 C   0  0  0  0  0  0
   18.1168   16.7145    5.5817 C   0  0  1  0  0  0
   19.1802   15.7226    6.1259 C   0  0  0  0  0  0
   20.6167   16.1479    5.7511 C   0  0  0  0  0  0
   20.7524   16.6198    4.2916 C   0  0  0  0  0  0
   19.8063   17.6993    4.0121 N   0  0  2  0  0  0
   18.4351   17.2152    4.1462 C   0  0  0  0  0  0
   18.8960   12.8227    2.7911 H   0  0  0  0  0  0
   12.5636   14.0330    6.5197 H   0  0  0  0  0  0
   10.1639   12.7945    2.4076 H   0  0  0  0  0  0
   12.5648   13.2343    2.3340 H   0  0  0  0  0  0
   13.6896   12.0971    2.4040 H   0  0  0  0  0  0
   14.8604   11.3059    1.3910 H   0  0  0  0  0  0
   10.6000   14.0202    7.5661 H   0  0  0  0  0  0
   16.5395   15.9892    6.9057 H   0  0  0  0  0  0
   16.0275   17.2723    5.8564 H   0  0  0  0  0  0
   18.3298   17.6054    6.1754 H   0  0  0  0  0  0
   19.0199   14.7102    5.7725 H   0  0  0  0  0  0
   19.0810   15.6326    7.2029 H   0  0  0  0  0  0
   21.2977   15.3133    5.9231 H   0  0  0  0  0  0
   20.9750   16.9438    6.4032 H   0  0  0  0  0  0
   20.5745   15.7906    3.6031 H   0  0  0  0  0  0
   21.7640   16.9823    4.1055 H   0  0  0  0  0  0
   19.9522   18.0152    3.0630 H   0  0  0  0  0  0
   17.7652   18.0329    3.9050 H   0  0  0  0  0  0
   18.2370   16.4734    3.3776 H   0  0  0  0  0  0
  1  2  2  0  0  0
  1  4  1  0  0  0
  2  3  1  0  0  0
  2 26  1  0  0  0
  3  6  2  0  0  0
  4  5  2  0  0  0
  4 16  1  0  0  0
  5  9  1  0  0  0
  5  6  1  0  0  0
  6  7  1  0  0  0
  7  8  1  0  0  0
  7 19  1  0  0  0
  8  9  2  0  0  0
  9 10  1  0  0  0
 10 15  1  0  0  0
 10 11  2  0  0  0
 11 12  1  0  0  0
 11 27  1  0  0  0
 12 13  2  0  0  0
 12 18  1  0  0  0
 13 14  1  0  0  0
 13 17  1  0  0  0
 14 15  2  0  0  0
 14 28  1  0  0  0
 15 29  1  0  0  0
 16 30  1  0  0  0
 16 31  1  0  0  0
 18 32  1  0  0  0
 19 20  1  0  0  0
 19 33  1  0  0  0
 19 34  1  0  0  0
 20 21  1  0  0  0
 20 25  1  0  0  0
 20 35  1  0  0  0
 21 22  1  0  0  0
 21 36  1  0  0  0
 21 37  1  0  0  0
 22 23  1  0  0  0
 22 38  1  0  0  0
 22 39  1  0  0  0
 23 24  1  0  0  0
 23 40  1  0  0  0
 23 41  1  0  0  0
 24 25  1  0  0  0
 24 42  1  0  0  0
 25 43  1  0  0  0
 25 44  1  0  0  0
M  END
> <s_m_entry_id>
6266

> <s_m_entry_name>
dock_pv.192

> <s_m_Source_Path>
/home/csk/Desktop/cluster/DUD-E-result/abl1

> <s_m_Source_File>
dock_pv.maegz

> <i_m_Source_File_Index>
192

> <chembl_id>
CHEMBL1241858

> <chembl_pref_name>
None

> <i_lp_mmshare_version>
53161

> <i_f3d_flags>
0

> <r_lp_tautomer_probability>
0.999999999997365

> <s_lp_Force_Field>
OPLS_2005

> <r_lp_Energy>
18.231719

> <b_lp_Chiralities_Consistent>
1

> <s_lp_Variant>
CHEMBL1862_lig495-2

> <s_i_glide_gridfile>
glide-grid_2hzi

> <i_i_glide_lignum>
588

> <i_i_glide_rotatable_bonds>
4

> <r_i_docking_score>
-9.51982401719803

> <r_i_glide_ligand_efficiency>
-0.380792960687921

> <r_i_glide_ligand_efficiency_sa>
-1.1134453704434

> <r_i_glide_ligand_efficiency_ln>
-2.25648357818055

> <r_i_glide_gscore>
-9.51982401719803

> <r_i_glide_lipo>
-3.84767037754651

> <r_i_glide_hbond>
-0.298106242766336

> <r_i_glide_metal>
0

> <r_i_glide_rewards>
-3.42791769072603

> <r_i_glide_evdw>
-35.3911209106445

> <r_i_glide_ecoul>
-4.15338563919067

> <r_i_glide_erotb>
0.44643418525167

> <r_i_glide_esite>
0

> <r_i_glide_emodel>
-45.7418850759223

> <r_i_glide_energy>
-39.5445065498352

> <r_i_glide_einternal>
6.72319173812866

> <i_i_glide_confnum>
24

> <i_i_glide_posenum>
41

> <r_i_glide_eff_state_penalty>
0

> <s_user_duplicate_titles>
CHEMBL1862_lig495

> <s_m_subgroup_title>
dock_pv

> <s_m_subgroupid>
dock_pv

> <b_m_subgroup_collapsed>
0

$$$$
CHEMBL1862_lig759
                    3D
 Schrodinger Suite 2021-1.
 43 45  0  0  1  0            999 V2000
   18.3847   15.8259    4.7937 C   0  0  0  0  0  0
   17.4285   16.4177    5.6300 C   0  0  0  0  0  0
   16.0888   16.0327    5.6086 C   0  0  0  0  0  0
   18.0270   14.8020    3.9021 C   0  0  0  0  0  0
   16.6798   14.4221    3.8831 C   0  0  0  0  0  0
   15.7096   15.0247    4.7175 C   0  0  0  0  0  0
   14.4741   14.4728    4.5164 N   0  0  0  0  0  0
   14.6638   13.5450    3.6018 C   0  0  0  0  0  0
   15.9691   13.4805    3.1787 N   0  0  0  0  0  0
   13.7319   12.6887    3.0349 N   0  0  0  0  0  0
   12.3939   12.7933    3.1528 C   0  0  0  0  0  0
   11.7643   11.8690    2.4042 N   0  0  0  0  0  0
   11.7991   13.6338    3.8328 O   0  0  0  0  0  0
   10.3104   11.7322    2.2832 C   0  0  0  0  0  0
    9.8398   11.5980    0.8298 C   0  0  0  0  0  0
   19.7912   16.3074    4.8479 C   0  0  0  0  0  0
   20.3455   17.1315    3.8440 C   0  0  0  0  0  0
   21.6455   17.6335    4.0153 C   0  0  0  0  0  0
   22.4085   17.2841    5.1258 C   0  0  0  0  0  0
   21.8808   16.4287    6.0870 C   0  0  0  0  0  0
   20.5786   15.9530    5.9513 C   0  0  0  0  0  0
   19.5461   17.5024    2.5862 C   0  0  0  0  0  0
   20.3842   17.5922    1.3006 C   0  0  0  0  0  0
   17.7361   17.2007    6.3098 H   0  0  0  0  0  0
   15.3655   16.4850    6.2689 H   0  0  0  0  0  0
   18.7635   14.3424    3.2579 H   0  0  0  0  0  0
   16.3019   12.8343    2.4800 H   0  0  0  0  0  0
   14.0842   11.9662    2.4273 H   0  0  0  0  0  0
   12.3058   11.0881    2.0533 H   0  0  0  0  0  0
    9.7731   12.5571    2.7572 H   0  0  0  0  0  0
   10.0075   10.8356    2.8182 H   0  0  0  0  0  0
    8.7500   11.5629    0.7820 H   0  0  0  0  0  0
   10.1977   10.6635    0.4042 H   0  0  0  0  0  0
   10.1675   12.4317    0.2070 H   0  0  0  0  0  0
   22.0899   18.2882    3.2826 H   0  0  0  0  0  0
   23.4140   17.6666    5.2353 H   0  0  0  0  0  0
   22.4818   16.1425    6.9370 H   0  0  0  0  0  0
   20.1708   15.3132    6.7197 H   0  0  0  0  0  0
   18.7753   16.7611    2.3970 H   0  0  0  0  0  0
   19.0094   18.4329    2.7644 H   0  0  0  0  0  0
   19.7640   17.7261    0.4205 H   0  0  0  0  0  0
   21.0692   18.4332    1.3412 H   0  0  0  0  0  0
   20.9620   16.6838    1.1353 H   0  0  0  0  0  0
  1  2  2  0  0  0
  1  4  1  0  0  0
  1 16  1  0  0  0
  2  3  1  0  0  0
  2 24  1  0  0  0
  3  6  2  0  0  0
  3 25  1  0  0  0
  4  5  2  0  0  0
  4 26  1  0  0  0
  5  6  1  0  0  0
  5  9  1  0  0  0
  6  7  1  0  0  0
  7  8  2  0  0  0
  8  9  1  0  0  0
  8 10  1  0  0  0
  9 27  1  0  0  0
 10 11  1  0  0  0
 10 28  1  0  0  0
 11 12  1  0  0  0
 11 13  2  0  0  0
 12 14  1  0  0  0
 12 29  1  0  0  0
 14 15  1  0  0  0
 14 30  1  0  0  0
 14 31  1  0  0  0
 15 32  1  0  0  0
 15 33  1  0  0  0
 15 34  1  0  0  0
 16 17  2  0  0  0
 16 21  1  0  0  0
 17 18  1  0  0  0
 17 22  1  0  0  0
 18 19  2  0  0  0
 18 35  1  0  0  0
 19 20  1  0  0  0
 19 36  1  0  0  0
 20 21  2  0  0  0
 20 37  1  0  0  0
 21 38  1  0  0  0
 22 23  1  0  0  0
 22 39  1  0  0  0
 22 40  1  0  0  0
 23 41  1  0  0  0
 23 42  1  0  0  0
 23 43  1  0  0  0
M  END
> <s_m_entry_id>
6267

> <s_m_entry_name>
dock_pv.193

> <s_m_Source_Path>
/home/csk/Desktop/cluster/DUD-E-result/abl1

> <s_m_Source_File>
dock_pv.maegz

> <i_m_Source_File_Index>
193

> <chembl_id>
CHEMBL2347738

> <chembl_pref_name>
None

> <i_lp_mmshare_version>
53161

> <i_f3d_flags>
0

> <r_lp_tautomer_probability>
1

> <s_lp_Force_Field>
OPLS_2005

> <r_lp_Energy>
14.817226

> <b_lp_Chiralities_Consistent>
1

> <s_lp_Variant>
CHEMBL1862_lig759-1

> <s_i_glide_gridfile>
glide-grid_2hzi

> <i_i_glide_lignum>
892

> <i_i_glide_rotatable_bonds>
6

> <r_i_docking_score>
-9.50263677029327

> <r_i_glide_ligand_efficiency>
-0.413158120447533

> <r_i_glide_ligand_efficiency_sa>
-1.17496673497024

> <r_i_glide_ligand_efficiency_ln>
-2.29782373620325

> <r_i_glide_gscore>
-9.50263677029327

> <r_i_glide_lipo>
-4.23827950105279

> <r_i_glide_hbond>
-0.251216735307856

> <r_i_glide_metal>
0

> <r_i_glide_rewards>
-2.82012467557505

> <r_i_glide_evdw>
-47.4589195251465

> <r_i_glide_ecoul>
-3.98834776878357

> <r_i_glide_erotb>
0.778182283217294

> <r_i_glide_esite>
0

> <r_i_glide_emodel>
-77.1777837764222

> <r_i_glide_energy>
-51.4472672939301

> <r_i_glide_einternal>
4.97696733474731

> <i_i_glide_confnum>
20

> <i_i_glide_posenum>
108

> <r_i_glide_eff_state_penalty>
0

> <s_user_duplicate_titles>
CHEMBL1862_lig759

> <s_m_subgroup_title>
dock_pv

> <s_m_subgroupid>
dock_pv

> <b_m_subgroup_collapsed>
0

$$$$
CHEMBL1862_lig512
                    3D
 Schrodinger Suite 2021-1.
 46 49  0  0  1  0            999 V2000
   16.2114   12.0330    2.0066 N   0  0  0  0  0  0
   14.8608   12.0330    2.1131 C   0  0  0  0  0  0
   14.1008   12.7289    2.9910 N   0  0  0  0  0  0
   16.8920   12.8890    2.8016 C   0  0  0  0  0  0
   16.2163   13.7682    3.6419 C   0  0  0  0  0  0
   14.8268   13.5593    3.7447 C   0  0  0  0  0  0
   14.4373   14.3033    4.8324 N   0  0  0  0  0  0
   15.4389   15.1564    5.2073 N   0  0  0  0  0  0
   16.5243   14.8330    4.5384 C   0  0  0  0  0  0
   17.8887   15.4151    4.7563 C   0  0  0  0  0  0
   18.6128   15.2001    5.9352 C   0  0  0  0  0  0
   19.9680   15.5284    6.0025 C   0  0  0  0  0  0
   20.6096   16.1492    4.9309 C   0  0  0  0  0  0
   19.8697   16.4285    3.7725 C   0  0  0  0  0  0
   18.5272   16.0542    3.6898 C   0  0  0  0  0  0
   18.2772   12.8329    2.8030 N   0  0  0  0  0  0
   20.7018   15.2330    7.1193 O   0  0  0  0  0  0
   21.9594   16.4229    5.0776 O   0  0  0  0  0  0
   22.5243   17.5500    4.4132 C   0  0  0  0  0  0
   13.1106   14.4330    5.4581 C   0  0  0  0  0  0
   12.2673   15.3798    4.6495 C   0  0  0  0  0  0
   11.1378   14.5337    4.0333 C   0  0  0  0  0  0
   10.7821   13.6330    5.1806 C   0  0  0  0  0  0
   12.1782   13.2330    5.6446 C   0  0  0  0  0  0
   21.9153   18.8331    4.9461 C   0  0  0  0  0  0
   14.3318   11.3769    1.4384 H   0  0  0  0  0  0
   18.1639   14.7041    6.7791 H   0  0  0  0  0  0
   20.3329   16.8903    2.9139 H   0  0  0  0  0  0
   17.9827   16.2335    2.7784 H   0  0  0  0  0  0
   18.7982   13.4878    3.3677 H   0  0  0  0  0  0
   18.7462   12.1915    2.1682 H   0  0  0  0  0  0
   21.6161   15.4842    6.9474 H   0  0  0  0  0  0
   22.4138   17.4843    3.3311 H   0  0  0  0  0  0
   23.5953   17.5705    4.6129 H   0  0  0  0  0  0
   13.3649   14.8330    6.4226 H   0  0  0  0  0  0
   11.7868   16.1724    5.2029 H   0  0  0  0  0  0
   12.9212   15.9546    4.0030 H   0  0  0  0  0  0
   10.2900   15.1254    3.6896 H   0  0  0  0  0  0
   11.5086   13.9493    3.1931 H   0  0  0  0  0  0
   10.2450   14.1754    5.9613 H   0  0  0  0  0  0
   10.1601   12.8001    4.8640 H   0  0  0  0  0  0
   12.5640   12.4330    5.0237 H   0  0  0  0  0  0
   12.1638   12.8772    6.6755 H   0  0  0  0  0  0
   22.3173   19.6975    4.4180 H   0  0  0  0  0  0
   22.1390   18.9625    6.0035 H   0  0  0  0  0  0
   20.8327   18.8330    4.8259 H   0  0  0  0  0  0
  1  2  2  0  0  0
  1  4  1  0  0  0
  2  3  1  0  0  0
  2 26  1  0  0  0
  3  6  2  0  0  0
  4  5  2  0  0  0
  4 16  1  0  0  0
  5  9  1  0  0  0
  5  6  1  0  0  0
  6  7  1  0  0  0
  7  8  1  0  0  0
  7 20  1  0  0  0
  8  9  2  0  0  0
  9 10  1  0  0  0
 10 15  1  0  0  0
 10 11  2  0  0  0
 11 12  1  0  0  0
 11 27  1  0  0  0
 12 13  2  0  0  0
 12 17  1  0  0  0
 13 14  1  0  0  0
 13 18  1  0  0  0
 14 15  2  0  0  0
 14 28  1  0  0  0
 15 29  1  0  0  0
 16 30  1  0  0  0
 16 31  1  0  0  0
 17 32  1  0  0  0
 18 19  1  0  0  0
 19 25  1  0  0  0
 19 33  1  0  0  0
 19 34  1  0  0  0
 20 21  1  0  0  0
 20 24  1  0  0  0
 20 35  1  0  0  0
 21 22  1  0  0  0
 21 36  1  0  0  0
 21 37  1  0  0  0
 22 23  1  0  0  0
 22 38  1  0  0  0
 22 39  1  0  0  0
 23 24  1  0  0  0
 23 40  1  0  0  0
 23 41  1  0  0  0
 24 42  1  0  0  0
 24 43  1  0  0  0
 25 44  1  0  0  0
 25 45  1  0  0  0
 25 46  1  0  0  0
M  END
> <s_m_entry_id>
6268

> <s_m_entry_name>
dock_pv.194

> <s_m_Source_Path>
/home/csk/Desktop/cluster/DUD-E-result/abl1

> <s_m_Source_File>
dock_pv.maegz

> <i_m_Source_File_Index>
194

> <chembl_id>
CHEMBL1242289

> <chembl_pref_name>
None

> <i_lp_mmshare_version>
53161

> <i_f3d_flags>
0

> <r_lp_tautomer_probability>
0.999999999999776

> <s_lp_Force_Field>
OPLS_2005

> <r_lp_Energy>
34.57517

> <b_lp_Chiralities_Consistent>
1

> <s_lp_Variant>
CHEMBL1862_lig512-1

> <s_i_glide_gridfile>
glide-grid_2hzi

> <i_i_glide_lignum>
609

> <i_i_glide_rotatable_bonds>
5

> <r_i_docking_score>
-9.50242150067587

> <r_i_glide_ligand_efficiency>
-0.380096860027035

> <r_i_glide_ligand_efficiency_sa>
-1.11140995976557

> <r_i_glide_ligand_efficiency_ln>
-2.25235866025346

> <r_i_glide_gscore>
-9.50242150067587

> <r_i_glide_lipo>
-3.87452830261741

> <r_i_glide_hbond>
-0.599148273012852

> <r_i_glide_metal>
0

> <r_i_glide_rewards>
-3.3840903828313

> <r_i_glide_evdw>
-17.7469024658203

> <r_i_glide_ecoul>
-7.34880018234253

> <r_i_glide_erotb>
0.345010608428086

> <r_i_glide_esite>
0

> <r_i_glide_emodel>
-54.0301931551186

> <r_i_glide_energy>
-25.0957026481628

> <r_i_glide_einternal>
8.71377277374268

> <i_i_glide_confnum>
49

> <i_i_glide_posenum>
239

> <r_i_glide_eff_state_penalty>
0

> <s_user_duplicate_titles>
CHEMBL1862_lig512

> <s_m_subgroup_title>
dock_pv

> <s_m_subgroupid>
dock_pv

> <b_m_subgroup_collapsed>
0

$$$$
CHEMBL1862_lig542
                    3D
 Schrodinger Suite 2021-1.
 41 45  0  0  1  0            999 V2000
   15.7641   12.0435    2.0031 N   0  0  0  0  0  0
   14.4123   12.0330    2.0029 C   0  0  0  0  0  0
   13.5587   12.7344    2.7765 N   0  0  0  0  0  0
   16.3590   12.9477    2.8030 C   0  0  0  0  0  0
   15.5836   13.8291    3.5782 C   0  0  0  0  0  0
   14.1853   13.6341    3.5271 C   0  0  0  0  0  0
   13.6238   14.5500    4.3837 N   0  0  0  0  0  0
   14.6106   15.2932    4.9749 N   0  0  0  0  0  0
   15.7724   14.9312    4.4559 C   0  0  0  0  0  0
   17.1008   15.5842    4.6877 C   0  0  0  0  0  0
   17.7640   16.0330    3.5445 C   0  0  0  0  0  0
   19.0960   15.9996    6.0029 C   0  0  0  0  0  0
   17.7562   15.6217    5.9156 C   0  0  0  0  0  0
   17.7502   12.9422    2.8193 N   0  0  0  0  0  0
   19.7406   16.5261    4.8783 C   0  0  0  0  0  0
   19.0555   16.5606    3.6336 C   0  0  0  0  0  0
   19.8013   17.1204    2.6337 N   0  0  0  0  0  0
   20.9555   17.4147    3.2540 N   0  0  0  0  0  0
   21.0126   17.0811    4.5854 C   0  0  0  0  0  0
   12.2259   14.6301    4.8629 C   0  0  0  0  0  0
   11.0184   14.3286    3.9296 C   0  0  0  0  0  0
    9.9383   13.6323    4.7722 C   0  0  0  0  0  0
   10.4851   13.5881    6.1934 C   0  0  0  0  0  0
   11.9991   13.6330    6.0047 C   0  0  0  0  0  0
   13.9604   11.3380    1.3098 H   0  0  0  0  0  0
   17.2443   16.0312    2.6021 H   0  0  0  0  0  0
   19.6292   15.8811    6.9272 H   0  0  0  0  0  0
   17.2635   15.2353    6.7946 H   0  0  0  0  0  0
   18.2393   13.6164    3.3906 H   0  0  0  0  0  0
   18.2540   12.2958    2.2247 H   0  0  0  0  0  0
   21.7204   17.8383    2.7479 H   0  0  0  0  0  0
   21.9042   17.2730    5.1644 H   0  0  0  0  0  0
   12.1070   15.6560    5.2030 H   0  0  0  0  0  0
   10.5640   15.2298    3.5141 H   0  0  0  0  0  0
   11.2757   13.6673    3.1088 H   0  0  0  0  0  0
    8.9810   14.1543    4.7325 H   0  0  0  0  0  0
    9.7633   12.6219    4.3980 H   0  0  0  0  0  0
   10.1447   14.4478    6.7668 H   0  0  0  0  0  0
   10.1521   12.7060    6.7361 H   0  0  0  0  0  0
   12.3642   12.6556    5.7119 H   0  0  0  0  0  0
   12.5240   13.9281    6.9129 H   0  0  0  0  0  0
  1  2  2  0  0  0
  1  4  1  0  0  0
  2  3  1  0  0  0
  2 25  1  0  0  0
  3  6  2  0  0  0
  4 14  1  0  0  0
  4  5  2  0  0  0
  5  9  1  0  0  0
  5  6  1  0  0  0
  6  7  1  0  0  0
  7  8  1  0  0  0
  7 20  1  0  0  0
  8  9  2  0  0  0
  9 10  1  0  0  0
 10 11  2  0  0  0
 10 13  1  0  0  0
 11 16  1  0  0  0
 11 26  1  0  0  0
 12 13  2  0  0  0
 12 27  1  0  0  0
 12 15  1  0  0  0
 13 28  1  0  0  0
 14 29  1  0  0  0
 14 30  1  0  0  0
 15 16  1  0  0  0
 15 19  2  0  0  0
 16 17  2  0  0  0
 17 18  1  0  0  0
 18 31  1  0  0  0
 18 19  1  0  0  0
 19 32  1  0  0  0
 20 21  1  0  0  0
 20 24  1  0  0  0
 20 33  1  0  0  0
 21 22  1  0  0  0
 21 34  1  0  0  0
 21 35  1  0  0  0
 22 23  1  0  0  0
 22 36  1  0  0  0
 22 37  1  0  0  0
 23 24  1  0  0  0
 23 38  1  0  0  0
 23 39  1  0  0  0
 24 40  1  0  0  0
 24 41  1  0  0  0
M  END
> <s_m_entry_id>
6269

> <s_m_entry_name>
dock_pv.195

> <s_m_Source_Path>
/home/csk/Desktop/cluster/DUD-E-result/abl1

> <s_m_Source_File>
dock_pv.maegz

> <i_m_Source_File_Index>
195

> <chembl_id>
CHEMBL1242572

> <chembl_pref_name>
None

> <i_lp_mmshare_version>
53161

> <i_f3d_flags>
0

> <r_lp_tautomer_probability>
0.0196078431372549

> <s_lp_Force_Field>
OPLS_2005

> <r_lp_Energy>
44.689059

> <b_lp_Chiralities_Consistent>
1

> <s_lp_Variant>
CHEMBL1862_lig542-2

> <s_i_glide_gridfile>
glide-grid_2hzi

> <i_i_glide_lignum>
644

> <i_i_glide_rotatable_bonds>
2

> <r_i_docking_score>
-9.48069447165819

> <r_i_glide_ligand_efficiency>
-0.395028936319091

> <r_i_glide_ligand_efficiency_sa>
-1.13946062612331

> <r_i_glide_ligand_efficiency_ln>
-2.26916522778948

> <r_i_glide_gscore>
-9.48069447165819

> <r_i_glide_lipo>
-3.67226889335164

> <r_i_glide_hbond>
-0.53282826335457

> <r_i_glide_metal>
0

> <r_i_glide_rewards>
-3.5173699310688

> <r_i_glide_evdw>
-29.1318092346191

> <r_i_glide_ecoul>
-3.71827745437622

> <r_i_glide_erotb>
0.256104696004212

> <r_i_glide_esite>
0

> <r_i_glide_emodel>
-29.7695313729768

> <r_i_glide_energy>
-32.8500866889954

> <r_i_glide_einternal>
9.54059219360352

> <i_i_glide_confnum>
22

> <i_i_glide_posenum>
94

> <r_i_glide_eff_state_penalty>
0

> <s_user_duplicate_titles>
CHEMBL1862_lig542,CHEMBL1862_lig542

> <s_m_subgroup_title>
dock_pv

> <s_m_subgroupid>
dock_pv

> <b_m_subgroup_collapsed>
0

$$$$
CHEMBL1862_lig432
                    3D
 Schrodinger Suite 2021-1.
 38 41  0  0  1  0            999 V2000
   16.2004   12.0330    2.4030 N   0  0  0  0  0  0
   17.3651   12.6054    2.7765 C   0  0  0  0  0  0
   17.5436   13.7168    3.5232 N   0  0  0  0  0  0
   15.0761   12.5895    2.8933 C   0  0  0  0  0  0
   15.1165   13.6741    3.7766 C   0  0  0  0  0  0
   16.3971   14.2112    4.0005 C   0  0  0  0  0  0
   16.2137   15.3120    4.8032 N   0  0  0  0  0  0
   14.9050   15.3924    5.2031 N   0  0  0  0  0  0
   14.2237   14.4226    4.6064 C   0  0  0  0  0  0
   12.7452   14.1278    4.7629 C   0  0  0  0  0  0
   12.0672   13.9054    5.9616 C   0  0  0  0  0  0
   10.6960   13.6330    6.0048 C   0  0  0  0  0  0
    9.9760   13.5123    4.8242 C   0  0  0  0  0  0
   10.6417   13.6326    3.6158 C   0  0  0  0  0  0
   12.0050   13.9475    3.6029 C   0  0  0  0  0  0
   13.8821   12.0330    2.4939 N   0  0  0  0  0  0
    8.6490   13.2479    4.8449 F   0  0  0  0  0  0
   10.0531   13.5020    7.2030 O   0  0  0  0  0  0
   17.2592   16.2405    5.2959 C   0  0  1  0  0  0
   18.2934   15.5202    6.1729 C   0  0  0  0  0  0
   19.6682   15.8768    5.6033 C   0  0  0  0  0  0
   19.4304   16.1156    4.2002 N   0  0  1  0  0  0
   18.1640   16.8265    4.1781 C   0  0  0  0  0  0
   18.2499   12.1362    2.4081 H   0  0  0  0  0  0
   12.5640   14.0293    6.8965 H   0  0  0  0  0  0
   10.0738   13.4680    2.7182 H   0  0  0  0  0  0
   12.5607   14.0339    2.6880 H   0  0  0  0  0  0
   13.0371   12.3259    2.9587 H   0  0  0  0  0  0
   13.8998   11.1387    2.0034 H   0  0  0  0  0  0
    9.1042   13.3738    7.1030 H   0  0  0  0  0  0
   16.7307   17.0326    5.8297 H   0  0  0  0  0  0
   18.2125   15.8336    7.2030 H   0  0  0  0  0  0
   18.1730   14.4373    6.1625 H   0  0  0  0  0  0
   20.1041   16.7601    6.0691 H   0  0  0  0  0  0
   20.3730   15.0508    5.7118 H   0  0  0  0  0  0
   20.1774   16.6469    3.7731 H   0  0  0  0  0  0
   17.7640   16.7346    3.1720 H   0  0  0  0  0  0
   18.3609   17.8830    4.3677 H   0  0  0  0  0  0
  1  2  2  0  0  0
  1  4  1  0  0  0
  2  3  1  0  0  0
  2 24  1  0  0  0
  3  6  2  0  0  0
  4  5  2  0  0  0
  4 16  1  0  0  0
  5  9  1  0  0  0
  5  6  1  0  0  0
  6  7  1  0  0  0
  7  8  1  0  0  0
  7 19  1  0  0  0
  8  9  2  0  0  0
  9 10  1  0  0  0
 10 15  1  0  0  0
 10 11  2  0  0  0
 11 12  1  0  0  0
 11 25  1  0  0  0
 12 13  2  0  0  0
 12 18  1  0  0  0
 13 14  1  0  0  0
 13 17  1  0  0  0
 14 15  2  0  0  0
 14 26  1  0  0  0
 15 27  1  0  0  0
 16 28  1  0  0  0
 16 29  1  0  0  0
 18 30  1  0  0  0
 19 20  1  0  0  0
 19 23  1  0  0  0
 19 31  1  0  0  0
 20 21  1  0  0  0
 20 32  1  0  0  0
 20 33  1  0  0  0
 21 22  1  0  0  0
 21 34  1  0  0  0
 21 35  1  0  0  0
 22 23  1  0  0  0
 22 36  1  0  0  0
 23 37  1  0  0  0
 23 38  1  0  0  0
M  END
> <s_m_entry_id>
6270

> <s_m_entry_name>
dock_pv.196

> <s_m_Source_Path>
/home/csk/Desktop/cluster/DUD-E-result/abl1

> <s_m_Source_File>
dock_pv.maegz

> <i_m_Source_File_Index>
196

> <chembl_id>
CHEMBL1242657

> <chembl_pref_name>
None

> <i_lp_mmshare_version>
53161

> <i_f3d_flags>
0

> <r_lp_tautomer_probability>
0.999999999997365

> <s_lp_Force_Field>
OPLS_2005

> <r_lp_Energy>
31.267419

> <b_lp_Chiralities_Consistent>
1

> <s_lp_Variant>
CHEMBL1862_lig432-1

> <s_i_glide_gridfile>
glide-grid_2hzi

> <i_i_glide_lignum>
520

> <i_i_glide_rotatable_bonds>
3

> <r_i_docking_score>
-9.4539508218072

> <r_i_glide_ligand_efficiency>
-0.411041340078574

> <r_i_glide_ligand_efficiency_sa>
-1.16894689318165

> <r_i_glide_ligand_efficiency_ln>
-2.28605103239955

> <r_i_glide_gscore>
-9.4539508218072

> <r_i_glide_lipo>
-3.37073428247613

> <r_i_glide_hbond>
-0.68071065007543

> <r_i_glide_metal>
0

> <r_i_glide_rewards>
-3.55279713770659

> <r_i_glide_evdw>
-22.5972366333008

> <r_i_glide_ecoul>
-6.55488348007202

> <r_i_glide_erotb>
0.263385602126789

> <r_i_glide_esite>
0

> <r_i_glide_emodel>
-26.8049192350831

> <r_i_glide_energy>
-29.1521201133728

> <r_i_glide_einternal>
5.13529253005981

> <i_i_glide_confnum>
28

> <i_i_glide_posenum>
289

> <r_i_glide_eff_state_penalty>
0

> <s_user_duplicate_titles>
CHEMBL1862_lig432

> <s_m_subgroup_title>
dock_pv

> <s_m_subgroupid>
dock_pv

> <b_m_subgroup_collapsed>
0

$$$$
CHEMBL1862_lig164
                    3D
 Schrodinger Suite 2021-1.
 29 31  0  0  1  0            999 V2000
   17.6916   14.7831    3.8115 C   0  0  0  0  0  0
   16.4692   13.0488    3.0683 C   0  0  0  0  0  0
   16.3513   14.3153    3.7239 C   0  0  0  0  0  0
   15.4176   12.2841    2.7640 N   0  0  0  0  0  0
   13.9764   13.9514    3.7810 N   0  0  0  0  0  0
   15.0539   14.7095    4.0854 C   0  0  0  0  0  0
   18.4466   13.7873    3.2364 N   0  0  0  0  0  0
   14.2150   12.7895    3.1329 C   0  0  0  0  0  0
   17.7645   12.7128    2.8032 N   0  0  0  0  0  0
   18.1830   15.9989    4.2304 N   0  0  0  0  0  0
   19.4926   16.2485    4.6744 C   0  0  0  0  0  0
   14.8181   15.8683    4.8046 N   0  0  0  0  0  0
   20.0891   17.4802    4.3850 C   0  0  0  0  0  0
   13.1042   12.0330    2.8039 N   0  0  0  0  0  0
   21.4006   17.7433    4.7918 C   0  0  0  0  0  0
   22.1640   19.2327    4.3685 Cl  0  0  0  0  0  0
   21.5117   15.5715    5.8379 C   0  0  0  0  0  0
   20.2120   15.2988    5.4112 C   0  0  0  0  0  0
   22.1072   16.7920    5.5268 C   0  0  0  0  0  0
   19.4471   13.8582    3.1101 H   0  0  0  0  0  0
   17.6553   16.8371    4.0406 H   0  0  0  0  0  0
   15.6010   16.4021    5.1465 H   0  0  0  0  0  0
   13.8721   16.0651    5.0921 H   0  0  0  0  0  0
   19.5516   18.2232    3.8145 H   0  0  0  0  0  0
   13.2569   11.1038    2.4099 H   0  0  0  0  0  0
   12.1959   12.3370    3.1133 H   0  0  0  0  0  0
   22.0636   14.8331    6.3993 H   0  0  0  0  0  0
   19.7618   14.3511    5.6668 H   0  0  0  0  0  0
   23.1202   16.9930    5.8467 H   0  0  0  0  0  0
  1  3  2  0  0  0
  1  7  1  0  0  0
  1 10  1  0  0  0
  2  3  1  0  0  0
  2  4  1  0  0  0
  2  9  2  0  0  0
  3  6  1  0  0  0
  4  8  2  0  0  0
  5  6  2  0  0  0
  5  8  1  0  0  0
  6 12  1  0  0  0
  7  9  1  0  0  0
  7 20  1  0  0  0
  8 14  1  0  0  0
 10 11  1  0  0  0
 10 21  1  0  0  0
 11 13  2  0  0  0
 11 18  1  0  0  0
 12 22  1  0  0  0
 12 23  1  0  0  0
 13 15  1  0  0  0
 13 24  1  0  0  0
 14 25  1  0  0  0
 14 26  1  0  0  0
 15 16  1  0  0  0
 15 19  2  0  0  0
 17 18  2  0  0  0
 17 19  1  0  0  0
 17 27  1  0  0  0
 18 28  1  0  0  0
 19 29  1  0  0  0
M  END
> <s_m_entry_id>
6271

> <s_m_entry_name>
dock_pv.197

> <s_m_Source_Path>
/home/csk/Desktop/cluster/DUD-E-result/abl1

> <s_m_Source_File>
dock_pv.maegz

> <i_m_Source_File_Index>
197

> <chembl_id>
CHEMBL122068

> <chembl_pref_name>
None

> <i_lp_mmshare_version>
53161

> <i_f3d_flags>
0

> <r_lp_tautomer_probability>
1

> <s_lp_Force_Field>
OPLS_2005

> <r_lp_Energy>
26.559174

> <b_lp_Chiralities_Consistent>
1

> <s_lp_Variant>
CHEMBL1862_lig164-1

> <s_i_glide_gridfile>
glide-grid_2hzi

> <i_i_glide_lignum>
183

> <i_i_glide_rotatable_bonds>
2

> <r_i_docking_score>
-9.44432924947612

> <r_i_glide_ligand_efficiency>
-0.497069960498743

> <r_i_glide_ligand_efficiency_sa>
-1.32638230082318

> <r_i_glide_ligand_efficiency_ln>
-2.39434031033532

> <r_i_glide_gscore>
-9.44432924947612

> <r_i_glide_lipo>
-2.90860881609252

> <r_i_glide_hbond>
-0.448088420621203

> <r_i_glide_metal>
0

> <r_i_glide_rewards>
-3.39159168971414

> <r_i_glide_evdw>
-40.8973197937012

> <r_i_glide_ecoul>
-6.54883098602295

> <r_i_glide_erotb>
0.331150314540247

> <r_i_glide_esite>
0

> <r_i_glide_emodel>
-70.6141518003654

> <r_i_glide_energy>
-47.4461507797241

> <r_i_glide_einternal>
6.15315341949463

> <i_i_glide_confnum>
8

> <i_i_glide_posenum>
322

> <r_i_glide_eff_state_penalty>
0

> <s_user_duplicate_titles>
CHEMBL1862_lig164,198030

> <s_m_subgroup_title>
dock_pv

> <s_m_subgroupid>
dock_pv

> <b_m_subgroup_collapsed>
0

$$$$
CHEMBL1862_lig464
                    3D
 Schrodinger Suite 2021-1.
 46 48  0  0  1  0            999 V2000
   16.4422   12.0330    2.2073 N   0  0  0  0  0  0
   15.1035   12.0824    2.4101 C   0  0  0  0  0  0
   14.4345   12.8842    3.2738 N   0  0  0  0  0  0
   17.1947   12.9415    2.8651 C   0  0  0  0  0  0
   16.6226   13.9052    3.6826 C   0  0  0  0  0  0
   15.2416   13.7602    3.8845 C   0  0  0  0  0  0
   14.9551   14.6297    4.9026 N   0  0  0  0  0  0
   16.0119   15.4193    5.2091 N   0  0  0  0  0  0
   17.0282   15.0037    4.4989 C   0  0  0  0  0  0
   18.3826   15.5939    4.6295 C   0  0  0  0  0  0
   18.9277   16.2788    3.5467 C   0  0  0  0  0  0
   20.2164   16.8307    3.6112 C   0  0  0  0  0  0
   20.9614   16.7013    4.7927 C   0  0  0  0  0  0
   20.4097   16.0003    5.8796 C   0  0  0  0  0  0
   19.1260   15.4608    5.8014 C   0  0  0  0  0  0
   18.5640   12.8330    2.8030 N   0  0  0  0  0  0
   13.6985   14.8072    5.5932 C   0  0  0  0  0  0
   12.6829   15.6066    4.7217 C   0  0  1  0  0  0
   20.8057   17.4966    2.5520 O   0  0  0  0  0  0
   22.2208   17.2730    4.8057 O   0  0  0  0  0  0
   23.0160   17.1844    5.9788 C   0  0  0  0  0  0
   20.2347   17.3543    1.2573 C   0  0  0  0  0  0
   13.4042   16.7774    4.0030 C   0  0  0  0  0  0
   11.6703   14.6723    4.0030 C   0  0  0  0  0  0
   11.0792   13.7250    4.8683 O   0  0  0  0  0  0
   14.5129   11.3888    1.8327 H   0  0  0  0  0  0
   18.3285   16.3857    2.6571 H   0  0  0  0  0  0
   20.9623   15.8692    6.7970 H   0  0  0  0  0  0
   18.7140   14.9269    6.6457 H   0  0  0  0  0  0
   19.1394   13.5258    3.2596 H   0  0  0  0  0  0
   18.9640   12.1372    2.1757 H   0  0  0  0  0  0
   13.3209   13.8182    5.8305 H   0  0  0  0  0  0
   13.9525   15.2330    6.5509 H   0  0  0  0  0  0
   11.9349   16.1968    5.2030 H   0  0  0  0  0  0
   23.9448   17.7321    5.8223 H   0  0  0  0  0  0
   22.5154   17.6330    6.8323 H   0  0  0  0  0  0
   23.2699   16.1503    6.2163 H   0  0  0  0  0  0
   20.9640   17.6330    0.5010 H   0  0  0  0  0  0
   19.9603   16.3221    1.0450 H   0  0  0  0  0  0
   19.3539   17.9879    1.1514 H   0  0  0  0  0  0
   13.9304   16.4330    3.1151 H   0  0  0  0  0  0
   12.7641   17.6235    3.7648 H   0  0  0  0  0  0
   14.1640   17.2233    4.6460 H   0  0  0  0  0  0
   10.8240   15.2330    3.6030 H   0  0  0  0  0  0
   12.1371   14.1342    3.1799 H   0  0  0  0  0  0
   11.6834   12.9845    4.9593 H   0  0  0  0  0  0
  1  2  2  0  0  0
  1  4  1  0  0  0
  2  3  1  0  0  0
  2 26  1  0  0  0
  3  6  2  0  0  0
  4  5  2  0  0  0
  4 16  1  0  0  0
  5  9  1  0  0  0
  5  6  1  0  0  0
  6  7  1  0  0  0
  7 17  1  0  0  0
  7  8  1  0  0  0
  8  9  2  0  0  0
  9 10  1  0  0  0
 10 15  1  0  0  0
 10 11  2  0  0  0
 11 12  1  0  0  0
 11 27  1  0  0  0
 12 13  2  0  0  0
 12 19  1  0  0  0
 13 14  1  0  0  0
 13 20  1  0  0  0
 14 15  2  0  0  0
 14 28  1  0  0  0
 15 29  1  0  0  0
 16 30  1  0  0  0
 16 31  1  0  0  0
 17 18  1  0  0  0
 17 32  1  0  0  0
 17 33  1  0  0  0
 18 23  1  0  0  0
 18 24  1  0  0  0
 18 34  1  0  0  0
 19 22  1  0  0  0
 20 21  1  0  0  0
 21 35  1  0  0  0
 21 36  1  0  0  0
 21 37  1  0  0  0
 22 38  1  0  0  0
 22 39  1  0  0  0
 22 40  1  0  0  0
 23 41  1  0  0  0
 23 42  1  0  0  0
 23 43  1  0  0  0
 24 25  1  0  0  0
 24 44  1  0  0  0
 24 45  1  0  0  0
 25 46  1  0  0  0
M  END
> <s_m_entry_id>
6272

> <s_m_entry_name>
dock_pv.198

> <s_m_Source_Path>
/home/csk/Desktop/cluster/DUD-E-result/abl1

> <s_m_Source_File>
dock_pv.maegz

> <i_m_Source_File_Index>
198

> <chembl_id>
CHEMBL1242381

> <chembl_pref_name>
None

> <i_lp_mmshare_version>
53161

> <i_f3d_flags>
0

> <r_lp_tautomer_probability>
1

> <s_lp_Force_Field>
OPLS_2005

> <r_lp_Energy>
20.107263

> <b_lp_Chiralities_Consistent>
1

> <s_lp_Variant>
CHEMBL1862_lig464-1

> <s_i_glide_gridfile>
glide-grid_2hzi

> <i_i_glide_lignum>
553

> <i_i_glide_rotatable_bonds>
7

> <r_i_docking_score>
-9.43823395027942

> <r_i_glide_ligand_efficiency>
-0.377529358011177

> <r_i_glide_ligand_efficiency_sa>
-1.10390253833635

> <r_i_glide_ligand_efficiency_ln>
-2.23714428726384

> <r_i_glide_gscore>
-9.43823395027942

> <r_i_glide_lipo>
-3.24315901748608

> <r_i_glide_hbond>
-0.608

> <r_i_glide_metal>
0

> <r_i_glide_rewards>
-3.45986450758349

> <r_i_glide_evdw>
-28.1038990020752

> <r_i_glide_ecoul>
-7.81730556488037

> <r_i_glide_erotb>
0.450580359625964

> <r_i_glide_esite>
0

> <r_i_glide_emodel>
-65.0787803825529

> <r_i_glide_energy>
-35.9212045669556

> <r_i_glide_einternal>
4.60876893997192

> <i_i_glide_confnum>
15

> <i_i_glide_posenum>
84

> <r_i_glide_eff_state_penalty>
0

> <s_user_duplicate_titles>
CHEMBL1862_lig464

> <s_m_subgroup_title>
dock_pv

> <s_m_subgroupid>
dock_pv

> <b_m_subgroup_collapsed>
0

$$$$
CHEMBL1862_lig904
                    3D
 Schrodinger Suite 2021-1.
 40 42  0  0  1  0            999 V2000
   16.2915   12.1555    2.3337 N   0  0  0  0  0  0
   14.9449   12.0329    2.2378 C   0  0  0  0  0  0
   13.9921   12.7433    2.8806 N   0  0  0  0  0  0
   16.7565   13.1743    3.0865 C   0  0  0  0  0  0
   15.8666   14.0500    3.7287 C   0  0  0  0  0  0
   14.4943   13.7438    3.6030 C   0  0  0  0  0  0
   13.8187   14.6758    4.3645 N   0  0  0  0  0  0
   14.6964   15.5641    4.9003 N   0  0  0  0  0  0
   15.9093   15.2346    4.5090 C   0  0  0  0  0  0
   12.4038   14.7082    4.7804 C   0  0  0  0  0  0
   12.2790   13.9776    6.1080 C   0  0  0  0  0  0
   11.4296   14.0533    3.7910 C   0  0  0  0  0  0
   18.1358   13.2968    3.2026 N   0  0  0  0  0  0
   17.1026   16.0329    4.7599 C   0  0  0  0  0  0
   18.1979   16.5770    4.7688 C   0  0  0  0  0  0
   19.5953   17.0169    4.7638 C   0  0  0  0  0  0
   20.0269   18.0123    3.8861 C   0  0  0  0  0  0
   21.3638   18.4320    3.8871 C   0  0  0  0  0  0
   22.2761   17.8558    4.7637 C   0  0  0  0  0  0
   21.8634   16.8360    5.6138 C   0  0  0  0  0  0
   20.5276   16.3959    5.6033 C   0  0  0  0  0  0
   20.0715   15.3738    6.4032 O   0  0  0  0  0  0
   21.0011   14.4062    6.8087 C   0  0  0  0  0  0
   14.5753   11.2333    1.6090 H   0  0  0  0  0  0
   12.1248   15.7581    4.8884 H   0  0  0  0  0  0
   11.2695   14.0302    6.5190 H   0  0  0  0  0  0
   12.5412   12.9264    6.0030 H   0  0  0  0  0  0
   12.9644   14.4306    6.8153 H   0  0  0  0  0  0
   10.3932   14.2734    4.0480 H   0  0  0  0  0  0
   11.6098   14.4324    2.8030 H   0  0  0  0  0  0
   11.5279   12.9676    3.7523 H   0  0  0  0  0  0
   18.5234   14.0572    3.7432 H   0  0  0  0  0  0
   18.7237   12.6450    2.7000 H   0  0  0  0  0  0
   19.3217   18.4331    3.1870 H   0  0  0  0  0  0
   21.7139   19.1958    3.2083 H   0  0  0  0  0  0
   23.3051   18.1855    4.7730 H   0  0  0  0  0  0
   22.5935   16.3921    6.2744 H   0  0  0  0  0  0
   20.4317   13.5756    7.2030 H   0  0  0  0  0  0
   21.6248   14.0419    5.9915 H   0  0  0  0  0  0
   21.6232   14.8191    7.5966 H   0  0  0  0  0  0
  1  2  2  0  0  0
  1  4  1  0  0  0
  2  3  1  0  0  0
  2 24  1  0  0  0
  3  6  2  0  0  0
  4  5  2  0  0  0
  4 13  1  0  0  0
  5  6  1  0  0  0
  5  9  1  0  0  0
  6  7  1  0  0  0
  7  8  1  0  0  0
  7 10  1  0  0  0
  8  9  2  0  0  0
  9 14  1  0  0  0
 10 11  1  0  0  0
 10 12  1  0  0  0
 10 25  1  0  0  0
 11 26  1  0  0  0
 11 27  1  0  0  0
 11 28  1  0  0  0
 12 29  1  0  0  0
 12 30  1  0  0  0
 12 31  1  0  0  0
 13 32  1  0  0  0
 13 33  1  0  0  0
 14 15  3  0  0  0
 15 16  1  0  0  0
 16 17  2  0  0  0
 16 21  1  0  0  0
 17 18  1  0  0  0
 17 34  1  0  0  0
 18 19  2  0  0  0
 18 35  1  0  0  0
 19 20  1  0  0  0
 19 36  1  0  0  0
 20 21  2  0  0  0
 20 37  1  0  0  0
 21 22  1  0  0  0
 22 23  1  0  0  0
 23 38  1  0  0  0
 23 39  1  0  0  0
 23 40  1  0  0  0
M  END
> <s_m_entry_id>
6273

> <s_m_entry_name>
dock_pv.199

> <s_m_Source_Path>
/home/csk/Desktop/cluster/DUD-E-result/abl1

> <s_m_Source_File>
dock_pv.maegz

> <i_m_Source_File_Index>
199

> <chembl_id>
CHEMBL3735576

> <chembl_pref_name>
None

> <i_lp_mmshare_version>
53161

> <i_f3d_flags>
0

> <r_lp_tautomer_probability>
1

> <s_lp_Force_Field>
OPLS_2005

> <r_lp_Energy>
12.333556

> <b_lp_Chiralities_Consistent>
1

> <s_lp_Variant>
CHEMBL1862_lig904-1

> <s_i_glide_gridfile>
glide-grid_2hzi

> <i_i_glide_lignum>
1060

> <i_i_glide_rotatable_bonds>
4

> <r_i_docking_score>
-9.42930149707869

> <r_i_glide_ligand_efficiency>
-0.409969630307769

> <r_i_glide_ligand_efficiency_sa>
-1.16589909315566

> <r_i_glide_ligand_efficiency_ln>
-2.28009060217248

> <r_i_glide_gscore>
-9.42930149707869

> <r_i_glide_lipo>
-3.45813901046121

> <r_i_glide_hbond>
-0.35170425945239

> <r_i_glide_metal>
0

> <r_i_glide_rewards>
-3.78749819437561

> <r_i_glide_evdw>
-34.0450172424316

> <r_i_glide_ecoul>
-2.69115543365479

> <r_i_glide_erotb>
0.27396414438032

> <r_i_glide_esite>
0

> <r_i_glide_emodel>
-35.6414463816311

> <r_i_glide_energy>
-36.7361726760864

> <r_i_glide_einternal>
4.66040229797363

> <i_i_glide_confnum>
1

> <i_i_glide_posenum>
55

> <r_i_glide_eff_state_penalty>
0

> <s_user_duplicate_titles>
CHEMBL1862_lig904

> <s_m_subgroup_title>
dock_pv

> <s_m_subgroupid>
dock_pv

> <b_m_subgroup_collapsed>
0

$$$$
CHEMBL1862_lig490
                    3D
 Schrodinger Suite 2021-1.
 38 41  0  0  1  0            999 V2000
   16.0850   12.0330    2.2981 N   0  0  0  0  0  0
   17.2680   12.5990    2.6448 C   0  0  0  0  0  0
   17.4591   13.7042    3.4051 N   0  0  0  0  0  0
   14.9637   12.5944    2.8055 C   0  0  0  0  0  0
   15.0278   13.6771    3.6844 C   0  0  0  0  0  0
   16.3198   14.1935    3.9122 C   0  0  0  0  0  0
   16.1626   15.2331    4.8030 N   0  0  0  0  0  0
   14.8546   15.3285    5.1908 N   0  0  0  0  0  0
   14.1483   14.4229    4.5270 C   0  0  0  0  0  0
   12.6754   14.1442    4.7332 C   0  0  0  0  0  0
   11.7790   14.0294    3.6692 C   0  0  0  0  0  0
   10.4125   13.7838    3.8706 C   0  0  0  0  0  0
    9.9310   13.6050    5.1692 C   0  0  0  0  0  0
   10.8194   13.6330    6.2354 C   0  0  0  0  0  0
   12.1667   13.9008    6.0030 C   0  0  0  0  0  0
   13.7464   12.0330    2.4681 N   0  0  0  0  0  0
    8.2568   13.3259    5.4889 Cl  0  0  0  0  0  0
    9.5500   13.7152    2.8055 O   0  0  0  0  0  0
   17.2309   16.0612    5.4102 C   0  0  2  0  0  0
   18.1492   16.7736    4.3981 C   0  0  0  0  0  0
   19.5332   16.1652    4.6029 C   0  0  0  0  0  0
   19.5612   15.7706    5.9982 N   0  0  1  0  0  0
   18.2304   15.2355    6.2405 C   0  0  0  0  0  0
   18.1635   12.1409    2.2522 H   0  0  0  0  0  0
   12.1707   14.1729    2.6836 H   0  0  0  0  0  0
   10.4624   13.5018    7.2465 H   0  0  0  0  0  0
   12.8113   14.0331    6.8534 H   0  0  0  0  0  0
   12.9243   12.3264    2.9706 H   0  0  0  0  0  0
   13.7638   11.1237    2.0034 H   0  0  0  0  0  0
    9.9837   13.7001    1.9508 H   0  0  0  0  0  0
   16.7042   16.7890    6.0310 H   0  0  0  0  0  0
   17.8216   16.6483    3.3658 H   0  0  0  0  0  0
   18.1811   17.8475    4.5827 H   0  0  0  0  0  0
   19.7023   15.3155    3.9381 H   0  0  0  0  0  0
   20.3220   16.8966    4.4189 H   0  0  0  0  0  0
   20.2660   15.0582    6.1359 H   0  0  0  0  0  0
   17.9719   15.2326    7.2968 H   0  0  0  0  0  0
   18.2561   14.1992    5.9048 H   0  0  0  0  0  0
  1  2  2  0  0  0
  1  4  1  0  0  0
  2  3  1  0  0  0
  2 24  1  0  0  0
  3  6  2  0  0  0
  4  5  2  0  0  0
  4 16  1  0  0  0
  5  9  1  0  0  0
  5  6  1  0  0  0
  6  7  1  0  0  0
  7  8  1  0  0  0
  7 19  1  0  0  0
  8  9  2  0  0  0
  9 10  1  0  0  0
 10 15  1  0  0  0
 10 11  2  0  0  0
 11 12  1  0  0  0
 11 25  1  0  0  0
 12 13  2  0  0  0
 12 18  1  0  0  0
 13 14  1  0  0  0
 13 17  1  0  0  0
 14 15  2  0  0  0
 14 26  1  0  0  0
 15 27  1  0  0  0
 16 28  1  0  0  0
 16 29  1  0  0  0
 18 30  1  0  0  0
 19 20  1  0  0  0
 19 23  1  0  0  0
 19 31  1  0  0  0
 20 21  1  0  0  0
 20 32  1  0  0  0
 20 33  1  0  0  0
 21 22  1  0  0  0
 21 34  1  0  0  0
 21 35  1  0  0  0
 22 23  1  0  0  0
 22 36  1  0  0  0
 23 37  1  0  0  0
 23 38  1  0  0  0
M  END
> <s_m_entry_id>
6274

> <s_m_entry_name>
dock_pv.200

> <s_m_Source_Path>
/home/csk/Desktop/cluster/DUD-E-result/abl1

> <s_m_Source_File>
dock_pv.maegz

> <i_m_Source_File_Index>
200

> <chembl_id>
CHEMBL1241677

> <chembl_pref_name>
None

> <i_lp_mmshare_version>
53161

> <i_f3d_flags>
0

> <r_lp_tautomer_probability>
0.999999999997365

> <s_lp_Force_Field>
OPLS_2005

> <r_lp_Energy>
31.328746

> <b_lp_Chiralities_Consistent>
1

> <s_lp_Variant>
CHEMBL1862_lig490-1

> <s_i_glide_gridfile>
glide-grid_2hzi

> <i_i_glide_lignum>
580

> <i_i_glide_rotatable_bonds>
3

> <r_i_docking_score>
-9.41982253739739

> <r_i_glide_ligand_efficiency>
-0.409557501625973

> <r_i_glide_ligand_efficiency_sa>
-1.16472705400728

> <r_i_glide_ligand_efficiency_ln>
-2.27779850377108

> <r_i_glide_gscore>
-9.41982253739739

> <r_i_glide_lipo>
-3.31218689109465

> <r_i_glide_hbond>
-0.608

> <r_i_glide_metal>
0

> <r_i_glide_rewards>
-3.41966708462776

> <r_i_glide_evdw>
-22.7889747619629

> <r_i_glide_ecoul>
-7.87495422363281

> <r_i_glide_erotb>
0.240723309968084

> <r_i_glide_esite>
0

> <r_i_glide_emodel>
-36.1810391282806

> <r_i_glide_energy>
-30.6639289855957

> <r_i_glide_einternal>
2.45279669761658

> <i_i_glide_confnum>
15

> <i_i_glide_posenum>
341

> <r_i_glide_eff_state_penalty>
0

> <s_user_duplicate_titles>
CHEMBL1862_lig490

> <s_m_subgroup_title>
dock_pv

> <s_m_subgroupid>
dock_pv

> <b_m_subgroup_collapsed>
0

$$$$
CHEMBL1862_lig562
                    3D
 Schrodinger Suite 2021-1.
 32 35  0  0  1  0            999 V2000
   13.5510   14.6772    4.4022 C   0  0  0  0  0  0
   12.9432   13.6097    3.7401 C   0  0  0  0  0  0
   13.7333   12.7011    3.0340 C   0  0  0  0  0  0
   14.8911   14.9051    4.4245 N   0  0  0  0  0  0
   15.6494   14.0329    3.7535 C   0  0  0  0  0  0
   15.1210   12.9161    3.0328 C   0  0  0  0  0  0
   16.0989   12.1828    2.4249 N   0  0  0  0  0  0
   17.2230   12.8163    2.8042 N   0  0  0  0  0  0
   17.0563   13.9241    3.6026 C   0  0  0  0  0  0
   18.1653   14.6677    4.1090 C   0  0  0  0  0  0
   18.6213   15.7944    3.4760 N   0  0  0  0  0  0
   18.9639   14.4364    5.2089 C   0  0  0  0  0  0
   19.9887   15.4300    5.2205 C   0  0  0  0  0  0
   19.7358   16.2903    4.1156 C   0  0  0  0  0  0
   20.5411   17.3914    3.8289 C   0  0  0  0  0  0
   21.6246   17.6325    4.6728 C   0  0  0  0  0  0
   21.8992   16.7819    5.7568 C   0  0  0  0  0  0
   21.0923   15.6835    6.0412 C   0  0  0  0  0  0
   22.3722   18.7438    4.3593 O   0  0  0  0  0  0
   23.4529   19.0946    5.2044 C   0  0  0  0  0  0
   12.9486   15.3845    4.9525 H   0  0  0  0  0  0
   11.8696   13.4891    3.7676 H   0  0  0  0  0  0
   13.2963   11.8641    2.5083 H   0  0  0  0  0  0
   18.1319   12.4841    2.5075 H   0  0  0  0  0  0
   18.1841   16.1569    2.6424 H   0  0  0  0  0  0
   18.8503   13.6323    5.9116 H   0  0  0  0  0  0
   20.3479   18.0327    2.9821 H   0  0  0  0  0  0
   22.7509   16.9558    6.3983 H   0  0  0  0  0  0
   21.3204   15.0374    6.8748 H   0  0  0  0  0  0
   23.8645   20.0331    4.8476 H   0  0  0  0  0  0
   24.2391   18.3438    5.1879 H   0  0  0  0  0  0
   23.1290   19.2329    6.2351 H   0  0  0  0  0  0
  1  2  1  0  0  0
  1 21  1  0  0  0
  1  4  2  0  0  0
  2  3  2  0  0  0
  2 22  1  0  0  0
  3 23  1  0  0  0
  3  6  1  0  0  0
  4  5  1  0  0  0
  5  9  2  0  0  0
  5  6  1  0  0  0
  6  7  2  0  0  0
  7  8  1  0  0  0
  8  9  1  0  0  0
  8 24  1  0  0  0
  9 10  1  0  0  0
 10 11  1  0  0  0
 10 12  2  0  0  0
 11 14  1  0  0  0
 11 25  1  0  0  0
 12 13  1  0  0  0
 12 26  1  0  0  0
 13 14  2  0  0  0
 13 18  1  0  0  0
 14 15  1  0  0  0
 15 16  2  0  0  0
 15 27  1  0  0  0
 16 17  1  0  0  0
 16 19  1  0  0  0
 17 18  2  0  0  0
 17 28  1  0  0  0
 18 29  1  0  0  0
 19 20  1  0  0  0
 20 30  1  0  0  0
 20 31  1  0  0  0
 20 32  1  0  0  0
M  END
> <s_m_entry_id>
6275

> <s_m_entry_name>
dock_pv.201

> <s_m_Source_Path>
/home/csk/Desktop/cluster/DUD-E-result/abl1

> <s_m_Source_File>
dock_pv.maegz

> <i_m_Source_File_Index>
201

> <chembl_id>
CHEMBL1288582

> <chembl_pref_name>
None

> <i_lp_mmshare_version>
53161

> <i_f3d_flags>
0

> <r_lp_tautomer_probability>
0.0209195755334446

> <s_lp_Force_Field>
OPLS_2005

> <r_lp_Energy>
26.133197

> <b_lp_Chiralities_Consistent>
1

> <s_lp_Variant>
CHEMBL1862_lig562-2

> <s_i_glide_gridfile>
glide-grid_2hzi

> <i_i_glide_lignum>
668

> <i_i_glide_rotatable_bonds>
2

> <r_i_docking_score>
-9.41704750997359

> <r_i_glide_ligand_efficiency>
-0.47085237549868

> <r_i_glide_ligand_efficiency_sa>
-1.2780899815929

> <r_i_glide_ligand_efficiency_ln>
-2.35677639673231

> <r_i_glide_gscore>
-9.41704750997359

> <r_i_glide_lipo>
-3.99611855670373

> <r_i_glide_hbond>
-0.32

> <r_i_glide_metal>
0

> <r_i_glide_rewards>
-2.91882204062338

> <r_i_glide_evdw>
-42.6646499633789

> <r_i_glide_ecoul>
-2.02239084243774

> <r_i_glide_erotb>
0.254484211888124

> <r_i_glide_esite>
0

> <r_i_glide_emodel>
-65.0466803307322

> <r_i_glide_energy>
-44.6870408058167

> <r_i_glide_einternal>
9.00683498382568

> <i_i_glide_confnum>
1

> <i_i_glide_posenum>
119

> <r_i_glide_eff_state_penalty>
0

> <s_user_duplicate_titles>
CHEMBL1862_lig562,CHEMBL1862_lig562

> <s_m_subgroup_title>
dock_pv

> <s_m_subgroupid>
dock_pv

> <b_m_subgroup_collapsed>
0

$$$$
CHEMBL1862_lig837
                    3D
 Schrodinger Suite 2021-1.
 33 35  0  0  1  0            999 V2000
   16.6968   14.8292    4.0887 C   0  0  0  0  0  0
   17.9345   14.2702    3.7309 C   0  0  0  0  0  0
   17.9451   13.0323    3.0839 C   0  0  0  0  0  0
   16.8450   12.3145    2.7370 N   0  0  0  0  0  0
   15.5282   14.1171    3.7626 C   0  0  0  0  0  0
   15.6842   12.8751    3.0813 C   0  0  0  0  0  0
   14.4253   12.3677    2.8494 N   0  0  0  0  0  0
   13.4798   13.2301    3.3583 C   0  0  0  0  0  0
   14.1197   14.3110    3.9495 C   0  0  0  0  0  0
   12.0571   12.9210    3.2033 C   0  0  0  0  0  0
   19.1713   14.8781    4.0052 N   0  0  0  0  0  0
   19.2475   16.1579    4.7072 C   0  0  0  0  0  0
   11.8360   11.8446    2.4060 O   0  0  0  0  0  0
   20.6693   16.5502    5.0684 C   0  0  0  0  0  0
   10.5143   11.4107    2.1122 C   0  0  0  0  0  0
   11.1733   13.6083    3.7232 O   0  0  0  0  0  0
   21.3841   17.6896    4.6689 C   0  0  0  0  0  0
   22.6138   17.6145    5.2967 C   0  0  0  0  0  0
   22.5639   16.4447    6.0036 N   0  0  0  0  0  0
   21.3970   15.8010    5.8760 N   0  0  0  0  0  0
   16.6330   15.7632    4.6211 H   0  0  0  0  0  0
   18.8847   12.5841    2.8037 H   0  0  0  0  0  0
   14.1676   11.4959    2.4005 H   0  0  0  0  0  0
   13.6232   15.1403    4.4318 H   0  0  0  0  0  0
   19.9260   14.6983    3.3495 H   0  0  0  0  0  0
   18.7906   16.9254    4.0786 H   0  0  0  0  0  0
   18.6603   16.1081    5.6267 H   0  0  0  0  0  0
   10.5459   10.4783    1.5451 H   0  0  0  0  0  0
    9.9813   12.1554    1.5183 H   0  0  0  0  0  0
    9.9460   11.2317    3.0277 H   0  0  0  0  0  0
   21.0387   18.4688    4.0068 H   0  0  0  0  0  0
   23.4892   18.2503    5.2961 H   0  0  0  0  0  0
   23.3194   16.0761    6.5657 H   0  0  0  0  0  0
  1  5  1  0  0  0
  1  2  2  0  0  0
  1 21  1  0  0  0
  2  3  1  0  0  0
  2 11  1  0  0  0
  3  4  2  0  0  0
  3 22  1  0  0  0
  4  6  1  0  0  0
  5  6  2  0  0  0
  5  9  1  0  0  0
  6  7  1  0  0  0
  7  8  1  0  0  0
  7 23  1  0  0  0
  8  9  2  0  0  0
  8 10  1  0  0  0
  9 24  1  0  0  0
 10 13  1  0  0  0
 10 16  2  0  0  0
 11 12  1  0  0  0
 11 25  1  0  0  0
 12 14  1  0  0  0
 12 26  1  0  0  0
 12 27  1  0  0  0
 13 15  1  0  0  0
 14 17  1  0  0  0
 14 20  2  0  0  0
 15 28  1  0  0  0
 15 29  1  0  0  0
 15 30  1  0  0  0
 17 18  2  0  0  0
 17 31  1  0  0  0
 18 19  1  0  0  0
 18 32  1  0  0  0
 19 20  1  0  0  0
 19 33  1  0  0  0
M  END
> <s_m_entry_id>
6276

> <s_m_entry_name>
dock_pv.202

> <s_m_Source_Path>
/home/csk/Desktop/cluster/DUD-E-result/abl1

> <s_m_Source_File>
dock_pv.maegz

> <i_m_Source_File_Index>
202

> <chembl_id>
CHEMBL3347390

> <chembl_pref_name>
None

> <i_lp_mmshare_version>
53161

> <i_f3d_flags>
0

> <r_lp_tautomer_probability>
0.5

> <s_lp_Force_Field>
OPLS_2005

> <r_lp_Energy>
8.345391

> <b_lp_Chiralities_Consistent>
1

> <s_lp_Variant>
CHEMBL1862_lig837-1

> <s_i_glide_gridfile>
glide-grid_2hzi

> <i_i_glide_lignum>
975

> <i_i_glide_rotatable_bonds>
5

> <r_i_docking_score>
-9.39949773800931

> <r_i_glide_ligand_efficiency>
-0.469974886900465

> <r_i_glide_ligand_efficiency_sa>
-1.27570811108593

> <r_i_glide_ligand_efficiency_ln>
-2.35238426763987

> <r_i_glide_gscore>
-9.39949773800931

> <r_i_glide_lipo>
-3.09180364119407

> <r_i_glide_hbond>
-0.539188371315159

> <r_i_glide_metal>
0

> <r_i_glide_rewards>
-3.25311230194862

> <r_i_glide_evdw>
-43.4425239562988

> <r_i_glide_ecoul>
-6.82920694351196

> <r_i_glide_erotb>
0.681113815790282

> <r_i_glide_esite>
0

> <r_i_glide_emodel>
-77.8528224111956

> <r_i_glide_energy>
-50.2717308998108

> <r_i_glide_einternal>
1.18051540851593

> <i_i_glide_confnum>
1

> <i_i_glide_posenum>
187

> <r_i_glide_eff_state_penalty>
0

> <s_user_duplicate_titles>
CHEMBL1862_lig837,CHEMBL1862_lig837

> <s_m_subgroup_title>
dock_pv

> <s_m_subgroupid>
dock_pv

> <b_m_subgroup_collapsed>
0

$$$$
CHEMBL1862_lig742
                    3D
 Schrodinger Suite 2021-1.
 40 42  0  0  1  0            999 V2000
   18.4292   15.8726    4.8230 C   0  0  0  0  0  0
   17.5151   16.3984    5.7485 C   0  0  0  0  0  0
   16.1643   16.0330    5.7559 C   0  0  0  0  0  0
   18.0069   14.9339    3.8676 C   0  0  0  0  0  0
   16.6521   14.5682    3.8904 C   0  0  0  0  0  0
   15.7318   15.1060    4.8032 C   0  0  0  0  0  0
   14.5004   14.5658    4.5950 N   0  0  0  0  0  0
   14.7052   13.7072    3.6130 C   0  0  0  0  0  0
   15.9848   13.6635    3.1175 O   0  0  0  0  0  0
   13.8193   12.8329    3.0062 N   0  0  0  0  0  0
   12.4844   12.8327    3.1952 C   0  0  0  0  0  0
   11.8798   11.9266    2.4039 N   0  0  0  0  0  0
   11.8735   13.5821    3.9576 O   0  0  0  0  0  0
   10.4307   11.7381    2.2983 C   0  0  0  0  0  0
    9.9424   11.5865    0.8522 C   0  0  0  0  0  0
   19.8408   16.3313    4.8587 C   0  0  0  0  0  0
   20.3544   17.1587    3.8470 C   0  0  0  0  0  0
   21.6734   17.6354    3.9483 C   0  0  0  0  0  0
   22.4813   17.2689    5.0237 C   0  0  0  0  0  0
   21.9837   16.4157    6.0037 C   0  0  0  0  0  0
   20.6682   15.9557    5.9259 C   0  0  0  0  0  0
   19.5171   17.5091    2.8069 O   0  0  0  0  0  0
   20.0887   17.6210    1.5122 C   0  0  0  0  0  0
   17.8592   17.1211    6.4751 H   0  0  0  0  0  0
   15.4735   16.4333    6.4833 H   0  0  0  0  0  0
   18.6962   14.5122    3.1485 H   0  0  0  0  0  0
   14.2096   12.1979    2.3307 H   0  0  0  0  0  0
   12.4444   11.1854    2.0097 H   0  0  0  0  0  0
    9.8748   12.5494    2.7768 H   0  0  0  0  0  0
   10.1643   10.8336    2.8423 H   0  0  0  0  0  0
    8.8541   11.5089    0.8302 H   0  0  0  0  0  0
   10.3277   10.6687    0.4031 H   0  0  0  0  0  0
   10.2242   12.4329    0.2269 H   0  0  0  0  0  0
   22.0844   18.3004    3.2042 H   0  0  0  0  0  0
   23.4950   17.6371    5.0922 H   0  0  0  0  0  0
   22.6173   16.1196    6.8269 H   0  0  0  0  0  0
   20.2895   15.3058    6.7020 H   0  0  0  0  0  0
   19.2883   17.8212    0.8041 H   0  0  0  0  0  0
   20.8100   18.4329    1.4375 H   0  0  0  0  0  0
   20.5656   16.6891    1.2080 H   0  0  0  0  0  0
  1  2  2  0  0  0
  1  4  1  0  0  0
  1 16  1  0  0  0
  2  3  1  0  0  0
  2 24  1  0  0  0
  3  6  2  0  0  0
  3 25  1  0  0  0
  4  5  2  0  0  0
  4 26  1  0  0  0
  5  6  1  0  0  0
  5  9  1  0  0  0
  6  7  1  0  0  0
  7  8  2  0  0  0
  8  9  1  0  0  0
  8 10  1  0  0  0
 10 11  1  0  0  0
 10 27  1  0  0  0
 11 12  1  0  0  0
 11 13  2  0  0  0
 12 14  1  0  0  0
 12 28  1  0  0  0
 14 15  1  0  0  0
 14 29  1  0  0  0
 14 30  1  0  0  0
 15 31  1  0  0  0
 15 32  1  0  0  0
 15 33  1  0  0  0
 16 17  2  0  0  0
 16 21  1  0  0  0
 17 18  1  0  0  0
 17 22  1  0  0  0
 18 19  2  0  0  0
 18 34  1  0  0  0
 19 20  1  0  0  0
 19 35  1  0  0  0
 20 21  2  0  0  0
 20 36  1  0  0  0
 21 37  1  0  0  0
 22 23  1  0  0  0
 23 38  1  0  0  0
 23 39  1  0  0  0
 23 40  1  0  0  0
M  END
> <s_m_entry_id>
6279

> <s_m_entry_name>
dock_pv.205

> <s_m_Source_Path>
/home/csk/Desktop/cluster/DUD-E-result/abl1

> <s_m_Source_File>
dock_pv.maegz

> <i_m_Source_File_Index>
205

> <chembl_id>
CHEMBL2347709

> <chembl_pref_name>
None

> <i_lp_mmshare_version>
53161

> <i_f3d_flags>
0

> <r_lp_tautomer_probability>
1

> <s_lp_Force_Field>
OPLS_2005

> <r_lp_Energy>
18.848085

> <b_lp_Chiralities_Consistent>
1

> <s_lp_Variant>
CHEMBL1862_lig742-1

> <s_i_glide_gridfile>
glide-grid_2hzi

> <i_i_glide_lignum>
875

> <i_i_glide_rotatable_bonds>
6

> <r_i_docking_score>
-9.37857944001383

> <r_i_glide_ligand_efficiency>
-0.407764323478862

> <r_i_glide_ligand_efficiency_sa>
-1.15962749389105

> <r_i_glide_ligand_efficiency_ln>
-2.26782554885201

> <r_i_glide_gscore>
-9.37857944001383

> <r_i_glide_lipo>
-4.25246399884564

> <r_i_glide_hbond>
-0.254162591904173

> <r_i_glide_metal>
0

> <r_i_glide_rewards>
-2.45994227940344

> <r_i_glide_evdw>
-48.3563117980957

> <r_i_glide_ecoul>
-5.06295108795166

> <r_i_glide_erotb>
0.765247683236961

> <r_i_glide_esite>
0

> <r_i_glide_emodel>
-79.7253358366111

> <r_i_glide_energy>
-53.4192628860474

> <r_i_glide_einternal>
5.31945323944092

> <i_i_glide_confnum>
16

> <i_i_glide_posenum>
325

> <r_i_glide_eff_state_penalty>
0

> <s_user_duplicate_titles>
CHEMBL1862_lig742

> <s_m_subgroup_title>
dock_pv

> <s_m_subgroupid>
dock_pv

> <b_m_subgroup_collapsed>
0

$$$$
CHEMBL1862_lig295
                    3D
 Schrodinger Suite 2021-1.
 44 47  0  0  1  0            999 V2000
   18.1933   15.6563    3.4802 C   0  0  0  0  0  0
   19.1874   16.5588    3.8853 C   0  0  0  0  0  0
   20.3324   16.8526    3.1164 C   0  0  0  0  0  0
   21.3376   17.6375    3.5512 N   0  0  0  0  0  0
   21.1756   18.1619    4.7826 C   0  0  0  0  0  0
   22.2536   18.8982    5.2366 N   0  0  0  0  0  0
   20.0910   18.0313    5.5953 N   0  0  0  0  0  0
   19.0879   17.2101    5.1465 C   0  0  0  0  0  0
   17.9318   16.9616    5.9285 C   0  0  0  0  0  0
   16.9727   16.0363    5.5071 C   0  0  0  0  0  0
   17.0883   15.3546    4.2858 C   0  0  0  0  0  0
   16.0950   14.3165    3.8318 C   0  0  0  0  0  0
   14.6429   14.5829    4.0589 C   0  0  0  0  0  0
   14.2194   15.6971    4.3787 O   0  0  0  0  0  0
   16.5186   13.1643    3.2028 C   0  0  0  0  0  0
   17.9717   12.7023    3.1407 C   0  0  0  0  0  0
   15.5197   12.1753    2.8547 C   0  0  0  0  0  0
   14.2526   12.3792    3.2217 C   0  0  0  0  0  0
   13.7900   13.5078    3.8490 N   0  0  0  0  0  0
   12.3959   13.5715    4.1334 C   0  0  0  0  0  0
   11.4558   13.1078    3.2028 C   0  0  0  0  0  0
   11.9308   14.0257    5.3715 C   0  0  0  0  0  0
   10.5644   14.0328    5.6607 C   0  0  0  0  0  0
    9.6450   13.6088    4.7081 C   0  0  0  0  0  0
   10.0836   13.1382    3.4701 C   0  0  0  0  0  0
    9.0707   12.6573    2.4387 C   0  0  0  0  0  0
    8.3945   13.7104    1.9813 F   0  0  0  0  0  0
    8.2199   11.8164    3.0201 F   0  0  0  0  0  0
    9.6433   12.0342    1.4045 F   0  0  0  0  0  0
   18.3410   15.1609    2.5378 H   0  0  0  0  0  0
   20.4587   16.4210    2.1344 H   0  0  0  0  0  0
   23.0246   19.0384    4.6057 H   0  0  0  0  0  0
   22.1724   19.4559    6.0749 H   0  0  0  0  0  0
   17.7998   17.4792    6.8661 H   0  0  0  0  0  0
   16.1309   15.8462    6.1574 H   0  0  0  0  0  0
   18.4135   12.9138    2.1696 H   0  0  0  0  0  0
   18.5658   13.1421    3.9336 H   0  0  0  0  0  0
   18.0718   11.6348    3.3290 H   0  0  0  0  0  0
   15.7839   11.2448    2.4022 H   0  0  0  0  0  0
   13.5039   11.6161    3.0581 H   0  0  0  0  0  0
   11.8021   12.7406    2.2494 H   0  0  0  0  0  0
   12.6381   14.3507    6.1211 H   0  0  0  0  0  0
   10.2063   14.3747    6.6233 H   0  0  0  0  0  0
    8.5912   13.6262    4.9433 H   0  0  0  0  0  0
  1 11  2  0  0  0
  1  2  1  0  0  0
  1 30  1  0  0  0
  2  8  2  0  0  0
  2  3  1  0  0  0
  3  4  2  0  0  0
  3 31  1  0  0  0
  4  5  1  0  0  0
  5  7  2  0  0  0
  5  6  1  0  0  0
  6 32  1  0  0  0
  6 33  1  0  0  0
  7  8  1  0  0  0
  8  9  1  0  0  0
  9 10  2  0  0  0
  9 34  1  0  0  0
 10 11  1  0  0  0
 10 35  1  0  0  0
 11 12  1  0  0  0
 12 13  1  0  0  0
 12 15  2  0  0  0
 13 19  1  0  0  0
 13 14  2  0  0  0
 15 17  1  0  0  0
 15 16  1  0  0  0
 16 36  1  0  0  0
 16 37  1  0  0  0
 16 38  1  0  0  0
 17 18  2  0  0  0
 17 39  1  0  0  0
 18 19  1  0  0  0
 18 40  1  0  0  0
 19 20  1  0  0  0
 20 21  2  0  0  0
 20 22  1  0  0  0
 21 25  1  0  0  0
 21 41  1  0  0  0
 22 23  2  0  0  0
 22 42  1  0  0  0
 23 24  1  0  0  0
 23 43  1  0  0  0
 24 25  2  0  0  0
 24 44  1  0  0  0
 25 26  1  0  0  0
 26 27  1  0  0  0
 26 28  1  0  0  0
 26 29  1  0  0  0
M  END
> <s_m_entry_id>
6280

> <s_m_entry_name>
dock_pv.206

> <s_m_Source_Path>
/home/csk/Desktop/cluster/DUD-E-result/abl1

> <s_m_Source_File>
dock_pv.maegz

> <i_m_Source_File_Index>
206

> <chembl_id>
CHEMBL504805

> <chembl_pref_name>
None

> <i_lp_mmshare_version>
53161

> <i_f3d_flags>
0

> <r_lp_tautomer_probability>
1

> <s_lp_Force_Field>
OPLS_2005

> <r_lp_Energy>
38.023559

> <b_lp_Chiralities_Consistent>
1

> <s_lp_Variant>
CHEMBL1862_lig295-1

> <s_i_glide_gridfile>
glide-grid_2hzi

> <i_i_glide_lignum>
335

> <i_i_glide_rotatable_bonds>
3

> <r_i_docking_score>
-9.36701343017318

> <r_i_glide_ligand_efficiency>
-0.32300046310942

> <r_i_glide_ligand_efficiency_sa>
-0.992359756401536

> <r_i_glide_ligand_efficiency_ln>
-2.14480854854346

> <r_i_glide_gscore>
-9.36701343017318

> <r_i_glide_lipo>
-4.58818605723399

> <r_i_glide_hbond>
-0.0264985366700825

> <r_i_glide_metal>
0

> <r_i_glide_rewards>
-2.43701557904674

> <r_i_glide_evdw>
-43.4286003112793

> <r_i_glide_ecoul>
-2.61960339546204

> <r_i_glide_erotb>
0.249057267660896

> <r_i_glide_esite>
0

> <r_i_glide_emodel>
-58.9520506273714

> <r_i_glide_energy>
-46.0482037067413

> <r_i_glide_einternal>
4.58243465423584

> <i_i_glide_confnum>
8

> <i_i_glide_posenum>
66

> <r_i_glide_eff_state_penalty>
0

> <s_user_duplicate_titles>
CHEMBL1862_lig295

> <s_m_subgroup_title>
dock_pv

> <s_m_subgroupid>
dock_pv

> <b_m_subgroup_collapsed>
0

$$$$
CHEMBL1862_lig425
                    3D
 Schrodinger Suite 2021-1.
 37 39  0  0  1  0            999 V2000
   15.7480   12.1108    2.0334 N   0  0  0  0  0  0
   14.3989   12.0330    2.0030 C   0  0  0  0  0  0
   13.4931   12.6430    2.7965 N   0  0  0  0  0  0
   16.2766   12.9726    2.9210 C   0  0  0  0  0  0
   15.4408   13.7993    3.7019 C   0  0  0  0  0  0
   14.0519   13.5304    3.6144 C   0  0  0  0  0  0
   13.4259   14.3531    4.5314 N   0  0  0  0  0  0
   14.3410   15.1547    5.1198 N   0  0  0  0  0  0
   15.5286   14.8996    4.6059 C   0  0  0  0  0  0
   16.7130   15.7547    4.9063 C   0  0  0  0  0  0
   17.7639   15.8943    3.9865 C   0  0  0  0  0  0
   18.8086   16.7828    4.2162 C   0  0  0  0  0  0
   18.8078   17.5562    5.3734 C   0  0  0  0  0  0
   17.7640   17.4300    6.2917 C   0  0  0  0  0  0
   16.7406   16.5145    6.0767 C   0  0  0  0  0  0
   17.6621   12.9367    3.0386 N   0  0  0  0  0  0
   19.8110   18.4331    5.6034 F   0  0  0  0  0  0
   19.8044   16.9178    3.2852 O   0  0  0  0  0  0
   12.0176   14.4133    4.9784 C   0  0  1  0  0  0
   11.0119   13.9554    3.8960 C   0  0  0  0  0  0
   11.8602   13.6251    6.3019 C   0  0  0  0  0  0
   10.4920   13.6330    6.8029 N   0  0  0  0  0  0
   13.9985   11.3505    1.2663 H   0  0  0  0  0  0
   17.7386   15.3916    3.0352 H   0  0  0  0  0  0
   17.7630   18.0404    7.1823 H   0  0  0  0  0  0
   15.9431   16.4333    6.8023 H   0  0  0  0  0  0
   18.1204   13.5164    3.7255 H   0  0  0  0  0  0
   18.1896   12.3091    2.4463 H   0  0  0  0  0  0
   20.4899   17.5272    3.5698 H   0  0  0  0  0  0
   11.8098   15.4654    5.1673 H   0  0  0  0  0  0
    9.9888   14.2032    4.1793 H   0  0  0  0  0  0
   11.1995   14.4330    2.9416 H   0  0  0  0  0  0
   11.0422   12.8765    3.7415 H   0  0  0  0  0  0
   12.1639   12.5891    6.1609 H   0  0  0  0  0  0
   12.5250   14.0330    7.0634 H   0  0  0  0  0  0
   10.4639   13.2329    7.7295 H   0  0  0  0  0  0
   10.1584   14.5790    6.9149 H   0  0  0  0  0  0
  1  2  2  0  0  0
  1  4  1  0  0  0
  2  3  1  0  0  0
  2 23  1  0  0  0
  3  6  2  0  0  0
  4  5  2  0  0  0
  4 16  1  0  0  0
  5  9  1  0  0  0
  5  6  1  0  0  0
  6  7  1  0  0  0
  7  8  1  0  0  0
  7 19  1  0  0  0
  8  9  2  0  0  0
  9 10  1  0  0  0
 10 11  2  0  0  0
 10 15  1  0  0  0
 11 12  1  0  0  0
 11 24  1  0  0  0
 12 13  2  0  0  0
 12 18  1  0  0  0
 13 14  1  0  0  0
 13 17  1  0  0  0
 14 15  2  0  0  0
 14 25  1  0  0  0
 15 26  1  0  0  0
 16 27  1  0  0  0
 16 28  1  0  0  0
 18 29  1  0  0  0
 19 20  1  0  0  0
 19 21  1  0  0  0
 19 30  1  0  0  0
 20 31  1  0  0  0
 20 32  1  0  0  0
 20 33  1  0  0  0
 21 22  1  0  0  0
 21 34  1  0  0  0
 21 35  1  0  0  0
 22 36  1  0  0  0
 22 37  1  0  0  0
M  END
> <s_m_entry_id>
6281

> <s_m_entry_name>
dock_pv.207

> <s_m_Source_Path>
/home/csk/Desktop/cluster/DUD-E-result/abl1

> <s_m_Source_File>
dock_pv.maegz

> <i_m_Source_File_Index>
207

> <chembl_id>
CHEMBL1242468

> <chembl_pref_name>
None

> <i_lp_mmshare_version>
53161

> <i_f3d_flags>
0

> <r_lp_tautomer_probability>
0.999999999997365

> <s_lp_Force_Field>
OPLS_2005

> <r_lp_Energy>
13.083866

> <b_lp_Chiralities_Consistent>
1

> <s_lp_Variant>
CHEMBL1862_lig425-1

> <s_i_glide_gridfile>
glide-grid_2hzi

> <i_i_glide_lignum>
510

> <i_i_glide_rotatable_bonds>
4

> <r_i_docking_score>
-9.36404096670914

> <r_i_glide_ligand_efficiency>
-0.425638225759506

> <r_i_glide_ligand_efficiency_sa>
-1.19265504797966

> <r_i_glide_ligand_efficiency_ln>
-2.28891317395698

> <r_i_glide_gscore>
-9.36404096670914

> <r_i_glide_lipo>
-3.17695301438212

> <r_i_glide_hbond>
-0.398352244685826

> <r_i_glide_metal>
0

> <r_i_glide_rewards>
-4.0874477489988

> <r_i_glide_evdw>
-28.1683597564697

> <r_i_glide_ecoul>
-3.83263731002808

> <r_i_glide_erotb>
0.282025625685305

> <r_i_glide_esite>
0

> <r_i_glide_emodel>
-37.9130967023559

> <r_i_glide_energy>
-32.0009970664978

> <r_i_glide_einternal>
4.67187070846558

> <i_i_glide_confnum>
7

> <i_i_glide_posenum>
74

> <r_i_glide_eff_state_penalty>
0

> <s_user_duplicate_titles>
CHEMBL1862_lig425

> <s_m_subgroup_title>
dock_pv

> <s_m_subgroupid>
dock_pv

> <b_m_subgroup_collapsed>
0

$$$$
CHEMBL1862_lig508
                    3D
 Schrodinger Suite 2021-1.
 43 46  0  0  1  0            999 V2000
   16.0294   12.0360    2.0035 N   0  0  0  0  0  0
   14.6941   12.0708    2.2392 C   0  0  0  0  0  0
   14.0321   12.8205    3.1517 N   0  0  0  0  0  0
   16.7923   12.8831    2.7278 C   0  0  0  0  0  0
   16.2289   13.7965    3.6044 C   0  0  0  0  0  0
   14.8405   13.6572    3.8072 C   0  0  0  0  0  0
   14.5449   14.5119    4.8389 N   0  0  0  0  0  0
   15.6318   15.2874    5.1402 N   0  0  0  0  0  0
   16.6547   14.8719    4.4351 C   0  0  0  0  0  0
   18.0319   15.4435    4.5716 C   0  0  0  0  0  0
   18.8589   15.0772    5.6366 C   0  0  0  0  0  0
   20.1441   15.6035    5.7613 C   0  0  0  0  0  0
   20.6204   16.5508    4.8439 C   0  0  0  0  0  0
   19.7930   16.9124    3.7671 C   0  0  0  0  0  0
   18.5212   16.3533    3.6309 C   0  0  0  0  0  0
   18.1627   12.8323    2.5937 N   0  0  0  0  0  0
   20.9261   15.1685    6.8001 O   0  0  0  0  0  0
   21.8841   17.0737    5.0603 O   0  0  0  0  0  0
   22.3645   18.1220    4.2290 C   0  0  0  0  0  0
   13.2686   14.7757    5.5161 C   0  0  0  0  0  0
   12.3897   15.7050    4.6617 C   0  0  0  0  0  0
   11.3502   14.7788    4.0127 C   0  0  0  0  0  0
   10.9584   13.8798    5.1718 C   0  0  0  0  0  0
   12.3017   13.5763    5.8324 C   0  0  0  0  0  0
   14.0794   11.4560    1.6043 H   0  0  0  0  0  0
   18.5191   14.3674    6.3720 H   0  0  0  0  0  0
   20.1228   17.6223    3.0234 H   0  0  0  0  0  0
   17.9013   16.6387    2.7969 H   0  0  0  0  0  0
   18.7272   13.4941    3.1057 H   0  0  0  0  0  0
   18.5889   12.1842    1.9341 H   0  0  0  0  0  0
   20.5066   14.4514    7.2797 H   0  0  0  0  0  0
   23.3409   18.4376    4.5962 H   0  0  0  0  0  0
   21.7074   18.9926    4.2529 H   0  0  0  0  0  0
   22.4846   17.7899    3.1979 H   0  0  0  0  0  0
   13.7170   15.2319    6.3995 H   0  0  0  0  0  0
   11.8010   16.4326    5.2028 H   0  0  0  0  0  0
   13.0020   16.3103    4.0036 H   0  0  0  0  0  0
   10.4752   15.2701    3.6045 H   0  0  0  0  0  0
   11.8074   14.2253    3.1998 H   0  0  0  0  0  0
   10.2948   14.4053    5.8621 H   0  0  0  0  0  0
   10.4292   12.9825    4.8420 H   0  0  0  0  0  0
   12.5687   12.6235    5.3958 H   0  0  0  0  0  0
   12.1601   13.3989    6.8998 H   0  0  0  0  0  0
  1  2  2  0  0  0
  1  4  1  0  0  0
  2  3  1  0  0  0
  2 25  1  0  0  0
  3  6  2  0  0  0
  4  5  2  0  0  0
  4 16  1  0  0  0
  5  9  1  0  0  0
  5  6  1  0  0  0
  6  7  1  0  0  0
  7  8  1  0  0  0
  7 20  1  0  0  0
  8  9  2  0  0  0
  9 10  1  0  0  0
 10 15  1  0  0  0
 10 11  2  0  0  0
 11 12  1  0  0  0
 11 26  1  0  0  0
 12 13  2  0  0  0
 12 17  1  0  0  0
 13 14  1  0  0  0
 13 18  1  0  0  0
 14 15  2  0  0  0
 14 27  1  0  0  0
 15 28  1  0  0  0
 16 29  1  0  0  0
 16 30  1  0  0  0
 17 31  1  0  0  0
 18 19  1  0  0  0
 19 32  1  0  0  0
 19 33  1  0  0  0
 19 34  1  0  0  0
 20 21  1  0  0  0
 20 24  1  0  0  0
 20 35  1  0  0  0
 21 22  1  0  0  0
 21 36  1  0  0  0
 21 37  1  0  0  0
 22 23  1  0  0  0
 22 38  1  0  0  0
 22 39  1  0  0  0
 23 24  1  0  0  0
 23 40  1  0  0  0
 23 41  1  0  0  0
 24 42  1  0  0  0
 24 43  1  0  0  0
M  END
> <s_m_entry_id>
6282

> <s_m_entry_name>
dock_pv.208

> <s_m_Source_Path>
/home/csk/Desktop/cluster/DUD-E-result/abl1

> <s_m_Source_File>
dock_pv.maegz

> <i_m_Source_File_Index>
208

> <chembl_id>
CHEMBL1242201

> <chembl_pref_name>
None

> <i_lp_mmshare_version>
53161

> <i_f3d_flags>
0

> <r_lp_tautomer_probability>
0.999999999999776

> <s_lp_Force_Field>
OPLS_2005

> <r_lp_Energy>
34.149048

> <b_lp_Chiralities_Consistent>
1

> <s_lp_Variant>
CHEMBL1862_lig508-1

> <s_i_glide_gridfile>
glide-grid_2hzi

> <i_i_glide_lignum>
602

> <i_i_glide_rotatable_bonds>
4

> <r_i_docking_score>
-9.34595642202558

> <r_i_glide_ligand_efficiency>
-0.389414850917733

> <r_i_glide_ligand_efficiency_sa>
-1.12326680162491

> <r_i_glide_ligand_efficiency_ln>
-2.23691622978617

> <r_i_glide_gscore>
-9.34595642202558

> <r_i_glide_lipo>
-3.48339686482503

> <r_i_glide_hbond>
-0.601127512702987

> <r_i_glide_metal>
0

> <r_i_glide_rewards>
-3.36959922792498

> <r_i_glide_evdw>
-25.7105331420898

> <r_i_glide_ecoul>
-5.69426965713501

> <r_i_glide_erotb>
0.247834289102161

> <r_i_glide_esite>
0

> <r_i_glide_emodel>
-34.262966295009

> <r_i_glide_energy>
-31.4048027992249

> <r_i_glide_einternal>
6.72905731201172

> <i_i_glide_confnum>
50

> <i_i_glide_posenum>
379

> <r_i_glide_eff_state_penalty>
0

> <s_user_duplicate_titles>
CHEMBL1862_lig508

> <s_m_subgroup_title>
dock_pv

> <s_m_subgroupid>
dock_pv

> <b_m_subgroup_collapsed>
0

$$$$
CHEMBL1862_lig11
                    3D
 Schrodinger Suite 2021-1.
 40 42  0  0  1  0            999 V2000
   22.0823   19.2330    5.6031 F   0  0  0  0  0  0
   22.7343   18.2987    4.9206 C   0  0  0  0  0  0
   24.0246   18.4273    5.2034 F   0  0  0  0  0  0
   22.5640   18.4822    3.6113 F   0  0  0  0  0  0
   22.3096   16.9971    5.3080 O   0  0  0  0  0  0
   20.9631   16.7036    5.2479 C   0  0  0  0  0  0
   20.5379   15.5642    5.9310 C   0  0  0  0  0  0
   19.1888   15.2198    5.9445 C   0  0  0  0  0  0
   18.2717   16.0147    5.2576 C   0  0  0  0  0  0
   18.6854   17.1400    4.5603 C   0  0  0  0  0  0
   20.0246   17.4853    4.5537 C   0  0  0  0  0  0
   16.9169   15.6989    5.2452 N   0  0  0  0  0  0
   16.2817   14.7868    4.4030 C   0  0  0  0  0  0
   17.0178   14.0334    3.5430 N   0  0  0  0  0  0
   16.3320   13.1306    2.8031 C   0  0  0  0  0  0
   14.9926   12.9281    2.8434 N   0  0  0  0  0  0
   14.2638   13.7076    3.6997 C   0  0  0  0  0  0
   14.9005   14.6593    4.5091 C   0  0  0  0  0  0
   12.7754   13.5156    3.7058 C   0  0  0  0  0  0
   12.1645   12.5810    2.8577 C   0  0  0  0  0  0
   10.7699   12.4329    2.8030 C   0  0  0  0  0  0
    9.9671   13.2253    3.6296 C   0  0  0  0  0  0
   10.5510   14.1350    4.5022 C   0  0  0  0  0  0
   11.9352   14.2797    4.5327 C   0  0  0  0  0  0
   10.1383   11.4600    1.8453 C   0  0  0  0  0  0
    8.9879   11.6005    1.4386 O   0  0  0  0  0  0
   10.8965   10.4332    1.4695 N   0  0  0  0  0  0
   21.2590   14.9525    6.4533 H   0  0  0  0  0  0
   18.8603   14.3386    6.4748 H   0  0  0  0  0  0
   17.9747   17.7390    4.0127 H   0  0  0  0  0  0
   20.3004   18.3691    4.0031 H   0  0  0  0  0  0
   16.3254   16.2157    5.8775 H   0  0  0  0  0  0
   16.9076   12.5189    2.1238 H   0  0  0  0  0  0
   14.3671   15.2829    5.2068 H   0  0  0  0  0  0
   12.7849   11.9849    2.2031 H   0  0  0  0  0  0
    8.8896   13.1303    3.6078 H   0  0  0  0  0  0
    9.9294   14.7382    5.1473 H   0  0  0  0  0  0
   12.3337   15.0203    5.2030 H   0  0  0  0  0  0
   10.4928    9.7098    0.8858 H   0  0  0  0  0  0
   11.8345   10.3096    1.8298 H   0  0  0  0  0  0
  1  2  1  0  0  0
  2  3  1  0  0  0
  2  4  1  0  0  0
  2  5  1  0  0  0
  5  6  1  0  0  0
  6  7  2  0  0  0
  6 11  1  0  0  0
  7  8  1  0  0  0
  7 28  1  0  0  0
  8  9  2  0  0  0
  8 29  1  0  0  0
  9 10  1  0  0  0
  9 12  1  0  0  0
 10 11  2  0  0  0
 10 30  1  0  0  0
 11 31  1  0  0  0
 12 13  1  0  0  0
 12 32  1  0  0  0
 13 14  2  0  0  0
 13 18  1  0  0  0
 14 15  1  0  0  0
 15 16  2  0  0  0
 15 33  1  0  0  0
 16 17  1  0  0  0
 17 18  2  0  0  0
 17 19  1  0  0  0
 18 34  1  0  0  0
 19 20  2  0  0  0
 19 24  1  0  0  0
 20 21  1  0  0  0
 20 35  1  0  0  0
 21 22  2  0  0  0
 21 25  1  0  0  0
 22 23  1  0  0  0
 22 36  1  0  0  0
 23 24  2  0  0  0
 23 37  1  0  0  0
 24 38  1  0  0  0
 25 26  2  0  0  0
 25 27  1  0  0  0
 27 39  1  0  0  0
 27 40  1  0  0  0
M  END
> <s_m_entry_id>
6283

> <s_m_entry_name>
dock_pv.209

> <s_m_Source_Path>
/home/csk/Desktop/cluster/DUD-E-result/abl1

> <s_m_Source_File>
dock_pv.maegz

> <i_m_Source_File_Index>
209

> <chembl_id>
CHEMBL483847

> <chembl_pref_name>
None

> <i_lp_mmshare_version>
53161

> <i_f3d_flags>
0

> <r_lp_tautomer_probability>
0.999999583200174

> <s_lp_Force_Field>
OPLS_2005

> <r_lp_Energy>
13.113181

> <b_lp_Chiralities_Consistent>
1

> <s_lp_Variant>
CHEMBL1862_lig11-1

> <s_i_glide_gridfile>
glide-grid_2hzi

> <i_i_glide_lignum>
16

> <i_i_glide_rotatable_bonds>
6

> <r_i_docking_score>
-9.29814399199905

> <r_i_glide_ligand_efficiency>
-0.344375703407372

> <r_i_glide_ligand_efficiency_sa>
-1.03312710908711

> <r_i_glide_ligand_efficiency_ln>
-2.16445462945326

> <r_i_glide_gscore>
-9.29814399199905

> <r_i_glide_lipo>
-4.12093518629275

> <r_i_glide_hbond>
-0.555553715844785

> <r_i_glide_metal>
0

> <r_i_glide_rewards>
-2.35835661182718

> <r_i_glide_evdw>
-42.3077201843262

> <r_i_glide_ecoul>
-4.14799690246582

> <r_i_glide_erotb>
0.551973977758225

> <r_i_glide_esite>
-0.0776869112063834

> <r_i_glide_emodel>
-66.9314095359664

> <r_i_glide_energy>
-46.455717086792

> <r_i_glide_einternal>
8.14592456817627

> <i_i_glide_confnum>
12

> <i_i_glide_posenum>
195

> <r_i_glide_eff_state_penalty>
0

> <s_user_duplicate_titles>
CHEMBL1862_lig11

> <s_m_subgroup_title>
dock_pv

> <s_m_subgroupid>
dock_pv

> <b_m_subgroup_collapsed>
0

$$$$
CHEMBL1862_lig758
                    3D
 Schrodinger Suite 2021-1.
 41 43  0  0  1  0            999 V2000
   18.4435   15.9165    4.8556 C   0  0  0  0  0  0
   17.5018   16.4335    5.7558 C   0  0  0  0  0  0
   16.1652   16.0324    5.7369 C   0  0  0  0  0  0
   18.0747   14.9620    3.8999 C   0  0  0  0  0  0
   16.7395   14.5504    3.8946 C   0  0  0  0  0  0
   15.7769   15.0741    4.7952 C   0  0  0  0  0  0
   14.5474   14.5102    4.5843 N   0  0  0  0  0  0
   14.7340   13.6414    3.6134 C   0  0  0  0  0  0
   16.0276   13.6374    3.1493 N   0  0  0  0  0  0
   13.8134   12.7815    3.0400 N   0  0  0  0  0  0
   12.4753   12.8330    3.1963 C   0  0  0  0  0  0
   11.8703   11.9141    2.4187 N   0  0  0  0  0  0
   11.8677   13.6306    3.9126 O   0  0  0  0  0  0
   10.4197   11.7458    2.2792 C   0  0  0  0  0  0
    9.9642   11.6086    0.8226 C   0  0  0  0  0  0
   19.8515   16.3877    4.9143 C   0  0  0  0  0  0
   20.3875   17.1935    3.8938 C   0  0  0  0  0  0
   21.7103   17.6532    4.0029 C   0  0  0  0  0  0
   22.5031   17.2857    5.0888 C   0  0  0  0  0  0
   21.9851   16.4479    6.0716 C   0  0  0  0  0  0
   20.6660   16.0109    5.9896 C   0  0  0  0  0  0
   19.5692   17.5216    2.8300 O   0  0  0  0  0  0
   20.1641   17.6055    1.5424 C   0  0  0  0  0  0
   17.8103   17.1771    6.4775 H   0  0  0  0  0  0
   15.4482   16.4336    6.4380 H   0  0  0  0  0  0
   18.8010   14.5606    3.2051 H   0  0  0  0  0  0
   16.3568   13.0420    2.4049 H   0  0  0  0  0  0
   14.1732   12.0982    2.3931 H   0  0  0  0  0  0
   12.4299   11.1478    2.0641 H   0  0  0  0  0  0
    9.8602   12.5524    2.7605 H   0  0  0  0  0  0
   10.1429   10.8343    2.8056 H   0  0  0  0  0  0
    8.8755   11.5882    0.7645 H   0  0  0  0  0  0
   10.3142   10.6653    0.4031 H   0  0  0  0  0  0
   10.3124   12.4324    0.1995 H   0  0  0  0  0  0
   22.1380   18.2995    3.2517 H   0  0  0  0  0  0
   23.5227   17.6372    5.1644 H   0  0  0  0  0  0
   22.6095   16.1427    6.9003 H   0  0  0  0  0  0
   20.2677   15.3703    6.7669 H   0  0  0  0  0  0
   19.3773   17.7558    0.8056 H   0  0  0  0  0  0
   20.8658   18.4332    1.4591 H   0  0  0  0  0  0
   20.6728   16.6780    1.2786 H   0  0  0  0  0  0
  1  2  2  0  0  0
  1  4  1  0  0  0
  1 16  1  0  0  0
  2  3  1  0  0  0
  2 24  1  0  0  0
  3  6  2  0  0  0
  3 25  1  0  0  0
  4  5  2  0  0  0
  4 26  1  0  0  0
  5  6  1  0  0  0
  5  9  1  0  0  0
  6  7  1  0  0  0
  7  8  2  0  0  0
  8  9  1  0  0  0
  8 10  1  0  0  0
  9 27  1  0  0  0
 10 11  1  0  0  0
 10 28  1  0  0  0
 11 12  1  0  0  0
 11 13  2  0  0  0
 12 14  1  0  0  0
 12 29  1  0  0  0
 14 15  1  0  0  0
 14 30  1  0  0  0
 14 31  1  0  0  0
 15 32  1  0  0  0
 15 33  1  0  0  0
 15 34  1  0  0  0
 16 17  2  0  0  0
 16 21  1  0  0  0
 17 18  1  0  0  0
 17 22  1  0  0  0
 18 19  2  0  0  0
 18 35  1  0  0  0
 19 20  1  0  0  0
 19 36  1  0  0  0
 20 21  2  0  0  0
 20 37  1  0  0  0
 21 38  1  0  0  0
 22 23  1  0  0  0
 23 39  1  0  0  0
 23 40  1  0  0  0
 23 41  1  0  0  0
M  END
> <s_m_entry_id>
6284

> <s_m_entry_name>
dock_pv.210

> <s_m_Source_Path>
/home/csk/Desktop/cluster/DUD-E-result/abl1

> <s_m_Source_File>
dock_pv.maegz

> <i_m_Source_File_Index>
210

> <chembl_id>
CHEMBL2347739

> <chembl_pref_name>
None

> <i_lp_mmshare_version>
53161

> <i_f3d_flags>
0

> <r_lp_tautomer_probability>
1

> <s_lp_Force_Field>
OPLS_2005

> <r_lp_Energy>
20.279665

> <b_lp_Chiralities_Consistent>
1

> <s_lp_Variant>
CHEMBL1862_lig758-1

> <s_i_glide_gridfile>
glide-grid_2hzi

> <i_i_glide_lignum>
891

> <i_i_glide_rotatable_bonds>
6

> <r_i_docking_score>
-9.26332403786118

> <r_i_glide_ligand_efficiency>
-0.402753219037443

> <r_i_glide_ligand_efficiency_sa>
-1.1453765794524

> <r_i_glide_ligand_efficiency_ln>
-2.23995574753329

> <r_i_glide_gscore>
-9.26332403786118

> <r_i_glide_lipo>
-3.90414345031686

> <r_i_glide_hbond>
-0.273052337468669

> <r_i_glide_metal>
0

> <r_i_glide_rewards>
-2.73694675724308

> <r_i_glide_evdw>
-48.9572525024414

> <r_i_glide_ecoul>
-4.4722466468811

> <r_i_glide_erotb>
0.769518129321665

> <r_i_glide_esite>
0

> <r_i_glide_emodel>
-79.8465024283477

> <r_i_glide_energy>
-53.4294991493225

> <r_i_glide_einternal>
5.07347011566162

> <i_i_glide_confnum>
6

> <i_i_glide_posenum>
275

> <r_i_glide_eff_state_penalty>
0

> <s_user_duplicate_titles>
CHEMBL1862_lig758

> <s_m_subgroup_title>
dock_pv

> <s_m_subgroupid>
dock_pv

> <b_m_subgroup_collapsed>
0

$$$$
CHEMBL1862_lig495
                    3D
 Schrodinger Suite 2021-1.
 44 47  0  0  1  0            999 V2000
   16.7932   12.3646    2.4030 N   0  0  0  0  0  0
   17.7659   13.0459    3.0421 C   0  0  0  0  0  0
   17.5977   14.0530    3.9249 N   0  0  0  0  0  0
   15.5207   12.6892    2.7157 C   0  0  0  0  0  0
   15.2105   13.6557    3.6865 C   0  0  0  0  0  0
   16.3245   14.3454    4.2119 C   0  0  0  0  0  0
   15.8146   15.3052    5.0739 N   0  0  0  0  0  0
   14.4808   15.1658    5.1800 N   0  0  0  0  0  0
   14.0833   14.1813    4.4049 C   0  0  0  0  0  0
   12.6426   13.7716    4.4087 C   0  0  0  0  0  0
   11.9153   13.8237    5.5996 C   0  0  0  0  0  0
   10.5342   13.6331    5.6187 C   0  0  0  0  0  0
    9.8770   13.2688    4.4386 C   0  0  0  0  0  0
   10.6172   13.0645    3.2748 C   0  0  0  0  0  0
   11.9922   13.3202    3.2648 C   0  0  0  0  0  0
   14.5453   12.0330    2.0041 N   0  0  0  0  0  0
    8.1665   13.0371    4.3972 Cl  0  0  0  0  0  0
    9.8539   13.7701    6.8012 O   0  0  0  0  0  0
   16.4395   16.3143    5.9430 C   0  0  0  0  0  0
   17.9356   16.6393    5.6895 C   0  0  2  0  0  0
   18.2306   17.0944    4.2316 C   0  0  0  0  0  0
   19.7107   17.0539    3.8577 C   0  0  0  0  0  0
   20.3546   15.7600    4.3542 C   0  0  0  0  0  0
   20.2986   15.7038    5.8099 N   0  0  2  0  0  0
   18.9209   15.5852    6.2837 C   0  0  0  0  0  0
   18.7867   12.7883    2.8029 H   0  0  0  0  0  0
   12.4420   14.0330    6.5141 H   0  0  0  0  0  0
   10.1137   12.7339    2.3800 H   0  0  0  0  0  0
   12.5574   13.2376    2.3594 H   0  0  0  0  0  0
   13.6018   12.0611    2.3551 H   0  0  0  0  0  0
   14.7962   11.3246    1.3318 H   0  0  0  0  0  0
   10.4130   14.0329    7.5363 H   0  0  0  0  0  0
   16.2986   15.9865    6.9740 H   0  0  0  0  0  0
   15.8575   17.2310    5.8386 H   0  0  0  0  0  0
   18.1659   17.5327    6.2721 H   0  0  0  0  0  0
   17.7648   18.0330    4.0025 H   0  0  0  0  0  0
   17.7644   16.4315    3.5132 H   0  0  0  0  0  0
   20.2396   17.9195    4.2587 H   0  0  0  0  0  0
   19.8172   17.1199    2.7735 H   0  0  0  0  0  0
   21.3665   15.7177    4.0078 H   0  0  0  0  0  0
   19.8810   14.8810    3.9263 H   0  0  0  0  0  0
   20.6824   16.5729    6.1522 H   0  0  0  0  0  0
   18.6025   14.5705    6.0579 H   0  0  0  0  0  0
   18.9027   15.6331    7.3688 H   0  0  0  0  0  0
  1  2  2  0  0  0
  1  4  1  0  0  0
  2  3  1  0  0  0
  2 26  1  0  0  0
  3  6  2  0  0  0
  4  5  2  0  0  0
  4 16  1  0  0  0
  5  9  1  0  0  0
  5  6  1  0  0  0
  6  7  1  0  0  0
  7  8  1  0  0  0
  7 19  1  0  0  0
  8  9  2  0  0  0
  9 10  1  0  0  0
 10 15  1  0  0  0
 10 11  2  0  0  0
 11 12  1  0  0  0
 11 27  1  0  0  0
 12 13  2  0  0  0
 12 18  1  0  0  0
 13 14  1  0  0  0
 13 17  1  0  0  0
 14 15  2  0  0  0
 14 28  1  0  0  0
 15 29  1  0  0  0
 16 30  1  0  0  0
 16 31  1  0  0  0
 18 32  1  0  0  0
 19 20  1  0  0  0
 19 33  1  0  0  0
 19 34  1  0  0  0
 20 21  1  0  0  0
 20 25  1  0  0  0
 20 35  1  0  0  0
 21 22  1  0  0  0
 21 36  1  0  0  0
 21 37  1  0  0  0
 22 23  1  0  0  0
 22 38  1  0  0  0
 22 39  1  0  0  0
 23 24  1  0  0  0
 23 40  1  0  0  0
 23 41  1  0  0  0
 24 25  1  0  0  0
 24 42  1  0  0  0
 25 43  1  0  0  0
 25 44  1  0  0  0
M  END
> <s_m_entry_id>
6285

> <s_m_entry_name>
dock_pv.211

> <s_m_Source_Path>
/home/csk/Desktop/cluster/DUD-E-result/abl1

> <s_m_Source_File>
dock_pv.maegz

> <i_m_Source_File_Index>
211

> <chembl_id>
CHEMBL1241858

> <chembl_pref_name>
None

> <i_lp_mmshare_version>
53161

> <i_f3d_flags>
0

> <r_lp_tautomer_probability>
0.999999999997365

> <s_lp_Force_Field>
OPLS_2005

> <r_lp_Energy>
19.019317

> <b_lp_Chiralities_Consistent>
1

> <s_lp_Variant>
CHEMBL1862_lig495-1

> <s_i_glide_gridfile>
glide-grid_2hzi

> <i_i_glide_lignum>
587

> <i_i_glide_rotatable_bonds>
4

> <r_i_docking_score>
-9.26029517534367

> <r_i_glide_ligand_efficiency>
-0.370411807013747

> <r_i_glide_ligand_efficiency_sa>
-1.08309069298957

> <r_i_glide_ligand_efficiency_ln>
-2.19496746520928

> <r_i_glide_gscore>
-9.26029517534367

> <r_i_glide_lipo>
-3.83625432497456

> <r_i_glide_hbond>
-0.236986317898942

> <r_i_glide_metal>
0

> <r_i_glide_rewards>
-3.38175862138167

> <r_i_glide_evdw>
-33.7817115783691

> <r_i_glide_ecoul>
-3.75096344947815

> <r_i_glide_erotb>
0.44643418525167

> <r_i_glide_esite>
0

> <r_i_glide_emodel>
-40.8249801045433

> <r_i_glide_energy>
-37.5326750278473

> <r_i_glide_einternal>
7.24936771392822

> <i_i_glide_confnum>
48

> <i_i_glide_posenum>
141

> <r_i_glide_eff_state_penalty>
0

> <s_user_duplicate_titles>
CHEMBL1862_lig495

> <s_m_subgroup_title>
dock_pv

> <s_m_subgroupid>
dock_pv

> <b_m_subgroup_collapsed>
0

$$$$
CHEMBL1862_lig422
                    3D
 Schrodinger Suite 2021-1.
 39 42  0  0  1  0            999 V2000
   15.7675   12.1201    2.0030 N   0  0  0  0  0  0
   14.4232   12.0328    2.0028 C   0  0  0  0  0  0
   13.5444   12.6876    2.7897 N   0  0  0  0  0  0
   16.3249   13.0062    2.8478 C   0  0  0  0  0  0
   15.5268   13.8034    3.7012 C   0  0  0  0  0  0
   14.1287   13.5658    3.6029 C   0  0  0  0  0  0
   13.5131   14.4093    4.5011 N   0  0  0  0  0  0
   14.4563   15.1561    5.1469 N   0  0  0  0  0  0
   15.6612   14.8328    4.7022 C   0  0  0  0  0  0
   16.9338   15.5049    5.1906 C   0  0  0  0  0  0
   16.9519   16.8329    5.6338 C   0  0  0  0  0  0
   18.1639   17.4989    5.8792 C   0  0  0  0  0  0
   19.3744   16.8540    5.6029 C   0  0  0  0  0  0
   19.3734   15.5017    5.2944 C   0  0  0  0  0  0
   18.1646   14.8338    5.1424 C   0  0  0  0  0  0
   17.7108   13.0445    2.8030 N   0  0  0  0  0  0
   21.0393   17.7809    5.6619 Br  0  0  0  0  0  0
   18.1806   18.7716    6.4027 O   0  0  0  0  0  0
   12.0878   14.4879    4.9186 C   0  0  0  0  0  0
   10.9460   14.0539    3.9528 C   0  0  0  0  0  0
    9.7607   13.6292    4.8373 C   0  0  0  0  0  0
   10.2744   13.6312    6.2773 C   0  0  0  0  0  0
   11.7994   13.6324    6.1532 C   0  0  0  0  0  0
   14.0037   11.3440    1.2829 H   0  0  0  0  0  0
   16.0135   17.3503    5.7618 H   0  0  0  0  0  0
   20.3069   14.9713    5.1701 H   0  0  0  0  0  0
   18.1987   13.7697    4.9991 H   0  0  0  0  0  0
   18.2020   13.7650    3.3092 H   0  0  0  0  0  0
   18.1958   12.4401    2.1519 H   0  0  0  0  0  0
   17.3190   19.1679    6.5292 H   0  0  0  0  0  0
   11.9309   15.5299    5.1989 H   0  0  0  0  0  0
   10.5909   14.8334    3.2748 H   0  0  0  0  0  0
   11.2123   13.1829    3.3638 H   0  0  0  0  0  0
    8.9173   14.3137    4.7322 H   0  0  0  0  0  0
    9.3987   12.6410    4.5494 H   0  0  0  0  0  0
    9.9326   14.5295    6.7929 H   0  0  0  0  0  0
    9.9021   12.7853    6.8527 H   0  0  0  0  0  0
   12.1640   12.6181    6.0023 H   0  0  0  0  0  0
   12.2847   14.0180    7.0482 H   0  0  0  0  0  0
  1  2  2  0  0  0
  1  4  1  0  0  0
  2  3  1  0  0  0
  2 24  1  0  0  0
  3  6  2  0  0  0
  4  5  2  0  0  0
  4 16  1  0  0  0
  5  9  1  0  0  0
  5  6  1  0  0  0
  6  7  1  0  0  0
  7  8  1  0  0  0
  7 19  1  0  0  0
  8  9  2  0  0  0
  9 10  1  0  0  0
 10 15  1  0  0  0
 10 11  2  0  0  0
 11 12  1  0  0  0
 11 25  1  0  0  0
 12 13  2  0  0  0
 12 18  1  0  0  0
 13 14  1  0  0  0
 13 17  1  0  0  0
 14 15  2  0  0  0
 14 26  1  0  0  0
 15 27  1  0  0  0
 16 28  1  0  0  0
 16 29  1  0  0  0
 18 30  1  0  0  0
 19 20  1  0  0  0
 19 23  1  0  0  0
 19 31  1  0  0  0
 20 21  1  0  0  0
 20 32  1  0  0  0
 20 33  1  0  0  0
 21 22  1  0  0  0
 21 34  1  0  0  0
 21 35  1  0  0  0
 22 23  1  0  0  0
 22 36  1  0  0  0
 22 37  1  0  0  0
 23 38  1  0  0  0
 23 39  1  0  0  0
M  END
> <s_m_entry_id>
6286

> <s_m_entry_name>
dock_pv.212

> <s_m_Source_Path>
/home/csk/Desktop/cluster/DUD-E-result/abl1

> <s_m_Source_File>
dock_pv.maegz

> <i_m_Source_File_Index>
212

> <chembl_id>
CHEMBL1242376

> <chembl_pref_name>
None

> <i_lp_mmshare_version>
53161

> <i_f3d_flags>
0

> <r_lp_tautomer_probability>
0.999999999997365

> <s_lp_Force_Field>
OPLS_2005

> <r_lp_Energy>
30.874157

> <b_lp_Chiralities_Consistent>
1

> <s_lp_Variant>
CHEMBL1862_lig422-1

> <s_i_glide_gridfile>
glide-grid_2hzi

> <i_i_glide_lignum>
507

> <i_i_glide_rotatable_bonds>
3

> <r_i_docking_score>
-9.25857704015086

> <r_i_glide_ligand_efficiency>
-0.402546827832646

> <r_i_glide_ligand_efficiency_sa>
-1.14478963032076

> <r_i_glide_ligand_efficiency_ln>
-2.23880788044354

> <r_i_glide_gscore>
-9.25857704015086

> <r_i_glide_lipo>
-3.6952651535834

> <r_i_glide_hbond>
-0.493796154775615

> <r_i_glide_metal>
0

> <r_i_glide_rewards>
-3.1635227327111

> <r_i_glide_evdw>
-28.1427116394043

> <r_i_glide_ecoul>
-4.61415719985962

> <r_i_glide_erotb>
0.193266162868409

> <r_i_glide_esite>
0

> <r_i_glide_emodel>
-32.7819442434694

> <r_i_glide_energy>
-32.7568688392639

> <r_i_glide_einternal>
11.2136125564575

> <i_i_glide_confnum>
27

> <i_i_glide_posenum>
142

> <r_i_glide_eff_state_penalty>
0

> <s_user_duplicate_titles>
CHEMBL1862_lig422

> <s_m_subgroup_title>
dock_pv

> <s_m_subgroupid>
dock_pv

> <b_m_subgroup_collapsed>
0

$$$$
CHEMBL1862_lig491
                    3D
 Schrodinger Suite 2021-1.
 37 40  0  0  1  0            999 V2000
   15.9966   12.0539    2.0030 N   0  0  0  0  0  0
   14.6491   12.0330    2.0030 C   0  0  0  0  0  0
   13.7990   12.7336    2.7816 N   0  0  0  0  0  0
   16.5959   12.9265    2.8305 C   0  0  0  0  0  0
   15.8337   13.7855    3.6519 C   0  0  0  0  0  0
   14.4265   13.6079    3.5649 C   0  0  0  0  0  0
   13.8506   14.5101    4.4277 N   0  0  0  0  0  0
   14.8269   15.2205    5.0616 N   0  0  0  0  0  0
   16.0149   14.8342    4.6191 C   0  0  0  0  0  0
   17.3153   15.4632    5.0788 C   0  0  0  0  0  0
   17.3498   16.8099    5.4456 C   0  0  0  0  0  0
   18.5640   17.4853    5.6030 C   0  0  0  0  0  0
   19.7735   16.8008    5.4454 C   0  0  0  0  0  0
   19.7537   15.4296    5.2240 C   0  0  0  0  0  0
   18.5362   14.7711    5.0703 C   0  0  0  0  0  0
   17.9816   12.8928    2.8030 N   0  0  0  0  0  0
   21.2969   17.6079    5.6021 Cl  0  0  0  0  0  0
   18.5698   18.7959    6.0030 O   0  0  0  0  0  0
   12.4446   14.6199    4.8853 C   0  0  1  0  0  0
   11.2649   14.3175    3.9674 C   0  0  0  0  0  0
   10.1944   13.6330    4.8139 C   0  0  0  0  0  0
   10.7483   13.5637    6.1155 O   0  0  0  0  0  0
   12.1601   13.6330    6.0069 C   0  0  0  0  0  0
   14.2094   11.4180    1.2402 H   0  0  0  0  0  0
   16.4108   17.3132    5.6029 H   0  0  0  0  0  0
   20.6818   14.8781    5.1749 H   0  0  0  0  0  0
   18.5640   13.7016    4.9671 H   0  0  0  0  0  0
   18.5005   13.6181    3.2728 H   0  0  0  0  0  0
   18.4411   12.2628    2.1542 H   0  0  0  0  0  0
   19.4701   19.1240    6.0525 H   0  0  0  0  0  0
   12.3544   15.6544    5.2030 H   0  0  0  0  0  0
   10.8137   15.2329    3.6030 H   0  0  0  0  0  0
   11.5151   13.6787    3.1263 H   0  0  0  0  0  0
    9.2595   14.1945    4.8406 H   0  0  0  0  0  0
    9.9743   12.6344    4.4346 H   0  0  0  0  0  0
   12.5631   12.6495    5.7957 H   0  0  0  0  0  0
   12.5640   13.9567    6.9630 H   0  0  0  0  0  0
  1  2  2  0  0  0
  1  4  1  0  0  0
  2  3  1  0  0  0
  2 24  1  0  0  0
  3  6  2  0  0  0
  4  5  2  0  0  0
  4 16  1  0  0  0
  5  9  1  0  0  0
  5  6  1  0  0  0
  6  7  1  0  0  0
  7  8  1  0  0  0
  7 19  1  0  0  0
  8  9  2  0  0  0
  9 10  1  0  0  0
 10 15  1  0  0  0
 10 11  2  0  0  0
 11 12  1  0  0  0
 11 25  1  0  0  0
 12 13  2  0  0  0
 12 18  1  0  0  0
 13 14  1  0  0  0
 13 17  1  0  0  0
 14 15  2  0  0  0
 14 26  1  0  0  0
 15 27  1  0  0  0
 16 28  1  0  0  0
 16 29  1  0  0  0
 18 30  1  0  0  0
 19 20  1  0  0  0
 19 23  1  0  0  0
 19 31  1  0  0  0
 20 21  1  0  0  0
 20 32  1  0  0  0
 20 33  1  0  0  0
 21 22  1  0  0  0
 21 34  1  0  0  0
 21 35  1  0  0  0
 22 23  1  0  0  0
 23 36  1  0  0  0
 23 37  1  0  0  0
M  END
> <s_m_entry_id>
6287

> <s_m_entry_name>
dock_pv.213

> <s_m_Source_Path>
/home/csk/Desktop/cluster/DUD-E-result/abl1

> <s_m_Source_File>
dock_pv.maegz

> <i_m_Source_File_Index>
213

> <chembl_id>
CHEMBL1241678

> <chembl_pref_name>
None

> <i_lp_mmshare_version>
53161

> <i_f3d_flags>
0

> <r_lp_tautomer_probability>
0.999999999997365

> <s_lp_Force_Field>
OPLS_2005

> <r_lp_Energy>
25.617012

> <b_lp_Chiralities_Consistent>
1

> <s_lp_Variant>
CHEMBL1862_lig491-1

> <s_i_glide_gridfile>
glide-grid_2hzi

> <i_i_glide_lignum>
581

> <i_i_glide_rotatable_bonds>
3

> <r_i_docking_score>
-9.25767781050094

> <r_i_glide_ligand_efficiency>
-0.402507730891345

> <r_i_glide_ligand_efficiency_sa>
-1.1446784438205

> <r_i_glide_ligand_efficiency_ln>
-2.23859043856043

> <r_i_glide_gscore>
-9.25767781050094

> <r_i_glide_lipo>
-3.48728954244832

> <r_i_glide_hbond>
-0.608

> <r_i_glide_metal>
0

> <r_i_glide_rewards>
-3.43120771782029

> <r_i_glide_evdw>
-22.9326934814453

> <r_i_glide_ecoul>
-5.49338150024414

> <r_i_glide_erotb>
0.239461348876563

> <r_i_glide_esite>
0

> <r_i_glide_emodel>
-28.5470332960078

> <r_i_glide_energy>
-28.4260749816895

> <r_i_glide_einternal>
2.85697460174561

> <i_i_glide_confnum>
29

> <i_i_glide_posenum>
203

> <r_i_glide_eff_state_penalty>
0

> <s_user_duplicate_titles>
CHEMBL1862_lig491

> <s_m_subgroup_title>
dock_pv

> <s_m_subgroupid>
dock_pv

> <b_m_subgroup_collapsed>
0

$$$$
CHEMBL1862_lig511
                    3D
 Schrodinger Suite 2021-1.
 42 45  0  0  1  0            999 V2000
   16.5745   12.2004    2.1513 N   0  0  0  0  0  0
   15.2281   12.1222    2.2437 C   0  0  0  0  0  0
   14.4290   12.8316    3.0648 N   0  0  0  0  0  0
   17.1927   13.1384    2.9036 C   0  0  0  0  0  0
   16.4796   13.9655    3.7738 C   0  0  0  0  0  0
   15.1033   13.6940    3.8335 C   0  0  0  0  0  0
   14.6327   14.4328    4.8898 N   0  0  0  0  0  0
   15.5702   15.3230    5.3120 N   0  0  0  0  0  0
   16.7041   15.0295    4.7058 C   0  0  0  0  0  0
   18.0045   15.6921    5.0341 C   0  0  0  0  0  0
   19.0859   14.9554    5.5257 C   0  0  0  0  0  0
   20.3174   15.5733    5.7672 C   0  0  0  0  0  0
   20.5071   16.9345    5.4899 C   0  0  0  0  0  0
   19.4132   17.6717    5.0101 C   0  0  0  0  0  0
   18.1803   17.0544    4.8005 C   0  0  0  0  0  0
   18.5641   13.2097    2.8030 N   0  0  0  0  0  0
   21.3489   14.8327    6.2787 O   0  0  0  0  0  0
   21.7659   17.4705    5.7100 O   0  0  0  0  0  0
   22.0229   18.8332    5.3896 C   0  0  0  0  0  0
   13.2571   14.4886    5.3846 C   0  0  2  0  0  0
   12.4398   13.1934    5.3871 C   0  0  0  0  0  0
   11.2433   13.4068    4.4740 C   0  0  0  0  0  0
   11.0905   14.8330    4.4031 N   0  0  1  0  0  0
   12.4503   15.3670    4.4631 C   0  0  0  0  0  0
   14.7316   11.4071    1.6033 H   0  0  0  0  0  0
   18.9640   13.9004    5.7230 H   0  0  0  0  0  0
   19.5014   18.7230    4.7860 H   0  0  0  0  0  0
   17.3640   17.6330    4.4110 H   0  0  0  0  0  0
   19.0757   13.9481    3.2633 H   0  0  0  0  0  0
   19.0113   12.5698    2.1549 H   0  0  0  0  0  0
   21.2003   13.8860    6.2496 H   0  0  0  0  0  0
   23.0703   19.0592    5.5906 H   0  0  0  0  0  0
   21.4214   19.5038    6.0030 H   0  0  0  0  0  0
   21.8370   19.0428    4.3351 H   0  0  0  0  0  0
   13.3640   14.8330    6.4030 H   0  0  0  0  0  0
   12.9640   12.3503    4.9635 H   0  0  0  0  0  0
   12.1232   12.9268    6.3966 H   0  0  0  0  0  0
   11.4075   12.9719    3.4855 H   0  0  0  0  0  0
   10.3341   12.9670    4.8872 H   0  0  0  0  0  0
   10.6513   15.0763    3.5272 H   0  0  0  0  0  0
   12.4930   16.4246    4.7221 H   0  0  0  0  0  0
   12.9640   15.2330    3.5086 H   0  0  0  0  0  0
  1  2  2  0  0  0
  1  4  1  0  0  0
  2  3  1  0  0  0
  2 25  1  0  0  0
  3  6  2  0  0  0
  4  5  2  0  0  0
  4 16  1  0  0  0
  5  9  1  0  0  0
  5  6  1  0  0  0
  6  7  1  0  0  0
  7  8  1  0  0  0
  7 20  1  0  0  0
  8  9  2  0  0  0
  9 10  1  0  0  0
 10 15  1  0  0  0
 10 11  2  0  0  0
 11 12  1  0  0  0
 11 26  1  0  0  0
 12 13  2  0  0  0
 12 17  1  0  0  0
 13 14  1  0  0  0
 13 18  1  0  0  0
 14 15  2  0  0  0
 14 27  1  0  0  0
 15 28  1  0  0  0
 16 29  1  0  0  0
 16 30  1  0  0  0
 17 31  1  0  0  0
 18 19  1  0  0  0
 19 32  1  0  0  0
 19 33  1  0  0  0
 19 34  1  0  0  0
 20 21  1  0  0  0
 20 24  1  0  0  0
 20 35  1  0  0  0
 21 22  1  0  0  0
 21 36  1  0  0  0
 21 37  1  0  0  0
 22 23  1  0  0  0
 22 38  1  0  0  0
 22 39  1  0  0  0
 23 24  1  0  0  0
 23 40  1  0  0  0
 24 41  1  0  0  0
 24 42  1  0  0  0
M  END
> <s_m_entry_id>
6288

> <s_m_entry_name>
dock_pv.214

> <s_m_Source_Path>
/home/csk/Desktop/cluster/DUD-E-result/abl1

> <s_m_Source_File>
dock_pv.maegz

> <i_m_Source_File_Index>
214

> <chembl_id>
CHEMBL1242288

> <chembl_pref_name>
None

> <i_lp_mmshare_version>
53161

> <i_f3d_flags>
0

> <r_lp_tautomer_probability>
0.999999999999776

> <s_lp_Force_Field>
OPLS_2005

> <r_lp_Energy>
34.585006

> <b_lp_Chiralities_Consistent>
1

> <s_lp_Variant>
CHEMBL1862_lig511-1

> <s_i_glide_gridfile>
glide-grid_2hzi

> <i_i_glide_lignum>
608

> <i_i_glide_rotatable_bonds>
4

> <r_i_docking_score>
-9.22606410076864

> <r_i_glide_ligand_efficiency>
-0.384419337532026

> <r_i_glide_ligand_efficiency_sa>
-1.10885724757218

> <r_i_glide_ligand_efficiency_ln>
-2.20822049580924

> <r_i_glide_gscore>
-9.22606410076864

> <r_i_glide_lipo>
-3.26363290718741

> <r_i_glide_hbond>
-0.608

> <r_i_glide_metal>
0

> <r_i_glide_rewards>
-3.64041082378726

> <r_i_glide_evdw>
-27.074197769165

> <r_i_glide_ecoul>
-4.04547882080078

> <r_i_glide_erotb>
0.246511341784412

> <r_i_glide_esite>
0

> <r_i_glide_emodel>
-28.298930750541

> <r_i_glide_energy>
-31.1196765899658

> <r_i_glide_einternal>
6.62256193161011

> <i_i_glide_confnum>
9

> <i_i_glide_posenum>
30

> <r_i_glide_eff_state_penalty>
0

> <s_user_duplicate_titles>
CHEMBL1862_lig511

> <s_m_subgroup_title>
dock_pv

> <s_m_subgroupid>
dock_pv

> <b_m_subgroup_collapsed>
0

$$$$
CHEMBL1862_lig465
                    3D
 Schrodinger Suite 2021-1.
 46 49  0  0  1  0            999 V2000
   16.1644   12.0374    2.0899 N   0  0  0  0  0  0
   14.8189   12.0482    2.2072 C   0  0  0  0  0  0
   14.0707   12.7869    3.0551 N   0  0  0  0  0  0
   16.8527   12.9253    2.8409 C   0  0  0  0  0  0
   16.1986   13.8265    3.7016 C   0  0  0  0  0  0
   14.8018   13.6270    3.7926 C   0  0  0  0  0  0
   14.3908   14.4026    4.8481 N   0  0  0  0  0  0
   15.3722   15.2553    5.2281 N   0  0  0  0  0  0
   16.4773   14.9234    4.6064 C   0  0  0  0  0  0
   17.7669   15.6370    4.9075 C   0  0  0  0  0  0
   18.9588   14.9266    4.8464 C   0  0  0  0  0  0
   20.1821   15.5772    4.8348 C   0  0  0  0  0  0
   20.2730   16.9558    5.0151 C   0  0  0  0  0  0
   19.0823   17.6748    5.2038 C   0  0  0  0  0  0
   17.8461   17.0168    5.1533 C   0  0  0  0  0  0
   18.2293   12.8337    2.7691 N   0  0  0  0  0  0
   21.2799   14.8331    4.5349 O   0  0  0  0  0  0
   21.5508   17.4830    4.9950 O   0  0  0  0  0  0
   21.7581   18.8736    5.0991 C   0  0  0  0  0  0
   22.1649   14.6237    5.6017 C   0  0  0  0  0  0
   13.0698   14.5404    5.4588 C   0  0  0  0  0  0
   12.2557   15.5762    4.6643 C   0  0  0  0  0  0
   11.1498   14.7438    4.0110 C   0  0  0  0  0  0
   10.8212   13.6676    5.0338 C   0  0  0  0  0  0
   12.1860   13.2786    5.5965 C   0  0  0  0  0  0
   14.2794   11.3892    1.5455 H   0  0  0  0  0  0
   18.9627   13.8537    4.7947 H   0  0  0  0  0  0
   19.0989   18.7411    5.3620 H   0  0  0  0  0  0
   16.9486   17.6079    5.2626 H   0  0  0  0  0  0
   18.7943   13.5559    3.1894 H   0  0  0  0  0  0
   18.6423   12.1716    2.1181 H   0  0  0  0  0  0
   22.8273   19.0791    5.1482 H   0  0  0  0  0  0
   21.3009   19.2872    5.9995 H   0  0  0  0  0  0
   21.3734   19.3537    4.2000 H   0  0  0  0  0  0
   22.9629   13.9993    5.2032 H   0  0  0  0  0  0
   22.6184   15.5392    5.9807 H   0  0  0  0  0  0
   21.6779   14.1058    6.4290 H   0  0  0  0  0  0
   13.3643   14.8331    6.4513 H   0  0  0  0  0  0
   11.7670   16.3768    5.2025 H   0  0  0  0  0  0
   12.9291   16.1266    4.0033 H   0  0  0  0  0  0
   10.2641   15.3079    3.7364 H   0  0  0  0  0  0
   11.5471   14.3174    3.0976 H   0  0  0  0  0  0
   10.1888   14.0774    5.8237 H   0  0  0  0  0  0
   10.2853   12.8305    4.5890 H   0  0  0  0  0  0
   12.5823   12.4330    5.0498 H   0  0  0  0  0  0
   12.0918   12.9654    6.6376 H   0  0  0  0  0  0
  1  2  2  0  0  0
  1  4  1  0  0  0
  2  3  1  0  0  0
  2 26  1  0  0  0
  3  6  2  0  0  0
  4  5  2  0  0  0
  4 16  1  0  0  0
  5  9  1  0  0  0
  5  6  1  0  0  0
  6  7  1  0  0  0
  7  8  1  0  0  0
  7 21  1  0  0  0
  8  9  2  0  0  0
  9 10  1  0  0  0
 10 15  1  0  0  0
 10 11  2  0  0  0
 11 12  1  0  0  0
 11 27  1  0  0  0
 12 13  2  0  0  0
 12 17  1  0  0  0
 13 14  1  0  0  0
 13 18  1  0  0  0
 14 15  2  0  0  0
 14 28  1  0  0  0
 15 29  1  0  0  0
 16 30  1  0  0  0
 16 31  1  0  0  0
 17 20  1  0  0  0
 18 19  1  0  0  0
 19 32  1  0  0  0
 19 33  1  0  0  0
 19 34  1  0  0  0
 20 35  1  0  0  0
 20 36  1  0  0  0
 20 37  1  0  0  0
 21 22  1  0  0  0
 21 25  1  0  0  0
 21 38  1  0  0  0
 22 23  1  0  0  0
 22 39  1  0  0  0
 22 40  1  0  0  0
 23 24  1  0  0  0
 23 41  1  0  0  0
 23 42  1  0  0  0
 24 25  1  0  0  0
 24 43  1  0  0  0
 24 44  1  0  0  0
 25 45  1  0  0  0
 25 46  1  0  0  0
M  END
> <s_m_entry_id>
6289

> <s_m_entry_name>
dock_pv.215

> <s_m_Source_Path>
/home/csk/Desktop/cluster/DUD-E-result/abl1

> <s_m_Source_File>
dock_pv.maegz

> <i_m_Source_File_Index>
215

> <chembl_id>
CHEMBL1240553

> <chembl_pref_name>
None

> <i_lp_mmshare_version>
53161

> <i_f3d_flags>
0

> <r_lp_tautomer_probability>
1

> <s_lp_Force_Field>
OPLS_2005

> <r_lp_Energy>
38.250703

> <b_lp_Chiralities_Consistent>
1

> <s_lp_Variant>
CHEMBL1862_lig465-1

> <s_i_glide_gridfile>
glide-grid_2hzi

> <i_i_glide_lignum>
554

> <i_i_glide_rotatable_bonds>
4

> <r_i_docking_score>
-9.22361025187221

> <r_i_glide_ligand_efficiency>
-0.368944410074888

> <r_i_glide_ligand_efficiency_sa>
-1.07879999831595

> <r_i_glide_ligand_efficiency_ln>
-2.1862720389881

> <r_i_glide_gscore>
-9.22361025187221

> <r_i_glide_lipo>
-3.34621172777995

> <r_i_glide_hbond>
-0.608

> <r_i_glide_metal>
0

> <r_i_glide_rewards>
-3.53547084105234

> <r_i_glide_evdw>
-20.5197944641113

> <r_i_glide_ecoul>
-6.25296688079834

> <r_i_glide_erotb>
0.23000707228539

> <r_i_glide_esite>
0

> <r_i_glide_emodel>
-70.2662285137385

> <r_i_glide_energy>
-26.7727613449097

> <r_i_glide_einternal>
8.87506484985352

> <i_i_glide_confnum>
51

> <i_i_glide_posenum>
45

> <r_i_glide_eff_state_penalty>
0

> <s_user_duplicate_titles>
CHEMBL1862_lig465

> <s_m_subgroup_title>
dock_pv

> <s_m_subgroupid>
dock_pv

> <b_m_subgroup_collapsed>
0

$$$$
CHEMBL1862_lig761
                    3D
 Schrodinger Suite 2021-1.
 40 42  0  0  1  0            999 V2000
   18.6115   15.9686    4.6864 C   0  0  0  0  0  0
   17.6632   16.4812    5.5814 C   0  0  0  0  0  0
   16.3399   16.0363    5.6007 C   0  0  0  0  0  0
   18.2695   14.9436    3.7930 C   0  0  0  0  0  0
   16.9458   14.4902    3.8190 C   0  0  0  0  0  0
   15.9723   15.0345    4.6943 C   0  0  0  0  0  0
   14.7532   14.4335    4.5144 N   0  0  0  0  0  0
   14.9646   13.5132    3.5994 C   0  0  0  0  0  0
   16.2593   13.5170    3.1317 N   0  0  0  0  0  0
   14.0664   12.5982    3.0744 N   0  0  0  0  0  0
   12.7230   12.6955    3.1109 C   0  0  0  0  0  0
   12.1615   11.6356    2.5015 N   0  0  0  0  0  0
   12.0889   13.6282    3.6046 O   0  0  0  0  0  0
   10.8607   11.5471    1.8344 C   0  0  0  0  0  0
    9.6476   12.0872    2.6121 C   0  0  0  0  0  0
   19.9946   16.5162    4.7047 C   0  0  0  0  0  0
   20.5004   17.3337    3.6713 C   0  0  0  0  0  0
   21.7744   17.9014    3.7927 C   0  0  0  0  0  0
   22.5642   17.6385    4.9103 C   0  0  0  0  0  0
   22.0899   16.7989    5.9145 C   0  0  0  0  0  0
   20.8140   16.2453    5.8104 C   0  0  0  0  0  0
   19.6990   17.6327    2.4123 C   0  0  0  0  0  0
   17.9574   17.2579    6.2738 H   0  0  0  0  0  0
   15.6220   16.4475    6.2966 H   0  0  0  0  0  0
   19.0036   14.5269    3.1178 H   0  0  0  0  0  0
   16.6025   12.8935    2.4186 H   0  0  0  0  0  0
   14.4566   11.8167    2.5726 H   0  0  0  0  0  0
   12.7605   10.8330    2.3709 H   0  0  0  0  0  0
   10.6877   10.4894    1.6170 H   0  0  0  0  0  0
   10.9313   12.0340    0.8615 H   0  0  0  0  0  0
    8.7232   11.8713    2.0732 H   0  0  0  0  0  0
    9.6934   13.1698    2.7348 H   0  0  0  0  0  0
    9.5637   11.6333    3.5976 H   0  0  0  0  0  0
   22.1658   18.5397    3.0138 H   0  0  0  0  0  0
   23.5504   18.0737    4.9905 H   0  0  0  0  0  0
   22.7110   16.5821    6.7723 H   0  0  0  0  0  0
   20.4513   15.6137    6.6088 H   0  0  0  0  0  0
   20.3242   18.0341    1.6157 H   0  0  0  0  0  0
   19.2438   16.7294    2.0122 H   0  0  0  0  0  0
   18.9043   18.3431    2.6369 H   0  0  0  0  0  0
  1  2  2  0  0  0
  1  4  1  0  0  0
  1 16  1  0  0  0
  2  3  1  0  0  0
  2 23  1  0  0  0
  3  6  2  0  0  0
  3 24  1  0  0  0
  4  5  2  0  0  0
  4 25  1  0  0  0
  5  6  1  0  0  0
  5  9  1  0  0  0
  6  7  1  0  0  0
  7  8  2  0  0  0
  8  9  1  0  0  0
  8 10  1  0  0  0
  9 26  1  0  0  0
 10 11  1  0  0  0
 10 27  1  0  0  0
 11 12  1  0  0  0
 11 13  2  0  0  0
 12 14  1  0  0  0
 12 28  1  0  0  0
 14 15  1  0  0  0
 14 29  1  0  0  0
 14 30  1  0  0  0
 15 31  1  0  0  0
 15 32  1  0  0  0
 15 33  1  0  0  0
 16 17  2  0  0  0
 16 21  1  0  0  0
 17 18  1  0  0  0
 17 22  1  0  0  0
 18 19  2  0  0  0
 18 34  1  0  0  0
 19 20  1  0  0  0
 19 35  1  0  0  0
 20 21  2  0  0  0
 20 36  1  0  0  0
 21 37  1  0  0  0
 22 38  1  0  0  0
 22 39  1  0  0  0
 22 40  1  0  0  0
M  END
> <s_m_entry_id>
6290

> <s_m_entry_name>
dock_pv.216

> <s_m_Source_Path>
/home/csk/Desktop/cluster/DUD-E-result/abl1

> <s_m_Source_File>
dock_pv.maegz

> <i_m_Source_File_Index>
216

> <chembl_id>
CHEMBL2347736

> <chembl_pref_name>
None

> <i_lp_mmshare_version>
53161

> <i_f3d_flags>
0

> <r_lp_tautomer_probability>
1

> <s_lp_Force_Field>
OPLS_2005

> <r_lp_Energy>
16.382389

> <b_lp_Chiralities_Consistent>
1

> <s_lp_Variant>
CHEMBL1862_lig761-1

> <s_i_glide_gridfile>
glide-grid_2hzi

> <i_i_glide_lignum>
894

> <i_i_glide_rotatable_bonds>
5

> <r_i_docking_score>
-9.19170985758704

> <r_i_glide_ligand_efficiency>
-0.417804993526684

> <r_i_glide_ligand_efficiency_sa>
-1.17070602319975

> <r_i_glide_ligand_efficiency_ln>
-2.2467891649576

> <r_i_glide_gscore>
-9.19170985758704

> <r_i_glide_lipo>
-3.89613795692508

> <r_i_glide_hbond>
-0.32

> <r_i_glide_metal>
0

> <r_i_glide_rewards>
-2.75056923138759

> <r_i_glide_evdw>
-46.2707786560059

> <r_i_glide_ecoul>
-4.95721006393433

> <r_i_glide_erotb>
0.844262621853888

> <r_i_glide_esite>
-0.0121448487378185

> <r_i_glide_emodel>
-76.9487595933925

> <r_i_glide_energy>
-51.2279887199402

> <r_i_glide_einternal>
3.33004975318909

> <i_i_glide_confnum>
5

> <i_i_glide_posenum>
116

> <r_i_glide_eff_state_penalty>
0

> <s_user_duplicate_titles>
CHEMBL1862_lig761

> <s_m_subgroup_title>
dock_pv

> <s_m_subgroupid>
dock_pv

> <b_m_subgroup_collapsed>
0

$$$$
CHEMBL1862_lig539
                    3D
 Schrodinger Suite 2021-1.
 41 45  0  0  1  0            999 V2000
   17.0320   12.1511    2.4029 N   0  0  0  0  0  0
   18.1143   12.8328    2.8392 C   0  0  0  0  0  0
   18.1283   13.9455    3.6050 N   0  0  0  0  0  0
   15.8249   12.6523    2.7362 C   0  0  0  0  0  0
   15.6900   13.7376    3.6040 C   0  0  0  0  0  0
   16.9073   14.3438    3.9796 C   0  0  0  0  0  0
   16.5805   15.3394    4.8687 N   0  0  0  0  0  0
   15.2265   15.3650    5.0735 N   0  0  0  0  0  0
   14.6593   14.4221    4.3306 C   0  0  0  0  0  0
   13.1823   14.0607    4.3823 C   0  0  0  0  0  0
   12.5116   14.0340    5.6032 C   0  0  0  0  0  0
   11.1389   13.2287    3.2859 C   0  0  0  0  0  0
   12.4768   13.6333    3.2538 C   0  0  0  0  0  0
   14.7192   12.0329    2.2024 N   0  0  0  0  0  0
   10.4411   13.3461    4.4867 C   0  0  0  0  0  0
   11.1470   13.7047    5.6673 C   0  0  0  0  0  0
   10.1645   13.6338    6.6838 C   0  0  0  0  0  0
    9.0006   13.3018    6.0395 N   0  0  0  0  0  0
    9.1101   13.1282    4.7120 N   0  0  0  0  0  0
   17.5183   16.1860    5.6445 C   0  0  0  0  0  0
   18.6518   15.3845    6.3371 C   0  0  0  0  0  0
   19.9935   15.7853    5.6949 C   0  0  0  0  0  0
   19.6549   16.6662    4.4950 C   0  0  0  0  0  0
   18.2694   17.2336    4.8016 C   0  0  0  0  0  0
   19.0822   12.4358    2.5897 H   0  0  0  0  0  0
   13.0215   14.3464    6.4961 H   0  0  0  0  0  0
   10.6446   12.8430    2.4036 H   0  0  0  0  0  0
   12.9618   13.6329    2.3010 H   0  0  0  0  0  0
   13.8164   12.2742    2.5810 H   0  0  0  0  0  0
   14.8074   11.1976    1.6414 H   0  0  0  0  0  0
   10.1750   13.8132    7.7468 H   0  0  0  0  0  0
    8.1139   13.1954    6.5092 H   0  0  0  0  0  0
   16.8602   16.6700    6.3702 H   0  0  0  0  0  0
   18.6658   15.6330    7.3922 H   0  0  0  0  0  0
   18.5329   14.3038    6.2920 H   0  0  0  0  0  0
   20.6059   16.3436    6.4038 H   0  0  0  0  0  0
   20.5756   14.9130    5.3940 H   0  0  0  0  0  0
   20.3952   17.4523    4.3387 H   0  0  0  0  0  0
   19.6325   16.0736    3.5798 H   0  0  0  0  0  0
   17.7640   17.5141    3.8838 H   0  0  0  0  0  0
   18.3794   18.1460    5.3892 H   0  0  0  0  0  0
  1  2  2  0  0  0
  1  4  1  0  0  0
  2  3  1  0  0  0
  2 25  1  0  0  0
  3  6  2  0  0  0
  4 14  1  0  0  0
  4  5  2  0  0  0
  5  9  1  0  0  0
  5  6  1  0  0  0
  6  7  1  0  0  0
  7  8  1  0  0  0
  7 20  1  0  0  0
  8  9  2  0  0  0
  9 10  1  0  0  0
 10 13  1  0  0  0
 10 11  2  0  0  0
 11 26  1  0  0  0
 11 16  1  0  0  0
 12 15  1  0  0  0
 12 27  1  0  0  0
 12 13  2  0  0  0
 13 28  1  0  0  0
 14 29  1  0  0  0
 14 30  1  0  0  0
 15 19  2  0  0  0
 15 16  1  0  0  0
 16 17  2  0  0  0
 17 18  1  0  0  0
 17 31  1  0  0  0
 18 32  1  0  0  0
 18 19  1  0  0  0
 20 21  1  0  0  0
 20 24  1  0  0  0
 20 33  1  0  0  0
 21 22  1  0  0  0
 21 34  1  0  0  0
 21 35  1  0  0  0
 22 23  1  0  0  0
 22 36  1  0  0  0
 22 37  1  0  0  0
 23 24  1  0  0  0
 23 38  1  0  0  0
 23 39  1  0  0  0
 24 40  1  0  0  0
 24 41  1  0  0  0
M  END
> <s_m_entry_id>
6291

> <s_m_entry_name>
dock_pv.217

> <s_m_Source_Path>
/home/csk/Desktop/cluster/DUD-E-result/abl1

> <s_m_Source_File>
dock_pv.maegz

> <i_m_Source_File_Index>
217

> <chembl_id>
CHEMBL1242475

> <chembl_pref_name>
None

> <i_lp_mmshare_version>
53161

> <i_f3d_flags>
0

> <r_lp_tautomer_probability>
0.0196078431372549

> <s_lp_Force_Field>
OPLS_2005

> <r_lp_Energy>
44.386759

> <b_lp_Chiralities_Consistent>
1

> <s_lp_Variant>
CHEMBL1862_lig539-2

> <s_i_glide_gridfile>
glide-grid_2hzi

> <i_i_glide_lignum>
639

> <i_i_glide_rotatable_bonds>
2

> <r_i_docking_score>
-9.18982999094424

> <r_i_glide_ligand_efficiency>
-0.38290958295601

> <r_i_glide_ligand_efficiency_sa>
-1.10450236179973

> <r_i_glide_ligand_efficiency_ln>
-2.1995480106533

> <r_i_glide_gscore>
-9.18982999094424

> <r_i_glide_lipo>
-3.97405298438868

> <r_i_glide_hbond>
-0.433255793806297

> <r_i_glide_metal>
0

> <r_i_glide_rewards>
-3.09318177785595

> <r_i_glide_evdw>
-31.4831562042236

> <r_i_glide_ecoul>
-2.47524213790894

> <r_i_glide_erotb>
0.256104696004212

> <r_i_glide_esite>
0

> <r_i_glide_emodel>
-33.5752514696707

> <r_i_glide_energy>
-33.9583983421326

> <r_i_glide_einternal>
2.75903558731079

> <i_i_glide_confnum>
50

> <i_i_glide_posenum>
136

> <r_i_glide_eff_state_penalty>
0

> <s_user_duplicate_titles>
CHEMBL1862_lig539,CHEMBL1862_lig539

> <s_m_subgroup_title>
dock_pv

> <s_m_subgroupid>
dock_pv

> <b_m_subgroup_collapsed>
0

$$$$
CHEMBL1862_lig488
                    3D
 Schrodinger Suite 2021-1.
 46 49  0  0  1  0            999 V2000
   16.1072   12.1153    2.0459 N   0  0  0  0  0  0
   14.7559   12.0320    2.0047 C   0  0  0  0  0  0
   13.8495   12.6320    2.8036 N   0  0  0  0  0  0
   16.6303   12.9942    2.9212 C   0  0  0  0  0  0
   15.7863   13.8142    3.6917 C   0  0  0  0  0  0
   14.4048   13.5204    3.6197 C   0  0  0  0  0  0
   13.7700   14.3362    4.5360 N   0  0  0  0  0  0
   14.6741   15.1690    5.1007 N   0  0  0  0  0  0
   15.8612   14.9327    4.5679 C   0  0  0  0  0  0
   17.0217   15.8434    4.7839 C   0  0  0  0  0  0
   18.0113   16.0331    3.7953 C   0  0  0  0  0  0
   18.9794   17.0411    3.9087 C   0  0  0  0  0  0
   18.9389   17.8578    5.0518 C   0  0  0  0  0  0
   17.9804   17.6469    6.0322 C   0  0  0  0  0  0
   17.0394   16.6395    5.9220 C   0  0  0  0  0  0
   18.0154   12.9928    3.0372 N   0  0  0  0  0  0
   12.3356   14.4371    4.8997 C   0  0  0  0  0  0
   11.9928   13.6313    6.1671 C   0  0  0  0  0  0
   11.4025   14.0298    3.7455 C   0  0  0  0  0  0
   19.9836   17.3109    2.7922 C   0  0  0  0  0  0
   19.6619   17.1844    1.6077 O   0  0  0  0  0  0
   21.2271   17.7488    3.1037 N   0  0  0  0  0  0
   21.9147   17.6181    4.2648 C   0  0  0  0  0  0
   21.7692   16.0859    5.2031 S   0  0  0  0  0  0
   22.5439   16.9303    6.5665 C   0  0  0  0  0  0
   23.2569   18.1447    5.9783 C   0  0  0  0  0  0
   22.6692   18.5243    4.7231 N   0  0  0  0  0  0
   14.3634   11.3301    1.2891 H   0  0  0  0  0  0
   17.9763   15.4775    2.8719 H   0  0  0  0  0  0
   19.6125   18.6899    5.1794 H   0  0  0  0  0  0
   17.9309   18.3145    6.8804 H   0  0  0  0  0  0
   16.2719   16.5425    6.6803 H   0  0  0  0  0  0
   18.4646   13.6129    3.6957 H   0  0  0  0  0  0
   18.5529   12.3660    2.4506 H   0  0  0  0  0  0
   12.1468   15.4942    5.0982 H   0  0  0  0  0  0
   10.9386   13.7533    6.4331 H   0  0  0  0  0  0
   12.1639   12.5633    6.0412 H   0  0  0  0  0  0
   12.5599   13.9712    7.0246 H   0  0  0  0  0  0
   10.3891   14.3948    3.9007 H   0  0  0  0  0  0
   11.7674   14.4289    2.8022 H   0  0  0  0  0  0
   11.3425   12.9473    3.6293 H   0  0  0  0  0  0
   21.7382   18.1494    2.3312 H   0  0  0  0  0  0
   21.7193   17.2289    7.2067 H   0  0  0  0  0  0
   23.2112   16.2597    7.1008 H   0  0  0  0  0  0
   24.3288   17.9950    5.8490 H   0  0  0  0  0  0
   23.1469   18.9847    6.6626 H   0  0  0  0  0  0
  1  2  2  0  0  0
  1  4  1  0  0  0
  2  3  1  0  0  0
  2 28  1  0  0  0
  3  6  2  0  0  0
  4  5  2  0  0  0
  4 16  1  0  0  0
  5  9  1  0  0  0
  5  6  1  0  0  0
  6  7  1  0  0  0
  7 17  1  0  0  0
  7  8  1  0  0  0
  8  9  2  0  0  0
  9 10  1  0  0  0
 10 15  1  0  0  0
 10 11  2  0  0  0
 11 12  1  0  0  0
 11 29  1  0  0  0
 12 20  1  0  0  0
 12 13  2  0  0  0
 13 14  1  0  0  0
 13 30  1  0  0  0
 14 15  2  0  0  0
 14 31  1  0  0  0
 15 32  1  0  0  0
 16 33  1  0  0  0
 16 34  1  0  0  0
 17 18  1  0  0  0
 17 19  1  0  0  0
 17 35  1  0  0  0
 18 36  1  0  0  0
 18 37  1  0  0  0
 18 38  1  0  0  0
 19 39  1  0  0  0
 19 40  1  0  0  0
 19 41  1  0  0  0
 20 21  2  0  0  0
 20 22  1  0  0  0
 22 23  1  0  0  0
 22 42  1  0  0  0
 23 24  1  0  0  0
 23 27  2  0  0  0
 24 25  1  0  0  0
 25 26  1  0  0  0
 25 43  1  0  0  0
 25 44  1  0  0  0
 26 27  1  0  0  0
 26 45  1  0  0  0
 26 46  1  0  0  0
M  END
> <s_m_entry_id>
6292

> <s_m_entry_name>
dock_pv.218

> <s_m_Source_Path>
/home/csk/Desktop/cluster/DUD-E-result/abl1

> <s_m_Source_File>
dock_pv.maegz

> <i_m_Source_File_Index>
218

> <chembl_id>
CHEMBL1242115

> <chembl_pref_name>
None

> <i_lp_mmshare_version>
53161

> <i_f3d_flags>
0

> <r_lp_tautomer_probability>
1

> <s_lp_Force_Field>
OPLS_2005

> <r_lp_Energy>
30.053689

> <b_lp_Chiralities_Consistent>
1

> <s_lp_Variant>
CHEMBL1862_lig488-1

> <s_i_glide_gridfile>
glide-grid_2hzi

> <i_i_glide_lignum>
578

> <i_i_glide_rotatable_bonds>
5

> <r_i_docking_score>
-9.15443183865388

> <r_i_glide_ligand_efficiency>
-0.339053031061255

> <r_i_glide_ligand_efficiency_sa>
-1.0171590920663

> <r_i_glide_ligand_efficiency_ln>
-2.13100080943452

> <r_i_glide_gscore>
-9.15443183865388

> <r_i_glide_lipo>
-3.90355482899528

> <r_i_glide_hbond>
-0.525653618094153

> <r_i_glide_metal>
0

> <r_i_glide_rewards>
-2.20982541102357

> <r_i_glide_evdw>
-45.2371635437012

> <r_i_glide_ecoul>
-4.18045425415039

> <r_i_glide_erotb>
0.373528334766737

> <r_i_glide_esite>
0

> <r_i_glide_emodel>
-45.4312698277673

> <r_i_glide_energy>
-49.4176177978516

> <r_i_glide_einternal>
10.3548364639282

> <i_i_glide_confnum>
31

> <i_i_glide_posenum>
187

> <r_i_glide_eff_state_penalty>
0

> <s_user_duplicate_titles>
CHEMBL1862_lig488

> <s_m_subgroup_title>
dock_pv

> <s_m_subgroupid>
dock_pv

> <b_m_subgroup_collapsed>
0

$$$$
CHEMBL1862_lig496
                    3D
 Schrodinger Suite 2021-1.
 44 47  0  0  1  0            999 V2000
   16.9078   12.4322    2.4030 N   0  0  0  0  0  0
   17.8737   13.1607    3.0076 C   0  0  0  0  0  0
   17.6985   14.1968    3.8568 N   0  0  0  0  0  0
   15.6295   12.7282    2.7291 C   0  0  0  0  0  0
   15.3119   13.7038    3.6842 C   0  0  0  0  0  0
   16.4207   14.4331    4.1756 C   0  0  0  0  0  0
   15.8980   15.3821    5.0390 N   0  0  0  0  0  0
   14.5643   15.2164    5.1609 N   0  0  0  0  0  0
   14.1740   14.2161    4.3993 C   0  0  0  0  0  0
   12.7299   13.7874    4.4029 C   0  0  0  0  0  0
   12.0145   13.8292    5.6024 C   0  0  0  0  0  0
   10.6341   13.6330    5.6410 C   0  0  0  0  0  0
    9.9546   13.2883    4.4695 C   0  0  0  0  0  0
   10.6768   13.0900    3.2965 C   0  0  0  0  0  0
   12.0523   13.3351    3.2692 C   0  0  0  0  0  0
   14.6464   12.0330    2.0623 N   0  0  0  0  0  0
    8.2409   13.0691    4.4499 Cl  0  0  0  0  0  0
    9.9710   13.7548    6.8330 O   0  0  0  0  0  0
   16.5112   16.4445    5.8499 C   0  0  0  0  0  0
   18.0459   16.6438    5.7128 C   0  0  0  0  0  0
   18.9365   15.5796    6.4034 C   0  0  0  0  0  0
   20.4294   15.5960    6.0167 C   0  0  0  0  0  0
   20.6026   15.7618    4.5805 N   0  0  1  0  0  0
   20.1097   17.0668    4.1575 C   0  0  0  0  0  0
   18.5872   17.2001    4.3680 C   0  0  0  0  0  0
   18.8993   12.9038    2.7884 H   0  0  0  0  0  0
   12.5482   14.0330    6.5137 H   0  0  0  0  0  0
   10.1623   12.7691    2.4030 H   0  0  0  0  0  0
   12.5640   13.2330    2.3358 H   0  0  0  0  0  0
   13.7028   12.0847    2.4095 H   0  0  0  0  0  0
   14.8864   11.3257    1.3853 H   0  0  0  0  0  0
   10.5359   14.0329    7.5582 H   0  0  0  0  0  0
   16.2632   16.2391    6.8929 H   0  0  0  0  0  0
   15.9956   17.3722    5.6029 H   0  0  0  0  0  0
   18.2481   17.5029    6.3550 H   0  0  0  0  0  0
   18.5897   14.5769    6.1638 H   0  0  0  0  0  0
   18.8086   15.6330    7.4781 H   0  0  0  0  0  0
   20.8938   14.6506    6.3014 H   0  0  0  0  0  0
   20.9641   16.3823    6.5527 H   0  0  0  0  0  0
   21.5806   15.6771    4.3415 H   0  0  0  0  0  0
   20.3459   17.1837    3.0986 H   0  0  0  0  0  0
   20.6405   17.8595    4.6876 H   0  0  0  0  0  0
   18.2690   18.2253    4.2169 H   0  0  0  0  0  0
   18.1408   16.6685    3.5305 H   0  0  0  0  0  0
  1  2  2  0  0  0
  1  4  1  0  0  0
  2  3  1  0  0  0
  2 26  1  0  0  0
  3  6  2  0  0  0
  4  5  2  0  0  0
  4 16  1  0  0  0
  5  9  1  0  0  0
  5  6  1  0  0  0
  6  7  1  0  0  0
  7  8  1  0  0  0
  7 19  1  0  0  0
  8  9  2  0  0  0
  9 10  1  0  0  0
 10 15  1  0  0  0
 10 11  2  0  0  0
 11 12  1  0  0  0
 11 27  1  0  0  0
 12 13  2  0  0  0
 12 18  1  0  0  0
 13 14  1  0  0  0
 13 17  1  0  0  0
 14 15  2  0  0  0
 14 28  1  0  0  0
 15 29  1  0  0  0
 16 30  1  0  0  0
 16 31  1  0  0  0
 18 32  1  0  0  0
 19 20  1  0  0  0
 19 33  1  0  0  0
 19 34  1  0  0  0
 20 21  1  0  0  0
 20 25  1  0  0  0
 20 35  1  0  0  0
 21 22  1  0  0  0
 21 36  1  0  0  0
 21 37  1  0  0  0
 22 23  1  0  0  0
 22 38  1  0  0  0
 22 39  1  0  0  0
 23 24  1  0  0  0
 23 40  1  0  0  0
 24 25  1  0  0  0
 24 41  1  0  0  0
 24 42  1  0  0  0
 25 43  1  0  0  0
 25 44  1  0  0  0
M  END
> <s_m_entry_id>
6293

> <s_m_entry_name>
dock_pv.219

> <s_m_Source_Path>
/home/csk/Desktop/cluster/DUD-E-result/abl1

> <s_m_Source_File>
dock_pv.maegz

> <i_m_Source_File_Index>
219

> <chembl_id>
CHEMBL1241859

> <chembl_pref_name>
None

> <i_lp_mmshare_version>
53161

> <i_f3d_flags>
0

> <r_lp_tautomer_probability>
0.999999999997365

> <s_lp_Force_Field>
OPLS_2005

> <r_lp_Energy>
20.052629

> <b_lp_Chiralities_Consistent>
1

> <s_lp_Variant>
CHEMBL1862_lig496-1

> <s_i_glide_gridfile>
glide-grid_2hzi

> <i_i_glide_lignum>
589

> <i_i_glide_rotatable_bonds>
4

> <r_i_docking_score>
-9.12533590685001

> <r_i_glide_ligand_efficiency>
-0.365013436274

> <r_i_glide_ligand_efficiency_sa>
-1.06730576120603

> <r_i_glide_ligand_efficiency_ln>
-2.16297807417337

> <r_i_glide_gscore>
-9.12533590685001

> <r_i_glide_lipo>
-4.05954643999694

> <r_i_glide_hbond>
-0.222628903971804

> <r_i_glide_metal>
0

> <r_i_glide_rewards>
-3.15864649068664

> <r_i_glide_evdw>
-34.9377593994141

> <r_i_glide_ecoul>
-2.56040191650391

> <r_i_glide_erotb>
0.44643418525167

> <r_i_glide_esite>
0

> <r_i_glide_emodel>
-43.0131339778236

> <r_i_glide_energy>
-37.498161315918

> <r_i_glide_einternal>
6.9878191947937

> <i_i_glide_confnum>
24

> <i_i_glide_posenum>
47

> <r_i_glide_eff_state_penalty>
0

> <s_user_duplicate_titles>
CHEMBL1862_lig496

> <s_m_subgroup_title>
dock_pv

> <s_m_subgroupid>
dock_pv

> <b_m_subgroup_collapsed>
0

$$$$
CHEMBL1862_lig7
                    3D
 Schrodinger Suite 2021-1.
 41 45  0  0  1  0            999 V2000
   18.5702   15.3873    6.3341 C   0  0  0  0  0  0
   19.9284   15.7524    5.7043 C   0  0  0  0  0  0
   19.6300   16.6693    4.5198 C   0  0  0  0  0  0
   18.2348   17.2330    4.7890 C   0  0  0  0  0  0
   17.4565   16.1823    5.6043 C   0  0  0  0  0  0
   16.5553   15.3169    4.8030 N   0  0  0  0  0  0
   15.2011   15.3041    4.9746 N   0  0  0  0  0  0
   16.9254   14.3146    3.9399 C   0  0  0  0  0  0
   18.1642   13.9604    3.6064 N   0  0  0  0  0  0
   18.2164   12.8077    2.9146 C   0  0  0  0  0  0
   17.1872   12.0444    2.4769 N   0  0  0  0  0  0
   15.9511   12.4755    2.8054 C   0  0  0  0  0  0
   14.8881   11.6819    2.4418 N   0  0  0  0  0  0
   15.7489   13.6214    3.5912 C   0  0  0  0  0  0
   14.6855   14.3089    4.2623 C   0  0  0  0  0  0
   13.2208   13.9317    4.3017 C   0  0  0  0  0  0
   12.5216   14.0333    5.5065 C   0  0  0  0  0  0
   11.1497   13.7308    5.5513 C   0  0  0  0  0  0
   10.1135   13.7533    6.5412 C   0  0  0  0  0  0
    8.9459   13.3751    5.9110 C   0  0  0  0  0  0
    9.2053   13.1164    4.5858 N   0  0  0  0  0  0
   10.5493   13.2964    4.3450 C   0  0  0  0  0  0
   11.1926   13.0798    3.2031 N   0  0  0  0  0  0
   12.5141   13.4020    3.2116 C   0  0  0  0  0  0
   18.5690   15.6330    7.3891 H   0  0  0  0  0  0
   18.4336   14.3111    6.2934 H   0  0  0  0  0  0
   20.5637   16.2698    6.4222 H   0  0  0  0  0  0
   20.4756   14.8632    5.3853 H   0  0  0  0  0  0
   20.3758   17.4587    4.4164 H   0  0  0  0  0  0
   19.6425   16.1067    3.5854 H   0  0  0  0  0  0
   17.7640   17.5215    3.8558 H   0  0  0  0  0  0
   18.3288   18.1412    5.3857 H   0  0  0  0  0  0
   16.7683   16.6610    6.3052 H   0  0  0  0  0  0
   19.2157   12.4322    2.8030 H   0  0  0  0  0  0
   13.9880   11.9212    2.8274 H   0  0  0  0  0  0
   14.9641   10.8010    1.9516 H   0  0  0  0  0  0
   13.0244   14.4315    6.3687 H   0  0  0  0  0  0
   10.1917   14.0280    7.5826 H   0  0  0  0  0  0
    7.9476   13.2581    6.3039 H   0  0  0  0  0  0
    8.5019   12.7946    3.9366 H   0  0  0  0  0  0
   12.9828   13.2330    2.2599 H   0  0  0  0  0  0
  1  2  1  0  0  0
  1  5  1  0  0  0
  1 25  1  0  0  0
  1 26  1  0  0  0
  2  3  1  0  0  0
  2 27  1  0  0  0
  2 28  1  0  0  0
  3  4  1  0  0  0
  3 29  1  0  0  0
  3 30  1  0  0  0
  4  5  1  0  0  0
  4 31  1  0  0  0
  4 32  1  0  0  0
  5  6  1  0  0  0
  5 33  1  0  0  0
  6  7  1  0  0  0
  6  8  1  0  0  0
  7 15  2  0  0  0
  8  9  2  0  0  0
  8 14  1  0  0  0
  9 10  1  0  0  0
 10 11  2  0  0  0
 10 34  1  0  0  0
 11 12  1  0  0  0
 12 13  1  0  0  0
 12 14  2  0  0  0
 13 35  1  0  0  0
 13 36  1  0  0  0
 14 15  1  0  0  0
 15 16  1  0  0  0
 16 17  2  0  0  0
 16 24  1  0  0  0
 17 18  1  0  0  0
 17 37  1  0  0  0
 18 19  1  0  0  0
 18 22  2  0  0  0
 19 20  2  0  0  0
 19 38  1  0  0  0
 20 21  1  0  0  0
 20 39  1  0  0  0
 21 22  1  0  0  0
 21 40  1  0  0  0
 22 23  1  0  0  0
 23 24  2  0  0  0
 24 41  1  0  0  0
M  END
> <s_m_entry_id>
6294

> <s_m_entry_name>
dock_pv.220

> <s_m_Source_Path>
/home/csk/Desktop/cluster/DUD-E-result/abl1

> <s_m_Source_File>
dock_pv.maegz

> <i_m_Source_File_Index>
220

> <chembl_id>
CHEMBL1081312

> <chembl_pref_name>
None

> <i_lp_mmshare_version>
53161

> <i_f3d_flags>
0

> <r_lp_tautomer_probability>
0.999998432528457

> <s_lp_Force_Field>
OPLS_2005

> <r_lp_Energy>
33.72648

> <b_lp_Chiralities_Consistent>
1

> <s_lp_Variant>
CHEMBL1862_lig7-1

> <s_i_glide_gridfile>
glide-grid_2hzi

> <i_i_glide_lignum>
9

> <i_i_glide_rotatable_bonds>
2

> <r_i_docking_score>
-9.09677980599549

> <r_i_glide_ligand_efficiency>
-0.379032491916479

> <r_i_glide_ligand_efficiency_sa>
-1.09331889603997

> <r_i_glide_ligand_efficiency_ln>
-2.17727683160031

> <r_i_glide_gscore>
-9.09677980599549

> <r_i_glide_lipo>
-3.80658499015489

> <r_i_glide_hbond>
-0.466069081848941

> <r_i_glide_metal>
0

> <r_i_glide_rewards>
-3.47124651823873

> <r_i_glide_evdw>
-24.7569732666016

> <r_i_glide_ecoul>
-2.23865485191345

> <r_i_glide_erotb>
0.256104696004212

> <r_i_glide_esite>
-0.0353370206400439

> <r_i_glide_emodel>
-51.6796257093879

> <r_i_glide_energy>
-26.995628118515

> <r_i_glide_einternal>
2.42248630523682

> <i_i_glide_confnum>
51

> <i_i_glide_posenum>
125

> <r_i_glide_eff_state_penalty>
0

> <s_user_duplicate_titles>
CHEMBL1862_lig7,616450

> <s_m_subgroup_title>
dock_pv

> <s_m_subgroupid>
dock_pv

> <b_m_subgroup_collapsed>
0

$$$$
CHEMBL1862_lig253
                    3D
 Schrodinger Suite 2021-1.
 28 31  0  0  1  0            999 V2000
   16.5664   12.5877    2.8033 N   0  0  0  0  0  0
   17.8692   12.9835    2.9370 N   0  0  0  0  0  0
   17.8975   14.1431    3.6487 C   0  0  0  0  0  0
   16.6160   14.4745    4.0027 C   0  0  0  0  0  0
   15.7924   13.4617    3.4394 C   0  0  0  0  0  0
   16.6173   15.6337    4.7366 O   0  0  0  0  0  0
   18.7720   15.1185    4.1235 C   0  0  0  0  0  0
   17.9360   16.0542    4.7752 C   0  0  0  0  0  0
   20.1548   15.3216    4.0610 C   0  0  0  0  0  0
   20.6549   16.5137    4.5987 C   0  0  0  0  0  0
   19.8147   17.4540    5.2031 C   0  0  0  0  0  0
   18.4383   17.2329    5.3348 C   0  0  0  0  0  0
   14.3038   13.3652    3.5140 C   0  0  0  0  0  0
   13.5862   14.2271    4.3540 C   0  0  0  0  0  0
   12.1945   14.1632    4.4050 C   0  0  0  0  0  0
   11.5151   13.2351    3.6201 C   0  0  0  0  0  0
   12.2200   12.3581    2.8019 C   0  0  0  0  0  0
   13.6080   12.4330    2.7397 C   0  0  0  0  0  0
   18.6191   12.4554    2.5095 H   0  0  0  0  0  0
   20.8144   14.6044    3.6049 H   0  0  0  0  0  0
   21.7167   16.7069    4.5442 H   0  0  0  0  0  0
   20.2463   18.3611    5.6047 H   0  0  0  0  0  0
   17.7936   17.9432    5.8281 H   0  0  0  0  0  0
   14.0988   14.9558    4.9649 H   0  0  0  0  0  0
   11.6445   14.8334    5.0515 H   0  0  0  0  0  0
   10.4356   13.1801    3.6604 H   0  0  0  0  0  0
   11.6929   11.6263    2.2055 H   0  0  0  0  0  0
   14.1341   11.7517    2.0850 H   0  0  0  0  0  0
  1  2  1  0  0  0
  1  5  2  0  0  0
  2  3  1  0  0  0
  2 19  1  0  0  0
  3  4  2  0  0  0
  3  7  1  0  0  0
  4  5  1  0  0  0
  4  6  1  0  0  0
  5 13  1  0  0  0
  6  8  1  0  0  0
  7  8  1  0  0  0
  7  9  2  0  0  0
  8 12  2  0  0  0
  9 10  1  0  0  0
  9 20  1  0  0  0
 10 11  2  0  0  0
 10 21  1  0  0  0
 11 12  1  0  0  0
 11 22  1  0  0  0
 12 23  1  0  0  0
 13 14  1  0  0  0
 13 18  2  0  0  0
 14 15  2  0  0  0
 14 24  1  0  0  0
 15 16  1  0  0  0
 15 25  1  0  0  0
 16 17  2  0  0  0
 16 26  1  0  0  0
 17 18  1  0  0  0
 17 27  1  0  0  0
 18 28  1  0  0  0
M  END
> <s_m_entry_id>
6295

> <s_m_entry_name>
dock_pv.221

> <s_m_Source_Path>
/home/csk/Desktop/cluster/DUD-E-result/abl1

> <s_m_Source_File>
dock_pv.maegz

> <i_m_Source_File_Index>
221

> <chembl_id>
CHEMBL406375

> <chembl_pref_name>
None

> <i_lp_mmshare_version>
53161

> <i_f3d_flags>
0

> <r_lp_tautomer_probability>
1

> <s_lp_Force_Field>
OPLS_2005

> <r_lp_Energy>
55.484375

> <b_lp_Chiralities_Consistent>
1

> <s_lp_Variant>
CHEMBL1862_lig253-1

> <s_i_glide_gridfile>
glide-grid_2hzi

> <i_i_glide_lignum>
293

> <i_i_glide_rotatable_bonds>
1

> <r_i_docking_score>
-9.07938622827377

> <r_i_glide_ligand_efficiency>
-0.50441034601521

> <r_i_glide_ligand_efficiency_sa>
-1.32192907219567

> <r_i_glide_ligand_efficiency_ln>
-2.33380941290395

> <r_i_glide_gscore>
-9.07938622827377

> <r_i_glide_lipo>
-3.68846156453263

> <r_i_glide_hbond>
-0.18414121038795

> <r_i_glide_metal>
0

> <r_i_glide_rewards>
-3.44632230628218

> <r_i_glide_evdw>
-32.5075225830078

> <r_i_glide_ecoul>
-2.98657155036926

> <r_i_glide_erotb>
0.312900714634759

> <r_i_glide_esite>
0

> <r_i_glide_emodel>
-56.1102303623934

> <r_i_glide_energy>
-35.4940941333771

> <r_i_glide_einternal>
0.0304083209484816

> <i_i_glide_confnum>
1

> <i_i_glide_posenum>
134

> <r_i_glide_eff_state_penalty>
0

> <s_user_duplicate_titles>
CHEMBL1862_lig253

> <s_m_subgroup_title>
dock_pv

> <s_m_subgroupid>
dock_pv

> <b_m_subgroup_collapsed>
0

$$$$
CHEMBL1862_lig41
                    3D
 Schrodinger Suite 2021-1.
 59 63  0  0  1  0            999 V2000
    8.1319   13.2045    1.7054 F   0  0  0  0  0  0
    8.2942   11.0517    1.6039 F   0  0  0  0  0  0
    7.9495   12.0290    3.5096 F   0  0  0  0  0  0
   19.3081   18.4332    4.9754 O   0  0  0  0  0  0
   22.2606   16.6646    5.7352 O   0  0  0  0  0  0
   18.6357   16.3338    4.5602 N   0  0  0  0  0  0
   14.1729   12.8355    2.8915 N   0  0  0  0  0  0
   11.9552   13.4431    3.5025 N   0  0  0  0  0  0
   12.3319   11.6372    2.0062 N   0  0  0  0  0  0
    9.7991   14.0314    4.2431 N   0  0  0  0  0  0
   21.8378   17.9774    3.9315 N   0  0  0  0  0  0
   18.6888   14.9598    4.0827 C   0  0  2  0  0  0
   17.8119   16.1972    5.7454 C   0  0  1  0  0  0
   17.1879   14.6819    4.0688 C   0  0  0  0  0  0
   16.6580   15.4585    5.0981 C   0  0  0  0  0  0
   19.3018   14.3390    5.3621 C   0  0  0  0  0  0
   18.7108   15.1813    6.4984 C   0  0  0  0  0  0
   16.3506   13.8478    3.3144 C   0  0  0  0  0  0
   19.4705   17.3811    4.3606 C   0  0  0  0  0  0
   15.3024   15.4280    5.3772 C   0  0  0  0  0  0
   14.9768   13.7564    3.6194 C   0  0  0  0  0  0
   14.4751   14.5668    4.6576 C   0  0  0  0  0  0
   10.0755   12.2829    2.5542 C   0  0  0  0  0  0
   12.7799   12.6347    2.8108 C   0  0  0  0  0  0
   10.6158   13.2457    3.4162 C   0  0  0  0  0  0
   20.6791   17.2255    3.4126 C   0  0  0  0  0  0
    8.5791   12.1235    2.3416 C   0  0  0  0  0  0
   10.9948   11.4730    1.8805 C   0  0  0  0  0  0
   10.3582   14.5783    5.4840 C   0  0  0  0  0  0
    9.3877   14.6332    6.6782 C   0  0  0  0  0  0
   11.1412   13.5848    6.3813 C   0  0  0  0  0  0
    9.7850   13.1825    6.9723 C   0  0  0  0  0  0
   22.4968   17.6717    5.0650 C   0  0  0  0  0  0
   23.5689   18.6489    5.5286 C   0  0  0  0  0  0
   14.6805   12.1829    2.3190 H   0  0  0  0  0  0
    8.8021   13.8852    4.1949 H   0  0  0  0  0  0
   22.0773   18.8268    3.4429 H   0  0  0  0  0  0
   19.2310   14.7861    3.1525 H   0  0  0  0  0  0
   17.5750   17.1172    6.2845 H   0  0  0  0  0  0
   20.3878   14.4337    5.3559 H   0  0  0  0  0  0
   19.0292   13.2923    5.5139 H   0  0  0  0  0  0
   19.5279   15.6328    7.0605 H   0  0  0  0  0  0
   18.1640   14.5698    7.2033 H   0  0  0  0  0  0
   16.7653   13.2385    2.5275 H   0  0  0  0  0  0
   14.8908   16.0281    6.1743 H   0  0  0  0  0  0
   13.4462   14.5488    4.9670 H   0  0  0  0  0  0
   20.4155   17.6176    2.4311 H   0  0  0  0  0  0
   20.9653   16.1821    3.2872 H   0  0  0  0  0  0
   10.6821   10.6760    1.2150 H   0  0  0  0  0  0
   10.8738   15.4999    5.2023 H   0  0  0  0  0  0
    9.7226   15.3429    7.4443 H   0  0  0  0  0  0
    8.3438   14.8298    6.4485 H   0  0  0  0  0  0
   11.7402   12.8332    5.8896 H   0  0  0  0  0  0
   11.8214   14.0324    7.1035 H   0  0  0  0  0  0
    9.8047   12.8795    8.0031 H   0  0  0  0  0  0
    9.2272   12.4341    6.4035 H   0  0  0  0  0  0
   23.4407   19.6326    5.0732 H   0  0  0  0  0  0
   24.5635   18.2761    5.2875 H   0  0  0  0  0  0
   23.5070   18.7755    6.6075 H   0  0  0  0  0  0
  1 27  1  0  0  0
  2 27  1  0  0  0
  3 27  1  0  0  0
  4 19  2  0  0  0
  5 33  2  0  0  0
  6 12  1  0  0  0
  6 13  1  0  0  0
  6 19  1  0  0  0
  7 21  1  0  0  0
  7 24  1  0  0  0
  7 35  1  0  0  0
  8 24  1  0  0  0
  8 25  2  0  0  0
  9 24  2  0  0  0
  9 28  1  0  0  0
 10 25  1  0  0  0
 10 29  1  0  0  0
 10 36  1  0  0  0
 11 26  1  0  0  0
 11 33  1  0  0  0
 11 37  1  0  0  0
 12 14  1  0  0  0
 12 16  1  0  0  0
 12 38  1  0  0  0
 13 15  1  0  0  0
 13 17  1  0  0  0
 13 39  1  0  0  0
 14 15  1  0  0  0
 14 18  2  0  0  0
 15 20  2  0  0  0
 16 17  1  0  0  0
 16 40  1  0  0  0
 16 41  1  0  0  0
 17 42  1  0  0  0
 17 43  1  0  0  0
 18 21  1  0  0  0
 18 44  1  0  0  0
 19 26  1  0  0  0
 20 22  1  0  0  0
 20 45  1  0  0  0
 21 22  2  0  0  0
 22 46  1  0  0  0
 23 25  1  0  0  0
 23 27  1  0  0  0
 23 28  2  0  0  0
 26 47  1  0  0  0
 26 48  1  0  0  0
 28 49  1  0  0  0
 29 30  1  0  0  0
 29 31  1  0  0  0
 29 50  1  0  0  0
 30 32  1  0  0  0
 30 51  1  0  0  0
 30 52  1  0  0  0
 31 32  1  0  0  0
 31 53  1  0  0  0
 31 54  1  0  0  0
 32 55  1  0  0  0
 32 56  1  0  0  0
 33 34  1  0  0  0
 34 57  1  0  0  0
 34 58  1  0  0  0
 34 59  1  0  0  0
M  END
> <s_m_entry_id>
6296

> <s_m_entry_name>
dock_pv.222

> <s_m_Source_Path>
/home/csk/Desktop/cluster/DUD-E-result/abl1

> <s_m_Source_File>
dock_pv.maegz

> <i_m_Source_File_Index>
222

> <chembl_id>
CHEMBL1983111

> <chembl_pref_name>
None

> <i_lp_mmshare_version>
53161

> <i_f3d_flags>
0

> <r_lp_tautomer_probability>
0.999999624730965

> <s_lp_Force_Field>
OPLS_2005

> <r_lp_Energy>
73.831038

> <b_lp_Chiralities_Consistent>
1

> <s_lp_Variant>
CHEMBL1862_lig41-2

> <s_i_glide_gridfile>
glide-grid_2hzi

> <i_i_glide_lignum>
55

> <i_i_glide_rotatable_bonds>
9

> <r_i_docking_score>
-9.05015191181534

> <r_i_glide_ligand_efficiency>
-0.266180938582804

> <r_i_glide_ligand_efficiency_sa>
-0.862322908894349

> <r_i_glide_ligand_efficiency_ln>
-1.99943240548272

> <r_i_glide_gscore>
-9.05015191181534

> <r_i_glide_lipo>
-4.41251034082551

> <r_i_glide_hbond>
0

> <r_i_glide_metal>
0

> <r_i_glide_rewards>
-2.33914295317939

> <r_i_glide_evdw>
-47.1348724365234

> <r_i_glide_ecoul>
-3.80621767044067

> <r_i_glide_erotb>
0.629177654581831

> <r_i_glide_esite>
0

> <r_i_glide_emodel>
-42.5138227571717

> <r_i_glide_energy>
-50.9410901069641

> <r_i_glide_einternal>
19.8570919036865

> <i_i_glide_confnum>
23

> <i_i_glide_posenum>
131

> <r_i_glide_eff_state_penalty>
0

> <s_user_duplicate_titles>
CHEMBL1862_lig41

> <s_m_subgroup_title>
dock_pv

> <s_m_subgroupid>
dock_pv

> <b_m_subgroup_collapsed>
0

$$$$
CHEMBL1862_lig145
                    3D
 Schrodinger Suite 2021-1.
 36 38  0  0  1  0            999 V2000
   18.0009   15.9402    4.6508 C   0  0  0  0  0  0
   17.0881   15.1622    4.0126 N   0  0  0  0  0  0
   20.4303   16.5395    4.6626 C   0  0  0  0  0  0
   19.2596   16.0660    4.0509 N   0  0  0  0  0  0
   15.8658   15.0103    4.6078 C   0  0  0  0  0  0
   17.7812   16.5993    5.8193 N   0  0  0  0  0  0
   20.9998   17.7113    4.1644 C   0  0  0  0  0  0
   14.8751   14.1153    3.9405 C   0  0  0  0  0  0
   21.0083   15.9071    5.7813 C   0  0  0  0  0  0
   12.5737   13.3282    3.7281 N   0  0  0  0  0  0
   22.0944   18.2857    4.8066 C   0  0  0  0  0  0
   22.1572   16.4497    6.3593 C   0  0  0  0  0  0
   15.5796   15.6343    5.8273 C   0  0  0  0  0  0
   16.5678   16.4333    6.3901 C   0  0  0  0  0  0
   22.5643   19.5268    4.4028 N   0  0  0  0  0  0
   22.6890   17.6444    5.8873 C   0  0  0  0  0  0
   13.5082   14.1462    4.2737 C   0  0  0  0  0  0
   15.2629   13.1881    2.9615 C   0  0  0  0  0  0
   12.9901   12.4338    2.8014 C   0  0  0  0  0  0
   20.4287   14.6475    6.4024 C   0  0  0  0  0  0
   14.3163   12.3470    2.3849 C   0  0  0  0  0  0
   19.3720   15.6377    3.1435 H   0  0  0  0  0  0
   20.5457   18.2045    3.3184 H   0  0  0  0  0  0
   22.6259   15.9652    7.2019 H   0  0  0  0  0  0
   14.6391   15.5128    6.3415 H   0  0  0  0  0  0
   16.3908   16.9568    7.3145 H   0  0  0  0  0  0
   22.0759   19.9800    3.6467 H   0  0  0  0  0  0
   22.9986   20.1105    5.1126 H   0  0  0  0  0  0
   23.5511   18.0745    6.3767 H   0  0  0  0  0  0
   13.1171   14.8403    5.0007 H   0  0  0  0  0  0
   16.2946   13.1073    2.6507 H   0  0  0  0  0  0
   12.2389   11.7799    2.3811 H   0  0  0  0  0  0
   19.8922   14.0397    5.6752 H   0  0  0  0  0  0
   21.2243   14.0321    6.8157 H   0  0  0  0  0  0
   19.7416   14.9150    7.2015 H   0  0  0  0  0  0
   14.6001   11.6318    1.6281 H   0  0  0  0  0  0
  1  2  1  0  0  0
  1  4  1  0  0  0
  1  6  2  0  0  0
  2  5  2  0  0  0
  3  4  1  0  0  0
  3  7  1  0  0  0
  3  9  2  0  0  0
  4 22  1  0  0  0
  5  8  1  0  0  0
  5 13  1  0  0  0
  6 14  1  0  0  0
  7 11  2  0  0  0
  7 23  1  0  0  0
  8 17  1  0  0  0
  8 18  2  0  0  0
  9 12  1  0  0  0
  9 20  1  0  0  0
 10 17  2  0  0  0
 10 19  1  0  0  0
 11 15  1  0  0  0
 11 16  1  0  0  0
 12 16  2  0  0  0
 12 24  1  0  0  0
 13 14  2  0  0  0
 13 25  1  0  0  0
 14 26  1  0  0  0
 15 27  1  0  0  0
 15 28  1  0  0  0
 16 29  1  0  0  0
 17 30  1  0  0  0
 18 21  1  0  0  0
 18 31  1  0  0  0
 19 21  2  0  0  0
 19 32  1  0  0  0
 20 33  1  0  0  0
 20 34  1  0  0  0
 20 35  1  0  0  0
 21 36  1  0  0  0
M  END
> <s_m_entry_id>
6297

> <s_m_entry_name>
dock_pv.223

> <s_m_Source_Path>
/home/csk/Desktop/cluster/DUD-E-result/abl1

> <s_m_Source_File>
dock_pv.maegz

> <i_m_Source_File_Index>
223

> <chembl_id>
CHEMBL278103

> <chembl_pref_name>
None

> <i_lp_mmshare_version>
53161

> <i_f3d_flags>
0

> <r_lp_tautomer_probability>
0.999999987636

> <s_lp_Force_Field>
OPLS_2005

> <r_lp_Energy>
11.195529

> <b_lp_Chiralities_Consistent>
1

> <s_lp_Variant>
CHEMBL1862_lig145-1

> <s_i_glide_gridfile>
glide-grid_2hzi

> <i_i_glide_lignum>
164

> <i_i_glide_rotatable_bonds>
3

> <r_i_docking_score>
-9.03949332760592

> <r_i_glide_ligand_efficiency>
-0.430452063219329

> <r_i_glide_ligand_efficiency_sa>
-1.18758460278373

> <r_i_glide_ligand_efficiency_ln>
-2.2349964592344

> <r_i_glide_gscore>
-9.03949332760592

> <r_i_glide_lipo>
-4.57186971253968

> <r_i_glide_hbond>
-0.113580865506202

> <r_i_glide_metal>
0

> <r_i_glide_rewards>
-2.47527358207135

> <r_i_glide_evdw>
-42.3973007202148

> <r_i_glide_ecoul>
-3.07537698745728

> <r_i_glide_erotb>
0.702402416640653

> <r_i_glide_esite>
0

> <r_i_glide_emodel>
-67.6012974853394

> <r_i_glide_energy>
-45.4726777076721

> <r_i_glide_einternal>
2.73272705078125

> <i_i_glide_confnum>
11

> <i_i_glide_posenum>
40

> <r_i_glide_eff_state_penalty>
0

> <s_user_duplicate_titles>
CHEMBL1862_lig145

> <s_m_subgroup_title>
dock_pv

> <s_m_subgroupid>
dock_pv

> <b_m_subgroup_collapsed>
0

$$$$
CHEMBL1862_lig443
                    3D
 Schrodinger Suite 2021-1.
 37 39  0  0  1  0            999 V2000
   16.5255   12.1383    2.4025 N   0  0  0  0  0  0
   15.1787   12.0328    2.3565 C   0  0  0  0  0  0
   14.2658   12.7463    3.0396 N   0  0  0  0  0  0
   17.0350   13.1318    3.1553 C   0  0  0  0  0  0
   16.1892   13.9845    3.8938 C   0  0  0  0  0  0
   14.8073   13.7133    3.7813 C   0  0  0  0  0  0
   14.1473   14.6343    4.5689 N   0  0  0  0  0  0
   15.0600   15.4475    5.1823 N   0  0  0  0  0  0
   16.2803   15.0760    4.8034 C   0  0  0  0  0  0
   17.5708   15.6966    5.2679 C   0  0  0  0  0  0
   18.7164   14.9548    5.5928 C   0  0  0  0  0  0
   19.9609   15.5766    5.7393 C   0  0  0  0  0  0
   20.0797   16.9542    5.5417 C   0  0  0  0  0  0
   18.9339   17.7096    5.3031 C   0  0  0  0  0  0
   17.6948   17.0757    5.2047 C   0  0  0  0  0  0
   18.4185   13.2301    3.1401 N   0  0  0  0  0  0
   21.6221   17.7370    5.6012 Cl  0  0  0  0  0  0
   21.0623   14.8316    6.0611 O   0  0  0  0  0  0
   12.6820   14.7226    4.8433 C   0  0  2  0  0  0
   12.3125   13.8022    6.0226 C   0  0  0  0  0  0
   11.8333   14.2782    3.6260 C   0  0  0  0  0  0
   10.8917   13.6330    6.3158 N   0  0  0  0  0  0
   14.7805   11.2577    1.7179 H   0  0  0  0  0  0
   18.6533   13.8818    5.6923 H   0  0  0  0  0  0
   19.0010   18.7813    5.1822 H   0  0  0  0  0  0
   16.8045   17.6328    5.0065 H   0  0  0  0  0  0
   18.8764   14.0029    3.6006 H   0  0  0  0  0  0
   18.9314   12.5846    2.5523 H   0  0  0  0  0  0
   21.8724   15.3500    6.0640 H   0  0  0  0  0  0
   12.4590   15.7617    5.0795 H   0  0  0  0  0  0
   12.6269   12.8314    5.7108 H   0  0  0  0  0  0
   12.8712   14.0420    6.9221 H   0  0  0  0  0  0
   10.8728   14.7947    3.6067 H   0  0  0  0  0  0
   12.3600   14.4329    2.6933 H   0  0  0  0  0  0
   11.6179   13.2078    3.6369 H   0  0  0  0  0  0
   10.5085   14.4325    6.8005 H   0  0  0  0  0  0
   10.3597   13.5132    5.4632 H   0  0  0  0  0  0
  1  2  2  0  0  0
  1  4  1  0  0  0
  2  3  1  0  0  0
  2 23  1  0  0  0
  3  6  2  0  0  0
  4  5  2  0  0  0
  4 16  1  0  0  0
  5  9  1  0  0  0
  5  6  1  0  0  0
  6  7  1  0  0  0
  7  8  1  0  0  0
  7 19  1  0  0  0
  8  9  2  0  0  0
  9 10  1  0  0  0
 10 11  2  0  0  0
 10 15  1  0  0  0
 11 12  1  0  0  0
 11 24  1  0  0  0
 12 13  2  0  0  0
 12 18  1  0  0  0
 13 14  1  0  0  0
 13 17  1  0  0  0
 14 15  2  0  0  0
 14 25  1  0  0  0
 15 26  1  0  0  0
 16 27  1  0  0  0
 16 28  1  0  0  0
 18 29  1  0  0  0
 19 20  1  0  0  0
 19 21  1  0  0  0
 19 30  1  0  0  0
 20 22  1  0  0  0
 20 31  1  0  0  0
 20 32  1  0  0  0
 21 33  1  0  0  0
 21 34  1  0  0  0
 21 35  1  0  0  0
 22 36  1  0  0  0
 22 37  1  0  0  0
M  END
> <s_m_entry_id>
6298

> <s_m_entry_name>
dock_pv.224

> <s_m_Source_Path>
/home/csk/Desktop/cluster/DUD-E-result/abl1

> <s_m_Source_File>
dock_pv.maegz

> <i_m_Source_File_Index>
224

> <chembl_id>
CHEMBL1240544

> <chembl_pref_name>
None

> <i_lp_mmshare_version>
53161

> <i_f3d_flags>
0

> <r_lp_tautomer_probability>
0.999999999997365

> <s_lp_Force_Field>
OPLS_2005

> <r_lp_Energy>
13.04147

> <b_lp_Chiralities_Consistent>
1

> <s_lp_Variant>
CHEMBL1862_lig443-1

> <s_i_glide_gridfile>
glide-grid_2hzi

> <i_i_glide_lignum>
531

> <i_i_glide_rotatable_bonds>
4

> <r_i_docking_score>
-9.03683397348354

> <r_i_glide_ligand_efficiency>
-0.410765180612888

> <r_i_glide_ligand_efficiency_sa>
-1.15098019055517

> <r_i_glide_ligand_efficiency_ln>
-2.20893184964757

> <r_i_glide_gscore>
-9.03683397348354

> <r_i_glide_lipo>
-3.03132384559247

> <r_i_glide_hbond>
-0.51221398100011

> <r_i_glide_metal>
0

> <r_i_glide_rewards>
-3.76266190710844

> <r_i_glide_evdw>
-28.8655090332031

> <r_i_glide_ecoul>
-3.62877893447876

> <r_i_glide_erotb>
0.256958052049454

> <r_i_glide_esite>
0

> <r_i_glide_emodel>
-31.8423381545987

> <r_i_glide_energy>
-32.4942879676819

> <r_i_glide_einternal>
6.17625284194946

> <i_i_glide_confnum>
6

> <i_i_glide_posenum>
323

> <r_i_glide_eff_state_penalty>
0

> <s_user_duplicate_titles>
CHEMBL1862_lig443

> <s_m_subgroup_title>
dock_pv

> <s_m_subgroupid>
dock_pv

> <b_m_subgroup_collapsed>
0

$$$$
CHEMBL1862_lig954
                    3D
 Schrodinger Suite 2021-1.
 40 42  0  0  1  0            999 V2000
   14.7328   14.5759    4.3257 N   0  0  0  0  0  0
   15.4508   12.0330    2.0030 C   0  0  0  0  0  0
   14.6309   12.7733    2.7455 N   0  0  0  0  0  0
   15.2833   13.6417    3.5086 C   0  0  0  0  0  0
   16.6801   13.8035    3.6029 C   0  0  0  0  0  0
   17.4149   12.9193    2.8200 C   0  0  0  0  0  0
   16.8002   12.0330    2.0198 N   0  0  0  0  0  0
   15.7230   15.2895    4.9499 N   0  0  0  0  0  0
   16.8899   14.8854    4.5041 C   0  0  0  0  0  0
   18.7891   12.9152    2.8030 N   0  0  0  0  0  0
   18.1916   15.4936    4.9284 C   0  0  0  0  0  0
   19.1611   14.7034    5.5526 C   0  0  0  0  0  0
   20.4106   15.2331    5.8694 C   0  0  0  0  0  0
   20.7044   16.5594    5.5551 C   0  0  0  0  0  0
   19.7339   17.3641    4.9563 C   0  0  0  0  0  0
   18.4837   16.8321    4.6464 C   0  0  0  0  0  0
   22.0775   17.1252    5.8730 C   0  0  0  0  0  0
   13.2986   14.8864    4.5112 C   0  0  0  0  0  0
   12.8635   14.3086    5.8432 C   0  0  0  0  0  0
   12.3190   14.2096    3.5118 C   0  0  0  0  0  0
   13.2276   16.4137    4.4030 C   0  0  0  0  0  0
   14.9640   11.3159    1.3556 H   0  0  0  0  0  0
   19.3062   13.6289    3.2956 H   0  0  0  0  0  0
   19.2405   12.2601    2.1647 H   0  0  0  0  0  0
   18.9620   13.6643    5.7704 H   0  0  0  0  0  0
   21.1570   14.6035    6.3326 H   0  0  0  0  0  0
   19.9520   18.3930    4.7100 H   0  0  0  0  0  0
   17.7640   17.4590    4.1478 H   0  0  0  0  0  0
   22.4638   16.7068    6.8028 H   0  0  0  0  0  0
   22.7829   16.8864    5.0765 H   0  0  0  0  0  0
   22.0452   18.2077    6.0029 H   0  0  0  0  0  0
   13.4604   14.7216    6.6475 H   0  0  0  0  0  0
   11.7965   14.4330    6.0030 H   0  0  0  0  0  0
   12.9640   13.2330    5.8493 H   0  0  0  0  0  0
   12.5640   14.4167    2.4781 H   0  0  0  0  0  0
   12.2823   13.1241    3.6182 H   0  0  0  0  0  0
   11.2933   14.5480    3.6660 H   0  0  0  0  0  0
   13.7197   16.7548    3.4910 H   0  0  0  0  0  0
   12.2171   16.8216    4.4134 H   0  0  0  0  0  0
   13.8625   16.8330    5.1700 H   0  0  0  0  0  0
  1  4  1  0  0  0
  1  8  1  0  0  0
  1 18  1  0  0  0
  2  3  2  0  0  0
  2  7  1  0  0  0
  2 22  1  0  0  0
  3  4  1  0  0  0
  4  5  2  0  0  0
  5  6  1  0  0  0
  5  9  1  0  0  0
  6  7  2  0  0  0
  6 10  1  0  0  0
  8  9  2  0  0  0
  9 11  1  0  0  0
 10 23  1  0  0  0
 10 24  1  0  0  0
 11 12  2  0  0  0
 11 16  1  0  0  0
 12 13  1  0  0  0
 12 25  1  0  0  0
 13 14  2  0  0  0
 13 26  1  0  0  0
 14 15  1  0  0  0
 14 17  1  0  0  0
 15 16  2  0  0  0
 15 27  1  0  0  0
 16 28  1  0  0  0
 17 29  1  0  0  0
 17 30  1  0  0  0
 17 31  1  0  0  0
 18 19  1  0  0  0
 18 20  1  0  0  0
 18 21  1  0  0  0
 19 32  1  0  0  0
 19 33  1  0  0  0
 19 34  1  0  0  0
 20 35  1  0  0  0
 20 36  1  0  0  0
 20 37  1  0  0  0
 21 38  1  0  0  0
 21 39  1  0  0  0
 21 40  1  0  0  0
M  END
> <s_m_entry_id>
6300

> <s_m_entry_name>
dock_pv.226

> <s_m_Source_Path>
/home/csk/Desktop/cluster/DUD-E-result/abl1

> <s_m_Source_File>
dock_pv.maegz

> <i_m_Source_File_Index>
226

> <chembl_id>
CHEMBL306380

> <chembl_pref_name>
None

> <i_lp_mmshare_version>
53161

> <i_f3d_flags>
0

> <r_lp_tautomer_probability>
1

> <s_lp_Force_Field>
OPLS_2005

> <r_lp_Energy>
19.078647

> <b_lp_Chiralities_Consistent>
1

> <s_lp_Variant>
CHEMBL1862_lig954-1

> <s_i_glide_gridfile>
glide-grid_2hzi

> <i_i_glide_lignum>
1117

> <i_i_glide_rotatable_bonds>
2

> <r_i_docking_score>
-8.99552910461554

> <r_i_glide_ligand_efficiency>
-0.428358528791216

> <r_i_glide_ligand_efficiency_sa>
-1.18180870004179

> <r_i_glide_ligand_efficiency_ln>
-2.2241263939381

> <r_i_glide_gscore>
-8.99552910461554

> <r_i_glide_lipo>
-3.41332734154481

> <r_i_glide_hbond>
-0.608

> <r_i_glide_metal>
0

> <r_i_glide_rewards>
-3.91121802420643

> <r_i_glide_evdw>
-8.30783748626709

> <r_i_glide_ecoul>
-5.38286209106445

> <r_i_glide_erotb>
0.15983744910873

> <r_i_glide_esite>
0

> <r_i_glide_emodel>
-28.3271052919436

> <r_i_glide_energy>
-13.6906995773315

> <r_i_glide_einternal>
4.08450222015381

> <i_i_glide_confnum>
3

> <i_i_glide_posenum>
35

> <r_i_glide_eff_state_penalty>
0

> <s_user_duplicate_titles>
CHEMBL1862_lig954

> <s_m_subgroup_title>
dock_pv

> <s_m_subgroupid>
dock_pv

> <b_m_subgroup_collapsed>
0

$$$$
CHEMBL1862_lig5
                    3D
 Schrodinger Suite 2021-1.
 41 44  0  0  1  0            999 V2000
   14.2836   15.4736    4.7217 C   0  0  0  0  0  0
   15.6319   15.5087    4.6144 N   0  0  0  0  0  0
   16.1327   14.4578    3.9559 C   0  0  0  0  0  0
   15.3830   13.3915    3.4191 C   0  0  0  0  0  0
   13.9887   13.4661    3.5959 C   0  0  0  0  0  0
   13.4467   14.5240    4.2516 N   0  0  0  0  0  0
   17.5723   13.0427    2.9501 N   0  0  0  0  0  0
   17.4500   14.2201    3.6018 N   0  0  0  0  0  0
   16.3630   12.5535    2.8079 C   0  0  0  0  0  0
   13.1519   12.4987    3.0269 N   0  0  0  0  0  0
   11.7574   12.4329    2.8741 C   0  0  0  0  0  0
   10.8363   13.2331    3.5844 C   0  0  0  0  0  0
    9.4709   13.1207    3.3232 C   0  0  0  0  0  0
    9.0103   12.1989    2.3880 C   0  0  0  0  0  0
    9.9100   11.3805    1.7081 C   0  0  0  0  0  0
   11.2740   11.4949    1.9594 C   0  0  0  0  0  0
    8.5971   13.9094    3.9892 F   0  0  0  0  0  0
   18.5931   15.1301    3.6953 C   0  0  0  0  0  0
   19.2794   15.1743    5.0882 C   0  0  1  0  0  0
   20.4806   16.1166    5.1542 C   0  0  0  0  0  0
   20.5014   17.3467    4.4764 C   0  0  0  0  0  0
   21.5919   18.2012    4.6121 C   0  0  0  0  0  0
   22.6439   17.8480    5.4476 C   0  0  0  0  0  0
   22.6105   16.6413    6.1406 C   0  0  0  0  0  0
   21.5428   15.7707    5.9851 C   0  0  0  0  0  0
   23.7013   18.6786    5.5941 F   0  0  0  0  0  0
   18.1610   15.6329    6.4020 Cl  0  0  0  0  0  0
   13.8213   16.3193    5.1990 H   0  0  0  0  0  0
   16.2001   11.6319    2.2808 H   0  0  0  0  0  0
   13.6438   11.7753    2.5205 H   0  0  0  0  0  0
   11.1430   13.9339    4.3400 H   0  0  0  0  0  0
    7.9573   12.1083    2.1940 H   0  0  0  0  0  0
    9.5503   10.6439    1.0021 H   0  0  0  0  0  0
   11.9529   10.8501    1.4236 H   0  0  0  0  0  0
   18.2225   16.1125    3.4015 H   0  0  0  0  0  0
   19.3247   14.8381    2.9383 H   0  0  0  0  0  0
   19.6061   14.1632    5.3360 H   0  0  0  0  0  0
   19.6808   17.6593    3.8498 H   0  0  0  0  0  0
   21.6175   19.1472    4.0838 H   0  0  0  0  0  0
   23.4224   16.3833    6.8012 H   0  0  0  0  0  0
   21.5419   14.8369    6.5257 H   0  0  0  0  0  0
  1  2  1  0  0  0
  1  6  2  0  0  0
  1 28  1  0  0  0
  2  3  2  0  0  0
  3  4  1  0  0  0
  3  8  1  0  0  0
  4  5  2  0  0  0
  4  9  1  0  0  0
  5  6  1  0  0  0
  5 10  1  0  0  0
  7  8  1  0  0  0
  7  9  2  0  0  0
  8 18  1  0  0  0
  9 29  1  0  0  0
 10 11  1  0  0  0
 10 30  1  0  0  0
 11 12  1  0  0  0
 11 16  2  0  0  0
 12 13  2  0  0  0
 12 31  1  0  0  0
 13 14  1  0  0  0
 13 17  1  0  0  0
 14 15  2  0  0  0
 14 32  1  0  0  0
 15 16  1  0  0  0
 15 33  1  0  0  0
 16 34  1  0  0  0
 18 19  1  0  0  0
 18 35  1  0  0  0
 18 36  1  0  0  0
 19 20  1  0  0  0
 19 27  1  0  0  0
 19 37  1  0  0  0
 20 21  1  0  0  0
 20 25  2  0  0  0
 21 22  2  0  0  0
 21 38  1  0  0  0
 22 23  1  0  0  0
 22 39  1  0  0  0
 23 24  2  0  0  0
 23 26  1  0  0  0
 24 25  1  0  0  0
 24 40  1  0  0  0
 25 41  1  0  0  0
M  END
> <s_m_entry_id>
6301

> <s_m_entry_name>
dock_pv.227

> <s_m_Source_Path>
/home/csk/Desktop/cluster/DUD-E-result/abl1

> <s_m_Source_File>
dock_pv.maegz

> <i_m_Source_File_Index>
227

> <chembl_id>
CHEMBL1165511

> <chembl_pref_name>
None

> <i_lp_mmshare_version>
53161

> <i_f3d_flags>
0

> <r_lp_tautomer_probability>
1

> <s_lp_Force_Field>
OPLS_2005

> <r_lp_Energy>
14.796313

> <b_lp_Chiralities_Consistent>
1

> <s_lp_Variant>
CHEMBL1862_lig5-2

> <s_i_glide_gridfile>
glide-grid_2hzi

> <i_i_glide_lignum>
7

> <i_i_glide_rotatable_bonds>
5

> <r_i_docking_score>
-8.91281699476215

> <r_i_glide_ligand_efficiency>
-0.330104333139339

> <r_i_glide_ligand_efficiency_sa>
-0.990312998330046

> <r_i_glide_ligand_efficiency_ln>
-2.07475685710854

> <r_i_glide_gscore>
-8.91281699476215

> <r_i_glide_lipo>
-3.94301675162813

> <r_i_glide_hbond>
-0.0477053659313941

> <r_i_glide_metal>
0

> <r_i_glide_rewards>
-2.93513658978154

> <r_i_glide_evdw>
-48.6526184082031

> <r_i_glide_ecoul>
-1.19816732406616

> <r_i_glide_erotb>
0.653614190925815

> <r_i_glide_esite>
-0.0282164593268179

> <r_i_glide_emodel>
-68.0221821254789

> <r_i_glide_energy>
-49.8507857322693

> <r_i_glide_einternal>
11.4386959075928

> <i_i_glide_confnum>
1

> <i_i_glide_posenum>
288

> <r_i_glide_eff_state_penalty>
0

> <s_user_duplicate_titles>
CHEMBL1862_lig5

> <s_m_subgroup_title>
dock_pv

> <s_m_subgroupid>
dock_pv

> <b_m_subgroup_collapsed>
0

$$$$
CHEMBL1862_lig626
                    3D
 Schrodinger Suite 2021-1.
 40 42  0  0  1  0            999 V2000
   14.9353   14.2192    4.1482 C   0  0  0  0  0  0
   16.0227   14.1927    3.4099 N   0  0  0  0  0  0
   15.0490   15.0584    5.2323 N   0  0  0  0  0  0
   13.7432   13.5457    3.9405 N   0  0  0  0  0  0
   16.8671   15.0896    4.0011 C   0  0  0  0  0  0
   13.4553   12.7774    2.8714 C   0  0  0  0  0  0
   16.2959   15.6386    5.1745 C   0  0  0  0  0  0
   18.7609   16.5428    4.2800 C   0  0  0  0  0  0
   19.9825   17.1776    3.6967 C   0  0  0  0  0  0
   18.1238   15.5235    3.5692 C   0  0  0  0  0  0
   14.2606   12.4331    2.0038 O   0  0  0  0  0  0
   18.1979   17.0324    5.4685 C   0  0  0  0  0  0
   20.0198   17.4629    2.4969 O   0  0  0  0  0  0
   16.9671   16.5800    5.9583 C   0  0  0  0  0  0
   21.1443   17.4641    4.5834 C   0  0  0  0  0  0
   12.1592   12.4333    2.8602 N   0  0  0  0  0  0
    9.3003   11.8115    2.8023 O   0  0  0  0  0  0
   11.5820   11.3264    2.0996 C   0  0  0  0  0  0
   21.9650   18.5739    4.3441 C   0  0  0  0  0  0
   21.4664   16.5729    5.6119 C   0  0  0  0  0  0
   10.1186   11.5470    1.6781 C   0  0  0  0  0  0
   22.5811   16.8083    6.4027 C   0  0  0  0  0  0
   23.0498   18.8318    5.1761 C   0  0  0  0  0  0
   23.3635   17.9419    6.1927 C   0  0  0  0  0  0
   14.3175   15.2039    5.9120 H   0  0  0  0  0  0
   13.0078   13.7219    4.6048 H   0  0  0  0  0  0
   18.5632   15.1219    2.6675 H   0  0  0  0  0  0
   18.7003   17.8261    6.0033 H   0  0  0  0  0  0
   16.5311   16.9931    6.8552 H   0  0  0  0  0  0
   11.5211   12.9008    3.4858 H   0  0  0  0  0  0
    9.0371   10.9690    3.1955 H   0  0  0  0  0  0
   12.1681   11.1304    1.2030 H   0  0  0  0  0  0
   11.6705   10.4242    2.6963 H   0  0  0  0  0  0
   21.7626   19.2540    3.5296 H   0  0  0  0  0  0
   20.8787   15.6827    5.7909 H   0  0  0  0  0  0
   10.0452   12.4237    1.0335 H   0  0  0  0  0  0
    9.7320   10.6879    1.1269 H   0  0  0  0  0  0
   22.8479   16.1052    7.1772 H   0  0  0  0  0  0
   23.6645   19.7051    5.0150 H   0  0  0  0  0  0
   24.2259   18.1228    6.8169 H   0  0  0  0  0  0
  1  2  2  0  0  0
  1  3  1  0  0  0
  1  4  1  0  0  0
  2  5  1  0  0  0
  3  7  1  0  0  0
  3 25  1  0  0  0
  4  6  1  0  0  0
  4 26  1  0  0  0
  5 10  2  0  0  0
  5  7  1  0  0  0
  6 11  2  0  0  0
  6 16  1  0  0  0
  7 14  2  0  0  0
  8 10  1  0  0  0
  8  9  1  0  0  0
  8 12  2  0  0  0
  9 13  2  0  0  0
  9 15  1  0  0  0
 10 27  1  0  0  0
 12 14  1  0  0  0
 12 28  1  0  0  0
 14 29  1  0  0  0
 15 19  2  0  0  0
 15 20  1  0  0  0
 16 18  1  0  0  0
 16 30  1  0  0  0
 17 21  1  0  0  0
 17 31  1  0  0  0
 18 21  1  0  0  0
 18 32  1  0  0  0
 18 33  1  0  0  0
 19 23  1  0  0  0
 19 34  1  0  0  0
 20 22  2  0  0  0
 20 35  1  0  0  0
 21 36  1  0  0  0
 21 37  1  0  0  0
 22 24  1  0  0  0
 22 38  1  0  0  0
 23 24  2  0  0  0
 23 39  1  0  0  0
 24 40  1  0  0  0
M  END
> <s_m_entry_id>
6302

> <s_m_entry_name>
dock_pv.228

> <s_m_Source_Path>
/home/csk/Desktop/cluster/DUD-E-result/abl1

> <s_m_Source_File>
dock_pv.maegz

> <i_m_Source_File_Index>
228

> <chembl_id>
CHEMBL170250

> <chembl_pref_name>
None

> <i_lp_mmshare_version>
53161

> <i_f3d_flags>
0

> <r_lp_tautomer_probability>
1

> <s_lp_Force_Field>
OPLS_2005

> <r_lp_Energy>
23.67125

> <b_lp_Chiralities_Consistent>
1

> <s_lp_Variant>
CHEMBL1862_lig626-1

> <s_i_glide_gridfile>
glide-grid_2hzi

> <i_i_glide_lignum>
733

> <i_i_glide_rotatable_bonds>
8

> <r_i_docking_score>
-8.8854789007733

> <r_i_glide_ligand_efficiency>
-0.370228287532221

> <r_i_glide_ligand_efficiency_sa>
-1.06792317608668

> <r_i_glide_ligand_efficiency_ln>
-2.12670282901389

> <r_i_glide_gscore>
-8.8854789007733

> <r_i_glide_lipo>
-3.67224826182331

> <r_i_glide_hbond>
-0.32

> <r_i_glide_metal>
0

> <r_i_glide_rewards>
-3.0218973558275

> <r_i_glide_evdw>
-47.8979301452637

> <r_i_glide_ecoul>
-4.81712341308594

> <r_i_glide_erotb>
1.24613173610359

> <r_i_glide_esite>
0

> <r_i_glide_emodel>
-75.1552738473744

> <r_i_glide_energy>
-52.7150535583496

> <r_i_glide_einternal>
13.5534658432007

> <i_i_glide_confnum>
138

> <i_i_glide_posenum>
176

> <r_i_glide_eff_state_penalty>
0

> <s_user_duplicate_titles>
CHEMBL1862_lig626

> <s_m_subgroup_title>
dock_pv

> <s_m_subgroupid>
dock_pv

> <b_m_subgroup_collapsed>
0

$$$$
CHEMBL1862_lig719
                    3D
 Schrodinger Suite 2021-1.
 37 40  0  0  1  0            999 V2000
   10.7254   14.4330    4.9137 C   0  0  0  0  0  0
    9.9557   13.5874    4.1130 C   0  0  0  0  0  0
   10.5822   12.7382    3.2030 C   0  0  0  0  0  0
   12.1226   14.4494    4.8030 C   0  0  0  0  0  0
   12.7444   13.6164    3.8762 C   0  0  0  0  0  0
   11.9736   12.7644    3.1202 C   0  0  0  0  0  0
   12.8026   12.0395    2.3138 N   0  0  0  0  0  0
   14.0799   12.4330    2.4038 C   0  0  0  0  0  0
   14.1390   13.4123    3.4745 C   0  0  0  0  0  0
   14.9757   12.0330    1.6733 O   0  0  0  0  0  0
   15.2797   13.9996    3.9201 C   0  0  0  0  0  0
   16.7020   13.7798    3.5742 C   0  0  0  0  0  0
   17.2778   12.6019    3.1141 C   0  0  0  0  0  0
   18.5640   12.8704    2.8030 N   0  0  0  0  0  0
   18.9306   14.0775    3.2030 N   0  0  0  0  0  0
   17.8546   14.6159    3.7316 C   0  0  0  0  0  0
   18.0097   15.9151    4.4597 C   0  0  0  0  0  0
   18.9339   16.9533    4.1702 C   0  0  0  0  0  0
   19.0138   18.0495    5.0299 C   0  0  0  0  0  0
   18.1640   18.1685    6.1175 C   0  0  0  0  0  0
   17.2644   17.1583    6.4030 C   0  0  0  0  0  0
   17.2193   16.0314    5.6079 C   0  0  0  0  0  0
   19.8401   16.9656    3.0072 N   0  3  0  0  0  0
   21.0190   17.2330    3.2134 O   0  0  0  0  0  0
   19.3640   16.8330    1.8910 O   0  5  0  0  0  0
   10.2252   15.0864    5.6096 H   0  0  0  0  0  0
    8.8792   13.5819    4.2045 H   0  0  0  0  0  0
    9.9927   12.0707    2.5909 H   0  0  0  0  0  0
   12.7113   15.1192    5.4094 H   0  0  0  0  0  0
   12.5115   11.3061    1.6837 H   0  0  0  0  0  0
   15.1156   14.7649    4.6555 H   0  0  0  0  0  0
   16.8819   11.6220    2.9140 H   0  0  0  0  0  0
   19.1954   12.2339    2.3231 H   0  0  0  0  0  0
   19.7272   18.8330    4.8306 H   0  0  0  0  0  0
   18.2121   19.0409    6.7528 H   0  0  0  0  0  0
   16.6061   17.2329    7.2544 H   0  0  0  0  0  0
   16.5798   15.2330    5.9388 H   0  0  0  0  0  0
  1  2  2  0  0  0
  1  4  1  0  0  0
  1 26  1  0  0  0
  2  3  1  0  0  0
  2 27  1  0  0  0
  3  6  2  0  0  0
  3 28  1  0  0  0
  4  5  2  0  0  0
  4 29  1  0  0  0
  5  6  1  0  0  0
  5  9  1  0  0  0
  6  7  1  0  0  0
  7  8  1  0  0  0
  7 30  1  0  0  0
  8  9  1  0  0  0
  8 10  2  0  0  0
  9 11  2  0  0  0
 11 12  1  0  0  0
 11 31  1  0  0  0
 12 13  2  0  0  0
 12 16  1  0  0  0
 13 14  1  0  0  0
 13 32  1  0  0  0
 14 15  1  0  0  0
 14 33  1  0  0  0
 15 16  2  0  0  0
 16 17  1  0  0  0
 17 18  2  0  0  0
 17 22  1  0  0  0
 18 19  1  0  0  0
 18 23  1  0  0  0
 19 20  2  0  0  0
 19 34  1  0  0  0
 20 21  1  0  0  0
 20 35  1  0  0  0
 21 22  2  0  0  0
 21 36  1  0  0  0
 22 37  1  0  0  0
 23 24  2  0  0  0
 23 25  1  0  0  0
M  CHG  2  23   1  25  -1
M  END
> <s_m_entry_id>
6303

> <s_m_entry_name>
dock_pv.229

> <s_m_Source_Path>
/home/csk/Desktop/cluster/DUD-E-result/abl1

> <s_m_Source_File>
dock_pv.maegz

> <i_m_Source_File_Index>
229

> <chembl_id>
CHEMBL2347053

> <chembl_pref_name>
None

> <i_lp_mmshare_version>
53161

> <i_f3d_flags>
0

> <r_lp_tautomer_probability>
1

> <s_lp_Force_Field>
OPLS_2005

> <r_lp_Energy>
42.920421

> <b_lp_Chiralities_Consistent>
1

> <s_lp_Variant>
CHEMBL1862_lig719-1

> <s_i_glide_gridfile>
glide-grid_2hzi

> <i_i_glide_lignum>
852

> <i_i_glide_rotatable_bonds>
3

> <r_i_docking_score>
-8.86938840221932

> <r_i_glide_ligand_efficiency>
-0.354775536088773

> <r_i_glide_ligand_efficiency_sa>
-1.0373699594945

> <r_i_glide_ligand_efficiency_ln>
-2.10231084544812

> <r_i_glide_gscore>
-8.86938840221932

> <r_i_glide_lipo>
-4.03226741888821

> <r_i_glide_hbond>
-0.546308057962325

> <r_i_glide_metal>
0

> <r_i_glide_rewards>
-2.59574375877216

> <r_i_glide_evdw>
-27.3389282226562

> <r_i_glide_ecoul>
-4.46132278442383

> <r_i_glide_erotb>
0.341075662199762

> <r_i_glide_esite>
0

> <r_i_glide_emodel>
-38.3805965418155

> <r_i_glide_energy>
-31.8002510070801

> <r_i_glide_einternal>
0.666544497013092

> <i_i_glide_confnum>
1

> <i_i_glide_posenum>
209

> <r_i_glide_eff_state_penalty>
0

> <s_user_duplicate_titles>
CHEMBL1862_lig719

> <s_m_subgroup_title>
dock_pv

> <s_m_subgroupid>
dock_pv

> <b_m_subgroup_collapsed>
0

$$$$
CHEMBL1862_lig747
                    3D
 Schrodinger Suite 2021-1.
 39 41  0  0  1  0            999 V2000
   18.5723   16.0235    4.6867 C   0  0  0  0  0  0
   17.6215   16.5299    5.5825 C   0  0  0  0  0  0
   16.3040   16.0672    5.6037 C   0  0  0  0  0  0
   18.2343   15.0145    3.7743 C   0  0  0  0  0  0
   16.9191   14.5430    3.8086 C   0  0  0  0  0  0
   15.9447   15.0643    4.6967 C   0  0  0  0  0  0
   14.7347   14.4453    4.5236 N   0  0  0  0  0  0
   14.9533   13.5382    3.5977 C   0  0  0  0  0  0
   16.2426   13.5634    3.1202 N   0  0  0  0  0  0
   14.0617   12.6179    3.0716 N   0  0  0  0  0  0
   12.7188   12.7080    3.1069 C   0  0  0  0  0  0
   12.1639   11.6503    2.4890 N   0  0  0  0  0  0
   12.0781   13.6336    3.6041 O   0  0  0  0  0  0
   10.8590   11.5513    1.8276 C   0  0  0  0  0  0
    9.6477   12.0797    2.6133 C   0  0  0  0  0  0
   19.9576   16.5598    4.7049 C   0  0  0  0  0  0
   20.9104   16.1569    5.6613 C   0  0  0  0  0  0
   22.1826   16.7392    5.6260 C   0  0  0  0  0  0
   22.5526   17.6680    4.7096 N   0  0  0  0  0  0
   21.6338   18.0329    3.7806 C   0  0  0  0  0  0
   20.3418   17.5042    3.7434 C   0  0  0  0  0  0
   20.5963   15.1270    6.7362 C   0  0  0  0  0  0
   17.9109   17.3046    6.2789 H   0  0  0  0  0  0
   15.5823   16.4631    6.3031 H   0  0  0  0  0  0
   18.9684   14.6147    3.0896 H   0  0  0  0  0  0
   16.5888   12.9480    2.4018 H   0  0  0  0  0  0
   14.4553   11.8435    2.5621 H   0  0  0  0  0  0
   12.7526   10.8335    2.3757 H   0  0  0  0  0  0
   10.6962   10.4942    1.6113 H   0  0  0  0  0  0
   10.9193   12.0336    0.8530 H   0  0  0  0  0  0
    8.7230   11.8451    2.0871 H   0  0  0  0  0  0
    9.6768   13.1628    2.7271 H   0  0  0  0  0  0
    9.5792   11.6303    3.6027 H   0  0  0  0  0  0
   22.9423   16.4618    6.3447 H   0  0  0  0  0  0
   21.9551   18.7639    3.0529 H   0  0  0  0  0  0
   19.6457   17.8279    2.9821 H   0  0  0  0  0  0
   21.2417   15.2618    7.6032 H   0  0  0  0  0  0
   19.5744   15.2322    7.0976 H   0  0  0  0  0  0
   20.7227   14.1158    6.3484 H   0  0  0  0  0  0
  1  2  2  0  0  0
  1  4  1  0  0  0
  1 16  1  0  0  0
  2  3  1  0  0  0
  2 23  1  0  0  0
  3  6  2  0  0  0
  3 24  1  0  0  0
  4  5  2  0  0  0
  4 25  1  0  0  0
  5  6  1  0  0  0
  5  9  1  0  0  0
  6  7  1  0  0  0
  7  8  2  0  0  0
  8  9  1  0  0  0
  8 10  1  0  0  0
  9 26  1  0  0  0
 10 11  1  0  0  0
 10 27  1  0  0  0
 11 12  1  0  0  0
 11 13  2  0  0  0
 12 14  1  0  0  0
 12 28  1  0  0  0
 14 15  1  0  0  0
 14 29  1  0  0  0
 14 30  1  0  0  0
 15 31  1  0  0  0
 15 32  1  0  0  0
 15 33  1  0  0  0
 16 17  2  0  0  0
 16 21  1  0  0  0
 17 18  1  0  0  0
 17 22  1  0  0  0
 18 19  2  0  0  0
 18 34  1  0  0  0
 19 20  1  0  0  0
 20 21  2  0  0  0
 20 35  1  0  0  0
 21 36  1  0  0  0
 22 37  1  0  0  0
 22 38  1  0  0  0
 22 39  1  0  0  0
M  END
> <s_m_entry_id>
6304

> <s_m_entry_name>
dock_pv.230

> <s_m_Source_Path>
/home/csk/Desktop/cluster/DUD-E-result/abl1

> <s_m_Source_File>
dock_pv.maegz

> <i_m_Source_File_Index>
230

> <chembl_id>
CHEMBL2347750

> <chembl_pref_name>
None

> <i_lp_mmshare_version>
53161

> <i_f3d_flags>
0

> <r_lp_tautomer_probability>
1

> <s_lp_Force_Field>
OPLS_2005

> <r_lp_Energy>
13.550331

> <b_lp_Chiralities_Consistent>
1

> <s_lp_Variant>
CHEMBL1862_lig747-1

> <s_i_glide_gridfile>
glide-grid_2hzi

> <i_i_glide_lignum>
880

> <i_i_glide_rotatable_bonds>
5

> <r_i_docking_score>
-8.84940711883305

> <r_i_glide_ligand_efficiency>
-0.402245778128775

> <r_i_glide_ligand_efficiency_sa>
-1.1271084897456

> <r_i_glide_ligand_efficiency_ln>
-2.16311788981036

> <r_i_glide_gscore>
-8.84940711883305

> <r_i_glide_lipo>
-3.59294932799822

> <r_i_glide_hbond>
-0.32

> <r_i_glide_metal>
0

> <r_i_glide_rewards>
-2.71814582302651

> <r_i_glide_evdw>
-46.9876708984375

> <r_i_glide_ecoul>
-4.64514446258545

> <r_i_glide_erotb>
0.8393351493769

> <r_i_glide_esite>
-0.0114919028755375

> <r_i_glide_emodel>
-75.9358071894831

> <r_i_glide_energy>
-51.6328153610229

> <r_i_glide_einternal>
4.43861627578735

> <i_i_glide_confnum>
7

> <i_i_glide_posenum>
104

> <r_i_glide_eff_state_penalty>
0

> <s_user_duplicate_titles>
CHEMBL1862_lig747

> <s_m_subgroup_title>
dock_pv

> <s_m_subgroupid>
dock_pv

> <b_m_subgroup_collapsed>
0

$$$$
CHEMBL1862_lig146
                    3D
 Schrodinger Suite 2021-1.
 31 33  0  0  1  0            999 V2000
   18.3534   15.8443    4.5216 C   0  0  0  0  0  0
   17.4019   15.0693    3.9402 N   0  0  0  0  0  0
   16.1488   15.0787    4.4898 C   0  0  0  0  0  0
   18.1527   16.6386    5.6054 N   0  0  0  0  0  0
   19.6349   15.8048    3.9596 N   0  0  0  0  0  0
   15.1260   14.1640    3.8877 C   0  0  0  0  0  0
   12.8271   13.3426    3.8065 N   0  0  0  0  0  0
   15.8722   15.8729    5.6120 C   0  0  0  0  0  0
   16.9113   16.6325    6.1399 C   0  0  0  0  0  0
   20.7491   16.5295    4.3972 C   0  0  0  0  0  0
   13.7769   14.1816    4.2907 C   0  0  0  0  0  0
   15.4678   13.2206    2.9042 C   0  0  0  0  0  0
   13.2027   12.4354    2.8740 C   0  0  0  0  0  0
   21.0956   17.7043    3.7342 C   0  0  0  0  0  0
   21.4853   16.0927    5.5007 C   0  0  0  0  0  0
   14.5061   12.3545    2.3932 C   0  0  0  0  0  0
   22.1636   18.4676    4.1946 C   0  0  0  0  0  0
   22.5634   16.8488    5.9535 C   0  0  0  0  0  0
   22.8938   18.0361    5.3028 C   0  0  0  0  0  0
   19.7615   15.2236    3.1416 H   0  0  0  0  0  0
   14.9125   15.8879    6.1005 H   0  0  0  0  0  0
   16.7584   17.2332    7.0221 H   0  0  0  0  0  0
   13.4099   14.8735    5.0319 H   0  0  0  0  0  0
   16.4791   13.1441    2.5353 H   0  0  0  0  0  0
   12.4380   11.7666    2.5037 H   0  0  0  0  0  0
   20.5248   18.0314    2.8779 H   0  0  0  0  0  0
   21.2202   15.1753    6.0076 H   0  0  0  0  0  0
   14.7603   11.6324    1.6332 H   0  0  0  0  0  0
   22.4296   19.3889    3.6956 H   0  0  0  0  0  0
   23.1431   16.5158    6.8027 H   0  0  0  0  0  0
   23.7265   18.6248    5.6566 H   0  0  0  0  0  0
  1  2  1  0  0  0
  1  4  2  0  0  0
  1  5  1  0  0  0
  2  3  2  0  0  0
  3  6  1  0  0  0
  3  8  1  0  0  0
  4  9  1  0  0  0
  5 10  1  0  0  0
  5 20  1  0  0  0
  6 11  1  0  0  0
  6 12  2  0  0  0
  7 11  2  0  0  0
  7 13  1  0  0  0
  8  9  2  0  0  0
  8 21  1  0  0  0
  9 22  1  0  0  0
 10 14  2  0  0  0
 10 15  1  0  0  0
 11 23  1  0  0  0
 12 16  1  0  0  0
 12 24  1  0  0  0
 13 16  2  0  0  0
 13 25  1  0  0  0
 14 17  1  0  0  0
 14 26  1  0  0  0
 15 18  2  0  0  0
 15 27  1  0  0  0
 16 28  1  0  0  0
 17 19  2  0  0  0
 17 29  1  0  0  0
 18 19  1  0  0  0
 18 30  1  0  0  0
 19 31  1  0  0  0
M  END
> <s_m_entry_id>
6305

> <s_m_entry_name>
dock_pv.231

> <s_m_Source_Path>
/home/csk/Desktop/cluster/DUD-E-result/abl1

> <s_m_Source_File>
dock_pv.maegz

> <i_m_Source_File_Index>
231

> <chembl_id>
CHEMBL57690

> <chembl_pref_name>
None

> <i_lp_mmshare_version>
53161

> <i_f3d_flags>
0

> <r_lp_tautomer_probability>
0.999999987636

> <s_lp_Force_Field>
OPLS_2005

> <r_lp_Energy>
8.957819

> <b_lp_Chiralities_Consistent>
1

> <s_lp_Variant>
CHEMBL1862_lig146-1

> <s_i_glide_gridfile>
glide-grid_2hzi

> <i_i_glide_lignum>
165

> <i_i_glide_rotatable_bonds>
3

> <r_i_docking_score>
-8.80319849199268

> <r_i_glide_ligand_efficiency>
-0.463326236420668

> <r_i_glide_ligand_efficiency_sa>
-1.2363404919476

> <r_i_glide_ligand_efficiency_ln>
-2.23179989308721

> <r_i_glide_gscore>
-8.80319849199268

> <r_i_glide_lipo>
-4.26926617807078

> <r_i_glide_hbond>
-0.060668481432515

> <r_i_glide_metal>
0

> <r_i_glide_rewards>
-2.79329194251341

> <r_i_glide_evdw>
-42.0512313842773

> <r_i_glide_ecoul>
-2.84927701950073

> <r_i_glide_erotb>
0.849981232163008

> <r_i_glide_esite>
0

> <r_i_glide_emodel>
-66.0458115083309

> <r_i_glide_energy>
-44.9005084037781

> <r_i_glide_einternal>
3.7334291934967

> <i_i_glide_confnum>
15

> <i_i_glide_posenum>
393

> <r_i_glide_eff_state_penalty>
0

> <s_user_duplicate_titles>
CHEMBL1862_lig146

> <s_m_subgroup_title>
dock_pv

> <s_m_subgroupid>
dock_pv

> <b_m_subgroup_collapsed>
0

$$$$
CHEMBL1862_lig815
                    3D
 Schrodinger Suite 2021-1.
 45 49  0  0  1  0            999 V2000
   17.3233   14.3372    3.8674 C   0  0  0  0  0  0
   18.0038   13.2593    3.2754 C   0  0  0  0  0  0
   17.3621   12.1286    2.8040 C   0  0  0  0  0  0
   15.9822   12.0349    2.8800 C   0  0  0  0  0  0
   15.2301   13.0462    3.4931 C   0  0  0  0  0  0
   13.8405   12.8403    3.6467 C   0  0  0  0  0  0
   12.9761   13.8419    4.0612 C   0  0  0  0  0  0
   13.5757   15.0491    4.4609 C   0  0  0  0  0  0
   14.9699   15.2375    4.4655 C   0  0  0  0  0  0
   15.8634   14.2462    3.9544 C   0  0  0  0  0  0
   18.1741   15.5147    4.3550 C   0  0  0  0  0  0
   17.7625   16.6669    4.3897 O   0  0  0  0  0  0
   19.4448   15.2243    4.7112 N   0  0  0  0  0  0
   20.5004   16.1287    4.9331 C   0  0  0  0  0  0
   21.4899   15.7337    5.8375 C   0  0  0  0  0  0
   22.5639   16.5792    6.0963 C   0  0  0  0  0  0
   22.6674   17.8072    5.4415 C   0  0  0  0  0  0
   21.7049   18.1892    4.5108 C   0  0  0  0  0  0
   20.6189   17.3542    4.2546 C   0  0  0  0  0  0
    8.5604   11.5219    1.9107 C   0  0  0  0  0  0
    8.1877   12.3464    2.9160 N   0  0  0  0  0  0
    9.2034   12.9504    3.5360 C   0  0  0  0  0  0
   10.5929   12.8151    3.2029 C   0  0  0  0  0  0
   10.8067   11.9116    2.1324 C   0  0  0  0  0  0
    9.8133   11.2652    1.4914 N   0  0  0  0  0  0
   11.4584   13.6333    4.0488 C   0  0  0  0  0  0
   10.6415   14.2387    4.9844 C   0  0  0  0  0  0
    8.9282   13.9792    4.9039 S   0  0  0  0  0  0
   12.0528   11.6333    1.6311 N   0  0  0  0  0  0
   19.0788   13.2785    3.1662 H   0  0  0  0  0  0
   17.9449   11.3192    2.3942 H   0  0  0  0  0  0
   15.4377   11.2160    2.4643 H   0  0  0  0  0  0
   13.4693   11.8444    3.4792 H   0  0  0  0  0  0
   12.9511   15.8625    4.7986 H   0  0  0  0  0  0
   15.3713   16.1702    4.8238 H   0  0  0  0  0  0
   19.6800   14.2500    4.8020 H   0  0  0  0  0  0
   21.4317   14.7874    6.3567 H   0  0  0  0  0  0
   23.3272   16.2833    6.8027 H   0  0  0  0  0  0
   23.4986   18.4633    5.6531 H   0  0  0  0  0  0
   21.7986   19.1312    3.9889 H   0  0  0  0  0  0
   19.8855   17.6544    3.5198 H   0  0  0  0  0  0
    7.7940   10.9578    1.4049 H   0  0  0  0  0  0
   10.9679   14.8328    5.7964 H   0  0  0  0  0  0
   12.8617   12.1018    2.0006 H   0  0  0  0  0  0
   12.1499   10.9412    0.8928 H   0  0  0  0  0  0
  1  2  1  0  0  0
  1 10  2  0  0  0
  1 11  1  0  0  0
  2  3  2  0  0  0
  2 30  1  0  0  0
  3  4  1  0  0  0
  3 31  1  0  0  0
  4  5  2  0  0  0
  4 32  1  0  0  0
  5  6  1  0  0  0
  5 10  1  0  0  0
  6  7  2  0  0  0
  6 33  1  0  0  0
  7  8  1  0  0  0
  7 26  1  0  0  0
  8  9  2  0  0  0
  8 34  1  0  0  0
  9 10  1  0  0  0
  9 35  1  0  0  0
 11 12  2  0  0  0
 11 13  1  0  0  0
 13 14  1  0  0  0
 13 36  1  0  0  0
 14 15  1  0  0  0
 14 19  2  0  0  0
 15 16  2  0  0  0
 15 37  1  0  0  0
 16 17  1  0  0  0
 16 38  1  0  0  0
 17 18  2  0  0  0
 17 39  1  0  0  0
 18 19  1  0  0  0
 18 40  1  0  0  0
 19 41  1  0  0  0
 20 21  1  0  0  0
 20 25  2  0  0  0
 20 42  1  0  0  0
 21 22  2  0  0  0
 22 23  1  0  0  0
 22 28  1  0  0  0
 23 24  2  0  0  0
 23 26  1  0  0  0
 24 25  1  0  0  0
 24 29  1  0  0  0
 26 27  2  0  0  0
 27 28  1  0  0  0
 27 43  1  0  0  0
 29 44  1  0  0  0
 29 45  1  0  0  0
M  END
> <s_m_entry_id>
6306

> <s_m_entry_name>
dock_pv.232

> <s_m_Source_Path>
/home/csk/Desktop/cluster/DUD-E-result/abl1

> <s_m_Source_File>
dock_pv.maegz

> <i_m_Source_File_Index>
232

> <chembl_id>
CHEMBL3288526

> <chembl_pref_name>
None

> <i_lp_mmshare_version>
53161

> <i_f3d_flags>
0

> <r_lp_tautomer_probability>
1

> <s_lp_Force_Field>
OPLS_2005

> <r_lp_Energy>
37.867211

> <b_lp_Chiralities_Consistent>
1

> <s_lp_Variant>
CHEMBL1862_lig815-1

> <s_i_glide_gridfile>
glide-grid_2hzi

> <i_i_glide_lignum>
952

> <i_i_glide_rotatable_bonds>
4

> <r_i_docking_score>
-8.78582434330697

> <r_i_glide_ligand_efficiency>
-0.302959460114033

> <r_i_glide_ligand_efficiency_sa>
-0.930787445764299

> <r_i_glide_ligand_efficiency_ln>
-2.01173098533473

> <r_i_glide_gscore>
-8.78582434330697

> <r_i_glide_lipo>
-5.36452766901509

> <r_i_glide_hbond>
0

> <r_i_glide_metal>
0

> <r_i_glide_rewards>
-1.69347659971116

> <r_i_glide_evdw>
-42.8346176147461

> <r_i_glide_ecoul>
-0.369555830955505

> <r_i_glide_erotb>
0.49788829362487

> <r_i_glide_esite>
-0.0285441128249614

> <r_i_glide_emodel>
-39.9859825496759

> <r_i_glide_energy>
-43.2041734457016

> <r_i_glide_einternal>
6.97652101516724

> <i_i_glide_confnum>
50

> <i_i_glide_posenum>
173

> <r_i_glide_eff_state_penalty>
0

> <s_user_duplicate_titles>
CHEMBL1862_lig815

> <s_m_subgroup_title>
dock_pv

> <s_m_subgroupid>
dock_pv

> <b_m_subgroup_collapsed>
0

$$$$
CHEMBL1862_lig134
                    3D
 Schrodinger Suite 2021-1.
 38 41  0  0  1  0            999 V2000
   17.0987   15.1604    4.4402 C   0  0  0  0  0  0
   18.4213   15.4635    4.3479 N   0  0  0  0  0  0
   11.7625   13.6330    4.3926 N   0  0  0  0  0  0
    9.5697   14.0333    4.7727 N   0  0  0  0  0  0
   18.8543   16.5114    5.1022 C   0  0  0  0  0  0
   12.9571   13.3427    3.7015 C   0  0  0  0  0  0
   10.5066   13.8615    3.8723 C   0  0  0  0  0  0
   16.6371   14.1472    3.6028 N   0  0  0  0  0  0
   16.2141   15.7716    5.2622 N   0  0  0  0  0  0
   14.1789   13.9301    4.0614 C   0  0  0  0  0  0
   20.2930   16.8365    5.0624 C   0  0  0  0  0  0
   11.5452   13.6330    5.7480 C   0  0  0  0  0  0
   10.1921   13.8885    5.9262 C   0  0  0  0  0  0
   15.3642   13.6009    3.3691 C   0  0  0  0  0  0
   22.0366   18.4434    4.5472 N   0  0  0  0  0  0
   17.9910   17.2357    5.9275 C   0  0  0  0  0  0
   16.6770   16.7953    6.0033 C   0  0  0  0  0  0
   20.7438   18.0329    4.4962 C   0  0  0  0  0  0
   12.9263   12.4197    2.6585 C   0  0  0  0  0  0
   14.1041   12.0728    2.0030 C   0  0  0  0  0  0
   21.2350   16.0181    5.6948 C   0  0  0  0  0  0
   22.9233   17.6504    5.1966 C   0  0  0  0  0  0
   15.3121   12.6583    2.3516 C   0  0  0  0  0  0
   22.5638   16.4338    5.7778 C   0  0  0  0  0  0
   10.3587   13.8694    2.8031 H   0  0  0  0  0  0
   17.3718   13.7592    3.0307 H   0  0  0  0  0  0
   14.1703   14.6342    4.8760 H   0  0  0  0  0  0
   12.3514   13.4539    6.4450 H   0  0  0  0  0  0
    9.6704   13.9648    6.8699 H   0  0  0  0  0  0
   18.3273   18.0780    6.5102 H   0  0  0  0  0  0
   15.9662   17.2330    6.6788 H   0  0  0  0  0  0
   20.0528   18.6994    4.0025 H   0  0  0  0  0  0
   12.0044   11.9321    2.3691 H   0  0  0  0  0  0
   14.0833   11.3424    1.2074 H   0  0  0  0  0  0
   20.9341   15.0868    6.1534 H   0  0  0  0  0  0
   23.9421   18.0072    5.2448 H   0  0  0  0  0  0
   16.2070   12.3892    1.8097 H   0  0  0  0  0  0
   23.3001   15.8319    6.2889 H   0  0  0  0  0  0
  1  2  1  0  0  0
  1  8  1  0  0  0
  1  9  2  0  0  0
  2  5  2  0  0  0
  3  6  1  0  0  0
  3  7  1  0  0  0
  3 12  1  0  0  0
  4  7  2  0  0  0
  4 13  1  0  0  0
  5 11  1  0  0  0
  5 16  1  0  0  0
  6 10  2  0  0  0
  6 19  1  0  0  0
  7 25  1  0  0  0
  8 14  1  0  0  0
  8 26  1  0  0  0
  9 17  1  0  0  0
 10 14  1  0  0  0
 10 27  1  0  0  0
 11 18  1  0  0  0
 11 21  2  0  0  0
 12 13  2  0  0  0
 12 28  1  0  0  0
 13 29  1  0  0  0
 14 23  2  0  0  0
 15 18  2  0  0  0
 15 22  1  0  0  0
 16 17  2  0  0  0
 16 30  1  0  0  0
 17 31  1  0  0  0
 18 32  1  0  0  0
 19 20  2  0  0  0
 19 33  1  0  0  0
 20 23  1  0  0  0
 20 34  1  0  0  0
 21 24  1  0  0  0
 21 35  1  0  0  0
 22 24  2  0  0  0
 22 36  1  0  0  0
 23 37  1  0  0  0
 24 38  1  0  0  0
M  END
> <s_m_entry_id>
6307

> <s_m_entry_name>
dock_pv.233

> <s_m_Source_Path>
/home/csk/Desktop/cluster/DUD-E-result/abl1

> <s_m_Source_File>
dock_pv.maegz

> <i_m_Source_File_Index>
233

> <chembl_id>
CHEMBL291963

> <chembl_pref_name>
None

> <i_lp_mmshare_version>
53161

> <i_f3d_flags>
0

> <r_lp_tautomer_probability>
0.999999987636

> <s_lp_Force_Field>
OPLS_2005

> <r_lp_Energy>
14.895114

> <b_lp_Chiralities_Consistent>
1

> <s_lp_Variant>
CHEMBL1862_lig134-1

> <s_i_glide_gridfile>
glide-grid_2hzi

> <i_i_glide_lignum>
153

> <i_i_glide_rotatable_bonds>
4

> <r_i_docking_score>
-8.76644593245835

> <r_i_glide_ligand_efficiency>
-0.365268580519098

> <r_i_glide_ligand_efficiency_sa>
-1.05361690548478

> <r_i_glide_ligand_efficiency_ln>
-2.09821277762912

> <r_i_glide_gscore>
-8.76644593245835

> <r_i_glide_lipo>
-4.36659711107167

> <r_i_glide_hbond>
0

> <r_i_glide_metal>
0

> <r_i_glide_rewards>
-2.82041409844224

> <r_i_glide_evdw>
-40.9959373474121

> <r_i_glide_ecoul>
-1.88038122653961

> <r_i_glide_erotb>
0.752419328407111

> <r_i_glide_esite>
0

> <r_i_glide_emodel>
-58.841374973651

> <r_i_glide_energy>
-42.8763185739517

> <r_i_glide_einternal>
8.26816177368164

> <i_i_glide_confnum>
32

> <i_i_glide_posenum>
122

> <r_i_glide_eff_state_penalty>
0

> <s_user_duplicate_titles>
CHEMBL1862_lig134

> <s_m_subgroup_title>
dock_pv

> <s_m_subgroupid>
dock_pv

> <b_m_subgroup_collapsed>
0

$$$$
CHEMBL1862_lig472
                    3D
 Schrodinger Suite 2021-1.
 40 42  0  0  1  0            999 V2000
   16.8994   12.0330    2.4030 N   0  0  0  0  0  0
   15.5576   12.1516    2.4595 C   0  0  0  0  0  0
   14.8674   13.1221    3.0742 N   0  0  0  0  0  0
   17.6286   13.0063    2.9729 C   0  0  0  0  0  0
   17.0680   14.0777    3.6452 C   0  0  0  0  0  0
   15.6700   14.0283    3.6430 C   0  0  0  0  0  0
   15.2767   15.1385    4.2954 N   0  0  0  0  0  0
   16.3294   15.8302    4.8053 N   0  0  0  0  0  0
   17.4311   15.2974    4.3282 C   0  0  0  0  0  0
   18.7502   16.0285    4.4607 C   0  0  0  0  0  0
   19.8324   15.6621    5.2648 C   0  0  0  0  0  0
   20.9679   16.4279    5.3847 N   0  0  0  0  0  0
   21.0071   17.5893    4.6909 C   0  0  0  0  0  0
   20.0240   18.0330    3.8896 N   0  0  0  0  0  0
   18.9298   17.2442    3.7998 C   0  0  0  0  0  0
   18.9640   12.9126    2.8030 N   0  0  0  0  0  0
   13.8917   15.5123    4.4165 C   0  0  0  0  0  0
   13.7634   17.0207    4.4025 C   0  0  0  0  0  0
   13.2648   14.6758    5.5369 C   0  0  0  0  0  0
   19.7425   14.5109    6.0030 O   0  0  0  0  0  0
   20.8601   14.1919    6.7993 C   0  0  0  0  0  0
   22.0872   18.4434    4.8042 O   0  0  0  0  0  0
   23.1753   18.0969    5.6576 C   0  0  0  0  0  0
   14.9640   11.4304    1.9258 H   0  0  0  0  0  0
   18.1640   17.6520    3.2030 H   0  0  0  0  0  0
   19.5637   13.6666    3.1076 H   0  0  0  0  0  0
   19.3087   12.1672    2.1960 H   0  0  0  0  0  0
   13.3937   15.1908    3.5004 H   0  0  0  0  0  0
   12.7140   17.3074    4.4030 H   0  0  0  0  0  0
   14.3707   17.5094    5.1657 H   0  0  0  0  0  0
   14.1291   17.3878    3.4605 H   0  0  0  0  0  0
   12.1918   14.8330    5.6030 H   0  0  0  0  0  0
   13.3672   13.6145    5.3185 H   0  0  0  0  0  0
   13.7640   14.8330    6.4918 H   0  0  0  0  0  0
   20.6689   13.2330    7.2030 H   0  0  0  0  0  0
   21.7642   14.1108    6.2001 H   0  0  0  0  0  0
   20.9980   14.9135    7.6030 H   0  0  0  0  0  0
   23.8782   18.9287    5.7008 H   0  0  0  0  0  0
   22.8531   17.8845    6.6777 H   0  0  0  0  0  0
   23.7119   17.2327    5.2710 H   0  0  0  0  0  0
  1  2  2  0  0  0
  1  4  1  0  0  0
  2  3  1  0  0  0
  2 24  1  0  0  0
  3  6  2  0  0  0
  4  5  2  0  0  0
  4 16  1  0  0  0
  5  9  1  0  0  0
  5  6  1  0  0  0
  6  7  1  0  0  0
  7 17  1  0  0  0
  7  8  1  0  0  0
  8  9  2  0  0  0
  9 10  1  0  0  0
 10 15  1  0  0  0
 10 11  2  0  0  0
 11 12  1  0  0  0
 11 20  1  0  0  0
 12 13  2  0  0  0
 13 14  1  0  0  0
 13 22  1  0  0  0
 14 15  2  0  0  0
 15 25  1  0  0  0
 16 26  1  0  0  0
 16 27  1  0  0  0
 17 18  1  0  0  0
 17 19  1  0  0  0
 17 28  1  0  0  0
 18 29  1  0  0  0
 18 30  1  0  0  0
 18 31  1  0  0  0
 19 32  1  0  0  0
 19 33  1  0  0  0
 19 34  1  0  0  0
 20 21  1  0  0  0
 21 35  1  0  0  0
 21 36  1  0  0  0
 21 37  1  0  0  0
 22 23  1  0  0  0
 23 38  1  0  0  0
 23 39  1  0  0  0
 23 40  1  0  0  0
M  END
> <s_m_entry_id>
6308

> <s_m_entry_name>
dock_pv.234

> <s_m_Source_Path>
/home/csk/Desktop/cluster/DUD-E-result/abl1

> <s_m_Source_File>
dock_pv.maegz

> <i_m_Source_File_Index>
234

> <chembl_id>
CHEMBL1242846

> <chembl_pref_name>
None

> <i_lp_mmshare_version>
53161

> <i_f3d_flags>
0

> <r_lp_tautomer_probability>
1

> <s_lp_Force_Field>
OPLS_2005

> <r_lp_Energy>
21.071886

> <b_lp_Chiralities_Consistent>
1

> <s_lp_Variant>
CHEMBL1862_lig472-1

> <s_i_glide_gridfile>
glide-grid_2hzi

> <i_i_glide_lignum>
561

> <i_i_glide_rotatable_bonds>
4

> <r_i_docking_score>
-8.76565001884775

> <r_i_glide_ligand_efficiency>
-0.381115218210772

> <r_i_glide_ligand_efficiency_sa>
-1.08384098345575

> <r_i_glide_ligand_efficiency_ln>
-2.11961365707733

> <r_i_glide_gscore>
-8.76565001884775

> <r_i_glide_lipo>
-2.60823728708396

> <r_i_glide_hbond>
-0.630938997687864

> <r_i_glide_metal>
0

> <r_i_glide_rewards>
-3.94361857905229

> <r_i_glide_evdw>
-18.1843433380127

> <r_i_glide_ecoul>
-5.73805952072144

> <r_i_glide_erotb>
0.187070939985218

> <r_i_glide_esite>
0

> <r_i_glide_emodel>
-39.7753362045441

> <r_i_glide_energy>
-23.9224028587341

> <r_i_glide_einternal>
3.84009981155396

> <i_i_glide_confnum>
1

> <i_i_glide_posenum>
3

> <r_i_glide_eff_state_penalty>
0

> <s_user_duplicate_titles>
CHEMBL1862_lig472

> <s_m_subgroup_title>
dock_pv

> <s_m_subgroupid>
dock_pv

> <b_m_subgroup_collapsed>
0

$$$$
CHEMBL1862_lig548
                    3D
 Schrodinger Suite 2021-1.
 42 46  0  0  1  0            999 V2000
   16.6421   12.1189    2.1321 N   0  0  0  0  0  0
   15.2990   12.2498    2.2340 C   0  0  0  0  0  0
   14.6207   13.0737    3.0530 N   0  0  0  0  0  0
   17.3989   12.9685    2.8643 C   0  0  0  0  0  0
   16.8255   13.9176    3.7048 C   0  0  0  0  0  0
   15.4274   13.8501    3.7807 C   0  0  0  0  0  0
   15.0889   14.6600    4.8281 N   0  0  0  0  0  0
   16.1465   15.4151    5.2253 N   0  0  0  0  0  0
   17.2173   14.9448    4.6227 C   0  0  0  0  0  0
   18.6051   15.3765    4.9765 C   0  0  0  0  0  0
   20.5345   15.2330    6.4587 C   0  0  0  0  0  0
   19.2194   14.9095    6.1380 C   0  0  0  0  0  0
   18.7648   12.8330    2.8030 N   0  0  0  0  0  0
   21.3089   16.0661    5.6565 C   0  0  0  0  0  0
   20.7027   16.5510    4.4960 C   0  0  0  0  0  0
   19.3586   16.2162    4.1401 C   0  0  0  0  0  0
   19.0953   16.8717    2.9059 C   0  0  0  0  0  0
   20.2500   17.5030    2.5062 C   0  0  0  0  0  0
   21.1901   17.3642    3.4948 N   0  0  0  0  0  0
   13.7568   14.8860    5.3700 C   0  0  0  0  0  0
   12.9524   15.6987    4.4030 C   0  0  0  0  0  0
   11.4824   15.1677    4.4708 C   0  0  0  0  0  0
   11.5768   13.7149    4.7564 C   0  0  0  0  0  0
   12.8348   13.6661    5.5742 C   0  0  0  0  0  0
   14.6836   11.6330    1.6030 H   0  0  0  0  0  0
   20.9640   14.8329    7.3595 H   0  0  0  0  0  0
   18.6701   14.2710    6.8030 H   0  0  0  0  0  0
   19.3540   13.4959    3.2854 H   0  0  0  0  0  0
   19.1473   12.1503    2.1480 H   0  0  0  0  0  0
   22.3291   16.3079    5.9199 H   0  0  0  0  0  0
   18.1640   16.8330    2.3823 H   0  0  0  0  0  0
   20.4856   18.0449    1.6030 H   0  0  0  0  0  0
   22.1160   17.7612    3.4265 H   0  0  0  0  0  0
   13.9399   15.3094    6.3495 H   0  0  0  0  0  0
   13.0439   16.7772    4.4943 H   0  0  0  0  0  0
   13.3640   15.4902    3.4107 H   0  0  0  0  0  0
   10.9069   15.6978    5.2030 H   0  0  0  0  0  0
   10.8564   15.2330    3.6030 H   0  0  0  0  0  0
   10.7048   13.3279    5.2864 H   0  0  0  0  0  0
   11.6900   13.1488    3.8284 H   0  0  0  0  0  0
   13.3640   12.8330    5.2030 H   0  0  0  0  0  0
   12.5640   13.5263    6.6224 H   0  0  0  0  0  0
  1  2  2  0  0  0
  1  4  1  0  0  0
  2  3  1  0  0  0
  2 25  1  0  0  0
  3  6  2  0  0  0
  4 13  1  0  0  0
  4  5  2  0  0  0
  5  9  1  0  0  0
  5  6  1  0  0  0
  6  7  1  0  0  0
  7  8  1  0  0  0
  7 20  1  0  0  0
  8  9  2  0  0  0
  9 10  1  0  0  0
 10 12  1  0  0  0
 10 16  2  0  0  0
 11 12  2  0  0  0
 11 14  1  0  0  0
 11 26  1  0  0  0
 12 27  1  0  0  0
 13 28  1  0  0  0
 13 29  1  0  0  0
 14 15  2  0  0  0
 14 30  1  0  0  0
 15 16  1  0  0  0
 15 19  1  0  0  0
 16 17  1  0  0  0
 17 18  2  0  0  0
 17 31  1  0  0  0
 18 19  1  0  0  0
 18 32  1  0  0  0
 19 33  1  0  0  0
 20 21  1  0  0  0
 20 24  1  0  0  0
 20 34  1  0  0  0
 21 22  1  0  0  0
 21 35  1  0  0  0
 21 36  1  0  0  0
 22 23  1  0  0  0
 22 37  1  0  0  0
 22 38  1  0  0  0
 23 24  1  0  0  0
 23 39  1  0  0  0
 23 40  1  0  0  0
 24 41  1  0  0  0
 24 42  1  0  0  0
M  END
> <s_m_entry_id>
6309

> <s_m_entry_name>
dock_pv.235

> <s_m_Source_Path>
/home/csk/Desktop/cluster/DUD-E-result/abl1

> <s_m_Source_File>
dock_pv.maegz

> <i_m_Source_File_Index>
235

> <chembl_id>
CHEMBL1242758

> <chembl_pref_name>
None

> <i_lp_mmshare_version>
53161

> <i_f3d_flags>
0

> <r_lp_tautomer_probability>
1

> <s_lp_Force_Field>
OPLS_2005

> <r_lp_Energy>
40.139279

> <b_lp_Chiralities_Consistent>
1

> <s_lp_Variant>
CHEMBL1862_lig548-1

> <s_i_glide_gridfile>
glide-grid_2hzi

> <i_i_glide_lignum>
651

> <i_i_glide_rotatable_bonds>
2

> <r_i_docking_score>
-8.75075737921579

> <r_i_glide_ligand_efficiency>
-0.364614890800658

> <r_i_glide_ligand_efficiency_sa>
-1.05173133805571

> <r_i_glide_ligand_efficiency_ln>
-2.09445778693738

> <r_i_glide_gscore>
-8.75075737921579

> <r_i_glide_lipo>
-3.79520039923811

> <r_i_glide_hbond>
-0.608

> <r_i_glide_metal>
0

> <r_i_glide_rewards>
-3.59354725537292

> <r_i_glide_evdw>
-4.52885580062866

> <r_i_glide_ecoul>
-5.96955299377441

> <r_i_glide_erotb>
0.36786601449283

> <r_i_glide_esite>
0

> <r_i_glide_emodel>
-33.9135604213865

> <r_i_glide_energy>
-10.4984087944031

> <r_i_glide_einternal>
4.51999187469482

> <i_i_glide_confnum>
28

> <i_i_glide_posenum>
118

> <r_i_glide_eff_state_penalty>
0

> <s_user_duplicate_titles>
CHEMBL1862_lig548

> <s_m_subgroup_title>
dock_pv

> <s_m_subgroupid>
dock_pv

> <b_m_subgroup_collapsed>
0

$$$$
CHEMBL1862_lig444
                    3D
 Schrodinger Suite 2021-1.
 36 39  0  0  1  0            999 V2000
   15.0161   12.0319    2.0029 N   0  0  0  0  0  0
   13.6597   12.0331    2.0125 C   0  0  0  0  0  0
   12.8254   12.7334    2.8030 N   0  0  0  0  0  0
   15.6386   12.8619    2.8548 C   0  0  0  0  0  0
   14.8890   13.7570    3.6420 C   0  0  0  0  0  0
   13.4814   13.5917    3.5758 C   0  0  0  0  0  0
   12.9324   14.5051    4.4322 N   0  0  0  0  0  0
   13.9139   15.2329    5.0199 N   0  0  0  0  0  0
   15.0798   14.8645    4.5251 C   0  0  0  0  0  0
   16.3475   15.6148    4.8033 C   0  0  0  0  0  0
   17.3640   15.6327    3.8377 C   0  0  0  0  0  0
   18.5270   16.3734    4.0195 C   0  0  0  0  0  0
   18.6977   17.1120    5.1885 C   0  0  0  0  0  0
   17.6846   17.1173    6.1502 C   0  0  0  0  0  0
   16.5293   16.3582    5.9717 C   0  0  0  0  0  0
   17.0232   12.7398    2.9053 N   0  0  0  0  0  0
   20.1400   18.0330    5.4278 Cl  0  0  0  0  0  0
   19.4594   16.4069    3.0175 O   0  0  0  0  0  0
   11.5204   14.6915    4.8033 C   0  0  0  0  0  0
   10.3423   14.4740    3.8359 C   0  0  0  0  0  0
    9.9222   13.2323    4.5800 C   0  0  0  0  0  0
   10.8731   13.6332    5.7205 C   0  0  0  0  0  0
   13.1793   11.3443    1.3309 H   0  0  0  0  0  0
   17.2215   15.1659    2.8783 H   0  0  0  0  0  0
   17.7641   17.7214    7.0406 H   0  0  0  0  0  0
   15.7590   16.3789    6.7292 H   0  0  0  0  0  0
   17.5433   13.2981    3.5656 H   0  0  0  0  0  0
   17.4912   12.0763    2.3059 H   0  0  0  0  0  0
   20.2457   16.9011    3.2618 H   0  0  0  0  0  0
   11.4713   15.7083    5.1856 H   0  0  0  0  0  0
    9.5680   15.2331    3.8961 H   0  0  0  0  0  0
   10.6095   14.3125    2.8037 H   0  0  0  0  0  0
    8.8673   13.1919    4.8553 H   0  0  0  0  0  0
   10.1861   12.3376    4.0160 H   0  0  0  0  0  0
   11.5448   12.8452    6.0641 H   0  0  0  0  0  0
   10.3429   14.0577    6.5741 H   0  0  0  0  0  0
  1  2  2  0  0  0
  1  4  1  0  0  0
  2  3  1  0  0  0
  2 23  1  0  0  0
  3  6  2  0  0  0
  4  5  2  0  0  0
  4 16  1  0  0  0
  5  9  1  0  0  0
  5  6  1  0  0  0
  6  7  1  0  0  0
  7  8  1  0  0  0
  7 19  1  0  0  0
  8  9  2  0  0  0
  9 10  1  0  0  0
 10 11  2  0  0  0
 10 15  1  0  0  0
 11 12  1  0  0  0
 11 24  1  0  0  0
 12 13  2  0  0  0
 12 18  1  0  0  0
 13 14  1  0  0  0
 13 17  1  0  0  0
 14 15  2  0  0  0
 14 25  1  0  0  0
 15 26  1  0  0  0
 16 27  1  0  0  0
 16 28  1  0  0  0
 18 29  1  0  0  0
 19 20  1  0  0  0
 19 22  1  0  0  0
 19 30  1  0  0  0
 20 21  1  0  0  0
 20 31  1  0  0  0
 20 32  1  0  0  0
 21 22  1  0  0  0
 21 33  1  0  0  0
 21 34  1  0  0  0
 22 35  1  0  0  0
 22 36  1  0  0  0
M  END
> <s_m_entry_id>
6310

> <s_m_entry_name>
dock_pv.236

> <s_m_Source_Path>
/home/csk/Desktop/cluster/DUD-E-result/abl1

> <s_m_Source_File>
dock_pv.maegz

> <i_m_Source_File_Index>
236

> <chembl_id>
CHEMBL1241580

> <chembl_pref_name>
None

> <i_lp_mmshare_version>
53161

> <i_f3d_flags>
0

> <r_lp_tautomer_probability>
0.999999999997365

> <s_lp_Force_Field>
OPLS_2005

> <r_lp_Energy>
21.091776

> <b_lp_Chiralities_Consistent>
1

> <s_lp_Variant>
CHEMBL1862_lig444-1

> <s_i_glide_gridfile>
glide-grid_2hzi

> <i_i_glide_lignum>
532

> <i_i_glide_rotatable_bonds>
3

> <r_i_docking_score>
-8.74061501608072

> <r_i_glide_ligand_efficiency>
-0.397300682549124

> <r_i_glide_ligand_efficiency_sa>
-1.11325213745184

> <r_i_glide_ligand_efficiency_ln>
-2.13652513160933

> <r_i_glide_gscore>
-8.74061501608072

> <r_i_glide_lipo>
-3.66055059377881

> <r_i_glide_hbond>
-0.235161797022423

> <r_i_glide_metal>
0

> <r_i_glide_rewards>
-3.62164018663028

> <r_i_glide_evdw>
-27.6923027038574

> <r_i_glide_ecoul>
-1.41266632080078

> <r_i_glide_erotb>
0.373252644663784

> <r_i_glide_esite>
0

> <r_i_glide_emodel>
-34.1679913361655

> <r_i_glide_energy>
-29.1049690246582

> <r_i_glide_einternal>
3.71242547035217

> <i_i_glide_confnum>
36

> <i_i_glide_posenum>
293

> <r_i_glide_eff_state_penalty>
0

> <s_user_duplicate_titles>
CHEMBL1862_lig444

> <s_m_subgroup_title>
dock_pv

> <s_m_subgroupid>
dock_pv

> <b_m_subgroup_collapsed>
0

$$$$
CHEMBL1862_lig312
                    3D
 Schrodinger Suite 2021-1.
 37 38  0  0  1  0            999 V2000
   20.0999   16.1909    5.3435 C   0  0  2  0  0  0
   20.2476   16.1040    3.8758 N   0  0  0  0  0  0
   21.2024   15.3312    6.0051 C   0  0  0  0  0  0
   22.4593   15.7162    5.6539 O   0  0  0  0  0  0
   20.9574   14.4333    6.8030 O   0  0  0  0  0  0
   11.1783   13.6354    4.1565 C   0  0  0  0  0  0
   10.9030   12.6509    3.2029 C   0  0  0  0  0  0
   11.9515   12.0332    2.5150 C   0  0  0  0  0  0
   12.4919   14.0428    4.4015 C   0  0  0  0  0  0
   13.5325   13.4497    3.6870 C   0  0  0  0  0  0
   13.2532   12.4575    2.7758 C   0  0  0  0  0  0
   14.4350   12.0330    2.2279 N   0  0  0  0  0  0
   15.5042   12.6742    2.7164 C   0  0  0  0  0  0
   14.9795   13.6524    3.6499 C   0  0  0  0  0  0
   16.6688   12.4366    2.4043 O   0  0  0  0  0  0
   15.7887   14.5186    4.2888 C   0  0  0  0  0  0
   15.4143   15.4597    5.2183 N   0  0  0  0  0  0
   16.1671   16.5779    5.7769 C   0  0  0  0  0  0
   17.6095   16.8036    5.2730 C   0  0  0  0  0  0
   18.6684   15.8252    5.8169 C   0  0  0  0  0  0
    9.7630   14.4185    5.1440 Br  0  0  0  0  0  0
   20.3040   17.2154    5.6636 H   0  0  0  0  0  0
   21.2105   16.2218    3.5862 H   0  0  0  0  0  0
   19.9361   15.2211    3.4933 H   0  0  0  0  0  0
   23.0985   15.1535    6.1054 H   0  0  0  0  0  0
    9.8850   12.3367    3.0249 H   0  0  0  0  0  0
   11.7492   11.2470    1.8006 H   0  0  0  0  0  0
   12.6800   14.8120    5.1343 H   0  0  0  0  0  0
   14.4931   11.2626    1.5800 H   0  0  0  0  0  0
   16.8501   14.5228    4.0918 H   0  0  0  0  0  0
   14.4595   15.4420    5.5465 H   0  0  0  0  0  0
   16.1754   16.4450    6.8584 H   0  0  0  0  0  0
   15.5833   17.4813    5.6029 H   0  0  0  0  0  0
   17.9066   17.8116    5.5661 H   0  0  0  0  0  0
   17.6293   16.7977    4.1839 H   0  0  0  0  0  0
   18.4382   14.8023    5.5241 H   0  0  0  0  0  0
   18.6226   15.8384    6.9052 H   0  0  0  0  0  0
  1  2  1  0  0  0
  1  3  1  0  0  0
  1 20  1  0  0  0
  1 22  1  0  0  0
  2 23  1  0  0  0
  2 24  1  0  0  0
  3  4  1  0  0  0
  3  5  2  0  0  0
  4 25  1  0  0  0
  6  7  2  0  0  0
  6  9  1  0  0  0
  6 21  1  0  0  0
  7  8  1  0  0  0
  7 26  1  0  0  0
  8 11  2  0  0  0
  8 27  1  0  0  0
  9 10  2  0  0  0
  9 28  1  0  0  0
 10 14  1  0  0  0
 10 11  1  0  0  0
 11 12  1  0  0  0
 12 13  1  0  0  0
 12 29  1  0  0  0
 13 14  1  0  0  0
 13 15  2  0  0  0
 14 16  2  0  0  0
 16 17  1  0  0  0
 16 30  1  0  0  0
 17 18  1  0  0  0
 17 31  1  0  0  0
 18 19  1  0  0  0
 18 32  1  0  0  0
 18 33  1  0  0  0
 19 20  1  0  0  0
 19 34  1  0  0  0
 19 35  1  0  0  0
 20 36  1  0  0  0
 20 37  1  0  0  0
M  END
> <s_m_entry_id>
6311

> <s_m_entry_name>
dock_pv.237

> <s_m_Source_Path>
/home/csk/Desktop/cluster/DUD-E-result/abl1

> <s_m_Source_File>
dock_pv.maegz

> <i_m_Source_File_Index>
237

> <chembl_id>
CHEMBL503236

> <chembl_pref_name>
None

> <i_lp_mmshare_version>
53161

> <i_f3d_flags>
0

> <r_lp_tautomer_probability>
0.499999999999422

> <s_lp_Force_Field>
OPLS_2005

> <r_lp_Energy>
27.155329

> <b_lp_Chiralities_Consistent>
1

> <s_lp_Variant>
CHEMBL1862_lig312-2

> <s_i_glide_gridfile>
glide-grid_2hzi

> <i_i_glide_lignum>
357

> <i_i_glide_rotatable_bonds>
7

> <r_i_docking_score>
-8.71767584269699

> <r_i_glide_ligand_efficiency>
-0.415127421080809

> <r_i_glide_ligand_efficiency_sa>
-1.14530507713629

> <r_i_glide_ligand_efficiency_ln>
-2.15542773638412

> <r_i_glide_gscore>
-8.71767584269699

> <r_i_glide_lipo>
-2.97538677188929

> <r_i_glide_hbond>
-0.530263999148213

> <r_i_glide_metal>
0

> <r_i_glide_rewards>
-2.49287386555772

> <r_i_glide_evdw>
-38.4897499084473

> <r_i_glide_ecoul>
-9.56188678741455

> <r_i_glide_erotb>
0.639619307432781

> <r_i_glide_esite>
0

> <r_i_glide_emodel>
-68.3377674737745

> <r_i_glide_energy>
-48.0516366958618

> <r_i_glide_einternal>
8.68632888793945

> <i_i_glide_confnum>
40

> <i_i_glide_posenum>
99

> <r_i_glide_eff_state_penalty>
0

> <s_user_duplicate_titles>
CHEMBL1862_lig312,CHEMBL1862_lig312

> <s_m_subgroup_title>
dock_pv

> <s_m_subgroupid>
dock_pv

> <b_m_subgroup_collapsed>
0

$$$$
CHEMBL1862_lig720
                    3D
 Schrodinger Suite 2021-1.
 36 38  0  0  1  0            999 V2000
   18.1841   14.4922    4.2303 C   0  0  0  0  0  0
   18.4890   15.4205    5.2361 C   0  0  0  0  0  0
   17.4850   16.1479    5.8907 C   0  0  0  0  0  0
   16.1338   15.9516    5.6028 C   0  0  0  0  0  0
   15.7989   14.9709    4.6609 C   0  0  0  0  0  0
   16.8267   14.2626    3.9888 C   0  0  0  0  0  0
   14.5626   14.5223    4.2842 N   0  0  0  0  0  0
   14.8041   13.5245    3.4615 C   0  0  0  0  0  0
   16.1446   13.3646    3.2024 N   0  0  0  0  0  0
   13.9023   12.6450    2.8837 N   0  0  0  0  0  0
   12.5633   12.6855    3.0162 C   0  0  0  0  0  0
   11.9947   11.6330    2.4031 N   0  0  0  0  0  0
   11.9294   13.5650    3.6029 O   0  0  0  0  0  0
   10.6678   11.5449    1.7859 C   0  0  0  0  0  0
    9.4865   12.0819    2.6130 C   0  0  0  0  0  0
   19.9006   15.6336    5.6471 C   0  0  0  0  0  0
   20.6678   16.6020    4.8704 C   0  0  0  0  0  0
   20.3511   15.1092    6.6689 O   0  0  0  0  0  0
   20.4675   17.0350    3.5597 C   0  0  0  0  0  0
   21.3638   18.0330    3.1705 C   0  0  0  0  0  0
   22.2176   18.4061    4.1937 C   0  0  0  0  0  0
   22.0207   17.4226    5.6026 S   0  0  0  0  0  0
   18.9548   13.9277    3.7238 H   0  0  0  0  0  0
   17.7486   16.8684    6.6534 H   0  0  0  0  0  0
   15.3647   16.4934    6.1323 H   0  0  0  0  0  0
   16.5162   12.6557    2.5905 H   0  0  0  0  0  0
   14.2847   11.8844    2.3444 H   0  0  0  0  0  0
   12.5612   10.7977    2.2938 H   0  0  0  0  0  0
   10.6987   12.0331    0.8116 H   0  0  0  0  0  0
   10.4872   10.4901    1.5709 H   0  0  0  0  0  0
    8.5419   11.8574    2.1174 H   0  0  0  0  0  0
    9.4470   11.6309    3.6030 H   0  0  0  0  0  0
    9.5318   13.1641    2.7295 H   0  0  0  0  0  0
   19.7005   16.6444    2.9062 H   0  0  0  0  0  0
   21.3646   18.4842    2.1886 H   0  0  0  0  0  0
   22.9639   19.1841    4.1785 H   0  0  0  0  0  0
  1  2  1  0  0  0
  1  6  2  0  0  0
  1 23  1  0  0  0
  2  3  2  0  0  0
  2 16  1  0  0  0
  3  4  1  0  0  0
  3 24  1  0  0  0
  4  5  2  0  0  0
  4 25  1  0  0  0
  5  7  1  0  0  0
  5  6  1  0  0  0
  6  9  1  0  0  0
  7  8  2  0  0  0
  8  9  1  0  0  0
  8 10  1  0  0  0
  9 26  1  0  0  0
 10 11  1  0  0  0
 10 27  1  0  0  0
 11 12  1  0  0  0
 11 13  2  0  0  0
 12 14  1  0  0  0
 12 28  1  0  0  0
 14 15  1  0  0  0
 14 29  1  0  0  0
 14 30  1  0  0  0
 15 31  1  0  0  0
 15 32  1  0  0  0
 15 33  1  0  0  0
 16 17  1  0  0  0
 16 18  2  0  0  0
 17 19  2  0  0  0
 17 22  1  0  0  0
 19 20  1  0  0  0
 19 34  1  0  0  0
 20 21  2  0  0  0
 20 35  1  0  0  0
 21 22  1  0  0  0
 21 36  1  0  0  0
M  END
> <s_m_entry_id>
6312

> <s_m_entry_name>
dock_pv.238

> <s_m_Source_Path>
/home/csk/Desktop/cluster/DUD-E-result/abl1

> <s_m_Source_File>
dock_pv.maegz

> <i_m_Source_File_Index>
238

> <chembl_id>
CHEMBL2347753

> <chembl_pref_name>
None

> <i_lp_mmshare_version>
53161

> <i_f3d_flags>
0

> <r_lp_tautomer_probability>
1

> <s_lp_Force_Field>
OPLS_2005

> <r_lp_Energy>
16.007505

> <b_lp_Chiralities_Consistent>
1

> <s_lp_Variant>
CHEMBL1862_lig720-1

> <s_i_glide_gridfile>
glide-grid_2hzi

> <i_i_glide_lignum>
853

> <i_i_glide_rotatable_bonds>
6

> <r_i_docking_score>
-8.69671384805379

> <r_i_glide_ligand_efficiency>
-0.395305174911536

> <r_i_glide_ligand_efficiency_sa>
-1.10766064657246

> <r_i_glide_ligand_efficiency_ln>
-2.12579408480953

> <r_i_glide_gscore>
-8.69671384805379

> <r_i_glide_lipo>
-3.29292751775686

> <r_i_glide_hbond>
-0.32

> <r_i_glide_metal>
0

> <r_i_glide_rewards>
-2.82208348980652

> <r_i_glide_evdw>
-47.1080856323242

> <r_i_glide_ecoul>
-5.64480781555176

> <r_i_glide_erotb>
0.940422613458564

> <r_i_glide_esite>
0

> <r_i_glide_emodel>
-72.8412703928394

> <r_i_glide_energy>
-52.752893447876

> <r_i_glide_einternal>
8.85838794708252

> <i_i_glide_confnum>
16

> <i_i_glide_posenum>
343

> <r_i_glide_eff_state_penalty>
0

> <s_user_duplicate_titles>
CHEMBL1862_lig720

> <s_m_subgroup_title>
dock_pv

> <s_m_subgroupid>
dock_pv

> <b_m_subgroup_collapsed>
0

$$$$
CHEMBL1862_lig431
                    3D
 Schrodinger Suite 2021-1.
 42 45  0  0  1  0            999 V2000
   17.2523   12.3309    2.4030 N   0  0  0  0  0  0
   18.2700   13.0761    2.8875 C   0  0  0  0  0  0
   18.1912   14.1499    3.6877 N   0  0  0  0  0  0
   16.0020   12.7209    2.7303 C   0  0  0  0  0  0
   15.7751   13.7627    3.6390 C   0  0  0  0  0  0
   16.9485   14.4220    4.0711 C   0  0  0  0  0  0
   16.5798   15.2965    5.0548 N   0  0  0  0  0  0
   15.2168   15.2839    5.1907 N   0  0  0  0  0  0
   14.6965   14.3715    4.3671 C   0  0  0  0  0  0
   13.2192   13.9797    4.3575 C   0  0  0  0  0  0
   12.5152   14.0330    5.5597 C   0  0  0  0  0  0
   11.1786   13.6330    5.6756 C   0  0  0  0  0  0
   10.4789   13.2330    4.5393 C   0  0  0  0  0  0
   11.1644   13.1001    3.3417 C   0  0  0  0  0  0
   12.5165   13.4447    3.2628 C   0  0  0  0  0  0
   14.9634   12.0330    2.1421 N   0  0  0  0  0  0
    9.1658   12.9095    4.6009 F   0  0  0  0  0  0
   10.5640   13.6330    6.9001 O   0  0  0  0  0  0
   17.4872   16.1108    5.9125 C   0  0  2  0  0  0
   18.0206   17.3431    5.2006 C   0  0  0  0  0  0
   19.4006   17.0445    4.6373 C   0  0  0  0  0  0
   20.0152   16.1362    5.6889 C   0  0  1  0  0  0
   18.8064   15.4289    6.3779 C   0  0  0  0  0  0
   21.1101   15.2330    5.1237 C   0  0  0  0  0  0
   19.2780   12.8330    2.6152 H   0  0  0  0  0  0
   13.0380   14.4330    6.4030 H   0  0  0  0  0  0
   10.6416   12.6936    2.4878 H   0  0  0  0  0  0
   12.9640   13.2834    2.3086 H   0  0  0  0  0  0
   14.0386   12.1675    2.5170 H   0  0  0  0  0  0
   15.1160   11.3040    1.4642 H   0  0  0  0  0  0
   11.1241   13.9814    7.6018 H   0  0  0  0  0  0
   16.8377   16.3758    6.7502 H   0  0  0  0  0  0
   17.3640   17.6330    4.4030 H   0  0  0  0  0  0
   18.0827   18.1746    5.9053 H   0  0  0  0  0  0
   19.3298   16.5545    3.6650 H   0  0  0  0  0  0
   19.9794   17.9584    4.4945 H   0  0  0  0  0  0
   20.5331   16.7736    6.4030 H   0  0  0  0  0  0
   18.8978   15.6330    7.4396 H   0  0  0  0  0  0
   18.8061   14.3442    6.2682 H   0  0  0  0  0  0
   20.7798   14.7092    4.2283 H   0  0  0  0  0  0
   21.9857   15.8178    4.8403 H   0  0  0  0  0  0
   21.4360   14.4921    5.8547 H   0  0  0  0  0  0
  1  2  2  0  0  0
  1  4  1  0  0  0
  2  3  1  0  0  0
  2 25  1  0  0  0
  3  6  2  0  0  0
  4  5  2  0  0  0
  4 16  1  0  0  0
  5  9  1  0  0  0
  5  6  1  0  0  0
  6  7  1  0  0  0
  7  8  1  0  0  0
  7 19  1  0  0  0
  8  9  2  0  0  0
  9 10  1  0  0  0
 10 15  1  0  0  0
 10 11  2  0  0  0
 11 12  1  0  0  0
 11 26  1  0  0  0
 12 13  2  0  0  0
 12 18  1  0  0  0
 13 14  1  0  0  0
 13 17  1  0  0  0
 14 15  2  0  0  0
 14 27  1  0  0  0
 15 28  1  0  0  0
 16 29  1  0  0  0
 16 30  1  0  0  0
 18 31  1  0  0  0
 19 20  1  0  0  0
 19 23  1  0  0  0
 19 32  1  0  0  0
 20 21  1  0  0  0
 20 33  1  0  0  0
 20 34  1  0  0  0
 21 22  1  0  0  0
 21 35  1  0  0  0
 21 36  1  0  0  0
 22 23  1  0  0  0
 22 24  1  0  0  0
 22 37  1  0  0  0
 23 38  1  0  0  0
 23 39  1  0  0  0
 24 40  1  0  0  0
 24 41  1  0  0  0
 24 42  1  0  0  0
M  END
> <s_m_entry_id>
6313

> <s_m_entry_name>
dock_pv.239

> <s_m_Source_Path>
/home/csk/Desktop/cluster/DUD-E-result/abl1

> <s_m_Source_File>
dock_pv.maegz

> <i_m_Source_File_Index>
239

> <chembl_id>
CHEMBL1242656

> <chembl_pref_name>
None

> <i_lp_mmshare_version>
53161

> <i_f3d_flags>
0

> <r_lp_tautomer_probability>
0.999999999997365

> <s_lp_Force_Field>
OPLS_2005

> <r_lp_Energy>
30.144383

> <b_lp_Chiralities_Consistent>
1

> <s_lp_Variant>
CHEMBL1862_lig431-3

> <s_i_glide_gridfile>
glide-grid_2hzi

> <i_i_glide_lignum>
518

> <i_i_glide_rotatable_bonds>
3

> <r_i_docking_score>
-8.6681021849088

> <r_i_glide_ligand_efficiency>
-0.3611709243712

> <r_i_glide_ligand_efficiency_sa>
-1.04179721986016

> <r_i_glide_ligand_efficiency_ln>
-2.07467460613999

> <r_i_glide_gscore>
-8.6681021849088

> <r_i_glide_lipo>
-3.9125964427899

> <r_i_glide_hbond>
-0.459189107898365

> <r_i_glide_metal>
0

> <r_i_glide_rewards>
-2.9111647163522

> <r_i_glide_evdw>
-24.4290809631348

> <r_i_glide_ecoul>
-3.4263596534729

> <r_i_glide_erotb>
0.350256078309327

> <r_i_glide_esite>
0

> <r_i_glide_emodel>
-29.8599820038709

> <r_i_glide_energy>
-27.8554406166077

> <r_i_glide_einternal>
1.81508374214172

> <i_i_glide_confnum>
22

> <i_i_glide_posenum>
19

> <r_i_glide_eff_state_penalty>
0

> <s_user_duplicate_titles>
CHEMBL1862_lig431

> <s_m_subgroup_title>
dock_pv

> <s_m_subgroupid>
dock_pv

> <b_m_subgroup_collapsed>
0

$$$$
CHEMBL1862_lig727
                    3D
 Schrodinger Suite 2021-1.
 56 59  0  0  1  0            999 V2000
   19.5229   14.8330    4.3785 N   0  0  0  0  0  0
   20.1013   15.2180    5.5377 C   0  0  0  0  0  0
   19.5374   15.2328    6.6311 O   0  0  0  0  0  0
   21.3471   15.6845    5.3600 N   0  0  0  0  0  0
   21.9013   16.8490    6.0703 C   0  0  0  0  0  0
   21.9725   18.2118    5.2955 C   0  0  0  0  0  0
   19.3644   17.0052    2.3530 O   0  0  0  0  0  0
   20.5658   17.5088    1.7940 C   0  0  0  0  0  0
   21.5814   17.7036    2.9305 C   0  0  0  0  0  0
   21.1113   18.4329    4.1171 N   0  0  0  0  0  0
   19.6712   18.3459    4.4165 C   0  0  0  0  0  0
   18.7857   17.9739    3.2099 C   0  0  0  0  0  0
   17.6422   13.2577    3.2030 S   0  0  0  0  0  0
   18.1669   14.5870    4.2229 C   0  0  0  0  0  0
   17.2224   15.3193    4.7452 N   0  0  0  0  0  0
   15.9956   14.8573    4.4032 C   0  0  0  0  0  0
   15.9729   13.6933    3.6030 C   0  0  0  0  0  0
   14.7539   13.0788    3.2703 C   0  0  0  0  0  0
   13.5314   13.6703    3.6722 C   0  0  0  0  0  0
   13.6042   14.8706    4.4030 C   0  0  0  0  0  0
   14.8027   15.4540    4.8025 C   0  0  0  0  0  0
   12.1946   13.0551    3.2892 C   0  0  0  0  0  0
   10.9395   13.4374    3.8453 C   0  0  0  0  0  0
    9.7454   12.8727    3.3809 C   0  0  0  0  0  0
    9.7529   11.8856    2.4051 C   0  0  0  0  0  0
   10.9631   11.4526    1.8883 C   0  0  0  0  0  0
   12.1536   12.0330    2.3183 C   0  0  0  0  0  0
   10.8002   14.3538    4.8605 O   0  0  0  0  0  0
   10.5914   13.7927    6.1573 C   0  0  0  0  0  0
    9.3233   14.3772    6.7896 C   0  0  0  0  0  0
   20.0827   14.7923    3.5382 H   0  0  0  0  0  0
   21.8993   15.3118    4.6033 H   0  0  0  0  0  0
   22.9096   16.5756    6.3860 H   0  0  0  0  0  0
   21.3642   17.0101    7.0049 H   0  0  0  0  0  0
   22.9859   18.2716    4.8944 H   0  0  0  0  0  0
   21.9568   19.0580    5.9835 H   0  0  0  0  0  0
   20.4050   18.4330    1.2454 H   0  0  0  0  0  0
   20.9518   16.8010    1.0602 H   0  0  0  0  0  0
   21.7640   16.6986    3.2537 H   0  0  0  0  0  0
   22.5368   18.0966    2.5873 H   0  0  0  0  0  0
   19.3114   19.2329    4.9296 H   0  0  0  0  0  0
   19.4844   17.5734    5.1478 H   0  0  0  0  0  0
   18.5640   18.8329    2.5873 H   0  0  0  0  0  0
   17.8417   17.6029    3.6030 H   0  0  0  0  0  0
   14.7861   12.1608    2.7077 H   0  0  0  0  0  0
   12.7246   15.4158    4.6919 H   0  0  0  0  0  0
   14.8095   16.3568    5.3948 H   0  0  0  0  0  0
    8.8030   13.1855    3.8054 H   0  0  0  0  0  0
    8.8281   11.4340    2.0757 H   0  0  0  0  0  0
   10.9836   10.6652    1.1483 H   0  0  0  0  0  0
   13.0411   11.6584    1.8376 H   0  0  0  0  0  0
   10.5070   12.7075    6.1461 H   0  0  0  0  0  0
   11.4582   14.0234    6.7773 H   0  0  0  0  0  0
    8.9775   13.7430    7.6036 H   0  0  0  0  0  0
    9.4868   15.3724    7.2029 H   0  0  0  0  0  0
    8.5116   14.4326    6.0647 H   0  0  0  0  0  0
  1  2  1  0  0  0
  1 14  1  0  0  0
  1 31  1  0  0  0
  2  3  2  0  0  0
  2  4  1  0  0  0
  4  5  1  0  0  0
  4 32  1  0  0  0
  5  6  1  0  0  0
  5 33  1  0  0  0
  5 34  1  0  0  0
  6 10  1  0  0  0
  6 35  1  0  0  0
  6 36  1  0  0  0
  7  8  1  0  0  0
  7 12  1  0  0  0
  8  9  1  0  0  0
  8 37  1  0  0  0
  8 38  1  0  0  0
  9 10  1  0  0  0
  9 39  1  0  0  0
  9 40  1  0  0  0
 10 11  1  0  0  0
 11 12  1  0  0  0
 11 41  1  0  0  0
 11 42  1  0  0  0
 12 43  1  0  0  0
 12 44  1  0  0  0
 13 14  1  0  0  0
 13 17  1  0  0  0
 14 15  2  0  0  0
 15 16  1  0  0  0
 16 17  1  0  0  0
 16 21  2  0  0  0
 17 18  2  0  0  0
 18 19  1  0  0  0
 18 45  1  0  0  0
 19 20  2  0  0  0
 19 22  1  0  0  0
 20 21  1  0  0  0
 20 46  1  0  0  0
 21 47  1  0  0  0
 22 23  1  0  0  0
 22 27  2  0  0  0
 23 24  2  0  0  0
 23 28  1  0  0  0
 24 25  1  0  0  0
 24 48  1  0  0  0
 25 26  2  0  0  0
 25 49  1  0  0  0
 26 27  1  0  0  0
 26 50  1  0  0  0
 27 51  1  0  0  0
 28 29  1  0  0  0
 29 30  1  0  0  0
 29 52  1  0  0  0
 29 53  1  0  0  0
 30 54  1  0  0  0
 30 55  1  0  0  0
 30 56  1  0  0  0
M  END
> <s_m_entry_id>
6314

> <s_m_entry_name>
dock_pv.240

> <s_m_Source_Path>
/home/csk/Desktop/cluster/DUD-E-result/abl1

> <s_m_Source_File>
dock_pv.maegz

> <i_m_Source_File_Index>
240

> <chembl_id>
CHEMBL2347726

> <chembl_pref_name>
None

> <i_lp_mmshare_version>
53161

> <i_f3d_flags>
0

> <r_lp_tautomer_probability>
1

> <s_lp_Force_Field>
OPLS_2005

> <r_lp_Energy>
40.151999

> <b_lp_Chiralities_Consistent>
1

> <s_lp_Variant>
CHEMBL1862_lig727-1

> <s_i_glide_gridfile>
glide-grid_2hzi

> <i_i_glide_lignum>
860

> <i_i_glide_rotatable_bonds>
9

> <r_i_docking_score>
-8.65486921350288

> <r_i_glide_ligand_efficiency>
-0.288495640450096

> <r_i_glide_ligand_efficiency_sa>
-0.896423030816211

> <r_i_glide_ligand_efficiency_ln>
-1.96648058766096

> <r_i_glide_gscore>
-8.65486921350288

> <r_i_glide_lipo>
-5.25508153031655

> <r_i_glide_hbond>
-0.0665250304280161

> <r_i_glide_metal>
0

> <r_i_glide_rewards>
-0.942846936296088

> <r_i_glide_evdw>
-49.0922698974609

> <r_i_glide_ecoul>
-4.66291904449463

> <r_i_glide_erotb>
0.763635635085014

> <r_i_glide_esite>
0

> <r_i_glide_emodel>
-60.7859776203229

> <r_i_glide_energy>
-53.7551889419556

> <r_i_glide_einternal>
19.6308193206787

> <i_i_glide_confnum>
9

> <i_i_glide_posenum>
131

> <r_i_glide_eff_state_penalty>
0

> <s_user_duplicate_titles>
CHEMBL1862_lig727

> <s_m_subgroup_title>
dock_pv

> <s_m_subgroupid>
dock_pv

> <b_m_subgroup_collapsed>
0

$$$$
CHEMBL1862_lig6
                    3D
 Schrodinger Suite 2021-1.
 35 37  0  0  1  0            999 V2000
   21.7638   18.5117    4.8506 C   0  0  0  0  0  0
   22.6906   17.7540    5.5508 C   0  0  0  0  0  0
   22.4138   16.4316    5.8822 C   0  0  0  0  0  0
   21.1932   15.8617    5.5235 C   0  0  0  0  0  0
   20.2347   16.6343    4.8531 C   0  0  0  0  0  0
   20.5297   17.9617    4.5183 C   0  0  0  0  0  0
   18.8681   16.0873    4.5440 C   0  0  0  0  0  0
   18.8404   14.8609    3.9724 N   0  0  0  0  0  0
   17.8822   16.7803    4.8026 O   0  0  0  0  0  0
   17.7211   14.1173    3.6036 C   0  0  0  0  0  0
   16.0551   14.5892    3.8620 S   0  0  0  0  0  0
   15.5751   13.0478    3.2050 C   0  0  0  0  0  0
   16.6024   12.3361    2.8030 N   0  0  0  0  0  0
   17.8336   12.9419    3.0378 N   0  0  0  0  0  0
   13.9128   12.4330    3.2009 S   0  0  0  0  0  0
   12.8738   13.9145    3.4025 C   0  0  0  0  0  0
   11.6601   13.6990    4.2955 C   0  0  0  0  0  0
   11.8491   13.6331    5.6740 C   0  0  0  0  0  0
   10.7528   13.5951    6.5323 C   0  0  0  0  0  0
    9.4661   13.5891    6.0081 C   0  0  0  0  0  0
    9.2660   13.6064    4.6320 C   0  0  0  0  0  0
   10.3612   13.6610    3.7737 C   0  0  0  0  0  0
    8.4062   13.5558    6.8427 F   0  0  0  0  0  0
   23.8603   18.3187    5.9192 F   0  0  0  0  0  0
   22.0028   19.5340    4.5949 H   0  0  0  0  0  0
   23.1486   15.8524    6.4181 H   0  0  0  0  0  0
   20.9936   14.8358    5.8028 H   0  0  0  0  0  0
   19.7992   18.5692    4.0018 H   0  0  0  0  0  0
   19.7304   14.4565    3.7215 H   0  0  0  0  0  0
   13.4103   14.7796    3.7827 H   0  0  0  0  0  0
   12.5639   14.1770    2.4031 H   0  0  0  0  0  0
   12.8487   13.6767    6.0746 H   0  0  0  0  0  0
   10.9053   13.5791    7.6026 H   0  0  0  0  0  0
    8.2650   13.5860    4.2305 H   0  0  0  0  0  0
   10.1680   13.6934    2.7144 H   0  0  0  0  0  0
  1  6  1  0  0  0
  1  2  2  0  0  0
  1 25  1  0  0  0
  2  3  1  0  0  0
  2 24  1  0  0  0
  3  4  2  0  0  0
  3 26  1  0  0  0
  4  5  1  0  0  0
  4 27  1  0  0  0
  5  7  1  0  0  0
  5  6  2  0  0  0
  6 28  1  0  0  0
  7  8  1  0  0  0
  7  9  2  0  0  0
  8 10  1  0  0  0
  8 29  1  0  0  0
 10 14  2  0  0  0
 10 11  1  0  0  0
 11 12  1  0  0  0
 12 13  2  0  0  0
 12 15  1  0  0  0
 13 14  1  0  0  0
 15 16  1  0  0  0
 16 17  1  0  0  0
 16 30  1  0  0  0
 16 31  1  0  0  0
 17 18  2  0  0  0
 17 22  1  0  0  0
 18 19  1  0  0  0
 18 32  1  0  0  0
 19 20  2  0  0  0
 19 33  1  0  0  0
 20 21  1  0  0  0
 20 23  1  0  0  0
 21 22  2  0  0  0
 21 34  1  0  0  0
 22 35  1  0  0  0
M  END
> <s_m_entry_id>
6315

> <s_m_entry_name>
dock_pv.241

> <s_m_Source_Path>
/home/csk/Desktop/cluster/DUD-E-result/abl1

> <s_m_Source_File>
dock_pv.maegz

> <i_m_Source_File_Index>
241

> <chembl_id>
CHEMBL255738

> <chembl_pref_name>
None

> <i_lp_mmshare_version>
53161

> <i_f3d_flags>
0

> <r_lp_tautomer_probability>
1

> <s_lp_Force_Field>
OPLS_2005

> <r_lp_Energy>
14.366535

> <b_lp_Chiralities_Consistent>
1

> <s_lp_Variant>
CHEMBL1862_lig6-1

> <s_i_glide_gridfile>
glide-grid_2hzi

> <i_i_glide_lignum>
8

> <i_i_glide_rotatable_bonds>
6

> <r_i_docking_score>
-8.65333101737377

> <r_i_glide_ligand_efficiency>
-0.360555459057241

> <r_i_glide_ligand_efficiency_sa>
-1.04002191069284

> <r_i_glide_ligand_efficiency_ln>
-2.07113918794415

> <r_i_glide_gscore>
-8.65333101737377

> <r_i_glide_lipo>
-4.64882650683422

> <r_i_glide_hbond>
0

> <r_i_glide_metal>
0

> <r_i_glide_rewards>
-2.11366688344703

> <r_i_glide_evdw>
-47.334171295166

> <r_i_glide_ecoul>
-2.64682412147522

> <r_i_glide_erotb>
0.872894555887066

> <r_i_glide_esite>
0

> <r_i_glide_emodel>
-71.1518521688616

> <r_i_glide_energy>
-49.9809954166412

> <r_i_glide_einternal>
2.75899744033813

> <i_i_glide_confnum>
78

> <i_i_glide_posenum>
221

> <r_i_glide_eff_state_penalty>
0

> <s_user_duplicate_titles>
CHEMBL1862_lig6,436297

> <s_m_subgroup_title>
dock_pv

> <s_m_subgroupid>
dock_pv

> <b_m_subgroup_collapsed>
0

$$$$
CHEMBL1862_lig28
                    3D
 Schrodinger Suite 2021-1.
 41 43  0  0  1  0            999 V2000
   11.1576   13.0093    3.5240 N   0  0  0  0  0  0
   12.4797   13.0745    3.2846 C   0  0  0  0  0  0
   13.0461   12.4385    2.4018 O   0  0  0  0  0  0
   13.0870   13.9387    4.1209 N   0  0  0  0  0  0
   14.9350   15.5199    5.2025 S   0  0  0  0  0  0
   14.4399   14.2318    4.1389 C   0  0  0  0  0  0
   15.3886   13.6373    3.4643 N   0  0  0  0  0  0
   16.5977   14.1814    3.7463 C   0  0  0  0  0  0
   16.5766   15.2505    4.6789 C   0  0  0  0  0  0
   17.7412   15.9314    5.0474 C   0  0  0  0  0  0
   18.9463   15.5125    4.4856 C   0  0  0  0  0  0
   18.9641   14.4324    3.6029 C   0  0  0  0  0  0
   17.8128   13.7543    3.2093 C   0  0  0  0  0  0
   20.1982   16.2415    4.7946 C   0  0  0  0  0  0
   20.4953   17.4535    4.1503 C   0  0  0  0  0  0
   21.6617   18.1542    4.4733 C   0  0  0  0  0  0
   22.5457   17.6443    5.4214 C   0  0  0  0  0  0
   22.2669   16.4316    6.0467 C   0  0  0  0  0  0
   21.1027   15.7296    5.7325 C   0  0  0  0  0  0
   19.6392   17.9742    3.2140 O   0  0  0  0  0  0
   19.9192   17.5539    1.8822 C   0  0  0  0  0  0
   10.1048   12.4385    2.6648 C   0  0  0  0  0  0
   10.4663   11.2101    1.8010 C   0  0  0  0  0  0
    9.3124   10.6883    1.1797 O   0  0  0  0  0  0
   10.8277   13.4003    4.3935 H   0  0  0  0  0  0
   12.5218   14.4400    4.7870 H   0  0  0  0  0  0
   17.7101   16.7637    5.7361 H   0  0  0  0  0  0
   19.9087   14.1160    3.2030 H   0  0  0  0  0  0
   17.8634   12.9300    2.5149 H   0  0  0  0  0  0
   21.8799   19.0903    3.9826 H   0  0  0  0  0  0
   23.4466   18.1881    5.6684 H   0  0  0  0  0  0
   22.9588   16.0329    6.7744 H   0  0  0  0  0  0
   20.8971   14.7902    6.2252 H   0  0  0  0  0  0
   19.2129   18.0295    1.2031 H   0  0  0  0  0  0
   20.9267   17.8368    1.5680 H   0  0  0  0  0  0
   19.8146   16.4729    1.7647 H   0  0  0  0  0  0
    9.7385   13.2330    2.0169 H   0  0  0  0  0  0
    9.2801   12.1689    3.3271 H   0  0  0  0  0  0
   10.9459   10.4394    2.4028 H   0  0  0  0  0  0
   11.2023   11.4673    1.0393 H   0  0  0  0  0  0
    9.5047    9.7833    0.9016 H   0  0  0  0  0  0
  1  2  1  0  0  0
  1 22  1  0  0  0
  1 25  1  0  0  0
  2  3  2  0  0  0
  2  4  1  0  0  0
  4  6  1  0  0  0
  4 26  1  0  0  0
  5  6  1  0  0  0
  5  9  1  0  0  0
  6  7  2  0  0  0
  7  8  1  0  0  0
  8  9  1  0  0  0
  8 13  2  0  0  0
  9 10  2  0  0  0
 10 11  1  0  0  0
 10 27  1  0  0  0
 11 12  2  0  0  0
 11 14  1  0  0  0
 12 13  1  0  0  0
 12 28  1  0  0  0
 13 29  1  0  0  0
 14 15  1  0  0  0
 14 19  2  0  0  0
 15 16  2  0  0  0
 15 20  1  0  0  0
 16 17  1  0  0  0
 16 30  1  0  0  0
 17 18  2  0  0  0
 17 31  1  0  0  0
 18 19  1  0  0  0
 18 32  1  0  0  0
 19 33  1  0  0  0
 20 21  1  0  0  0
 21 34  1  0  0  0
 21 35  1  0  0  0
 21 36  1  0  0  0
 22 23  1  0  0  0
 22 37  1  0  0  0
 22 38  1  0  0  0
 23 24  1  0  0  0
 23 39  1  0  0  0
 23 40  1  0  0  0
 24 41  1  0  0  0
M  END
> <s_m_entry_id>
6316

> <s_m_entry_name>
dock_pv.242

> <s_m_Source_Path>
/home/csk/Desktop/cluster/DUD-E-result/abl1

> <s_m_Source_File>
dock_pv.maegz

> <i_m_Source_File_Index>
242

> <chembl_id>
CHEMBL2347723

> <chembl_pref_name>
None

> <i_lp_mmshare_version>
53161

> <i_f3d_flags>
0

> <r_lp_tautomer_probability>
1

> <s_lp_Force_Field>
OPLS_2005

> <r_lp_Energy>
13.944008

> <b_lp_Chiralities_Consistent>
1

> <s_lp_Variant>
CHEMBL1862_lig28-1

> <s_i_glide_gridfile>
glide-grid_2hzi

> <i_i_glide_lignum>
39

> <i_i_glide_rotatable_bonds>
8

> <r_i_docking_score>
-8.65165498589271

> <r_i_glide_ligand_efficiency>
-0.360485624412196

> <r_i_glide_ligand_efficiency_sa>
-1.03982047271944

> <r_i_glide_ligand_efficiency_ln>
-2.07073803670266

> <r_i_glide_gscore>
-8.65165498589271

> <r_i_glide_lipo>
-4.37287800990527

> <r_i_glide_hbond>
-0.32

> <r_i_glide_metal>
0

> <r_i_glide_rewards>
-2.18052146303475

> <r_i_glide_evdw>
-46.3187942504883

> <r_i_glide_ecoul>
-2.85160779953003

> <r_i_glide_erotb>
0.965425369501228

> <r_i_glide_esite>
0

> <r_i_glide_emodel>
-72.0447005984523

> <r_i_glide_energy>
-49.1704020500183

> <r_i_glide_einternal>
12.2523050308228

> <i_i_glide_confnum>
22

> <i_i_glide_posenum>
359

> <r_i_glide_eff_state_penalty>
0

> <s_user_duplicate_titles>
CHEMBL1862_lig28

> <s_m_subgroup_title>
dock_pv

> <s_m_subgroupid>
dock_pv

> <b_m_subgroup_collapsed>
0

$$$$
CHEMBL1862_lig178
                    3D
 Schrodinger Suite 2021-1.
 40 43  0  0  1  0            999 V2000
   16.2654   15.6330    4.8298 C   0  0  0  0  0  0
   15.0108   15.9575    5.2030 N   0  0  0  0  0  0
   13.9682   15.2342    4.8017 N   0  0  0  0  0  0
   14.1541   14.1184    4.0609 C   0  0  0  0  0  0
   16.5550   14.5076    4.0042 C   0  0  0  0  0  0
   15.4477   13.6728    3.6371 C   0  0  0  0  0  0
   17.1764   16.6236    5.2147 N   0  0  0  0  0  0
   12.8686   13.3769    3.6721 C   0  0  0  0  0  0
    9.2147   13.7040    6.0041 N   0  0  0  0  0  0
   18.5464   16.6491    5.4717 C   0  0  0  0  0  0
   21.2798   16.8384    5.7923 C   0  0  0  0  0  0
   11.5961   13.6320    4.4975 C   0  0  0  0  0  0
   22.9639   17.0206    6.0033 Cl  0  0  0  0  0  0
   19.2521   15.5630    6.0019 C   0  0  0  0  0  0
   19.2034   17.8334    5.1494 C   0  0  0  0  0  0
   20.5764   17.9248    5.2939 C   0  0  0  0  0  0
   20.6363   15.6506    6.1445 C   0  0  0  0  0  0
   17.8530   14.1784    3.5378 C   0  0  0  0  0  0
   15.7098   12.4806    2.9000 C   0  0  0  0  0  0
    9.1925   13.7446    4.6497 C   0  0  0  0  0  0
   10.4261   13.6332    6.6055 C   0  0  0  0  0  0
   10.3485   13.7039    3.8703 C   0  0  0  0  0  0
   11.6285   13.6294    5.8973 C   0  0  0  0  0  0
   18.0773   12.9919    2.8715 C   0  0  0  0  0  0
   17.0261   12.1454    2.5776 C   0  0  0  0  0  0
   16.7509   17.5378    5.2159 H   0  0  0  0  0  0
   13.0468   12.3034    3.7428 H   0  0  0  0  0  0
   12.6705   13.5807    2.6201 H   0  0  0  0  0  0
   18.7372   14.6518    6.2688 H   0  0  0  0  0  0
   18.6590   18.6788    4.7609 H   0  0  0  0  0  0
   21.0967   18.8331    5.0298 H   0  0  0  0  0  0
   21.2023   14.8158    6.5312 H   0  0  0  0  0  0
   18.6922   14.8316    3.6968 H   0  0  0  0  0  0
   14.9007   11.8202    2.6235 H   0  0  0  0  0  0
    8.2202   13.7746    4.1850 H   0  0  0  0  0  0
   10.4273   13.6101    7.6833 H   0  0  0  0  0  0
   10.2613   13.6751    2.8019 H   0  0  0  0  0  0
   12.5638   13.5648    6.4301 H   0  0  0  0  0  0
   19.0817   12.7401    2.5676 H   0  0  0  0  0  0
   17.2931   11.2356    2.0703 H   0  0  0  0  0  0
  1  2  1  0  0  0
  1  5  2  0  0  0
  1  7  1  0  0  0
  2  3  2  0  0  0
  3  4  1  0  0  0
  4  6  2  0  0  0
  4  8  1  0  0  0
  5  6  1  0  0  0
  5 18  1  0  0  0
  6 19  1  0  0  0
  7 10  1  0  0  0
  7 26  1  0  0  0
  8 12  1  0  0  0
  8 27  1  0  0  0
  8 28  1  0  0  0
  9 21  1  0  0  0
  9 20  2  0  0  0
 10 14  1  0  0  0
 10 15  2  0  0  0
 11 16  2  0  0  0
 11 13  1  0  0  0
 11 17  1  0  0  0
 12 22  2  0  0  0
 12 23  1  0  0  0
 14 17  2  0  0  0
 14 29  1  0  0  0
 15 16  1  0  0  0
 15 30  1  0  0  0
 16 31  1  0  0  0
 17 32  1  0  0  0
 18 24  2  0  0  0
 18 33  1  0  0  0
 19 25  2  0  0  0
 19 34  1  0  0  0
 20 22  1  0  0  0
 20 35  1  0  0  0
 21 23  2  0  0  0
 21 36  1  0  0  0
 22 37  1  0  0  0
 23 38  1  0  0  0
 24 25  1  0  0  0
 24 39  1  0  0  0
 25 40  1  0  0  0
M  END
> <s_m_entry_id>
6317

> <s_m_entry_name>
dock_pv.243

> <s_m_Source_Path>
/home/csk/Desktop/cluster/DUD-E-result/abl1

> <s_m_Source_File>
dock_pv.maegz

> <i_m_Source_File_Index>
243

> <chembl_id>
CHEMBL75232

> <chembl_pref_name>
None

> <i_lp_mmshare_version>
53161

> <i_f3d_flags>
0

> <r_lp_tautomer_probability>
1

> <s_lp_Force_Field>
OPLS_2005

> <r_lp_Energy>
29.426128

> <b_lp_Chiralities_Consistent>
1

> <s_lp_Variant>
CHEMBL1862_lig178-1

> <s_i_glide_gridfile>
glide-grid_2hzi

> <i_i_glide_lignum>
197

> <i_i_glide_rotatable_bonds>
4

> <r_i_docking_score>
-8.63893881856669

> <r_i_glide_ligand_efficiency>
-0.345557552742668

> <r_i_glide_ligand_efficiency_sa>
-1.01041641270885

> <r_i_glide_ligand_efficiency_ln>
-2.04768738810571

> <r_i_glide_gscore>
-8.63893881856669

> <r_i_glide_lipo>
-5.66367619421592

> <r_i_glide_hbond>
0

> <r_i_glide_metal>
0

> <r_i_glide_rewards>
-1.67745511265181

> <r_i_glide_evdw>
-41.8500061035156

> <r_i_glide_ecoul>
1.08181667327881

> <r_i_glide_erotb>
0.632420292485

> <r_i_glide_esite>
0

> <r_i_glide_emodel>
-30.116861905767

> <r_i_glide_energy>
-40.7681894302368

> <r_i_glide_einternal>
31.0522556304932

> <i_i_glide_confnum>
42

> <i_i_glide_posenum>
304

> <r_i_glide_eff_state_penalty>
0

> <s_user_duplicate_titles>
CHEMBL1862_lig178

> <s_m_subgroup_title>
dock_pv

> <s_m_subgroupid>
dock_pv

> <b_m_subgroup_collapsed>
0

$$$$
CHEMBL1862_lig450
                    3D
 Schrodinger Suite 2021-1.
 41 45  0  0  1  0            999 V2000
   17.1627   12.2091    2.4030 N   0  0  0  0  0  0
   18.1692   13.0209    2.8032 C   0  0  0  0  0  0
   18.0881   14.1335    3.5530 N   0  0  0  0  0  0
   15.9209   12.5626    2.7970 C   0  0  0  0  0  0
   15.6910   13.6774    3.6072 C   0  0  0  0  0  0
   16.8480   14.4042    3.9463 C   0  0  0  0  0  0
   16.4611   15.3674    4.8367 N   0  0  0  0  0  0
   15.1119   15.3083    5.0328 N   0  0  0  0  0  0
   14.6117   14.3199    4.2987 C   0  0  0  0  0  0
   13.1460   13.9238    4.3130 C   0  0  0  0  0  0
   12.4398   14.0330    5.5138 C   0  0  0  0  0  0
   11.1162   13.0760    3.2488 C   0  0  0  0  0  0
   12.4743   13.3894    3.2030 C   0  0  0  0  0  0
   17.3594   16.2456    5.6206 C   0  0  0  0  0  0
   14.8745   11.7599    2.4146 N   0  0  0  0  0  0
   18.4434   15.4728    6.4033 C   0  0  0  0  0  0
   19.7915   15.6153    5.6833 C   0  0  0  0  0  0
   19.6210   16.7327    4.6546 C   0  0  0  0  0  0
   18.1732   17.2336    4.7703 C   0  0  0  0  0  0
   10.4230   13.3128    4.3995 N   0  0  0  0  0  0
   11.0572   13.7510    5.5709 C   0  0  0  0  0  0
   10.1638   13.8418    6.5944 N   0  0  0  0  0  0
    9.0091   13.5046    6.0667 C   0  0  0  0  0  0
    9.0966   13.1845    4.7147 C   0  0  0  0  0  0
   19.1645   12.8330    2.4565 H   0  0  0  0  0  0
   12.9637   14.4324    6.3694 H   0  0  0  0  0  0
   10.5549   12.6641    2.4194 H   0  0  0  0  0  0
   12.9658   13.2330    2.2617 H   0  0  0  0  0  0
   16.6635   16.7624    6.2868 H   0  0  0  0  0  0
   13.9783   11.9424    2.8409 H   0  0  0  0  0  0
   14.9640   10.9345    1.8426 H   0  0  0  0  0  0
   18.5640   15.9091    7.3804 H   0  0  0  0  0  0
   18.1872   14.4335    6.5822 H   0  0  0  0  0  0
   20.5949   15.8462    6.3873 H   0  0  0  0  0  0
   20.0730   14.6830    5.1935 H   0  0  0  0  0  0
   20.3328   17.5431    4.8292 H   0  0  0  0  0  0
   19.8188   16.3528    3.6495 H   0  0  0  0  0  0
   17.7645   17.4040    3.7786 H   0  0  0  0  0  0
   18.1647   18.1989    5.2746 H   0  0  0  0  0  0
    8.1153   13.4774    6.6730 H   0  0  0  0  0  0
    8.3570   12.8474    4.0043 H   0  0  0  0  0  0
  1  2  2  0  0  0
  1  4  1  0  0  0
  2  3  1  0  0  0
  2 25  1  0  0  0
  3  6  2  0  0  0
  4 15  1  0  0  0
  4  5  2  0  0  0
  5  9  1  0  0  0
  5  6  1  0  0  0
  6  7  1  0  0  0
  7 14  1  0  0  0
  7  8  1  0  0  0
  8  9  2  0  0  0
  9 10  1  0  0  0
 10 13  1  0  0  0
 10 11  2  0  0  0
 11 21  1  0  0  0
 11 26  1  0  0  0
 12 20  1  0  0  0
 12 13  2  0  0  0
 12 27  1  0  0  0
 13 28  1  0  0  0
 14 16  1  0  0  0
 14 19  1  0  0  0
 14 29  1  0  0  0
 15 30  1  0  0  0
 15 31  1  0  0  0
 16 17  1  0  0  0
 16 32  1  0  0  0
 16 33  1  0  0  0
 17 18  1  0  0  0
 17 34  1  0  0  0
 17 35  1  0  0  0
 18 19  1  0  0  0
 18 36  1  0  0  0
 18 37  1  0  0  0
 19 38  1  0  0  0
 19 39  1  0  0  0
 20 21  1  0  0  0
 20 24  1  0  0  0
 21 22  2  0  0  0
 22 23  1  0  0  0
 23 24  2  0  0  0
 23 40  1  0  0  0
 24 41  1  0  0  0
M  END
> <s_m_entry_id>
6318

> <s_m_entry_name>
dock_pv.244

> <s_m_Source_Path>
/home/csk/Desktop/cluster/DUD-E-result/abl1

> <s_m_Source_File>
dock_pv.maegz

> <i_m_Source_File_Index>
244

> <chembl_id>
CHEMBL1241675

> <chembl_pref_name>
None

> <i_lp_mmshare_version>
53161

> <i_f3d_flags>
0

> <r_lp_tautomer_probability>
1

> <s_lp_Force_Field>
OPLS_2005

> <r_lp_Energy>
29.455634

> <b_lp_Chiralities_Consistent>
1

> <s_lp_Variant>
CHEMBL1862_lig450-1

> <s_i_glide_gridfile>
glide-grid_2hzi

> <i_i_glide_lignum>
538

> <i_i_glide_rotatable_bonds>
2

> <r_i_docking_score>
-8.63670283315323

> <r_i_glide_ligand_efficiency>
-0.359862618048051

> <r_i_glide_ligand_efficiency_sa>
-1.03802341139937

> <r_i_glide_ligand_efficiency_ln>
-2.06715930044252

> <r_i_glide_gscore>
-8.63670283315323

> <r_i_glide_lipo>
-3.44012301747409

> <r_i_glide_hbond>
-0.384044315420363

> <r_i_glide_metal>
0

> <r_i_glide_rewards>
-3.60961551085226

> <r_i_glide_evdw>
-23.4948425292969

> <r_i_glide_ecoul>
-1.75873005390167

> <r_i_glide_erotb>
0.256104696004212

> <r_i_glide_esite>
-0.0204730508606362

> <r_i_glide_emodel>
-32.1239922238625

> <r_i_glide_energy>
-25.2535725831985

> <r_i_glide_einternal>
1.62615287303925

> <i_i_glide_confnum>
39

> <i_i_glide_posenum>
245

> <r_i_glide_eff_state_penalty>
0

> <s_user_duplicate_titles>
CHEMBL1862_lig450

> <s_m_subgroup_title>
dock_pv

> <s_m_subgroupid>
dock_pv

> <b_m_subgroup_collapsed>
0

$$$$
CHEMBL1862_lig470
                    3D
 Schrodinger Suite 2021-1.
 46 48  0  0  1  0            999 V2000
   16.1616   12.1006    2.0041 N   0  0  0  0  0  0
   14.8135   12.0330    2.0038 C   0  0  0  0  0  0
   13.9477   12.7236    2.7739 N   0  0  0  0  0  0
   16.7334   13.0074    2.8208 C   0  0  0  0  0  0
   15.9433   13.8509    3.6300 C   0  0  0  0  0  0
   14.5466   13.6290    3.5486 C   0  0  0  0  0  0
   13.9484   14.5310    4.4029 N   0  0  0  0  0  0
   14.8932   15.2902    5.0121 N   0  0  0  0  0  0
   16.0851   14.9192    4.5813 C   0  0  0  0  0  0
   17.3483   15.5899    5.0427 C   0  0  0  0  0  0
   17.3642   16.9604    5.2954 C   0  0  0  0  0  0
   18.5630   17.6605    5.4765 C   0  0  0  0  0  0
   19.7714   16.9804    5.4402 C   0  0  0  0  0  0
   19.7482   15.5862    5.3682 C   0  0  0  0  0  0
   18.5561   14.8990    5.1522 C   0  0  0  0  0  0
   18.1210   13.0280    2.8032 N   0  0  0  0  0  0
   18.5641   19.0242    5.6030 O   0  0  0  0  0  0
   20.9496   17.6718    5.6042 O   0  0  0  0  0  0
   21.7150   17.8070    4.4154 C   0  0  0  0  0  0
   18.4786   19.5550    6.9117 C   0  0  0  0  0  0
   12.5319   14.6642    4.8029 C   0  0  0  0  0  0
   12.3168   13.9357    6.1194 C   0  0  0  0  0  0
   11.5193   14.0953    3.7957 C   0  0  0  0  0  0
   20.8807   14.8882    5.6390 O   0  0  0  0  0  0
   21.1118   14.8830    7.0340 C   0  0  0  0  0  0
   14.3796   11.3105    1.3270 H   0  0  0  0  0  0
   16.4287   17.4970    5.2848 H   0  0  0  0  0  0
   18.5722   13.8211    5.1249 H   0  0  0  0  0  0
   18.6172   13.7430    3.3142 H   0  0  0  0  0  0
   18.6066   12.3954    2.1763 H   0  0  0  0  0  0
   22.6339   18.3510    4.6343 H   0  0  0  0  0  0
   21.9926   16.8360    4.0040 H   0  0  0  0  0  0
   21.1696   18.3664    3.6533 H   0  0  0  0  0  0
   18.1640   20.5921    6.8435 H   0  0  0  0  0  0
   17.7640   19.0259    7.5456 H   0  0  0  0  0  0
   19.4562   19.5772    7.3851 H   0  0  0  0  0  0
   12.3348   15.7309    4.9186 H   0  0  0  0  0  0
   11.2892   14.0295    6.4741 H   0  0  0  0  0  0
   12.5623   12.8795    6.0190 H   0  0  0  0  0  0
   12.9640   14.3609    6.8729 H   0  0  0  0  0  0
   10.5042   14.4195    4.0268 H   0  0  0  0  0  0
   11.7560   14.4329    2.8032 H   0  0  0  0  0  0
   11.5143   13.0047    3.7738 H   0  0  0  0  0  0
   22.1640   14.8330    7.2020 H   0  0  0  0  0  0
   20.7935   15.7715    7.5772 H   0  0  0  0  0  0
   20.6204   14.0330    7.4855 H   0  0  0  0  0  0
  1  2  2  0  0  0
  1  4  1  0  0  0
  2  3  1  0  0  0
  2 26  1  0  0  0
  3  6  2  0  0  0
  4  5  2  0  0  0
  4 16  1  0  0  0
  5  9  1  0  0  0
  5  6  1  0  0  0
  6  7  1  0  0  0
  7  8  1  0  0  0
  7 21  1  0  0  0
  8  9  2  0  0  0
  9 10  1  0  0  0
 10 15  1  0  0  0
 10 11  2  0  0  0
 11 12  1  0  0  0
 11 27  1  0  0  0
 12 13  2  0  0  0
 12 17  1  0  0  0
 13 14  1  0  0  0
 13 18  1  0  0  0
 14 15  2  0  0  0
 14 24  1  0  0  0
 15 28  1  0  0  0
 16 29  1  0  0  0
 16 30  1  0  0  0
 17 20  1  0  0  0
 18 19  1  0  0  0
 19 31  1  0  0  0
 19 32  1  0  0  0
 19 33  1  0  0  0
 20 34  1  0  0  0
 20 35  1  0  0  0
 20 36  1  0  0  0
 21 22  1  0  0  0
 21 23  1  0  0  0
 21 37  1  0  0  0
 22 38  1  0  0  0
 22 39  1  0  0  0
 22 40  1  0  0  0
 23 41  1  0  0  0
 23 42  1  0  0  0
 23 43  1  0  0  0
 24 25  1  0  0  0
 25 44  1  0  0  0
 25 45  1  0  0  0
 25 46  1  0  0  0
M  END
> <s_m_entry_id>
6319

> <s_m_entry_name>
dock_pv.245

> <s_m_Source_Path>
/home/csk/Desktop/cluster/DUD-E-result/abl1

> <s_m_Source_File>
dock_pv.maegz

> <i_m_Source_File_Index>
245

> <chembl_id>
CHEMBL1242660

> <chembl_pref_name>
None

> <i_lp_mmshare_version>
53161

> <i_f3d_flags>
0

> <r_lp_tautomer_probability>
1

> <s_lp_Force_Field>
OPLS_2005

> <r_lp_Energy>
27.07617

> <b_lp_Chiralities_Consistent>
1

> <s_lp_Variant>
CHEMBL1862_lig470-1

> <s_i_glide_gridfile>
glide-grid_2hzi

> <i_i_glide_lignum>
559

> <i_i_glide_rotatable_bonds>
5

> <r_i_docking_score>
-8.62821503443314

> <r_i_glide_ligand_efficiency>
-0.345128601377326

> <r_i_glide_ligand_efficiency_sa>
-1.00916215130911

> <r_i_glide_ligand_efficiency_ln>
-2.04514552990018

> <r_i_glide_gscore>
-8.62821503443314

> <r_i_glide_lipo>
-3.21357552822382

> <r_i_glide_hbond>
-0.608

> <r_i_glide_metal>
0

> <r_i_glide_rewards>
-3.18108848539041

> <r_i_glide_evdw>
-22.2642059326172

> <r_i_glide_ecoul>
-4.16657209396362

> <r_i_glide_erotb>
0.112645089906491

> <r_i_glide_esite>
0

> <r_i_glide_emodel>
-28.2077320987794

> <r_i_glide_energy>
-26.4307780265808

> <r_i_glide_einternal>
15.7082099914551

> <i_i_glide_confnum>
2

> <i_i_glide_posenum>
7

> <r_i_glide_eff_state_penalty>
0

> <s_user_duplicate_titles>
CHEMBL1862_lig470

> <s_m_subgroup_title>
dock_pv

> <s_m_subgroupid>
dock_pv

> <b_m_subgroup_collapsed>
0

$$$$
CHEMBL1862_lig738
                    3D
 Schrodinger Suite 2021-1.
 46 48  0  0  1  0            999 V2000
   18.1185   15.0582    3.6548 C   0  0  0  0  0  0
   18.5640   13.8114    3.2029 C   0  0  0  0  0  0
   17.6820   12.7955    2.8032 C   0  0  0  0  0  0
   16.7544   15.2329    3.8354 C   0  0  0  0  0  0
   15.8576   14.2514    3.4531 C   0  0  0  0  0  0
   16.3010   13.0329    2.9050 C   0  0  0  0  0  0
   15.2952   12.1911    2.5463 N   0  0  0  0  0  0
   14.1254   12.7029    2.8358 C   0  0  0  0  0  0
   14.1213   14.2698    3.6033 S   0  0  0  0  0  0
   12.9711   12.0330    2.5021 N   0  0  0  0  0  0
   11.6907   12.3147    2.8029 C   0  0  0  0  0  0
   10.8809   11.4483    2.1783 N   0  0  0  0  0  0
   11.2863   13.2430    3.5053 O   0  0  0  0  0  0
    9.4715   11.6723    1.8722 C   0  0  0  0  0  0
    9.2298   11.6886    0.3591 C   0  0  0  0  0  0
   19.0494   16.1875    3.9836 C   0  0  0  0  0  0
   18.9047   16.9990    5.1352 C   0  0  0  0  0  0
   19.8117   18.0326    5.3831 C   0  0  0  0  0  0
   20.8694   18.2822    4.5157 C   0  0  0  0  0  0
   20.9732   17.5516    3.3426 C   0  0  0  0  0  0
   20.0665   16.5292    3.0796 C   0  0  0  0  0  0
   17.8491   16.8965    6.0133 O   0  0  0  0  0  0
   17.7383   15.6871    6.7529 C   0  0  0  0  0  0
   16.3507   15.6330    7.4363 C   0  0  0  0  0  0
   15.1499   15.3537    6.5555 C   0  0  0  0  0  0
   19.6259   13.6364    3.1431 H   0  0  0  0  0  0
   18.0646   11.8619    2.4181 H   0  0  0  0  0  0
   16.3980   16.1040    4.3397 H   0  0  0  0  0  0
   13.1337   11.1727    1.9914 H   0  0  0  0  0  0
   11.2525   10.5472    1.9142 H   0  0  0  0  0  0
    8.8937   10.8680    2.3295 H   0  0  0  0  0  0
    9.0959   12.5982    2.3137 H   0  0  0  0  0  0
    8.1929   11.9285    0.1353 H   0  0  0  0  0  0
    9.8501   12.4327   -0.1416 H   0  0  0  0  0  0
    9.4339   10.7118   -0.0818 H   0  0  0  0  0  0
   19.6866   18.6552    6.2559 H   0  0  0  0  0  0
   21.5749   19.0740    4.7241 H   0  0  0  0  0  0
   21.7536   17.7807    2.6314 H   0  0  0  0  0  0
   20.1560   16.0329    2.1292 H   0  0  0  0  0  0
   18.5552   15.6330    7.4713 H   0  0  0  0  0  0
   17.8907   14.8197    6.1327 H   0  0  0  0  0  0
   16.1640   16.5956    7.8983 H   0  0  0  0  0  0
   16.3700   14.8859    8.2339 H   0  0  0  0  0  0
   14.2623   15.2252    7.1599 H   0  0  0  0  0  0
   15.2771   14.4330    6.0029 H   0  0  0  0  0  0
   14.9588   16.1766    5.8703 H   0  0  0  0  0  0
  1  2  2  0  0  0
  1  4  1  0  0  0
  1 16  1  0  0  0
  2  3  1  0  0  0
  2 26  1  0  0  0
  3  6  2  0  0  0
  3 27  1  0  0  0
  4  5  2  0  0  0
  4 28  1  0  0  0
  5  6  1  0  0  0
  5  9  1  0  0  0
  6  7  1  0  0  0
  7  8  2  0  0  0
  8  9  1  0  0  0
  8 10  1  0  0  0
 10 11  1  0  0  0
 10 29  1  0  0  0
 11 12  1  0  0  0
 11 13  2  0  0  0
 12 14  1  0  0  0
 12 30  1  0  0  0
 14 15  1  0  0  0
 14 31  1  0  0  0
 14 32  1  0  0  0
 15 33  1  0  0  0
 15 34  1  0  0  0
 15 35  1  0  0  0
 16 17  2  0  0  0
 16 21  1  0  0  0
 17 18  1  0  0  0
 17 22  1  0  0  0
 18 19  2  0  0  0
 18 36  1  0  0  0
 19 20  1  0  0  0
 19 37  1  0  0  0
 20 21  2  0  0  0
 20 38  1  0  0  0
 21 39  1  0  0  0
 22 23  1  0  0  0
 23 24  1  0  0  0
 23 40  1  0  0  0
 23 41  1  0  0  0
 24 25  1  0  0  0
 24 42  1  0  0  0
 24 43  1  0  0  0
 25 44  1  0  0  0
 25 45  1  0  0  0
 25 46  1  0  0  0
M  END
> <s_m_entry_id>
6320

> <s_m_entry_name>
dock_pv.246

> <s_m_Source_Path>
/home/csk/Desktop/cluster/DUD-E-result/abl1

> <s_m_Source_File>
dock_pv.maegz

> <i_m_Source_File_Index>
246

> <chembl_id>
CHEMBL2347713

> <chembl_pref_name>
None

> <i_lp_mmshare_version>
53161

> <i_f3d_flags>
0

> <r_lp_tautomer_probability>
1

> <s_lp_Force_Field>
OPLS_2005

> <r_lp_Energy>
17.397986

> <b_lp_Chiralities_Consistent>
1

> <s_lp_Variant>
CHEMBL1862_lig738-1

> <s_i_glide_gridfile>
glide-grid_2hzi

> <i_i_glide_lignum>
871

> <i_i_glide_rotatable_bonds>
8

> <r_i_docking_score>
-8.61616876030663

> <r_i_glide_ligand_efficiency>
-0.344646750412265

> <r_i_glide_ligand_efficiency_sa>
-1.00775321054161

> <r_i_glide_ligand_efficiency_ln>
-2.04229020193449

> <r_i_glide_gscore>
-8.61616876030663

> <r_i_glide_lipo>
-3.85976402323043

> <r_i_glide_hbond>
-0.440357542970689

> <r_i_glide_metal>
0

> <r_i_glide_rewards>
-2.48433459990759

> <r_i_glide_evdw>
-27.587194442749

> <r_i_glide_ecoul>
-7.24113130569458

> <r_i_glide_erotb>
0.635602217255846

> <r_i_glide_esite>
-0.00178539346213116

> <r_i_glide_emodel>
-46.2887515707446

> <r_i_glide_energy>
-34.8283257484436

> <r_i_glide_einternal>
11.8837614059448

> <i_i_glide_confnum>
71

> <i_i_glide_posenum>
143

> <r_i_glide_eff_state_penalty>
0

> <s_user_duplicate_titles>
CHEMBL1862_lig738

> <s_m_subgroup_title>
dock_pv

> <s_m_subgroupid>
dock_pv

> <b_m_subgroup_collapsed>
0

$$$$
CHEMBL1862_lig514
                    3D
 Schrodinger Suite 2021-1.
 45 47  0  0  1  0            999 V2000
   17.2743   12.0330    2.4215 N   0  0  0  0  0  0
   18.3041   12.8169    2.8159 C   0  0  0  0  0  0
   18.2517   13.9866    3.4845 N   0  0  0  0  0  0
   16.0422   12.4572    2.7640 C   0  0  0  0  0  0
   15.8415   13.6145    3.5305 C   0  0  0  0  0  0
   17.0164   14.3277    3.8384 C   0  0  0  0  0  0
   16.6504   15.3438    4.6949 N   0  0  0  0  0  0
   15.2940   15.3097    4.8746 N   0  0  0  0  0  0
   14.7761   14.3078    4.1852 C   0  0  0  0  0  0
   13.3113   13.9491    4.2562 C   0  0  0  0  0  0
   12.5716   13.3844    3.2013 C   0  0  0  0  0  0
   11.2166   13.0337    3.3525 C   0  0  0  0  0  0
   10.5471   13.3322    4.5421 C   0  0  0  0  0  0
   11.2920   13.8387    5.6055 C   0  0  0  0  0  0
   12.6516   14.0842    5.4750 C   0  0  0  0  0  0
   14.9613   11.6766    2.4153 N   0  0  0  0  0  0
   17.5628   16.2733    5.4305 C   0  0  0  0  0  0
   18.3451   17.1734    4.4260 C   0  0  0  0  0  0
   10.5267   12.3404    2.3904 O   0  0  0  0  0  0
    9.2049   13.0225    4.6311 O   0  0  0  0  0  0
    8.5492   13.1645    5.8853 C   0  0  0  0  0  0
   18.5823   15.4418    6.2575 C   0  0  0  0  0  0
   11.1822   11.1947    1.8564 C   0  0  0  0  0  0
   16.7769   17.1675    6.3933 C   0  0  0  0  0  0
   19.2972   12.3935    2.7893 H   0  0  0  0  0  0
   13.0285   13.2334    2.2385 H   0  0  0  0  0  0
   10.8347   14.0323    6.5676 H   0  0  0  0  0  0
   13.1911   14.4363    6.3386 H   0  0  0  0  0  0
   14.0769   11.9653    2.7944 H   0  0  0  0  0  0
   14.9881   10.7935    1.9247 H   0  0  0  0  0  0
   17.7650   17.9972    4.0066 H   0  0  0  0  0  0
   19.1924   17.6581    4.9167 H   0  0  0  0  0  0
   18.7667   16.6062    3.5977 H   0  0  0  0  0  0
    7.5470   12.7672    5.8071 H   0  0  0  0  0  0
    9.0487   12.5965    6.6731 H   0  0  0  0  0  0
    8.4819   14.2066    6.1912 H   0  0  0  0  0  0
   18.1667   15.0911    7.2034 H   0  0  0  0  0  0
   18.9783   14.5623    5.7553 H   0  0  0  0  0  0
   19.4750   16.0304    6.4635 H   0  0  0  0  0  0
   10.4759   10.5985    1.2787 H   0  0  0  0  0  0
   12.0054   11.4742    1.2033 H   0  0  0  0  0  0
   11.5808   10.5585    2.6464 H   0  0  0  0  0  0
   16.3255   16.5997    7.2117 H   0  0  0  0  0  0
   17.4010   17.9485    6.8300 H   0  0  0  0  0  0
   15.9579   17.6327    5.8552 H   0  0  0  0  0  0
  1  2  2  0  0  0
  1  4  1  0  0  0
  2  3  1  0  0  0
  2 25  1  0  0  0
  3  6  2  0  0  0
  4  5  2  0  0  0
  4 16  1  0  0  0
  5  9  1  0  0  0
  5  6  1  0  0  0
  6  7  1  0  0  0
  7 17  1  0  0  0
  7  8  1  0  0  0
  8  9  2  0  0  0
  9 10  1  0  0  0
 10 15  1  0  0  0
 10 11  2  0  0  0
 11 12  1  0  0  0
 11 26  1  0  0  0
 12 13  2  0  0  0
 12 19  1  0  0  0
 13 14  1  0  0  0
 13 20  1  0  0  0
 14 15  2  0  0  0
 14 27  1  0  0  0
 15 28  1  0  0  0
 16 29  1  0  0  0
 16 30  1  0  0  0
 17 18  1  0  0  0
 17 22  1  0  0  0
 17 24  1  0  0  0
 18 31  1  0  0  0
 18 32  1  0  0  0
 18 33  1  0  0  0
 19 23  1  0  0  0
 20 21  1  0  0  0
 21 34  1  0  0  0
 21 35  1  0  0  0
 21 36  1  0  0  0
 22 37  1  0  0  0
 22 38  1  0  0  0
 22 39  1  0  0  0
 23 40  1  0  0  0
 23 41  1  0  0  0
 23 42  1  0  0  0
 24 43  1  0  0  0
 24 44  1  0  0  0
 24 45  1  0  0  0
M  END
> <s_m_entry_id>
6321

> <s_m_entry_name>
dock_pv.247

> <s_m_Source_Path>
/home/csk/Desktop/cluster/DUD-E-result/abl1

> <s_m_Source_File>
dock_pv.maegz

> <i_m_Source_File_Index>
247

> <chembl_id>
CHEMBL1242379

> <chembl_pref_name>
None

> <i_lp_mmshare_version>
53161

> <i_f3d_flags>
0

> <r_lp_tautomer_probability>
1

> <s_lp_Force_Field>
OPLS_2005

> <r_lp_Energy>
26.299172

> <b_lp_Chiralities_Consistent>
1

> <s_lp_Variant>
CHEMBL1862_lig514-1

> <s_i_glide_gridfile>
glide-grid_2hzi

> <i_i_glide_lignum>
611

> <i_i_glide_rotatable_bonds>
4

> <r_i_docking_score>
-8.61549490950907

> <r_i_glide_ligand_efficiency>
-0.358978954562878

> <r_i_glide_ligand_efficiency_sa>
-1.0354744848385

> <r_i_glide_ligand_efficiency_ln>
-2.06208327114626

> <r_i_glide_gscore>
-8.61549490950907

> <r_i_glide_lipo>
-3.50262915409579

> <r_i_glide_hbond>
-0.461176633918773

> <r_i_glide_metal>
0

> <r_i_glide_rewards>
-3.10084444508524

> <r_i_glide_evdw>
-22.9575328826904

> <r_i_glide_ecoul>
-3.25438594818115

> <r_i_glide_erotb>
0.122573216593555

> <r_i_glide_esite>
-0.0373833566411308

> <r_i_glide_emodel>
-40.2553719815286

> <r_i_glide_energy>
-26.2119188308716

> <r_i_glide_einternal>
5.50194072723389

> <i_i_glide_confnum>
2

> <i_i_glide_posenum>
101

> <r_i_glide_eff_state_penalty>
0

> <s_user_duplicate_titles>
CHEMBL1862_lig514

> <s_m_subgroup_title>
dock_pv

> <s_m_subgroupid>
dock_pv

> <b_m_subgroup_collapsed>
0

$$$$
CHEMBL1862_lig751
                    3D
 Schrodinger Suite 2021-1.
 37 39  0  0  1  0            999 V2000
   18.5803   16.1107    4.7749 C   0  0  0  0  0  0
   17.8176   16.7159    5.7798 C   0  0  0  0  0  0
   16.4849   16.3905    6.0033 C   0  0  0  0  0  0
   18.0068   15.1544    3.9210 C   0  0  0  0  0  0
   16.6530   14.8546    4.1261 C   0  0  0  0  0  0
   15.8875   15.4595    5.1562 C   0  0  0  0  0  0
   14.5967   15.0071    5.1682 N   0  0  0  0  0  0
   14.5409   14.1577    4.1799 C   0  0  0  0  0  0
   15.7456   14.0211    3.5158 N   0  0  0  0  0  0
   13.3811   13.4660    3.8829 N   0  0  0  0  0  0
   13.2001   12.6460    2.8335 C   0  0  0  0  0  0
   11.9468   12.1637    2.8029 N   0  0  0  0  0  0
   14.0712   12.3817    2.0034 O   0  0  0  0  0  0
   11.4423   11.1474    1.8783 C   0  0  0  0  0  0
   10.0954   11.5270    1.2532 C   0  0  0  0  0  0
   19.9998   16.5378    4.6339 C   0  0  0  0  0  0
   20.9390   16.2550    5.6473 C   0  0  0  0  0  0
   22.2172   16.8066    5.6033 C   0  0  0  0  0  0
   22.5830   17.6372    4.5518 C   0  0  0  0  0  0
   21.6888   17.8837    3.5146 C   0  0  0  0  0  0
   20.4123   17.3199    3.5376 C   0  0  0  0  0  0
   20.5630   15.2263    6.9876 Cl  0  0  0  0  0  0
   19.3645   17.6339    2.1954 Cl  0  0  0  0  0  0
   18.2744   17.4679    6.4032 H   0  0  0  0  0  0
   15.9222   16.8400    6.8037 H   0  0  0  0  0  0
   18.5859   14.6895    3.1354 H   0  0  0  0  0  0
   15.8591   13.3972    2.7284 H   0  0  0  0  0  0
   12.6049   13.6354    4.5020 H   0  0  0  0  0  0
   11.3186   12.4200    3.5478 H   0  0  0  0  0  0
   11.3456   10.1993    2.4030 H   0  0  0  0  0  0
   12.1634   10.9344    1.0927 H   0  0  0  0  0  0
    9.7474   10.7274    0.5973 H   0  0  0  0  0  0
   10.1653   12.4308    0.6485 H   0  0  0  0  0  0
    9.3293   11.6738    2.0155 H   0  0  0  0  0  0
   22.9297   16.5920    6.3882 H   0  0  0  0  0  0
   23.5749   18.0618    4.5312 H   0  0  0  0  0  0
   21.9927   18.5013    2.6814 H   0  0  0  0  0  0
  1  2  2  0  0  0
  1  4  1  0  0  0
  1 16  1  0  0  0
  2  3  1  0  0  0
  2 24  1  0  0  0
  3  6  2  0  0  0
  3 25  1  0  0  0
  4  5  2  0  0  0
  4 26  1  0  0  0
  5  6  1  0  0  0
  5  9  1  0  0  0
  6  7  1  0  0  0
  7  8  2  0  0  0
  8  9  1  0  0  0
  8 10  1  0  0  0
  9 27  1  0  0  0
 10 11  1  0  0  0
 10 28  1  0  0  0
 11 12  1  0  0  0
 11 13  2  0  0  0
 12 14  1  0  0  0
 12 29  1  0  0  0
 14 15  1  0  0  0
 14 30  1  0  0  0
 14 31  1  0  0  0
 15 32  1  0  0  0
 15 33  1  0  0  0
 15 34  1  0  0  0
 16 17  2  0  0  0
 16 21  1  0  0  0
 17 18  1  0  0  0
 17 22  1  0  0  0
 18 19  2  0  0  0
 18 35  1  0  0  0
 19 20  1  0  0  0
 19 36  1  0  0  0
 20 21  2  0  0  0
 20 37  1  0  0  0
 21 23  1  0  0  0
M  END
> <s_m_entry_id>
6322

> <s_m_entry_name>
dock_pv.248

> <s_m_Source_Path>
/home/csk/Desktop/cluster/DUD-E-result/abl1

> <s_m_Source_File>
dock_pv.maegz

> <i_m_Source_File_Index>
248

> <chembl_id>
CHEMBL2347746

> <chembl_pref_name>
None

> <i_lp_mmshare_version>
53161

> <i_f3d_flags>
0

> <r_lp_tautomer_probability>
1

> <s_lp_Force_Field>
OPLS_2005

> <r_lp_Energy>
16.96392

> <b_lp_Chiralities_Consistent>
1

> <s_lp_Variant>
CHEMBL1862_lig751-1

> <s_i_glide_gridfile>
glide-grid_2hzi

> <i_i_glide_lignum>
884

> <i_i_glide_rotatable_bonds>
5

> <r_i_docking_score>
-8.60938959466077

> <r_i_glide_ligand_efficiency>
-0.374321286724381

> <r_i_glide_ligand_efficiency_sa>
-1.06451994605842

> <r_i_glide_ligand_efficiency_ln>
-2.08182846961773

> <r_i_glide_gscore>
-8.60938959466077

> <r_i_glide_lipo>
-4.12078871282685

> <r_i_glide_hbond>
0

> <r_i_glide_metal>
0

> <r_i_glide_rewards>
-2.52742660401243

> <r_i_glide_evdw>
-47.9574203491211

> <r_i_glide_ecoul>
-1.25344836711884

> <r_i_glide_erotb>
0.624713994702391

> <r_i_glide_esite>
0

> <r_i_glide_emodel>
-72.4674699691683

> <r_i_glide_energy>
-49.2108687162399

> <r_i_glide_einternal>
2.48270559310913

> <i_i_glide_confnum>
8

> <i_i_glide_posenum>
356

> <r_i_glide_eff_state_penalty>
0

> <s_user_duplicate_titles>
CHEMBL1862_lig751

> <s_m_subgroup_title>
dock_pv

> <s_m_subgroupid>
dock_pv

> <b_m_subgroup_collapsed>
0

$$$$
CHEMBL1862_lig463
                    3D
 Schrodinger Suite 2021-1.
 38 40  0  0  1  0            999 V2000
   16.5880   12.1160    2.4029 N   0  0  0  0  0  0
   15.2446   12.0330    2.2963 C   0  0  0  0  0  0
   14.3159   12.7475    2.9503 N   0  0  0  0  0  0
   17.0819   13.1271    3.1424 C   0  0  0  0  0  0
   16.2198   14.0336    3.7968 C   0  0  0  0  0  0
   14.8405   13.7309    3.6782 C   0  0  0  0  0  0
   14.1570   14.6452    4.4459 N   0  0  0  0  0  0
   15.0298   15.5225    4.9997 N   0  0  0  0  0  0
   16.2545   15.2381    4.5784 C   0  0  0  0  0  0
   17.4148   16.1692    4.8399 C   0  0  0  0  0  0
   18.5291   16.1998    3.9838 C   0  0  0  0  0  0
   19.5862   17.0919    4.1714 C   0  0  0  0  0  0
   19.4890   18.0330    5.1985 C   0  0  0  0  0  0
   18.3609   18.0803    6.0030 C   0  0  0  0  0  0
   17.3639   17.1113    5.8774 C   0  0  0  0  0  0
   18.4649   13.1630    3.2030 N   0  0  0  0  0  0
   20.6509   17.0210    3.2962 O   0  0  0  0  0  0
   18.1640   19.5581    7.1981 Br  0  0  0  0  0  0
   12.7066   14.7232    4.7360 C   0  0  0  0  0  0
   12.3693   13.9431    6.0030 C   0  0  0  0  0  0
   11.8323   14.1608    3.6030 C   0  0  0  0  0  0
   21.7963   17.8340    3.5452 C   0  0  0  0  0  0
   14.8615   11.2418    1.6678 H   0  0  0  0  0  0
   18.5715   15.5784    3.1076 H   0  0  0  0  0  0
   20.2543   18.7773    5.3507 H   0  0  0  0  0  0
   16.4997   17.1594    6.5235 H   0  0  0  0  0  0
   18.9371   13.8547    3.7647 H   0  0  0  0  0  0
   18.9742   12.4681    2.6724 H   0  0  0  0  0  0
   12.4633   15.7793    4.8629 H   0  0  0  0  0  0
   11.3170   14.0330    6.2746 H   0  0  0  0  0  0
   12.5640   12.8795    5.8797 H   0  0  0  0  0  0
   12.9640   14.3108    6.8272 H   0  0  0  0  0  0
   10.8143   14.5489    3.6448 H   0  0  0  0  0  0
   12.2729   14.4330    2.6548 H   0  0  0  0  0  0
   11.7663   13.0717    3.6173 H   0  0  0  0  0  0
   22.5640   17.6330    2.8030 H   0  0  0  0  0  0
   21.5620   18.8962    3.4819 H   0  0  0  0  0  0
   22.2308   17.6233    4.5239 H   0  0  0  0  0  0
  1  2  2  0  0  0
  1  4  1  0  0  0
  2  3  1  0  0  0
  2 23  1  0  0  0
  3  6  2  0  0  0
  4  5  2  0  0  0
  4 16  1  0  0  0
  5  9  1  0  0  0
  5  6  1  0  0  0
  6  7  1  0  0  0
  7  8  1  0  0  0
  7 19  1  0  0  0
  8  9  2  0  0  0
  9 10  1  0  0  0
 10 11  2  0  0  0
 10 15  1  0  0  0
 11 12  1  0  0  0
 11 24  1  0  0  0
 12 13  2  0  0  0
 12 17  1  0  0  0
 13 14  1  0  0  0
 13 25  1  0  0  0
 14 15  2  0  0  0
 14 18  1  0  0  0
 15 26  1  0  0  0
 16 27  1  0  0  0
 16 28  1  0  0  0
 17 22  1  0  0  0
 19 20  1  0  0  0
 19 21  1  0  0  0
 19 29  1  0  0  0
 20 30  1  0  0  0
 20 31  1  0  0  0
 20 32  1  0  0  0
 21 33  1  0  0  0
 21 34  1  0  0  0
 21 35  1  0  0  0
 22 36  1  0  0  0
 22 37  1  0  0  0
 22 38  1  0  0  0
M  END
> <s_m_entry_id>
6323

> <s_m_entry_name>
dock_pv.249

> <s_m_Source_Path>
/home/csk/Desktop/cluster/DUD-E-result/abl1

> <s_m_Source_File>
dock_pv.maegz

> <i_m_Source_File_Index>
249

> <chembl_id>
CHEMBL1242200

> <chembl_pref_name>
None

> <i_lp_mmshare_version>
53161

> <i_f3d_flags>
0

> <r_lp_tautomer_probability>
1

> <s_lp_Force_Field>
OPLS_2005

> <r_lp_Energy>
15.067151

> <b_lp_Chiralities_Consistent>
1

> <s_lp_Variant>
CHEMBL1862_lig463-1

> <s_i_glide_gridfile>
glide-grid_2hzi

> <i_i_glide_lignum>
552

> <i_i_glide_rotatable_bonds>
3

> <r_i_docking_score>
-8.60059751416827

> <r_i_glide_ligand_efficiency>
-0.390936250644012

> <r_i_glide_ligand_efficiency_sa>
-1.09541874895481

> <r_i_glide_ligand_efficiency_ln>
-2.10229974687945

> <r_i_glide_gscore>
-8.60059751416827

> <r_i_glide_lipo>
-2.9729442200251

> <r_i_glide_hbond>
-0.494985900820278

> <r_i_glide_metal>
0

> <r_i_glide_rewards>
-3.47943516171804

> <r_i_glide_evdw>
-28.4347305297852

> <r_i_glide_ecoul>
-2.22618126869202

> <r_i_glide_erotb>
0.102431485188212

> <r_i_glide_esite>
0

> <r_i_glide_emodel>
-31.8458736485099

> <r_i_glide_energy>
-30.6609117984772

> <r_i_glide_einternal>
2.36560463905334

> <i_i_glide_confnum>
1

> <i_i_glide_posenum>
13

> <r_i_glide_eff_state_penalty>
0

> <s_user_duplicate_titles>
CHEMBL1862_lig463

> <s_m_subgroup_title>
dock_pv

> <s_m_subgroupid>
dock_pv

> <b_m_subgroup_collapsed>
0

$$$$
CHEMBL1862_lig728
                    3D
 Schrodinger Suite 2021-1.
 44 46  0  0  1  0            999 V2000
   11.9484   12.0329    2.5024 N   0  0  0  0  0  0
   12.7783   12.8276    3.2030 C   0  0  0  0  0  0
   12.3680   13.7286    3.9385 O   0  0  0  0  0  0
   14.0813   12.5446    2.9781 N   0  0  0  0  0  0
   16.7573   12.9127    2.8031 S   0  0  0  0  0  0
   15.1614   13.3140    3.4090 C   0  0  0  0  0  0
   15.1065   14.3307    4.2303 N   0  0  0  0  0  0
   16.3191   14.9119    4.3982 C   0  0  0  0  0  0
   17.3894   14.3215    3.6769 C   0  0  0  0  0  0
   18.6856   14.8716    3.7425 C   0  0  0  0  0  0
   18.8878   16.0342    4.5055 C   0  0  0  0  0  0
   17.8218   16.5888    5.2224 C   0  0  0  0  0  0
   16.5437   16.0332    5.2031 C   0  0  0  0  0  0
   20.2278   16.6855    4.6054 C   0  0  0  0  0  0
   21.3215   16.0753    5.2471 C   0  0  0  0  0  0
   22.5363   16.7489    5.3851 C   0  0  0  0  0  0
   22.6970   18.0257    4.8609 C   0  0  0  0  0  0
   21.6376   18.6279    4.1937 C   0  0  0  0  0  0
   20.4081   17.9719    4.0880 C   0  0  0  0  0  0
   21.2500   14.8100    5.7527 O   0  0  0  0  0  0
   20.4786   14.6814    6.9287 C   0  0  0  0  0  0
   10.4892   12.2154    2.4760 C   0  0  0  0  0  0
    9.8346   11.9515    1.1091 C   0  0  0  0  0  0
    9.7093   10.4686    0.7787 C   0  0  0  0  0  0
    8.9565   10.2828   -0.4002 O   0  0  0  0  0  0
   12.3082   11.1664    2.1234 H   0  0  0  0  0  0
   14.2903   11.7703    2.3666 H   0  0  0  0  0  0
   19.5098   14.4257    3.2033 H   0  0  0  0  0  0
   17.9920   17.4712    5.8243 H   0  0  0  0  0  0
   15.7356   16.4805    5.7640 H   0  0  0  0  0  0
   23.3591   16.2715    5.8990 H   0  0  0  0  0  0
   23.6396   18.5427    4.9696 H   0  0  0  0  0  0
   21.7653   19.6181    3.7815 H   0  0  0  0  0  0
   19.5749   18.4506    3.5999 H   0  0  0  0  0  0
   20.4729   13.6330    7.2023 H   0  0  0  0  0  0
   20.9108   15.2606    7.7449 H   0  0  0  0  0  0
   19.4387   14.9768    6.8044 H   0  0  0  0  0  0
   10.1881   13.2092    2.8151 H   0  0  0  0  0  0
   10.0603   11.5308    3.2063 H   0  0  0  0  0  0
   10.3945   12.4330    0.3102 H   0  0  0  0  0  0
    8.8403   12.3997    1.1061 H   0  0  0  0  0  0
    9.2261    9.9417    1.6024 H   0  0  0  0  0  0
   10.7069   10.0387    0.6878 H   0  0  0  0  0  0
    8.9135    9.3358   -0.5631 H   0  0  0  0  0  0
  1  2  1  0  0  0
  1 22  1  0  0  0
  1 26  1  0  0  0
  2  3  2  0  0  0
  2  4  1  0  0  0
  4  6  1  0  0  0
  4 27  1  0  0  0
  5  6  1  0  0  0
  5  9  1  0  0  0
  6  7  2  0  0  0
  7  8  1  0  0  0
  8  9  1  0  0  0
  8 13  2  0  0  0
  9 10  2  0  0  0
 10 11  1  0  0  0
 10 28  1  0  0  0
 11 12  2  0  0  0
 11 14  1  0  0  0
 12 13  1  0  0  0
 12 29  1  0  0  0
 13 30  1  0  0  0
 14 15  1  0  0  0
 14 19  2  0  0  0
 15 16  2  0  0  0
 15 20  1  0  0  0
 16 17  1  0  0  0
 16 31  1  0  0  0
 17 18  2  0  0  0
 17 32  1  0  0  0
 18 19  1  0  0  0
 18 33  1  0  0  0
 19 34  1  0  0  0
 20 21  1  0  0  0
 21 35  1  0  0  0
 21 36  1  0  0  0
 21 37  1  0  0  0
 22 23  1  0  0  0
 22 38  1  0  0  0
 22 39  1  0  0  0
 23 24  1  0  0  0
 23 40  1  0  0  0
 23 41  1  0  0  0
 24 25  1  0  0  0
 24 42  1  0  0  0
 24 43  1  0  0  0
 25 44  1  0  0  0
M  END
> <s_m_entry_id>
6324

> <s_m_entry_name>
dock_pv.250

> <s_m_Source_Path>
/home/csk/Desktop/cluster/DUD-E-result/abl1

> <s_m_Source_File>
dock_pv.maegz

> <i_m_Source_File_Index>
250

> <chembl_id>
CHEMBL2347724

> <chembl_pref_name>
None

> <i_lp_mmshare_version>
53161

> <i_f3d_flags>
0

> <r_lp_tautomer_probability>
1

> <s_lp_Force_Field>
OPLS_2005

> <r_lp_Energy>
18.415424

> <b_lp_Chiralities_Consistent>
1

> <s_lp_Variant>
CHEMBL1862_lig728-1

> <s_i_glide_gridfile>
glide-grid_2hzi

> <i_i_glide_lignum>
861

> <i_i_glide_rotatable_bonds>
9

> <r_i_docking_score>
-8.59644391402628

> <r_i_glide_ligand_efficiency>
-0.343857756561051

> <r_i_glide_ligand_efficiency_sa>
-1.00544617852779

> <r_i_glide_ligand_efficiency_ln>
-2.03761482226011

> <r_i_glide_gscore>
-8.59644391402628

> <r_i_glide_lipo>
-4.1914335570801

> <r_i_glide_hbond>
-0.231565325782313

> <r_i_glide_metal>
0

> <r_i_glide_rewards>
-2.09097058374576

> <r_i_glide_evdw>
-47.8277587890625

> <r_i_glide_ecoul>
-4.93355321884155

> <r_i_glide_erotb>
1.04894647486125

> <r_i_glide_esite>
0

> <r_i_glide_emodel>
-77.826297447595

> <r_i_glide_energy>
-52.7613120079041

> <r_i_glide_einternal>
11.3723735809326

> <i_i_glide_confnum>
3

> <i_i_glide_posenum>
220

> <r_i_glide_eff_state_penalty>
0

> <s_user_duplicate_titles>
CHEMBL1862_lig728

> <s_m_subgroup_title>
dock_pv

> <s_m_subgroupid>
dock_pv

> <b_m_subgroup_collapsed>
0

$$$$
CHEMBL1862_lig849
                    3D
 Schrodinger Suite 2021-1.
 38 40  0  0  1  0            999 V2000
   15.8348   14.5881    4.0609 C   0  0  0  0  0  0
   16.8646   13.8333    3.4791 C   0  0  0  0  0  0
   16.5454   12.6537    2.8029 C   0  0  0  0  0  0
   15.2807   12.1863    2.6227 N   0  0  0  0  0  0
   14.5224   14.1212    3.9390 C   0  0  0  0  0  0
   14.3210   12.9228    3.1955 C   0  0  0  0  0  0
   12.9625   12.6838    3.1717 N   0  0  0  0  0  0
   12.3120   13.6633    3.8960 C   0  0  0  0  0  0
   13.2422   14.5545    4.4040 C   0  0  0  0  0  0
   10.8574   13.6014    4.0030 C   0  0  0  0  0  0
   18.2111   14.1683    3.6649 N   0  0  0  0  0  0
   18.6918   15.4261    3.7565 C   0  0  0  0  0  0
   10.4219   14.3412    5.0455 O   0  0  0  0  0  0
   19.8759   15.6220    4.6726 C   0  0  0  0  0  0
   18.1632   16.3832    3.2030 O   0  0  0  0  0  0
   19.9420   14.8337    5.8288 C   0  0  0  0  0  0
   20.9719   14.9860    6.7360 C   0  0  0  0  0  0
   21.9668   15.9281    6.5090 C   0  0  0  0  0  0
   21.9106   16.7461    5.3942 C   0  0  0  0  0  0
   20.8592   16.6283    4.4765 C   0  0  0  0  0  0
    9.0515   14.3089    5.4173 C   0  0  0  0  0  0
   10.1456   12.9112    3.2695 O   0  0  0  0  0  0
   20.7541   17.6931    3.3881 C   0  0  0  0  0  0
   20.5355   17.2092    2.1657 F   0  0  0  0  0  0
   19.7244   18.4328    3.7889 F   0  0  0  0  0  0
   21.8281   18.4817    3.3193 F   0  0  0  0  0  0
   16.0422   15.4869    4.6245 H   0  0  0  0  0  0
   17.3320   12.0503    2.3702 H   0  0  0  0  0  0
   12.4777   11.9179    2.7230 H   0  0  0  0  0  0
   13.0181   15.4184    5.0128 H   0  0  0  0  0  0
   18.8179   13.4168    3.9522 H   0  0  0  0  0  0
   19.1873   14.0922    6.0509 H   0  0  0  0  0  0
   20.9877   14.3541    7.6030 H   0  0  0  0  0  0
   22.7877   16.0325    7.2016 H   0  0  0  0  0  0
   22.6795   17.4967    5.2764 H   0  0  0  0  0  0
    8.9073   14.8312    6.3634 H   0  0  0  0  0  0
    8.6982   13.2848    5.5503 H   0  0  0  0  0  0
    8.4368   14.7899    4.6559 H   0  0  0  0  0  0
  1  5  1  0  0  0
  1  2  2  0  0  0
  1 27  1  0  0  0
  2  3  1  0  0  0
  2 11  1  0  0  0
  3  4  2  0  0  0
  3 28  1  0  0  0
  4  6  1  0  0  0
  5  6  2  0  0  0
  5  9  1  0  0  0
  6  7  1  0  0  0
  7  8  1  0  0  0
  7 29  1  0  0  0
  8  9  2  0  0  0
  8 10  1  0  0  0
  9 30  1  0  0  0
 10 13  1  0  0  0
 10 22  2  0  0  0
 11 12  1  0  0  0
 11 31  1  0  0  0
 12 14  1  0  0  0
 12 15  2  0  0  0
 13 21  1  0  0  0
 14 16  2  0  0  0
 14 20  1  0  0  0
 16 17  1  0  0  0
 16 32  1  0  0  0
 17 18  2  0  0  0
 17 33  1  0  0  0
 18 19  1  0  0  0
 18 34  1  0  0  0
 19 20  2  0  0  0
 19 35  1  0  0  0
 20 23  1  0  0  0
 21 36  1  0  0  0
 21 37  1  0  0  0
 21 38  1  0  0  0
 23 24  1  0  0  0
 23 25  1  0  0  0
 23 26  1  0  0  0
M  END
> <s_m_entry_id>
6325

> <s_m_entry_name>
dock_pv.251

> <s_m_Source_Path>
/home/csk/Desktop/cluster/DUD-E-result/abl1

> <s_m_Source_File>
dock_pv.maegz

> <i_m_Source_File_Index>
251

> <chembl_id>
CHEMBL3347602

> <chembl_pref_name>
None

> <i_lp_mmshare_version>
53161

> <i_f3d_flags>
0

> <r_lp_tautomer_probability>
1

> <s_lp_Force_Field>
OPLS_2005

> <r_lp_Energy>
22.136594

> <b_lp_Chiralities_Consistent>
1

> <s_lp_Variant>
CHEMBL1862_lig849-1

> <s_i_glide_gridfile>
glide-grid_2hzi

> <i_i_glide_lignum>
989

> <i_i_glide_rotatable_bonds>
6

> <r_i_docking_score>
-8.5919242717698

> <r_i_glide_ligand_efficiency>
-0.3304586258373

> <r_i_glide_ligand_efficiency_sa>
-0.978982378751098

> <r_i_glide_ligand_efficiency_ln>
-2.01778522282213

> <r_i_glide_gscore>
-8.5919242717698

> <r_i_glide_lipo>
-3.7159896686276

> <r_i_glide_hbond>
-0.115649003263349

> <r_i_glide_metal>
0

> <r_i_glide_rewards>
-2.98616117652973

> <r_i_glide_evdw>
-46.2458534240723

> <r_i_glide_ecoul>
-0.293956458568573

> <r_i_glide_erotb>
0.58226171663978

> <r_i_glide_esite>
0

> <r_i_glide_emodel>
-56.3207154920813

> <r_i_glide_energy>
-46.5398098826408

> <r_i_glide_einternal>
16.0593299865723

> <i_i_glide_confnum>
31

> <i_i_glide_posenum>
204

> <r_i_glide_eff_state_penalty>
0

> <s_user_duplicate_titles>
CHEMBL1862_lig849

> <s_m_subgroup_title>
dock_pv

> <s_m_subgroupid>
dock_pv

> <b_m_subgroup_collapsed>
0

$$$$
CHEMBL1862_lig628
                    3D
 Schrodinger Suite 2021-1.
 54 57  0  0  1  0            999 V2000
   10.4630   13.6486    5.8319 C   0  0  0  0  0  0
    9.3764   13.3018    5.0355 C   0  0  0  0  0  0
    9.5718   12.8804    3.7243 C   0  0  0  0  0  0
   10.8618   12.8331    3.2030 C   0  0  0  0  0  0
   11.9674   13.2684    3.9583 C   0  0  0  0  0  0
   11.7500   13.6330    5.2979 C   0  0  0  0  0  0
   13.3450   13.1892    3.3415 C   0  0  0  0  0  0
   14.5370   13.9818    3.8388 C   0  0  0  0  0  0
   13.5074   12.4330    2.3805 O   0  0  0  0  0  0
   14.4092   15.1066    4.6726 C   0  0  0  0  0  0
   15.5147   15.7246    5.2611 C   0  0  0  0  0  0
   15.8193   13.5789    3.4132 C   0  0  0  0  0  0
   16.9212   14.2008    4.0029 C   0  0  0  0  0  0
   16.7889   15.2331    4.9600 C   0  0  0  0  0  0
   18.0055   15.5712    5.4988 N   0  0  0  0  0  0
   18.8698   14.8200    4.8541 C   0  0  0  0  0  0
   18.2789   14.0036    3.9199 N   0  0  0  0  0  0
   20.2467   14.8339    4.9447 N   0  0  0  0  0  0
   20.9668   15.1036    6.0462 C   0  0  0  0  0  0
   20.5640   15.0113    7.2030 O   0  0  0  0  0  0
   22.1640   15.6167    5.7256 N   0  0  0  0  0  0
   22.7785   16.7744    6.3831 C   0  0  0  0  0  0
   22.9417   18.0219    5.4825 C   0  0  0  0  0  0
   21.7150   18.4245    4.6222 C   0  0  2  0  0  0
   20.3993   18.4330    5.4299 C   0  0  0  0  0  0
   19.1498   18.4681    4.5646 C   0  0  0  0  0  0
   19.1677   17.7167    3.2133 C   0  0  0  0  0  0
   20.4414   17.6330    2.5172 N   0  0  1  0  0  0
   21.6557   17.6067    3.3148 C   0  0  0  0  0  0
   10.3092   13.9287    6.8645 H   0  0  0  0  0  0
    8.3811   13.3163    5.4534 H   0  0  0  0  0  0
    8.7321   12.5559    3.1270 H   0  0  0  0  0  0
   10.9903   12.4333    2.2045 H   0  0  0  0  0  0
   12.5659   13.8632    5.9658 H   0  0  0  0  0  0
   13.4386   15.5122    4.9133 H   0  0  0  0  0  0
   15.3859   16.5362    5.9623 H   0  0  0  0  0  0
   15.9567   12.7550    2.7274 H   0  0  0  0  0  0
   18.7945   13.3594    3.3384 H   0  0  0  0  0  0
   20.7254   14.8700    4.0581 H   0  0  0  0  0  0
   22.6322   15.2741    4.9018 H   0  0  0  0  0  0
   22.1409   17.0792    7.2030 H   0  0  0  0  0  0
   23.7382   16.4796    6.8046 H   0  0  0  0  0  0
   23.2176   18.8644    6.1187 H   0  0  0  0  0  0
   23.8042   17.8778    4.8314 H   0  0  0  0  0  0
   21.8372   19.4526    4.2775 H   0  0  0  0  0  0
   20.2787   17.5282    6.0017 H   0  0  0  0  0  0
   20.4076   19.2128    6.1918 H   0  0  0  0  0  0
   18.2901   18.1407    5.1480 H   0  0  0  0  0  0
   18.9640   19.5117    4.4030 H   0  0  0  0  0  0
   18.6752   16.7510    3.2496 H   0  0  0  0  0  0
   18.5640   18.3055    2.5282 H   0  0  0  0  0  0
   20.4468   16.9571    1.7627 H   0  0  0  0  0  0
   22.5126   17.8647    2.6954 H   0  0  0  0  0  0
   21.7640   16.5642    3.5670 H   0  0  0  0  0  0
  1  2  2  0  0  0
  1  6  1  0  0  0
  1 30  1  0  0  0
  2  3  1  0  0  0
  2 31  1  0  0  0
  3  4  2  0  0  0
  3 32  1  0  0  0
  4  5  1  0  0  0
  4 33  1  0  0  0
  5  7  1  0  0  0
  5  6  2  0  0  0
  6 34  1  0  0  0
  7  8  1  0  0  0
  7  9  2  0  0  0
  8 10  2  0  0  0
  8 12  1  0  0  0
 10 11  1  0  0  0
 10 35  1  0  0  0
 11 14  2  0  0  0
 11 36  1  0  0  0
 12 13  2  0  0  0
 12 37  1  0  0  0
 13 17  1  0  0  0
 13 14  1  0  0  0
 14 15  1  0  0  0
 15 16  2  0  0  0
 16 17  1  0  0  0
 16 18  1  0  0  0
 17 38  1  0  0  0
 18 19  1  0  0  0
 18 39  1  0  0  0
 19 20  2  0  0  0
 19 21  1  0  0  0
 21 22  1  0  0  0
 21 40  1  0  0  0
 22 23  1  0  0  0
 22 41  1  0  0  0
 22 42  1  0  0  0
 23 24  1  0  0  0
 23 43  1  0  0  0
 23 44  1  0  0  0
 24 25  1  0  0  0
 24 29  1  0  0  0
 24 45  1  0  0  0
 25 26  1  0  0  0
 25 46  1  0  0  0
 25 47  1  0  0  0
 26 27  1  0  0  0
 26 48  1  0  0  0
 26 49  1  0  0  0
 27 28  1  0  0  0
 27 50  1  0  0  0
 27 51  1  0  0  0
 28 29  1  0  0  0
 28 52  1  0  0  0
 29 53  1  0  0  0
 29 54  1  0  0  0
M  END
> <s_m_entry_id>
6326

> <s_m_entry_name>
dock_pv.252

> <s_m_Source_Path>
/home/csk/Desktop/cluster/DUD-E-result/abl1

> <s_m_Source_File>
dock_pv.maegz

> <i_m_Source_File_Index>
252

> <chembl_id>
CHEMBL2059165

> <chembl_pref_name>
None

> <i_lp_mmshare_version>
53161

> <i_f3d_flags>
0

> <r_lp_tautomer_probability>
1

> <s_lp_Force_Field>
OPLS_2005

> <r_lp_Energy>
30.996684

> <b_lp_Chiralities_Consistent>
1

> <s_lp_Variant>
CHEMBL1862_lig628-1

> <s_i_glide_gridfile>
glide-grid_2hzi

> <i_i_glide_lignum>
735

> <i_i_glide_rotatable_bonds>
8

> <r_i_docking_score>
-8.5788394969689

> <r_i_glide_ligand_efficiency>
-0.295822051619617

> <r_i_glide_ligand_efficiency_sa>
-0.908859065579725

> <r_i_glide_ligand_efficiency_ln>
-1.96433670420615

> <r_i_glide_gscore>
-8.5788394969689

> <r_i_glide_lipo>
-4.8229948787073

> <r_i_glide_hbond>
-0.11617152895287

> <r_i_glide_metal>
0

> <r_i_glide_rewards>
-1.81615596090258

> <r_i_glide_evdw>
-41.0236930847168

> <r_i_glide_ecoul>
-4.42493200302124

> <r_i_glide_erotb>
0.891407326282882

> <r_i_glide_esite>
0

> <r_i_glide_emodel>
-57.8785121417651

> <r_i_glide_energy>
-45.448625087738

> <r_i_glide_einternal>
13.9169225692749

> <i_i_glide_confnum>
6

> <i_i_glide_posenum>
88

> <r_i_glide_eff_state_penalty>
0

> <s_user_duplicate_titles>
CHEMBL1862_lig628

> <s_m_subgroup_title>
dock_pv

> <s_m_subgroupid>
dock_pv

> <b_m_subgroup_collapsed>
0

$$$$
CHEMBL1862_lig311
                    3D
 Schrodinger Suite 2021-1.
 40 41  0  0  1  0            999 V2000
   10.8292   13.4956    4.2220 C   0  0  0  0  0  0
   10.5617   12.5764    3.2011 C   0  0  0  0  0  0
   11.6115   12.0331    2.4561 C   0  0  0  0  0  0
   12.1403   13.9264    4.4625 C   0  0  0  0  0  0
   13.1869   13.3810    3.7133 C   0  0  0  0  0  0
   12.9118   12.4444    2.7444 C   0  0  0  0  0  0
   14.0956   12.0343    2.1913 N   0  0  0  0  0  0
   15.1662   12.6347    2.7222 C   0  0  0  0  0  0
   14.6432   13.5539    3.7113 C   0  0  0  0  0  0
   16.3329   12.4096    2.4045 O   0  0  0  0  0  0
   15.4815   14.3330    4.4201 C   0  0  0  0  0  0
   15.1706   15.2336    5.4085 N   0  0  0  0  0  0
   16.0014   16.3152    5.9291 C   0  0  0  0  0  0
   17.5314   16.1461    5.8071 C   0  0  0  0  0  0
   18.1145   16.5590    4.4367 C   0  0  0  0  0  0
   19.5999   16.1886    4.2526 C   0  0  0  0  0  0
   20.5572   16.8906    5.2565 C   0  0  2  0  0  0
   21.4090   17.9114    4.6095 N   0  0  0  0  0  0
   21.3830   15.8778    6.1015 C   0  0  0  0  0  0
   22.7317   16.0333    6.0030 O   0  0  0  0  0  0
   20.8403   15.0243    6.8004 O   0  0  0  0  0  0
    9.4158   14.0335    5.3720 Br  0  0  0  0  0  0
    9.5522   12.2348    3.0295 H   0  0  0  0  0  0
   11.4118   11.2894    1.6990 H   0  0  0  0  0  0
   12.3291   14.6319    5.2565 H   0  0  0  0  0  0
   14.1599   11.2806    1.5232 H   0  0  0  0  0  0
   16.5482   14.2720    4.2552 H   0  0  0  0  0  0
   14.1958   15.3570    5.6396 H   0  0  0  0  0  0
   15.7647   16.4327    6.9862 H   0  0  0  0  0  0
   15.6901   17.2462    5.4562 H   0  0  0  0  0  0
   17.8158   15.1220    6.0467 H   0  0  0  0  0  0
   17.9897   16.7521    6.5874 H   0  0  0  0  0  0
   17.9924   17.6328    4.2930 H   0  0  0  0  0  0
   17.5498   16.0914    3.6312 H   0  0  0  0  0  0
   19.8912   16.4227    3.2270 H   0  0  0  0  0  0
   19.6879   15.1005    4.2995 H   0  0  0  0  0  0
   19.9632   17.4193    6.0018 H   0  0  0  0  0  0
   22.2196   18.1165    5.1794 H   0  0  0  0  0  0
   21.7506   17.5877    3.7164 H   0  0  0  0  0  0
   23.2026   15.3466    6.4902 H   0  0  0  0  0  0
  1  2  2  0  0  0
  1 22  1  0  0  0
  1  4  1  0  0  0
  2  3  1  0  0  0
  2 23  1  0  0  0
  3  6  2  0  0  0
  3 24  1  0  0  0
  4  5  2  0  0  0
  4 25  1  0  0  0
  5  6  1  0  0  0
  5  9  1  0  0  0
  6  7  1  0  0  0
  7  8  1  0  0  0
  7 26  1  0  0  0
  8  9  1  0  0  0
  8 10  2  0  0  0
  9 11  2  0  0  0
 11 12  1  0  0  0
 11 27  1  0  0  0
 12 13  1  0  0  0
 12 28  1  0  0  0
 13 14  1  0  0  0
 13 29  1  0  0  0
 13 30  1  0  0  0
 14 15  1  0  0  0
 14 31  1  0  0  0
 14 32  1  0  0  0
 15 16  1  0  0  0
 15 33  1  0  0  0
 15 34  1  0  0  0
 16 17  1  0  0  0
 16 35  1  0  0  0
 16 36  1  0  0  0
 17 18  1  0  0  0
 17 19  1  0  0  0
 17 37  1  0  0  0
 18 38  1  0  0  0
 18 39  1  0  0  0
 19 20  1  0  0  0
 19 21  2  0  0  0
 20 40  1  0  0  0
M  END
> <s_m_entry_id>
6327

> <s_m_entry_name>
dock_pv.253

> <s_m_Source_Path>
/home/csk/Desktop/cluster/DUD-E-result/abl1

> <s_m_Source_File>
dock_pv.maegz

> <i_m_Source_File_Index>
253

> <chembl_id>
CHEMBL458441

> <chembl_pref_name>
None

> <i_lp_mmshare_version>
53161

> <i_f3d_flags>
0

> <r_lp_tautomer_probability>
0.499999999999422

> <s_lp_Force_Field>
OPLS_2005

> <r_lp_Energy>
25.449048

> <b_lp_Chiralities_Consistent>
1

> <s_lp_Variant>
CHEMBL1862_lig311-2

> <s_i_glide_gridfile>
glide-grid_2hzi

> <i_i_glide_lignum>
355

> <i_i_glide_rotatable_bonds>
8

> <r_i_docking_score>
-8.57772347667904

> <r_i_glide_ligand_efficiency>
-0.389896521667229

> <r_i_glide_ligand_efficiency_sa>
-1.09250538747165

> <r_i_glide_ligand_efficiency_ln>
-2.09670849776629

> <r_i_glide_gscore>
-8.57772347667904

> <r_i_glide_lipo>
-3.14958861898841

> <r_i_glide_hbond>
-0.405304437930791

> <r_i_glide_metal>
0

> <r_i_glide_rewards>
-2.15088178475265

> <r_i_glide_evdw>
-40.6563758850098

> <r_i_glide_ecoul>
-10.2361602783203

> <r_i_glide_erotb>
0.696294200991348

> <r_i_glide_esite>
0

> <r_i_glide_emodel>
-71.3431787327647

> <r_i_glide_energy>
-50.8925361633301

> <r_i_glide_einternal>
9.28694534301758

> <i_i_glide_confnum>
28

> <i_i_glide_posenum>
122

> <r_i_glide_eff_state_penalty>
0

> <s_user_duplicate_titles>
CHEMBL1862_lig311,CHEMBL1862_lig311

> <s_m_subgroup_title>
dock_pv

> <s_m_subgroupid>
dock_pv

> <b_m_subgroup_collapsed>
0

$$$$
CHEMBL1862_lig313
                    3D
 Schrodinger Suite 2021-1.
 37 38  0  0  1  0            999 V2000
   19.8027   17.2772    3.1076 C   0  0  2  0  0  0
   20.1640   16.8330    1.7509 N   0  0  0  0  0  0
   21.1131   17.6222    3.8652 C   0  0  0  0  0  0
   21.4627   16.6921    4.8030 O   0  0  0  0  0  0
   21.7640   18.6308    3.6030 O   0  0  0  0  0  0
   11.4944   14.2304    4.4489 C   0  0  0  0  0  0
   10.9950   13.2330    3.6030 C   0  0  0  0  0  0
   11.8707   12.4388    2.8542 C   0  0  0  0  0  0
   12.8739   14.4471    4.5501 C   0  0  0  0  0  0
   13.7456   13.6558    3.8011 C   0  0  0  0  0  0
   13.2366   12.6799    2.9750 C   0  0  0  0  0  0
   14.2813   12.0330    2.3794 N   0  0  0  0  0  0
   15.4772   12.4913    2.7617 C   0  0  0  0  0  0
   15.2014   13.5846    3.6706 C   0  0  0  0  0  0
   16.5613   12.0332    2.4030 O   0  0  0  0  0  0
   16.2190   14.2629    4.2303 C   0  0  0  0  0  0
   16.1783   15.3090    5.1153 N   0  0  0  0  0  0
   17.3388   15.7861    5.8548 C   0  0  0  0  0  0
   18.1979   16.8021    5.0888 C   0  0  0  0  0  0
   18.8534   16.2675    3.7964 C   0  0  0  0  0  0
   19.2559   18.2164    3.0143 H   0  0  0  0  0  0
   20.8911   17.4074    1.3438 H   0  0  0  0  0  0
   20.4869   15.8635    1.7029 H   0  0  0  0  0  0
   20.8554   15.9516    4.8206 H   0  0  0  0  0  0
   10.8113   14.8334    5.0284 H   0  0  0  0  0  0
    9.9298   13.0663    3.5340 H   0  0  0  0  0  0
   11.4879   11.6585    2.2119 H   0  0  0  0  0  0
   13.2457   15.2185    5.2067 H   0  0  0  0  0  0
   14.1640   11.1807    1.8416 H   0  0  0  0  0  0
   17.2410   13.9885    4.0001 H   0  0  0  0  0  0
   15.3138   15.7984    5.2980 H   0  0  0  0  0  0
   17.9562   14.9225    6.1084 H   0  0  0  0  0  0
   17.0038   16.2057    6.8030 H   0  0  0  0  0  0
   18.9521   17.2007    5.7672 H   0  0  0  0  0  0
   17.5576   17.6330    4.8204 H   0  0  0  0  0  0
   18.0566   16.0377    3.0876 H   0  0  0  0  0  0
   19.3610   15.3185    3.9764 H   0  0  0  0  0  0
  1  3  1  0  0  0
  1  2  1  0  0  0
  1 20  1  0  0  0
  1 21  1  0  0  0
  2 22  1  0  0  0
  2 23  1  0  0  0
  3  5  2  0  0  0
  3  4  1  0  0  0
  4 24  1  0  0  0
  6  7  2  0  0  0
  6  9  1  0  0  0
  6 25  1  0  0  0
  7  8  1  0  0  0
  7 26  1  0  0  0
  8 11  2  0  0  0
  8 27  1  0  0  0
  9 10  2  0  0  0
  9 28  1  0  0  0
 10 14  1  0  0  0
 10 11  1  0  0  0
 11 12  1  0  0  0
 12 13  1  0  0  0
 12 29  1  0  0  0
 13 14  1  0  0  0
 13 15  2  0  0  0
 14 16  2  0  0  0
 16 17  1  0  0  0
 16 30  1  0  0  0
 17 18  1  0  0  0
 17 31  1  0  0  0
 18 19  1  0  0  0
 18 32  1  0  0  0
 18 33  1  0  0  0
 19 20  1  0  0  0
 19 34  1  0  0  0
 19 35  1  0  0  0
 20 36  1  0  0  0
 20 37  1  0  0  0
M  END
> <s_m_entry_id>
6328

> <s_m_entry_name>
dock_pv.254

> <s_m_Source_Path>
/home/csk/Desktop/cluster/DUD-E-result/abl1

> <s_m_Source_File>
dock_pv.maegz

> <i_m_Source_File_Index>
254

> <chembl_id>
CHEMBL458352

> <chembl_pref_name>
None

> <i_lp_mmshare_version>
53161

> <i_f3d_flags>
0

> <r_lp_tautomer_probability>
0.499999999999422

> <s_lp_Force_Field>
OPLS_2005

> <r_lp_Energy>
26.891507

> <b_lp_Chiralities_Consistent>
1

> <s_lp_Variant>
CHEMBL1862_lig313-2

> <s_i_glide_gridfile>
glide-grid_2hzi

> <i_i_glide_lignum>
359

> <i_i_glide_rotatable_bonds>
7

> <r_i_docking_score>
-8.56005450904677

> <r_i_glide_ligand_efficiency>
-0.428002725452338

> <r_i_glide_ligand_efficiency_sa>
-1.16177813675834

> <r_i_glide_ligand_efficiency_ln>
-2.14229931412123

> <r_i_glide_gscore>
-8.56005450904677

> <r_i_glide_lipo>
-2.9887400700959

> <r_i_glide_hbond>
-0.816297231908002

> <r_i_glide_metal>
0

> <r_i_glide_rewards>
-3.42825683405251

> <r_i_glide_evdw>
-34.666259765625

> <r_i_glide_ecoul>
-10.5685129165649

> <r_i_glide_erotb>
1.99182955277564

> <r_i_glide_esite>
0

> <r_i_glide_emodel>
-66.5298097423683

> <r_i_glide_energy>
-45.2347726821899

> <r_i_glide_einternal>
5.69211292266846

> <i_i_glide_confnum>
149

> <i_i_glide_posenum>
299

> <r_i_glide_eff_state_penalty>
0

> <s_user_duplicate_titles>
CHEMBL1862_lig313,CHEMBL1862_lig313

> <s_m_subgroup_title>
dock_pv

> <s_m_subgroupid>
dock_pv

> <b_m_subgroup_collapsed>
0

$$$$
CHEMBL1862_lig415
                    3D
 Schrodinger Suite 2021-1.
 27 29  0  0  1  0            999 V2000
   14.9334   15.0971    5.0543 C   0  0  0  0  0  0
   14.0180   14.4214    4.0015 C   0  0  0  0  0  0
   14.6227   13.1975    3.4145 N   0  0  0  0  0  0
   15.9232   13.0352    3.0578 C   0  0  0  0  0  0
   16.3511   15.0003    4.5548 C   0  0  0  0  0  0
   16.7727   14.0805    3.6030 C   0  0  0  0  0  0
   18.1543   14.3157    3.4604 C   0  0  0  0  0  0
   18.5242   15.4217    4.2264 C   0  0  0  0  0  0
   17.3893   15.8331    4.8741 N   0  0  0  0  0  0
   19.8277   16.0976    4.4317 C   0  0  0  0  0  0
   20.6914   15.6595    5.4424 C   0  0  0  0  0  0
   21.8940   16.3420    5.6374 C   0  0  0  0  0  0
   22.2665   17.4091    4.8868 N   0  0  0  0  0  0
   21.4260   17.8149    3.9020 C   0  0  0  0  0  0
   20.2025   17.1902    3.6416 C   0  0  0  0  0  0
   16.2570   12.0414    2.4133 O   0  0  0  0  0  0
   14.6128   16.1216    5.2405 H   0  0  0  0  0  0
   14.8420   14.5692    6.0031 H   0  0  0  0  0  0
   13.8062   15.1320    3.2032 H   0  0  0  0  0  0
   13.0555   14.1661    4.4485 H   0  0  0  0  0  0
   14.0163   12.4201    3.1999 H   0  0  0  0  0  0
   18.8212   13.7335    2.8398 H   0  0  0  0  0  0
   17.3401   16.6049    5.5231 H   0  0  0  0  0  0
   20.4315   14.8145    6.0627 H   0  0  0  0  0  0
   22.5859   16.0327    6.4055 H   0  0  0  0  0  0
   21.7638   18.6539    3.3107 H   0  0  0  0  0  0
   19.5615   17.5434    2.8469 H   0  0  0  0  0  0
  1  5  1  0  0  0
  1  2  1  0  0  0
  1 17  1  0  0  0
  1 18  1  0  0  0
  2  3  1  0  0  0
  2 19  1  0  0  0
  2 20  1  0  0  0
  3  4  1  0  0  0
  3 21  1  0  0  0
  4  6  1  0  0  0
  4 16  2  0  0  0
  5  9  1  0  0  0
  5  6  2  0  0  0
  6  7  1  0  0  0
  7  8  2  0  0  0
  7 22  1  0  0  0
  8  9  1  0  0  0
  8 10  1  0  0  0
  9 23  1  0  0  0
 10 11  2  0  0  0
 10 15  1  0  0  0
 11 12  1  0  0  0
 11 24  1  0  0  0
 12 13  2  0  0  0
 12 25  1  0  0  0
 13 14  1  0  0  0
 14 15  2  0  0  0
 14 26  1  0  0  0
 15 27  1  0  0  0
M  END
> <s_m_entry_id>
6329

> <s_m_entry_name>
dock_pv.255

> <s_m_Source_Path>
/home/csk/Desktop/cluster/DUD-E-result/abl1

> <s_m_Source_File>
dock_pv.maegz

> <i_m_Source_File_Index>
255

> <chembl_id>
CHEMBL225519

> <chembl_pref_name>
None

> <i_lp_mmshare_version>
53161

> <i_f3d_flags>
0

> <r_lp_tautomer_probability>
1

> <s_lp_Force_Field>
OPLS_2005

> <r_lp_Energy>
13.581071

> <b_lp_Chiralities_Consistent>
1

> <s_lp_Variant>
CHEMBL1862_lig415-1

> <s_i_glide_gridfile>
glide-grid_2hzi

> <i_i_glide_lignum>
500

> <i_i_glide_rotatable_bonds>
1

> <r_i_docking_score>
-8.54741800051467

> <r_i_glide_ligand_efficiency>
-0.534213625032167

> <r_i_glide_ligand_efficiency_sa>
-1.34613398139326

> <r_i_glide_ligand_efficiency_ln>
-2.26566387958666

> <r_i_glide_gscore>
-8.54741800051467

> <r_i_glide_lipo>
-3.11282606236464

> <r_i_glide_hbond>
-0.32

> <r_i_glide_metal>
0

> <r_i_glide_rewards>
-3.17989174230789

> <r_i_glide_evdw>
-36.1812973022461

> <r_i_glide_ecoul>
-3.28294253349304

> <r_i_glide_erotb>
0.366806049294127

> <r_i_glide_esite>
0

> <r_i_glide_emodel>
-57.368015733461

> <r_i_glide_energy>
-39.4642398357391

> <r_i_glide_einternal>
4.51397705078125

> <i_i_glide_confnum>
2

> <i_i_glide_posenum>
204

> <r_i_glide_eff_state_penalty>
0

> <s_user_duplicate_titles>
CHEMBL1862_lig415

> <s_m_subgroup_title>
dock_pv

> <s_m_subgroupid>
dock_pv

> <b_m_subgroup_collapsed>
0

$$$$
CHEMBL1862_lig310
                    3D
 Schrodinger Suite 2021-1.
 40 41  0  0  1  0            999 V2000
   11.1584   14.2442    4.4436 C   0  0  0  0  0  0
   10.6847   13.2328    3.6029 C   0  0  0  0  0  0
   11.5827   12.4330    2.8824 C   0  0  0  0  0  0
   12.5326   14.4730    4.5619 C   0  0  0  0  0  0
   13.4257   13.6821    3.8397 C   0  0  0  0  0  0
   12.9470   12.6806    3.0277 C   0  0  0  0  0  0
   14.0170   12.0330    2.4696 N   0  0  0  0  0  0
   15.1981   12.5528    2.8311 C   0  0  0  0  0  0
   14.8826   13.6530    3.7251 C   0  0  0  0  0  0
   16.2964   12.1341    2.4664 O   0  0  0  0  0  0
   15.8522   14.4041    4.2831 C   0  0  0  0  0  0
   15.6992   15.4787    5.1267 N   0  0  0  0  0  0
   16.7184   16.0397    6.0038 C   0  0  0  0  0  0
   17.8161   16.8643    5.3067 C   0  0  0  0  0  0
   18.8152   16.0765    4.4328 C   0  0  0  0  0  0
   20.0447   16.8993    3.9818 C   0  0  0  0  0  0
   20.9346   17.4940    5.1043 C   0  0  2  0  0  0
   21.9297   18.4319    4.5373 N   0  0  0  0  0  0
   21.6059   16.4127    6.0064 C   0  0  0  0  0  0
   22.9640   16.4336    5.9987 O   0  0  0  0  0  0
   20.9512   15.6328    6.6938 O   0  0  0  0  0  0
   10.4612   14.8513    5.0015 H   0  0  0  0  0  0
    9.6225   13.0562    3.5155 H   0  0  0  0  0  0
   11.2163   11.6400    2.2465 H   0  0  0  0  0  0
   12.8843   15.2650    5.2029 H   0  0  0  0  0  0
   13.9359   11.1508    1.9725 H   0  0  0  0  0  0
   16.8918   14.1931    4.0791 H   0  0  0  0  0  0
   14.7619   15.6970    5.4331 H   0  0  0  0  0  0
   17.1840   15.2331    6.5663 H   0  0  0  0  0  0
   16.2209   16.6587    6.7516 H   0  0  0  0  0  0
   18.3441   17.3962    6.0949 H   0  0  0  0  0  0
   17.3641   17.6330    4.6890 H   0  0  0  0  0  0
   18.3078   15.7385    3.5297 H   0  0  0  0  0  0
   19.1359   15.1681    4.9438 H   0  0  0  0  0  0
   19.6864   17.7128    3.3481 H   0  0  0  0  0  0
   20.6578   16.2805    3.3232 H   0  0  0  0  0  0
   20.3114   18.0841    5.7736 H   0  0  0  0  0  0
   22.6505   18.6540    5.2123 H   0  0  0  0  0  0
   22.3910   18.0381    3.7298 H   0  0  0  0  0  0
   23.3283   15.7278    6.5407 H   0  0  0  0  0  0
  1  4  1  0  0  0
  1  2  2  0  0  0
  1 22  1  0  0  0
  2  3  1  0  0  0
  2 23  1  0  0  0
  3  6  2  0  0  0
  3 24  1  0  0  0
  4  5  2  0  0  0
  4 25  1  0  0  0
  5  6  1  0  0  0
  5  9  1  0  0  0
  6  7  1  0  0  0
  7  8  1  0  0  0
  7 26  1  0  0  0
  8  9  1  0  0  0
  8 10  2  0  0  0
  9 11  2  0  0  0
 11 12  1  0  0  0
 11 27  1  0  0  0
 12 13  1  0  0  0
 12 28  1  0  0  0
 13 14  1  0  0  0
 13 29  1  0  0  0
 13 30  1  0  0  0
 14 15  1  0  0  0
 14 31  1  0  0  0
 14 32  1  0  0  0
 15 16  1  0  0  0
 15 33  1  0  0  0
 15 34  1  0  0  0
 16 17  1  0  0  0
 16 35  1  0  0  0
 16 36  1  0  0  0
 17 18  1  0  0  0
 17 19  1  0  0  0
 17 37  1  0  0  0
 18 38  1  0  0  0
 18 39  1  0  0  0
 19 20  1  0  0  0
 19 21  2  0  0  0
 20 40  1  0  0  0
M  END
> <s_m_entry_id>
6330

> <s_m_entry_name>
dock_pv.256

> <s_m_Source_Path>
/home/csk/Desktop/cluster/DUD-E-result/abl1

> <s_m_Source_File>
dock_pv.maegz

> <i_m_Source_File_Index>
256

> <chembl_id>
CHEMBL458440

> <chembl_pref_name>
None

> <i_lp_mmshare_version>
53161

> <i_f3d_flags>
0

> <r_lp_tautomer_probability>
0.499999999999422

> <s_lp_Force_Field>
OPLS_2005

> <r_lp_Energy>
26.365327

> <b_lp_Chiralities_Consistent>
1

> <s_lp_Variant>
CHEMBL1862_lig310-2

> <s_i_glide_gridfile>
glide-grid_2hzi

> <i_i_glide_lignum>
353

> <i_i_glide_rotatable_bonds>
8

> <r_i_docking_score>
-8.5447571524887

> <r_i_glide_ligand_efficiency>
-0.406893197737557

> <r_i_glide_ligand_efficiency_sa>
-1.12258747930392

> <r_i_glide_ligand_efficiency_ln>
-2.11267393964524

> <r_i_glide_gscore>
-8.5447571524887

> <r_i_glide_lipo>
-3.19588667705724

> <r_i_glide_hbond>
-0.566257284321305

> <r_i_glide_metal>
0

> <r_i_glide_rewards>
-3.48562712913687

> <r_i_glide_evdw>
-37.5812683105469

> <r_i_glide_ecoul>
-10.3293657302856

> <r_i_glide_erotb>
2.1314822130969

> <r_i_glide_esite>
0

> <r_i_glide_emodel>
-68.8902742693556

> <r_i_glide_energy>
-47.9106340408325

> <r_i_glide_einternal>
6.64614343643188

> <i_i_glide_confnum>
117

> <i_i_glide_posenum>
380

> <r_i_glide_eff_state_penalty>
0

> <s_user_duplicate_titles>
CHEMBL1862_lig310,CHEMBL1862_lig310

> <s_m_subgroup_title>
dock_pv

> <s_m_subgroupid>
dock_pv

> <b_m_subgroup_collapsed>
0

$$$$
CHEMBL1862_lig131
                    3D
 Schrodinger Suite 2021-1.
 45 48  0  0  1  0            999 V2000
   15.0527   13.3897    3.3137 C   0  0  0  0  0  0
   13.9804   13.7748    4.0782 N   0  0  0  0  0  0
   21.9822   18.8111    4.1949 N   0  0  0  0  0  0
   21.9404   16.6556    4.8364 N   0  0  0  0  0  0
   12.7507   13.2939    3.7344 C   0  0  0  0  0  0
   21.4580   17.6273    3.9904 C   0  0  0  0  0  0
   16.3450   13.8881    3.5265 N   0  0  0  0  0  0
   14.9969   12.5095    2.2971 N   0  0  0  0  0  0
   11.5650   13.6331    4.5741 C   0  0  0  0  0  0
   22.8107   18.6338    5.2060 C   0  0  0  0  0  0
   22.8153   17.3221    5.6527 C   0  0  0  0  0  0
   16.8280   14.8301    4.4350 C   0  0  0  0  0  0
   10.5332   13.6330    6.7781 N   0  0  0  0  0  0
   18.1816   14.8103    4.8116 C   0  0  0  0  0  0
   12.6125   12.4048    2.6715 C   0  0  0  0  0  0
   13.7712   12.0339    2.0031 C   0  0  0  0  0  0
   18.6324   15.6780    5.8218 C   0  0  0  0  0  0
   11.6268   13.6305    5.9730 C   0  0  0  0  0  0
   21.6301   15.2247    4.8334 C   0  0  0  0  0  0
   19.8733   15.7092    6.4031 O   0  0  0  0  0  0
   20.8804   14.7848    6.0891 C   0  0  0  0  0  0
   16.4268   16.5872    6.0058 C   0  0  0  0  0  0
   10.2912   13.7825    4.0028 C   0  0  0  0  0  0
    9.3189   13.7656    6.1939 C   0  0  0  0  0  0
   15.9583   15.7286    5.0445 C   0  0  0  0  0  0
   17.7470   16.5892    6.3721 C   0  0  0  0  0  0
    9.1584   13.8636    4.8126 C   0  0  0  0  0  0
   20.7407   17.3680    3.2257 H   0  0  0  0  0  0
   17.0417   13.4731    2.9275 H   0  0  0  0  0  0
   23.3993   19.4477    5.6028 H   0  0  0  0  0  0
   23.3635   16.8118    6.4329 H   0  0  0  0  0  0
   18.8495   14.0862    4.3715 H   0  0  0  0  0  0
   11.6627   11.9649    2.4041 H   0  0  0  0  0  0
   13.7249   11.3095    1.2034 H   0  0  0  0  0  0
   12.5639   13.5030    6.4841 H   0  0  0  0  0  0
   21.0535   14.9878    3.9395 H   0  0  0  0  0  0
   22.5639   14.6667    4.8030 H   0  0  0  0  0  0
   20.4837   13.7736    6.0312 H   0  0  0  0  0  0
   21.5745   14.7750    6.9295 H   0  0  0  0  0  0
   15.7639   17.2341    6.5121 H   0  0  0  0  0  0
   10.1662   13.7860    2.9298 H   0  0  0  0  0  0
    8.4665   13.7835    6.8588 H   0  0  0  0  0  0
   14.9172   15.8150    4.7888 H   0  0  0  0  0  0
   18.0497   17.3054    7.1100 H   0  0  0  0  0  0
    8.1786   13.9564    4.3737 H   0  0  0  0  0  0
  1  2  1  0  0  0
  1  7  1  0  0  0
  1  8  2  0  0  0
  2  5  2  0  0  0
  3  6  2  0  0  0
  3 10  1  0  0  0
  4 19  1  0  0  0
  4  6  1  0  0  0
  4 11  1  0  0  0
  5  9  1  0  0  0
  5 15  1  0  0  0
  6 28  1  0  0  0
  7 12  1  0  0  0
  7 29  1  0  0  0
  8 16  1  0  0  0
  9 18  1  0  0  0
  9 23  2  0  0  0
 10 11  2  0  0  0
 10 30  1  0  0  0
 11 31  1  0  0  0
 12 14  1  0  0  0
 12 25  2  0  0  0
 13 18  2  0  0  0
 13 24  1  0  0  0
 14 17  2  0  0  0
 14 32  1  0  0  0
 15 16  2  0  0  0
 15 33  1  0  0  0
 16 34  1  0  0  0
 17 20  1  0  0  0
 17 26  1  0  0  0
 18 35  1  0  0  0
 19 21  1  0  0  0
 19 36  1  0  0  0
 19 37  1  0  0  0
 20 21  1  0  0  0
 21 38  1  0  0  0
 21 39  1  0  0  0
 22 25  1  0  0  0
 22 26  2  0  0  0
 22 40  1  0  0  0
 23 27  1  0  0  0
 23 41  1  0  0  0
 24 27  2  0  0  0
 24 42  1  0  0  0
 25 43  1  0  0  0
 26 44  1  0  0  0
 27 45  1  0  0  0
M  END
> <s_m_entry_id>
6331

> <s_m_entry_name>
dock_pv.257

> <s_m_Source_Path>
/home/csk/Desktop/cluster/DUD-E-result/abl1

> <s_m_Source_File>
dock_pv.maegz

> <i_m_Source_File_Index>
257

> <chembl_id>
CHEMBL58436

> <chembl_pref_name>
None

> <i_lp_mmshare_version>
53161

> <i_f3d_flags>
0

> <r_lp_tautomer_probability>
0.999999987636

> <s_lp_Force_Field>
OPLS_2005

> <r_lp_Energy>
19.248426

> <b_lp_Chiralities_Consistent>
1

> <s_lp_Variant>
CHEMBL1862_lig131-1

> <s_i_glide_gridfile>
glide-grid_2hzi

> <i_i_glide_lignum>
150

> <i_i_glide_rotatable_bonds>
7

> <r_i_docking_score>
-8.54440155620157

> <r_i_glide_ligand_efficiency>
-0.316459316896354

> <r_i_glide_ligand_efficiency_sa>
-0.949377949646065

> <r_i_glide_ligand_efficiency_ln>
-1.98899581681484

> <r_i_glide_gscore>
-8.54440155620157

> <r_i_glide_lipo>
-4.34268099648857

> <r_i_glide_hbond>
0

> <r_i_glide_metal>
0

> <r_i_glide_rewards>
-2.52128104274814

> <r_i_glide_evdw>
-36.0975570678711

> <r_i_glide_ecoul>
-5.13555574417114

> <r_i_glide_erotb>
0.894771698054372

> <r_i_glide_esite>
0

> <r_i_glide_emodel>
-53.9698770062855

> <r_i_glide_energy>
-41.2331128120422

> <r_i_glide_einternal>
4.00499296188354

> <i_i_glide_confnum>
38

> <i_i_glide_posenum>
103

> <r_i_glide_eff_state_penalty>
0

> <s_user_duplicate_titles>
CHEMBL1862_lig131

> <s_m_subgroup_title>
dock_pv

> <s_m_subgroupid>
dock_pv

> <b_m_subgroup_collapsed>
0

$$$$
CHEMBL1862_lig535
                    3D
 Schrodinger Suite 2021-1.
 42 46  0  0  1  0            999 V2000
   17.2251   12.1566    2.4049 N   0  0  0  0  0  0
   18.2170   12.9861    2.8034 C   0  0  0  0  0  0
   18.1162   14.1181    3.5185 N   0  0  0  0  0  0
   15.9806   12.4853    2.8115 C   0  0  0  0  0  0
   15.7279   13.6264    3.5866 C   0  0  0  0  0  0
   16.8692   14.3885    3.8861 C   0  0  0  0  0  0
   16.4506   15.4324    4.6603 N   0  0  0  0  0  0
   15.1122   15.3457    4.8905 N   0  0  0  0  0  0
   14.6402   14.2889    4.2503 C   0  0  0  0  0  0
   13.1833   13.8903    4.2957 C   0  0  0  0  0  0
   12.4645   14.0329    5.4799 C   0  0  0  0  0  0
   11.1939   12.9383    3.2034 C   0  0  0  0  0  0
   12.5391   13.3128    3.2013 C   0  0  0  0  0  0
   14.9549   11.6351    2.4832 N   0  0  0  0  0  0
   10.4661   13.2330    4.3518 C   0  0  0  0  0  0
   11.0908   13.7340    5.5286 C   0  0  0  0  0  0
   10.0738   13.7865    6.5412 C   0  0  0  0  0  0
    8.8958   13.3864    5.9564 C   0  0  0  0  0  0
    9.1278   13.0678    4.6423 N   0  0  0  0  0  0
   17.2993   16.4422    5.3022 C   0  0  0  0  0  0
   18.1599   15.8411    6.4034 C   0  0  0  0  0  0
   19.5785   15.6193    5.8643 C   0  0  0  0  0  0
   19.7174   16.5244    4.6382 C   0  0  0  0  0  0
   18.3271   17.1230    4.3687 C   0  0  0  0  0  0
   19.1976   12.8330    2.4033 H   0  0  0  0  0  0
   12.9684   14.4329    6.3399 H   0  0  0  0  0  0
   10.7370   12.4385    2.3588 H   0  0  0  0  0  0
   13.0736   13.1838    2.2770 H   0  0  0  0  0  0
   14.0587   11.8539    2.8926 H   0  0  0  0  0  0
   15.0173   10.7791    1.9494 H   0  0  0  0  0  0
   10.1642   14.0907    7.5732 H   0  0  0  0  0  0
    7.9097   13.2793    6.3772 H   0  0  0  0  0  0
    8.4096   12.7049    4.0335 H   0  0  0  0  0  0
   16.5618   17.1545    5.6803 H   0  0  0  0  0  0
   18.1635   16.5769    7.1939 H   0  0  0  0  0  0
   17.7644   14.9352    6.8546 H   0  0  0  0  0  0
   20.3397   15.8321    6.6176 H   0  0  0  0  0  0
   19.7177   14.5756    5.5789 H   0  0  0  0  0  0
   20.4514   17.3135    4.8140 H   0  0  0  0  0  0
   20.0745   15.9462    3.7811 H   0  0  0  0  0  0
   18.0583   17.0426    3.3167 H   0  0  0  0  0  0
   18.3600   18.1868    4.5936 H   0  0  0  0  0  0
  1  2  2  0  0  0
  1  4  1  0  0  0
  2  3  1  0  0  0
  2 25  1  0  0  0
  3  6  2  0  0  0
  4 14  1  0  0  0
  4  5  2  0  0  0
  5  9  1  0  0  0
  5  6  1  0  0  0
  6  7  1  0  0  0
  7  8  1  0  0  0
  7 20  1  0  0  0
  8  9  2  0  0  0
  9 10  1  0  0  0
 10 13  1  0  0  0
 10 11  2  0  0  0
 11 16  1  0  0  0
 11 26  1  0  0  0
 12 15  1  0  0  0
 12 13  2  0  0  0
 12 27  1  0  0  0
 13 28  1  0  0  0
 14 29  1  0  0  0
 14 30  1  0  0  0
 15 16  2  0  0  0
 15 19  1  0  0  0
 16 17  1  0  0  0
 17 18  2  0  0  0
 17 31  1  0  0  0
 18 19  1  0  0  0
 18 32  1  0  0  0
 19 33  1  0  0  0
 20 21  1  0  0  0
 20 24  1  0  0  0
 20 34  1  0  0  0
 21 22  1  0  0  0
 21 35  1  0  0  0
 21 36  1  0  0  0
 22 23  1  0  0  0
 22 37  1  0  0  0
 22 38  1  0  0  0
 23 24  1  0  0  0
 23 39  1  0  0  0
 23 40  1  0  0  0
 24 41  1  0  0  0
 24 42  1  0  0  0
M  END
> <s_m_entry_id>
6332

> <s_m_entry_name>
dock_pv.258

> <s_m_Source_Path>
/home/csk/Desktop/cluster/DUD-E-result/abl1

> <s_m_Source_File>
dock_pv.maegz

> <i_m_Source_File_Index>
258

> <chembl_id>
CHEMBL1242295

> <chembl_pref_name>
None

> <i_lp_mmshare_version>
53161

> <i_f3d_flags>
0

> <r_lp_tautomer_probability>
1

> <s_lp_Force_Field>
OPLS_2005

> <r_lp_Energy>
31.066212

> <b_lp_Chiralities_Consistent>
1

> <s_lp_Variant>
CHEMBL1862_lig535-1

> <s_i_glide_gridfile>
glide-grid_2hzi

> <i_i_glide_lignum>
633

> <i_i_glide_rotatable_bonds>
2

> <r_i_docking_score>
-8.50942870472417

> <r_i_glide_ligand_efficiency>
-0.354559529363507

> <r_i_glide_ligand_efficiency_sa>
-1.0227266566624

> <r_i_glide_ligand_efficiency_ln>
-2.03669676128024

> <r_i_glide_gscore>
-8.50942870472417

> <r_i_glide_lipo>
-3.94326333733733

> <r_i_glide_hbond>
-0.408113622355999

> <r_i_glide_metal>
0

> <r_i_glide_rewards>
-3.06718461997866

> <r_i_glide_evdw>
-20.73557472229

> <r_i_glide_ecoul>
-1.79101276397705

> <r_i_glide_erotb>
0.257506210144981

> <r_i_glide_esite>
-0.0429426844860968

> <r_i_glide_emodel>
-28.0819529417575

> <r_i_glide_energy>
-22.5265874862671

> <r_i_glide_einternal>
5.08849573135376

> <i_i_glide_confnum>
49

> <i_i_glide_posenum>
79

> <r_i_glide_eff_state_penalty>
0

> <s_user_duplicate_titles>
CHEMBL1862_lig535

> <s_m_subgroup_title>
dock_pv

> <s_m_subgroupid>
dock_pv

> <b_m_subgroup_collapsed>
0

$$$$
CHEMBL1862_lig764
                    3D
 Schrodinger Suite 2021-1.
 37 39  0  0  1  0            999 V2000
   15.0669   14.6186    4.4119 C   0  0  0  0  0  0
   15.1057   15.3168    5.6257 C   0  0  0  0  0  0
   16.2174   16.0330    6.0549 C   0  0  0  0  0  0
   16.2201   14.5632    3.6030 C   0  0  0  0  0  0
   17.3559   15.2519    4.0531 C   0  0  0  0  0  0
   17.3567   16.0012    5.2549 C   0  0  0  0  0  0
   18.5526   16.6218    5.4635 N   0  0  0  0  0  0
   19.2930   16.2690    4.4393 C   0  0  0  0  0  0
   18.6336   15.4333    3.5665 N   0  0  0  0  0  0
   20.5932   16.6546    4.1647 N   0  0  0  0  0  0
   21.2624   17.6419    4.7959 C   0  0  0  0  0  0
   22.5628   17.6330    4.4741 N   0  0  0  0  0  0
   20.7731   18.4330    5.6030 O   0  0  0  0  0  0
   23.6312   18.3448    5.1760 C   0  0  0  0  0  0
   23.7643   18.0329    6.6599 C   0  0  0  0  0  0
   13.7863   13.9626    4.0027 C   0  0  0  0  0  0
   12.5501   14.4994    4.4030 C   0  0  0  0  0  0
   11.3436   13.9267    4.0130 C   0  0  0  0  0  0
   11.3494   12.8005    3.2030 C   0  0  0  0  0  0
   12.5610   12.2383    2.8029 C   0  0  0  0  0  0
   13.7686   12.8101    3.2043 C   0  0  0  0  0  0
   10.1714   14.4702    4.4090 F   0  0  0  0  0  0
   14.2455   15.3100    6.2771 H   0  0  0  0  0  0
   16.2013   16.5798    6.9861 H   0  0  0  0  0  0
   16.2275   14.0305    2.6645 H   0  0  0  0  0  0
   19.0577   15.0635    2.7273 H   0  0  0  0  0  0
   21.0770   16.1167    3.4625 H   0  0  0  0  0  0
   22.8506   17.0839    3.6795 H   0  0  0  0  0  0
   23.5315   19.4208    5.0166 H   0  0  0  0  0  0
   24.5640   18.0330    4.7284 H   0  0  0  0  0  0
   24.6956   18.4328    7.0626 H   0  0  0  0  0  0
   23.7419   16.9608    6.8514 H   0  0  0  0  0  0
   22.9640   18.5027    7.2030 H   0  0  0  0  0  0
   12.5053   15.3964    4.9995 H   0  0  0  0  0  0
   10.4168   12.3517    2.8933 H   0  0  0  0  0  0
   12.5639   11.3549    2.1809 H   0  0  0  0  0  0
   14.6899   12.3461    2.8856 H   0  0  0  0  0  0
  1  2  2  0  0  0
  1  4  1  0  0  0
  1 16  1  0  0  0
  2  3  1  0  0  0
  2 23  1  0  0  0
  3  6  2  0  0  0
  3 24  1  0  0  0
  4  5  2  0  0  0
  4 25  1  0  0  0
  5  6  1  0  0  0
  5  9  1  0  0  0
  6  7  1  0  0  0
  7  8  2  0  0  0
  8  9  1  0  0  0
  8 10  1  0  0  0
  9 26  1  0  0  0
 10 11  1  0  0  0
 10 27  1  0  0  0
 11 12  1  0  0  0
 11 13  2  0  0  0
 12 14  1  0  0  0
 12 28  1  0  0  0
 14 15  1  0  0  0
 14 29  1  0  0  0
 14 30  1  0  0  0
 15 31  1  0  0  0
 15 32  1  0  0  0
 15 33  1  0  0  0
 16 17  2  0  0  0
 16 21  1  0  0  0
 17 18  1  0  0  0
 17 34  1  0  0  0
 18 19  2  0  0  0
 18 22  1  0  0  0
 19 20  1  0  0  0
 19 35  1  0  0  0
 20 21  2  0  0  0
 20 36  1  0  0  0
 21 37  1  0  0  0
M  END
> <s_m_entry_id>
6333

> <s_m_entry_name>
dock_pv.259

> <s_m_Source_Path>
/home/csk/Desktop/cluster/DUD-E-result/abl1

> <s_m_Source_File>
dock_pv.maegz

> <i_m_Source_File_Index>
259

> <chembl_id>
CHEMBL2347733

> <chembl_pref_name>
None

> <i_lp_mmshare_version>
53161

> <i_f3d_flags>
0

> <r_lp_tautomer_probability>
1

> <s_lp_Force_Field>
OPLS_2005

> <r_lp_Energy>
14.46551

> <b_lp_Chiralities_Consistent>
1

> <s_lp_Variant>
CHEMBL1862_lig764-1

> <s_i_glide_gridfile>
glide-grid_2hzi

> <i_i_glide_lignum>
897

> <i_i_glide_rotatable_bonds>
5

> <r_i_docking_score>
-8.50916095115711

> <r_i_glide_ligand_efficiency>
-0.386780043234414

> <r_i_glide_ligand_efficiency_sa>
-1.08377289233876

> <r_i_glide_ligand_efficiency_ln>
-2.07994931564985

> <r_i_glide_gscore>
-8.50916095115711

> <r_i_glide_lipo>
-3.63886587333804

> <r_i_glide_hbond>
0

> <r_i_glide_metal>
0

> <r_i_glide_rewards>
-2.98054257299784

> <r_i_glide_evdw>
-38.184513092041

> <r_i_glide_ecoul>
-5.36854076385498

> <r_i_glide_erotb>
0.824754264359067

> <r_i_glide_esite>
0

> <r_i_glide_emodel>
-66.6347089650654

> <r_i_glide_energy>
-43.553053855896

> <r_i_glide_einternal>
1.34404683113098

> <i_i_glide_confnum>
18

> <i_i_glide_posenum>
74

> <r_i_glide_eff_state_penalty>
0

> <s_user_duplicate_titles>
CHEMBL1862_lig764

> <s_m_subgroup_title>
dock_pv

> <s_m_subgroupid>
dock_pv

> <b_m_subgroup_collapsed>
0

$$$$
CHEMBL1862_lig560
                    3D
 Schrodinger Suite 2021-1.
 34 36  0  0  1  0            999 V2000
   14.9620   15.1921    5.0357 N   0  0  0  0  0  0
   14.1784   14.2463    4.4019 C   0  0  0  0  0  0
   15.0388   13.6001    3.4921 C   0  0  0  0  0  0
   16.2929   14.1945    3.6052 C   0  0  0  0  0  0
   16.2549   15.1891    4.5484 C   0  0  0  0  0  0
   14.8200   12.5090    2.5933 C   0  0  0  0  0  0
   15.7441   12.0363    1.9420 O   0  0  0  0  0  0
   13.5857   12.0331    2.5256 N   0  0  0  0  0  0
   12.7187   14.0493    4.7022 C   0  0  0  0  0  0
   11.7953   14.0249    3.6622 C   0  0  0  0  0  0
   10.4384   13.8149    3.8956 C   0  0  0  0  0  0
    9.9972   13.6202    5.2012 C   0  0  0  0  0  0
   10.9050   13.6319    6.2576 C   0  0  0  0  0  0
   12.2552   13.8742    6.0005 C   0  0  0  0  0  0
   19.3969   17.0233    4.2930 C   0  0  0  0  0  0
   18.4529   16.0709    4.1048 N   0  0  0  0  0  0
   17.3533   16.1228    4.9099 C   0  0  0  0  0  0
   17.2216   17.0773    5.9147 C   0  0  0  0  0  0
   18.2333   18.0329    6.0015 C   0  0  0  0  0  0
   19.3348   18.0223    5.2044 N   0  0  0  0  0  0
   20.5109   16.9862    3.4652 N   0  0  0  0  0  0
   14.6188   15.8304    5.7388 H   0  0  0  0  0  0
   17.1676   13.9238    3.0279 H   0  0  0  0  0  0
   12.8619   12.4167    3.1148 H   0  0  0  0  0  0
   13.4322   11.1478    2.0433 H   0  0  0  0  0  0
   12.1642   14.1870    2.6692 H   0  0  0  0  0  0
    9.7370   13.7972    3.0745 H   0  0  0  0  0  0
    8.9466   13.4563    5.3969 H   0  0  0  0  0  0
   10.5583   13.5133    7.2744 H   0  0  0  0  0  0
   12.9549   14.0326    6.8106 H   0  0  0  0  0  0
   16.3511   17.1234    6.5502 H   0  0  0  0  0  0
   18.1727   18.8333    6.7257 H   0  0  0  0  0  0
   21.2615   17.6387    3.6302 H   0  0  0  0  0  0
   20.6145   16.2062    2.8256 H   0  0  0  0  0  0
  1  2  1  0  0  0
  1  5  1  0  0  0
  1 22  1  0  0  0
  2  3  2  0  0  0
  2  9  1  0  0  0
  3  4  1  0  0  0
  3  6  1  0  0  0
  4  5  2  0  0  0
  4 23  1  0  0  0
  5 17  1  0  0  0
  6  7  2  0  0  0
  6  8  1  0  0  0
  8 24  1  0  0  0
  8 25  1  0  0  0
  9 10  1  0  0  0
  9 14  2  0  0  0
 10 11  2  0  0  0
 10 26  1  0  0  0
 11 12  1  0  0  0
 11 27  1  0  0  0
 12 13  2  0  0  0
 12 28  1  0  0  0
 13 14  1  0  0  0
 13 29  1  0  0  0
 14 30  1  0  0  0
 15 16  1  0  0  0
 15 20  2  0  0  0
 15 21  1  0  0  0
 16 17  2  0  0  0
 17 18  1  0  0  0
 18 19  2  0  0  0
 18 31  1  0  0  0
 19 20  1  0  0  0
 19 32  1  0  0  0
 21 33  1  0  0  0
 21 34  1  0  0  0
M  END
> <s_m_entry_id>
6334

> <s_m_entry_name>
dock_pv.260

> <s_m_Source_Path>
/home/csk/Desktop/cluster/DUD-E-result/abl1

> <s_m_Source_File>
dock_pv.maegz

> <i_m_Source_File_Index>
260

> <chembl_id>
CHEMBL1270230

> <chembl_pref_name>
None

> <i_lp_mmshare_version>
53161

> <i_f3d_flags>
0

> <r_lp_tautomer_probability>
0.999999987636

> <s_lp_Force_Field>
OPLS_2005

> <r_lp_Energy>
0.265656

> <b_lp_Chiralities_Consistent>
1

> <s_lp_Variant>
CHEMBL1862_lig560-1

> <s_i_glide_gridfile>
glide-grid_2hzi

> <i_i_glide_lignum>
664

> <i_i_glide_rotatable_bonds>
3

> <r_i_docking_score>
-8.50491526109406

> <r_i_glide_ligand_efficiency>
-0.404995964814003

> <r_i_glide_ligand_efficiency_sa>
-1.11735315752821

> <r_i_glide_ligand_efficiency_ln>
-2.10282311250603

> <r_i_glide_gscore>
-8.50491526109406

> <r_i_glide_lipo>
-3.22188292252111

> <r_i_glide_hbond>
-0.586923212812518

> <r_i_glide_metal>
0

> <r_i_glide_rewards>
-2.58904981228232

> <r_i_glide_evdw>
-22.6745452880859

> <r_i_glide_ecoul>
-9.57249546051025

> <r_i_glide_erotb>
0.462542270002731

> <r_i_glide_esite>
0

> <r_i_glide_emodel>
-43.2233591588137

> <r_i_glide_energy>
-32.2470407485962

> <r_i_glide_einternal>
2.39614939689636

> <i_i_glide_confnum>
7

> <i_i_glide_posenum>
5

> <r_i_glide_eff_state_penalty>
0

> <s_user_duplicate_titles>
CHEMBL1862_lig560

> <s_m_subgroup_title>
dock_pv

> <s_m_subgroupid>
dock_pv

> <b_m_subgroup_collapsed>
0

$$$$
CHEMBL1862_lig436
                    3D
 Schrodinger Suite 2021-1.
 45 48  0  0  1  0            999 V2000
   16.3523   12.1635    2.3551 N   0  0  0  0  0  0
   15.0179   11.9818    2.2437 C   0  0  0  0  0  0
   14.0430   12.5408    2.9809 N   0  0  0  0  0  0
   16.7664   13.1254    3.2018 C   0  0  0  0  0  0
   15.8277   13.9280    3.8879 C   0  0  0  0  0  0
   14.4775   13.5253    3.7675 C   0  0  0  0  0  0
   13.7225   14.3606    4.5758 N   0  0  0  0  0  0
   14.5385   15.2755    5.1504 N   0  0  0  0  0  0
   15.7760   15.0868    4.7147 C   0  0  0  0  0  0
   16.8936   16.0314    5.0190 C   0  0  0  0  0  0
   18.0045   16.1939    4.1717 C   0  0  0  0  0  0
   19.0054   17.1222    4.4651 C   0  0  0  0  0  0
   18.8877   17.9216    5.6010 C   0  0  0  0  0  0
   17.7642   17.7929    6.4033 C   0  0  0  0  0  0
   16.7985   16.8323    6.1504 C   0  0  0  0  0  0
   18.1460   13.2236    3.3477 N   0  0  0  0  0  0
   19.8367   18.8303    5.9262 F   0  0  0  0  0  0
   20.0764   17.2603    3.6221 O   0  0  0  0  0  0
   12.2438   14.3948    4.8085 C   0  0  0  0  0  0
   11.4999   13.7983    3.6033 C   0  0  0  0  0  0
   10.0646   14.2507    3.2798 C   0  0  0  0  0  0
   11.8667   13.6330    6.1012 C   0  0  0  0  0  0
   10.3912   13.6329    6.5733 C   0  0  0  0  0  0
    9.2907   13.2951    5.5545 C   0  0  0  0  0  0
    9.0264   14.2490    4.4041 C   0  0  0  0  0  0
   14.6821   11.2344    1.5400 H   0  0  0  0  0  0
   18.0724   15.6649    3.2362 H   0  0  0  0  0  0
   17.7007   18.4241    7.2762 H   0  0  0  0  0  0
   15.9565   16.7396    6.8188 H   0  0  0  0  0  0
   18.5419   13.8744    4.0069 H   0  0  0  0  0  0
   18.7274   12.5942    2.8107 H   0  0  0  0  0  0
   20.7100   17.9090    3.9378 H   0  0  0  0  0  0
   11.9585   15.4439    4.9004 H   0  0  0  0  0  0
   11.5041   12.7095    3.6574 H   0  0  0  0  0  0
   12.1238   14.0329    2.7529 H   0  0  0  0  0  0
    9.6984   13.5936    2.4880 H   0  0  0  0  0  0
   10.0983   15.2336    2.8207 H   0  0  0  0  0  0
   12.4795   14.0164    6.9165 H   0  0  0  0  0  0
   12.1624   12.5926    6.0020 H   0  0  0  0  0  0
   10.3114   12.9194    7.3941 H   0  0  0  0  0  0
   10.1606   14.5883    7.0335 H   0  0  0  0  0  0
    9.5901   12.4330    5.0211 H   0  0  0  0  0  0
    8.3626   13.0632    6.0784 H   0  0  0  0  0  0
    8.0636   13.9987    3.9589 H   0  0  0  0  0  0
    8.8895   15.2328    4.7993 H   0  0  0  0  0  0
  1  2  2  0  0  0
  1  4  1  0  0  0
  2  3  1  0  0  0
  2 26  1  0  0  0
  3  6  2  0  0  0
  4  5  2  0  0  0
  4 16  1  0  0  0
  5  9  1  0  0  0
  5  6  1  0  0  0
  6  7  1  0  0  0
  7  8  1  0  0  0
  7 19  1  0  0  0
  8  9  2  0  0  0
  9 10  1  0  0  0
 10 15  1  0  0  0
 10 11  2  0  0  0
 11 12  1  0  0  0
 11 27  1  0  0  0
 12 13  2  0  0  0
 12 18  1  0  0  0
 13 14  1  0  0  0
 13 17  1  0  0  0
 14 15  2  0  0  0
 14 28  1  0  0  0
 15 29  1  0  0  0
 16 30  1  0  0  0
 16 31  1  0  0  0
 18 32  1  0  0  0
 19 20  1  0  0  0
 19 22  1  0  0  0
 19 33  1  0  0  0
 20 21  1  0  0  0
 20 34  1  0  0  0
 20 35  1  0  0  0
 21 25  1  0  0  0
 21 36  1  0  0  0
 21 37  1  0  0  0
 22 23  1  0  0  0
 22 38  1  0  0  0
 22 39  1  0  0  0
 23 24  1  0  0  0
 23 40  1  0  0  0
 23 41  1  0  0  0
 24 25  1  0  0  0
 24 42  1  0  0  0
 24 43  1  0  0  0
 25 44  1  0  0  0
 25 45  1  0  0  0
M  END
> <s_m_entry_id>
6335

> <s_m_entry_name>
dock_pv.261

> <s_m_Source_Path>
/home/csk/Desktop/cluster/DUD-E-result/abl1

> <s_m_Source_File>
dock_pv.maegz

> <i_m_Source_File_Index>
261

> <chembl_id>
CHEMBL1242750

> <chembl_pref_name>
None

> <i_lp_mmshare_version>
53161

> <i_f3d_flags>
0

> <r_lp_tautomer_probability>
0.999999999997365

> <s_lp_Force_Field>
OPLS_2005

> <r_lp_Energy>
24.101263

> <b_lp_Chiralities_Consistent>
1

> <s_lp_Variant>
CHEMBL1862_lig436-1

> <s_i_glide_gridfile>
glide-grid_2hzi

> <i_i_glide_lignum>
524

> <i_i_glide_rotatable_bonds>
3

> <r_i_docking_score>
-8.49585137402997

> <r_i_glide_ligand_efficiency>
-0.339834054961199

> <r_i_glide_ligand_efficiency_sa>
-0.993680803689173

> <r_i_glide_ligand_efficiency_ln>
-2.01377137576581

> <r_i_glide_gscore>
-8.49585137402997

> <r_i_glide_lipo>
-3.41664090211477

> <r_i_glide_hbond>
-0.32

> <r_i_glide_metal>
0

> <r_i_glide_rewards>
-3.55315032119132

> <r_i_glide_evdw>
-24.0770816802979

> <r_i_glide_ecoul>
-2.18265080451965

> <r_i_glide_erotb>
0.325191553968954

> <r_i_glide_esite>
0

> <r_i_glide_emodel>
-36.4756933225676

> <r_i_glide_energy>
-26.2597324848175

> <r_i_glide_einternal>
2.83957719802856

> <i_i_glide_confnum>
31

> <i_i_glide_posenum>
153

> <r_i_glide_eff_state_penalty>
0

> <s_user_duplicate_titles>
CHEMBL1862_lig436

> <s_m_subgroup_title>
dock_pv

> <s_m_subgroupid>
dock_pv

> <b_m_subgroup_collapsed>
0

$$$$
CHEMBL1862_lig471
                    3D
 Schrodinger Suite 2021-1.
 45 47  0  0  1  0            999 V2000
   15.7620   12.1770    2.0335 N   0  0  0  0  0  0
   14.4214   12.0330    1.9425 C   0  0  0  0  0  0
   13.4324   12.5176    2.7144 N   0  0  0  0  0  0
   16.1936   13.0094    2.9917 C   0  0  0  0  0  0
   15.2645   13.7233    3.7713 C   0  0  0  0  0  0
   13.9051   13.3740    3.6030 C   0  0  0  0  0  0
   13.1884   14.0591    4.5478 N   0  0  0  0  0  0
   14.0048   14.9061    5.2029 N   0  0  0  0  0  0
   15.2276   14.7581    4.7291 C   0  0  0  0  0  0
   16.3448   15.6332    5.1194 C   0  0  0  0  0  0
   17.4140   15.9292    4.2641 C   0  0  0  0  0  0
   18.3395   16.9357    4.5804 C   0  0  0  0  0  0
   18.1725   17.6330    5.7753 C   0  0  0  0  0  0
   17.1708   17.2321    6.6560 C   0  0  0  0  0  0
   16.2816   16.2314    6.3579 C   0  0  0  0  0  0
   17.5707   13.0536    3.1793 N   0  0  0  0  0  0
   19.3503   17.3636    3.7394 O   0  0  0  0  0  0
   18.9808   18.7284    6.0030 O   0  0  0  0  0  0
   18.5652   19.7411    6.9170 C   0  0  0  0  0  0
   19.4976   16.7467    2.4718 C   0  0  0  0  0  0
   11.7710   13.8999    4.9047 C   0  0  0  0  0  0
   10.9640   15.1830    4.6424 C   0  0  0  0  0  0
   11.6495   13.3767    6.3487 C   0  0  0  0  0  0
   20.5876   17.4657    1.6869 C   0  0  0  0  0  0
   14.1029   11.3127    1.2030 H   0  0  0  0  0  0
   17.4348   15.4924    3.2823 H   0  0  0  0  0  0
   17.0051   17.6887    7.6029 H   0  0  0  0  0  0
   15.4925   15.9961    7.0587 H   0  0  0  0  0  0
   17.9527   13.6209    3.9216 H   0  0  0  0  0  0
   18.1624   12.4875    2.5863 H   0  0  0  0  0  0
   19.4397   20.0330    7.4898 H   0  0  0  0  0  0
   18.1939   20.5971    6.3549 H   0  0  0  0  0  0
   17.8086   19.5069    7.6592 H   0  0  0  0  0  0
   19.7442   15.6923    2.5972 H   0  0  0  0  0  0
   18.5663   16.8330    1.9183 H   0  0  0  0  0  0
   11.3561   13.1311    4.2507 H   0  0  0  0  0  0
   10.1001   15.2326    5.3007 H   0  0  0  0  0  0
   11.5550   16.0841    4.8029 H   0  0  0  0  0  0
   10.5733   15.2064    3.6215 H   0  0  0  0  0  0
   10.6095   13.2287    6.6402 H   0  0  0  0  0  0
   12.1640   12.4286    6.4508 H   0  0  0  0  0  0
   12.1111   14.0329    7.0772 H   0  0  0  0  0  0
   20.8709   16.8952    0.8030 H   0  0  0  0  0  0
   20.2369   18.4329    1.3497 H   0  0  0  0  0  0
   21.4755   17.6329    2.2963 H   0  0  0  0  0  0
  1  2  2  0  0  0
  1  4  1  0  0  0
  2  3  1  0  0  0
  2 25  1  0  0  0
  3  6  2  0  0  0
  4  5  2  0  0  0
  4 16  1  0  0  0
  5  9  1  0  0  0
  5  6  1  0  0  0
  6  7  1  0  0  0
  7  8  1  0  0  0
  7 21  1  0  0  0
  8  9  2  0  0  0
  9 10  1  0  0  0
 10 15  1  0  0  0
 10 11  2  0  0  0
 11 12  1  0  0  0
 11 26  1  0  0  0
 12 13  2  0  0  0
 12 17  1  0  0  0
 13 14  1  0  0  0
 13 18  1  0  0  0
 14 15  2  0  0  0
 14 27  1  0  0  0
 15 28  1  0  0  0
 16 29  1  0  0  0
 16 30  1  0  0  0
 17 20  1  0  0  0
 18 19  1  0  0  0
 19 31  1  0  0  0
 19 32  1  0  0  0
 19 33  1  0  0  0
 20 24  1  0  0  0
 20 34  1  0  0  0
 20 35  1  0  0  0
 21 22  1  0  0  0
 21 23  1  0  0  0
 21 36  1  0  0  0
 22 37  1  0  0  0
 22 38  1  0  0  0
 22 39  1  0  0  0
 23 40  1  0  0  0
 23 41  1  0  0  0
 23 42  1  0  0  0
 24 43  1  0  0  0
 24 44  1  0  0  0
 24 45  1  0  0  0
M  END
> <s_m_entry_id>
6336

> <s_m_entry_name>
dock_pv.262

> <s_m_Source_Path>
/home/csk/Desktop/cluster/DUD-E-result/abl1

> <s_m_Source_File>
dock_pv.maegz

> <i_m_Source_File_Index>
262

> <chembl_id>
CHEMBL1242752

> <chembl_pref_name>
None

> <i_lp_mmshare_version>
53161

> <i_f3d_flags>
0

> <r_lp_tautomer_probability>
1

> <s_lp_Force_Field>
OPLS_2005

> <r_lp_Energy>
18.835167

> <b_lp_Chiralities_Consistent>
1

> <s_lp_Variant>
CHEMBL1862_lig471-1

> <s_i_glide_gridfile>
glide-grid_2hzi

> <i_i_glide_lignum>
560

> <i_i_glide_rotatable_bonds>
5

> <r_i_docking_score>
-8.47725032767055

> <r_i_glide_ligand_efficiency>
-0.35321876365294

> <r_i_glide_ligand_efficiency_sa>
-1.0188592191266

> <r_i_glide_ligand_efficiency_ln>
-2.0289949990818

> <r_i_glide_gscore>
-8.47725032767055

> <r_i_glide_lipo>
-3.26362002456684

> <r_i_glide_hbond>
-0.32

> <r_i_glide_metal>
0

> <r_i_glide_rewards>
-3.3500641256342

> <r_i_glide_evdw>
-25.1047992706299

> <r_i_glide_ecoul>
-4.25690269470215

> <r_i_glide_erotb>
0.350209190267301

> <r_i_glide_esite>
0

> <r_i_glide_emodel>
-29.1050371691593

> <r_i_glide_energy>
-29.361701965332

> <r_i_glide_einternal>
3.95553135871887

> <i_i_glide_confnum>
3

> <i_i_glide_posenum>
102

> <r_i_glide_eff_state_penalty>
0

> <s_user_duplicate_titles>
CHEMBL1862_lig471

> <s_m_subgroup_title>
dock_pv

> <s_m_subgroupid>
dock_pv

> <b_m_subgroup_collapsed>
0

$$$$
CHEMBL1862_lig757
                    3D
 Schrodinger Suite 2021-1.
 41 43  0  0  1  0            999 V2000
   18.3116   15.8123    5.0145 C   0  0  0  0  0  0
   17.3270   16.3929    5.8188 C   0  0  0  0  0  0
   15.9894   16.0246    5.7236 C   0  0  0  0  0  0
   17.9843   14.8461    4.0493 C   0  0  0  0  0  0
   16.6369   14.4737    3.9590 C   0  0  0  0  0  0
   15.6413   15.0516    4.7845 C   0  0  0  0  0  0
   14.4138   14.5129    4.5340 N   0  0  0  0  0  0
   14.6173   13.6124    3.5974 C   0  0  0  0  0  0
   15.9367   13.5593    3.1997 N   0  0  0  0  0  0
   13.6766   12.7780    3.0028 N   0  0  0  0  0  0
   12.3433   12.8529    3.2044 C   0  0  0  0  0  0
   11.6459   11.9963    2.4440 N   0  0  0  0  0  0
   11.7889   13.6363    3.9814 O   0  0  0  0  0  0
   10.1798   11.9770    2.4277 C   0  0  0  0  0  0
    9.6227   11.0629    1.3450 C   0  0  0  0  0  0
   19.7194   16.1914    5.2633 C   0  0  0  0  0  0
   20.3072   17.3217    4.6732 C   0  0  0  0  0  0
   21.6078   17.7065    5.0129 C   0  0  0  0  0  0
   22.3370   16.9519    5.9269 C   0  0  0  0  0  0
   21.7648   15.8147    6.4887 C   0  0  0  0  0  0
   20.4706   15.4310    6.1592 C   0  0  0  0  0  0
   19.6188   18.0308    3.7255 O   0  0  0  0  0  0
   19.9921   17.7162    2.3886 C   0  0  0  0  0  0
   18.9777   18.0350    1.6034 F   0  0  0  0  0  0
   21.1166   18.3235    2.0037 F   0  0  0  0  0  0
   20.1546   16.4328    2.2147 F   0  0  0  0  0  0
   17.6126   17.1258    6.5610 H   0  0  0  0  0  0
   15.2459   16.4335    6.3862 H   0  0  0  0  0  0
   18.7450   14.3930    3.4299 H   0  0  0  0  0  0
   16.2842   12.9341    2.4896 H   0  0  0  0  0  0
   14.0145   12.1013    2.3367 H   0  0  0  0  0  0
   12.1205   11.2247    1.9958 H   0  0  0  0  0  0
    9.7756   12.9815    2.2848 H   0  0  0  0  0  0
    9.8121   11.6361    3.3978 H   0  0  0  0  0  0
    8.5329   11.1064    1.3202 H   0  0  0  0  0  0
    9.8998   10.0331    1.5518 H   0  0  0  0  0  0
    9.9917   11.3396    0.3593 H   0  0  0  0  0  0
   22.0540   18.5804    4.5610 H   0  0  0  0  0  0
   23.3420   17.2429    6.1985 H   0  0  0  0  0  0
   22.3198   15.2344    7.2029 H   0  0  0  0  0  0
   20.0381   14.5562    6.6214 H   0  0  0  0  0  0
  1  2  2  0  0  0
  1  4  1  0  0  0
  1 16  1  0  0  0
  2  3  1  0  0  0
  2 27  1  0  0  0
  3  6  2  0  0  0
  3 28  1  0  0  0
  4  5  2  0  0  0
  4 29  1  0  0  0
  5  6  1  0  0  0
  5  9  1  0  0  0
  6  7  1  0  0  0
  7  8  2  0  0  0
  8  9  1  0  0  0
  8 10  1  0  0  0
  9 30  1  0  0  0
 10 11  1  0  0  0
 10 31  1  0  0  0
 11 12  1  0  0  0
 11 13  2  0  0  0
 12 14  1  0  0  0
 12 32  1  0  0  0
 14 15  1  0  0  0
 14 33  1  0  0  0
 14 34  1  0  0  0
 15 35  1  0  0  0
 15 36  1  0  0  0
 15 37  1  0  0  0
 16 17  2  0  0  0
 16 21  1  0  0  0
 17 18  1  0  0  0
 17 22  1  0  0  0
 18 19  2  0  0  0
 18 38  1  0  0  0
 19 20  1  0  0  0
 19 39  1  0  0  0
 20 21  2  0  0  0
 20 40  1  0  0  0
 21 41  1  0  0  0
 22 23  1  0  0  0
 23 24  1  0  0  0
 23 25  1  0  0  0
 23 26  1  0  0  0
M  END
> <s_m_entry_id>
6337

> <s_m_entry_name>
dock_pv.263

> <s_m_Source_Path>
/home/csk/Desktop/cluster/DUD-E-result/abl1

> <s_m_Source_File>
dock_pv.maegz

> <i_m_Source_File_Index>
263

> <chembl_id>
CHEMBL2347740

> <chembl_pref_name>
None

> <i_lp_mmshare_version>
53161

> <i_f3d_flags>
0

> <r_lp_tautomer_probability>
1

> <s_lp_Force_Field>
OPLS_2005

> <r_lp_Energy>
16.609029

> <b_lp_Chiralities_Consistent>
1

> <s_lp_Variant>
CHEMBL1862_lig757-1

> <s_i_glide_gridfile>
glide-grid_2hzi

> <i_i_glide_lignum>
890

> <i_i_glide_rotatable_bonds>
7

> <r_i_docking_score>
-8.47302755823289

> <r_i_glide_ligand_efficiency>
-0.32588567531665

> <r_i_glide_ligand_efficiency_sa>
-0.965435030827362

> <r_i_glide_ligand_efficiency_ln>
-1.98986271977992

> <r_i_glide_gscore>
-8.47302755823289

> <r_i_glide_lipo>
-3.86059713855929

> <r_i_glide_hbond>
-0.0716235448565148

> <r_i_glide_metal>
0

> <r_i_glide_rewards>
-2.677599358153

> <r_i_glide_evdw>
-42.1815567016602

> <r_i_glide_ecoul>
-2.68072319030762

> <r_i_glide_erotb>
0.724155504484826

> <r_i_glide_esite>
-0.0761767075197599

> <r_i_glide_emodel>
-57.4034462192507

> <r_i_glide_energy>
-44.8622798919678

> <r_i_glide_einternal>
5.87013244628906

> <i_i_glide_confnum>
6

> <i_i_glide_posenum>
126

> <r_i_glide_eff_state_penalty>
0

> <s_user_duplicate_titles>
CHEMBL1862_lig757

> <s_m_subgroup_title>
dock_pv

> <s_m_subgroupid>
dock_pv

> <b_m_subgroup_collapsed>
0

$$$$
CHEMBL1862_lig340
                    3D
 Schrodinger Suite 2021-1.
 43 46  0  0  1  0            999 V2000
    9.8587   11.2760    1.5706 C   0  0  0  0  0  0
   11.2442   11.1633    1.6031 C   0  0  0  0  0  0
   11.9972   11.9992    2.4151 C   0  0  0  0  0  0
   11.3548   12.9344    3.2283 C   0  0  0  0  0  0
    9.9615   13.0371    3.2038 C   0  0  0  0  0  0
    9.2133   12.2145    2.3698 C   0  0  0  0  0  0
   12.0342   13.7932    4.1029 N   0  0  0  0  0  0
   13.3735   14.1458    4.2944 C   0  0  0  0  0  0
   14.3782   13.5509    3.6034 N   0  0  0  0  0  0
   14.7984   15.6329    5.3504 C   0  0  0  0  0  0
   13.5456   15.1465    5.1833 N   0  0  0  0  0  0
   15.8711   15.1272    4.6550 C   0  0  0  0  0  0
   15.6363   14.0408    3.8113 C   0  0  0  0  0  0
   16.7489   13.4224    3.1970 N   0  0  0  0  0  0
   18.0526   13.8339    3.3496 C   0  0  0  0  0  0
   18.2586   15.0296    4.1921 C   0  0  0  0  0  0
   17.2259   15.6312    4.8132 C   0  0  0  0  0  0
   16.4745   12.2276    2.3714 C   0  0  0  0  0  0
   18.9639   13.2332    2.8043 O   0  0  0  0  0  0
   19.6066   15.6168    4.4315 C   0  0  0  0  0  0
   20.3557   15.2340    5.5635 C   0  0  0  0  0  0
   21.5649   15.8608    5.8647 C   0  0  0  0  0  0
   22.0380   16.8951    5.0645 C   0  0  0  0  0  0
   21.3071   17.2928    3.9476 C   0  0  0  0  0  0
   20.1059   16.6582    3.6216 C   0  0  0  0  0  0
   19.2480   17.2313    2.2303 Cl  0  0  0  0  0  0
   19.7831   14.0328    6.6635 Cl  0  0  0  0  0  0
    9.1168   10.4330    0.7522 N   0  0  0  0  0  0
   11.7510   10.4224    0.9996 H   0  0  0  0  0  0
   13.0657   11.8667    2.4143 H   0  0  0  0  0  0
    9.4489   13.7527    3.8301 H   0  0  0  0  0  0
    8.1391   12.3005    2.3578 H   0  0  0  0  0  0
   11.4253   14.3326    4.6975 H   0  0  0  0  0  0
   14.9582   16.4326    6.0557 H   0  0  0  0  0  0
   17.4033   16.5032    5.4295 H   0  0  0  0  0  0
   15.9045   11.5057    2.9540 H   0  0  0  0  0  0
   15.8684   12.4990    1.5070 H   0  0  0  0  0  0
   17.3706   11.7215    2.0088 H   0  0  0  0  0  0
   22.1335   15.5551    6.7308 H   0  0  0  0  0  0
   22.9719   17.3817    5.3074 H   0  0  0  0  0  0
   21.6777   18.0941    3.3249 H   0  0  0  0  0  0
    8.1313   10.4028    0.9662 H   0  0  0  0  0  0
    9.5530    9.5285    0.5746 H   0  0  0  0  0  0
  1  2  2  0  0  0
  1  6  1  0  0  0
  1 28  1  0  0  0
  2  3  1  0  0  0
  2 29  1  0  0  0
  3  4  2  0  0  0
  3 30  1  0  0  0
  4  7  1  0  0  0
  4  5  1  0  0  0
  5  6  2  0  0  0
  5 31  1  0  0  0
  6 32  1  0  0  0
  7  8  1  0  0  0
  7 33  1  0  0  0
  8  9  1  0  0  0
  8 11  2  0  0  0
  9 13  2  0  0  0
 10 12  2  0  0  0
 10 11  1  0  0  0
 10 34  1  0  0  0
 12 17  1  0  0  0
 12 13  1  0  0  0
 13 14  1  0  0  0
 14 15  1  0  0  0
 14 18  1  0  0  0
 15 16  1  0  0  0
 15 19  2  0  0  0
 16 17  2  0  0  0
 16 20  1  0  0  0
 17 35  1  0  0  0
 18 36  1  0  0  0
 18 37  1  0  0  0
 18 38  1  0  0  0
 20 21  2  0  0  0
 20 25  1  0  0  0
 21 22  1  0  0  0
 21 27  1  0  0  0
 22 23  2  0  0  0
 22 39  1  0  0  0
 23 24  1  0  0  0
 23 40  1  0  0  0
 24 25  2  0  0  0
 24 41  1  0  0  0
 25 26  1  0  0  0
 28 42  1  0  0  0
 28 43  1  0  0  0
M  END
> <s_m_entry_id>
6338

> <s_m_entry_name>
dock_pv.264

> <s_m_Source_Path>
/home/csk/Desktop/cluster/DUD-E-result/abl1

> <s_m_Source_File>
dock_pv.maegz

> <i_m_Source_File_Index>
264

> <chembl_id>
CHEMBL566636

> <chembl_pref_name>
None

> <i_lp_mmshare_version>
53161

> <i_f3d_flags>
0

> <r_lp_tautomer_probability>
1

> <s_lp_Force_Field>
OPLS_2005

> <r_lp_Energy>
27.444291

> <b_lp_Chiralities_Consistent>
1

> <s_lp_Variant>
CHEMBL1862_lig340-1

> <s_i_glide_gridfile>
glide-grid_2hzi

> <i_i_glide_lignum>
419

> <i_i_glide_rotatable_bonds>
3

> <r_i_docking_score>
-8.47089775923123

> <r_i_glide_ligand_efficiency>
-0.302532062829687

> <r_i_glide_ligand_efficiency_sa>
-0.918665524607028

> <r_i_glide_ligand_efficiency_ln>
-1.95533191919618

> <r_i_glide_gscore>
-8.47089775923123

> <r_i_glide_lipo>
-3.90804042857511

> <r_i_glide_hbond>
-0.320230867646404

> <r_i_glide_metal>
0

> <r_i_glide_rewards>
-2.68559679302063

> <r_i_glide_evdw>
-44.1910972595215

> <r_i_glide_ecoul>
2.37371969223022

> <r_i_glide_erotb>
0.34801985443435

> <r_i_glide_esite>
-0.0515526152818922

> <r_i_glide_emodel>
-49.4863359539874

> <r_i_glide_energy>
-41.8173775672913

> <r_i_glide_einternal>
4.95581102371216

> <i_i_glide_confnum>
4

> <i_i_glide_posenum>
11

> <r_i_glide_eff_state_penalty>
0

> <s_user_duplicate_titles>
CHEMBL1862_lig340,583144

> <s_m_subgroup_title>
dock_pv

> <s_m_subgroupid>
dock_pv

> <b_m_subgroup_collapsed>
0

$$$$
CHEMBL1862_lig748
                    3D
 Schrodinger Suite 2021-1.
 39 41  0  0  1  0            999 V2000
   18.6967   16.2469    4.4970 C   0  0  0  0  0  0
   17.8134   16.6871    5.4933 C   0  0  0  0  0  0
   16.5135   16.1850    5.6111 C   0  0  0  0  0  0
   18.3096   15.2363    3.6034 C   0  0  0  0  0  0
   17.0113   14.7322    3.7280 C   0  0  0  0  0  0
   16.0989   15.2036    4.7034 C   0  0  0  0  0  0
   14.8858   14.5708    4.5904 N   0  0  0  0  0  0
   15.0382   13.7155    3.6018 C   0  0  0  0  0  0
   16.2973   13.7688    3.0528 N   0  0  0  0  0  0
   14.1108   12.8373    3.0555 N   0  0  0  0  0  0
   12.7723   12.9042    3.2085 C   0  0  0  0  0  0
   12.1448   12.0326    2.4025 N   0  0  0  0  0  0
   12.1783   13.6577    3.9815 O   0  0  0  0  0  0
   10.7569   11.5855    2.5499 C   0  0  0  0  0  0
    9.8995   11.7272    1.2865 C   0  0  0  0  0  0
   20.0378   16.8787    4.3556 C   0  0  0  0  0  0
   20.9248   16.9736    5.4384 C   0  0  0  0  0  0
   22.1611   17.6049    5.2567 C   0  0  0  0  0  0
   22.5585   18.1256    4.0708 N   0  0  0  0  0  0
   21.6937   18.0334    3.0305 C   0  0  0  0  0  0
   20.4444   17.4162    3.1271 C   0  0  0  0  0  0
   23.1423   17.7715    6.3942 C   0  0  0  0  0  0
   18.1288   17.4658    6.1738 H   0  0  0  0  0  0
   15.8408   16.5509    6.3739 H   0  0  0  0  0  0
   18.9878   14.8737    2.8447 H   0  0  0  0  0  0
   16.5964   13.1955    2.2795 H   0  0  0  0  0  0
   14.4610   12.1768    2.3810 H   0  0  0  0  0  0
   12.7174   11.4361    1.8194 H   0  0  0  0  0  0
   10.2492   12.0734    3.3851 H   0  0  0  0  0  0
   10.8017   10.5301    2.8024 H   0  0  0  0  0  0
    8.9024   11.3252    1.4710 H   0  0  0  0  0  0
   10.3067   11.1588    0.4520 H   0  0  0  0  0  0
    9.7633   12.7617    0.9841 H   0  0  0  0  0  0
   20.6581   16.5608    6.4006 H   0  0  0  0  0  0
   22.0272   18.4517    2.0908 H   0  0  0  0  0  0
   19.7957   17.3658    2.2635 H   0  0  0  0  0  0
   22.9534   17.0450    7.1827 H   0  0  0  0  0  0
   24.1639   17.6335    6.0473 H   0  0  0  0  0  0
   23.0703   18.7787    6.8026 H   0  0  0  0  0  0
  1  2  2  0  0  0
  1  4  1  0  0  0
  1 16  1  0  0  0
  2  3  1  0  0  0
  2 23  1  0  0  0
  3  6  2  0  0  0
  3 24  1  0  0  0
  4  5  2  0  0  0
  4 25  1  0  0  0
  5  6  1  0  0  0
  5  9  1  0  0  0
  6  7  1  0  0  0
  7  8  2  0  0  0
  8  9  1  0  0  0
  8 10  1  0  0  0
  9 26  1  0  0  0
 10 11  1  0  0  0
 10 27  1  0  0  0
 11 12  1  0  0  0
 11 13  2  0  0  0
 12 14  1  0  0  0
 12 28  1  0  0  0
 14 15  1  0  0  0
 14 29  1  0  0  0
 14 30  1  0  0  0
 15 31  1  0  0  0
 15 32  1  0  0  0
 15 33  1  0  0  0
 16 17  2  0  0  0
 16 21  1  0  0  0
 17 18  1  0  0  0
 17 34  1  0  0  0
 18 19  2  0  0  0
 18 22  1  0  0  0
 19 20  1  0  0  0
 20 21  2  0  0  0
 20 35  1  0  0  0
 21 36  1  0  0  0
 22 37  1  0  0  0
 22 38  1  0  0  0
 22 39  1  0  0  0
M  END
> <s_m_entry_id>
6339

> <s_m_entry_name>
dock_pv.265

> <s_m_Source_Path>
/home/csk/Desktop/cluster/DUD-E-result/abl1

> <s_m_Source_File>
dock_pv.maegz

> <i_m_Source_File_Index>
265

> <chembl_id>
CHEMBL2347749

> <chembl_pref_name>
None

> <i_lp_mmshare_version>
53161

> <i_f3d_flags>
0

> <r_lp_tautomer_probability>
1

> <s_lp_Force_Field>
OPLS_2005

> <r_lp_Energy>
11.098507

> <b_lp_Chiralities_Consistent>
1

> <s_lp_Variant>
CHEMBL1862_lig748-1

> <s_i_glide_gridfile>
glide-grid_2hzi

> <i_i_glide_lignum>
881

> <i_i_glide_rotatable_bonds>
5

> <r_i_docking_score>
-8.46169561503928

> <r_i_glide_ligand_efficiency>
-0.384622527956331

> <r_i_glide_ligand_efficiency_sa>
-1.07772744967931

> <r_i_glide_ligand_efficiency_ln>
-2.06834705616245

> <r_i_glide_gscore>
-8.46169561503928

> <r_i_glide_lipo>
-3.68603954151214

> <r_i_glide_hbond>
-0.1232281208676

> <r_i_glide_metal>
0

> <r_i_glide_rewards>
-2.81172431610199

> <r_i_glide_evdw>
-43.3023719787598

> <r_i_glide_ecoul>
-3.43280124664307

> <r_i_glide_erotb>
0.8393351493769

> <r_i_glide_esite>
0

> <r_i_glide_emodel>
-69.8473572357258

> <r_i_glide_energy>
-46.7351732254028

> <r_i_glide_einternal>
2.75185751914978

> <i_i_glide_confnum>
9

> <i_i_glide_posenum>
136

> <r_i_glide_eff_state_penalty>
0

> <s_user_duplicate_titles>
CHEMBL1862_lig748

> <s_m_subgroup_title>
dock_pv

> <s_m_subgroupid>
dock_pv

> <b_m_subgroup_collapsed>
0

$$$$
CHEMBL1862_lig867
                    3D
 Schrodinger Suite 2021-1.
 37 39  0  0  1  0            999 V2000
   14.5884   14.7340    4.1692 N   0  0  0  0  0  0
   15.9580   14.6244    4.0499 C   0  0  0  0  0  0
   16.1947   13.4345    3.3626 C   0  0  0  0  0  0
   14.9290   12.8904    3.0531 C   0  0  0  0  0  0
   13.9318   13.6677    3.6066 C   0  0  0  0  0  0
   17.4724   12.8433    3.0508 C   0  0  0  0  0  0
   18.5640   13.3741    3.2026 O   0  0  0  0  0  0
   17.3767   11.6332    2.5555 N   0  0  0  0  0  0
   16.8982   15.6338    4.6325 C   0  0  0  0  0  0
   16.7007   16.1975    5.9010 C   0  0  0  0  0  0
   17.5341   17.2190    6.3442 C   0  0  0  0  0  0
   18.6247   17.6309    5.5880 C   0  0  0  0  0  0
   18.8849   17.0319    4.3563 C   0  0  0  0  0  0
   17.9943   16.0713    3.8732 C   0  0  0  0  0  0
   10.6551   12.2614    2.8030 C   0  0  0  0  0  0
   11.9972   12.4572    2.8193 N   0  0  0  0  0  0
   12.4561   13.4670    3.6153 C   0  0  0  0  0  0
   11.5935   14.2415    4.4018 C   0  0  0  0  0  0
   10.2292   13.9596    4.3092 C   0  0  0  0  0  0
    9.7418   12.9738    3.5097 N   0  0  0  0  0  0
   10.1768   11.2343    2.0010 N   0  0  0  0  0  0
   15.4648   15.6329    6.9655 Cl  0  0  0  0  0  0
   20.1288   17.3828    3.5497 C   0  0  0  0  0  0
   19.8155   17.6317    2.2772 F   0  0  0  0  0  0
   20.7776   18.4321    4.0466 F   0  0  0  0  0  0
   20.9603   16.3512    3.6034 F   0  0  0  0  0  0
   14.1279   15.4896    4.6558 H   0  0  0  0  0  0
   14.7407   11.9746    2.5099 H   0  0  0  0  0  0
   16.5621   11.0987    2.8064 H   0  0  0  0  0  0
   18.2253   11.1991    2.2092 H   0  0  0  0  0  0
   17.3625   17.6874    7.2963 H   0  0  0  0  0  0
   19.2757   18.3998    5.9767 H   0  0  0  0  0  0
   18.1605   15.6799    2.8815 H   0  0  0  0  0  0
   11.9605   15.0240    5.0461 H   0  0  0  0  0  0
    9.5035   14.5122    4.8870 H   0  0  0  0  0  0
    9.2326   10.9189    2.1761 H   0  0  0  0  0  0
   10.8553   10.6005    1.6070 H   0  0  0  0  0  0
  1  2  1  0  0  0
  1  5  1  0  0  0
  1 27  1  0  0  0
  2  3  2  0  0  0
  2  9  1  0  0  0
  3  4  1  0  0  0
  3  6  1  0  0  0
  4  5  2  0  0  0
  4 28  1  0  0  0
  5 17  1  0  0  0
  6  7  2  0  0  0
  6  8  1  0  0  0
  8 29  1  0  0  0
  8 30  1  0  0  0
  9 10  1  0  0  0
  9 14  2  0  0  0
 10 11  2  0  0  0
 10 22  1  0  0  0
 11 12  1  0  0  0
 11 31  1  0  0  0
 12 13  2  0  0  0
 12 32  1  0  0  0
 13 14  1  0  0  0
 13 23  1  0  0  0
 14 33  1  0  0  0
 15 16  1  0  0  0
 15 20  2  0  0  0
 15 21  1  0  0  0
 16 17  2  0  0  0
 17 18  1  0  0  0
 18 19  2  0  0  0
 18 34  1  0  0  0
 19 20  1  0  0  0
 19 35  1  0  0  0
 21 36  1  0  0  0
 21 37  1  0  0  0
 23 24  1  0  0  0
 23 25  1  0  0  0
 23 26  1  0  0  0
M  END
> <s_m_entry_id>
6340

> <s_m_entry_name>
dock_pv.266

> <s_m_Source_Path>
/home/csk/Desktop/cluster/DUD-E-result/abl1

> <s_m_Source_File>
dock_pv.maegz

> <i_m_Source_File_Index>
266

> <chembl_id>
CHEMBL3330125

> <chembl_pref_name>
None

> <i_lp_mmshare_version>
53161

> <i_f3d_flags>
0

> <r_lp_tautomer_probability>
0.999999987636

> <s_lp_Force_Field>
OPLS_2005

> <r_lp_Energy>
1.283854

> <b_lp_Chiralities_Consistent>
1

> <s_lp_Variant>
CHEMBL1862_lig867-1

> <s_i_glide_gridfile>
glide-grid_2hzi

> <i_i_glide_lignum>
1007

> <i_i_glide_rotatable_bonds>
4

> <r_i_docking_score>
-8.42242099329831

> <r_i_glide_ligand_efficiency>
-0.323939268973012

> <r_i_glide_ligand_efficiency_sa>
-0.959668809693074

> <r_i_glide_ligand_efficiency_ln>
-1.97797793405872

> <r_i_glide_gscore>
-8.42242099329831

> <r_i_glide_lipo>
-4.13669307421775

> <r_i_glide_hbond>
-0.271721933304246

> <r_i_glide_metal>
0

> <r_i_glide_rewards>
-2.6762252192774

> <r_i_glide_evdw>
-32.6132164001465

> <r_i_glide_ecoul>
0.526926279067993

> <r_i_glide_erotb>
0.266450800952202

> <r_i_glide_esite>
-0.0526096893039828

> <r_i_glide_emodel>
-42.4560471478533

> <r_i_glide_energy>
-32.0862901210785

> <r_i_glide_einternal>
2.19786214828491

> <i_i_glide_confnum>
7

> <i_i_glide_posenum>
204

> <r_i_glide_eff_state_penalty>
0

> <s_user_duplicate_titles>
CHEMBL1862_lig867

> <s_m_subgroup_title>
dock_pv

> <s_m_subgroupid>
dock_pv

> <b_m_subgroup_collapsed>
0

$$$$
CHEMBL1862_lig737
                    3D
 Schrodinger Suite 2021-1.
 44 46  0  0  1  0            999 V2000
   19.0823   16.3190    4.9599 C   0  0  0  0  0  0
   18.2221   17.1890    5.6376 C   0  0  0  0  0  0
   16.8829   16.8330    5.8389 C   0  0  0  0  0  0
   18.6092   15.1936    4.2873 C   0  0  0  0  0  0
   17.2368   14.9475    4.3352 C   0  0  0  0  0  0
   16.3759   15.7219    5.1532 C   0  0  0  0  0  0
   15.0670   15.3508    5.1358 N   0  0  0  0  0  0
   14.8593   14.3805    4.2918 C   0  0  0  0  0  0
   16.2876   13.7886    3.4354 S   0  0  0  0  0  0
   13.5684   13.8975    4.1118 N   0  0  0  0  0  0
   13.1547   12.9992    3.1959 C   0  0  0  0  0  0
   11.8246   12.8330    3.2041 N   0  0  0  0  0  0
   13.8846   12.4106    2.4024 O   0  0  0  0  0  0
   11.1255   11.8291    2.4029 C   0  0  0  0  0  0
    9.6048   11.9156    2.5681 C   0  0  0  0  0  0
   20.4952   16.7144    4.8428 C   0  0  0  0  0  0
   20.8937   17.4474    3.7243 C   0  0  0  0  0  0
   22.1639   18.0331    3.7066 C   0  0  0  0  0  0
   23.0132   17.8847    4.8030 C   0  0  0  0  0  0
   22.6275   17.1149    5.8970 C   0  0  0  0  0  0
   21.3709   16.5220    5.9142 C   0  0  0  0  0  0
   18.7894   18.4029    6.0030 O   0  0  0  0  0  0
   18.1640   19.3123    6.8882 C   0  0  0  0  0  0
   19.9525   17.6215    2.7340 O   0  0  0  0  0  0
   20.3890   17.6332    1.3963 C   0  0  0  0  0  0
   16.2152   17.4521    6.4027 H   0  0  0  0  0  0
   19.2703   14.5922    3.6771 H   0  0  0  0  0  0
   12.8725   14.3176    4.7064 H   0  0  0  0  0  0
   11.2594   13.3806    3.8339 H   0  0  0  0  0  0
   11.4699   10.8330    2.6883 H   0  0  0  0  0  0
   11.3816   11.9504    1.3480 H   0  0  0  0  0  0
    9.1136   11.1478    1.9692 H   0  0  0  0  0  0
    9.2195   12.8815    2.2406 H   0  0  0  0  0  0
    9.3026   11.7521    3.6028 H   0  0  0  0  0  0
   22.4803   18.6385    2.8719 H   0  0  0  0  0  0
   23.9839   18.3563    4.8035 H   0  0  0  0  0  0
   23.2977   16.9928    6.7365 H   0  0  0  0  0  0
   21.0545   15.9668    6.7849 H   0  0  0  0  0  0
   18.9158   20.0174    7.2379 H   0  0  0  0  0  0
   17.3934   19.9039    6.4030 H   0  0  0  0  0  0
   17.7640   18.8330    7.7744 H   0  0  0  0  0  0
   19.4987   17.6504    0.7758 H   0  0  0  0  0  0
   20.9640   18.5312    1.2030 H   0  0  0  0  0  0
   20.9640   16.7494    1.1282 H   0  0  0  0  0  0
  1  2  2  0  0  0
  1  4  1  0  0  0
  1 16  1  0  0  0
  2  3  1  0  0  0
  2 22  1  0  0  0
  3  6  2  0  0  0
  3 26  1  0  0  0
  4  5  2  0  0  0
  4 27  1  0  0  0
  5  6  1  0  0  0
  5  9  1  0  0  0
  6  7  1  0  0  0
  7  8  2  0  0  0
  8  9  1  0  0  0
  8 10  1  0  0  0
 10 11  1  0  0  0
 10 28  1  0  0  0
 11 12  1  0  0  0
 11 13  2  0  0  0
 12 14  1  0  0  0
 12 29  1  0  0  0
 14 15  1  0  0  0
 14 30  1  0  0  0
 14 31  1  0  0  0
 15 32  1  0  0  0
 15 33  1  0  0  0
 15 34  1  0  0  0
 16 17  2  0  0  0
 16 21  1  0  0  0
 17 18  1  0  0  0
 17 24  1  0  0  0
 18 19  2  0  0  0
 18 35  1  0  0  0
 19 20  1  0  0  0
 19 36  1  0  0  0
 20 21  2  0  0  0
 20 37  1  0  0  0
 21 38  1  0  0  0
 22 23  1  0  0  0
 23 39  1  0  0  0
 23 40  1  0  0  0
 23 41  1  0  0  0
 24 25  1  0  0  0
 25 42  1  0  0  0
 25 43  1  0  0  0
 25 44  1  0  0  0
M  END
> <s_m_entry_id>
6341

> <s_m_entry_name>
dock_pv.267

> <s_m_Source_Path>
/home/csk/Desktop/cluster/DUD-E-result/abl1

> <s_m_Source_File>
dock_pv.maegz

> <i_m_Source_File_Index>
267

> <chembl_id>
CHEMBL2347714

> <chembl_pref_name>
None

> <i_lp_mmshare_version>
53161

> <i_f3d_flags>
0

> <r_lp_tautomer_probability>
1

> <s_lp_Force_Field>
OPLS_2005

> <r_lp_Energy>
21.127532

> <b_lp_Chiralities_Consistent>
1

> <s_lp_Variant>
CHEMBL1862_lig737-1

> <s_i_glide_gridfile>
glide-grid_2hzi

> <i_i_glide_lignum>
870

> <i_i_glide_rotatable_bonds>
7

> <r_i_docking_score>
-8.42096737412778

> <r_i_glide_ligand_efficiency>
-0.336838694965111

> <r_i_glide_ligand_efficiency_sa>
-0.984922317937677

> <r_i_glide_ligand_efficiency_ln>
-1.99602162369661

> <r_i_glide_gscore>
-8.42096737412778

> <r_i_glide_lipo>
-4.51784511526217

> <r_i_glide_hbond>
0

> <r_i_glide_metal>
0

> <r_i_glide_rewards>
-2.04164989211318

> <r_i_glide_evdw>
-47.063102722168

> <r_i_glide_ecoul>
-0.718101441860199

> <r_i_glide_erotb>
0.599397985634998

> <r_i_glide_esite>
0

> <r_i_glide_emodel>
-61.7629742129509

> <r_i_glide_energy>
-47.7812041640282

> <r_i_glide_einternal>
3.00442218780518

> <i_i_glide_confnum>
9

> <i_i_glide_posenum>
267

> <r_i_glide_eff_state_penalty>
0

> <s_user_duplicate_titles>
CHEMBL1862_lig737

> <s_m_subgroup_title>
dock_pv

> <s_m_subgroupid>
dock_pv

> <b_m_subgroup_collapsed>
0

$$$$
CHEMBL1862_lig148
                    3D
 Schrodinger Suite 2021-1.
 33 35  0  0  1  0            999 V2000
   22.1644   16.1900    6.0824 C   0  0  0  0  0  0
   13.9242   12.3729    2.4026 C   0  0  0  0  0  0
   14.9429   13.1156    2.9897 C   0  0  0  0  0  0
   22.5647   17.4260    5.5760 C   0  0  0  0  0  0
   21.0582   15.5381    5.5411 C   0  0  0  0  0  0
   15.4959   15.6330    5.7770 C   0  0  0  0  0  0
   12.6110   12.5870    2.8100 C   0  0  0  0  0  0
   16.5647   16.3576    6.2977 C   0  0  0  0  0  0
   20.7682   17.3472    3.9612 C   0  0  0  0  0  0
   13.2881   14.2281    4.3064 C   0  0  0  0  0  0
   14.6438   14.0792    3.9657 C   0  0  0  0  0  0
   21.8670   17.9984    4.5148 C   0  0  0  0  0  0
   20.3559   16.1247    4.4870 C   0  0  0  0  0  0
   15.7140   14.9019    4.6030 C   0  0  0  0  0  0
   17.9337   15.5973    4.6016 C   0  0  0  0  0  0
   22.2521   19.2331    4.0145 N   0  0  0  0  0  0
   12.2826   13.5052    3.7506 N   0  0  0  0  0  0
   17.7891   16.3536    5.7234 N   0  0  0  0  0  0
   19.1932   15.5269    4.0001 N   0  0  0  0  0  0
   16.9442   14.8823    4.0111 N   0  0  0  0  0  0
   22.7084   15.7429    6.8979 H   0  0  0  0  0  0
   14.1481   11.6331    1.6476 H   0  0  0  0  0  0
   15.9603   12.9393    2.6728 H   0  0  0  0  0  0
   23.4186   17.9258    6.0077 H   0  0  0  0  0  0
   20.7377   14.5910    5.9478 H   0  0  0  0  0  0
   14.5527   15.6332    6.2973 H   0  0  0  0  0  0
   11.8006   12.0139    2.3801 H   0  0  0  0  0  0
   16.4571   16.9353    7.2029 H   0  0  0  0  0  0
   20.2160   17.7999    3.1524 H   0  0  0  0  0  0
   12.9658   14.9535    5.0378 H   0  0  0  0  0  0
   22.9546   19.7678    4.5095 H   0  0  0  0  0  0
   21.7587   19.6254    3.2280 H   0  0  0  0  0  0
   19.2791   14.9621    3.1675 H   0  0  0  0  0  0
  1  4  2  0  0  0
  1  5  1  0  0  0
  1 21  1  0  0  0
  2  3  2  0  0  0
  2  7  1  0  0  0
  2 22  1  0  0  0
  3 11  1  0  0  0
  3 23  1  0  0  0
  4 12  1  0  0  0
  4 24  1  0  0  0
  5 13  2  0  0  0
  5 25  1  0  0  0
  6  8  2  0  0  0
  6 14  1  0  0  0
  6 26  1  0  0  0
  7 17  2  0  0  0
  7 27  1  0  0  0
  8 18  1  0  0  0
  8 28  1  0  0  0
  9 12  2  0  0  0
  9 13  1  0  0  0
  9 29  1  0  0  0
 10 11  2  0  0  0
 10 17  1  0  0  0
 10 30  1  0  0  0
 11 14  1  0  0  0
 12 16  1  0  0  0
 13 19  1  0  0  0
 14 20  2  0  0  0
 15 18  2  0  0  0
 15 19  1  0  0  0
 15 20  1  0  0  0
 16 31  1  0  0  0
 16 32  1  0  0  0
 19 33  1  0  0  0
M  END
> <s_m_entry_id>
6342

> <s_m_entry_name>
dock_pv.268

> <s_m_Source_Path>
/home/csk/Desktop/cluster/DUD-E-result/abl1

> <s_m_Source_File>
dock_pv.maegz

> <i_m_Source_File_Index>
268

> <chembl_id>
CHEMBL57553

> <chembl_pref_name>
None

> <i_lp_mmshare_version>
53161

> <i_f3d_flags>
0

> <r_lp_tautomer_probability>
0.999999987636

> <s_lp_Force_Field>
OPLS_2005

> <r_lp_Energy>
10.737756

> <b_lp_Chiralities_Consistent>
1

> <s_lp_Variant>
CHEMBL1862_lig148-1

> <s_i_glide_gridfile>
glide-grid_2hzi

> <i_i_glide_lignum>
167

> <i_i_glide_rotatable_bonds>
3

> <r_i_docking_score>
-8.39855943974992

> <r_i_glide_ligand_efficiency>
-0.419927971987496

> <r_i_glide_ligand_efficiency_sa>
-1.13985988372559

> <r_i_glide_ligand_efficiency_ln>
-2.1018824247401

> <r_i_glide_gscore>
-8.39855943974992

> <r_i_glide_lipo>
-4.14270940659738

> <r_i_glide_hbond>
0

> <r_i_glide_metal>
0

> <r_i_glide_rewards>
-2.56516339353463

> <r_i_glide_evdw>
-41.006908416748

> <r_i_glide_ecoul>
-2.72484278678894

> <r_i_glide_erotb>
0.768385199237845

> <r_i_glide_esite>
0

> <r_i_glide_emodel>
-63.4687536403454

> <r_i_glide_energy>
-43.731751203537

> <r_i_glide_einternal>
4.20852184295654

> <i_i_glide_confnum>
12

> <i_i_glide_posenum>
276

> <r_i_glide_eff_state_penalty>
0

> <s_user_duplicate_titles>
CHEMBL1862_lig148,88537

> <s_m_subgroup_title>
dock_pv

> <s_m_subgroupid>
dock_pv

> <b_m_subgroup_collapsed>
0

$$$$
CHEMBL1862_lig938
                    3D
 Schrodinger Suite 2021-1.
 41 45  0  0  1  0            999 V2000
   19.6114   18.6652    5.4468 N   0  0  0  0  0  0
   18.6939   18.8998    6.3970 C   0  0  0  0  0  0
   17.7620   18.0330    6.7989 N   0  0  0  0  0  0
   17.5609   16.9028    6.0884 C   0  0  0  0  0  0
   19.3749   17.5690    4.7421 C   0  0  0  0  0  0
   18.3584   16.6352    4.9800 C   0  0  0  0  0  0
   18.4981   15.6754    3.9409 C   0  0  0  0  0  0
   19.5414   15.9668    3.2006 N   0  0  0  0  0  0
   20.0591   17.1247    3.6544 N   0  0  0  0  0  0
   16.5580   16.0506    6.5274 N   0  0  0  0  0  0
   17.6065   14.5436    3.6330 C   0  0  0  0  0  0
   16.2291   14.7172    3.7934 C   0  0  0  0  0  0
   17.3072   12.2817    2.7940 C   0  0  0  0  0  0
   18.1310   13.3332    3.1755 C   0  0  0  0  0  0
   15.9306   12.5130    2.8750 C   0  0  0  0  0  0
   15.3845   13.6915    3.3955 C   0  0  0  0  0  0
   14.0273   13.6318    3.4010 N   0  0  0  0  0  0
   13.7984   12.4963    2.8059 C   0  0  0  0  0  0
   14.8911   11.7395    2.4777 O   0  0  0  0  0  0
   21.2626   17.6804    3.0831 C   0  0  0  0  0  0
   22.4754   17.4935    4.0182 C   0  0  0  0  0  0
   12.5787   12.0328    2.4586 N   0  0  0  0  0  0
   22.6837   18.6494    4.7591 O   0  0  0  0  0  0
   23.2630   18.2738    5.9864 C   0  0  0  0  0  0
   22.6495   16.8976    6.2322 C   0  0  0  0  0  0
   22.3058   16.4564    4.9341 O   0  0  0  0  0  0
   18.7998   19.7909    6.9904 H   0  0  0  0  0  0
   16.4070   15.1783    6.0440 H   0  0  0  0  0  0
   16.0046   16.3217    7.3279 H   0  0  0  0  0  0
   15.8000   15.6320    4.1490 H   0  0  0  0  0  0
   17.7374   11.3767    2.4029 H   0  0  0  0  0  0
   19.1980   13.2342    3.0508 H   0  0  0  0  0  0
   21.3638   17.2355    2.1002 H   0  0  0  0  0  0
   21.1403   18.7510    2.9264 H   0  0  0  0  0  0
   23.3768   17.3024    3.4453 H   0  0  0  0  0  0
   11.7349   12.5320    2.6849 H   0  0  0  0  0  0
   12.4984   11.0905    2.0886 H   0  0  0  0  0  0
   24.3509   18.2903    5.9359 H   0  0  0  0  0  0
   22.9663   18.9618    6.7706 H   0  0  0  0  0  0
   23.3706   16.2334    6.6957 H   0  0  0  0  0  0
   21.7599   16.9658    6.8586 H   0  0  0  0  0  0
  1  5  1  0  0  0
  1  2  2  0  0  0
  2  3  1  0  0  0
  2 27  1  0  0  0
  3  4  2  0  0  0
  4  6  1  0  0  0
  4 10  1  0  0  0
  5  6  2  0  0  0
  5  9  1  0  0  0
  6  7  1  0  0  0
  7  8  2  0  0  0
  7 11  1  0  0  0
  8  9  1  0  0  0
  9 20  1  0  0  0
 10 28  1  0  0  0
 10 29  1  0  0  0
 11 12  2  0  0  0
 11 14  1  0  0  0
 12 16  1  0  0  0
 12 30  1  0  0  0
 13 15  1  0  0  0
 13 14  2  0  0  0
 13 31  1  0  0  0
 14 32  1  0  0  0
 15 16  2  0  0  0
 15 19  1  0  0  0
 16 17  1  0  0  0
 17 18  2  0  0  0
 18 19  1  0  0  0
 18 22  1  0  0  0
 20 21  1  0  0  0
 20 33  1  0  0  0
 20 34  1  0  0  0
 21 23  1  0  0  0
 21 26  1  0  0  0
 21 35  1  0  0  0
 22 36  1  0  0  0
 22 37  1  0  0  0
 23 24  1  0  0  0
 24 25  1  0  0  0
 24 38  1  0  0  0
 24 39  1  0  0  0
 25 26  1  0  0  0
 25 40  1  0  0  0
 25 41  1  0  0  0
M  END
> <s_m_entry_id>
6343

> <s_m_entry_name>
dock_pv.269

> <s_m_Source_Path>
/home/csk/Desktop/cluster/DUD-E-result/abl1

> <s_m_Source_File>
dock_pv.maegz

> <i_m_Source_File_Index>
269

> <chembl_id>
CHEMBL3797590

> <chembl_pref_name>
None

> <i_lp_mmshare_version>
53161

> <i_f3d_flags>
0

> <r_lp_tautomer_probability>
1

> <s_lp_Force_Field>
OPLS_2005

> <r_lp_Energy>
12.419861

> <b_lp_Chiralities_Consistent>
1

> <s_lp_Variant>
CHEMBL1862_lig938-1

> <s_i_glide_gridfile>
glide-grid_2hzi

> <i_i_glide_lignum>
1100

> <i_i_glide_rotatable_bonds>
3

> <r_i_docking_score>
-8.38992503565212

> <r_i_glide_ligand_efficiency>
-0.322689424448158

> <r_i_glide_ligand_efficiency_sa>
-0.955966150206096

> <r_i_glide_ligand_efficiency_ln>
-1.97034636503344

> <r_i_glide_gscore>
-8.38992503565212

> <r_i_glide_lipo>
-3.7973926624501

> <r_i_glide_hbond>
-0.441229577938507

> <r_i_glide_metal>
0

> <r_i_glide_rewards>
-3.17049361985584

> <r_i_glide_evdw>
-21.7109508514404

> <r_i_glide_ecoul>
-2.36081337928772

> <r_i_glide_erotb>
0.458860374057512

> <r_i_glide_esite>
0

> <r_i_glide_emodel>
-24.714891109937

> <r_i_glide_energy>
-24.0717642307281

> <r_i_glide_einternal>
6.04004383087158

> <i_i_glide_confnum>
23

> <i_i_glide_posenum>
39

> <r_i_glide_eff_state_penalty>
0

> <s_user_duplicate_titles>
CHEMBL1862_lig938

> <s_m_subgroup_title>
dock_pv

> <s_m_subgroupid>
dock_pv

> <b_m_subgroup_collapsed>
0

$$$$
CHEMBL1862_lig175
                    3D
 Schrodinger Suite 2021-1.
 32 34  0  0  1  0            999 V2000
   15.5215   12.4330    2.4494 C   0  0  0  0  0  0
   16.0038   13.5604    3.3246 C   0  0  0  0  0  0
   15.4051   14.2628    4.3575 C   0  0  0  0  0  0
   16.2949   15.2343    4.8387 C   0  0  0  0  0  0
   16.0871   16.1678    6.0026 C   0  0  0  0  0  0
   17.4467   15.1213    4.0711 C   0  0  0  0  0  0
   18.6385   15.9409    4.0045 C   0  0  0  0  0  0
   19.7260   16.0126    4.8022 C   0  0  0  0  0  0
   20.0097   15.1543    5.9436 C   0  0  0  0  0  0
   19.3640   14.2169    6.4013 O   0  0  0  0  0  0
   21.1876   15.5749    6.4337 N   0  0  0  0  0  0
   21.6859   16.6589    5.7604 C   0  0  0  0  0  0
   22.8239   17.4223    6.0046 C   0  0  0  0  0  0
   23.0673   18.5344    5.2007 C   0  0  0  0  0  0
   22.2058   18.8326    4.1388 C   0  0  0  0  0  0
   21.0916   18.0325    3.8871 C   0  0  0  0  0  0
   20.8279   16.9557    4.7302 C   0  0  0  0  0  0
   17.2648   14.0813    3.2030 N   0  0  0  0  0  0
   14.5944   11.9948    2.8199 H   0  0  0  0  0  0
   16.2584   11.6332    2.4045 H   0  0  0  0  0  0
   15.3350   12.7682    1.4298 H   0  0  0  0  0  0
   14.4120   14.0827    4.7418 H   0  0  0  0  0  0
   15.7552   17.1531    5.6755 H   0  0  0  0  0  0
   15.3617   15.7768    6.7167 H   0  0  0  0  0  0
   17.0098   16.3123    6.5658 H   0  0  0  0  0  0
   18.6009   16.6237    3.1674 H   0  0  0  0  0  0
   21.6557   15.1274    7.2024 H   0  0  0  0  0  0
   23.4988   17.1873    6.8140 H   0  0  0  0  0  0
   23.9272   19.1605    5.3912 H   0  0  0  0  0  0
   22.4094   19.6854    3.5092 H   0  0  0  0  0  0
   20.4336   18.2666    3.0653 H   0  0  0  0  0  0
   17.9493   13.7756    2.5262 H   0  0  0  0  0  0
  1  2  1  0  0  0
  1 19  1  0  0  0
  1 20  1  0  0  0
  1 21  1  0  0  0
  2  3  2  0  0  0
  2 18  1  0  0  0
  3  4  1  0  0  0
  3 22  1  0  0  0
  4  5  1  0  0  0
  4  6  2  0  0  0
  5 23  1  0  0  0
  5 24  1  0  0  0
  5 25  1  0  0  0
  6  7  1  0  0  0
  6 18  1  0  0  0
  7  8  2  0  0  0
  7 26  1  0  0  0
  8  9  1  0  0  0
  8 17  1  0  0  0
  9 10  2  0  0  0
  9 11  1  0  0  0
 11 12  1  0  0  0
 11 27  1  0  0  0
 12 13  2  0  0  0
 12 17  1  0  0  0
 13 14  1  0  0  0
 13 28  1  0  0  0
 14 15  2  0  0  0
 14 29  1  0  0  0
 15 16  1  0  0  0
 15 30  1  0  0  0
 16 17  2  0  0  0
 16 31  1  0  0  0
 18 32  1  0  0  0
M  END
> <s_m_entry_id>
6344

> <s_m_entry_name>
dock_pv.270

> <s_m_Source_Path>
/home/csk/Desktop/cluster/DUD-E-result/abl1

> <s_m_Source_File>
dock_pv.maegz

> <i_m_Source_File_Index>
270

> <chembl_id>
CHEMBL276711

> <chembl_pref_name>
SEMAXANIB

> <i_lp_mmshare_version>
53161

> <i_f3d_flags>
0

> <r_lp_tautomer_probability>
1

> <s_lp_Force_Field>
OPLS_2005

> <r_lp_Energy>
28.173332

> <b_lp_Chiralities_Consistent>
1

> <s_lp_Variant>
CHEMBL1862_lig175-1

> <s_i_glide_gridfile>
glide-grid_2hzi

> <i_i_glide_lignum>
194

> <i_i_glide_rotatable_bonds>
1

> <r_i_docking_score>
-8.38530126919462

> <r_i_glide_ligand_efficiency>
-0.465850070510812

> <r_i_glide_ligand_efficiency_sa>
-1.22087256210656

> <r_i_glide_ligand_efficiency_ln>
-2.15539845316203

> <r_i_glide_gscore>
-8.38530126919462

> <r_i_glide_lipo>
-4.06333081013539

> <r_i_glide_hbond>
0

> <r_i_glide_metal>
0

> <r_i_glide_rewards>
-2.77705980758026

> <r_i_glide_evdw>
-38.2283210754395

> <r_i_glide_ecoul>
0.417100548744202

> <r_i_glide_erotb>
0.303940319981362

> <r_i_glide_esite>
0

> <r_i_glide_emodel>
-54.0777984905879

> <r_i_glide_energy>
-37.8112205266953

> <r_i_glide_einternal>
6.16230201721191

> <i_i_glide_confnum>
3

> <i_i_glide_posenum>
41

> <r_i_glide_eff_state_penalty>
0

> <s_user_duplicate_titles>
CHEMBL1862_lig175

> <s_m_subgroup_title>
dock_pv

> <s_m_subgroupid>
dock_pv

> <b_m_subgroup_collapsed>
0

$$$$
CHEMBL1862_lig519
                    3D
 Schrodinger Suite 2021-1.
 43 47  0  0  1  0            999 V2000
   17.2549   12.0433    2.5604 N   0  0  0  0  0  0
   18.2581   12.8339    2.9635 C   0  0  0  0  0  0
   18.1645   14.0259    3.6006 N   0  0  0  0  0  0
   16.0002   12.4613    2.8587 C   0  0  0  0  0  0
   15.7489   13.6224    3.6025 C   0  0  0  0  0  0
   16.9061   14.3617    3.9028 C   0  0  0  0  0  0
   16.4829   15.4489    4.6211 N   0  0  0  0  0  0
   15.1390   15.3858    4.8479 N   0  0  0  0  0  0
   14.6575   14.3077    4.2472 C   0  0  0  0  0  0
   13.1961   13.9101    4.3152 C   0  0  0  0  0  0
   12.4346   14.0329    5.4855 C   0  0  0  0  0  0
   11.2302   12.9764    3.2027 C   0  0  0  0  0  0
   12.5722   13.3427    3.2018 C   0  0  0  0  0  0
   15.0070   11.6331    2.4441 N   0  0  0  0  0  0
   10.4272   13.2338    4.3165 C   0  0  0  0  0  0
   11.0355   13.7099    5.5123 C   0  0  0  0  0  0
   10.2011   13.8075    6.6605 C   0  0  0  0  0  0
    8.8578   13.4957    6.5802 C   0  0  0  0  0  0
    8.3497   13.0874    5.3485 C   0  0  0  0  0  0
    9.0997   12.9514    4.2341 N   0  0  0  0  0  0
   17.3110   16.5110    5.2029 C   0  0  0  0  0  0
   18.0926   16.0208    6.4071 C   0  0  0  0  0  0
   19.4937   15.6202    5.9341 C   0  0  0  0  0  0
   19.7479   16.4417    4.6616 C   0  0  0  0  0  0
   18.4044   17.0886    4.2689 C   0  0  0  0  0  0
   19.2685   12.4932    2.7999 H   0  0  0  0  0  0
   12.8991   14.4231    6.3820 H   0  0  0  0  0  0
   10.7780   12.5500    2.3176 H   0  0  0  0  0  0
   13.1184   13.2328    2.2772 H   0  0  0  0  0  0
   14.0600   11.7308    2.7851 H   0  0  0  0  0  0
   15.3541   10.7431    2.1241 H   0  0  0  0  0  0
   10.6140   14.1394    7.6017 H   0  0  0  0  0  0
    8.2163   13.5671    7.4491 H   0  0  0  0  0  0
    7.3141   12.8290    5.2448 H   0  0  0  0  0  0
   16.5674   17.2611    5.4767 H   0  0  0  0  0  0
   18.1614   16.8596    7.0793 H   0  0  0  0  0  0
   17.5972   15.2362    6.9728 H   0  0  0  0  0  0
   20.2455   15.8053    6.7018 H   0  0  0  0  0  0
   19.5266   14.5554    5.7188 H   0  0  0  0  0  0
   20.5250   17.1959    4.8239 H   0  0  0  0  0  0
   20.1216   15.7950    3.8649 H   0  0  0  0  0  0
   18.1882   16.9466    3.2071 H   0  0  0  0  0  0
   18.4804   18.1648    4.4157 H   0  0  0  0  0  0
  1  2  2  0  0  0
  1  4  1  0  0  0
  2  3  1  0  0  0
  2 26  1  0  0  0
  3  6  2  0  0  0
  4 14  1  0  0  0
  4  5  2  0  0  0
  5  9  1  0  0  0
  5  6  1  0  0  0
  6  7  1  0  0  0
  7  8  1  0  0  0
  7 21  1  0  0  0
  8  9  2  0  0  0
  9 10  1  0  0  0
 10 13  1  0  0  0
 10 11  2  0  0  0
 11 16  1  0  0  0
 11 27  1  0  0  0
 12 15  1  0  0  0
 12 13  2  0  0  0
 12 28  1  0  0  0
 13 29  1  0  0  0
 14 30  1  0  0  0
 14 31  1  0  0  0
 15 16  1  0  0  0
 15 20  2  0  0  0
 16 17  2  0  0  0
 17 18  1  0  0  0
 17 32  1  0  0  0
 18 19  2  0  0  0
 18 33  1  0  0  0
 19 20  1  0  0  0
 19 34  1  0  0  0
 21 22  1  0  0  0
 21 25  1  0  0  0
 21 35  1  0  0  0
 22 23  1  0  0  0
 22 36  1  0  0  0
 22 37  1  0  0  0
 23 24  1  0  0  0
 23 38  1  0  0  0
 23 39  1  0  0  0
 24 25  1  0  0  0
 24 40  1  0  0  0
 24 41  1  0  0  0
 25 42  1  0  0  0
 25 43  1  0  0  0
M  END
> <s_m_entry_id>
6345

> <s_m_entry_name>
dock_pv.271

> <s_m_Source_Path>
/home/csk/Desktop/cluster/DUD-E-result/abl1

> <s_m_Source_File>
dock_pv.maegz

> <i_m_Source_File_Index>
271

> <chembl_id>
CHEMBL1241681

> <chembl_pref_name>
None

> <i_lp_mmshare_version>
53161

> <i_f3d_flags>
0

> <r_lp_tautomer_probability>
1

> <s_lp_Force_Field>
OPLS_2005

> <r_lp_Energy>
33.808766

> <b_lp_Chiralities_Consistent>
1

> <s_lp_Variant>
CHEMBL1862_lig519-1

> <s_i_glide_gridfile>
glide-grid_2hzi

> <i_i_glide_lignum>
616

> <i_i_glide_rotatable_bonds>
2

> <r_i_docking_score>
-8.32716264817709

> <r_i_glide_ligand_efficiency>
-0.333086505927084

> <r_i_glide_ligand_efficiency_sa>
-0.973950850645129

> <r_i_glide_ligand_efficiency_ln>
-1.9737870925455

> <r_i_glide_gscore>
-8.32716264817709

> <r_i_glide_lipo>
-3.84013075325748

> <r_i_glide_hbond>
-0.309278627599695

> <r_i_glide_metal>
0

> <r_i_glide_rewards>
-3.57647248969197

> <r_i_glide_evdw>
-25.764274597168

> <r_i_glide_ecoul>
2.5830659866333

> <r_i_glide_erotb>
0.344600047061567

> <r_i_glide_esite>
-0.0451269928261136

> <r_i_glide_emodel>
-39.1415572034214

> <r_i_glide_energy>
-23.1812086105347

> <r_i_glide_einternal>
5.008544921875

> <i_i_glide_confnum>
51

> <i_i_glide_posenum>
152

> <r_i_glide_eff_state_penalty>
0

> <s_user_duplicate_titles>
CHEMBL1862_lig519

> <s_m_subgroup_title>
dock_pv

> <s_m_subgroupid>
dock_pv

> <b_m_subgroup_collapsed>
0

$$$$
CHEMBL1862_lig870
                    3D
 Schrodinger Suite 2021-1.
 40 42  0  0  1  0            999 V2000
   14.5672   14.7618    3.8859 N   0  0  0  0  0  0
   15.9378   14.6117    3.8346 C   0  0  0  0  0  0
   16.1637   13.3928    3.2020 C   0  0  0  0  0  0
   14.9008   12.8226    2.9562 C   0  0  0  0  0  0
   13.9094   13.6331    3.4744 C   0  0  0  0  0  0
   17.3934   12.7261    2.9114 C   0  0  0  0  0  0
   17.3674   11.6390    2.4050 O   0  0  0  0  0  0
   18.5525   13.2929    3.2096 N   0  0  0  0  0  0
   16.8556   15.5947    4.4847 C   0  0  0  0  0  0
   16.5867   16.0589    5.7823 C   0  0  0  0  0  0
   17.3652   17.0980    6.2990 C   0  0  0  0  0  0
   18.4697   17.5876    5.6002 C   0  0  0  0  0  0
   18.7900   17.0587    4.3584 C   0  0  0  0  0  0
   17.9742   16.0837    3.7987 C   0  0  0  0  0  0
   10.6096   12.2408    2.8031 C   0  0  0  0  0  0
   11.9512   12.4296    2.7948 N   0  0  0  0  0  0
   12.4391   13.4307    3.5737 C   0  0  0  0  0  0
   11.6058   14.1924    4.4026 C   0  0  0  0  0  0
   10.2385   13.9052    4.3581 C   0  0  0  0  0  0
    9.7203   12.9401    3.5530 N   0  0  0  0  0  0
   10.1103   11.2337    1.9915 N   0  0  0  0  0  0
   20.1674   17.6321    3.4937 Cl  0  0  0  0  0  0
   15.4664   15.4424    6.6262 C   0  0  0  0  0  0
   15.8409   15.1564    8.0773 C   0  0  0  0  0  0
   14.1096   15.5536    4.3122 H   0  0  0  0  0  0
   14.7242   11.8547    2.5047 H   0  0  0  0  0  0
   18.5916   14.1657    3.7139 H   0  0  0  0  0  0
   19.4002   12.8038    2.9647 H   0  0  0  0  0  0
   17.1178   17.5365    7.2484 H   0  0  0  0  0  0
   19.0714   18.3807    6.0193 H   0  0  0  0  0  0
   18.1975   15.7476    2.8038 H   0  0  0  0  0  0
   11.9949   14.9694    5.0413 H   0  0  0  0  0  0
    9.5354   14.4465    4.9739 H   0  0  0  0  0  0
    9.1697   10.9181    2.1821 H   0  0  0  0  0  0
   10.7822   10.6011    1.5813 H   0  0  0  0  0  0
   14.5654   16.0332    6.5293 H   0  0  0  0  0  0
   15.1744   14.4783    6.2261 H   0  0  0  0  0  0
   15.1818   14.4334    8.5481 H   0  0  0  0  0  0
   16.8694   14.8234    8.1729 H   0  0  0  0  0  0
   15.7643   16.0175    8.6849 H   0  0  0  0  0  0
  1  2  1  0  0  0
  1  5  1  0  0  0
  1 25  1  0  0  0
  2  3  2  0  0  0
  2  9  1  0  0  0
  3  4  1  0  0  0
  3  6  1  0  0  0
  4  5  2  0  0  0
  4 26  1  0  0  0
  5 17  1  0  0  0
  6  7  2  0  0  0
  6  8  1  0  0  0
  8 27  1  0  0  0
  8 28  1  0  0  0
  9 10  1  0  0  0
  9 14  2  0  0  0
 10 11  2  0  0  0
 10 23  1  0  0  0
 11 12  1  0  0  0
 11 29  1  0  0  0
 12 13  2  0  0  0
 12 30  1  0  0  0
 13 14  1  0  0  0
 13 22  1  0  0  0
 14 31  1  0  0  0
 15 16  1  0  0  0
 15 20  2  0  0  0
 15 21  1  0  0  0
 16 17  2  0  0  0
 17 18  1  0  0  0
 18 19  2  0  0  0
 18 32  1  0  0  0
 19 20  1  0  0  0
 19 33  1  0  0  0
 21 34  1  0  0  0
 21 35  1  0  0  0
 23 24  1  0  0  0
 23 36  1  0  0  0
 23 37  1  0  0  0
 24 38  1  0  0  0
 24 39  1  0  0  0
 24 40  1  0  0  0
M  END
> <s_m_entry_id>
6346

> <s_m_entry_name>
dock_pv.272

> <s_m_Source_Path>
/home/csk/Desktop/cluster/DUD-E-result/abl1

> <s_m_Source_File>
dock_pv.maegz

> <i_m_Source_File_Index>
272

> <chembl_id>
CHEMBL3330129

> <chembl_pref_name>
None

> <i_lp_mmshare_version>
53161

> <i_f3d_flags>
0

> <r_lp_tautomer_probability>
0.999999987636

> <s_lp_Force_Field>
OPLS_2005

> <r_lp_Energy>
1.61769

> <b_lp_Chiralities_Consistent>
1

> <s_lp_Variant>
CHEMBL1862_lig870-1

> <s_i_glide_gridfile>
glide-grid_2hzi

> <i_i_glide_lignum>
1010

> <i_i_glide_rotatable_bonds>
4

> <r_i_docking_score>
-8.31170691104076

> <r_i_glide_ligand_efficiency>
-0.346321121293365

> <r_i_glide_ligand_efficiency_sa>
-0.998962975689218

> <r_i_glide_ligand_efficiency_ln>
-1.98937286318989

> <r_i_glide_gscore>
-8.31170691104076

> <r_i_glide_lipo>
-4.16474710385988

> <r_i_glide_hbond>
-0.242246516261115

> <r_i_glide_metal>
0

> <r_i_glide_rewards>
-2.20430302355029

> <r_i_glide_evdw>
-26.4928016662598

> <r_i_glide_ecoul>
-4.63227415084839

> <r_i_glide_erotb>
0.324496946876425

> <r_i_glide_esite>
-0.00542600830565132

> <r_i_glide_emodel>
-35.2375866058956

> <r_i_glide_energy>
-31.1250758171082

> <r_i_glide_einternal>
3.81914663314819

> <i_i_glide_confnum>
3

> <i_i_glide_posenum>
299

> <r_i_glide_eff_state_penalty>
0

> <s_user_duplicate_titles>
CHEMBL1862_lig870

> <s_m_subgroup_title>
dock_pv

> <s_m_subgroupid>
dock_pv

> <b_m_subgroup_collapsed>
0

$$$$
CHEMBL1862_lig634
                    3D
 Schrodinger Suite 2021-1.
 52 55  0  0  1  0            999 V2000
   19.4898   16.3615    5.4888 N   0  0  0  0  0  0
   19.7083   17.8217    5.3672 C   0  0  0  0  0  0
   21.1607   18.1519    4.9285 C   0  0  0  0  0  0
   22.0829   17.5613    5.8898 N   0  0  0  0  0  0
   21.9776   16.1037    5.8069 C   0  0  0  0  0  0
   20.5581   15.6350    6.2090 C   0  0  0  0  0  0
    8.6082   14.0417    2.5922 C   0  0  0  0  0  0
    8.4970   12.9090    1.8068 C   0  0  0  0  0  0
    9.4291   11.8953    1.9091 C   0  0  0  0  0  0
   10.5297   12.0556    2.7532 C   0  0  0  0  0  0
   10.7227   13.2508    3.4615 C   0  0  0  0  0  0
    9.7054   14.2082    3.4299 C   0  0  0  0  0  0
   11.9133   13.5183    4.3662 C   0  0  0  0  0  0
   13.3550   13.4360    3.9033 C   0  0  0  0  0  0
   11.6884   14.0498    5.4434 O   0  0  0  0  0  0
   13.7747   12.3670    3.1178 C   0  0  0  0  0  0
   15.0882   12.2005    2.7065 C   0  0  0  0  0  0
   14.3007   14.3912    4.3649 C   0  0  0  0  0  0
   15.6263   14.2163    3.9630 C   0  0  0  0  0  0
   16.0199   13.1451    3.1246 C   0  0  0  0  0  0
   17.3404   13.1651    2.8182 N   0  0  0  0  0  0
   17.7603   14.2275    3.4206 C   0  0  0  0  0  0
   16.8293   14.9009    4.1791 N   0  0  0  0  0  0
   19.0236   14.6877    3.2710 N   0  0  0  0  0  0
   17.0438   16.1462    4.9345 C   0  0  0  0  0  0
   18.1597   16.0212    6.0169 C   0  0  0  0  0  0
   23.4368   18.0093    5.6103 C   0  0  0  0  0  0
   19.0354   18.2150    4.6030 H   0  0  0  0  0  0
   19.4657   18.3623    6.2824 H   0  0  0  0  0  0
   21.3388   19.2206    4.8897 H   0  0  0  0  0  0
   21.3406   17.7677    3.9216 H   0  0  0  0  0  0
   22.7137   15.6619    6.4727 H   0  0  0  0  0  0
   22.2066   15.7576    4.8049 H   0  0  0  0  0  0
   20.4381   15.6384    7.2851 H   0  0  0  0  0  0
   20.4791   14.5872    5.9332 H   0  0  0  0  0  0
    7.8733   14.8195    2.5343 H   0  0  0  0  0  0
    7.6811   12.7915    1.1130 H   0  0  0  0  0  0
    9.2994   10.9631    1.3585 H   0  0  0  0  0  0
   11.1724   11.1660    2.8472 H   0  0  0  0  0  0
    9.7938   15.1262    4.0100 H   0  0  0  0  0  0
   13.1147   11.5436    2.8345 H   0  0  0  0  0  0
   15.3670   11.3903    2.0793 H   0  0  0  0  0  0
   13.9906   15.2190    4.9860 H   0  0  0  0  0  0
   19.6436   14.3735    2.5248 H   0  0  0  0  0  0
   19.3527   15.4707    3.8657 H   0  0  0  0  0  0
   17.3628   16.8962    4.2183 H   0  0  0  0  0  0
   16.1097   16.4875    5.3733 H   0  0  0  0  0  0
   17.9477   16.7072    6.8440 H   0  0  0  0  0  0
   18.1562   15.0247    6.4412 H   0  0  0  0  0  0
   23.5148   19.0987    5.6595 H   0  0  0  0  0  0
   24.1194   17.6292    6.3699 H   0  0  0  0  0  0
   23.7745   17.6749    4.6253 H   0  0  0  0  0  0
  1  2  1  0  0  0
  1  6  1  0  0  0
  1 26  1  0  0  0
  2  3  1  0  0  0
  2 28  1  0  0  0
  2 29  1  0  0  0
  3  4  1  0  0  0
  3 30  1  0  0  0
  3 31  1  0  0  0
  4  5  1  0  0  0
  4 27  1  0  0  0
  5  6  1  0  0  0
  5 32  1  0  0  0
  5 33  1  0  0  0
  6 34  1  0  0  0
  6 35  1  0  0  0
  7  8  2  0  0  0
  7 12  1  0  0  0
  7 36  1  0  0  0
  8  9  1  0  0  0
  8 37  1  0  0  0
  9 10  2  0  0  0
  9 38  1  0  0  0
 10 11  1  0  0  0
 10 39  1  0  0  0
 11 12  2  0  0  0
 11 13  1  0  0  0
 12 40  1  0  0  0
 13 14  1  0  0  0
 13 15  2  0  0  0
 14 16  2  0  0  0
 14 18  1  0  0  0
 16 17  1  0  0  0
 16 41  1  0  0  0
 17 20  2  0  0  0
 17 42  1  0  0  0
 18 19  2  0  0  0
 18 43  1  0  0  0
 19 20  1  0  0  0
 19 23  1  0  0  0
 20 21  1  0  0  0
 21 22  2  0  0  0
 22 23  1  0  0  0
 22 24  1  0  0  0
 23 25  1  0  0  0
 24 44  1  0  0  0
 24 45  1  0  0  0
 25 26  1  0  0  0
 25 46  1  0  0  0
 25 47  1  0  0  0
 26 48  1  0  0  0
 26 49  1  0  0  0
 27 50  1  0  0  0
 27 51  1  0  0  0
 27 52  1  0  0  0
M  END
> <s_m_entry_id>
6347

> <s_m_entry_name>
dock_pv.273

> <s_m_Source_Path>
/home/csk/Desktop/cluster/DUD-E-result/abl1

> <s_m_Source_File>
dock_pv.maegz

> <i_m_Source_File_Index>
273

> <chembl_id>
CHEMBL2059361

> <chembl_pref_name>
None

> <i_lp_mmshare_version>
53161

> <i_f3d_flags>
0

> <r_lp_tautomer_probability>
1

> <s_lp_Force_Field>
OPLS_2005

> <r_lp_Energy>
48.716073

> <b_lp_Chiralities_Consistent>
1

> <s_lp_Variant>
CHEMBL1862_lig634-1

> <s_i_glide_gridfile>
glide-grid_2hzi

> <i_i_glide_lignum>
742

> <i_i_glide_rotatable_bonds>
5

> <r_i_docking_score>
-8.31058103061629

> <r_i_glide_ligand_efficiency>
-0.307799297430233

> <r_i_glide_ligand_efficiency_sa>
-0.923397891276243

> <r_i_glide_ligand_efficiency_ln>
-1.93456625329122

> <r_i_glide_gscore>
-8.31058103061629

> <r_i_glide_lipo>
-4.02101390900906

> <r_i_glide_hbond>
-0.32

> <r_i_glide_metal>
0

> <r_i_glide_rewards>
-2.19972765559654

> <r_i_glide_evdw>
-39.6110343933105

> <r_i_glide_ecoul>
-3.44349336624146

> <r_i_glide_erotb>
0.72723625859105

> <r_i_glide_esite>
0

> <r_i_glide_emodel>
-39.2118776058439

> <r_i_glide_energy>
-43.054527759552

> <r_i_glide_einternal>
11.4124593734741

> <i_i_glide_confnum>
251

> <i_i_glide_posenum>
155

> <r_i_glide_eff_state_penalty>
0

> <s_user_duplicate_titles>
CHEMBL1862_lig634

> <s_m_subgroup_title>
dock_pv

> <s_m_subgroupid>
dock_pv

> <b_m_subgroup_collapsed>
0

$$$$
CHEMBL1862_lig76
                    3D
 Schrodinger Suite 2021-1.
 45 48  0  0  1  0            999 V2000
   10.0714   13.0067    3.3324 C   0  0  0  0  0  0
    9.2589   12.1797    2.5517 C   0  0  0  0  0  0
    9.9048   11.2846    1.6994 C   0  0  0  0  0  0
   11.2925   11.2147    1.6370 C   0  0  0  0  0  0
   12.1015   12.0480    2.4058 C   0  0  0  0  0  0
   11.4906   12.9801    3.2654 C   0  0  0  0  0  0
    9.7700   13.9454    4.2900 N   0  0  0  0  0  0
   10.8757   14.5058    4.8014 N   0  0  0  0  0  0
   11.9232   13.9951    4.1978 C   0  0  0  0  0  0
   13.2669   14.4486    4.5232 C   0  0  0  0  0  0
   14.3971   14.2545    3.8160 C   0  0  0  0  0  0
   15.7539   14.6879    4.2081 C   0  0  0  0  0  0
   15.9769   15.6341    5.2191 C   0  0  0  0  0  0
   17.2707   15.8989    5.6598 C   0  0  0  0  0  0
   18.3553   15.2262    5.0908 C   0  0  0  0  0  0
   18.1434   14.3315    4.0360 C   0  0  0  0  0  0
   16.8482   14.0659    3.6013 C   0  0  0  0  0  0
   19.7376   15.4210    5.6582 C   0  0  0  0  0  0
   19.9595   15.0196    6.8029 O   0  0  0  0  0  0
   20.6788   16.0352    4.8951 N   0  0  0  0  0  0
   22.0410   16.2402    5.4291 C   0  0  0  0  0  0
   22.4059   17.7389    5.3312 C   0  0  0  0  0  0
   22.1726   18.2898    4.0028 N   0  0  0  0  0  0
   20.8408   18.0289    3.4746 C   0  0  0  0  0  0
   20.3960   16.5655    3.5479 C   0  0  0  0  0  0
    8.1839   12.2016    2.6220 H   0  0  0  0  0  0
    9.3167   10.6017    1.1006 H   0  0  0  0  0  0
   11.7577   10.4721    1.0036 H   0  0  0  0  0  0
   13.1735   11.9501    2.3463 H   0  0  0  0  0  0
    8.8567   14.1966    4.6398 H   0  0  0  0  0  0
   13.3229   14.9770    5.4642 H   0  0  0  0  0  0
   14.3306   13.7351    2.8731 H   0  0  0  0  0  0
   15.1552   16.1408    5.7010 H   0  0  0  0  0  0
   17.4198   16.5975    6.4716 H   0  0  0  0  0  0
   18.9707   13.8067    3.5787 H   0  0  0  0  0  0
   16.6989   13.3344    2.8200 H   0  0  0  0  0  0
   22.1628   15.9050    6.4606 H   0  0  0  0  0  0
   22.7401   15.6634    4.8264 H   0  0  0  0  0  0
   23.4471   17.8932    5.6180 H   0  0  0  0  0  0
   21.7648   18.3076    6.0033 H   0  0  0  0  0  0
   22.9016   18.0415    3.3485 H   0  0  0  0  0  0
   20.8037   18.3747    2.4404 H   0  0  0  0  0  0
   20.1549   18.6284    4.0784 H   0  0  0  0  0  0
   20.9608   16.0030    2.8123 H   0  0  0  0  0  0
   19.3504   16.5200    3.2497 H   0  0  0  0  0  0
  1  2  1  0  0  0
  1  7  1  0  0  0
  1  6  2  0  0  0
  2  3  2  0  0  0
  2 26  1  0  0  0
  3  4  1  0  0  0
  3 27  1  0  0  0
  4  5  2  0  0  0
  4 28  1  0  0  0
  5  6  1  0  0  0
  5 29  1  0  0  0
  6  9  1  0  0  0
  7  8  1  0  0  0
  7 30  1  0  0  0
  8  9  2  0  0  0
  9 10  1  0  0  0
 10 11  2  0  0  0
 10 31  1  0  0  0
 11 12  1  0  0  0
 11 32  1  0  0  0
 12 13  2  0  0  0
 12 17  1  0  0  0
 13 14  1  0  0  0
 13 33  1  0  0  0
 14 15  2  0  0  0
 14 34  1  0  0  0
 15 16  1  0  0  0
 15 18  1  0  0  0
 16 17  2  0  0  0
 16 35  1  0  0  0
 17 36  1  0  0  0
 18 19  2  0  0  0
 18 20  1  0  0  0
 20 21  1  0  0  0
 20 25  1  0  0  0
 21 22  1  0  0  0
 21 37  1  0  0  0
 21 38  1  0  0  0
 22 23  1  0  0  0
 22 39  1  0  0  0
 22 40  1  0  0  0
 23 24  1  0  0  0
 23 41  1  0  0  0
 24 25  1  0  0  0
 24 42  1  0  0  0
 24 43  1  0  0  0
 25 44  1  0  0  0
 25 45  1  0  0  0
M  END
> <s_m_entry_id>
6348

> <s_m_entry_name>
dock_pv.274

> <s_m_Source_Path>
/home/csk/Desktop/cluster/DUD-E-result/abl1

> <s_m_Source_File>
dock_pv.maegz

> <i_m_Source_File_Index>
274

> <chembl_id>
CHEMBL1908397

> <chembl_pref_name>
KW-2449

> <i_lp_mmshare_version>
53161

> <i_f3d_flags>
0

> <r_lp_tautomer_probability>
1

> <s_lp_Force_Field>
OPLS_2005

> <r_lp_Energy>
47.536969

> <b_lp_Chiralities_Consistent>
1

> <s_lp_Variant>
CHEMBL1862_lig76-1

> <s_i_glide_gridfile>
glide-grid_2hzi

> <i_i_glide_lignum>
94

> <i_i_glide_rotatable_bonds>
4

> <r_i_docking_score>
-8.27401818109138

> <r_i_glide_ligand_efficiency>
-0.330960727243655

> <r_i_glide_ligand_efficiency_sa>
-0.967735036073938

> <r_i_glide_ligand_efficiency_ln>
-1.96119026123502

> <r_i_glide_gscore>
-8.27401818109138

> <r_i_glide_lipo>
-3.81897804646209

> <r_i_glide_hbond>
0

> <r_i_glide_metal>
0

> <r_i_glide_rewards>
-2.52958493214392

> <r_i_glide_evdw>
-44.4215965270996

> <r_i_glide_ecoul>
-2.57476091384888

> <r_i_glide_erotb>
0.68183876094695

> <r_i_glide_esite>
0

> <r_i_glide_emodel>
-61.6323037916064

> <r_i_glide_energy>
-46.9963574409485

> <r_i_glide_einternal>
5.22011661529541

> <i_i_glide_confnum>
235

> <i_i_glide_posenum>
190

> <r_i_glide_eff_state_penalty>
0

> <s_user_duplicate_titles>
CHEMBL1862_lig76

> <s_m_subgroup_title>
dock_pv

> <s_m_subgroupid>
dock_pv

> <b_m_subgroup_collapsed>
0

$$$$
CHEMBL1862_lig557
                    3D
 Schrodinger Suite 2021-1.
 43 46  0  0  1  0            999 V2000
   16.7526   12.0705    2.1673 N   0  0  0  0  0  0
   15.4133   11.9896    2.0030 C   0  0  0  0  0  0
   14.4674   12.6110    2.6990 N   0  0  0  0  0  0
   17.2073   13.0403    2.9834 C   0  0  0  0  0  0
   16.3243   15.1051    4.4356 C   0  0  0  0  0  0
   16.3295   13.9217    3.6207 C   0  0  0  0  0  0
   14.9640   13.5586    3.4794 C   0  0  0  0  0  0
   14.2420   14.3637    4.3022 N   0  0  0  0  0  0
   15.0937   15.2330    4.8972 N   0  0  0  0  0  0
   17.3790   16.1444    4.8294 C   0  0  0  0  0  0
   18.9230   18.3458    5.7966 C   0  0  0  0  0  0
   17.7640   17.9348    6.4222 C   0  0  0  0  0  0
   17.0554   16.8330    6.0030 C   0  0  0  0  0  0
   19.3632   17.6678    4.6610 C   0  0  0  0  0  0
   18.5640   16.6056    4.1198 C   0  0  0  0  0  0
   18.9583   16.1463    2.8492 C   0  0  0  0  0  0
   20.0151   16.7217    2.1458 C   0  0  0  0  0  0
   20.8545   17.6330    2.7535 C   0  0  0  0  0  0
   20.5567   18.0808    4.0260 C   0  0  0  0  0  0
   18.5640   13.0537    3.2030 N   0  0  0  0  0  0
   12.7596   14.4308    4.4916 C   0  0  0  0  0  0
   12.2972   13.6330    5.7203 C   0  0  0  0  0  0
   11.9894   13.9232    3.2682 C   0  0  0  0  0  0
   12.4258   15.8875    4.6971 C   0  0  0  0  0  0
   15.0322   11.2330    1.3291 H   0  0  0  0  0  0
   19.4940   19.1711    6.1951 H   0  0  0  0  0  0
   17.4754   18.4322    7.3352 H   0  0  0  0  0  0
   16.2004   16.5617    6.6059 H   0  0  0  0  0  0
   18.3809   15.3709    2.4030 H   0  0  0  0  0  0
   20.2386   16.3909    1.1428 H   0  0  0  0  0  0
   21.7133   18.0237    2.2255 H   0  0  0  0  0  0
   21.1803   18.8330    4.4853 H   0  0  0  0  0  0
   18.9761   13.7581    3.7968 H   0  0  0  0  0  0
   19.1259   12.3834    2.6934 H   0  0  0  0  0  0
   12.7231   14.0330    6.6398 H   0  0  0  0  0  0
   11.2134   13.6733    5.8377 H   0  0  0  0  0  0
   12.5640   12.5883    5.6085 H   0  0  0  0  0  0
   12.5504   14.2415    2.4030 H   0  0  0  0  0  0
   11.9185   12.8349    3.2333 H   0  0  0  0  0  0
   10.9736   14.3164    3.2037 H   0  0  0  0  0  0
   12.9060   16.5804    4.0030 H   0  0  0  0  0  0
   11.3640   16.0931    4.8030 H   0  0  0  0  0  0
   12.9495   16.0330    5.6030 H   0  0  0  0  0  0
  1  2  1  0  0  0
  1  4  2  0  0  0
  2  3  2  0  0  0
  2 25  1  0  0  0
  3  7  1  0  0  0
  4  6  1  0  0  0
  4 20  1  0  0  0
  5  6  1  0  0  0
  5  9  2  0  0  0
  5 10  1  0  0  0
  6  7  2  0  0  0
  7  8  1  0  0  0
  8  9  1  0  0  0
  8 21  1  0  0  0
 10 13  2  0  0  0
 10 15  1  0  0  0
 11 14  1  0  0  0
 11 12  2  0  0  0
 11 26  1  0  0  0
 12 13  1  0  0  0
 12 27  1  0  0  0
 13 28  1  0  0  0
 14 15  2  0  0  0
 14 19  1  0  0  0
 15 16  1  0  0  0
 16 17  2  0  0  0
 16 29  1  0  0  0
 17 18  1  0  0  0
 17 30  1  0  0  0
 18 19  2  0  0  0
 18 31  1  0  0  0
 19 32  1  0  0  0
 20 33  1  0  0  0
 20 34  1  0  0  0
 21 22  1  0  0  0
 21 23  1  0  0  0
 21 24  1  0  0  0
 22 35  1  0  0  0
 22 36  1  0  0  0
 22 37  1  0  0  0
 23 38  1  0  0  0
 23 39  1  0  0  0
 23 40  1  0  0  0
 24 41  1  0  0  0
 24 42  1  0  0  0
 24 43  1  0  0  0
M  END
> <s_m_entry_id>
6349

> <s_m_entry_name>
dock_pv.275

> <s_m_Source_Path>
/home/csk/Desktop/cluster/DUD-E-result/abl1

> <s_m_Source_File>
dock_pv.maegz

> <i_m_Source_File_Index>
275

> <chembl_id>
CHEMBL264406

> <chembl_pref_name>
None

> <i_lp_mmshare_version>
53161

> <i_f3d_flags>
0

> <r_lp_tautomer_probability>
1

> <s_lp_Force_Field>
OPLS_2005

> <r_lp_Energy>
42.969651

> <b_lp_Chiralities_Consistent>
1

> <s_lp_Variant>
CHEMBL1862_lig557-1

> <s_i_glide_gridfile>
glide-grid_2hzi

> <i_i_glide_lignum>
660

> <i_i_glide_rotatable_bonds>
2

> <r_i_docking_score>
-8.26321576428073

> <r_i_glide_ligand_efficiency>
-0.34430065684503

> <r_i_glide_ligand_efficiency_sa>
-0.993134947730528

> <r_i_glide_ligand_efficiency_ln>
-1.97776670665648

> <r_i_glide_gscore>
-8.26321576428073

> <r_i_glide_lipo>
-3.35940128841932

> <r_i_glide_hbond>
-0.540893437111993

> <r_i_glide_metal>
0

> <r_i_glide_rewards>
-3.80864085174334

> <r_i_glide_evdw>
-5.70749759674072

> <r_i_glide_ecoul>
-2.65576648712158

> <r_i_glide_erotb>
0.129459665899199

> <r_i_glide_esite>
0

> <r_i_glide_emodel>
-52.9124908943672

> <r_i_glide_energy>
-8.3632640838623

> <r_i_glide_einternal>
4.00432157516479

> <i_i_glide_confnum>
1

> <i_i_glide_posenum>
42

> <r_i_glide_eff_state_penalty>
0

> <s_user_duplicate_titles>
CHEMBL1862_lig557

> <s_m_subgroup_title>
dock_pv

> <s_m_subgroupid>
dock_pv

> <b_m_subgroup_collapsed>
0

$$$$
CHEMBL1862_lig301
                    3D
 Schrodinger Suite 2021-1.
 44 47  0  0  1  0            999 V2000
    9.7400   13.9197    6.5760 C   0  0  0  0  0  0
    8.5904   13.5516    5.8792 C   0  0  0  0  0  0
    8.6701   13.1470    4.5463 C   0  0  0  0  0  0
   10.9726   13.9181    5.9318 C   0  0  0  0  0  0
   11.0392   13.6242    4.5799 C   0  0  0  0  0  0
    9.9049   13.1411    3.9060 C   0  0  0  0  0  0
   10.1258   12.4282    2.7587 N   0  0  0  0  0  0
   11.3258   11.9810    2.3385 C   0  0  0  0  0  0
   12.4750   12.6409    2.9729 C   0  0  0  0  0  0
   12.2757   13.5401    3.9890 O   0  0  0  0  0  0
   11.3634   11.1667    1.3981 O   0  0  0  0  0  0
   13.7398   12.3709    2.5604 C   0  0  0  0  0  0
   15.0043   12.9403    3.0143 C   0  0  0  0  0  0
   15.3003   14.1845    3.5974 C   0  0  0  0  0  0
   16.6856   14.4079    3.7879 C   0  0  0  0  0  0
   17.4196   13.3167    3.3469 C   0  0  0  0  0  0
   16.4462   12.0381    2.7722 S   0  0  0  0  0  0
   17.3023   15.5958    4.3532 C   0  0  0  0  0  0
   18.6336   15.8492    4.3214 C   0  0  0  0  0  0
   19.2403   17.0536    4.8313 C   0  0  0  0  0  0
   20.6061   17.0452    4.9077 N   0  0  0  0  0  0
   18.5733   18.0248    5.1438 O   0  0  0  0  0  0
   21.3592   15.8502    5.2900 C   0  0  0  0  0  0
   22.4536   16.4499    6.1737 C   0  0  0  0  0  0
   22.7333   17.7948    5.5380 C   0  0  0  0  0  0
   21.3461   18.2877    5.1418 C   0  0  0  0  0  0
    9.6922   14.1238    7.6331 H   0  0  0  0  0  0
    7.6582   13.4902    6.4194 H   0  0  0  0  0  0
    7.8208   12.7174    4.0455 H   0  0  0  0  0  0
   11.8994   14.0325    6.4765 H   0  0  0  0  0  0
    9.3661   11.9509    2.2997 H   0  0  0  0  0  0
   13.8733   11.6573    1.7687 H   0  0  0  0  0  0
   14.5314   14.9062    3.8379 H   0  0  0  0  0  0
   18.4981   13.1818    3.3559 H   0  0  0  0  0  0
   16.6248   16.2892    4.8066 H   0  0  0  0  0  0
   19.3184   15.1456    3.8660 H   0  0  0  0  0  0
   21.8699   15.4184    4.4399 H   0  0  0  0  0  0
   20.8109   15.1128    5.8756 H   0  0  0  0  0  0
   23.3442   15.8207    6.2495 H   0  0  0  0  0  0
   22.0601   16.6044    7.1859 H   0  0  0  0  0  0
   23.2579   18.4947    6.1912 H   0  0  0  0  0  0
   23.3488   17.6526    4.6459 H   0  0  0  0  0  0
   20.9233   18.8413    5.9777 H   0  0  0  0  0  0
   21.4148   18.9075    4.2467 H   0  0  0  0  0  0
  1  2  2  0  0  0
  1  4  1  0  0  0
  1 27  1  0  0  0
  2  3  1  0  0  0
  2 28  1  0  0  0
  3  6  2  0  0  0
  3 29  1  0  0  0
  4  5  2  0  0  0
  4 30  1  0  0  0
  5 10  1  0  0  0
  5  6  1  0  0  0
  6  7  1  0  0  0
  7  8  1  0  0  0
  7 31  1  0  0  0
  8  9  1  0  0  0
  8 11  2  0  0  0
  9 10  1  0  0  0
  9 12  2  0  0  0
 12 13  1  0  0  0
 12 32  1  0  0  0
 13 14  2  0  0  0
 13 17  1  0  0  0
 14 15  1  0  0  0
 14 33  1  0  0  0
 15 16  2  0  0  0
 15 18  1  0  0  0
 16 17  1  0  0  0
 16 34  1  0  0  0
 18 19  2  0  0  0
 18 35  1  0  0  0
 19 20  1  0  0  0
 19 36  1  0  0  0
 20 21  1  0  0  0
 20 22  2  0  0  0
 21 23  1  0  0  0
 21 26  1  0  0  0
 23 24  1  0  0  0
 23 37  1  0  0  0
 23 38  1  0  0  0
 24 25  1  0  0  0
 24 39  1  0  0  0
 24 40  1  0  0  0
 25 26  1  0  0  0
 25 41  1  0  0  0
 25 42  1  0  0  0
 26 43  1  0  0  0
 26 44  1  0  0  0
M  END
> <s_m_entry_id>
6350

> <s_m_entry_name>
dock_pv.276

> <s_m_Source_Path>
/home/csk/Desktop/cluster/DUD-E-result/abl1

> <s_m_Source_File>
dock_pv.maegz

> <i_m_Source_File_Index>
276

> <chembl_id>
CHEMBL460916

> <chembl_pref_name>
None

> <i_lp_mmshare_version>
53161

> <i_f3d_flags>
0

> <r_lp_tautomer_probability>
1

> <s_lp_Force_Field>
OPLS_2005

> <r_lp_Energy>
44.441317

> <b_lp_Chiralities_Consistent>
1

> <s_lp_Variant>
CHEMBL1862_lig301-1

> <s_i_glide_gridfile>
glide-grid_2hzi

> <i_i_glide_lignum>
341

> <i_i_glide_rotatable_bonds>
4

> <r_i_docking_score>
-8.22137099783044

> <r_i_glide_ligand_efficiency>
-0.316206576839632

> <r_i_glide_ligand_efficiency_sa>
-0.936760739674611

> <r_i_glide_ligand_efficiency_ln>
-1.93076200232193

> <r_i_glide_gscore>
-8.22137099783044

> <r_i_glide_lipo>
-4.56819313545725

> <r_i_glide_hbond>
0

> <r_i_glide_metal>
0

> <r_i_glide_rewards>
-2.0765034785129

> <r_i_glide_evdw>
-38.9999465942383

> <r_i_glide_ecoul>
-0.330046713352203

> <r_i_glide_erotb>
0.430031506024369

> <r_i_glide_esite>
-0.00720155316991208

> <r_i_glide_emodel>
-43.0405684188907

> <r_i_glide_energy>
-39.3299933075905

> <r_i_glide_einternal>
9.27789783477783

> <i_i_glide_confnum>
2

> <i_i_glide_posenum>
156

> <r_i_glide_eff_state_penalty>
0

> <s_user_duplicate_titles>
CHEMBL1862_lig301

> <s_m_subgroup_title>
dock_pv

> <s_m_subgroupid>
dock_pv

> <b_m_subgroup_collapsed>
0

$$$$
CHEMBL1862_lig15
                    3D
 Schrodinger Suite 2021-1.
 44 47  0  0  1  0            999 V2000
   14.1264   14.7399    4.2705 N   0  0  0  0  0  0
   15.0052   15.6210    4.8029 C   0  0  0  0  0  0
   16.3584   15.5664    4.7462 N   0  0  0  0  0  0
   14.6332   13.6323    3.6629 C   0  0  0  0  0  0
   16.9439   12.6187    2.8523 C   0  0  0  0  0  0
   16.0131   13.5150    3.4574 C   0  0  0  0  0  0
   16.8087   14.5315    4.0231 C   0  0  0  0  0  0
   18.1130   14.1922    3.7167 N   0  0  0  0  0  0
   18.1736   13.0197    3.0507 N   0  0  0  0  0  0
   19.3496   14.8031    4.1780 C   0  0  0  0  0  0
   19.3631   16.3454    4.0817 C   0  0  2  0  0  0
   18.9649   16.8350    2.4026 Cl  0  0  0  0  0  0
   20.6716   16.9416    4.6011 C   0  0  0  0  0  0
   21.2845   18.0210    3.9558 C   0  0  0  0  0  0
   22.4248   18.6004    4.4917 C   0  0  0  0  0  0
   22.9748   18.0702    5.6496 C   0  0  0  0  0  0
   22.4112   16.9702    6.2760 C   0  0  0  0  0  0
   21.2464   16.4240    5.7698 C   0  0  0  0  0  0
   13.7903   12.5727    3.2953 N   0  0  0  0  0  0
   12.4381   12.8470    2.8313 C   0  0  0  0  0  0
   11.3848   13.2342    3.8836 C   0  0  0  0  0  0
   10.0620   13.3707    3.4537 C   0  0  0  0  0  0
    9.0486   13.6522    4.3639 C   0  0  0  0  0  0
    9.3465   13.7791    5.7169 C   0  0  0  0  0  0
   10.6522   13.6332    6.1645 C   0  0  0  0  0  0
   11.6717   13.3925    5.2506 C   0  0  0  0  0  0
    8.3645   14.0493    6.6028 F   0  0  0  0  0  0
   24.3484   18.7998    6.3494 Cl  0  0  0  0  0  0
   14.5793   16.4626    5.3260 H   0  0  0  0  0  0
   16.7466   11.6983    2.3307 H   0  0  0  0  0  0
   20.1906   14.4251    3.6026 H   0  0  0  0  0  0
   19.4721   14.4493    5.2002 H   0  0  0  0  0  0
   18.5855   16.7752    4.7121 H   0  0  0  0  0  0
   20.8810   18.4331    3.0472 H   0  0  0  0  0  0
   22.8784   19.4592    4.0192 H   0  0  0  0  0  0
   22.8575   16.5607    7.1698 H   0  0  0  0  0  0
   20.8056   15.6063    6.3145 H   0  0  0  0  0  0
   14.2382   11.7929    2.8374 H   0  0  0  0  0  0
   12.5671   13.6322    2.0940 H   0  0  0  0  0  0
   12.0874   11.9695    2.2862 H   0  0  0  0  0  0
    9.8074   13.2375    2.4124 H   0  0  0  0  0  0
    8.0330   13.7540    4.0203 H   0  0  0  0  0  0
   10.8743   13.7230    7.2167 H   0  0  0  0  0  0
   12.6679   13.2387    5.6274 H   0  0  0  0  0  0
  1  2  2  0  0  0
  1  4  1  0  0  0
  2  3  1  0  0  0
  2 29  1  0  0  0
  3  7  2  0  0  0
  4  6  2  0  0  0
  4 19  1  0  0  0
  5  6  1  0  0  0
  5  9  2  0  0  0
  5 30  1  0  0  0
  6  7  1  0  0  0
  7  8  1  0  0  0
  8  9  1  0  0  0
  8 10  1  0  0  0
 10 11  1  0  0  0
 10 31  1  0  0  0
 10 32  1  0  0  0
 11 12  1  0  0  0
 11 13  1  0  0  0
 11 33  1  0  0  0
 13 14  2  0  0  0
 13 18  1  0  0  0
 14 15  1  0  0  0
 14 34  1  0  0  0
 15 16  2  0  0  0
 15 35  1  0  0  0
 16 17  1  0  0  0
 16 28  1  0  0  0
 17 18  2  0  0  0
 17 36  1  0  0  0
 18 37  1  0  0  0
 19 20  1  0  0  0
 19 38  1  0  0  0
 20 21  1  0  0  0
 20 39  1  0  0  0
 20 40  1  0  0  0
 21 22  2  0  0  0
 21 26  1  0  0  0
 22 23  1  0  0  0
 22 41  1  0  0  0
 23 24  2  0  0  0
 23 42  1  0  0  0
 24 25  1  0  0  0
 24 27  1  0  0  0
 25 26  2  0  0  0
 25 43  1  0  0  0
 26 44  1  0  0  0
M  END
> <s_m_entry_id>
6351

> <s_m_entry_name>
dock_pv.277

> <s_m_Source_Path>
/home/csk/Desktop/cluster/DUD-E-result/abl1

> <s_m_Source_File>
dock_pv.maegz

> <i_m_Source_File_Index>
277

> <chembl_id>
CHEMBL406658

> <chembl_pref_name>
None

> <i_lp_mmshare_version>
53161

> <i_f3d_flags>
0

> <r_lp_tautomer_probability>
1

> <s_lp_Force_Field>
OPLS_2005

> <r_lp_Energy>
10.402038

> <b_lp_Chiralities_Consistent>
1

> <s_lp_Variant>
CHEMBL1862_lig15-1

> <s_i_glide_gridfile>
glide-grid_2hzi

> <i_i_glide_lignum>
23

> <i_i_glide_rotatable_bonds>
6

> <r_i_docking_score>
-8.19839862468387

> <r_i_glide_ligand_efficiency>
-0.292799950881567

> <r_i_glide_ligand_efficiency_sa>
-0.889113100825132

> <r_i_glide_ligand_efficiency_ln>
-1.8924311180204

> <r_i_glide_gscore>
-8.19839862468387

> <r_i_glide_lipo>
-4.58734696160717

> <r_i_glide_hbond>
0

> <r_i_glide_metal>
0

> <r_i_glide_rewards>
-2.10684336875943

> <r_i_glide_evdw>
-42.4637107849121

> <r_i_glide_ecoul>
-0.433416873216629

> <r_i_glide_erotb>
0.683989775910836

> <r_i_glide_esite>
0

> <r_i_glide_emodel>
-53.1654486248814

> <r_i_glide_energy>
-42.8971276581287

> <r_i_glide_einternal>
8.59265518188477

> <i_i_glide_confnum>
31

> <i_i_glide_posenum>
84

> <r_i_glide_eff_state_penalty>
0

> <s_user_duplicate_titles>
CHEMBL1862_lig15,441971

> <s_m_subgroup_title>
dock_pv

> <s_m_subgroupid>
dock_pv

> <b_m_subgroup_collapsed>
0

$$$$
CHEMBL1862_lig364
                    3D
 Schrodinger Suite 2021-1.
 28 31  0  0  1  0            999 V2000
   13.1554   12.4796    3.0420 C   0  0  0  0  0  0
   12.9648   13.4745    4.0031 C   0  0  0  0  0  0
   14.0796   14.2315    4.3829 C   0  0  0  0  0  0
   14.3582   12.1690    2.4951 N   0  0  0  0  0  0
   15.4202   12.8589    2.9155 C   0  0  0  0  0  0
   15.3057   13.9197    3.8395 N   0  0  0  0  0  0
   16.5908   14.4120    3.9882 C   0  0  0  0  0  0
   17.3770   13.5628    3.2030 C   0  0  0  0  0  0
   16.7046   12.6382    2.5547 N   0  0  0  0  0  0
   11.6249   13.6330    4.6273 C   0  0  0  0  0  0
   11.3197   13.6330    5.9785 C   0  0  0  0  0  0
    9.9587   13.7486    6.0633 N   0  0  0  0  0  0
    9.3682   13.8140    4.8695 N   0  0  0  0  0  0
   10.3616   13.7252    4.0146 C   0  0  0  0  0  0
   17.0329   15.5245    4.8049 C   0  0  0  0  0  0
   18.1639   16.3209    4.5628 C   0  0  0  0  0  0
   18.3663   17.2330    5.4833 N   0  0  0  0  0  0
   17.3639   17.0499    6.3435 N   0  0  0  0  0  0
   16.5209   16.0329    5.9873 C   0  0  0  0  0  0
   12.3294   11.8615    2.7173 H   0  0  0  0  0  0
   14.0426   15.0287    5.1082 H   0  0  0  0  0  0
   18.4514   13.6305    3.0983 H   0  0  0  0  0  0
   11.9321   13.5563    6.8640 H   0  0  0  0  0  0
    9.4277   13.7767    6.9234 H   0  0  0  0  0  0
   10.1641   13.7141    2.9542 H   0  0  0  0  0  0
   18.8347   16.2192    3.7218 H   0  0  0  0  0  0
   17.2663   17.6164    7.1742 H   0  0  0  0  0  0
   15.6779   15.7606    6.6048 H   0  0  0  0  0  0
  1  4  2  0  0  0
  1  2  1  0  0  0
  1 20  1  0  0  0
  2  3  2  0  0  0
  2 10  1  0  0  0
  3  6  1  0  0  0
  3 21  1  0  0  0
  4  5  1  0  0  0
  5  9  2  0  0  0
  5  6  1  0  0  0
  6  7  1  0  0  0
  7 15  1  0  0  0
  7  8  2  0  0  0
  8  9  1  0  0  0
  8 22  1  0  0  0
 10 11  2  0  0  0
 10 14  1  0  0  0
 11 12  1  0  0  0
 11 23  1  0  0  0
 12 13  1  0  0  0
 12 24  1  0  0  0
 13 14  2  0  0  0
 14 25  1  0  0  0
 15 16  1  0  0  0
 15 19  2  0  0  0
 16 17  2  0  0  0
 16 26  1  0  0  0
 17 18  1  0  0  0
 18 19  1  0  0  0
 18 27  1  0  0  0
 19 28  1  0  0  0
M  END
> <s_m_entry_id>
6352

> <s_m_entry_name>
dock_pv.278

> <s_m_Source_Path>
/home/csk/Desktop/cluster/DUD-E-result/abl1

> <s_m_Source_File>
dock_pv.maegz

> <i_m_Source_File_Index>
278

> <chembl_id>
CHEMBL1171532

> <chembl_pref_name>
None

> <i_lp_mmshare_version>
53161

> <i_f3d_flags>
0

> <r_lp_tautomer_probability>
0.25

> <s_lp_Force_Field>
OPLS_2005

> <r_lp_Energy>
11.674336

> <b_lp_Chiralities_Consistent>
1

> <s_lp_Variant>
CHEMBL1862_lig364-1

> <s_i_glide_gridfile>
glide-grid_2hzi

> <i_i_glide_lignum>
447

> <i_i_glide_rotatable_bonds>
2

> <r_i_docking_score>
-8.19687174491037

> <r_i_glide_ligand_efficiency>
-0.431414302363704

> <r_i_glide_ligand_efficiency_sa>
-1.15118663457967

> <r_i_glide_ligand_efficiency_ln>
-2.07808303999738

> <r_i_glide_gscore>
-8.19687174491037

> <r_i_glide_lipo>
-3.07485948007335

> <r_i_glide_hbond>
0

> <r_i_glide_metal>
0

> <r_i_glide_rewards>
-3.38459249528651

> <r_i_glide_evdw>
-37.6479301452637

> <r_i_glide_ecoul>
-2.73511004447937

> <r_i_glide_erotb>
0.555243244384581

> <r_i_glide_esite>
0

> <r_i_glide_emodel>
-57.5308853797959

> <r_i_glide_energy>
-40.383040189743

> <r_i_glide_einternal>
2.77647066116333

> <i_i_glide_confnum>
5

> <i_i_glide_posenum>
388

> <r_i_glide_eff_state_penalty>
0

> <s_user_duplicate_titles>
CHEMBL1862_lig364,647583

> <s_m_subgroup_title>
dock_pv

> <s_m_subgroupid>
dock_pv

> <b_m_subgroup_collapsed>
0

$$$$
CHEMBL1862_lig129
                    3D
 Schrodinger Suite 2021-1.
 33 35  0  0  1  0            999 V2000
   17.8674   15.8177    4.3462 C   0  0  0  0  0  0
   16.8863   15.0252    3.8495 N   0  0  0  0  0  0
   15.7196   14.9450    4.5533 C   0  0  0  0  0  0
   19.0060   15.9456    3.5450 N   0  0  0  0  0  0
   17.7881   16.5260    5.5051 N   0  0  0  0  0  0
   20.1769   16.6520    3.8266 C   0  0  0  0  0  0
   20.9079   16.3814    4.9850 C   0  0  0  0  0  0
   12.5651   12.5663    2.8039 N   0  0  0  0  0  0
   14.6322   14.1049    3.9649 C   0  0  0  0  0  0
   15.5672   15.6338    5.7650 C   0  0  0  0  0  0
   22.0556   17.1160    5.2653 C   0  0  0  0  0  0
   16.6326   16.4177    6.2030 C   0  0  0  0  0  0
   22.7946   16.8333    6.4023 N   0  0  0  0  0  0
   21.7641   18.3738    3.2314 C   0  0  0  0  0  0
   12.3037   13.4667    3.7806 C   0  0  0  0  0  0
   13.8521   12.4328    2.4050 C   0  0  0  0  0  0
   20.6187   17.6329    2.9376 C   0  0  0  0  0  0
   13.2949   14.2462    4.3774 C   0  0  0  0  0  0
   14.9023   13.1606    2.9593 C   0  0  0  0  0  0
   22.4758   18.1238    4.4033 C   0  0  0  0  0  0
   19.0183   15.3946    2.6997 H   0  0  0  0  0  0
   20.5774   15.6078    5.6622 H   0  0  0  0  0  0
   14.6697   15.5708    6.3605 H   0  0  0  0  0  0
   16.5649   16.9734    7.1270 H   0  0  0  0  0  0
   23.6968   17.2785    6.4924 H   0  0  0  0  0  0
   22.6849   15.9123    6.8010 H   0  0  0  0  0  0
   22.1062   19.1378    2.5497 H   0  0  0  0  0  0
   11.2700   13.5603    4.0799 H   0  0  0  0  0  0
   14.0336   11.6985    1.6322 H   0  0  0  0  0  0
   20.0679   17.8331    2.0295 H   0  0  0  0  0  0
   13.0076   14.9583    5.1352 H   0  0  0  0  0  0
   15.9071   12.9966    2.5987 H   0  0  0  0  0  0
   23.3600   18.7006    4.6301 H   0  0  0  0  0  0
  1  2  1  0  0  0
  1  4  1  0  0  0
  1  5  2  0  0  0
  2  3  2  0  0  0
  3  9  1  0  0  0
  3 10  1  0  0  0
  4  6  1  0  0  0
  4 21  1  0  0  0
  5 12  1  0  0  0
  6  7  1  0  0  0
  6 17  2  0  0  0
  7 11  2  0  0  0
  7 22  1  0  0  0
  8 16  2  0  0  0
  8 15  1  0  0  0
  9 18  1  0  0  0
  9 19  2  0  0  0
 10 12  2  0  0  0
 10 23  1  0  0  0
 11 13  1  0  0  0
 11 20  1  0  0  0
 12 24  1  0  0  0
 13 25  1  0  0  0
 13 26  1  0  0  0
 14 17  1  0  0  0
 14 20  2  0  0  0
 14 27  1  0  0  0
 15 18  2  0  0  0
 15 28  1  0  0  0
 16 19  1  0  0  0
 16 29  1  0  0  0
 17 30  1  0  0  0
 18 31  1  0  0  0
 19 32  1  0  0  0
 20 33  1  0  0  0
M  END
> <s_m_entry_id>
6353

> <s_m_entry_name>
dock_pv.279

> <s_m_Source_Path>
/home/csk/Desktop/cluster/DUD-E-result/abl1

> <s_m_Source_File>
dock_pv.maegz

> <i_m_Source_File_Index>
279

> <chembl_id>
CHEMBL57443

> <chembl_pref_name>
None

> <i_lp_mmshare_version>
53161

> <i_f3d_flags>
0

> <r_lp_tautomer_probability>
0.999999987636

> <s_lp_Force_Field>
OPLS_2005

> <r_lp_Energy>
5.879731

> <b_lp_Chiralities_Consistent>
1

> <s_lp_Variant>
CHEMBL1862_lig129-1

> <s_i_glide_gridfile>
glide-grid_2hzi

> <i_i_glide_lignum>
148

> <i_i_glide_rotatable_bonds>
3

> <r_i_docking_score>
-8.1875369998474

> <r_i_glide_ligand_efficiency>
-0.40937684999237

> <r_i_glide_ligand_efficiency_sa>
-1.11121973233578

> <r_i_glide_ligand_efficiency_ln>
-2.04907046801838

> <r_i_glide_gscore>
-8.1875369998474

> <r_i_glide_lipo>
-4.10283901589134

> <r_i_glide_hbond>
0

> <r_i_glide_metal>
0

> <r_i_glide_rewards>
-2.54040384473871

> <r_i_glide_evdw>
-39.8532180786133

> <r_i_glide_ecoul>
-2.13345623016357

> <r_i_glide_erotb>
0.768385199237845

> <r_i_glide_esite>
0

> <r_i_glide_emodel>
-61.4247697680298

> <r_i_glide_energy>
-41.9866743087769

> <r_i_glide_einternal>
3.23965811729431

> <i_i_glide_confnum>
7

> <i_i_glide_posenum>
334

> <r_i_glide_eff_state_penalty>
0

> <s_user_duplicate_titles>
CHEMBL1862_lig129,88538

> <s_m_subgroup_title>
dock_pv

> <s_m_subgroupid>
dock_pv

> <b_m_subgroup_collapsed>
0

$$$$
CHEMBL1862_lig137
                    3D
 Schrodinger Suite 2021-1.
 43 46  0  0  1  0            999 V2000
   19.0457   16.5385    3.9500 C   0  0  0  0  0  0
    9.2379   13.9723    5.1703 C   0  0  0  0  0  0
   19.2826   17.0700    2.6954 C   0  0  0  0  0  0
   17.0247   15.2309    3.7403 N   0  0  0  0  0  0
   15.8398   14.8329    4.2633 C   0  0  0  0  0  0
   17.7794   16.0493    4.5173 C   0  0  0  0  0  0
   20.5612   17.5571    2.6364 N   0  0  0  0  0  0
   20.2875   16.5950    4.6546 C   0  0  0  0  0  0
   10.5582   14.4265    4.8410 O   0  0  0  0  0  0
    9.1930   13.9804    6.7015 C   0  0  0  0  0  0
   21.1969   17.3127    3.8320 C   0  0  0  0  0  0
   15.1352   13.9209    3.4708 N   0  0  0  0  0  0
   15.3456   15.2294    5.4712 N   0  0  0  0  0  0
   11.4515   13.7189    4.0660 C   0  0  0  0  0  0
   12.7839   14.1116    4.1903 C   0  0  0  0  0  0
   13.8026   13.4852    3.4631 C   0  0  0  0  0  0
    8.9227   12.7438    4.7587 F   0  0  0  0  0  0
    8.3838   14.8315    4.6093 F   0  0  0  0  0  0
   17.3842   16.4610    5.7901 C   0  0  0  0  0  0
   10.1785   13.2325    7.2057 F   0  0  0  0  0  0
    8.0355   13.5468    7.2027 F   0  0  0  0  0  0
   16.1395   16.0289    6.2240 C   0  0  0  0  0  0
   20.7249   16.1224    5.9024 C   0  0  0  0  0  0
   12.1456   12.0346    2.4604 C   0  0  0  0  0  0
   11.1397   12.6855    3.1751 C   0  0  0  0  0  0
   13.4715   12.4327    2.6103 C   0  0  0  0  0  0
   22.4799   17.6355    4.2662 C   0  0  0  0  0  0
   22.0133   16.4306    6.3153 C   0  0  0  0  0  0
   22.8517   17.2152    5.5390 C   0  0  0  0  0  0
   18.6181   17.1960    1.8526 H   0  0  0  0  0  0
   20.9377   18.0177    1.8203 H   0  0  0  0  0  0
    9.3393   14.9956    7.0901 H   0  0  0  0  0  0
   15.6697   13.6174    2.6746 H   0  0  0  0  0  0
   12.9934   14.9447    4.8376 H   0  0  0  0  0  0
   18.0006   17.1097    6.3923 H   0  0  0  0  0  0
   15.7660   16.3171    7.1968 H   0  0  0  0  0  0
   20.0734   15.5288    6.5235 H   0  0  0  0  0  0
   11.9034   11.2247    1.7841 H   0  0  0  0  0  0
   10.1282   12.3697    2.9797 H   0  0  0  0  0  0
   14.2358   11.9181    2.0474 H   0  0  0  0  0  0
   23.1497   18.1871    3.6417 H   0  0  0  0  0  0
   22.3715   16.0443    7.2530 H   0  0  0  0  0  0
   23.8327   17.4610    5.9155 H   0  0  0  0  0  0
  1  3  2  0  0  0
  1  6  1  0  0  0
  1  8  1  0  0  0
  2  9  1  0  0  0
  2 10  1  0  0  0
  2 17  1  0  0  0
  2 18  1  0  0  0
  3  7  1  0  0  0
  3 30  1  0  0  0
  4  6  2  0  0  0
  4  5  1  0  0  0
  5 12  1  0  0  0
  5 13  2  0  0  0
  6 19  1  0  0  0
  7 11  1  0  0  0
  7 31  1  0  0  0
  8 11  1  0  0  0
  8 23  2  0  0  0
  9 14  1  0  0  0
 10 20  1  0  0  0
 10 21  1  0  0  0
 10 32  1  0  0  0
 11 27  2  0  0  0
 12 16  1  0  0  0
 12 33  1  0  0  0
 13 22  1  0  0  0
 14 15  2  0  0  0
 14 25  1  0  0  0
 15 16  1  0  0  0
 15 34  1  0  0  0
 16 26  2  0  0  0
 19 22  2  0  0  0
 19 35  1  0  0  0
 22 36  1  0  0  0
 23 28  1  0  0  0
 23 37  1  0  0  0
 24 26  1  0  0  0
 24 25  2  0  0  0
 24 38  1  0  0  0
 25 39  1  0  0  0
 26 40  1  0  0  0
 27 29  1  0  0  0
 27 41  1  0  0  0
 28 29  2  0  0  0
 28 42  1  0  0  0
 29 43  1  0  0  0
M  END
> <s_m_entry_id>
6354

> <s_m_entry_name>
dock_pv.280

> <s_m_Source_Path>
/home/csk/Desktop/cluster/DUD-E-result/abl1

> <s_m_Source_File>
dock_pv.maegz

> <i_m_Source_File_Index>
280

> <chembl_id>
CHEMBL55379

> <chembl_pref_name>
None

> <i_lp_mmshare_version>
53161

> <i_f3d_flags>
0

> <r_lp_tautomer_probability>
0.999999987636

> <s_lp_Force_Field>
OPLS_2005

> <r_lp_Energy>
4.688088

> <b_lp_Chiralities_Consistent>
1

> <s_lp_Variant>
CHEMBL1862_lig137-1

> <s_i_glide_gridfile>
glide-grid_2hzi

> <i_i_glide_lignum>
156

> <i_i_glide_rotatable_bonds>
6

> <r_i_docking_score>
-8.18266465453706

> <r_i_glide_ligand_efficiency>
-0.28216085015645

> <r_i_glide_ligand_efficiency_sa>
-0.866887526512464

> <r_i_glide_ligand_efficiency_ln>
-1.87362271141646

> <r_i_glide_gscore>
-8.18266465453706

> <r_i_glide_lipo>
-4.32518520083288

> <r_i_glide_hbond>
0

> <r_i_glide_metal>
0

> <r_i_glide_rewards>
-1.79156032394256

> <r_i_glide_evdw>
-44.8874549865723

> <r_i_glide_ecoul>
-2.84057855606079

> <r_i_glide_erotb>
0.606087672148349

> <r_i_glide_esite>
-0.00154726917223637

> <r_i_glide_emodel>
-59.2661604045484

> <r_i_glide_energy>
-47.7280335426331

> <r_i_glide_einternal>
11.6632232666016

> <i_i_glide_confnum>
123

> <i_i_glide_posenum>
216

> <r_i_glide_eff_state_penalty>
0

> <s_user_duplicate_titles>
CHEMBL1862_lig137,87916

> <s_m_subgroup_title>
dock_pv

> <s_m_subgroupid>
dock_pv

> <b_m_subgroup_collapsed>
0

$$$$
CHEMBL1862_lig644
                    3D
 Schrodinger Suite 2021-1.
 48 51  0  0  1  0            999 V2000
    9.0233   14.8324    7.4378 C   0  0  0  0  0  0
    9.7417   13.9888    6.3842 C   0  0  0  0  0  0
   10.9124   13.2329    7.0434 C   0  0  0  0  0  0
   10.1637   14.8314    5.3053 O   0  0  0  0  0  0
   11.0573   14.2350    4.4682 C   0  0  0  0  0  0
   12.4258   14.3718    4.4007 C   0  0  0  0  0  0
   12.8205   13.3882    3.4830 C   0  0  0  0  0  0
   11.7960   12.6996    3.0152 N   0  0  0  0  0  0
   10.7269   13.2331    3.6030 N   0  0  0  0  0  0
   14.1261   13.1352    3.1216 N   0  0  0  0  0  0
   14.4879   12.1842    2.1912 C   0  0  0  0  0  0
   15.7651   12.0333    2.0029 N   0  0  0  0  0  0
   16.3216   12.9632    2.8149 C   0  0  0  0  0  0
   17.6661   13.2562    3.0475 C   0  0  0  0  0  0
   17.9281   14.3228    3.9010 C   0  0  0  0  0  0
   16.8718   15.0416    4.4921 C   0  0  0  0  0  0
   17.0743   16.1166    5.3660 N   0  0  0  0  0  0
   18.3801   16.5030    5.9053 C   0  0  1  0  0  0
   18.9194   15.3723    6.8031 C   0  0  0  0  0  0
   19.3954   17.0285    4.8698 C   0  0  0  0  0  0
   20.7148   17.3281    5.2430 C   0  0  0  0  0  0
   21.6025   17.7957    4.2734 C   0  0  0  0  0  0
   21.1527   17.9452    2.9632 C   0  0  0  0  0  0
   21.9550   18.4334    2.0041 F   0  0  0  0  0  0
   19.8354   17.6326    2.6561 C   0  0  0  0  0  0
   18.9582   17.2103    3.5907 N   0  0  0  0  0  0
   15.5612   14.7458    4.3042 N   0  0  0  0  0  0
   15.3273   13.7142    3.4899 C   0  0  0  0  0  0
    8.4696   14.1934    8.1212 H   0  0  0  0  0  0
    8.2703   15.4853    7.0183 H   0  0  0  0  0  0
    9.7472   15.4298    7.9990 H   0  0  0  0  0  0
    9.0275   13.2644    5.9878 H   0  0  0  0  0  0
   10.6159   12.8331    8.0027 H   0  0  0  0  0  0
   11.2758   12.4340    6.4087 H   0  0  0  0  0  0
   11.7648   13.8892    7.2028 H   0  0  0  0  0  0
   13.0417   15.0549    4.9661 H   0  0  0  0  0  0
    9.7937   12.8768    3.4567 H   0  0  0  0  0  0
   13.7186   11.6324    1.6741 H   0  0  0  0  0  0
   18.4603   12.7053    2.5621 H   0  0  0  0  0  0
   18.9601   14.5830    4.0721 H   0  0  0  0  0  0
   16.2546   16.6095    5.6877 H   0  0  0  0  0  0
   18.1650   17.3590    6.5459 H   0  0  0  0  0  0
   19.8469   15.6331    7.3082 H   0  0  0  0  0  0
   18.1640   15.1526    7.5593 H   0  0  0  0  0  0
   19.1153   14.4447    6.2686 H   0  0  0  0  0  0
   21.0565   17.2067    6.2594 H   0  0  0  0  0  0
   22.6213   18.0438    4.5329 H   0  0  0  0  0  0
   19.4602   17.7482    1.6502 H   0  0  0  0  0  0
  1  2  1  0  0  0
  1 29  1  0  0  0
  1 30  1  0  0  0
  1 31  1  0  0  0
  2  3  1  0  0  0
  2  4  1  0  0  0
  2 32  1  0  0  0
  3 33  1  0  0  0
  3 34  1  0  0  0
  3 35  1  0  0  0
  4  5  1  0  0  0
  5  6  2  0  0  0
  5  9  1  0  0  0
  6  7  1  0  0  0
  6 36  1  0  0  0
  7  8  2  0  0  0
  7 10  1  0  0  0
  8  9  1  0  0  0
  9 37  1  0  0  0
 10 11  1  0  0  0
 10 28  1  0  0  0
 11 12  2  0  0  0
 11 38  1  0  0  0
 12 13  1  0  0  0
 13 14  2  0  0  0
 13 28  1  0  0  0
 14 15  1  0  0  0
 14 39  1  0  0  0
 15 16  2  0  0  0
 15 40  1  0  0  0
 16 17  1  0  0  0
 16 27  1  0  0  0
 17 18  1  0  0  0
 17 41  1  0  0  0
 18 19  1  0  0  0
 18 20  1  0  0  0
 18 42  1  0  0  0
 19 43  1  0  0  0
 19 44  1  0  0  0
 19 45  1  0  0  0
 20 21  2  0  0  0
 20 26  1  0  0  0
 21 22  1  0  0  0
 21 46  1  0  0  0
 22 23  2  0  0  0
 22 47  1  0  0  0
 23 24  1  0  0  0
 23 25  1  0  0  0
 25 26  2  0  0  0
 25 48  1  0  0  0
 27 28  2  0  0  0
M  END
> <s_m_entry_id>
6355

> <s_m_entry_name>
dock_pv.281

> <s_m_Source_Path>
/home/csk/Desktop/cluster/DUD-E-result/abl1

> <s_m_Source_File>
dock_pv.maegz

> <i_m_Source_File_Index>
281

> <chembl_id>
CHEMBL2151321

> <chembl_pref_name>
None

> <i_lp_mmshare_version>
53161

> <i_f3d_flags>
0

> <r_lp_tautomer_probability>
1

> <s_lp_Force_Field>
OPLS_2005

> <r_lp_Energy>
10.638005

> <b_lp_Chiralities_Consistent>
1

> <s_lp_Variant>
CHEMBL1862_lig644-1

> <s_i_glide_gridfile>
glide-grid_2hzi

> <i_i_glide_lignum>
752

> <i_i_glide_rotatable_bonds>
6

> <r_i_docking_score>
-8.17394111819243

> <r_i_glide_ligand_efficiency>
-0.291926468506873

> <r_i_glide_ligand_efficiency_sa>
-0.886460693881954

> <r_i_glide_ligand_efficiency_ln>
-1.88678560741858

> <r_i_glide_gscore>
-8.17394111819243

> <r_i_glide_lipo>
-4.12126883301383

> <r_i_glide_hbond>
-0.32

> <r_i_glide_metal>
0

> <r_i_glide_rewards>
-1.83770812570908

> <r_i_glide_evdw>
-38.5515899658203

> <r_i_glide_ecoul>
-4.23035335540771

> <r_i_glide_erotb>
0.667168342132654

> <r_i_glide_esite>
0

> <r_i_glide_emodel>
-46.8625850751921

> <r_i_glide_energy>
-42.781943321228

> <r_i_glide_einternal>
12.1574859619141

> <i_i_glide_confnum>
7

> <i_i_glide_posenum>
109

> <r_i_glide_eff_state_penalty>
0

> <s_user_duplicate_titles>
CHEMBL1862_lig644

> <s_m_subgroup_title>
dock_pv

> <s_m_subgroupid>
dock_pv

> <b_m_subgroup_collapsed>
0

$$$$
CHEMBL1862_lig165
                    3D
 Schrodinger Suite 2021-1.
 40 43  0  0  1  0            999 V2000
   17.2938   14.4051    3.8519 C   0  0  0  0  0  0
   16.0703   13.7723    3.5411 C   0  0  0  0  0  0
   14.1008   12.8440    3.0834 N   0  0  0  0  0  0
   14.6625   13.9674    3.6274 C   0  0  0  0  0  0
   14.9639   11.9544    2.6021 N   0  0  0  0  0  0
   16.1673   12.4758    2.9518 C   0  0  0  0  0  0
   18.4663   13.7455    3.6920 N   0  0  0  0  0  0
   17.3590   15.7047    4.3454 N   0  0  0  0  0  0
   17.3194   11.8384    2.7817 N   0  0  0  0  0  0
   13.9282   15.0064    4.1104 N   0  0  0  0  0  0
   18.4162   12.4968    3.2025 C   0  0  0  0  0  0
   18.4727   16.5492    4.4640 C   0  0  0  0  0  0
   18.4221   17.5349    5.4390 C   0  0  0  0  0  0
   12.9000   14.9169    5.1438 C   0  0  0  0  0  0
   19.4846   18.4116    5.6031 C   0  0  0  0  0  0
   10.8098   13.7446    5.9740 C   0  0  0  0  0  0
    9.5307   13.2332    5.7638 C   0  0  0  0  0  0
   11.6343   14.0837    4.8932 C   0  0  0  0  0  0
   19.3462   19.6330    6.8031 Cl  0  0  0  0  0  0
    8.5288   12.8496    7.1130 Cl  0  0  0  0  0  0
   20.6884   17.3194    3.8259 C   0  0  0  0  0  0
    9.9130   13.2673    3.3820 C   0  0  0  0  0  0
   19.6018   16.4683    3.6315 C   0  0  0  0  0  0
   20.6387   18.2836    4.8285 C   0  0  0  0  0  0
    9.0816   12.9922    4.4648 C   0  0  0  0  0  0
   11.1716   13.8238    3.6075 C   0  0  0  0  0  0
   13.1053   12.6957    3.0112 H   0  0  0  0  0  0
   16.4920   16.0583    4.7128 H   0  0  0  0  0  0
   14.3721   15.9121    4.1391 H   0  0  0  0  0  0
   19.3624   11.9962    3.0558 H   0  0  0  0  0  0
   17.5533   17.6302    6.0740 H   0  0  0  0  0  0
   12.5472   15.9444    5.2029 H   0  0  0  0  0  0
   13.3628   14.6405    6.0908 H   0  0  0  0  0  0
   11.1347   13.9393    6.9867 H   0  0  0  0  0  0
   21.5624   17.2341    3.1979 H   0  0  0  0  0  0
    9.5744   13.0690    2.3755 H   0  0  0  0  0  0
   19.6594   15.7453    2.8308 H   0  0  0  0  0  0
   21.4782   18.9473    4.9799 H   0  0  0  0  0  0
    8.1079   12.5605    4.2977 H   0  0  0  0  0  0
   11.8135   14.0976    2.8030 H   0  0  0  0  0  0
  1  2  1  0  0  0
  1  7  2  0  0  0
  1  8  1  0  0  0
  2  4  2  0  0  0
  2  6  1  0  0  0
  3  4  1  0  0  0
  3  5  1  0  0  0
  3 27  1  0  0  0
  4 10  1  0  0  0
  5  6  2  0  0  0
  6  9  1  0  0  0
  7 11  1  0  0  0
  8 12  1  0  0  0
  8 28  1  0  0  0
  9 11  2  0  0  0
 10 14  1  0  0  0
 10 29  1  0  0  0
 11 30  1  0  0  0
 12 13  2  0  0  0
 12 23  1  0  0  0
 13 15  1  0  0  0
 13 31  1  0  0  0
 14 18  1  0  0  0
 14 32  1  0  0  0
 14 33  1  0  0  0
 15 19  1  0  0  0
 15 24  2  0  0  0
 16 18  2  0  0  0
 16 17  1  0  0  0
 16 34  1  0  0  0
 17 20  1  0  0  0
 17 25  2  0  0  0
 18 26  1  0  0  0
 21 23  2  0  0  0
 21 24  1  0  0  0
 21 35  1  0  0  0
 22 26  2  0  0  0
 22 25  1  0  0  0
 22 36  1  0  0  0
 23 37  1  0  0  0
 24 38  1  0  0  0
 25 39  1  0  0  0
 26 40  1  0  0  0
M  END
> <s_m_entry_id>
6356

> <s_m_entry_name>
dock_pv.282

> <s_m_Source_Path>
/home/csk/Desktop/cluster/DUD-E-result/abl1

> <s_m_Source_File>
dock_pv.maegz

> <i_m_Source_File_Index>
282

> <chembl_id>
CHEMBL333231

> <chembl_pref_name>
None

> <i_lp_mmshare_version>
53161

> <i_f3d_flags>
0

> <r_lp_tautomer_probability>
1

> <s_lp_Force_Field>
OPLS_2005

> <r_lp_Energy>
31.406193

> <b_lp_Chiralities_Consistent>
1

> <s_lp_Variant>
CHEMBL1862_lig165-1

> <s_i_glide_gridfile>
glide-grid_2hzi

> <i_i_glide_lignum>
184

> <i_i_glide_rotatable_bonds>
5

> <r_i_docking_score>
-8.16872107145863

> <r_i_glide_ligand_efficiency>
-0.314181579671486

> <r_i_glide_ligand_efficiency_sa>
-0.930761693531957

> <r_i_glide_ligand_efficiency_ln>
-1.91839733987201

> <r_i_glide_gscore>
-8.16872107145863

> <r_i_glide_lipo>
-3.6021610417674

> <r_i_glide_hbond>
-0.37549567449377

> <r_i_glide_metal>
0

> <r_i_glide_rewards>
-2.67729097236927

> <r_i_glide_evdw>
-31.6167602539062

> <r_i_glide_ecoul>
-3.92145872116089

> <r_i_glide_erotb>
0.655283438041246

> <r_i_glide_esite>
0

> <r_i_glide_emodel>
-32.4620458453828

> <r_i_glide_energy>
-35.5382189750671

> <r_i_glide_einternal>
7.82526683807373

> <i_i_glide_confnum>
125

> <i_i_glide_posenum>
320

> <r_i_glide_eff_state_penalty>
0

> <s_user_duplicate_titles>
CHEMBL1862_lig165

> <s_m_subgroup_title>
dock_pv

> <s_m_subgroupid>
dock_pv

> <b_m_subgroup_collapsed>
0

$$$$
CHEMBL1862_lig745
                    3D
 Schrodinger Suite 2021-1.
 40 42  0  0  1  0            999 V2000
   18.1154   15.4097    4.9338 C   0  0  0  0  0  0
   17.0758   16.0272    5.6316 C   0  0  0  0  0  0
   15.7465   15.6994    5.3986 C   0  0  0  0  0  0
   17.8614   14.4346    3.9546 C   0  0  0  0  0  0
   16.5152   14.1067    3.7242 C   0  0  0  0  0  0
   15.4613   14.7319    4.4339 C   0  0  0  0  0  0
   14.2445   14.2354    4.0732 N   0  0  0  0  0  0
   14.5107   13.2873    3.2050 C   0  0  0  0  0  0
   15.8595   13.1905    2.9263 N   0  0  0  0  0  0
   13.5995   12.4330    2.5992 N   0  0  0  0  0  0
   12.2635   12.4333    2.8028 C   0  0  0  0  0  0
   11.6611   11.4910    2.0624 N   0  0  0  0  0  0
   11.6497   13.2074    3.5436 O   0  0  0  0  0  0
   10.2205   11.2355    2.0041 C   0  0  0  0  0  0
    9.4308   12.2329    1.1415 C   0  0  0  0  0  0
   19.5042   15.7989    5.3020 C   0  0  0  0  0  0
   20.0284   17.0706    5.1944 N   0  0  0  0  0  0
   21.3016   17.1590    5.6088 N   0  0  0  0  0  0
   21.6084   15.9498    6.0014 C   0  0  0  0  0  0
   20.5351   15.0698    5.8696 C   0  0  0  0  0  0
   19.3517   18.2923    4.7779 C   0  0  0  0  0  0
   18.9637   19.1465    6.0030 C   0  0  0  0  0  0
   17.2964   16.7466    6.4030 H   0  0  0  0  0  0
   14.9638   16.1497    5.9781 H   0  0  0  0  0  0
   18.6714   13.9533    3.4263 H   0  0  0  0  0  0
   16.2545   12.5265    2.2788 H   0  0  0  0  0  0
   13.9672   11.7382    1.9689 H   0  0  0  0  0  0
   12.2475   10.7717    1.6576 H   0  0  0  0  0  0
    9.8095   11.2323    3.0150 H   0  0  0  0  0  0
   10.0741   10.2273    1.6138 H   0  0  0  0  0  0
    8.4094   11.8802    1.0125 H   0  0  0  0  0  0
    9.8667   12.3542    0.1497 H   0  0  0  0  0  0
    9.3643   13.2103    1.6151 H   0  0  0  0  0  0
   22.5829   15.7163    6.4020 H   0  0  0  0  0  0
   20.5093   14.0336    6.1635 H   0  0  0  0  0  0
   20.0298   18.8327    4.1183 H   0  0  0  0  0  0
   18.4805   18.0316    4.1768 H   0  0  0  0  0  0
   18.5635   20.1098    5.7007 H   0  0  0  0  0  0
   18.2050   18.6701    6.6195 H   0  0  0  0  0  0
   19.8244   19.3380    6.6423 H   0  0  0  0  0  0
  1  2  2  0  0  0
  1  4  1  0  0  0
  1 16  1  0  0  0
  2  3  1  0  0  0
  2 23  1  0  0  0
  3  6  2  0  0  0
  3 24  1  0  0  0
  4  5  2  0  0  0
  4 25  1  0  0  0
  5  6  1  0  0  0
  5  9  1  0  0  0
  6  7  1  0  0  0
  7  8  2  0  0  0
  8  9  1  0  0  0
  8 10  1  0  0  0
  9 26  1  0  0  0
 10 11  1  0  0  0
 10 27  1  0  0  0
 11 12  1  0  0  0
 11 13  2  0  0  0
 12 14  1  0  0  0
 12 28  1  0  0  0
 14 15  1  0  0  0
 14 29  1  0  0  0
 14 30  1  0  0  0
 15 31  1  0  0  0
 15 32  1  0  0  0
 15 33  1  0  0  0
 16 17  1  0  0  0
 16 20  2  0  0  0
 17 18  1  0  0  0
 17 21  1  0  0  0
 18 19  2  0  0  0
 19 20  1  0  0  0
 19 34  1  0  0  0
 20 35  1  0  0  0
 21 22  1  0  0  0
 21 36  1  0  0  0
 21 37  1  0  0  0
 22 38  1  0  0  0
 22 39  1  0  0  0
 22 40  1  0  0  0
M  END
> <s_m_entry_id>
6358

> <s_m_entry_name>
dock_pv.284

> <s_m_Source_Path>
/home/csk/Desktop/cluster/DUD-E-result/abl1

> <s_m_Source_File>
dock_pv.maegz

> <i_m_Source_File_Index>
284

> <chembl_id>
CHEMBL2347751

> <chembl_pref_name>
None

> <i_lp_mmshare_version>
53161

> <i_f3d_flags>
0

> <r_lp_tautomer_probability>
1

> <s_lp_Force_Field>
OPLS_2005

> <r_lp_Energy>
12.35069

> <b_lp_Chiralities_Consistent>
1

> <s_lp_Variant>
CHEMBL1862_lig745-1

> <s_i_glide_gridfile>
glide-grid_2hzi

> <i_i_glide_lignum>
878

> <i_i_glide_rotatable_bonds>
6

> <r_i_docking_score>
-8.16022242575754

> <r_i_glide_ligand_efficiency>
-0.370919201170797

> <r_i_glide_ligand_efficiency_sa>
-1.03933018910498

> <r_i_glide_ligand_efficiency_ln>
-1.99465601220023

> <r_i_glide_gscore>
-8.16022242575754

> <r_i_glide_lipo>
-3.12440878115472

> <r_i_glide_hbond>
-0.337560585147178

> <r_i_glide_metal>
0

> <r_i_glide_rewards>
-2.71838966515262

> <r_i_glide_evdw>
-42.8256874084473

> <r_i_glide_ecoul>
-4.42131567001343

> <r_i_glide_erotb>
0.824618326621358

> <r_i_glide_esite>
0

> <r_i_glide_emodel>
-69.2464318674138

> <r_i_glide_energy>
-47.2470030784607

> <r_i_glide_einternal>
0.715457379817963

> <i_i_glide_confnum>
4

> <i_i_glide_posenum>
333

> <r_i_glide_eff_state_penalty>
0

> <s_user_duplicate_titles>
CHEMBL1862_lig745

> <s_m_subgroup_title>
dock_pv

> <s_m_subgroupid>
dock_pv

> <b_m_subgroup_collapsed>
0

$$$$
CHEMBL1862_lig800
                    3D
 Schrodinger Suite 2021-1.
 40 43  0  0  1  0            999 V2000
   20.0206   16.2092    5.5506 C   0  0  0  0  0  0
   20.1365   17.7736    5.4394 C   0  0  0  0  0  0
   21.3437   18.1545    4.7045 N   0  0  1  0  0  0
   22.5279   17.8074    5.4931 C   0  0  0  0  0  0
   22.5632   16.2963    5.8211 C   0  0  0  0  0  0
   21.2390   15.7591    6.4023 C   0  0  0  0  0  0
   18.6959   15.6858    6.1862 C   0  0  0  0  0  0
   17.4578   16.1910    5.4191 C   0  0  0  0  0  0
   17.5242   15.6330    4.0651 N   0  0  0  0  0  0
   18.7773   15.9920    3.3682 C   0  0  0  0  0  0
   20.0060   15.5219    4.1689 C   0  0  0  0  0  0
   16.7549   14.5401    3.7116 C   0  0  0  0  0  0
   17.4157   13.4938    3.1565 N   0  0  0  0  0  0
   16.7042   12.4087    2.7971 C   0  0  0  0  0  0
   15.3664   12.2111    2.9328 N   0  0  0  0  0  0
   15.3763   14.4065    3.9412 C   0  0  0  0  0  0
   14.7140   13.2180    3.5275 C   0  0  0  0  0  0
   13.3765   13.2679    3.8215 N   0  0  0  0  0  0
   13.2184   14.4329    4.4011 C   0  0  0  0  0  0
   14.3748   15.1731    4.4967 N   0  0  0  0  0  0
   19.2813   18.2150    4.9313 H   0  0  0  0  0  0
   20.1773   18.2682    6.4029 H   0  0  0  0  0  0
   21.3672   17.5953    3.8634 H   0  0  0  0  0  0
   22.5633   18.4061    6.4039 H   0  0  0  0  0  0
   23.4089   18.0782    4.9104 H   0  0  0  0  0  0
   23.3632   16.1116    6.5385 H   0  0  0  0  0  0
   22.8556   15.7366    4.9365 H   0  0  0  0  0  0
   21.1357   16.0690    7.4405 H   0  0  0  0  0  0
   21.2772   14.6696    6.4540 H   0  0  0  0  0  0
   18.5757   16.0326    7.2029 H   0  0  0  0  0  0
   18.6885   14.5976    6.2804 H   0  0  0  0  0  0
   17.4359   17.2775    5.3548 H   0  0  0  0  0  0
   16.5413   15.9035    5.9348 H   0  0  0  0  0  0
   18.8135   15.5141    2.4025 H   0  0  0  0  0  0
   18.7944   17.0657    3.1811 H   0  0  0  0  0  0
   20.0206   14.4347    4.2379 H   0  0  0  0  0  0
   20.9029   15.7641    3.6009 H   0  0  0  0  0  0
   17.3021   11.6311    2.3616 H   0  0  0  0  0  0
   14.4286   16.0906    4.9167 H   0  0  0  0  0  0
   12.2902   14.8306    4.7870 H   0  0  0  0  0  0
  1  2  1  0  0  0
  1  6  1  0  0  0
  1  7  1  0  0  0
  1 11  1  0  0  0
  2  3  1  0  0  0
  2 21  1  0  0  0
  2 22  1  0  0  0
  3  4  1  0  0  0
  3 23  1  0  0  0
  4  5  1  0  0  0
  4 24  1  0  0  0
  4 25  1  0  0  0
  5  6  1  0  0  0
  5 26  1  0  0  0
  5 27  1  0  0  0
  6 28  1  0  0  0
  6 29  1  0  0  0
  7  8  1  0  0  0
  7 30  1  0  0  0
  7 31  1  0  0  0
  8 32  1  0  0  0
  8 33  1  0  0  0
  8  9  1  0  0  0
  9 12  1  0  0  0
  9 10  1  0  0  0
 10 11  1  0  0  0
 10 34  1  0  0  0
 10 35  1  0  0  0
 11 36  1  0  0  0
 11 37  1  0  0  0
 12 13  1  0  0  0
 12 16  2  0  0  0
 13 14  2  0  0  0
 14 38  1  0  0  0
 14 15  1  0  0  0
 15 17  2  0  0  0
 16 20  1  0  0  0
 16 17  1  0  0  0
 17 18  1  0  0  0
 18 19  2  0  0  0
 19 20  1  0  0  0
 19 40  1  0  0  0
 20 39  1  0  0  0
M  END
> <s_m_entry_id>
6359

> <s_m_entry_name>
dock_pv.285

> <s_m_Source_Path>
/home/csk/Desktop/cluster/DUD-E-result/abl1

> <s_m_Source_File>
dock_pv.maegz

> <i_m_Source_File_Index>
285

> <chembl_id>
CHEMBL2420911

> <chembl_pref_name>
None

> <i_lp_mmshare_version>
53161

> <i_f3d_flags>
0

> <r_lp_tautomer_probability>
0.0419193334825976

> <s_lp_Force_Field>
OPLS_2005

> <r_lp_Energy>
34.6328

> <b_lp_Chiralities_Consistent>
1

> <s_lp_Variant>
CHEMBL1862_lig800-2

> <s_i_glide_gridfile>
glide-grid_2hzi

> <i_i_glide_lignum>
934

> <i_i_glide_rotatable_bonds>
1

> <r_i_docking_score>
-8.11926326106002

> <r_i_glide_ligand_efficiency>
-0.405963163053001

> <r_i_glide_ligand_efficiency_sa>
-1.10195356037927

> <r_i_glide_ligand_efficiency_ln>
-2.03198380301851

> <r_i_glide_gscore>
-8.11926326106002

> <r_i_glide_lipo>
-2.99120522554424

> <r_i_glide_hbond>
-0.0153158334326552

> <r_i_glide_metal>
0

> <r_i_glide_rewards>
-3.39533452340845

> <r_i_glide_evdw>
-41.4289817810059

> <r_i_glide_ecoul>
0.749632656574249

> <r_i_glide_erotb>
0.241596511889478

> <r_i_glide_esite>
0

> <r_i_glide_emodel>
-55.5658209235156

> <r_i_glide_energy>
-40.6793491244316

> <r_i_glide_einternal>
0.0290701407939196

> <i_i_glide_confnum>
21

> <i_i_glide_posenum>
12

> <r_i_glide_eff_state_penalty>
0

> <s_user_duplicate_titles>
CHEMBL1862_lig800,CHEMBL1862_lig800

> <s_m_subgroup_title>
dock_pv

> <s_m_subgroupid>
dock_pv

> <b_m_subgroup_collapsed>
0

$$$$
CHEMBL1862_lig15
                    3D
 Schrodinger Suite 2021-1.
 44 47  0  0  1  0            999 V2000
   18.2163   16.1511    6.1425 N   0  0  0  0  0  0
   16.9131   16.4957    6.3063 C   0  0  0  0  0  0
   15.8452   16.0507    5.6029 N   0  0  0  0  0  0
   18.4839   15.2783    5.1338 C   0  0  0  0  0  0
   17.3453   13.9060    3.2028 C   0  0  0  0  0  0
   17.4860   14.7815    4.3247 C   0  0  0  0  0  0
   16.1790   15.1950    4.6302 C   0  0  0  0  0  0
   15.3712   14.5070    3.7588 N   0  0  0  0  0  0
   16.0865   13.7895    2.8603 N   0  0  0  0  0  0
   13.9274   14.5764    3.6949 C   0  0  0  0  0  0
   13.2124   13.2533    3.3025 C   0  0  1  0  0  0
   14.0023   11.8181    4.0027 Cl  0  0  0  0  0  0
   11.7098   13.2293    3.6008 C   0  0  0  0  0  0
   11.1753   13.9230    4.6995 C   0  0  0  0  0  0
    9.8062   13.8963    4.9513 C   0  0  0  0  0  0
    8.9758   13.1540    4.1245 C   0  0  0  0  0  0
    9.4903   12.4238    3.0558 C   0  0  0  0  0  0
   10.8601   12.4474    2.8047 C   0  0  0  0  0  0
   19.7879   14.8420    4.9069 N   0  0  0  0  0  0
   20.9418   15.1788    5.6999 C   0  0  0  0  0  0
   21.5667   16.4785    5.2403 C   0  0  0  0  0  0
   22.4758   17.1015    6.0870 C   0  0  0  0  0  0
   22.9655   18.3617    5.7696 C   0  0  0  0  0  0
   22.5670   18.9497    4.5757 C   0  0  0  0  0  0
   21.7469   18.2996    3.6785 C   0  0  0  0  0  0
   21.2287   17.0637    4.0125 C   0  0  0  0  0  0
   22.9626   20.1926    4.3176 F   0  0  0  0  0  0
    7.2943   13.0921    4.4637 Cl  0  0  0  0  0  0
   16.7062   17.2211    7.0871 H   0  0  0  0  0  0
   18.1216   13.4127    2.6443 H   0  0  0  0  0  0
   13.7094   15.4057    3.0350 H   0  0  0  0  0  0
   13.6232   14.8855    4.6956 H   0  0  0  0  0  0
   13.3368   13.1148    2.2181 H   0  0  0  0  0  0
   11.7916   14.4754    5.3801 H   0  0  0  0  0  0
    9.3999   14.4215    5.8039 H   0  0  0  0  0  0
    8.8343   11.8224    2.4459 H   0  0  0  0  0  0
   11.2578   11.8692    1.9730 H   0  0  0  0  0  0
   19.9489   14.2322    4.1077 H   0  0  0  0  0  0
   20.6510   15.2588    6.7550 H   0  0  0  0  0  0
   21.6841   14.3789    5.6378 H   0  0  0  0  0  0
   22.7749   16.6147    7.0093 H   0  0  0  0  0  0
   23.6315   18.8751    6.4537 H   0  0  0  0  0  0
   21.4859   18.7643    2.7341 H   0  0  0  0  0  0
   20.5617   16.5754    3.3075 H   0  0  0  0  0  0
  1  2  2  0  0  0
  1  4  1  0  0  0
  2  3  1  0  0  0
  2 29  1  0  0  0
  3  7  2  0  0  0
  4  6  2  0  0  0
  4 19  1  0  0  0
  5  6  1  0  0  0
  5  9  2  0  0  0
  5 30  1  0  0  0
  6  7  1  0  0  0
  7  8  1  0  0  0
  8  9  1  0  0  0
  8 10  1  0  0  0
 10 11  1  0  0  0
 10 31  1  0  0  0
 10 32  1  0  0  0
 11 12  1  0  0  0
 11 13  1  0  0  0
 11 33  1  0  0  0
 13 14  2  0  0  0
 13 18  1  0  0  0
 14 15  1  0  0  0
 14 34  1  0  0  0
 15 16  2  0  0  0
 15 35  1  0  0  0
 16 17  1  0  0  0
 16 28  1  0  0  0
 17 18  2  0  0  0
 17 36  1  0  0  0
 18 37  1  0  0  0
 19 20  1  0  0  0
 19 38  1  0  0  0
 20 21  1  0  0  0
 20 39  1  0  0  0
 20 40  1  0  0  0
 21 22  2  0  0  0
 21 26  1  0  0  0
 22 23  1  0  0  0
 22 41  1  0  0  0
 23 24  2  0  0  0
 23 42  1  0  0  0
 24 25  1  0  0  0
 24 27  1  0  0  0
 25 26  2  0  0  0
 25 43  1  0  0  0
 26 44  1  0  0  0
M  END
> <s_m_entry_id>
6360

> <s_m_entry_name>
dock_pv.286

> <s_m_Source_Path>
/home/csk/Desktop/cluster/DUD-E-result/abl1

> <s_m_Source_File>
dock_pv.maegz

> <i_m_Source_File_Index>
286

> <chembl_id>
CHEMBL406658

> <chembl_pref_name>
None

> <i_lp_mmshare_version>
53161

> <i_f3d_flags>
0

> <r_lp_tautomer_probability>
1

> <s_lp_Force_Field>
OPLS_2005

> <r_lp_Energy>
7.958972

> <b_lp_Chiralities_Consistent>
1

> <s_lp_Variant>
CHEMBL1862_lig15-2

> <s_i_glide_gridfile>
glide-grid_2hzi

> <i_i_glide_lignum>
24

> <i_i_glide_rotatable_bonds>
6

> <r_i_docking_score>
-8.11463167523697

> <r_i_glide_ligand_efficiency>
-0.289808274115606

> <r_i_glide_ligand_efficiency_sa>
-0.88002860816029

> <r_i_glide_ligand_efficiency_ln>
-1.87309524658355

> <r_i_glide_gscore>
-8.11463167523697

> <r_i_glide_lipo>
-4.21704756683403

> <r_i_glide_hbond>
0

> <r_i_glide_metal>
0

> <r_i_glide_rewards>
-2.24918357593366

> <r_i_glide_evdw>
-40.5796852111816

> <r_i_glide_ecoul>
-2.02270698547363

> <r_i_glide_erotb>
0.683989775910836

> <r_i_glide_esite>
0

> <r_i_glide_emodel>
-39.8447091972166

> <r_i_glide_energy>
-42.6023921966553

> <r_i_glide_einternal>
19.1113910675049

> <i_i_glide_confnum>
37

> <i_i_glide_posenum>
179

> <r_i_glide_eff_state_penalty>
0

> <s_user_duplicate_titles>
CHEMBL1862_lig15

> <s_m_subgroup_title>
dock_pv

> <s_m_subgroupid>
dock_pv

> <b_m_subgroup_collapsed>
0

$$$$
CHEMBL1862_lig88
                    3D
 Schrodinger Suite 2021-1.
 46 49  0  0  1  0            999 V2000
   21.2801   15.1170    5.9619 C   0  0  0  0  0  0
   21.8377   16.3960    6.4011 N   0  0  0  0  0  0
   21.9117   17.5332    5.6913 C   0  0  0  0  0  0
   22.6941   18.4233    6.0213 O   0  0  0  0  0  0
   21.1442   17.6771    4.4087 C   0  0  0  0  0  0
   21.9052   18.0339    3.2988 C   0  0  0  0  0  0
   21.3572   18.0224    2.0328 C   0  0  0  0  0  0
   20.0318   17.6340    1.8423 C   0  0  0  0  0  0
   19.2236   17.4257    2.9513 C   0  0  0  0  0  0
   19.7608   17.4267    4.2429 C   0  0  0  0  0  0
   18.6471   17.1559    5.6030 S   0  0  0  0  0  0
   17.5255   15.9217    5.0234 C   0  0  0  0  0  0
   16.1880   16.0335    5.3915 C   0  0  0  0  0  0
   15.2288   15.1729    4.8771 C   0  0  0  0  0  0
   15.6407   14.1674    3.9857 C   0  0  0  0  0  0
   14.9851   13.1408    3.2431 C   0  0  0  0  0  0
   13.5575   12.9211    3.2390 C   0  0  0  0  0  0
   12.8517   12.1682    2.3838 C   0  0  0  0  0  0
   11.3955   12.0055    2.4047 C   0  0  0  0  0  0
   10.8366   11.0142    1.5986 C   0  0  0  0  0  0
    9.4538   10.8357    1.6029 C   0  0  0  0  0  0
    8.6748   11.6420    2.4260 C   0  0  0  0  0  0
    9.2941   12.6238    3.2025 C   0  0  0  0  0  0
   10.6382   12.8137    3.2032 N   0  0  0  0  0  0
   15.8603   12.4416    2.5545 N   0  0  0  0  0  0
   17.0775   12.9579    2.8036 N   0  0  0  0  0  0
   17.0099   14.0344    3.6608 C   0  0  0  0  0  0
   17.9779   14.8910    4.1886 C   0  0  0  0  0  0
   21.7636   14.2873    6.4663 H   0  0  0  0  0  0
   20.2227   15.0561    6.2149 H   0  0  0  0  0  0
   21.4058   14.9701    4.8899 H   0  0  0  0  0  0
   22.4051   16.3757    7.2320 H   0  0  0  0  0  0
   22.9652   18.2247    3.4026 H   0  0  0  0  0  0
   22.0224   18.0421    1.2025 H   0  0  0  0  0  0
   19.6361   17.5411    0.8379 H   0  0  0  0  0  0
   18.1747   17.2112    2.7999 H   0  0  0  0  0  0
   15.8741   16.8318    6.0544 H   0  0  0  0  0  0
   14.1878   15.2847    5.1502 H   0  0  0  0  0  0
   13.0368   13.4451    4.0302 H   0  0  0  0  0  0
   13.3803   11.6342    1.6067 H   0  0  0  0  0  0
   11.4592   10.3789    0.9827 H   0  0  0  0  0  0
    9.0029   10.0521    1.0084 H   0  0  0  0  0  0
    7.6148   11.4928    2.4749 H   0  0  0  0  0  0
    8.7168   13.2605    3.8494 H   0  0  0  0  0  0
   17.8996   12.5654    2.3671 H   0  0  0  0  0  0
   19.0214   14.7904    3.9267 H   0  0  0  0  0  0
  1  2  1  0  0  0
  1 29  1  0  0  0
  1 30  1  0  0  0
  1 31  1  0  0  0
  2  3  1  0  0  0
  2 32  1  0  0  0
  3  4  2  0  0  0
  3  5  1  0  0  0
  5  6  2  0  0  0
  5 10  1  0  0  0
  6  7  1  0  0  0
  6 33  1  0  0  0
  7  8  2  0  0  0
  7 34  1  0  0  0
  8  9  1  0  0  0
  8 35  1  0  0  0
  9 10  2  0  0  0
  9 36  1  0  0  0
 10 11  1  0  0  0
 11 12  1  0  0  0
 12 13  2  0  0  0
 12 28  1  0  0  0
 13 14  1  0  0  0
 13 37  1  0  0  0
 14 15  2  0  0  0
 14 38  1  0  0  0
 15 16  1  0  0  0
 15 27  1  0  0  0
 16 17  1  0  0  0
 16 25  2  0  0  0
 17 18  2  0  0  0
 17 39  1  0  0  0
 18 19  1  0  0  0
 18 40  1  0  0  0
 19 20  2  0  0  0
 19 24  1  0  0  0
 20 21  1  0  0  0
 20 41  1  0  0  0
 21 22  2  0  0  0
 21 42  1  0  0  0
 22 23  1  0  0  0
 22 43  1  0  0  0
 23 24  2  0  0  0
 23 44  1  0  0  0
 25 26  1  0  0  0
 26 27  1  0  0  0
 26 45  1  0  0  0
 27 28  2  0  0  0
 28 46  1  0  0  0
M  END
> <s_m_entry_id>
6361

> <s_m_entry_name>
dock_pv.287

> <s_m_Source_Path>
/home/csk/Desktop/cluster/DUD-E-result/abl1

> <s_m_Source_File>
dock_pv.maegz

> <i_m_Source_File_Index>
287

> <chembl_id>
CHEMBL1289926

> <chembl_pref_name>
AXITINIB

> <i_lp_mmshare_version>
53161

> <i_f3d_flags>
0

> <r_lp_tautomer_probability>
1

> <s_lp_Force_Field>
OPLS_2005

> <r_lp_Energy>
20.843567

> <b_lp_Chiralities_Consistent>
1

> <s_lp_Variant>
CHEMBL1862_lig88-1

> <s_i_glide_gridfile>
glide-grid_2hzi

> <i_i_glide_lignum>
106

> <i_i_glide_rotatable_bonds>
6

> <r_i_docking_score>
-8.10235463785494

> <r_i_glide_ligand_efficiency>
-0.289369808494819

> <r_i_glide_ligand_efficiency_sa>
-0.878697168293141

> <r_i_glide_ligand_efficiency_ln>
-1.87026134588629

> <r_i_glide_gscore>
-8.10235463785494

> <r_i_glide_lipo>
-4.78292556809059

> <r_i_glide_hbond>
-0.11864181620263

> <r_i_glide_metal>
0

> <r_i_glide_rewards>
-1.0454235947304

> <r_i_glide_evdw>
-46.1166152954102

> <r_i_glide_ecoul>
-3.34070706367493

> <r_i_glide_erotb>
0.651573165490425

> <r_i_glide_esite>
0

> <r_i_glide_emodel>
-43.6772652764872

> <r_i_glide_energy>
-49.4573223590851

> <r_i_glide_einternal>
7.04646253585815

> <i_i_glide_confnum>
4

> <i_i_glide_posenum>
87

> <r_i_glide_eff_state_penalty>
0

> <s_user_duplicate_titles>
CHEMBL1862_lig88

> <s_m_subgroup_title>
dock_pv

> <s_m_subgroupid>
dock_pv

> <b_m_subgroup_collapsed>
0

$$$$
CHEMBL1862_lig509
                    3D
 Schrodinger Suite 2021-1.
 46 49  0  0  1  0            999 V2000
   16.7001   12.0683    2.4000 N   0  0  0  0  0  0
   15.3598   12.0296    2.2505 C   0  0  0  0  0  0
   14.4478   12.8169    2.8401 N   0  0  0  0  0  0
   17.1917   13.0718    3.1508 C   0  0  0  0  0  0
   16.3496   13.9774    3.8143 C   0  0  0  0  0  0
   14.9740   13.7675    3.6117 C   0  0  0  0  0  0
   14.3152   14.7413    4.3297 N   0  0  0  0  0  0
   15.2268   15.5367    4.9770 N   0  0  0  0  0  0
   16.4467   15.0930    4.6944 C   0  0  0  0  0  0
   17.7532   15.6563    5.1930 C   0  0  0  0  0  0
   18.7734   14.8325    5.6823 C   0  0  0  0  0  0
   20.0604   15.3222    5.9036 C   0  0  0  0  0  0
   20.3797   16.6553    5.6031 C   0  0  0  0  0  0
   19.3411   17.5007    5.1909 C   0  0  0  0  0  0
   18.0561   16.9962    4.9999 C   0  0  0  0  0  0
   18.5643   13.1482    3.2002 N   0  0  0  0  0  0
   21.0034   14.4677    6.4090 O   0  0  0  0  0  0
   21.6866   17.0765    5.7913 O   0  0  0  0  0  0
   22.0622   18.4015    5.4210 C   0  0  0  0  0  0
   12.8508   14.9924    4.4033 C   0  0  2  0  0  0
   12.1559   14.4336    5.6033 C   0  0  0  0  0  0
   11.7324   13.0621    5.3338 C   0  0  0  0  0  0
   11.4890   12.9368    3.8284 C   0  0  2  0  0  0
   11.9671   14.2938    3.3377 C   0  0  0  0  0  0
   10.0254   12.6298    3.4265 C   0  0  0  0  0  0
   14.9633   11.2515    1.6154 H   0  0  0  0  0  0
   18.5847   13.7843    5.8500 H   0  0  0  0  0  0
   19.5169   18.5429    4.9788 H   0  0  0  0  0  0
   17.2938   17.6328    4.6237 H   0  0  0  0  0  0
   19.0102   13.9486    3.6248 H   0  0  0  0  0  0
   19.0782   12.4869    2.6327 H   0  0  0  0  0  0
   20.7265   13.5493    6.4165 H   0  0  0  0  0  0
   23.1284   18.5396    5.6075 H   0  0  0  0  0  0
   21.8881   18.5823    4.3586 H   0  0  0  0  0  0
   21.5315   19.1576    6.0031 H   0  0  0  0  0  0
   12.8017   16.0840    4.3942 H   0  0  0  0  0  0
   12.7271   14.4322    6.5296 H   0  0  0  0  0  0
   11.1960   14.9552    5.6030 H   0  0  0  0  0  0
   12.5640   12.4334    5.6124 H   0  0  0  0  0  0
   10.8612   12.8320    5.9476 H   0  0  0  0  0  0
   12.1083   12.1446    3.4058 H   0  0  0  0  0  0
   11.0211   14.8330    3.2060 H   0  0  0  0  0  0
   12.5060   14.2352    2.4033 H   0  0  0  0  0  0
    9.3165   13.2597    3.9648 H   0  0  0  0  0  0
    9.8707   12.7990    2.3600 H   0  0  0  0  0  0
    9.7502   11.5937    3.6034 H   0  0  0  0  0  0
  1  2  2  0  0  0
  1  4  1  0  0  0
  2  3  1  0  0  0
  2 26  1  0  0  0
  3  6  2  0  0  0
  4  5  2  0  0  0
  4 16  1  0  0  0
  5  9  1  0  0  0
  5  6  1  0  0  0
  6  7  1  0  0  0
  7  8  1  0  0  0
  7 20  1  0  0  0
  8  9  2  0  0  0
  9 10  1  0  0  0
 10 15  1  0  0  0
 10 11  2  0  0  0
 11 12  1  0  0  0
 11 27  1  0  0  0
 12 13  2  0  0  0
 12 17  1  0  0  0
 13 14  1  0  0  0
 13 18  1  0  0  0
 14 15  2  0  0  0
 14 28  1  0  0  0
 15 29  1  0  0  0
 16 30  1  0  0  0
 16 31  1  0  0  0
 17 32  1  0  0  0
 18 19  1  0  0  0
 19 33  1  0  0  0
 19 34  1  0  0  0
 19 35  1  0  0  0
 20 21  1  0  0  0
 20 24  1  0  0  0
 20 36  1  0  0  0
 21 22  1  0  0  0
 21 37  1  0  0  0
 21 38  1  0  0  0
 22 23  1  0  0  0
 22 39  1  0  0  0
 22 40  1  0  0  0
 23 24  1  0  0  0
 23 25  1  0  0  0
 23 41  1  0  0  0
 24 42  1  0  0  0
 24 43  1  0  0  0
 25 44  1  0  0  0
 25 45  1  0  0  0
 25 46  1  0  0  0
M  END
> <s_m_entry_id>
6362

> <s_m_entry_name>
dock_pv.288

> <s_m_Source_Path>
/home/csk/Desktop/cluster/DUD-E-result/abl1

> <s_m_Source_File>
dock_pv.maegz

> <i_m_Source_File_Index>
288

> <chembl_id>
CHEMBL1242202

> <chembl_pref_name>
None

> <i_lp_mmshare_version>
53161

> <i_f3d_flags>
0

> <r_lp_tautomer_probability>
0.999999999999776

> <s_lp_Force_Field>
OPLS_2005

> <r_lp_Energy>
34.110998

> <b_lp_Chiralities_Consistent>
1

> <s_lp_Variant>
CHEMBL1862_lig509-1

> <s_i_glide_gridfile>
glide-grid_2hzi

> <i_i_glide_lignum>
603

> <i_i_glide_rotatable_bonds>
4

> <r_i_docking_score>
-8.09571045308931

> <r_i_glide_ligand_efficiency>
-0.323828418123572

> <r_i_glide_ligand_efficiency_sa>
-0.946880037714775

> <r_i_glide_ligand_efficiency_ln>
-1.91892598624711

> <r_i_glide_gscore>
-8.09571045308931

> <r_i_glide_lipo>
-3.33747595789232

> <r_i_glide_hbond>
-0.53311902317548

> <r_i_glide_metal>
0

> <r_i_glide_rewards>
-3.40317955209651

> <r_i_glide_evdw>
-15.2676858901978

> <r_i_glide_ecoul>
-1.92372465133667

> <r_i_glide_erotb>
0.23000707228539

> <r_i_glide_esite>
0

> <r_i_glide_emodel>
-49.4882096167009

> <r_i_glide_energy>
-17.1914105415344

> <r_i_glide_einternal>
4.08517360687256

> <i_i_glide_confnum>
50

> <i_i_glide_posenum>
254

> <r_i_glide_eff_state_penalty>
0

> <s_user_duplicate_titles>
CHEMBL1862_lig509

> <s_m_subgroup_title>
dock_pv

> <s_m_subgroupid>
dock_pv

> <b_m_subgroup_collapsed>
0

$$$$
CHEMBL1862_lig127
                    3D
 Schrodinger Suite 2021-1.
 45 48  0  0  1  0            999 V2000
   11.7381   13.7068    4.7388 C   0  0  0  0  0  0
   11.2704   13.2275    3.5769 N   0  0  0  0  0  0
   18.0701   15.9770    4.8307 C   0  0  0  0  0  0
   17.8521   14.8681    4.1044 N   0  0  0  0  0  0
    9.9366   12.9891    3.4770 C   0  0  0  0  0  0
   13.0912   14.0393    4.8608 N   0  0  0  0  0  0
   10.9670   13.9132    5.8409 N   0  0  0  0  0  0
   19.5181   16.3929    5.0069 C   0  0  0  0  0  0
    9.4544   12.4631    2.2016 C   0  0  0  0  0  0
   16.6323   14.2398    3.7848 C   0  0  0  0  0  0
   17.1675   16.6752    5.3178 O   0  0  0  0  0  0
   15.4014   14.5222    4.4183 C   0  0  0  0  0  0
   14.2446   13.7892    4.1139 C   0  0  0  0  0  0
    8.1105   12.7919    0.2017 N   0  0  0  0  0  0
   20.4971   15.4745    5.4058 C   0  0  0  0  0  0
   19.8654   17.7391    4.8418 C   0  0  0  0  0  0
    9.0623   13.2278    4.5478 C   0  0  0  0  0  0
    9.6340   13.6811    5.7297 C   0  0  0  0  0  0
   22.1405   17.2467    5.4829 C   0  0  0  0  0  0
   21.1706   18.1606    5.0768 C   0  0  0  0  0  0
   21.8040   15.9071    5.6517 C   0  0  0  0  0  0
    8.4864   13.1563    1.4505 C   0  0  0  0  0  0
   23.3880   17.6739    5.7422 F   0  0  0  0  0  0
   15.5326   12.5086    2.4955 C   0  0  0  0  0  0
    9.9760   11.2801    1.6693 C   0  0  0  0  0  0
    8.6787   11.6674   -0.3145 C   0  0  0  0  0  0
   16.6772   13.2282    2.8372 C   0  0  0  0  0  0
   14.3175   12.7718    3.1492 C   0  0  0  0  0  0
    9.5745   10.8717    0.4074 C   0  0  0  0  0  0
   18.6626   14.4139    3.7198 H   0  0  0  0  0  0
   13.3079   14.3757    5.7783 H   0  0  0  0  0  0
   15.3386   15.2845    5.1709 H   0  0  0  0  0  0
   20.2538   14.4333    5.5687 H   0  0  0  0  0  0
   19.1229   18.4662    4.5448 H   0  0  0  0  0  0
    8.0097   13.0350    4.4459 H   0  0  0  0  0  0
    9.0143   13.8448    6.6015 H   0  0  0  0  0  0
   21.4490   19.1969    4.9513 H   0  0  0  0  0  0
   22.5627   15.2071    5.9785 H   0  0  0  0  0  0
    8.0982   14.0915    1.8224 H   0  0  0  0  0  0
   15.6038   11.7133    1.7687 H   0  0  0  0  0  0
   10.7149   10.7065    2.2003 H   0  0  0  0  0  0
    8.4482   11.4115   -1.3411 H   0  0  0  0  0  0
   17.6318   12.9962    2.3700 H   0  0  0  0  0  0
   13.4873   12.1393    2.9138 H   0  0  0  0  0  0
   10.0067    9.9993   -0.0522 H   0  0  0  0  0  0
  1  2  1  0  0  0
  1  6  1  0  0  0
  1  7  2  0  0  0
  2  5  2  0  0  0
  3  4  1  0  0  0
  3  8  1  0  0  0
  3 11  2  0  0  0
  4 10  1  0  0  0
  4 30  1  0  0  0
  5  9  1  0  0  0
  5 17  1  0  0  0
  6 13  1  0  0  0
  6 31  1  0  0  0
  7 18  1  0  0  0
  8 15  2  0  0  0
  8 16  1  0  0  0
  9 22  1  0  0  0
  9 25  2  0  0  0
 10 12  2  0  0  0
 10 27  1  0  0  0
 12 13  1  0  0  0
 12 32  1  0  0  0
 13 28  2  0  0  0
 14 22  2  0  0  0
 14 26  1  0  0  0
 15 21  1  0  0  0
 15 33  1  0  0  0
 16 20  2  0  0  0
 16 34  1  0  0  0
 17 18  2  0  0  0
 17 35  1  0  0  0
 18 36  1  0  0  0
 19 20  1  0  0  0
 19 23  1  0  0  0
 19 21  2  0  0  0
 20 37  1  0  0  0
 21 38  1  0  0  0
 22 39  1  0  0  0
 24 28  1  0  0  0
 24 27  2  0  0  0
 24 40  1  0  0  0
 25 29  1  0  0  0
 25 41  1  0  0  0
 26 29  2  0  0  0
 26 42  1  0  0  0
 27 43  1  0  0  0
 28 44  1  0  0  0
 29 45  1  0  0  0
M  END
> <s_m_entry_id>
6363

> <s_m_entry_name>
dock_pv.289

> <s_m_Source_Path>
/home/csk/Desktop/cluster/DUD-E-result/abl1

> <s_m_Source_File>
dock_pv.maegz

> <i_m_Source_File_Index>
289

> <chembl_id>
CHEMBL418279

> <chembl_pref_name>
None

> <i_lp_mmshare_version>
53161

> <i_f3d_flags>
0

> <r_lp_tautomer_probability>
0.999999987636

> <s_lp_Force_Field>
OPLS_2005

> <r_lp_Energy>
23.878387

> <b_lp_Chiralities_Consistent>
1

> <s_lp_Variant>
CHEMBL1862_lig127-1

> <s_i_glide_gridfile>
glide-grid_2hzi

> <i_i_glide_lignum>
146

> <i_i_glide_rotatable_bonds>
6

> <r_i_docking_score>
-8.09555807917036

> <r_i_glide_ligand_efficiency>
-0.279157175143805

> <r_i_glide_ligand_efficiency_sa>
-0.85765928524258

> <r_i_glide_ligand_efficiency_ln>
-1.85367751448965

> <r_i_glide_gscore>
-8.09555807917036

> <r_i_glide_lipo>
-4.13042960833851

> <r_i_glide_hbond>
0

> <r_i_glide_metal>
0

> <r_i_glide_rewards>
-2.22629614931114

> <r_i_glide_evdw>
-46.0811347961426

> <r_i_glide_ecoul>
-1.47058200836182

> <r_i_glide_erotb>
0.785811719540702

> <r_i_glide_esite>
0

> <r_i_glide_emodel>
-51.6600370917164

> <r_i_glide_energy>
-47.5517168045044

> <r_i_glide_einternal>
14.7858791351318

> <i_i_glide_confnum>
32

> <i_i_glide_posenum>
248

> <r_i_glide_eff_state_penalty>
0

> <s_user_duplicate_titles>
CHEMBL1862_lig127,88409

> <s_m_subgroup_title>
dock_pv

> <s_m_subgroupid>
dock_pv

> <b_m_subgroup_collapsed>
0

$$$$
CHEMBL1862_lig799
                    3D
 Schrodinger Suite 2021-1.
 41 45  0  0  1  0            999 V2000
   19.3446   18.0818    5.4688 C   0  0  0  0  0  0
   18.9655   16.3052    3.2572 C   0  0  0  0  0  0
   18.0380   16.2981    4.3370 C   0  0  0  0  0  0
   18.2346   17.2068    5.4327 C   0  0  0  0  0  0
   17.3662   17.2694    6.4633 N   0  0  0  0  0  0
   16.3220   16.4314    6.4365 C   0  0  0  0  0  0
   16.0160   15.5675    5.4691 N   0  0  0  0  0  0
   16.8610   15.4955    4.4213 C   0  0  0  0  0  0
   20.2193   18.0286    4.4056 C   0  0  0  0  0  0
   20.0181   17.1979    3.3428 C   0  0  0  0  0  0
   20.9641   17.4381    2.4178 O   0  0  0  0  0  0
   21.9136   18.2325    3.0662 C   0  0  0  0  0  0
   21.3542   18.7468    4.2283 O   0  0  0  0  0  0
   16.4961   14.6188    3.3955 N   0  0  0  0  0  0
   15.3343   13.8555    3.2029 C   0  0  0  0  0  0
   14.0887   14.1069    3.8158 C   0  0  0  0  0  0
   12.9685   13.3109    3.5475 C   0  0  0  0  0  0
   13.1069   12.2882    2.6090 C   0  0  0  0  0  0
   14.3358   12.0377    2.0032 C   0  0  0  0  0  0
   15.4450   12.8052    2.3054 C   0  0  0  0  0  0
   11.6777   13.4921    4.2716 C   0  0  0  0  0  0
   11.6734   13.6331    5.6641 C   0  0  0  0  0  0
   10.4792   13.6332    6.3795 C   0  0  0  0  0  0
    9.2709   13.5633    5.6995 C   0  0  0  0  0  0
    9.2509   13.4450    4.3136 C   0  0  0  0  0  0
   10.4477   13.3900    3.6066 C   0  0  0  0  0  0
   19.4849   18.7595    6.2964 H   0  0  0  0  0  0
   18.8574   15.6547    2.4030 H   0  0  0  0  0  0
   15.6815   16.4297    7.2967 H   0  0  0  0  0  0
   22.7817   17.6331    3.3385 H   0  0  0  0  0  0
   22.1640   19.0470    2.4033 H   0  0  0  0  0  0
   17.2255   14.4451    2.7240 H   0  0  0  0  0  0
   13.9492   14.9317    4.4926 H   0  0  0  0  0  0
   12.2715   11.6443    2.3712 H   0  0  0  0  0  0
   14.4314   11.2412    1.2812 H   0  0  0  0  0  0
   16.3872   12.5836    1.8247 H   0  0  0  0  0  0
   12.6001   13.6851    6.2116 H   0  0  0  0  0  0
   10.4946   13.7131    7.4577 H   0  0  0  0  0  0
    8.3453   13.5806    6.2560 H   0  0  0  0  0  0
    8.3126   13.3610    3.7887 H   0  0  0  0  0  0
   10.4050   13.2329    2.5424 H   0  0  0  0  0  0
  1  9  1  0  0  0
  1  4  2  0  0  0
  1 27  1  0  0  0
  2  3  2  0  0  0
  2 10  1  0  0  0
  2 28  1  0  0  0
  3  4  1  0  0  0
  3  8  1  0  0  0
  4  5  1  0  0  0
  5  6  2  0  0  0
  6  7  1  0  0  0
  6 29  1  0  0  0
  7  8  2  0  0  0
  8 14  1  0  0  0
  9 10  2  0  0  0
  9 13  1  0  0  0
 10 11  1  0  0  0
 11 12  1  0  0  0
 12 13  1  0  0  0
 12 30  1  0  0  0
 12 31  1  0  0  0
 14 15  1  0  0  0
 14 32  1  0  0  0
 15 16  2  0  0  0
 15 20  1  0  0  0
 16 17  1  0  0  0
 16 33  1  0  0  0
 17 18  2  0  0  0
 17 21  1  0  0  0
 18 19  1  0  0  0
 18 34  1  0  0  0
 19 20  2  0  0  0
 19 35  1  0  0  0
 20 36  1  0  0  0
 21 22  2  0  0  0
 21 26  1  0  0  0
 22 23  1  0  0  0
 22 37  1  0  0  0
 23 24  2  0  0  0
 23 38  1  0  0  0
 24 25  1  0  0  0
 24 39  1  0  0  0
 25 26  2  0  0  0
 25 40  1  0  0  0
 26 41  1  0  0  0
M  END
> <s_m_entry_id>
6364

> <s_m_entry_name>
dock_pv.290

> <s_m_Source_Path>
/home/csk/Desktop/cluster/DUD-E-result/abl1

> <s_m_Source_File>
dock_pv.maegz

> <i_m_Source_File_Index>
290

> <chembl_id>
CHEMBL2419760

> <chembl_pref_name>
None

> <i_lp_mmshare_version>
53161

> <i_f3d_flags>
0

> <r_lp_tautomer_probability>
0.999978000241998

> <s_lp_Force_Field>
OPLS_2005

> <r_lp_Energy>
32.282474

> <b_lp_Chiralities_Consistent>
1

> <s_lp_Variant>
CHEMBL1862_lig799-1

> <s_i_glide_gridfile>
glide-grid_2hzi

> <i_i_glide_lignum>
932

> <i_i_glide_rotatable_bonds>
3

> <r_i_docking_score>
-8.08255808751588

> <r_i_glide_ligand_efficiency>
-0.310867618750611

> <r_i_glide_ligand_efficiency_sa>
-0.920944097343671

> <r_i_glide_ligand_efficiency_ln>
-1.89816224581687

> <r_i_glide_gscore>
-8.08255808751588

> <r_i_glide_lipo>
-4.47217659459671

> <r_i_glide_hbond>
0

> <r_i_glide_metal>
0

> <r_i_glide_rewards>
-2.37352385661201

> <r_i_glide_evdw>
-30.3687400817871

> <r_i_glide_ecoul>
-1.37505769729614

> <r_i_glide_erotb>
0.487838022376623

> <r_i_glide_esite>
0

> <r_i_glide_emodel>
-36.4580292208794

> <r_i_glide_energy>
-31.7437977790833

> <r_i_glide_einternal>
1.3269157409668

> <i_i_glide_confnum>
17

> <i_i_glide_posenum>
88

> <r_i_glide_eff_state_penalty>
0

> <s_user_duplicate_titles>
CHEMBL1862_lig799,CHEMBL1862_lig818

> <s_m_subgroup_title>
dock_pv

> <s_m_subgroupid>
dock_pv

> <b_m_subgroup_collapsed>
0

$$$$
CHEMBL1862_lig143
                    3D
 Schrodinger Suite 2021-1.
 42 45  0  0  1  0            999 V2000
   14.0069   13.3523    3.2353 C   0  0  0  0  0  0
   13.0038   13.8141    4.0317 N   0  0  0  0  0  0
   20.4732   15.7941    5.5505 C   0  0  0  0  0  0
   21.5177   16.7544    5.3143 C   0  0  0  0  0  0
   19.4950   15.7828    4.6185 N   0  0  0  0  0  0
   11.7612   13.3011    3.7986 C   0  0  0  0  0  0
   21.3791   18.0377    4.1276 S   0  0  0  0  0  0
   15.3167   13.8448    3.3322 N   0  0  0  0  0  0
   13.8583   12.4331    2.2613 N   0  0  0  0  0  0
   10.6732   13.6337    4.7276 C   0  0  0  0  0  0
   18.1380   15.5976    4.8843 C   0  0  0  0  0  0
   22.6692   16.9161    6.0742 C   0  0  0  0  0  0
   20.4254   15.1617    6.6070 O   0  0  0  0  0  0
   17.3569   14.8746    3.9833 C   0  0  0  0  0  0
   22.7543   18.8456    4.8049 C   0  0  0  0  0  0
   15.9905   14.6948    4.2154 C   0  0  0  0  0  0
    8.3133   14.0377    5.1313 N   0  0  0  0  0  0
   23.3598   18.0942    5.7975 C   0  0  0  0  0  0
   11.5125   12.3745    2.7994 C   0  0  0  0  0  0
   12.5994   11.9883    2.0405 C   0  0  0  0  0  0
    9.3563   13.8385    4.2899 C   0  0  0  0  0  0
   16.1723   16.0299    6.2295 C   0  0  0  0  0  0
   10.9113   13.6367    6.0992 C   0  0  0  0  0  0
    8.5775   14.0547    6.4580 C   0  0  0  0  0  0
   17.5356   16.1728    6.0051 C   0  0  0  0  0  0
   15.3957   15.2966    5.3315 C   0  0  0  0  0  0
    9.8567   13.8590    6.9644 C   0  0  0  0  0  0
   19.7210   16.1529    3.7078 H   0  0  0  0  0  0
   15.9217   13.4127    2.6541 H   0  0  0  0  0  0
   22.9785   16.2270    6.8454 H   0  0  0  0  0  0
   17.8310   14.4268    3.1211 H   0  0  0  0  0  0
   23.0628   19.8024    4.4167 H   0  0  0  0  0  0
   24.2490   18.4104    6.3149 H   0  0  0  0  0  0
   10.5388   11.9281    2.6415 H   0  0  0  0  0  0
   12.4843   11.2347    1.2714 H   0  0  0  0  0  0
    9.1120   13.8333    3.2353 H   0  0  0  0  0  0
   15.7486   16.4333    7.1332 H   0  0  0  0  0  0
   11.9018   13.4585    6.4974 H   0  0  0  0  0  0
    7.7625   14.2529    7.1355 H   0  0  0  0  0  0
   18.1250   16.7353    6.7211 H   0  0  0  0  0  0
   14.3470   15.1719    5.5541 H   0  0  0  0  0  0
   10.0578   13.8923    8.0031 H   0  0  0  0  0  0
  1  2  1  0  0  0
  1  8  1  0  0  0
  1  9  2  0  0  0
  2  6  2  0  0  0
  3  5  1  0  0  0
  3  4  1  0  0  0
  3 13  2  0  0  0
  4  7  1  0  0  0
  4 12  2  0  0  0
  5 11  1  0  0  0
  5 28  1  0  0  0
  6 10  1  0  0  0
  6 19  1  0  0  0
  7 15  1  0  0  0
  8 16  1  0  0  0
  8 29  1  0  0  0
  9 20  1  0  0  0
 10 21  1  0  0  0
 10 23  2  0  0  0
 11 14  2  0  0  0
 11 25  1  0  0  0
 12 18  1  0  0  0
 12 30  1  0  0  0
 14 16  1  0  0  0
 14 31  1  0  0  0
 15 18  2  0  0  0
 15 32  1  0  0  0
 16 26  2  0  0  0
 17 21  2  0  0  0
 17 24  1  0  0  0
 18 33  1  0  0  0
 19 20  2  0  0  0
 19 34  1  0  0  0
 20 35  1  0  0  0
 21 36  1  0  0  0
 22 26  1  0  0  0
 22 25  2  0  0  0
 22 37  1  0  0  0
 23 27  1  0  0  0
 23 38  1  0  0  0
 24 27  2  0  0  0
 24 39  1  0  0  0
 25 40  1  0  0  0
 26 41  1  0  0  0
 27 42  1  0  0  0
M  END
> <s_m_entry_id>
6366

> <s_m_entry_name>
dock_pv.292

> <s_m_Source_Path>
/home/csk/Desktop/cluster/DUD-E-result/abl1

> <s_m_Source_File>
dock_pv.maegz

> <i_m_Source_File_Index>
292

> <chembl_id>
CHEMBL56359

> <chembl_pref_name>
None

> <i_lp_mmshare_version>
53161

> <i_f3d_flags>
0

> <r_lp_tautomer_probability>
0.999999987636

> <s_lp_Force_Field>
OPLS_2005

> <r_lp_Energy>
19.638333

> <b_lp_Chiralities_Consistent>
1

> <s_lp_Variant>
CHEMBL1862_lig143-1

> <s_i_glide_gridfile>
glide-grid_2hzi

> <i_i_glide_lignum>
162

> <i_i_glide_rotatable_bonds>
6

> <r_i_docking_score>
-8.08037683791003

> <r_i_glide_ligand_efficiency>
-0.29927321621889

> <r_i_glide_ligand_efficiency_sa>
-0.897819647670314

> <r_i_glide_ligand_efficiency_ln>
-1.88097851244193

> <r_i_glide_gscore>
-8.08037683791003

> <r_i_glide_lipo>
-4.35712562403919

> <r_i_glide_hbond>
0

> <r_i_glide_metal>
0

> <r_i_glide_rewards>
-1.69214231741149

> <r_i_glide_evdw>
-45.8667602539062

> <r_i_glide_ecoul>
-3.79495978355408

> <r_i_glide_erotb>
0.831473083769085

> <r_i_glide_esite>
0

> <r_i_glide_emodel>
-49.8922909751491

> <r_i_glide_energy>
-49.6617200374603

> <r_i_glide_einternal>
16.3116512298584

> <i_i_glide_confnum>
21

> <i_i_glide_posenum>
178

> <r_i_glide_eff_state_penalty>
0

> <s_user_duplicate_titles>
CHEMBL1862_lig143,87939

> <s_m_subgroup_title>
dock_pv

> <s_m_subgroupid>
dock_pv

> <b_m_subgroup_collapsed>
0

$$$$
CHEMBL1862_lig349
                    3D
 Schrodinger Suite 2021-1.
 50 53  0  0  1  0            999 V2000
   18.5640   13.0829    3.0898 N   0  0  0  0  0  0
   18.3348   14.1821    3.8369 C   0  0  0  0  0  0
   17.1085   14.6505    4.1489 N   0  0  0  0  0  0
   17.4847   12.4325    2.5991 C   0  0  0  0  0  0
   19.4811   14.8330    4.2991 N   0  0  0  0  0  0
   16.1725   12.8563    2.8036 C   0  0  0  0  0  0
   16.0471   13.9753    3.6353 C   0  0  0  0  0  0
   13.7345   12.1495    3.1849 C   0  0  0  0  0  0
   14.9237   12.2177    2.1861 C   0  0  0  0  0  0
   13.5617   13.5230    3.8315 C   0  0  0  0  0  0
   14.6695   14.3488    4.0058 C   0  0  0  0  0  0
   14.2007   15.4674    4.6272 N   0  0  0  0  0  0
   12.8800   15.4163    4.8030 N   0  0  0  0  0  0
   12.4687   14.2563    4.3441 C   0  0  0  0  0  0
   14.9561   16.5734    5.2029 C   0  0  0  0  0  0
   11.1023   13.8200    4.4759 C   0  0  0  0  0  0
   10.4398   14.0300    5.4885 O   0  0  0  0  0  0
   19.5100   15.8044    5.3862 C   0  0  0  0  0  0
   10.5870   13.2041    3.4146 N   0  0  0  0  0  0
   20.7437   15.4921    6.2729 C   0  0  0  0  0  0
   22.1079   15.7805    5.5956 C   0  0  0  0  0  0
   22.0605   17.1309    4.9852 N   0  0  0  0  0  0
   20.9717   17.3776    4.0139 C   0  0  0  0  0  0
   19.6378   17.2123    4.7761 C   0  0  0  0  0  0
   22.8412   18.1360    5.4586 C   0  0  0  0  0  0
   22.8587   19.4760    4.7412 C   0  0  0  0  0  0
   23.6144   18.0142    6.4029 O   0  0  0  0  0  0
   17.7318   11.5778    2.0032 H   0  0  0  0  0  0
   20.3643   14.4962    3.9434 H   0  0  0  0  0  0
   12.8373   11.8308    2.6550 H   0  0  0  0  0  0
   13.9229   11.3873    3.9420 H   0  0  0  0  0  0
   14.6226   12.8281    1.3342 H   0  0  0  0  0  0
   15.1285   11.2331    1.7807 H   0  0  0  0  0  0
   15.9713   16.6130    4.8325 H   0  0  0  0  0  0
   14.4995   17.5245    4.9373 H   0  0  0  0  0  0
   15.0057   16.4330    6.2809 H   0  0  0  0  0  0
   18.5984   15.7273    5.9822 H   0  0  0  0  0  0
    9.6316   12.8815    3.4488 H   0  0  0  0  0  0
   11.1629   12.9967    2.6139 H   0  0  0  0  0  0
   20.7238   14.4443    6.5773 H   0  0  0  0  0  0
   20.6947   16.0329    7.2115 H   0  0  0  0  0  0
   22.2661   15.0545    4.8027 H   0  0  0  0  0  0
   22.9472   15.6546    6.2828 H   0  0  0  0  0  0
   21.0352   18.3137    3.4635 H   0  0  0  0  0  0
   21.0560   16.6142    3.2388 H   0  0  0  0  0  0
   19.5468   17.9757    5.5501 H   0  0  0  0  0  0
   18.8077   17.3926    4.0910 H   0  0  0  0  0  0
   22.0236   20.0330    5.1324 H   0  0  0  0  0  0
   22.7803   19.3996    3.6589 H   0  0  0  0  0  0
   23.7650   20.0308    4.9722 H   0  0  0  0  0  0
  1  2  2  0  0  0
  1  4  1  0  0  0
  2  5  1  0  0  0
  2  3  1  0  0  0
  3  7  2  0  0  0
  4  6  2  0  0  0
  4 28  1  0  0  0
  5 18  1  0  0  0
  5 29  1  0  0  0
  6  9  1  0  0  0
  6  7  1  0  0  0
  7 11  1  0  0  0
  8 10  1  0  0  0
  8  9  1  0  0  0
  8 30  1  0  0  0
  8 31  1  0  0  0
  9 32  1  0  0  0
  9 33  1  0  0  0
 10 14  1  0  0  0
 10 11  2  0  0  0
 11 12  1  0  0  0
 12 13  1  0  0  0
 12 15  1  0  0  0
 13 14  2  0  0  0
 14 16  1  0  0  0
 15 34  1  0  0  0
 15 35  1  0  0  0
 15 36  1  0  0  0
 16 17  2  0  0  0
 16 19  1  0  0  0
 18 20  1  0  0  0
 18 24  1  0  0  0
 18 37  1  0  0  0
 19 38  1  0  0  0
 19 39  1  0  0  0
 20 21  1  0  0  0
 20 40  1  0  0  0
 20 41  1  0  0  0
 21 22  1  0  0  0
 21 42  1  0  0  0
 21 43  1  0  0  0
 22 23  1  0  0  0
 22 25  1  0  0  0
 23 24  1  0  0  0
 23 44  1  0  0  0
 23 45  1  0  0  0
 24 46  1  0  0  0
 24 47  1  0  0  0
 25 26  1  0  0  0
 25 27  2  0  0  0
 26 48  1  0  0  0
 26 49  1  0  0  0
 26 50  1  0  0  0
M  END
> <s_m_entry_id>
6367

> <s_m_entry_name>
dock_pv.293

> <s_m_Source_Path>
/home/csk/Desktop/cluster/DUD-E-result/abl1

> <s_m_Source_File>
dock_pv.maegz

> <i_m_Source_File_Index>
293

> <chembl_id>
CHEMBL599224

> <chembl_pref_name>
None

> <i_lp_mmshare_version>
53161

> <i_f3d_flags>
0

> <r_lp_tautomer_probability>
0.999999987636

> <s_lp_Force_Field>
OPLS_2005

> <r_lp_Energy>
26.655429

> <b_lp_Chiralities_Consistent>
1

> <s_lp_Variant>
CHEMBL1862_lig349-1

> <s_i_glide_gridfile>
glide-grid_2hzi

> <i_i_glide_lignum>
429

> <i_i_glide_rotatable_bonds>
4

> <r_i_docking_score>
-8.06000480831261

> <r_i_glide_ligand_efficiency>
-0.298518696604171

> <r_i_glide_ligand_efficiency_sa>
-0.895556088828643

> <r_i_glide_ligand_efficiency_ln>
-1.87623623981081

> <r_i_glide_gscore>
-8.06000480831261

> <r_i_glide_lipo>
-3.84725637951794

> <r_i_glide_hbond>
0

> <r_i_glide_metal>
0

> <r_i_glide_rewards>
-2.2394444893507

> <r_i_glide_evdw>
-43.2013854980469

> <r_i_glide_ecoul>
-0.638637483119965

> <r_i_glide_erotb>
0.282560957926378

> <r_i_glide_esite>
0

> <r_i_glide_emodel>
-43.6967211763505

> <r_i_glide_energy>
-43.8400229811668

> <r_i_glide_einternal>
2.88078761100769

> <i_i_glide_confnum>
9

> <i_i_glide_posenum>
125

> <r_i_glide_eff_state_penalty>
0

> <s_user_duplicate_titles>
CHEMBL1862_lig349

> <s_m_subgroup_title>
dock_pv

> <s_m_subgroupid>
dock_pv

> <b_m_subgroup_collapsed>
0

$$$$
CHEMBL1862_lig760
                    3D
 Schrodinger Suite 2021-1.
 37 39  0  0  1  0            999 V2000
   18.9949   15.8943    4.5755 C   0  0  0  0  0  0
   18.9628   14.8148    3.6874 C   0  0  0  0  0  0
   17.7918   14.1190    3.3968 C   0  0  0  0  0  0
   17.8297   16.3168    5.2291 C   0  0  0  0  0  0
   16.6510   15.6324    4.9197 C   0  0  0  0  0  0
   16.6093   14.5521    4.0030 C   0  0  0  0  0  0
   15.3340   14.0799    3.8430 N   0  0  0  0  0  0
   14.6018   14.8413    4.6238 C   0  0  0  0  0  0
   15.3436   15.7686    5.3163 N   0  0  0  0  0  0
   13.2339   14.8372    4.8032 N   0  0  0  0  0  0
   12.3512   13.9870    4.2523 C   0  0  0  0  0  0
   11.0936   14.3932    4.4990 N   0  0  0  0  0  0
   12.6366   12.9757    3.6133 O   0  0  0  0  0  0
    9.8983   13.5507    4.5523 C   0  0  0  0  0  0
    9.5329   12.8334    3.2368 C   0  0  0  0  0  0
   20.2744   16.6081    4.8106 C   0  0  0  0  0  0
   21.1821   16.2021    5.8028 C   0  0  0  0  0  0
   22.3691   16.9076    6.0024 C   0  0  0  0  0  0
   22.6664   18.0203    5.2159 C   0  0  0  0  0  0
   21.7793   18.4239    4.2204 C   0  0  0  0  0  0
   20.5921   17.7171    4.0183 C   0  0  0  0  0  0
   20.8533   14.8334    6.8027 Cl  0  0  0  0  0  0
   19.8749   14.5083    3.2033 H   0  0  0  0  0  0
   17.7940   13.2906    2.7033 H   0  0  0  0  0  0
   17.8433   17.1447    5.9223 H   0  0  0  0  0  0
   14.9471   16.4257    5.9710 H   0  0  0  0  0  0
   12.8727   15.5827    5.3731 H   0  0  0  0  0  0
   10.9555   15.3570    4.7598 H   0  0  0  0  0  0
    9.0600   14.1852    4.8467 H   0  0  0  0  0  0
   10.0110   12.8331    5.3645 H   0  0  0  0  0  0
    8.6074   12.2685    3.3554 H   0  0  0  0  0  0
   10.2945   12.1135    2.9337 H   0  0  0  0  0  0
    9.3781   13.5375    2.4187 H   0  0  0  0  0  0
   23.0620   16.5933    6.7700 H   0  0  0  0  0  0
   23.5837   18.5666    5.3798 H   0  0  0  0  0  0
   22.0153   19.2793    3.6032 H   0  0  0  0  0  0
   19.9100   18.0338    3.2418 H   0  0  0  0  0  0
  1  2  2  0  0  0
  1  4  1  0  0  0
  1 16  1  0  0  0
  2  3  1  0  0  0
  2 23  1  0  0  0
  3  6  2  0  0  0
  3 24  1  0  0  0
  4  5  2  0  0  0
  4 25  1  0  0  0
  5  6  1  0  0  0
  5  9  1  0  0  0
  6  7  1  0  0  0
  7  8  2  0  0  0
  8  9  1  0  0  0
  8 10  1  0  0  0
  9 26  1  0  0  0
 10 11  1  0  0  0
 10 27  1  0  0  0
 11 12  1  0  0  0
 11 13  2  0  0  0
 12 14  1  0  0  0
 12 28  1  0  0  0
 14 15  1  0  0  0
 14 29  1  0  0  0
 14 30  1  0  0  0
 15 31  1  0  0  0
 15 32  1  0  0  0
 15 33  1  0  0  0
 16 17  2  0  0  0
 16 21  1  0  0  0
 17 18  1  0  0  0
 17 22  1  0  0  0
 18 19  2  0  0  0
 18 34  1  0  0  0
 19 20  1  0  0  0
 19 35  1  0  0  0
 20 21  2  0  0  0
 20 36  1  0  0  0
 21 37  1  0  0  0
M  END
> <s_m_entry_id>
6368

> <s_m_entry_name>
dock_pv.294

> <s_m_Source_Path>
/home/csk/Desktop/cluster/DUD-E-result/abl1

> <s_m_Source_File>
dock_pv.maegz

> <i_m_Source_File_Index>
294

> <chembl_id>
CHEMBL2347737

> <chembl_pref_name>
None

> <i_lp_mmshare_version>
53161

> <i_f3d_flags>
0

> <r_lp_tautomer_probability>
1

> <s_lp_Force_Field>
OPLS_2005

> <r_lp_Energy>
16.790072

> <b_lp_Chiralities_Consistent>
1

> <s_lp_Variant>
CHEMBL1862_lig760-1

> <s_i_glide_gridfile>
glide-grid_2hzi

> <i_i_glide_lignum>
893

> <i_i_glide_rotatable_bonds>
5

> <r_i_docking_score>
-8.04874712390733

> <r_i_glide_ligand_efficiency>
-0.365852141995788

> <r_i_glide_ligand_efficiency_sa>
-1.02513209002048

> <r_i_glide_ligand_efficiency_ln>
-1.96740738226761

> <r_i_glide_gscore>
-8.04874712390733

> <r_i_glide_lipo>
-3.61801312539041

> <r_i_glide_hbond>
0

> <r_i_glide_metal>
0

> <r_i_glide_rewards>
-2.68469064290122

> <r_i_glide_evdw>
-46.7280921936035

> <r_i_glide_ecoul>
-1.06847476959229

> <r_i_glide_erotb>
0.750632469503316

> <r_i_glide_esite>
0

> <r_i_glide_emodel>
-68.5976390530598

> <r_i_glide_energy>
-47.7965669631958

> <r_i_glide_einternal>
3.26489281654358

> <i_i_glide_confnum>
4

> <i_i_glide_posenum>
303

> <r_i_glide_eff_state_penalty>
0

> <s_user_duplicate_titles>
CHEMBL1862_lig760

> <s_m_subgroup_title>
dock_pv

> <s_m_subgroupid>
dock_pv

> <b_m_subgroup_collapsed>
0

$$$$
CHEMBL1862_lig756
                    3D
 Schrodinger Suite 2021-1.
 44 46  0  0  1  0            999 V2000
   18.7334   15.4488    4.6554 C   0  0  0  0  0  0
   18.7684   14.4481    3.6753 C   0  0  0  0  0  0
   17.6072   13.8294    3.2058 C   0  0  0  0  0  0
   17.5178   15.8618    5.2192 C   0  0  0  0  0  0
   16.3592   15.2323    4.7636 C   0  0  0  0  0  0
   16.3860   14.2268    3.7626 C   0  0  0  0  0  0
   15.1262   13.7680    3.4931 N   0  0  0  0  0  0
   14.3407   14.4441    4.3026 C   0  0  0  0  0  0
   15.0269   15.3428    5.0859 N   0  0  0  0  0  0
   12.9676   14.3549    4.4411 N   0  0  0  0  0  0
   12.1484   13.5656    3.7127 C   0  0  0  0  0  0
   10.8437   13.6331    4.0286 N   0  0  0  0  0  0
   12.5146   12.8230    2.8037 O   0  0  0  0  0  0
   10.1987   14.3474    5.1337 C   0  0  0  0  0  0
   10.3454   13.6332    6.4878 C   0  0  0  0  0  0
   19.9883   16.1340    5.0561 C   0  0  0  0  0  0
   20.2269   17.4661    4.6754 C   0  0  0  0  0  0
   21.3899   18.1204    5.0910 C   0  0  0  0  0  0
   22.3407   17.4495    5.8511 C   0  0  0  0  0  0
   22.1203   16.1247    6.2084 C   0  0  0  0  0  0
   20.9544   15.4644    5.8189 C   0  0  0  0  0  0
   19.3666   18.1417    3.8416 O   0  0  0  0  0  0
   19.3849   17.7515    2.4603 C   0  0  0  0  0  0
   20.7957   17.6041    1.8652 C   0  0  0  0  0  0
   19.7186   14.1694    3.2374 H   0  0  0  0  0  0
   17.6540   13.0655    2.4435 H   0  0  0  0  0  0
   17.4869   16.6376    5.9723 H   0  0  0  0  0  0
   14.5878   15.9475    5.7660 H   0  0  0  0  0  0
   12.5466   14.9250    5.1557 H   0  0  0  0  0  0
   10.2326   13.0655    3.4599 H   0  0  0  0  0  0
    9.1379   14.4341    4.8962 H   0  0  0  0  0  0
   10.5671   15.3699    5.1947 H   0  0  0  0  0  0
    9.8728   14.2139    7.2811 H   0  0  0  0  0  0
   11.3906   13.4885    6.7662 H   0  0  0  0  0  0
    9.8518   12.6612    6.4689 H   0  0  0  0  0  0
   21.5725   19.1409    4.7885 H   0  0  0  0  0  0
   23.2510   17.9504    6.1526 H   0  0  0  0  0  0
   22.8722   15.6332    6.8023 H   0  0  0  0  0  0
   20.7996   14.4346    6.1063 H   0  0  0  0  0  0
   18.8206   16.8299    2.3212 H   0  0  0  0  0  0
   18.8574   18.5105    1.8868 H   0  0  0  0  0  0
   20.7526   17.3175    0.8121 H   0  0  0  0  0  0
   21.3644   18.5300    1.9418 H   0  0  0  0  0  0
   21.3471   16.8333    2.4029 H   0  0  0  0  0  0
  1  2  2  0  0  0
  1  4  1  0  0  0
  1 16  1  0  0  0
  2  3  1  0  0  0
  2 25  1  0  0  0
  3  6  2  0  0  0
  3 26  1  0  0  0
  4  5  2  0  0  0
  4 27  1  0  0  0
  5  6  1  0  0  0
  5  9  1  0  0  0
  6  7  1  0  0  0
  7  8  2  0  0  0
  8  9  1  0  0  0
  8 10  1  0  0  0
  9 28  1  0  0  0
 10 11  1  0  0  0
 10 29  1  0  0  0
 11 12  1  0  0  0
 11 13  2  0  0  0
 12 14  1  0  0  0
 12 30  1  0  0  0
 14 15  1  0  0  0
 14 31  1  0  0  0
 14 32  1  0  0  0
 15 33  1  0  0  0
 15 34  1  0  0  0
 15 35  1  0  0  0
 16 17  2  0  0  0
 16 21  1  0  0  0
 17 18  1  0  0  0
 17 22  1  0  0  0
 18 19  2  0  0  0
 18 36  1  0  0  0
 19 20  1  0  0  0
 19 37  1  0  0  0
 20 21  2  0  0  0
 20 38  1  0  0  0
 21 39  1  0  0  0
 22 23  1  0  0  0
 23 24  1  0  0  0
 23 40  1  0  0  0
 23 41  1  0  0  0
 24 42  1  0  0  0
 24 43  1  0  0  0
 24 44  1  0  0  0
M  END
> <s_m_entry_id>
6369

> <s_m_entry_name>
dock_pv.295

> <s_m_Source_Path>
/home/csk/Desktop/cluster/DUD-E-result/abl1

> <s_m_Source_File>
dock_pv.maegz

> <i_m_Source_File_Index>
295

> <chembl_id>
CHEMBL2347741

> <chembl_pref_name>
None

> <i_lp_mmshare_version>
53161

> <i_f3d_flags>
0

> <r_lp_tautomer_probability>
1

> <s_lp_Force_Field>
OPLS_2005

> <r_lp_Energy>
17.956182

> <b_lp_Chiralities_Consistent>
1

> <s_lp_Variant>
CHEMBL1862_lig756-1

> <s_i_glide_gridfile>
glide-grid_2hzi

> <i_i_glide_lignum>
889

> <i_i_glide_rotatable_bonds>
7

> <r_i_docking_score>
-8.04159928915984

> <r_i_glide_ligand_efficiency>
-0.335066637048327

> <r_i_glide_ligand_efficiency_sa>
-0.966499425590733

> <r_i_glide_ligand_efficiency_ln>
-1.92472371484265

> <r_i_glide_gscore>
-8.04159928915984

> <r_i_glide_lipo>
-4.49225744838617

> <r_i_glide_hbond>
0

> <r_i_glide_metal>
0

> <r_i_glide_rewards>
-1.90987229498643

> <r_i_glide_evdw>
-47.847728729248

> <r_i_glide_ecoul>
-0.913124978542328

> <r_i_glide_erotb>
0.889885637456498

> <r_i_glide_esite>
0

> <r_i_glide_emodel>
-64.3222394674499

> <r_i_glide_energy>
-48.7608537077904

> <r_i_glide_einternal>
11.2475147247314

> <i_i_glide_confnum>
7

> <i_i_glide_posenum>
342

> <r_i_glide_eff_state_penalty>
0

> <s_user_duplicate_titles>
CHEMBL1862_lig756

> <s_m_subgroup_title>
dock_pv

> <s_m_subgroupid>
dock_pv

> <b_m_subgroup_collapsed>
0

$$$$
CHEMBL1862_lig106
                    3D
 Schrodinger Suite 2021-1.
 34 35  0  0  1  0            999 V2000
   20.3482   15.2348    6.4511 N   0  0  0  0  0  0
   20.2097   16.0016    5.4491 C   0  0  0  0  0  0
   18.9661   16.0441    4.7530 N   0  0  0  0  0  0
   17.7257   15.4848    5.3404 C   0  0  1  0  0  0
   16.8550   16.5986    5.9679 C   0  0  0  0  0  0
   16.9896   14.5106    4.3907 C   0  0  0  0  0  0
   17.7262   13.6121    3.6014 C   0  0  0  0  0  0
   17.0846   12.6667    2.8031 C   0  0  0  0  0  0
   15.6924   12.5875    2.7962 C   0  0  0  0  0  0
   14.9410   13.4664    3.5807 C   0  0  0  0  0  0
   13.4887   13.3596    3.6031 C   0  0  0  0  0  0
   12.3351   13.2763    3.6196 N   0  0  0  0  0  0
   15.5865   14.4337    4.3586 C   0  0  0  0  0  0
   18.8556   16.6101    3.4830 C   0  0  0  0  0  0
   19.8734   17.2429    2.8883 C   0  0  0  0  0  0
   19.8029   17.6331    1.1893 Cl  0  0  0  0  0  0
   21.0748   17.4660    3.6537 C   0  0  0  0  0  0
   21.2336   16.9147    4.8873 C   0  0  0  0  0  0
   22.4393   17.2286    5.6395 C   0  0  0  0  0  0
   22.9551   18.4513    5.5117 N   0  0  0  0  0  0
   22.9638   16.4332    6.4031 O   0  0  0  0  0  0
   21.2943   15.3255    6.8061 H   0  0  0  0  0  0
   17.9920   14.8350    6.1746 H   0  0  0  0  0  0
   16.0543   16.1901    6.5858 H   0  0  0  0  0  0
   17.4497   17.2405    6.6192 H   0  0  0  0  0  0
   16.4038   17.2318    5.2050 H   0  0  0  0  0  0
   18.8073   13.6314    3.6127 H   0  0  0  0  0  0
   17.6777   11.9902    2.2036 H   0  0  0  0  0  0
   15.2013   11.8388    2.1882 H   0  0  0  0  0  0
   14.9886   15.0955    4.9686 H   0  0  0  0  0  0
   17.9516   16.3899    2.9347 H   0  0  0  0  0  0
   21.8222   18.1174    3.2194 H   0  0  0  0  0  0
   23.7755   18.6874    6.0484 H   0  0  0  0  0  0
   22.5246   19.1492    4.9268 H   0  0  0  0  0  0
  1  2  2  0  0  0
  1 22  1  0  0  0
  2  3  1  0  0  0
  2 18  1  0  0  0
  3  4  1  0  0  0
  3 14  1  0  0  0
  4  5  1  0  0  0
  4  6  1  0  0  0
  4 23  1  0  0  0
  5 24  1  0  0  0
  5 25  1  0  0  0
  5 26  1  0  0  0
  6  7  2  0  0  0
  6 13  1  0  0  0
  7  8  1  0  0  0
  7 27  1  0  0  0
  8  9  2  0  0  0
  8 28  1  0  0  0
  9 10  1  0  0  0
  9 29  1  0  0  0
 10 11  1  0  0  0
 10 13  2  0  0  0
 11 12  3  0  0  0
 13 30  1  0  0  0
 14 15  2  0  0  0
 14 31  1  0  0  0
 15 16  1  0  0  0
 15 17  1  0  0  0
 17 18  2  0  0  0
 17 32  1  0  0  0
 18 19  1  0  0  0
 19 20  1  0  0  0
 19 21  2  0  0  0
 20 33  1  0  0  0
 20 34  1  0  0  0
M  END
> <s_m_entry_id>
6370

> <s_m_entry_name>
dock_pv.296

> <s_m_Source_Path>
/home/csk/Desktop/cluster/DUD-E-result/abl1

> <s_m_Source_File>
dock_pv.maegz

> <i_m_Source_File_Index>
296

> <chembl_id>
CHEMBL3797887

> <chembl_pref_name>
None

> <i_lp_mmshare_version>
53161

> <i_f3d_flags>
0

> <r_lp_tautomer_probability>
0.5

> <s_lp_Force_Field>
OPLS_2005

> <r_lp_Energy>
25.176044

> <b_lp_Chiralities_Consistent>
1

> <s_lp_Variant>
CHEMBL1862_lig106-1

> <s_i_glide_gridfile>
glide-grid_2hzi

> <i_i_glide_lignum>
125

> <i_i_glide_rotatable_bonds>
3

> <r_i_docking_score>
-8.03747268066241

> <r_i_glide_ligand_efficiency>
-0.382736794317257

> <r_i_glide_ligand_efficiency_sa>
-1.05594179396088

> <r_i_glide_ligand_efficiency_ln>
-1.98724887905098

> <r_i_glide_gscore>
-8.03747268066241

> <r_i_glide_lipo>
-4.21771141836498

> <r_i_glide_hbond>
0

> <r_i_glide_metal>
0

> <r_i_glide_rewards>
-2.00916559196071

> <r_i_glide_evdw>
-47.190357208252

> <r_i_glide_ecoul>
0.949013113975525

> <r_i_glide_erotb>
0.40657022297955

> <r_i_glide_esite>
0

> <r_i_glide_emodel>
-62.7473362761599

> <r_i_glide_energy>
-46.2413440942764

> <r_i_glide_einternal>
1.59859991073608

> <i_i_glide_confnum>
2

> <i_i_glide_posenum>
17

> <r_i_glide_eff_state_penalty>
0

> <s_user_duplicate_titles>
CHEMBL1862_lig106

> <s_m_subgroup_title>
dock_pv

> <s_m_subgroupid>
dock_pv

> <b_m_subgroup_collapsed>
0

$$$$
CHEMBL1862_lig789
                    3D
 Schrodinger Suite 2021-1.
 45 48  0  0  1  0            999 V2000
    9.4610   13.8854    4.9094 C   0  0  0  0  0  0
    8.6624   13.0941    4.0942 C   0  0  0  0  0  0
    9.2097   12.3754    3.0384 C   0  0  0  0  0  0
   10.5792   12.4366    2.8020 C   0  0  0  0  0  0
   11.4073   13.2358    3.6067 C   0  0  0  0  0  0
   10.8271   13.9544    4.6640 C   0  0  0  0  0  0
   12.8777   13.2868    3.3908 C   0  0  0  0  0  0
   13.4298   14.3215    4.0742 O   0  0  0  0  0  0
   15.0343   12.6558    2.4149 C   0  0  0  0  0  0
   13.6024   12.4785    2.5886 C   0  0  0  0  0  0
   15.6982   12.0330    1.6042 O   0  0  0  0  0  0
   15.6490   13.6377    3.3439 C   0  0  0  0  0  0
   14.7982   14.4070    4.1446 C   0  0  0  0  0  0
   15.2936   15.2503    5.1202 C   0  0  0  0  0  0
   16.6640   15.3204    5.3160 C   0  0  0  0  0  0
   17.5362   14.6294    4.4837 C   0  0  0  0  0  0
   17.0389   13.7844    3.5052 C   0  0  0  0  0  0
   17.9596   13.0532    2.8056 O   0  0  0  0  0  0
   17.1685   15.9077    6.4483 O   0  0  0  0  0  0
   16.9976   17.3160    6.5643 C   0  0  0  0  0  0
   18.2196   18.0332    6.0032 C   0  0  0  0  0  0
   18.7875   17.3502    5.0036 N   0  0  0  0  0  0
   18.5632   19.1512    6.4006 O   0  0  0  0  0  0
   19.8241   17.6993    4.1880 C   0  0  0  0  0  0
   21.0230   18.2425    4.6660 C   0  0  0  0  0  0
   22.0090   18.5453    3.7439 C   0  0  0  0  0  0
   21.7665   18.2685    2.4022 C   0  0  0  0  0  0
   20.5887   17.6302    2.0107 C   0  0  0  0  0  0
   19.6120   17.3517    2.8950 N   0  0  0  0  0  0
   21.2562   18.4139    5.9821 F   0  0  0  0  0  0
    9.0244   14.4285    5.7349 H   0  0  0  0  0  0
    7.6101   13.0188    4.2990 H   0  0  0  0  0  0
    8.5813   11.7495    2.4214 H   0  0  0  0  0  0
   10.9790   11.8578    1.9841 H   0  0  0  0  0  0
   11.4367   14.5572    5.3198 H   0  0  0  0  0  0
   13.1335   11.6741    2.0432 H   0  0  0  0  0  0
   14.6111   15.7569    5.7850 H   0  0  0  0  0  0
   18.5982   14.6605    4.6769 H   0  0  0  0  0  0
   18.8677   13.2719    3.0200 H   0  0  0  0  0  0
   16.8991   17.6303    7.6007 H   0  0  0  0  0  0
   16.1160   17.6328    6.0038 H   0  0  0  0  0  0
   18.2830   16.5293    4.7006 H   0  0  0  0  0  0
   22.9475   18.9714    4.0671 H   0  0  0  0  0  0
   22.5526   18.4693    1.6818 H   0  0  0  0  0  0
   20.4186   17.3469    0.9810 H   0  0  0  0  0  0
  1  2  2  0  0  0
  1  6  1  0  0  0
  1 31  1  0  0  0
  2  3  1  0  0  0
  2 32  1  0  0  0
  3  4  2  0  0  0
  3 33  1  0  0  0
  4  5  1  0  0  0
  4 34  1  0  0  0
  5  6  2  0  0  0
  5  7  1  0  0  0
  6 35  1  0  0  0
  7  8  1  0  0  0
  7 10  2  0  0  0
  8 13  1  0  0  0
  9 12  1  0  0  0
  9 10  1  0  0  0
  9 11  2  0  0  0
 10 36  1  0  0  0
 12 13  2  0  0  0
 12 17  1  0  0  0
 13 14  1  0  0  0
 14 15  2  0  0  0
 14 37  1  0  0  0
 15 16  1  0  0  0
 15 19  1  0  0  0
 16 17  2  0  0  0
 16 38  1  0  0  0
 17 18  1  0  0  0
 18 39  1  0  0  0
 19 20  1  0  0  0
 20 21  1  0  0  0
 20 40  1  0  0  0
 20 41  1  0  0  0
 21 22  1  0  0  0
 21 23  2  0  0  0
 22 24  1  0  0  0
 22 42  1  0  0  0
 24 25  2  0  0  0
 24 29  1  0  0  0
 25 26  1  0  0  0
 25 30  1  0  0  0
 26 27  2  0  0  0
 26 43  1  0  0  0
 27 28  1  0  0  0
 27 44  1  0  0  0
 28 29  2  0  0  0
 28 45  1  0  0  0
M  END
> <s_m_entry_id>
6371

> <s_m_entry_name>
dock_pv.297

> <s_m_Source_Path>
/home/csk/Desktop/cluster/DUD-E-result/abl1

> <s_m_Source_File>
dock_pv.maegz

> <i_m_Source_File_Index>
297

> <chembl_id>
CHEMBL2408498

> <chembl_pref_name>
None

> <i_lp_mmshare_version>
53161

> <i_f3d_flags>
0

> <r_lp_tautomer_probability>
1

> <s_lp_Force_Field>
OPLS_2005

> <r_lp_Energy>
22.660254

> <b_lp_Chiralities_Consistent>
1

> <s_lp_Variant>
CHEMBL1862_lig789-1

> <s_i_glide_gridfile>
glide-grid_2hzi

> <i_i_glide_lignum>
922

> <i_i_glide_rotatable_bonds>
7

> <r_i_docking_score>
-8.01596562955961

> <r_i_glide_ligand_efficiency>
-0.267198854318654

> <r_i_glide_ligand_efficiency_sa>
-0.83024896475127

> <r_i_glide_ligand_efficiency_ln>
-1.82131473197694

> <r_i_glide_gscore>
-8.01596562955961

> <r_i_glide_lipo>
-4.98571074470226

> <r_i_glide_hbond>
-0.32

> <r_i_glide_metal>
0

> <r_i_glide_rewards>
-0.688121340019458

> <r_i_glide_evdw>
-29.2781162261963

> <r_i_glide_ecoul>
-7.69039964675903

> <r_i_glide_erotb>
0.595332213485779

> <r_i_glide_esite>
0

> <r_i_glide_emodel>
-65.381082730611

> <r_i_glide_energy>
-36.9685158729553

> <r_i_glide_einternal>
16.6760425567627

> <i_i_glide_confnum>
14

> <i_i_glide_posenum>
160

> <r_i_glide_eff_state_penalty>
0

> <s_user_duplicate_titles>
CHEMBL1862_lig789

> <s_m_subgroup_title>
dock_pv

> <s_m_subgroupid>
dock_pv

> <b_m_subgroup_collapsed>
0

$$$$
CHEMBL1862_lig615
                    3D
 Schrodinger Suite 2021-1.
 40 43  0  0  1  0            999 V2000
   19.9510   17.2145    4.8899 C   0  0  0  0  0  0
   21.2638   17.7388    5.5420 C   0  0  0  0  0  0
   22.4727   17.7019    4.5947 C   0  0  0  0  0  0
   22.1640   18.3922    3.3394 N   0  0  2  0  0  0
   20.9640   17.9060    2.6649 C   0  0  0  0  0  0
   19.7690   18.0342    3.6201 C   0  0  0  0  0  0
   17.3531   12.2403    2.4942 C   0  0  0  0  0  0
   15.9895   12.5029    2.5661 C   0  0  0  0  0  0
   15.4641   13.5291    3.3288 C   0  0  0  0  0  0
   18.2767   13.1094    3.0271 C   0  0  0  0  0  0
   17.8142   14.2030    3.7436 C   0  0  0  0  0  0
   16.3972   14.3870    3.9088 C   0  0  0  0  0  0
   16.2204   15.4923    4.6985 N   0  0  0  0  0  0
   18.4701   15.2547    4.4216 C   0  0  0  0  0  0
   17.4698   15.9707    5.0185 C   0  0  0  0  0  0
   17.7124   16.9484    5.9806 C   0  0  0  0  0  0
   18.8471   17.6217    5.7651 N   0  0  0  0  0  0
   19.9230   15.6543    4.6513 C   0  0  2  0  0  0
   16.9640   17.2330    6.8682 O   0  0  0  0  0  0
   20.4179   14.9626    5.8534 C   0  0  0  0  0  0
   20.8070   14.4330    6.8030 N   0  0  0  0  0  0
   13.7447   13.6909    3.5373 Cl  0  0  0  0  0  0
   14.9065   11.6330    1.6030 Cl  0  0  0  0  0  0
   14.9247   16.0330    5.1300 C   0  0  0  0  0  0
   21.4905   17.1994    6.4613 H   0  0  0  0  0  0
   21.1529   18.7712    5.8792 H   0  0  0  0  0  0
   22.7642   16.6712    4.4030 H   0  0  0  0  0  0
   23.3283   18.1923    5.0617 H   0  0  0  0  0  0
   22.9582   18.3601    2.7142 H   0  0  0  0  0  0
   21.1165   16.8599    2.4030 H   0  0  0  0  0  0
   20.7961   18.4330    1.7261 H   0  0  0  0  0  0
   19.6465   19.0544    4.0030 H   0  0  0  0  0  0
   18.8443   17.7751    3.1034 H   0  0  0  0  0  0
   17.7640   11.3825    2.0030 H   0  0  0  0  0  0
   19.3270   12.9457    2.8439 H   0  0  0  0  0  0
   18.8851   18.5371    6.1841 H   0  0  0  0  0  0
   20.5600   15.3621    3.8175 H   0  0  0  0  0  0
   15.0113   17.0390    5.5302 H   0  0  0  0  0  0
   14.2608   16.1295    4.2728 H   0  0  0  0  0  0
   14.4836   15.3733    5.8781 H   0  0  0  0  0  0
  1  2  1  0  0  0
  1  6  1  0  0  0
  1 17  1  0  0  0
  1 18  1  0  0  0
  2  3  1  0  0  0
  2 25  1  0  0  0
  2 26  1  0  0  0
  3  4  1  0  0  0
  3 27  1  0  0  0
  3 28  1  0  0  0
  4  5  1  0  0  0
  4 29  1  0  0  0
  5  6  1  0  0  0
  5 30  1  0  0  0
  5 31  1  0  0  0
  6 32  1  0  0  0
  6 33  1  0  0  0
  7  8  2  0  0  0
  7 10  1  0  0  0
  7 34  1  0  0  0
  8  9  1  0  0  0
  8 23  1  0  0  0
  9 12  2  0  0  0
  9 22  1  0  0  0
 10 11  2  0  0  0
 10 35  1  0  0  0
 11 14  1  0  0  0
 11 12  1  0  0  0
 12 13  1  0  0  0
 13 15  1  0  0  0
 13 24  1  0  0  0
 14 15  2  0  0  0
 14 18  1  0  0  0
 15 16  1  0  0  0
 16 17  1  0  0  0
 16 19  2  0  0  0
 17 36  1  0  0  0
 18 20  1  0  0  0
 18 37  1  0  0  0
 20 21  3  0  0  0
 24 38  1  0  0  0
 24 39  1  0  0  0
 24 40  1  0  0  0
M  END
> <s_m_entry_id>
6373

> <s_m_entry_name>
dock_pv.299

> <s_m_Source_Path>
/home/csk/Desktop/cluster/DUD-E-result/abl1

> <s_m_Source_File>
dock_pv.maegz

> <i_m_Source_File_Index>
299

> <chembl_id>
CHEMBL1945559

> <chembl_pref_name>
None

> <i_lp_mmshare_version>
53161

> <i_f3d_flags>
0

> <r_lp_tautomer_probability>
1

> <s_lp_Force_Field>
OPLS_2005

> <r_lp_Energy>
35.691111

> <b_lp_Chiralities_Consistent>
1

> <s_lp_Variant>
CHEMBL1862_lig615-2

> <s_i_glide_gridfile>
glide-grid_2hzi

> <i_i_glide_lignum>
722

> <i_i_glide_rotatable_bonds>
0

> <r_i_docking_score>
-7.99707380724783

> <r_i_glide_ligand_efficiency>
-0.333211408635326

> <r_i_glide_ligand_efficiency_sa>
-0.961148020833458

> <r_i_glide_ligand_efficiency_ln>
-1.91406672387987

> <r_i_glide_gscore>
-7.99707380724783

> <r_i_glide_lipo>
-4.18748128715116

> <r_i_glide_hbond>
-0.19242058524508

> <r_i_glide_metal>
0

> <r_i_glide_rewards>
-2.08021771074195

> <r_i_glide_evdw>
-23.3617515563965

> <r_i_glide_ecoul>
-2.4591109752655

> <r_i_glide_erotb>
0

> <r_i_glide_esite>
0

> <r_i_glide_emodel>
-47.8603152109168

> <r_i_glide_energy>
-25.820862531662

> <r_i_glide_einternal>
0

> <i_i_glide_confnum>
2

> <i_i_glide_posenum>
149

> <r_i_glide_eff_state_penalty>
0

> <s_user_duplicate_titles>
CHEMBL1862_lig615

> <s_m_subgroup_title>
dock_pv

> <s_m_subgroupid>
dock_pv

> <b_m_subgroup_collapsed>
0

$$$$
CHEMBL1862_lig871
                    3D
 Schrodinger Suite 2021-1.
 43 45  0  0  1  0            999 V2000
   14.7539   14.7176    3.7671 N   0  0  0  0  0  0
   16.1368   14.6544    3.7709 C   0  0  0  0  0  0
   16.4491   13.4489    3.1628 C   0  0  0  0  0  0
   15.2429   12.8434    2.7653 C   0  0  0  0  0  0
   14.1838   13.5757    3.2478 C   0  0  0  0  0  0
   17.7531   12.9240    2.9356 C   0  0  0  0  0  0
   18.7770   13.5681    2.8095 O   0  0  0  0  0  0
   17.7648   11.6330    2.8030 N   0  0  0  0  0  0
   17.0427   15.6583    4.4309 C   0  0  0  0  0  0
   16.8032   16.1341    5.7292 C   0  0  0  0  0  0
   17.5965   17.1583    6.2494 C   0  0  0  0  0  0
   18.7165   17.6166    5.5691 C   0  0  0  0  0  0
   19.0433   17.0723    4.3331 C   0  0  0  0  0  0
   18.1640   16.1600    3.7478 C   0  0  0  0  0  0
   10.5922   13.6417    3.9964 C   0  0  0  0  0  0
   11.9102   13.9650    4.0335 N   0  0  0  0  0  0
   12.7300   13.2386    3.2247 C   0  0  0  0  0  0
   12.2401   12.2134    2.4031 C   0  0  0  0  0  0
   10.8620   11.9893    2.4099 C   0  0  0  0  0  0
   10.0202   12.7017    3.2032 N   0  0  0  0  0  0
    9.7515   14.3130    4.8698 N   0  0  0  0  0  0
   20.3720   17.4028    3.6654 C   0  0  0  0  0  0
   15.6467   15.6194    6.5630 C   0  0  0  0  0  0
   15.9516   15.2146    8.0030 C   0  0  0  0  0  0
   20.9083   18.5348    4.1079 F   0  0  0  0  0  0
   21.2112   16.4327    4.0030 F   0  0  0  0  0  0
   20.2646   17.4653    2.3365 F   0  0  0  0  0  0
   14.2231   15.4654    4.1893 H   0  0  0  0  0  0
   15.1454   11.8995    2.2489 H   0  0  0  0  0  0
   17.0300   11.0734    3.2030 H   0  0  0  0  0  0
   18.6238   11.2136    2.4681 H   0  0  0  0  0  0
   17.3629   17.5965    7.2030 H   0  0  0  0  0  0
   19.3485   18.3689    6.0158 H   0  0  0  0  0  0
   18.3833   15.8317    2.7491 H   0  0  0  0  0  0
   12.8884   11.6330    1.7644 H   0  0  0  0  0  0
   10.4187   11.2189    1.7939 H   0  0  0  0  0  0
    8.8141   13.9500    4.9665 H   0  0  0  0  0  0
   10.1845   14.8334    5.6158 H   0  0  0  0  0  0
   14.9639   16.4330    6.5161 H   0  0  0  0  0  0
   15.1433   14.7672    6.1283 H   0  0  0  0  0  0
   15.2909   14.4330    8.3724 H   0  0  0  0  0  0
   16.9641   14.8330    8.1251 H   0  0  0  0  0  0
   15.7640   16.0329    8.6731 H   0  0  0  0  0  0
  1  2  1  0  0  0
  1  5  1  0  0  0
  1 28  1  0  0  0
  2  3  2  0  0  0
  2  9  1  0  0  0
  3  4  1  0  0  0
  3  6  1  0  0  0
  4  5  2  0  0  0
  4 29  1  0  0  0
  5 17  1  0  0  0
  6  7  2  0  0  0
  6  8  1  0  0  0
  8 30  1  0  0  0
  8 31  1  0  0  0
  9 10  1  0  0  0
  9 14  2  0  0  0
 10 11  2  0  0  0
 10 23  1  0  0  0
 11 12  1  0  0  0
 11 32  1  0  0  0
 12 13  2  0  0  0
 12 33  1  0  0  0
 13 14  1  0  0  0
 13 22  1  0  0  0
 14 34  1  0  0  0
 15 16  1  0  0  0
 15 20  2  0  0  0
 15 21  1  0  0  0
 16 17  2  0  0  0
 17 18  1  0  0  0
 18 19  2  0  0  0
 18 35  1  0  0  0
 19 20  1  0  0  0
 19 36  1  0  0  0
 21 37  1  0  0  0
 21 38  1  0  0  0
 22 25  1  0  0  0
 22 26  1  0  0  0
 22 27  1  0  0  0
 23 24  1  0  0  0
 23 39  1  0  0  0
 23 40  1  0  0  0
 24 41  1  0  0  0
 24 42  1  0  0  0
 24 43  1  0  0  0
M  END
> <s_m_entry_id>
6374

> <s_m_entry_name>
dock_pv.300

> <s_m_Source_Path>
/home/csk/Desktop/cluster/DUD-E-result/abl1

> <s_m_Source_File>
dock_pv.maegz

> <i_m_Source_File_Index>
300

> <chembl_id>
CHEMBL3330130

> <chembl_pref_name>
None

> <i_lp_mmshare_version>
53161

> <i_f3d_flags>
0

> <r_lp_tautomer_probability>
0.999999987636

> <s_lp_Force_Field>
OPLS_2005

> <r_lp_Energy>
2.51227

> <b_lp_Chiralities_Consistent>
1

> <s_lp_Variant>
CHEMBL1862_lig871-1

> <s_i_glide_gridfile>
glide-grid_2hzi

> <i_i_glide_lignum>
1011

> <i_i_glide_rotatable_bonds>
5

> <r_i_docking_score>
-7.99418247026225

> <r_i_glide_ligand_efficiency>
-0.296080832231935

> <r_i_glide_ligand_efficiency_sa>
-0.888242495719971

> <r_i_glide_ligand_efficiency_ln>
-1.86091388467874

> <r_i_glide_gscore>
-7.99418247026225

> <r_i_glide_lipo>
-3.68288920383634

> <r_i_glide_hbond>
-0.217183383571918

> <r_i_glide_metal>
0

> <r_i_glide_rewards>
-3.14053293235084

> <r_i_glide_evdw>
-21.9204063415527

> <r_i_glide_ecoul>
-0.798335552215576

> <r_i_glide_erotb>
0.274631799552769

> <r_i_glide_esite>
-0.0124381001459454

> <r_i_glide_emodel>
-29.1913114760922

> <r_i_glide_energy>
-22.7187418937683

> <r_i_glide_einternal>
4.28165864944458

> <i_i_glide_confnum>
1

> <i_i_glide_posenum>
267

> <r_i_glide_eff_state_penalty>
0

> <s_user_duplicate_titles>
CHEMBL1862_lig871

> <s_m_subgroup_title>
dock_pv

> <s_m_subgroupid>
dock_pv

> <b_m_subgroup_collapsed>
0

$$$$
CHEMBL1862_lig367
                    3D
 Schrodinger Suite 2021-1.
 43 46  0  0  1  0            999 V2000
   13.2699   14.5477    4.8016 N   0  0  0  0  0  0
   12.4492   13.6765    4.1266 C   0  0  0  0  0  0
   12.8328   12.7851    3.1746 N   0  0  0  0  0  0
   14.5948   14.5855    4.4623 C   0  0  0  0  0  0
   15.0503   13.7509    3.4282 C   0  0  0  0  0  0
   14.1213   12.8481    2.8864 C   0  0  0  0  0  0
   14.8669   12.0204    2.0990 N   0  0  0  0  0  0
   16.1653   12.4349    2.2524 C   0  0  0  0  0  0
   16.2511   13.5964    2.8051 N   0  0  0  0  0  0
   15.4300   15.4576    5.1947 N   0  0  0  0  0  0
   16.8262   15.7114    5.2021 C   0  0  0  0  0  0
   17.8197   14.8130    4.8046 C   0  0  0  0  0  0
   19.1494   15.1750    4.7234 C   0  0  0  0  0  0
   19.5502   16.4328    5.1468 C   0  0  0  0  0  0
   18.5947   17.3405    5.6024 C   0  0  0  0  0  0
   17.2532   16.9546    5.6484 C   0  0  0  0  0  0
   11.0934   13.6112    4.4408 N   0  0  0  0  0  0
   10.0794   13.5013    3.3714 C   0  0  0  0  0  0
    8.6829   13.0454    3.8239 C   0  0  0  0  0  0
    8.2577   13.8131    4.9373 O   0  0  0  0  0  0
    9.1225   13.6208    6.0435 C   0  0  0  0  0  0
   10.5241   14.1475    5.6768 C   0  0  0  0  0  0
   21.2927   16.8231    5.1283 S   0  0  0  0  0  0
   22.1072   15.2855    5.2302 N   0  0  0  0  0  0
   21.5771   17.4173    3.8207 O   0  0  0  0  0  0
   21.6005   17.5254    6.3718 O   0  0  0  0  0  0
   14.5640   11.1500    1.6743 H   0  0  0  0  0  0
   17.0286   11.8589    1.9782 H   0  0  0  0  0  0
   14.9024   16.0349    5.8318 H   0  0  0  0  0  0
   17.6347   13.7860    4.5788 H   0  0  0  0  0  0
   19.8480   14.4500    4.3459 H   0  0  0  0  0  0
   18.8882   18.3264    5.9362 H   0  0  0  0  0  0
   16.5111   17.6329    6.0034 H   0  0  0  0  0  0
   10.4111   12.7741    2.6323 H   0  0  0  0  0  0
   10.0096   14.4581    2.8536 H   0  0  0  0  0  0
    7.9890   13.1862    2.9989 H   0  0  0  0  0  0
    8.6694   11.9785    4.0557 H   0  0  0  0  0  0
    8.7267   14.1708    6.8974 H   0  0  0  0  0  0
    9.1553   12.5674    6.3399 H   0  0  0  0  0  0
   10.4978   15.2326    5.5972 H   0  0  0  0  0  0
   11.1979   13.9100    6.5015 H   0  0  0  0  0  0
   22.4819   14.9387    4.3475 H   0  0  0  0  0  0
   22.7478   15.1861    6.0239 H   0  0  0  0  0  0
  1  2  2  0  0  0
  1  4  1  0  0  0
  2  3  1  0  0  0
  2 17  1  0  0  0
  3  6  2  0  0  0
  4  5  2  0  0  0
  4 10  1  0  0  0
  5  9  1  0  0  0
  5  6  1  0  0  0
  6  7  1  0  0  0
  7  8  1  0  0  0
  7 27  1  0  0  0
  8  9  2  0  0  0
  8 28  1  0  0  0
 10 11  1  0  0  0
 10 29  1  0  0  0
 11 16  1  0  0  0
 11 12  2  0  0  0
 12 13  1  0  0  0
 12 30  1  0  0  0
 13 14  2  0  0  0
 13 31  1  0  0  0
 14 15  1  0  0  0
 14 23  1  0  0  0
 15 16  2  0  0  0
 15 32  1  0  0  0
 16 33  1  0  0  0
 17 18  1  0  0  0
 17 22  1  0  0  0
 18 19  1  0  0  0
 18 34  1  0  0  0
 18 35  1  0  0  0
 19 20  1  0  0  0
 19 36  1  0  0  0
 19 37  1  0  0  0
 20 21  1  0  0  0
 21 22  1  0  0  0
 21 38  1  0  0  0
 21 39  1  0  0  0
 22 40  1  0  0  0
 22 41  1  0  0  0
 23 24  1  0  0  0
 23 25  2  0  0  0
 23 26  2  0  0  0
 24 42  1  0  0  0
 24 43  1  0  0  0
M  END
> <s_m_entry_id>
6375

> <s_m_entry_name>
dock_pv.301

> <s_m_Source_Path>
/home/csk/Desktop/cluster/DUD-E-result/abl1

> <s_m_Source_File>
dock_pv.maegz

> <i_m_Source_File_Index>
301

> <chembl_id>
CHEMBL1172957

> <chembl_pref_name>
None

> <i_lp_mmshare_version>
53161

> <i_f3d_flags>
0

> <r_lp_tautomer_probability>
0.95558173703543

> <s_lp_Force_Field>
OPLS_2005

> <r_lp_Energy>
30.218155

> <b_lp_Chiralities_Consistent>
1

> <s_lp_Variant>
CHEMBL1862_lig367-1

> <s_i_glide_gridfile>
glide-grid_2hzi

> <i_i_glide_lignum>
450

> <i_i_glide_rotatable_bonds>
4

> <r_i_docking_score>
-7.9938238165275

> <r_i_glide_ligand_efficiency>
-0.307454762174135

> <r_i_glide_ligand_efficiency_sa>
-0.910833523164803

> <r_i_glide_ligand_efficiency_ln>
-1.87732329343614

> <r_i_glide_gscore>
-7.9938238165275

> <r_i_glide_lipo>
-2.60778190809404

> <r_i_glide_hbond>
-0.479830615073888

> <r_i_glide_metal>
0

> <r_i_glide_rewards>
-2.97414302305584

> <r_i_glide_evdw>
-36.4971389770508

> <r_i_glide_ecoul>
-3.46028995513916

> <r_i_glide_erotb>
0.411832171819685

> <r_i_glide_esite>
0

> <r_i_glide_emodel>
-44.9068036243873

> <r_i_glide_energy>
-39.9574289321899

> <r_i_glide_einternal>
5.56159353256226

> <i_i_glide_confnum>
30

> <i_i_glide_posenum>
258

> <r_i_glide_eff_state_penalty>
0

> <s_user_duplicate_titles>
CHEMBL1862_lig367,CHEMBL1862_lig367

> <s_m_subgroup_title>
dock_pv

> <s_m_subgroupid>
dock_pv

> <b_m_subgroup_collapsed>
0

$$$$
CHEMBL1862_lig138
                    3D
 Schrodinger Suite 2021-1.
 48 51  0  0  1  0            999 V2000
   18.2280   15.6771    4.6329 C   0  0  0  0  0  0
   11.7688   13.7274    4.5973 C   0  0  0  0  0  0
   11.2388   13.2236    3.4510 N   0  0  0  0  0  0
   19.6905   15.8978    4.9301 C   0  0  0  0  0  0
   20.5585   16.7379    4.1690 C   0  0  0  0  0  0
   20.2004   17.3277    2.8027 C   0  0  0  0  0  0
   17.9601   14.5406    3.9417 N   0  0  0  0  0  0
    9.8951   13.0205    3.4310 C   0  0  0  0  0  0
   13.1321   14.0312    4.6953 N   0  0  0  0  0  0
   11.0365   14.0093    5.7057 N   0  0  0  0  0  0
    9.3624   12.4506    2.1794 C   0  0  0  0  0  0
   17.4026   16.4499    5.0949 O   0  0  0  0  0  0
   16.6923   13.9945    3.6909 C   0  0  0  0  0  0
   15.4775   14.3561    4.2888 C   0  0  0  0  0  0
   14.2831   13.6890    3.9580 C   0  0  0  0  0  0
   19.1237   17.1924    2.2394 O   0  0  0  0  0  0
    7.9577   12.7205    0.2250 N   0  0  0  0  0  0
    9.0772   13.3038    4.5109 C   0  0  0  0  0  0
   21.2001   18.0321    2.2071 O   0  0  0  0  0  0
    9.6997   13.7859    5.6563 C   0  0  0  0  0  0
    8.3471   13.1133    1.4647 C   0  0  0  0  0  0
   20.1579   15.3022    6.1047 C   0  0  0  0  0  0
   21.8141   17.0380    4.7226 C   0  0  0  0  0  0
   15.5120   12.3600    2.3593 C   0  0  0  0  0  0
    9.9103   11.2874    1.6357 C   0  0  0  0  0  0
    8.5625   11.6334   -0.3101 C   0  0  0  0  0  0
   16.7020   12.9568    2.7453 C   0  0  0  0  0  0
   14.3098   12.6898    2.9799 C   0  0  0  0  0  0
    9.4880   10.8633    0.3982 C   0  0  0  0  0  0
   22.2222   16.5044    5.9385 C   0  0  0  0  0  0
   21.4017   15.6195    6.6205 C   0  0  0  0  0  0
   18.7427   14.0266    3.5919 H   0  0  0  0  0  0
   13.3695   14.3185    5.6315 H   0  0  0  0  0  0
   15.4451   15.1209    5.0645 H   0  0  0  0  0  0
    8.0205   13.1088    4.4847 H   0  0  0  0  0  0
   20.9180   18.3037    1.3270 H   0  0  0  0  0  0
    9.1371   14.0174    6.5506 H   0  0  0  0  0  0
    7.9229   14.0193    1.8552 H   0  0  0  0  0  0
   19.5268   14.6327    6.6820 H   0  0  0  0  0  0
   22.5324   17.6812    4.2100 H   0  0  0  0  0  0
   15.4939   11.6334    1.5690 H   0  0  0  0  0  0
   10.6910   10.7522    2.1663 H   0  0  0  0  0  0
    8.3349   11.3763   -1.3352 H   0  0  0  0  0  0
   17.6252   12.6572    2.2593 H   0  0  0  0  0  0
   13.4357   12.1185    2.6920 H   0  0  0  0  0  0
    9.9611   10.0226   -0.0785 H   0  0  0  0  0  0
   23.1925   16.7461    6.3272 H   0  0  0  0  0  0
   21.7321   15.2185    7.5663 H   0  0  0  0  0  0
  1  4  1  0  0  0
  1  7  1  0  0  0
  1 12  2  0  0  0
  2  9  1  0  0  0
  2  3  1  0  0  0
  2 10  2  0  0  0
  3  8  2  0  0  0
  4  5  1  0  0  0
  4 22  2  0  0  0
  5  6  1  0  0  0
  5 23  2  0  0  0
  6 16  2  0  0  0
  6 19  1  0  0  0
  7 13  1  0  0  0
  7 32  1  0  0  0
  8 11  1  0  0  0
  8 18  1  0  0  0
  9 15  1  0  0  0
  9 33  1  0  0  0
 10 20  1  0  0  0
 11 21  1  0  0  0
 11 25  2  0  0  0
 13 14  2  0  0  0
 13 27  1  0  0  0
 14 15  1  0  0  0
 14 34  1  0  0  0
 15 28  2  0  0  0
 17 21  2  0  0  0
 17 26  1  0  0  0
 18 20  2  0  0  0
 18 35  1  0  0  0
 19 36  1  0  0  0
 20 37  1  0  0  0
 21 38  1  0  0  0
 22 31  1  0  0  0
 22 39  1  0  0  0
 23 30  1  0  0  0
 23 40  1  0  0  0
 24 27  2  0  0  0
 24 28  1  0  0  0
 24 41  1  0  0  0
 25 29  1  0  0  0
 25 42  1  0  0  0
 26 29  2  0  0  0
 26 43  1  0  0  0
 27 44  1  0  0  0
 28 45  1  0  0  0
 29 46  1  0  0  0
 30 31  2  0  0  0
 30 47  1  0  0  0
 31 48  1  0  0  0
M  END
> <s_m_entry_id>
6376

> <s_m_entry_name>
dock_pv.302

> <s_m_Source_Path>
/home/csk/Desktop/cluster/DUD-E-result/abl1

> <s_m_Source_File>
dock_pv.maegz

> <i_m_Source_File_Index>
302

> <chembl_id>
CHEMBL55742

> <chembl_pref_name>
None

> <i_lp_mmshare_version>
53161

> <i_f3d_flags>
0

> <r_lp_tautomer_probability>
0.999999987636

> <s_lp_Force_Field>
OPLS_2005

> <r_lp_Energy>
32.609054

> <b_lp_Chiralities_Consistent>
1

> <s_lp_Variant>
CHEMBL1862_lig138-1

> <s_i_glide_gridfile>
glide-grid_2hzi

> <i_i_glide_lignum>
157

> <i_i_glide_rotatable_bonds>
8

> <r_i_docking_score>
-7.98494996406242

> <r_i_glide_ligand_efficiency>
-0.257579031098788

> <r_i_glide_ligand_efficiency_sa>
-0.809153783829245

> <r_i_glide_ligand_efficiency_ln>
-1.800850926224

> <r_i_glide_gscore>
-7.98494996406242

> <r_i_glide_lipo>
-3.97342665269897

> <r_i_glide_hbond>
0

> <r_i_glide_metal>
0

> <r_i_glide_rewards>
-2.11140174868636

> <r_i_glide_evdw>
-50.9817771911621

> <r_i_glide_ecoul>
-1.1075998544693

> <r_i_glide_erotb>
0.815107275051404

> <r_i_glide_esite>
0

> <r_i_glide_emodel>
-57.9780076949144

> <r_i_glide_energy>
-52.0893770456314

> <r_i_glide_einternal>
13.5878047943115

> <i_i_glide_confnum>
29

> <i_i_glide_posenum>
132

> <r_i_glide_eff_state_penalty>
0

> <s_user_duplicate_titles>
CHEMBL1862_lig138

> <s_m_subgroup_title>
dock_pv

> <s_m_subgroupid>
dock_pv

> <b_m_subgroup_collapsed>
0

$$$$
CHEMBL1862_lig161
                    3D
 Schrodinger Suite 2021-1.
 27 29  0  0  1  0            999 V2000
   19.7664   15.6284    4.7000 C   0  0  0  0  0  0
   19.8640   15.0913    5.8967 N   0  0  0  0  0  0
   20.7613   16.6238    4.5128 C   0  0  0  0  0  0
   20.9635   15.6335    6.5367 N   0  0  0  0  0  0
   21.4846   16.5896    5.7275 C   0  0  0  0  0  0
   21.1542   17.5508    3.5322 C   0  0  0  0  0  0
   18.8274   15.3025    3.7545 N   0  0  0  0  0  0
   22.5094   17.4060    6.0032 N   0  0  0  0  0  0
   22.1636   18.3797    3.8508 N   0  0  0  0  0  0
   22.8054   18.3138    5.0363 C   0  0  0  0  0  0
   17.4983   14.9422    4.0080 C   0  0  0  0  0  0
   16.8953   13.9737    3.2041 C   0  0  0  0  0  0
   20.5647   17.6327    2.2752 N   0  0  0  0  0  0
   15.5527   13.6457    3.3883 C   0  0  0  0  0  0
   14.8291   12.4332    2.4026 Cl  0  0  0  0  0  0
   15.3972   15.2614    5.1788 C   0  0  0  0  0  0
   16.7424   15.5884    4.9961 C   0  0  0  0  0  0
   14.8023   14.2915    4.3719 C   0  0  0  0  0  0
   19.1489   15.0404    2.8346 H   0  0  0  0  0  0
   22.4540   19.0693    3.1743 H   0  0  0  0  0  0
   23.5973   19.0331    5.2016 H   0  0  0  0  0  0
   17.4669   13.4699    2.4380 H   0  0  0  0  0  0
   19.9489   16.8796    2.0081 H   0  0  0  0  0  0
   21.0813   18.1164    1.5527 H   0  0  0  0  0  0
   14.8201   15.7566    5.9451 H   0  0  0  0  0  0
   17.1950   16.3485    5.6159 H   0  0  0  0  0  0
   13.7634   14.0340    4.5157 H   0  0  0  0  0  0
  1  2  2  0  0  0
  1  3  1  0  0  0
  1  7  1  0  0  0
  2  4  1  0  0  0
  3  5  1  0  0  0
  3  6  2  0  0  0
  4  5  2  0  0  0
  5  8  1  0  0  0
  6  9  1  0  0  0
  6 13  1  0  0  0
  7 11  1  0  0  0
  7 19  1  0  0  0
  8 10  2  0  0  0
  9 10  1  0  0  0
  9 20  1  0  0  0
 10 21  1  0  0  0
 11 12  2  0  0  0
 11 17  1  0  0  0
 12 14  1  0  0  0
 12 22  1  0  0  0
 13 23  1  0  0  0
 13 24  1  0  0  0
 14 15  1  0  0  0
 14 18  2  0  0  0
 16 17  2  0  0  0
 16 18  1  0  0  0
 16 25  1  0  0  0
 17 26  1  0  0  0
 18 27  1  0  0  0
M  END
> <s_m_entry_id>
6377

> <s_m_entry_name>
dock_pv.303

> <s_m_Source_Path>
/home/csk/Desktop/cluster/DUD-E-result/abl1

> <s_m_Source_File>
dock_pv.maegz

> <i_m_Source_File_Index>
303

> <chembl_id>
CHEMBL121190

> <chembl_pref_name>
None

> <i_lp_mmshare_version>
53161

> <i_f3d_flags>
0

> <r_lp_tautomer_probability>
1

> <s_lp_Force_Field>
OPLS_2005

> <r_lp_Energy>
35.666592

> <b_lp_Chiralities_Consistent>
1

> <s_lp_Variant>
CHEMBL1862_lig161-1

> <s_i_glide_gridfile>
glide-grid_2hzi

> <i_i_glide_lignum>
180

> <i_i_glide_rotatable_bonds>
2

> <r_i_docking_score>
-7.98333827314942

> <r_i_glide_ligand_efficiency>
-0.443518792952746

> <r_i_glide_ligand_efficiency_sa>
-1.16234805868095

> <r_i_glide_ligand_efficiency_ln>
-2.05207593771621

> <r_i_glide_gscore>
-7.98333827314942

> <r_i_glide_lipo>
-2.89213650209459

> <r_i_glide_hbond>
0

> <r_i_glide_metal>
0

> <r_i_glide_rewards>
-3.03171322727273

> <r_i_glide_evdw>
-42.4383201599121

> <r_i_glide_ecoul>
-3.05813145637512

> <r_i_glide_erotb>
0.521147182669764

> <r_i_glide_esite>
0

> <r_i_glide_emodel>
-63.0320062160961

> <r_i_glide_energy>
-45.4964516162872

> <r_i_glide_einternal>
8.34304714202881

> <i_i_glide_confnum>
2

> <i_i_glide_posenum>
369

> <r_i_glide_eff_state_penalty>
0

> <s_user_duplicate_titles>
CHEMBL1862_lig161,197604

> <s_m_subgroup_title>
dock_pv

> <s_m_subgroupid>
dock_pv

> <b_m_subgroup_collapsed>
0

$$$$
CHEMBL1862_lig615
                    3D
 Schrodinger Suite 2021-1.
 40 43  0  0  1  0            999 V2000
   20.9427   16.9795    4.6507 C   0  0  0  0  0  0
   21.6887   16.0275    5.6051 C   0  0  0  0  0  0
   22.4640   16.7669    6.7000 C   0  0  0  0  0  0
   23.3440   17.8230    6.1846 N   0  0  1  0  0  0
   22.7979   18.6945    5.1488 C   0  0  0  0  0  0
   22.0961   17.8443    4.0624 C   0  0  0  0  0  0
   17.0646   12.6553    2.8079 C   0  0  0  0  0  0
   15.7809   13.0207    3.1994 C   0  0  0  0  0  0
   15.5538   14.1468    4.0030 C   0  0  0  0  0  0
   18.1640   13.4395    3.1263 C   0  0  0  0  0  0
   17.9704   14.6268    3.8324 C   0  0  0  0  0  0
   16.6806   14.9244    4.3535 C   0  0  0  0  0  0
   16.8569   16.0239    5.1923 N   0  0  0  0  0  0
   18.8063   15.7403    4.1258 C   0  0  0  0  0  0
   18.1372   16.5429    5.0206 C   0  0  0  0  0  0
   18.6946   17.7472    5.6030 C   0  0  0  0  0  0
   20.0158   17.8992    5.3581 N   0  0  0  0  0  0
   20.1567   16.1561    3.5886 C   0  0  1  0  0  0
   18.1640   18.5688    6.3503 O   0  0  0  0  0  0
   19.9207   16.9761    2.3966 C   0  0  0  0  0  0
   19.7378   17.6330    1.4696 N   0  0  0  0  0  0
   13.9456   14.5515    4.5102 Cl  0  0  0  0  0  0
   14.4653   12.0330    2.6768 Cl  0  0  0  0  0  0
   15.7983   16.6064    6.0030 C   0  0  0  0  0  0
   22.3587   15.3469    5.0789 H   0  0  0  0  0  0
   20.9655   15.3716    6.0907 H   0  0  0  0  0  0
   23.0976   16.0396    7.2030 H   0  0  0  0  0  0
   21.7640   17.1822    7.4188 H   0  0  0  0  0  0
   23.7965   18.3407    6.9261 H   0  0  0  0  0  0
   23.6095   19.2970    4.7469 H   0  0  0  0  0  0
   22.1062   19.3998    5.6099 H   0  0  0  0  0  0
   21.7087   18.5430    3.3210 H   0  0  0  0  0  0
   22.8279   17.2347    3.5336 H   0  0  0  0  0  0
   17.2253   11.7598    2.2332 H   0  0  0  0  0  0
   19.1478   13.1608    2.7899 H   0  0  0  0  0  0
   20.4527   18.5880    5.9490 H   0  0  0  0  0  0
   20.7386   15.2911    3.2827 H   0  0  0  0  0  0
   16.2052   17.2303    6.7935 H   0  0  0  0  0  0
   15.1347   17.1924    5.3669 H   0  0  0  0  0  0
   15.2392   15.8140    6.5001 H   0  0  0  0  0  0
  1  2  1  0  0  0
  1  6  1  0  0  0
  1 17  1  0  0  0
  1 18  1  0  0  0
  2  3  1  0  0  0
  2 25  1  0  0  0
  2 26  1  0  0  0
  3  4  1  0  0  0
  3 27  1  0  0  0
  3 28  1  0  0  0
  4  5  1  0  0  0
  4 29  1  0  0  0
  5  6  1  0  0  0
  5 30  1  0  0  0
  5 31  1  0  0  0
  6 32  1  0  0  0
  6 33  1  0  0  0
  7  8  2  0  0  0
  7 10  1  0  0  0
  7 34  1  0  0  0
  8  9  1  0  0  0
  8 23  1  0  0  0
  9 12  2  0  0  0
  9 22  1  0  0  0
 10 11  2  0  0  0
 10 35  1  0  0  0
 11 14  1  0  0  0
 11 12  1  0  0  0
 12 13  1  0  0  0
 13 15  1  0  0  0
 13 24  1  0  0  0
 14 15  2  0  0  0
 14 18  1  0  0  0
 15 16  1  0  0  0
 16 17  1  0  0  0
 16 19  2  0  0  0
 17 36  1  0  0  0
 18 20  1  0  0  0
 18 37  1  0  0  0
 20 21  3  0  0  0
 24 38  1  0  0  0
 24 39  1  0  0  0
 24 40  1  0  0  0
M  END
> <s_m_entry_id>
6378

> <s_m_entry_name>
dock_pv.304

> <s_m_Source_Path>
/home/csk/Desktop/cluster/DUD-E-result/abl1

> <s_m_Source_File>
dock_pv.maegz

> <i_m_Source_File_Index>
304

> <chembl_id>
CHEMBL1945559

> <chembl_pref_name>
None

> <i_lp_mmshare_version>
53161

> <i_f3d_flags>
0

> <r_lp_tautomer_probability>
1

> <s_lp_Force_Field>
OPLS_2005

> <r_lp_Energy>
37.94584

> <b_lp_Chiralities_Consistent>
1

> <s_lp_Variant>
CHEMBL1862_lig615-1

> <s_i_glide_gridfile>
glide-grid_2hzi

> <i_i_glide_lignum>
721

> <i_i_glide_rotatable_bonds>
0

> <r_i_docking_score>
-7.97645192236848

> <r_i_glide_ligand_efficiency>
-0.33235216343202

> <r_i_glide_ligand_efficiency_sa>
-0.958669528785569

> <r_i_glide_ligand_efficiency_ln>
-1.9091309605516

> <r_i_glide_gscore>
-7.97645192236848

> <r_i_glide_lipo>
-4.32699737864074

> <r_i_glide_hbond>
0

> <r_i_glide_metal>
0

> <r_i_glide_rewards>
-1.80161746813665

> <r_i_glide_evdw>
-37.5446815490723

> <r_i_glide_ecoul>
0.19598001241684

> <r_i_glide_erotb>
0

> <r_i_glide_esite>
0

> <r_i_glide_emodel>
-41.6857836217995

> <r_i_glide_energy>
-37.3487015366554

> <r_i_glide_einternal>
0

> <i_i_glide_confnum>
3

> <i_i_glide_posenum>
157

> <r_i_glide_eff_state_penalty>
0

> <s_user_duplicate_titles>
CHEMBL1862_lig615

> <s_m_subgroup_title>
dock_pv

> <s_m_subgroupid>
dock_pv

> <b_m_subgroup_collapsed>
0

$$$$
CHEMBL1862_lig866
                    3D
 Schrodinger Suite 2021-1.
 40 42  0  0  1  0            999 V2000
   15.0638   15.1509    4.1772 N   0  0  0  0  0  0
   16.4455   15.1053    4.1096 C   0  0  0  0  0  0
   16.7384   13.8650    3.5490 C   0  0  0  0  0  0
   15.5232   13.2508    3.2045 C   0  0  0  0  0  0
   14.4736   14.0143    3.6723 C   0  0  0  0  0  0
   18.0384   13.3358    3.3065 C   0  0  0  0  0  0
   19.0362   14.0115    3.2034 O   0  0  0  0  0  0
   18.1021   12.0330    3.2031 N   0  0  0  0  0  0
   17.3641   16.1909    4.6263 C   0  0  0  0  0  0
   17.1516   16.7930    5.8689 C   0  0  0  0  0  0
   17.9656   17.8409    6.2912 C   0  0  0  0  0  0
   19.1033   18.1907    5.5739 C   0  0  0  0  0  0
   19.3811   17.5514    4.3686 C   0  0  0  0  0  0
   18.4504   16.6428    3.8577 C   0  0  0  0  0  0
   11.3307   12.3615    2.8030 C   0  0  0  0  0  0
   12.6492   12.6726    2.8517 N   0  0  0  0  0  0
   13.0106   13.7205    3.6463 C   0  0  0  0  0  0
   12.0694   14.4300    4.4030 C   0  0  0  0  0  0
   10.7341   14.0326    4.2820 C   0  0  0  0  0  0
   10.3446   13.0057    3.4796 N   0  0  0  0  0  0
   10.9654   11.2867    2.0035 N   0  0  0  0  0  0
   16.0873   16.2909    6.8063 C   0  0  0  0  0  0
   20.7289   17.7257    3.6812 C   0  0  0  0  0  0
   20.6401   17.6337    2.3529 F   0  0  0  0  0  0
   21.3643   18.8444    4.0030 F   0  0  0  0  0  0
   21.4866   16.7465    4.1416 F   0  0  0  0  0  0
   14.5487   15.9242    4.5704 H   0  0  0  0  0  0
   15.4082   12.2936    2.7155 H   0  0  0  0  0  0
   17.3109   11.4593    3.4413 H   0  0  0  0  0  0
   18.9768   11.6161    2.9169 H   0  0  0  0  0  0
   17.7639   18.3404    7.2249 H   0  0  0  0  0  0
   19.7925   18.9092    5.9898 H   0  0  0  0  0  0
   18.6193   16.2416    2.8710 H   0  0  0  0  0  0
   12.3580   15.2421    5.0504 H   0  0  0  0  0  0
    9.9527   14.5308    4.8373 H   0  0  0  0  0  0
   10.0264   10.9273    2.0973 H   0  0  0  0  0  0
   11.7076   10.6952    1.6534 H   0  0  0  0  0  0
   16.1640   16.8082    7.7522 H   0  0  0  0  0  0
   15.0918   16.4329    6.3984 H   0  0  0  0  0  0
   16.2131   15.2332    7.0097 H   0  0  0  0  0  0
  1  2  1  0  0  0
  1  5  1  0  0  0
  1 27  1  0  0  0
  2  3  2  0  0  0
  2  9  1  0  0  0
  3  4  1  0  0  0
  3  6  1  0  0  0
  4  5  2  0  0  0
  4 28  1  0  0  0
  5 17  1  0  0  0
  6  7  2  0  0  0
  6  8  1  0  0  0
  8 29  1  0  0  0
  8 30  1  0  0  0
  9 10  1  0  0  0
  9 14  2  0  0  0
 10 11  2  0  0  0
 10 22  1  0  0  0
 11 12  1  0  0  0
 11 31  1  0  0  0
 12 13  2  0  0  0
 12 32  1  0  0  0
 13 14  1  0  0  0
 13 23  1  0  0  0
 14 33  1  0  0  0
 15 16  1  0  0  0
 15 20  2  0  0  0
 15 21  1  0  0  0
 16 17  2  0  0  0
 17 18  1  0  0  0
 18 19  2  0  0  0
 18 34  1  0  0  0
 19 20  1  0  0  0
 19 35  1  0  0  0
 21 36  1  0  0  0
 21 37  1  0  0  0
 22 38  1  0  0  0
 22 39  1  0  0  0
 22 40  1  0  0  0
 23 24  1  0  0  0
 23 25  1  0  0  0
 23 26  1  0  0  0
M  END
> <s_m_entry_id>
6379

> <s_m_entry_name>
dock_pv.305

> <s_m_Source_Path>
/home/csk/Desktop/cluster/DUD-E-result/abl1

> <s_m_Source_File>
dock_pv.maegz

> <i_m_Source_File_Index>
305

> <chembl_id>
CHEMBL3330124

> <chembl_pref_name>
None

> <i_lp_mmshare_version>
53161

> <i_f3d_flags>
0

> <r_lp_tautomer_probability>
0.999999987636

> <s_lp_Force_Field>
OPLS_2005

> <r_lp_Energy>
1.247734

> <b_lp_Chiralities_Consistent>
1

> <s_lp_Variant>
CHEMBL1862_lig866-1

> <s_i_glide_gridfile>
glide-grid_2hzi

> <i_i_glide_lignum>
1006

> <i_i_glide_rotatable_bonds>
4

> <r_i_docking_score>
-7.9425354071289

> <r_i_glide_ligand_efficiency>
-0.305482131043419

> <r_i_glide_ligand_efficiency_sa>
-0.904989611201987

> <r_i_glide_ligand_efficiency_ln>
-1.86527837877987

> <r_i_glide_gscore>
-7.9425354071289

> <r_i_glide_lipo>
-3.77175903236227

> <r_i_glide_hbond>
-0.184752768367315

> <r_i_glide_metal>
0

> <r_i_glide_rewards>
-2.90451431925182

> <r_i_glide_evdw>
-26.7204189300537

> <r_i_glide_ecoul>
-0.178186625242233

> <r_i_glide_erotb>
0.293967480022386

> <r_i_glide_esite>
-0.0127278268808541

> <r_i_glide_emodel>
-32.4628057206685

> <r_i_glide_energy>
-26.8986055552959

> <r_i_glide_einternal>
1.98336207866669

> <i_i_glide_confnum>
6

> <i_i_glide_posenum>
329

> <r_i_glide_eff_state_penalty>
0

> <s_user_duplicate_titles>
CHEMBL1862_lig866

> <s_m_subgroup_title>
dock_pv

> <s_m_subgroupid>
dock_pv

> <b_m_subgroup_collapsed>
0

$$$$
CHEMBL1862_lig365
                    3D
 Schrodinger Suite 2021-1.
 36 39  0  0  1  0            999 V2000
   15.0764   13.0618    2.9562 N   0  0  0  0  0  0
   14.7462   13.9727    3.9107 C   0  0  0  0  0  0
   13.4129   14.1145    4.3374 C   0  0  0  0  0  0
   14.1148   12.3447    2.3440 C   0  0  0  0  0  0
   12.7625   12.4902    2.6549 C   0  0  0  0  0  0
   12.4388   13.3770    3.6984 N   0  0  0  0  0  0
   11.0742   13.2328    3.8600 C   0  0  0  0  0  0
   10.6725   12.4048    2.8040 C   0  0  0  0  0  0
   11.6679   11.9102    2.1100 N   0  0  0  0  0  0
   15.8884   14.8246    4.3865 C   0  0  0  0  0  0
   10.2584   13.6594    4.9660 C   0  0  0  0  0  0
   10.5601   13.6330    6.3171 C   0  0  0  0  0  0
    9.3974   13.9771    6.9532 N   0  0  0  0  0  0
    8.3893   14.2177    6.1148 N   0  0  0  0  0  0
    8.9110   14.0344    4.9246 C   0  0  0  0  0  0
   15.7831   15.6331    5.5270 C   0  0  0  0  0  0
   16.8461   16.4428    5.9280 C   0  0  0  0  0  0
   18.0295   16.4712    5.1855 C   0  0  0  0  0  0
   18.1640   15.6416    4.0744 C   0  0  0  0  0  0
   17.1071   14.8356    3.6826 C   0  0  0  0  0  0
   19.1765   17.3819    5.6003 C   0  0  0  0  0  0
   19.8152   18.0330    4.4690 N   0  0  0  0  0  0
   13.0767   14.8002    5.0991 H   0  0  0  0  0  0
   14.4305   11.6427    1.5884 H   0  0  0  0  0  0
    9.6621   12.0626    2.6270 H   0  0  0  0  0  0
   11.4507   13.3687    6.8704 H   0  0  0  0  0  0
    9.2684   14.0072    7.9556 H   0  0  0  0  0  0
    8.3169   14.1220    4.0283 H   0  0  0  0  0  0
   14.8791   15.6411    6.1169 H   0  0  0  0  0  0
   16.7366   17.0636    6.8049 H   0  0  0  0  0  0
   19.0814   15.6318    3.5019 H   0  0  0  0  0  0
   17.2538   14.2268    2.8033 H   0  0  0  0  0  0
   19.9295   16.7631    6.0881 H   0  0  0  0  0  0
   18.8325   18.1363    6.3097 H   0  0  0  0  0  0
   19.1999   18.7373    4.0906 H   0  0  0  0  0  0
   20.6520   18.5126    4.7680 H   0  0  0  0  0  0
  1  2  1  0  0  0
  1  4  2  0  0  0
  2  3  2  0  0  0
  2 10  1  0  0  0
  3  6  1  0  0  0
  3 23  1  0  0  0
  4  5  1  0  0  0
  4 24  1  0  0  0
  5  6  1  0  0  0
  5  9  2  0  0  0
  6  7  1  0  0  0
  7  8  2  0  0  0
  7 11  1  0  0  0
  8  9  1  0  0  0
  8 25  1  0  0  0
 10 16  2  0  0  0
 10 20  1  0  0  0
 11 12  2  0  0  0
 11 15  1  0  0  0
 12 13  1  0  0  0
 12 26  1  0  0  0
 13 14  1  0  0  0
 13 27  1  0  0  0
 14 15  2  0  0  0
 15 28  1  0  0  0
 16 17  1  0  0  0
 16 29  1  0  0  0
 17 18  2  0  0  0
 17 30  1  0  0  0
 18 19  1  0  0  0
 18 21  1  0  0  0
 19 20  2  0  0  0
 19 31  1  0  0  0
 20 32  1  0  0  0
 21 22  1  0  0  0
 21 33  1  0  0  0
 21 34  1  0  0  0
 22 35  1  0  0  0
 22 36  1  0  0  0
M  END
> <s_m_entry_id>
6381

> <s_m_entry_name>
dock_pv.307

> <s_m_Source_Path>
/home/csk/Desktop/cluster/DUD-E-result/abl1

> <s_m_Source_File>
dock_pv.maegz

> <i_m_Source_File_Index>
307

> <chembl_id>
CHEMBL1170747

> <chembl_pref_name>
None

> <i_lp_mmshare_version>
53161

> <i_f3d_flags>
0

> <r_lp_tautomer_probability>
0.5

> <s_lp_Force_Field>
OPLS_2005

> <r_lp_Energy>
11.617369

> <b_lp_Chiralities_Consistent>
1

> <s_lp_Variant>
CHEMBL1862_lig365-1

> <s_i_glide_gridfile>
glide-grid_2hzi

> <i_i_glide_lignum>
448

> <i_i_glide_rotatable_bonds>
3

> <r_i_docking_score>
-7.92833076373138

> <r_i_glide_ligand_efficiency>
-0.360378671078699

> <r_i_glide_ligand_efficiency_sa>
-1.0097952092514

> <r_i_glide_ligand_efficiency_ln>
-1.93797323154715

> <r_i_glide_gscore>
-7.92833076373138

> <r_i_glide_lipo>
-3.59874653195821

> <r_i_glide_hbond>
0

> <r_i_glide_metal>
0

> <r_i_glide_rewards>
-2.80883171817825

> <r_i_glide_evdw>
-35.9467506408691

> <r_i_glide_ecoul>
-1.03880608081818

> <r_i_glide_erotb>
0.432405930571253

> <r_i_glide_esite>
0

> <r_i_glide_emodel>
-41.5001864182016

> <r_i_glide_energy>
-36.9855567216873

> <r_i_glide_einternal>
0.704507172107697

> <i_i_glide_confnum>
10

> <i_i_glide_posenum>
3

> <r_i_glide_eff_state_penalty>
0

> <s_user_duplicate_titles>
CHEMBL1862_lig365,647487

> <s_m_subgroup_title>
dock_pv

> <s_m_subgroupid>
dock_pv

> <b_m_subgroup_collapsed>
0

$$$$
CHEMBL1862_lig73
                    3D
 Schrodinger Suite 2021-1.
 44 46  0  0  1  0            999 V2000
    9.5430   13.4694    3.6895 C   0  0  0  0  0  0
    9.3637   12.3425    2.8894 C   0  0  0  0  0  0
   10.4706   11.6489    2.4031 C   0  0  0  0  0  0
   11.7569   12.0917    2.7109 C   0  0  0  0  0  0
   11.9552   13.2339    3.5042 C   0  0  0  0  0  0
   10.8285   13.9064    4.0023 C   0  0  0  0  0  0
   13.3492   13.7303    3.7371 C   0  0  0  0  0  0
   13.6906   15.0606    4.8030 S   0  0  0  0  0  0
   15.4038   14.9890    4.5228 C   0  0  0  0  0  0
   15.6623   14.0423    3.5328 C   0  0  0  0  0  0
   14.5283   13.3083    3.1486 C   0  0  0  0  0  0
    8.4728   14.1523    4.1528 F   0  0  0  0  0  0
   16.3155   15.8719    5.2404 C   0  0  0  0  0  0
   15.9185   16.7990    5.9371 O   0  0  0  0  0  0
   17.6276   15.6017    5.0959 N   0  0  0  0  0  0
   18.6990   16.3293    5.7816 C   0  0  2  0  0  0
   19.0299   17.7364    5.2058 C   0  0  0  0  0  0
   19.4584   17.6329    3.8124 N   0  0  1  0  0  0
   20.7573   16.9617    3.7680 C   0  0  0  0  0  0
   20.6789   15.5515    4.4031 C   0  0  0  0  0  0
   20.0282   15.5484    5.7970 C   0  0  0  0  0  0
   16.9032   13.8886    2.9774 N   0  0  0  0  0  0
   17.4956   12.7105    2.8473 C   0  0  0  0  0  0
   18.8024   12.8330    2.8030 N   0  0  0  0  0  0
   16.9304   11.6330    2.8029 O   0  0  0  0  0  0
    8.3689   11.9961    2.6548 H   0  0  0  0  0  0
   10.3337   10.7662    1.7936 H   0  0  0  0  0  0
   12.5939   11.5403    2.3103 H   0  0  0  0  0  0
   10.9310   14.7906    4.6123 H   0  0  0  0  0  0
   14.5649   12.5235    2.4074 H   0  0  0  0  0  0
   17.8315   14.6284    4.9258 H   0  0  0  0  0  0
   18.3678   16.4328    6.8091 H   0  0  0  0  0  0
   19.8134   18.2257    5.7881 H   0  0  0  0  0  0
   18.1639   18.3872    5.2336 H   0  0  0  0  0  0
   18.7897   17.0337    3.3496 H   0  0  0  0  0  0
   21.0523   16.8803    2.7216 H   0  0  0  0  0  0
   21.5114   17.5739    4.2665 H   0  0  0  0  0  0
   20.1621   14.8843    3.7196 H   0  0  0  0  0  0
   21.6822   15.1338    4.4875 H   0  0  0  0  0  0
   19.8735   14.5252    6.1434 H   0  0  0  0  0  0
   20.7135   16.0043    6.5139 H   0  0  0  0  0  0
   17.4691   14.7187    2.9030 H   0  0  0  0  0  0
   19.3034   12.0684    2.3537 H   0  0  0  0  0  0
   19.2572   13.7286    2.8758 H   0  0  0  0  0  0
  1 12  1  0  0  0
  1  6  1  0  0  0
  1  2  2  0  0  0
  2  3  1  0  0  0
  2 26  1  0  0  0
  3  4  2  0  0  0
  3 27  1  0  0  0
  4  5  1  0  0  0
  4 28  1  0  0  0
  5  7  1  0  0  0
  5  6  2  0  0  0
  6 29  1  0  0  0
  7  8  1  0  0  0
  7 11  2  0  0  0
  8  9  1  0  0  0
  9 13  1  0  0  0
  9 10  2  0  0  0
 10 11  1  0  0  0
 10 22  1  0  0  0
 11 30  1  0  0  0
 13 14  2  0  0  0
 13 15  1  0  0  0
 15 16  1  0  0  0
 15 31  1  0  0  0
 16 17  1  0  0  0
 16 21  1  0  0  0
 16 32  1  0  0  0
 17 18  1  0  0  0
 17 33  1  0  0  0
 17 34  1  0  0  0
 18 19  1  0  0  0
 18 35  1  0  0  0
 19 20  1  0  0  0
 19 36  1  0  0  0
 19 37  1  0  0  0
 20 21  1  0  0  0
 20 38  1  0  0  0
 20 39  1  0  0  0
 21 40  1  0  0  0
 21 41  1  0  0  0
 22 23  1  0  0  0
 22 42  1  0  0  0
 23 24  1  0  0  0
 23 25  2  0  0  0
 24 43  1  0  0  0
 24 44  1  0  0  0
M  END
> <s_m_entry_id>
6382

> <s_m_entry_name>
dock_pv.308

> <s_m_Source_Path>
/home/csk/Desktop/cluster/DUD-E-result/abl1

> <s_m_Source_File>
dock_pv.maegz

> <i_m_Source_File_Index>
308

> <chembl_id>
CHEMBL2041933

> <chembl_pref_name>
AZD-7762

> <i_lp_mmshare_version>
53161

> <i_f3d_flags>
0

> <r_lp_tautomer_probability>
1

> <s_lp_Force_Field>
OPLS_2005

> <r_lp_Energy>
20.921295

> <b_lp_Chiralities_Consistent>
1

> <s_lp_Variant>
CHEMBL1862_lig73-1

> <s_i_glide_gridfile>
glide-grid_2hzi

> <i_i_glide_lignum>
91

> <i_i_glide_rotatable_bonds>
6

> <r_i_docking_score>
-7.92164453757329

> <r_i_glide_ligand_efficiency>
-0.316865781502932

> <r_i_glide_ligand_efficiency_sa>
-0.926521164753136

> <r_i_glide_ligand_efficiency_ln>
-1.87766714793526

> <r_i_glide_gscore>
-7.92164453757329

> <r_i_glide_lipo>
-3.34229789185531

> <r_i_glide_hbond>
-0.567039894650427

> <r_i_glide_metal>
0

> <r_i_glide_rewards>
-1.97282527023855

> <r_i_glide_evdw>
-32.5993041992188

> <r_i_glide_ecoul>
-7.60303831100464

> <r_i_glide_erotb>
0.730939475782626

> <r_i_glide_esite>
0

> <r_i_glide_emodel>
-46.5735562740995

> <r_i_glide_energy>
-40.2023425102234

> <r_i_glide_einternal>
6.46365785598755

> <i_i_glide_confnum>
134

> <i_i_glide_posenum>
67

> <r_i_glide_eff_state_penalty>
0

> <s_user_duplicate_titles>
CHEMBL1862_lig73

> <s_m_subgroup_title>
dock_pv

> <s_m_subgroupid>
dock_pv

> <b_m_subgroup_collapsed>
0

$$$$
CHEMBL1862_lig631
                    3D
 Schrodinger Suite 2021-1.
 50 53  0  0  1  0            999 V2000
   10.4227   13.5197    3.6060 C   0  0  0  0  0  0
    9.9261   12.4541    2.8615 C   0  0  0  0  0  0
   10.7974   11.6330    2.1589 C   0  0  0  0  0  0
   12.1666   11.8678    2.2328 C   0  0  0  0  0  0
   12.7120   12.8937    3.0219 C   0  0  0  0  0  0
   11.7981   13.7434    3.6729 C   0  0  0  0  0  0
   14.2296   13.0814    3.0589 C   0  0  0  0  0  0
   14.9016   14.1119    3.9348 C   0  0  0  0  0  0
   14.9420   12.4330    2.2857 O   0  0  0  0  0  0
   14.3752   14.3605    5.2029 C   0  0  0  0  0  0
   14.9640   15.2330    6.0992 C   0  0  0  0  0  0
   16.1012   14.7531    3.5354 C   0  0  0  0  0  0
   16.6657   15.6830    4.4337 C   0  0  0  0  0  0
   16.1005   15.9110    5.7083 C   0  0  0  0  0  0
   16.7798   16.8291    6.4406 N   0  0  0  0  0  0
   17.6938   17.2621    5.6459 C   0  0  0  0  0  0
   17.6982   16.6460    4.4028 N   0  0  0  0  0  0
   18.4987   18.3109    6.0030 N   0  0  0  0  0  0
   18.5710   17.0044    3.2720 C   0  0  0  0  0  0
   19.9058   16.2418    3.2849 C   0  0  0  0  0  0
   20.4274   16.0492    4.7127 C   0  0  0  0  0  0
   19.6975   14.8818    5.3898 C   0  0  0  0  0  0
   19.9512   14.7997    6.8575 C   0  0  0  0  0  0
   21.3640   14.8329    7.1370 N   0  0  2  0  0  0
   22.1636   15.8485    6.4376 C   0  0  0  0  0  0
   21.8981   15.7623    4.9241 C   0  0  0  0  0  0
    9.7426   14.1764    4.1282 H   0  0  0  0  0  0
    8.8621   12.2731    2.8138 H   0  0  0  0  0  0
   10.4174   10.8165    1.5603 H   0  0  0  0  0  0
   12.8086   11.2330    1.6439 H   0  0  0  0  0  0
   12.1115   14.6188    4.2168 H   0  0  0  0  0  0
   13.5206   13.8107    5.5679 H   0  0  0  0  0  0
   14.5641   15.3728    7.0916 H   0  0  0  0  0  0
   16.5322   14.5775    2.5602 H   0  0  0  0  0  0
   18.3875   18.7442    6.9078 H   0  0  0  0  0  0
   19.2306   18.6534    5.4014 H   0  0  0  0  0  0
   18.0513   16.8315    2.3388 H   0  0  0  0  0  0
   18.7589   18.0771    3.3187 H   0  0  0  0  0  0
   19.7637   15.2746    2.8032 H   0  0  0  0  0  0
   20.6357   16.7770    2.6757 H   0  0  0  0  0  0
   20.3059   16.9806    5.2446 H   0  0  0  0  0  0
   18.6377   14.8451    5.4260 H   0  0  0  0  0  0
   19.7500   14.0330    4.7736 H   0  0  0  0  0  0
   19.4623   15.6320    7.3663 H   0  0  0  0  0  0
   19.5338   13.8563    7.2030 H   0  0  0  0  0  0
   21.7380   13.9533    6.8030 H   0  0  0  0  0  0
   21.8862   16.8296    6.8264 H   0  0  0  0  0  0
   23.2247   15.7242    6.6431 H   0  0  0  0  0  0
   22.1640   14.7897    4.5097 H   0  0  0  0  0  0
   22.4998   16.5084    4.4039 H   0  0  0  0  0  0
  1  6  1  0  0  0
  1  2  2  0  0  0
  1 27  1  0  0  0
  2  3  1  0  0  0
  2 28  1  0  0  0
  3  4  2  0  0  0
  3 29  1  0  0  0
  4  5  1  0  0  0
  4 30  1  0  0  0
  5  7  1  0  0  0
  5  6  2  0  0  0
  6 31  1  0  0  0
  7  8  1  0  0  0
  7  9  2  0  0  0
  8 12  1  0  0  0
  8 10  2  0  0  0
 10 11  1  0  0  0
 10 32  1  0  0  0
 11 14  2  0  0  0
 11 33  1  0  0  0
 12 13  2  0  0  0
 12 34  1  0  0  0
 13 14  1  0  0  0
 13 17  1  0  0  0
 14 15  1  0  0  0
 15 16  2  0  0  0
 16 17  1  0  0  0
 16 18  1  0  0  0
 17 19  1  0  0  0
 18 35  1  0  0  0
 18 36  1  0  0  0
 19 20  1  0  0  0
 19 37  1  0  0  0
 19 38  1  0  0  0
 20 21  1  0  0  0
 20 39  1  0  0  0
 20 40  1  0  0  0
 21 22  1  0  0  0
 21 26  1  0  0  0
 21 41  1  0  0  0
 22 23  1  0  0  0
 22 42  1  0  0  0
 22 43  1  0  0  0
 23 24  1  0  0  0
 23 44  1  0  0  0
 23 45  1  0  0  0
 24 25  1  0  0  0
 24 46  1  0  0  0
 25 26  1  0  0  0
 25 47  1  0  0  0
 25 48  1  0  0  0
 26 49  1  0  0  0
 26 50  1  0  0  0
M  END
> <s_m_entry_id>
6384

> <s_m_entry_name>
dock_pv.310

> <s_m_Source_Path>
/home/csk/Desktop/cluster/DUD-E-result/abl1

> <s_m_Source_File>
dock_pv.maegz

> <i_m_Source_File_Index>
310

> <chembl_id>
CHEMBL2059176

> <chembl_pref_name>
None

> <i_lp_mmshare_version>
53161

> <i_f3d_flags>
0

> <r_lp_tautomer_probability>
1

> <s_lp_Force_Field>
OPLS_2005

> <r_lp_Energy>
34.36724

> <b_lp_Chiralities_Consistent>
1

> <s_lp_Variant>
CHEMBL1862_lig631-1

> <s_i_glide_gridfile>
glide-grid_2hzi

> <i_i_glide_lignum>
739

> <i_i_glide_rotatable_bonds>
5

> <r_i_docking_score>
-7.90326810272096

> <r_i_glide_ligand_efficiency>
-0.303971850104652

> <r_i_glide_ligand_efficiency_sa>
-0.900515409863558

> <r_i_glide_ligand_efficiency_ln>
-1.8560565811862

> <r_i_glide_gscore>
-7.90326810272096

> <r_i_glide_lipo>
-3.65593190122695

> <r_i_glide_hbond>
-0.340003718806399

> <r_i_glide_metal>
0

> <r_i_glide_rewards>
-3.10356657741822

> <r_i_glide_evdw>
-10.0996952056885

> <r_i_glide_ecoul>
-7.21835374832153

> <r_i_glide_erotb>
0.78397191726327

> <r_i_glide_esite>
0

> <r_i_glide_emodel>
-16.7641741161261

> <r_i_glide_energy>
-17.31804895401

> <r_i_glide_einternal>
18.0202827453613

> <i_i_glide_confnum>
289

> <i_i_glide_posenum>
49

> <r_i_glide_eff_state_penalty>
0

> <s_user_duplicate_titles>
CHEMBL1862_lig631

> <s_m_subgroup_title>
dock_pv

> <s_m_subgroupid>
dock_pv

> <b_m_subgroup_collapsed>
0

$$$$
CHEMBL1862_lig762
                    3D
 Schrodinger Suite 2021-1.
 38 40  0  0  1  0            999 V2000
   14.4497   13.4219    3.5602 C   0  0  0  0  0  0
   15.2214   12.4015    2.9741 C   0  0  0  0  0  0
   16.6054   12.5002    2.8039 C   0  0  0  0  0  0
   15.0860   14.5954    4.0075 C   0  0  0  0  0  0
   16.4716   14.6809    3.8641 C   0  0  0  0  0  0
   17.2369   13.6576    3.2609 C   0  0  0  0  0  0
   18.5641   13.9907    3.2251 N   0  0  0  0  0  0
   18.6344   15.1697    3.7907 C   0  0  0  0  0  0
   17.4034   15.6330    4.2034 N   0  0  0  0  0  0
   19.8210   15.8747    3.9037 N   0  0  0  0  0  0
   20.0053   17.0394    4.5585 C   0  0  0  0  0  0
   21.2820   17.4455    4.4726 N   0  0  0  0  0  0
   19.1312   17.6550    5.1759 O   0  0  0  0  0  0
   21.8995   18.5114    5.2653 C   0  0  0  0  0  0
   23.1487   18.0187    6.0067 C   0  0  0  0  0  0
   12.9559   13.2878    3.6721 C   0  0  0  0  0  0
   12.2261   12.4596    2.7993 C   0  0  0  0  0  0
   10.8264   12.4331    2.8136 C   0  0  0  0  0  0
   10.1353   13.2149    3.7429 C   0  0  0  0  0  0
   10.8379   13.9927    4.6584 C   0  0  0  0  0  0
   12.2301   14.0283    4.6211 C   0  0  0  0  0  0
   10.0894   11.6329    1.8476 C   0  0  0  0  0  0
    9.4974   11.0052    1.0783 N   0  0  0  0  0  0
   14.7454   11.4901    2.6420 H   0  0  0  0  0  0
   17.1855   11.7058    2.3599 H   0  0  0  0  0  0
   14.5390   15.4128    4.4473 H   0  0  0  0  0  0
   17.2907   16.5282    4.6617 H   0  0  0  0  0  0
   20.6145   15.4450    3.4511 H   0  0  0  0  0  0
   21.8601   17.0423    3.7520 H   0  0  0  0  0  0
   22.1638   19.3328    4.5966 H   0  0  0  0  0  0
   21.2015   18.9322    5.9931 H   0  0  0  0  0  0
   23.6140   18.8321    6.5634 H   0  0  0  0  0  0
   22.9084   17.2308    6.7225 H   0  0  0  0  0  0
   23.8971   17.6355    5.3145 H   0  0  0  0  0  0
   12.7420   11.8779    2.0482 H   0  0  0  0  0  0
    9.0537   13.2090    3.7742 H   0  0  0  0  0  0
   10.3019   14.5739    5.3936 H   0  0  0  0  0  0
   12.7383   14.6475    5.3447 H   0  0  0  0  0  0
  1  2  2  0  0  0
  1  4  1  0  0  0
  1 16  1  0  0  0
  2  3  1  0  0  0
  2 24  1  0  0  0
  3  6  2  0  0  0
  3 25  1  0  0  0
  4  5  2  0  0  0
  4 26  1  0  0  0
  5  6  1  0  0  0
  5  9  1  0  0  0
  6  7  1  0  0  0
  7  8  2  0  0  0
  8  9  1  0  0  0
  8 10  1  0  0  0
  9 27  1  0  0  0
 10 11  1  0  0  0
 10 28  1  0  0  0
 11 12  1  0  0  0
 11 13  2  0  0  0
 12 14  1  0  0  0
 12 29  1  0  0  0
 14 15  1  0  0  0
 14 30  1  0  0  0
 14 31  1  0  0  0
 15 32  1  0  0  0
 15 33  1  0  0  0
 15 34  1  0  0  0
 16 17  2  0  0  0
 16 21  1  0  0  0
 17 18  1  0  0  0
 17 35  1  0  0  0
 18 19  2  0  0  0
 18 22  1  0  0  0
 19 20  1  0  0  0
 19 36  1  0  0  0
 20 21  2  0  0  0
 20 37  1  0  0  0
 21 38  1  0  0  0
 22 23  3  0  0  0
M  END
> <s_m_entry_id>
6386

> <s_m_entry_name>
dock_pv.312

> <s_m_Source_Path>
/home/csk/Desktop/cluster/DUD-E-result/abl1

> <s_m_Source_File>
dock_pv.maegz

> <i_m_Source_File_Index>
312

> <chembl_id>
CHEMBL2347735

> <chembl_pref_name>
None

> <i_lp_mmshare_version>
53161

> <i_f3d_flags>
0

> <r_lp_tautomer_probability>
1

> <s_lp_Force_Field>
OPLS_2005

> <r_lp_Energy>
14.249259

> <b_lp_Chiralities_Consistent>
1

> <s_lp_Variant>
CHEMBL1862_lig762-1

> <s_i_glide_gridfile>
glide-grid_2hzi

> <i_i_glide_lignum>
895

> <i_i_glide_rotatable_bonds>
5

> <r_i_docking_score>
-7.86295629562248

> <r_i_glide_ligand_efficiency>
-0.341867665027064

> <r_i_glide_ligand_efficiency_sa>
-0.972226163033287

> <r_i_glide_ligand_efficiency_ln>
-1.90133412962732

> <r_i_glide_gscore>
-7.86295629562248

> <r_i_glide_lipo>
-3.70519890896019

> <r_i_glide_hbond>
-0.0475175569128049

> <r_i_glide_metal>
0

> <r_i_glide_rewards>
-2.46735901623736

> <r_i_glide_evdw>
-47.0565071105957

> <r_i_glide_ecoul>
-0.54597806930542

> <r_i_glide_erotb>
0.791841252413486

> <r_i_glide_esite>
0

> <r_i_glide_emodel>
-68.4271032320154

> <r_i_glide_energy>
-47.6024851799011

> <r_i_glide_einternal>
2.34586381912231

> <i_i_glide_confnum>
16

> <i_i_glide_posenum>
390

> <r_i_glide_eff_state_penalty>
0

> <s_user_duplicate_titles>
CHEMBL1862_lig762

> <s_m_subgroup_title>
dock_pv

> <s_m_subgroupid>
dock_pv

> <b_m_subgroup_collapsed>
0

$$$$
CHEMBL1862_lig429
                    3D
 Schrodinger Suite 2021-1.
 35 38  0  0  1  0            999 V2000
   17.1849   12.0330    2.4853 N   0  0  0  0  0  0
   18.1838   12.8266    2.9328 C   0  0  0  0  0  0
   18.0783   13.9927    3.6031 N   0  0  0  0  0  0
   15.9334   12.4330    2.7883 C   0  0  0  0  0  0
   15.6705   13.5855    3.5277 C   0  0  0  0  0  0
   16.8122   14.3190    3.8811 C   0  0  0  0  0  0
   16.3594   15.3802    4.6194 N   0  0  0  0  0  0
   15.0123   15.3303    4.7740 N   0  0  0  0  0  0
   14.5609   14.2670    4.1269 C   0  0  0  0  0  0
   13.1071   13.8601    4.1462 C   0  0  0  0  0  0
   12.4432   13.2073    3.1001 C   0  0  0  0  0  0
   11.0989   12.8330    3.2030 C   0  0  0  0  0  0
   10.3584   13.2330    4.3177 C   0  0  0  0  0  0
   11.0160   13.8112    5.3980 C   0  0  0  0  0  0
   12.3880   14.0566    5.3202 C   0  0  0  0  0  0
   14.8923   11.6330    2.4030 N   0  0  0  0  0  0
    9.0357   12.9588    4.4015 F   0  0  0  0  0  0
   10.5298   12.0400    2.2352 O   0  0  0  0  0  0
   17.1820   16.4073    5.2468 C   0  0  0  0  0  0
   18.3213   15.9410    6.1385 C   0  0  0  0  0  0
   19.1737   16.9988    5.6030 N   0  0  2  0  0  0
   18.3035   17.0637    4.4374 C   0  0  0  0  0  0
   19.1902   12.4711    2.8030 H   0  0  0  0  0  0
   12.9396   12.9984    2.1693 H   0  0  0  0  0  0
   10.4713   14.0321    6.3044 H   0  0  0  0  0  0
   12.9265   14.4330    6.1705 H   0  0  0  0  0  0
   13.9840   11.8748    2.7670 H   0  0  0  0  0  0
   14.9640   10.7480    1.9194 H   0  0  0  0  0  0
    9.6418   11.7524    2.4672 H   0  0  0  0  0  0
   16.5232   17.1307    5.7328 H   0  0  0  0  0  0
   18.1646   16.0616    7.2030 H   0  0  0  0  0  0
   18.7036   14.9466    5.8999 H   0  0  0  0  0  0
   20.1484   16.7780    5.4402 H   0  0  0  0  0  0
   18.6807   16.4565    3.6125 H   0  0  0  0  0  0
   18.1640   18.0962    4.1339 H   0  0  0  0  0  0
  1  2  2  0  0  0
  1  4  1  0  0  0
  2  3  1  0  0  0
  2 23  1  0  0  0
  3  6  2  0  0  0
  4  5  2  0  0  0
  4 16  1  0  0  0
  5  9  1  0  0  0
  5  6  1  0  0  0
  6  7  1  0  0  0
  7  8  1  0  0  0
  7 19  1  0  0  0
  8  9  2  0  0  0
  9 10  1  0  0  0
 10 11  2  0  0  0
 10 15  1  0  0  0
 11 12  1  0  0  0
 11 24  1  0  0  0
 12 13  2  0  0  0
 12 18  1  0  0  0
 13 14  1  0  0  0
 13 17  1  0  0  0
 14 15  2  0  0  0
 14 25  1  0  0  0
 15 26  1  0  0  0
 16 27  1  0  0  0
 16 28  1  0  0  0
 18 29  1  0  0  0
 19 20  1  0  0  0
 19 22  1  0  0  0
 19 30  1  0  0  0
 20 21  1  0  0  0
 20 31  1  0  0  0
 20 32  1  0  0  0
 21 22  1  0  0  0
 21 33  1  0  0  0
 22 34  1  0  0  0
 22 35  1  0  0  0
M  END
> <s_m_entry_id>
6387

> <s_m_entry_name>
dock_pv.313

> <s_m_Source_Path>
/home/csk/Desktop/cluster/DUD-E-result/abl1

> <s_m_Source_File>
dock_pv.maegz

> <i_m_Source_File_Index>
313

> <chembl_id>
CHEMBL1242567

> <chembl_pref_name>
None

> <i_lp_mmshare_version>
53161

> <i_f3d_flags>
0

> <r_lp_tautomer_probability>
0.999999999997365

> <s_lp_Force_Field>
OPLS_2005

> <r_lp_Energy>
19.49451

> <b_lp_Chiralities_Consistent>
1

> <s_lp_Variant>
CHEMBL1862_lig429-1

> <s_i_glide_gridfile>
glide-grid_2hzi

> <i_i_glide_lignum>
514

> <i_i_glide_rotatable_bonds>
3

> <r_i_docking_score>
-7.85841597803028

> <r_i_glide_ligand_efficiency>
-0.357200726274104

> <r_i_glide_ligand_efficiency_sa>
-1.00089048292744

> <r_i_glide_ligand_efficiency_ln>
-1.92088350771803

> <r_i_glide_gscore>
-7.85841597803028

> <r_i_glide_lipo>
-2.9952041930236

> <r_i_glide_hbond>
-0.458448920197891

> <r_i_glide_metal>
0

> <r_i_glide_rewards>
-2.97263646746313

> <r_i_glide_evdw>
-21.2743644714355

> <r_i_glide_ecoul>
-4.04492378234863

> <r_i_glide_erotb>
0.285348714211388

> <r_i_glide_esite>
-0.0470183206329798

> <r_i_glide_emodel>
-28.4382169069856

> <r_i_glide_energy>
-25.3192882537842

> <r_i_glide_einternal>
2.89542436599731

> <i_i_glide_confnum>
15

> <i_i_glide_posenum>
285

> <r_i_glide_eff_state_penalty>
0

> <s_user_duplicate_titles>
CHEMBL1862_lig429

> <s_m_subgroup_title>
dock_pv

> <s_m_subgroupid>
dock_pv

> <b_m_subgroup_collapsed>
0

$$$$
CHEMBL1862_lig863
                    3D
 Schrodinger Suite 2021-1.
 40 42  0  0  1  0            999 V2000
   15.0021   14.9248    4.4192 N   0  0  0  0  0  0
   16.3613   14.8741    4.1683 C   0  0  0  0  0  0
   16.5745   13.6332    3.5585 C   0  0  0  0  0  0
   15.3041   13.0649    3.3221 C   0  0  0  0  0  0
   14.3361   13.8199    3.9476 C   0  0  0  0  0  0
   17.8382   13.0433    3.2030 C   0  0  0  0  0  0
   18.9074   13.6327    3.2030 O   0  0  0  0  0  0
   17.7643   11.7908    2.8022 N   0  0  0  0  0  0
   17.3282   15.9739    4.5443 C   0  0  0  0  0  0
   17.2569   16.6858    5.7519 C   0  0  0  0  0  0
   18.1640   17.7188    6.0030 C   0  0  0  0  0  0
   19.1882   18.0141    5.1062 C   0  0  0  0  0  0
   19.2706   17.3134    3.9099 C   0  0  0  0  0  0
   18.3233   16.3389    3.6240 C   0  0  0  0  0  0
   10.9424   13.6330    5.3631 C   0  0  0  0  0  0
   12.2756   13.8935    5.2595 N   0  0  0  0  0  0
   12.8776   13.5498    4.0876 C   0  0  0  0  0  0
   12.1692   12.9368    3.0520 C   0  0  0  0  0  0
   10.7850   12.8342    3.2030 C   0  0  0  0  0  0
   10.1499   13.2326    4.3332 N   0  0  0  0  0  0
   10.4057   13.6355    6.6601 N   0  0  0  0  0  0
   16.2120   16.3742    6.8031 C   0  0  0  0  0  0
   20.5330   17.6342    2.7777 Cl  0  0  0  0  0  0
    8.9708   13.4831    6.8887 C   0  0  0  0  0  0
   14.5473   15.6881    4.8982 H   0  0  0  0  0  0
   15.1066   12.1269    2.8227 H   0  0  0  0  0  0
   16.9992   11.2126    3.1041 H   0  0  0  0  0  0
   18.5763   11.3934    2.3398 H   0  0  0  0  0  0
   18.0914   18.2997    6.9092 H   0  0  0  0  0  0
   19.9064   18.7869    5.3349 H   0  0  0  0  0  0
   18.3914   15.8555    2.6666 H   0  0  0  0  0  0
   12.6536   12.6229    2.1385 H   0  0  0  0  0  0
   10.1665   12.4266    2.4158 H   0  0  0  0  0  0
   10.9940   13.9626    7.4164 H   0  0  0  0  0  0
   15.2115   16.4312    6.3906 H   0  0  0  0  0  0
   16.3506   15.3781    7.2207 H   0  0  0  0  0  0
   16.2466   17.1018    7.6029 H   0  0  0  0  0  0
    8.7425   13.4273    7.9526 H   0  0  0  0  0  0
    8.4312   14.3350    6.4747 H   0  0  0  0  0  0
    8.5871   12.5739    6.4233 H   0  0  0  0  0  0
  1  2  1  0  0  0
  1  5  1  0  0  0
  1 25  1  0  0  0
  2  3  2  0  0  0
  2  9  1  0  0  0
  3  4  1  0  0  0
  3  6  1  0  0  0
  4  5  2  0  0  0
  4 26  1  0  0  0
  5 17  1  0  0  0
  6  7  2  0  0  0
  6  8  1  0  0  0
  8 27  1  0  0  0
  8 28  1  0  0  0
  9 10  1  0  0  0
  9 14  2  0  0  0
 10 11  2  0  0  0
 10 22  1  0  0  0
 11 12  1  0  0  0
 11 29  1  0  0  0
 12 13  2  0  0  0
 12 30  1  0  0  0
 13 14  1  0  0  0
 13 23  1  0  0  0
 14 31  1  0  0  0
 15 16  1  0  0  0
 15 20  2  0  0  0
 15 21  1  0  0  0
 16 17  2  0  0  0
 17 18  1  0  0  0
 18 19  2  0  0  0
 18 32  1  0  0  0
 19 20  1  0  0  0
 19 33  1  0  0  0
 21 24  1  0  0  0
 21 34  1  0  0  0
 22 35  1  0  0  0
 22 36  1  0  0  0
 22 37  1  0  0  0
 24 38  1  0  0  0
 24 39  1  0  0  0
 24 40  1  0  0  0
M  END
> <s_m_entry_id>
6388

> <s_m_entry_name>
dock_pv.314

> <s_m_Source_Path>
/home/csk/Desktop/cluster/DUD-E-result/abl1

> <s_m_Source_File>
dock_pv.maegz

> <i_m_Source_File_Index>
314

> <chembl_id>
CHEMBL3330118

> <chembl_pref_name>
None

> <i_lp_mmshare_version>
53161

> <i_f3d_flags>
0

> <r_lp_tautomer_probability>
0.999999987636

> <s_lp_Force_Field>
OPLS_2005

> <r_lp_Energy>
-0.722886

> <b_lp_Chiralities_Consistent>
1

> <s_lp_Variant>
CHEMBL1862_lig863-1

> <s_i_glide_gridfile>
glide-grid_2hzi

> <i_i_glide_lignum>
1003

> <i_i_glide_rotatable_bonds>
4

> <r_i_docking_score>
-7.84835507206537

> <r_i_glide_ligand_efficiency>
-0.32701479466939

> <r_i_glide_ligand_efficiency_sa>
-0.943273893192929

> <r_i_glide_ligand_efficiency_ln>
-1.87847150629262

> <r_i_glide_gscore>
-7.84835507206537

> <r_i_glide_lipo>
-3.59694107021124

> <r_i_glide_hbond>
-0.441263538012899

> <r_i_glide_metal>
0

> <r_i_glide_rewards>
-2.37632967194622

> <r_i_glide_evdw>
-29.5811519622803

> <r_i_glide_ecoul>
-1.8617342710495

> <r_i_glide_erotb>
0.324496946876425

> <r_i_glide_esite>
0

> <r_i_glide_emodel>
-36.2213872912114

> <r_i_glide_energy>
-31.4428862333298

> <r_i_glide_einternal>
4.60103416442871

> <i_i_glide_confnum>
2

> <i_i_glide_posenum>
358

> <r_i_glide_eff_state_penalty>
0

> <s_user_duplicate_titles>
CHEMBL1862_lig863

> <s_m_subgroup_title>
dock_pv

> <s_m_subgroupid>
dock_pv

> <b_m_subgroup_collapsed>
0

$$$$
CHEMBL1862_lig734
                    3D
 Schrodinger Suite 2021-1.
 35 37  0  0  1  0            999 V2000
   14.1260   13.4131    3.6020 C   0  0  0  0  0  0
   14.8903   12.5446    2.7991 C   0  0  0  0  0  0
   16.2696   12.6758    2.6468 C   0  0  0  0  0  0
   14.8004   14.4339    4.3049 C   0  0  0  0  0  0
   16.1928   14.5441    4.1911 C   0  0  0  0  0  0
   16.9295   13.6793    3.3514 C   0  0  0  0  0  0
   18.2699   13.8940    3.3101 N   0  0  0  0  0  0
   18.6171   14.8343    4.1364 C   0  0  0  0  0  0
   17.3099   15.6380    4.9981 S   0  0  0  0  0  0
   19.9353   15.2331    4.2503 N   0  0  0  0  0  0
   20.5568   15.5053    5.4125 C   0  0  0  0  0  0
   21.7360   16.1139    5.2102 N   0  0  0  0  0  0
   20.1020   15.2482    6.5292 O   0  0  0  0  0  0
   22.5536   16.7185    6.2621 C   0  0  0  0  0  0
   23.1240   18.0803    5.8469 C   0  0  0  0  0  0
   12.6234   13.2831    3.6707 C   0  0  0  0  0  0
   11.9046   12.4331    2.8026 C   0  0  0  0  0  0
   10.5085   12.4199    2.8314 C   0  0  0  0  0  0
    9.7838   13.1725    3.6932 N   0  0  0  0  0  0
   10.4653   13.9537    4.5647 C   0  0  0  0  0  0
   11.8583   14.0321    4.5831 C   0  0  0  0  0  0
   14.4233   11.7408    2.2510 H   0  0  0  0  0  0
   16.8351   12.0282    2.0021 H   0  0  0  0  0  0
   14.2799   15.1323    4.9403 H   0  0  0  0  0  0
   20.4491   15.3117    3.3848 H   0  0  0  0  0  0
   22.1412   16.0866    4.2904 H   0  0  0  0  0  0
   23.3639   16.0333    6.5051 H   0  0  0  0  0  0
   21.9847   16.8385    7.1857 H   0  0  0  0  0  0
   23.7336   18.5001    6.6465 H   0  0  0  0  0  0
   22.3306   18.7994    5.6328 H   0  0  0  0  0  0
   23.7624   17.9973    4.9662 H   0  0  0  0  0  0
   12.3889   11.8063    2.0713 H   0  0  0  0  0  0
    9.9495   11.7825    2.1609 H   0  0  0  0  0  0
    9.8702   14.5274    5.2610 H   0  0  0  0  0  0
   12.3126   14.6879    5.3075 H   0  0  0  0  0  0
  1  2  2  0  0  0
  1  4  1  0  0  0
  1 16  1  0  0  0
  2  3  1  0  0  0
  2 22  1  0  0  0
  3  6  2  0  0  0
  3 23  1  0  0  0
  4  5  2  0  0  0
  4 24  1  0  0  0
  5  6  1  0  0  0
  5  9  1  0  0  0
  6  7  1  0  0  0
  7  8  2  0  0  0
  8  9  1  0  0  0
  8 10  1  0  0  0
 10 11  1  0  0  0
 10 25  1  0  0  0
 11 12  1  0  0  0
 11 13  2  0  0  0
 12 14  1  0  0  0
 12 26  1  0  0  0
 14 15  1  0  0  0
 14 27  1  0  0  0
 14 28  1  0  0  0
 15 29  1  0  0  0
 15 30  1  0  0  0
 15 31  1  0  0  0
 16 17  2  0  0  0
 16 21  1  0  0  0
 17 18  1  0  0  0
 17 32  1  0  0  0
 18 19  2  0  0  0
 18 33  1  0  0  0
 19 20  1  0  0  0
 20 21  2  0  0  0
 20 34  1  0  0  0
 21 35  1  0  0  0
M  END
> <s_m_entry_id>
6389

> <s_m_entry_name>
dock_pv.315

> <s_m_Source_Path>
/home/csk/Desktop/cluster/DUD-E-result/abl1

> <s_m_Source_File>
dock_pv.maegz

> <i_m_Source_File_Index>
315

> <chembl_id>
CHEMBL2347717

> <chembl_pref_name>
None

> <i_lp_mmshare_version>
53161

> <i_f3d_flags>
0

> <r_lp_tautomer_probability>
1

> <s_lp_Force_Field>
OPLS_2005

> <r_lp_Energy>
12.145935

> <b_lp_Chiralities_Consistent>
1

> <s_lp_Variant>
CHEMBL1862_lig734-1

> <s_i_glide_gridfile>
glide-grid_2hzi

> <i_i_glide_lignum>
867

> <i_i_glide_rotatable_bonds>
5

> <r_i_docking_score>
-7.84509418895272

> <r_i_glide_ligand_efficiency>
-0.373575913759653

> <r_i_glide_ligand_efficiency_sa>
-1.03066761913921

> <r_i_glide_ligand_efficiency_ln>
-1.9396836857131

> <r_i_glide_gscore>
-7.84509418895272

> <r_i_glide_lipo>
-4.01504498307851

> <r_i_glide_hbond>
-0.109611848741411

> <r_i_glide_metal>
0

> <r_i_glide_rewards>
-1.78256461071178

> <r_i_glide_evdw>
-44.5891494750977

> <r_i_glide_ecoul>
-3.55288577079773

> <r_i_glide_erotb>
0.824517592953531

> <r_i_glide_esite>
0

> <r_i_glide_emodel>
-68.2145369060063

> <r_i_glide_energy>
-48.1420352458954

> <r_i_glide_einternal>
6.32951164245605

> <i_i_glide_confnum>
17

> <i_i_glide_posenum>
262

> <r_i_glide_eff_state_penalty>
0

> <s_user_duplicate_titles>
CHEMBL1862_lig734

> <s_m_subgroup_title>
dock_pv

> <s_m_subgroupid>
dock_pv

> <b_m_subgroup_collapsed>
0

$$$$
CHEMBL1862_lig683
                    3D
 Schrodinger Suite 2021-1.
 42 44  0  0  1  0            999 V2000
   16.3629   16.4660    6.4650 N   0  0  0  0  0  0
   17.4602   16.8635    5.7955 C   0  0  0  0  0  0
   17.7978   16.3673    4.5410 C   0  0  0  0  0  0
   16.9641   15.4036    3.9588 C   0  0  0  0  0  0
   15.7521   15.0569    4.5867 C   0  0  0  0  0  0
   15.5113   15.6249    5.8453 C   0  0  0  0  0  0
   19.1990   17.0640    3.6890 S   0  0  0  0  0  0
   20.5638   16.0877    4.2043 N   0  0  1  0  0  0
   19.3640   18.4319    4.1890 O   0  0  0  0  0  0
   19.0070   16.8332    2.2575 O   0  0  0  0  0  0
   14.7405   14.1648    3.9474 C   0  0  0  0  0  0
   13.3662   14.3280    4.2262 C   0  0  0  0  0  0
   14.2037   12.3665    2.4032 C   0  0  0  0  0  0
   15.1421   13.1724    3.0416 C   0  0  0  0  0  0
   12.8837   12.5304    2.7122 N   0  0  0  0  0  0
   12.4239   13.4931    3.6030 C   0  0  0  0  0  0
   11.0710   13.4195    3.6489 N   0  0  0  0  0  0
   10.8187   12.4330    2.8093 C   0  0  0  0  0  0
   11.8335   11.8519    2.2102 N   0  0  0  0  0  0
    9.5502   12.0325    2.5803 N   0  0  0  0  0  0
   21.1630   16.1645    5.5576 C   0  0  0  0  0  0
   21.3640   17.6157    6.0030 C   0  0  0  0  0  0
   22.5640   15.6258    5.4661 C   0  0  0  0  0  0
   20.4045   15.2695    6.5607 C   0  0  0  0  0  0
   18.0656   17.6131    6.2845 H   0  0  0  0  0  0
   17.2017   15.0271    2.9752 H   0  0  0  0  0  0
   14.6264   15.3822    6.4149 H   0  0  0  0  0  0
   20.6882   15.2056    3.7000 H   0  0  0  0  0  0
   13.0170   15.0979    4.8956 H   0  0  0  0  0  0
   14.4397   11.6070    1.6750 H   0  0  0  0  0  0
   16.1888   13.0276    2.8152 H   0  0  0  0  0  0
    8.7834   12.4278    3.0995 H   0  0  0  0  0  0
    9.3706   11.1879    2.0578 H   0  0  0  0  0  0
   22.0972   17.6333    6.8040 H   0  0  0  0  0  0
   20.4593   18.0909    6.3709 H   0  0  0  0  0  0
   21.7701   18.2409    5.2049 H   0  0  0  0  0  0
   22.5640   14.5987    5.0981 H   0  0  0  0  0  0
   23.1653   16.2421    4.8031 H   0  0  0  0  0  0
   23.0702   15.6333    6.4303 H   0  0  0  0  0  0
   20.3029   14.2477    6.1921 H   0  0  0  0  0  0
   20.9279   15.2218    7.5166 H   0  0  0  0  0  0
   19.4100   15.6322    6.7872 H   0  0  0  0  0  0
  1  2  2  0  0  0
  1  6  1  0  0  0
  2  3  1  0  0  0
  2 25  1  0  0  0
  3  4  2  0  0  0
  3  7  1  0  0  0
  4  5  1  0  0  0
  4 26  1  0  0  0
  5  6  2  0  0  0
  5 11  1  0  0  0
  6 27  1  0  0  0
  7  8  1  0  0  0
  7  9  2  0  0  0
  7 10  2  0  0  0
  8 21  1  0  0  0
  8 28  1  0  0  0
 11 12  2  0  0  0
 11 14  1  0  0  0
 12 16  1  0  0  0
 12 29  1  0  0  0
 13 15  1  0  0  0
 13 14  2  0  0  0
 13 30  1  0  0  0
 14 31  1  0  0  0
 15 16  1  0  0  0
 15 19  1  0  0  0
 16 17  2  0  0  0
 17 18  1  0  0  0
 18 19  2  0  0  0
 18 20  1  0  0  0
 20 32  1  0  0  0
 20 33  1  0  0  0
 21 22  1  0  0  0
 21 23  1  0  0  0
 21 24  1  0  0  0
 22 34  1  0  0  0
 22 35  1  0  0  0
 22 36  1  0  0  0
 23 37  1  0  0  0
 23 38  1  0  0  0
 23 39  1  0  0  0
 24 40  1  0  0  0
 24 41  1  0  0  0
 24 42  1  0  0  0
M  END
> <s_m_entry_id>
6390

> <s_m_entry_name>
dock_pv.316

> <s_m_Source_Path>
/home/csk/Desktop/cluster/DUD-E-result/abl1

> <s_m_Source_File>
dock_pv.maegz

> <i_m_Source_File_Index>
316

> <chembl_id>
CHEMBL2205766

> <chembl_pref_name>
None

> <i_lp_mmshare_version>
53161

> <i_f3d_flags>
0

> <r_lp_tautomer_probability>
1

> <s_lp_Force_Field>
OPLS_2005

> <r_lp_Energy>
5.953032

> <b_lp_Chiralities_Consistent>
1

> <s_lp_Variant>
CHEMBL1862_lig683-1

> <s_i_glide_gridfile>
glide-grid_2hzi

> <i_i_glide_lignum>
813

> <i_i_glide_rotatable_bonds>
4

> <r_i_docking_score>
-7.82129754972181

> <r_i_glide_ligand_efficiency>
-0.325887397905075

> <r_i_glide_ligand_efficiency_sa>
-0.940021918198575

> <r_i_glide_ligand_efficiency_ln>
-1.87199539960701

> <r_i_glide_gscore>
-7.82129754972181

> <r_i_glide_lipo>
-3.50539582559801

> <r_i_glide_hbond>
0

> <r_i_glide_metal>
0

> <r_i_glide_rewards>
-2.70920786094662

> <r_i_glide_evdw>
-35.0257911682129

> <r_i_glide_ecoul>
-2.02613115310669

> <r_i_glide_erotb>
0.475298585563725

> <r_i_glide_esite>
-0.0267832173642474

> <r_i_glide_emodel>
-48.8655162056525

> <r_i_glide_energy>
-37.0519223213196

> <r_i_glide_einternal>
1.02124583721161

> <i_i_glide_confnum>
18

> <i_i_glide_posenum>
197

> <r_i_glide_eff_state_penalty>
0

> <s_user_duplicate_titles>
CHEMBL1862_lig683

> <s_m_subgroup_title>
dock_pv

> <s_m_subgroupid>
dock_pv

> <b_m_subgroup_collapsed>
0

$$$$
CHEMBL1862_lig766
                    3D
 Schrodinger Suite 2021-1.
 37 39  0  0  1  0            999 V2000
   17.8307   15.4001    3.8849 C   0  0  0  0  0  0
   16.4003   16.4321    6.1327 C   0  0  0  0  0  0
   17.7108   16.8029    5.8594 C   0  0  0  0  0  0
   18.4341   16.3031    4.7719 C   0  0  0  0  0  0
   15.8121   15.5367    5.2495 C   0  0  0  0  0  0
   16.5028   15.0100    4.1295 C   0  0  0  0  0  0
   15.6946   14.1541    3.4296 N   0  0  0  0  0  0
   14.5532   14.1449    4.0890 C   0  0  0  0  0  0
   14.5719   14.9513    5.2001 N   0  0  0  0  0  0
   13.3910   13.4455    3.8107 N   0  0  0  0  0  0
   13.2255   12.5681    2.8044 C   0  0  0  0  0  0
   11.9712   12.0845    2.7846 N   0  0  0  0  0  0
   14.1030   12.2550    2.0031 O   0  0  0  0  0  0
   11.4560   11.0649    1.8700 C   0  0  0  0  0  0
   10.1033   11.4443    1.2598 C   0  0  0  0  0  0
   19.8304   16.7625    4.5867 C   0  0  0  0  0  0
   20.2057   17.4743    3.4449 C   0  0  0  0  0  0
   21.4796   18.0328    3.3585 C   0  0  0  0  0  0
   22.3834   17.8515    4.4034 C   0  0  0  0  0  0
   22.0421   17.0937    5.5166 C   0  0  0  0  0  0
   20.7664   16.5494    5.6042 C   0  0  0  0  0  0
   18.3793   15.0048    3.0419 H   0  0  0  0  0  0
   15.8743   16.8222    6.9880 H   0  0  0  0  0  0
   18.1674   17.5247    6.5159 H   0  0  0  0  0  0
   13.7924   15.0654    5.8311 H   0  0  0  0  0  0
   12.6074   13.6190    4.4184 H   0  0  0  0  0  0
   11.3455   12.3499    3.5288 H   0  0  0  0  0  0
   11.3642   10.1222    2.4030 H   0  0  0  0  0  0
   12.1640   10.8350    1.0775 H   0  0  0  0  0  0
    9.7583   10.6509    0.5958 H   0  0  0  0  0  0
   10.1643   12.3582    0.6676 H   0  0  0  0  0  0
    9.3410   11.5717    2.0288 H   0  0  0  0  0  0
   19.4973   17.6374    2.6463 H   0  0  0  0  0  0
   21.7640   18.6073    2.4897 H   0  0  0  0  0  0
   23.3639   18.2935    4.3565 H   0  0  0  0  0  0
   22.7573   16.9423    6.3137 H   0  0  0  0  0  0
   20.4932   15.9827    6.4824 H   0  0  0  0  0  0
  1  6  2  0  0  0
  1  4  1  0  0  0
  1 22  1  0  0  0
  2  5  2  0  0  0
  2  3  1  0  0  0
  2 23  1  0  0  0
  3  4  2  0  0  0
  3 24  1  0  0  0
  4 16  1  0  0  0
  5  6  1  0  0  0
  5  9  1  0  0  0
  6  7  1  0  0  0
  7  8  2  0  0  0
  8 10  1  0  0  0
  8  9  1  0  0  0
  9 25  1  0  0  0
 10 11  1  0  0  0
 10 26  1  0  0  0
 11 12  1  0  0  0
 11 13  2  0  0  0
 12 14  1  0  0  0
 12 27  1  0  0  0
 14 15  1  0  0  0
 14 28  1  0  0  0
 14 29  1  0  0  0
 15 30  1  0  0  0
 15 31  1  0  0  0
 15 32  1  0  0  0
 16 17  2  0  0  0
 16 21  1  0  0  0
 17 18  1  0  0  0
 17 33  1  0  0  0
 18 19  2  0  0  0
 18 34  1  0  0  0
 19 20  1  0  0  0
 19 35  1  0  0  0
 20 21  2  0  0  0
 20 36  1  0  0  0
 21 37  1  0  0  0
M  END
> <s_m_entry_id>
6392

> <s_m_entry_name>
dock_pv.318

> <s_m_Source_Path>
/home/csk/Desktop/cluster/DUD-E-result/abl1

> <s_m_Source_File>
dock_pv.maegz

> <i_m_Source_File_Index>
318

> <chembl_id>
CHEMBL472525

> <chembl_pref_name>
None

> <i_lp_mmshare_version>
53161

> <i_f3d_flags>
0

> <r_lp_tautomer_probability>
1

> <s_lp_Force_Field>
OPLS_2005

> <r_lp_Energy>
14.215984

> <b_lp_Chiralities_Consistent>
1

> <s_lp_Variant>
CHEMBL1862_lig766-1

> <s_i_glide_gridfile>
glide-grid_2hzi

> <i_i_glide_lignum>
899

> <i_i_glide_rotatable_bonds>
5

> <r_i_docking_score>
-7.79904436153999

> <r_i_glide_ligand_efficiency>
-0.371383064835238

> <r_i_glide_ligand_efficiency_sa>
-1.02461771523263

> <r_i_glide_ligand_efficiency_ln>
-1.92829795893775

> <r_i_glide_gscore>
-7.79904436153999

> <r_i_glide_lipo>
-3.59094235461609

> <r_i_glide_hbond>
0

> <r_i_glide_metal>
0

> <r_i_glide_rewards>
-2.96870663984141

> <r_i_glide_evdw>
-40.757251739502

> <r_i_glide_ecoul>
-0.804897367954254

> <r_i_glide_erotb>
0.919201825085733

> <r_i_glide_esite>
0

> <r_i_glide_emodel>
-62.398178631222

> <r_i_glide_energy>
-41.5621491074562

> <r_i_glide_einternal>
4.09411096572876

> <i_i_glide_confnum>
7

> <i_i_glide_posenum>
240

> <r_i_glide_eff_state_penalty>
0

> <s_user_duplicate_titles>
CHEMBL1862_lig766

> <s_m_subgroup_title>
dock_pv

> <s_m_subgroupid>
dock_pv

> <b_m_subgroup_collapsed>
0

$$$$
CHEMBL1862_lig41
                    3D
 Schrodinger Suite 2021-1.
 59 63  0  0  1  0            999 V2000
    8.9441   12.8332    4.9369 F   0  0  0  0  0  0
   10.0715   13.2326    6.7298 F   0  0  0  0  0  0
    9.4998   14.8323    5.4109 F   0  0  0  0  0  0
   19.4138   18.6432    6.0026 O   0  0  0  0  0  0
   18.9690   17.9484    2.6170 O   0  0  0  0  0  0
   19.4281   16.5318    5.1601 N   0  0  0  0  0  0
   14.9558   13.3730    2.9908 N   0  0  0  0  0  0
   12.6777   12.9349    2.8791 N   0  0  0  0  0  0
   13.5991   14.0097    4.8099 N   0  0  0  0  0  0
   10.3539   12.4655    2.7270 N   0  0  0  0  0  0
   21.2004   17.7323    3.1109 N   0  0  0  0  0  0
   18.2946   16.0014    5.8757 C   0  0  1  0  0  0
   20.0439   15.3011    4.6464 C   0  0  2  0  0  0
   17.7145   15.1641    4.7546 C   0  0  0  0  0  0
   18.7975   14.6269    4.0817 C   0  0  0  0  0  0
   19.1128   15.0698    6.8009 C   0  0  0  0  0  0
   20.3650   14.6907    6.0080 C   0  0  0  0  0  0
   16.4152   14.8331    4.3800 C   0  0  0  0  0  0
   19.9488   17.7792    5.3009 C   0  0  0  0  0  0
   18.5987   13.6143    3.1533 C   0  0  0  0  0  0
   16.2113   13.8397    3.4002 C   0  0  0  0  0  0
   17.3119   13.2213    2.8102 C   0  0  0  0  0  0
   11.2370   13.5638    4.7116 C   0  0  0  0  0  0
   13.7025   13.4548    3.5880 C   0  0  0  0  0  0
   11.4378   12.9986    3.4385 C   0  0  0  0  0  0
   21.2158   18.1578    4.5126 C   0  0  0  0  0  0
    9.9085   13.5860    5.4549 C   0  0  0  0  0  0
   12.3769   14.0329    5.3617 C   0  0  0  0  0  0
   10.4824   11.9439    1.3640 C   0  0  0  0  0  0
   10.4955   10.4333    1.2625 C   0  0  0  0  0  0
    9.1830   11.9212    0.5514 C   0  0  0  0  0  0
    8.9716   10.4845    1.0553 C   0  0  0  0  0  0
   20.1234   17.6331    2.3149 C   0  0  0  0  0  0
   20.3720   17.0891    0.9449 C   0  0  0  0  0  0
   14.9346   12.8902    2.1060 H   0  0  0  0  0  0
    9.4553   12.3942    3.1838 H   0  0  0  0  0  0
   22.0908   17.4568    2.7267 H   0  0  0  0  0  0
   17.6403   16.7272    6.3627 H   0  0  0  0  0  0
   20.8916   15.3964    3.9697 H   0  0  0  0  0  0
   18.5647   14.2134    7.1884 H   0  0  0  0  0  0
   19.5067   15.6330    7.6032 H   0  0  0  0  0  0
   20.5198   13.6302    6.0072 H   0  0  0  0  0  0
   21.2698   15.1371    6.4292 H   0  0  0  0  0  0
   15.5988   15.3201    4.8854 H   0  0  0  0  0  0
   19.4307   13.1175    2.6893 H   0  0  0  0  0  0
   17.1842   12.4381    2.0784 H   0  0  0  0  0  0
   22.0798   17.7322    5.0197 H   0  0  0  0  0  0
   21.3644   19.2327    4.5358 H   0  0  0  0  0  0
   12.3497   14.4082    6.3704 H   0  0  0  0  0  0
   11.3053   12.4327    0.8471 H   0  0  0  0  0  0
   11.0385   10.0399    0.4034 H   0  0  0  0  0  0
   10.8866    9.9374    2.1438 H   0  0  0  0  0  0
    8.4315   12.6604    0.8306 H   0  0  0  0  0  0
    9.3553   11.9949   -0.5254 H   0  0  0  0  0  0
    8.5677    9.7736    0.3333 H   0  0  0  0  0  0
    8.4002   10.4306    1.9832 H   0  0  0  0  0  0
   21.3636   17.2640    0.5490 H   0  0  0  0  0  0
   19.6505   17.6579    0.4031 H   0  0  0  0  0  0
   20.1250   16.0370    0.8105 H   0  0  0  0  0  0
  1 27  1  0  0  0
  2 27  1  0  0  0
  3 27  1  0  0  0
  4 19  2  0  0  0
  5 33  2  0  0  0
  6 12  1  0  0  0
  6 13  1  0  0  0
  6 19  1  0  0  0
  7 21  1  0  0  0
  7 24  1  0  0  0
  7 35  1  0  0  0
  8 24  1  0  0  0
  8 25  2  0  0  0
  9 24  2  0  0  0
  9 28  1  0  0  0
 10 25  1  0  0  0
 10 29  1  0  0  0
 10 36  1  0  0  0
 11 26  1  0  0  0
 11 33  1  0  0  0
 11 37  1  0  0  0
 12 14  1  0  0  0
 12 16  1  0  0  0
 12 38  1  0  0  0
 13 15  1  0  0  0
 13 17  1  0  0  0
 13 39  1  0  0  0
 14 15  1  0  0  0
 14 18  2  0  0  0
 15 20  2  0  0  0
 16 17  1  0  0  0
 16 40  1  0  0  0
 16 41  1  0  0  0
 17 42  1  0  0  0
 17 43  1  0  0  0
 18 21  1  0  0  0
 18 44  1  0  0  0
 19 26  1  0  0  0
 20 22  1  0  0  0
 20 45  1  0  0  0
 21 22  2  0  0  0
 22 46  1  0  0  0
 23 25  1  0  0  0
 23 27  1  0  0  0
 23 28  2  0  0  0
 26 47  1  0  0  0
 26 48  1  0  0  0
 28 49  1  0  0  0
 29 30  1  0  0  0
 29 31  1  0  0  0
 29 50  1  0  0  0
 30 32  1  0  0  0
 30 51  1  0  0  0
 30 52  1  0  0  0
 31 32  1  0  0  0
 31 53  1  0  0  0
 31 54  1  0  0  0
 32 55  1  0  0  0
 32 56  1  0  0  0
 33 34  1  0  0  0
 34 57  1  0  0  0
 34 58  1  0  0  0
 34 59  1  0  0  0
M  END
> <s_m_entry_id>
6393

> <s_m_entry_name>
dock_pv.319

> <s_m_Source_Path>
/home/csk/Desktop/cluster/DUD-E-result/abl1

> <s_m_Source_File>
dock_pv.maegz

> <i_m_Source_File_Index>
319

> <chembl_id>
CHEMBL1983111

> <chembl_pref_name>
None

> <i_lp_mmshare_version>
53161

> <i_f3d_flags>
0

> <r_lp_tautomer_probability>
0.999999624730965

> <s_lp_Force_Field>
OPLS_2005

> <r_lp_Energy>
74.136547

> <b_lp_Chiralities_Consistent>
1

> <s_lp_Variant>
CHEMBL1862_lig41-1

> <s_i_glide_gridfile>
glide-grid_2hzi

> <i_i_glide_lignum>
54

> <i_i_glide_rotatable_bonds>
9

> <r_i_docking_score>
-7.78753890671144

> <r_i_glide_ligand_efficiency>
-0.229045261962101

> <r_i_glide_ligand_efficiency_sa>
-0.742017732806908

> <r_i_glide_ligand_efficiency_ln>
-1.72048577756007

> <r_i_glide_gscore>
-7.78753890671144

> <r_i_glide_lipo>
-3.96465023855208

> <r_i_glide_hbond>
0

> <r_i_glide_metal>
0

> <r_i_glide_rewards>
-2.59850176777478

> <r_i_glide_evdw>
-28.8418731689453

> <r_i_glide_ecoul>
-2.66411781311035

> <r_i_glide_erotb>
0.629177654581831

> <r_i_glide_esite>
-0.0118532245526002

> <r_i_glide_emodel>
-38.1485790421295

> <r_i_glide_energy>
-31.5059909820557

> <r_i_glide_einternal>
7.83738088607788

> <i_i_glide_confnum>
44

> <i_i_glide_posenum>
29

> <r_i_glide_eff_state_penalty>
0

> <s_user_duplicate_titles>
CHEMBL1862_lig41

> <s_m_subgroup_title>
dock_pv

> <s_m_subgroupid>
dock_pv

> <b_m_subgroup_collapsed>
0

$$$$
CHEMBL1862_lig128
                    3D
 Schrodinger Suite 2021-1.
 46 48  0  0  1  0            999 V2000
   15.5263   13.7928    3.2046 C   0  0  0  0  0  0
   14.2739   14.0939    3.6854 N   0  0  0  0  0  0
   19.7644   18.0035    5.1295 C   0  0  0  0  0  0
   13.2421   13.2811    3.2739 C   0  0  0  0  0  0
   16.6649   14.5488    3.4510 N   0  0  0  0  0  0
   15.8313   12.7752    2.3912 N   0  0  0  0  0  0
   18.5165   17.1703    5.2272 C   0  0  0  0  0  0
   11.8409   13.5228    3.7423 C   0  0  0  0  0  0
   18.1614   16.2137    4.2686 C   0  0  0  0  0  0
   16.9881   15.4712    4.4291 C   0  0  0  0  0  0
   19.9951   18.8329    6.0030 O   0  0  0  0  0  0
   10.3068   14.6923    5.2031 N   0  0  0  0  0  0
   20.6311   17.7566    4.1318 N   0  0  0  0  0  0
   13.4924   12.2315    2.4034 C   0  0  0  0  0  0
   14.7958   12.0300    2.0025 C   0  0  0  0  0  0
   11.5580   14.4407    4.7526 C   0  0  0  0  0  0
   22.0556   16.0217    6.3225 N   0  0  0  0  0  0
   23.0751   17.6880    4.7919 C   0  0  0  0  0  0
   17.6837   17.3353    6.3399 C   0  0  0  0  0  0
   16.5638   16.5440    6.5190 C   0  0  0  0  0  0
   10.7300   12.8339    3.2030 C   0  0  0  0  0  0
   21.9385   18.4111    4.0302 C   0  0  0  0  0  0
    9.2695   14.0100    4.6723 C   0  0  0  0  0  0
   16.1937   15.6328    5.5572 C   0  0  0  0  0  0
   22.8268   17.2456    6.2475 C   0  0  0  0  0  0
    9.4372   13.0727    3.6614 C   0  0  0  0  0  0
   17.4571   14.2260    2.9184 H   0  0  0  0  0  0
   18.7704   16.0501    3.3915 H   0  0  0  0  0  0
   20.3816   17.1047    3.4028 H   0  0  0  0  0  0
   12.7341   11.5651    2.0307 H   0  0  0  0  0  0
   14.9951   11.2332    1.3051 H   0  0  0  0  0  0
   12.3494   15.0207    5.2036 H   0  0  0  0  0  0
   21.2929   16.0706    5.6619 H   0  0  0  0  0  0
   22.6370   15.2387    6.0488 H   0  0  0  0  0  0
   23.9439   18.3439    4.8043 H   0  0  0  0  0  0
   23.3639   16.8330    4.2010 H   0  0  0  0  0  0
   17.8871   18.0832    7.0933 H   0  0  0  0  0  0
   15.9688   16.6414    7.4079 H   0  0  0  0  0  0
   10.8280   12.1028    2.4162 H   0  0  0  0  0  0
   21.8692   19.4435    4.3790 H   0  0  0  0  0  0
   22.1920   18.4622    2.9705 H   0  0  0  0  0  0
    8.2941   14.2248    5.0801 H   0  0  0  0  0  0
   15.3129   15.0349    5.7273 H   0  0  0  0  0  0
   22.3258   18.0326    6.7938 H   0  0  0  0  0  0
   23.7639   17.0740    6.7706 H   0  0  0  0  0  0
    8.5931   12.5368    3.2516 H   0  0  0  0  0  0
  1  2  1  0  0  0
  1  5  1  0  0  0
  1  6  2  0  0  0
  2  4  2  0  0  0
  3  7  1  0  0  0
  3 11  2  0  0  0
  3 13  1  0  0  0
  4  8  1  0  0  0
  4 14  1  0  0  0
  5 10  1  0  0  0
  5 27  1  0  0  0
  6 15  1  0  0  0
  7  9  2  0  0  0
  7 19  1  0  0  0
  8 16  1  0  0  0
  8 21  2  0  0  0
  9 10  1  0  0  0
  9 28  1  0  0  0
 10 24  2  0  0  0
 12 16  2  0  0  0
 12 23  1  0  0  0
 13 22  1  0  0  0
 13 29  1  0  0  0
 14 15  2  0  0  0
 14 30  1  0  0  0
 15 31  1  0  0  0
 16 32  1  0  0  0
 17 25  1  0  0  0
 17 33  1  0  0  0
 17 34  1  0  0  0
 18 22  1  0  0  0
 18 25  1  0  0  0
 18 35  1  0  0  0
 18 36  1  0  0  0
 19 20  2  0  0  0
 19 37  1  0  0  0
 20 24  1  0  0  0
 20 38  1  0  0  0
 21 26  1  0  0  0
 21 39  1  0  0  0
 22 40  1  0  0  0
 22 41  1  0  0  0
 23 26  2  0  0  0
 23 42  1  0  0  0
 24 43  1  0  0  0
 25 44  1  0  0  0
 25 45  1  0  0  0
 26 46  1  0  0  0
M  END
> <s_m_entry_id>
6394

> <s_m_entry_name>
dock_pv.320

> <s_m_Source_Path>
/home/csk/Desktop/cluster/DUD-E-result/abl1

> <s_m_Source_File>
dock_pv.maegz

> <i_m_Source_File_Index>
320

> <chembl_id>
CHEMBL59099

> <chembl_pref_name>
None

> <i_lp_mmshare_version>
53161

> <i_f3d_flags>
0

> <r_lp_tautomer_probability>
0.999999987636

> <s_lp_Force_Field>
OPLS_2005

> <r_lp_Energy>
12.693523

> <b_lp_Chiralities_Consistent>
1

> <s_lp_Variant>
CHEMBL1862_lig128-1

> <s_i_glide_gridfile>
glide-grid_2hzi

> <i_i_glide_lignum>
147

> <i_i_glide_rotatable_bonds>
8

> <r_i_docking_score>
-7.77822162011293

> <r_i_glide_ligand_efficiency>
-0.299162370004344

> <r_i_glide_ligand_efficiency_sa>
-0.886267343990784

> <r_i_glide_ligand_efficiency_ln>
-1.82668982505668

> <r_i_glide_gscore>
-7.77822162011293

> <r_i_glide_lipo>
-3.72381801846757

> <r_i_glide_hbond>
-0.113102602170845

> <r_i_glide_metal>
0

> <r_i_glide_rewards>
-2.45725384084521

> <r_i_glide_evdw>
-31.9184112548828

> <r_i_glide_ecoul>
-6.57273244857788

> <r_i_glide_erotb>
1.09778327140151

> <r_i_glide_esite>
0

> <r_i_glide_emodel>
-52.5277566414948

> <r_i_glide_energy>
-38.4911437034607

> <r_i_glide_einternal>
6.20090055465698

> <i_i_glide_confnum>
147

> <i_i_glide_posenum>
312

> <r_i_glide_eff_state_penalty>
0

> <s_user_duplicate_titles>
CHEMBL1862_lig128,87836

> <s_m_subgroup_title>
dock_pv

> <s_m_subgroupid>
dock_pv

> <b_m_subgroup_collapsed>
0

$$$$
CHEMBL1862_lig879
                    3D
 Schrodinger Suite 2021-1.
 46 49  0  0  1  0            999 V2000
   21.3641   15.7344    7.1111 C   0  0  0  0  0  0
   20.0899   17.6270    1.7413 C   0  0  0  0  0  0
   16.1478   13.8672    2.8029 C   0  0  0  0  0  0
   18.2356   14.5915    4.1037 C   0  0  2  0  0  0
   21.7620   18.0559    3.4637 C   0  0  0  0  0  0
   15.7418   15.1446    4.8107 C   0  0  0  0  0  0
   21.8847   16.8777    5.3376 C   0  0  0  0  0  0
   20.4882   15.2721    6.1975 C   0  0  0  0  0  0
   18.9640   18.0326    1.5820 O   0  0  0  0  0  0
   15.2630   14.0299    3.9685 N   0  0  0  0  0  0
   22.2907   16.5751    6.5867 N   0  0  0  0  0  0
   17.5839   13.5251    3.2100 C   0  0  0  0  0  0
   20.0860   16.3014    3.8161 C   0  0  0  0  0  0
   20.7197   16.0853    5.0488 C   0  0  0  0  0  0
   20.6320   17.3434    3.0572 C   0  0  0  0  0  0
   17.2608   15.2944    5.0825 C   0  0  2  0  0  0
   20.8948   17.2329    0.8032 N   0  0  0  0  0  0
   18.9743   15.5666    3.3216 N   0  0  0  0  0  0
   22.4389   17.8249    4.5978 N   0  0  0  0  0  0
   13.8915   13.7623    3.8665 C   0  0  0  0  0  0
   13.5004   12.7835    3.0002 N   0  0  0  0  0  0
   12.1775   12.5078    2.8596 C   0  0  0  0  0  0
   11.1879   13.1840    3.5846 C   0  0  0  0  0  0
   11.5861   14.1411    4.5156 C   0  0  0  0  0  0
   12.9425   14.4301    4.6570 C   0  0  0  0  0  0
    9.7758   12.9102    3.3598 C   0  0  0  0  0  0
    8.6534   12.6990    3.1807 N   0  0  0  0  0  0
   17.5027   16.5969    5.2679 F   0  0  0  0  0  0
   21.3223   15.6331    8.1463 H   0  0  0  0  0  0
   15.7994   13.0702    2.1447 H   0  0  0  0  0  0
   16.1257   14.7884    2.2179 H   0  0  0  0  0  0
   18.9754   14.0435    4.6696 H   0  0  0  0  0  0
   22.1685   18.8381    2.8403 H   0  0  0  0  0  0
   15.3384   16.0584    4.3957 H   0  0  0  0  0  0
   15.2830   15.0553    5.7961 H   0  0  0  0  0  0
   19.6936   14.5857    6.4354 H   0  0  0  0  0  0
   23.0199   17.0185    7.1267 H   0  0  0  0  0  0
   17.5990   12.5520    3.7006 H   0  0  0  0  0  0
   18.1888   13.3606    2.3198 H   0  0  0  0  0  0
   17.4814   14.8341    6.0331 H   0  0  0  0  0  0
   20.5721   17.1910   -0.1564 H   0  0  0  0  0  0
   21.7483   16.7621    1.0530 H   0  0  0  0  0  0
   18.4422   16.0597    2.6177 H   0  0  0  0  0  0
   11.9286   11.7378    2.1403 H   0  0  0  0  0  0
   10.8619   14.6695    5.1210 H   0  0  0  0  0  0
   13.2394   15.1936    5.3518 H   0  0  0  0  0  0
  1 11  1  0  0  0
  1  8  2  0  0  0
  1 29  1  0  0  0
  2 15  1  0  0  0
  2 17  1  0  0  0
  2  9  2  0  0  0
  3 12  1  0  0  0
  3 10  1  0  0  0
  3 30  1  0  0  0
  3 31  1  0  0  0
  4 16  1  0  0  0
  4 18  1  0  0  0
  4 12  1  0  0  0
  4 32  1  0  0  0
  5 19  2  0  0  0
  5 15  1  0  0  0
  5 33  1  0  0  0
  6 16  1  0  0  0
  6 10  1  0  0  0
  6 34  1  0  0  0
  6 35  1  0  0  0
  7 19  1  0  0  0
  7 14  2  0  0  0
  7 11  1  0  0  0
  8 14  1  0  0  0
  8 36  1  0  0  0
 10 20  1  0  0  0
 11 37  1  0  0  0
 12 38  1  0  0  0
 12 39  1  0  0  0
 13 18  1  0  0  0
 13 15  2  0  0  0
 13 14  1  0  0  0
 16 28  1  0  0  0
 16 40  1  0  0  0
 17 41  1  0  0  0
 17 42  1  0  0  0
 18 43  1  0  0  0
 20 21  2  0  0  0
 20 25  1  0  0  0
 21 22  1  0  0  0
 22 23  2  0  0  0
 22 44  1  0  0  0
 23 24  1  0  0  0
 23 26  1  0  0  0
 24 25  2  0  0  0
 24 45  1  0  0  0
 25 46  1  0  0  0
 26 27  3  0  0  0
M  END
> <s_m_entry_id>
6395

> <s_m_entry_name>
dock_pv.321

> <s_m_Source_Path>
/home/csk/Desktop/cluster/DUD-E-result/abl1

> <s_m_Source_File>
dock_pv.maegz

> <i_m_Source_File_Index>
321

> <chembl_id>
CHEMBL3593777

> <chembl_pref_name>
None

> <i_lp_mmshare_version>
53161

> <i_f3d_flags>
0

> <r_lp_tautomer_probability>
1

> <s_lp_Force_Field>
OPLS_2005

> <r_lp_Energy>
31.773469

> <b_lp_Chiralities_Consistent>
1

> <s_lp_Variant>
CHEMBL1862_lig879-1

> <s_i_glide_gridfile>
glide-grid_2hzi

> <i_i_glide_lignum>
1019

> <i_i_glide_rotatable_bonds>
4

> <r_i_docking_score>
-7.74963976176567

> <r_i_glide_ligand_efficiency>
-0.276772848634488

> <r_i_glide_ligand_efficiency_sa>
-0.840445378944586

> <r_i_glide_ligand_efficiency_ln>
-1.78884439632612

> <r_i_glide_gscore>
-7.74963976176567

> <r_i_glide_lipo>
-3.91924527326184

> <r_i_glide_hbond>
-0.280065435992973

> <r_i_glide_metal>
0

> <r_i_glide_rewards>
-2.57476239796527

> <r_i_glide_evdw>
-26.1733341217041

> <r_i_glide_ecoul>
-0.473467886447906

> <r_i_glide_erotb>
0.404120234506812

> <r_i_glide_esite>
0

> <r_i_glide_emodel>
-60.6862885638784

> <r_i_glide_energy>
-26.646802008152

> <r_i_glide_einternal>
7.19798803329468

> <i_i_glide_confnum>
21

> <i_i_glide_posenum>
371

> <r_i_glide_eff_state_penalty>
0

> <s_user_duplicate_titles>
CHEMBL1862_lig879

> <s_m_subgroup_title>
dock_pv

> <s_m_subgroupid>
dock_pv

> <b_m_subgroup_collapsed>
0

$$$$
CHEMBL1862_lig531
                    3D
 Schrodinger Suite 2021-1.
 42 45  0  0  1  0            999 V2000
   21.3521   15.2131    7.1618 N   0  0  0  0  0  0
   22.2775   16.0405    6.6244 C   0  0  0  0  0  0
   22.2442   16.6502    5.4245 N   0  0  0  0  0  0
   20.2980   14.9232    6.3755 C   0  0  0  0  0  0
   20.1143   15.4941    5.1381 C   0  0  0  0  0  0
   21.1356   16.3616    4.7407 C   0  0  0  0  0  0
   20.7307   16.8521    3.5329 N   0  0  0  0  0  0
   19.5315   16.3157    3.1746 N   0  0  0  0  0  0
   19.1696   15.4617    4.0798 C   0  0  0  0  0  0
   17.9561   14.6331    3.8969 C   0  0  0  0  0  0
   16.6998   15.0708    4.3191 C   0  0  0  0  0  0
   16.9639   12.7087    2.8096 C   0  0  0  0  0  0
   18.0833   13.4468    3.1784 C   0  0  0  0  0  0
   19.3640   14.0330    6.8030 N   0  0  0  0  0  0
   15.6751   13.1387    3.2030 C   0  0  0  0  0  0
   15.5394   14.3248    3.9905 C   0  0  0  0  0  0
   14.3234   14.7601    4.4282 N   0  0  0  0  0  0
   13.2224   14.0350    4.1002 C   0  0  0  0  0  0
   13.2666   12.8829    3.3176 C   0  0  0  0  0  0
   14.4995   12.4331    2.8555 C   0  0  0  0  0  0
   21.3716   17.9030    2.7441 C   0  0  0  0  0  0
   21.7640   19.0732    3.6729 C   0  0  0  0  0  0
   20.5235   18.1050    1.4866 C   0  0  0  0  0  0
   11.9048   14.5428    4.6520 C   0  0  0  0  0  0
   23.1701   16.2188    7.2030 H   0  0  0  0  0  0
   16.5989   15.9918    4.8755 H   0  0  0  0  0  0
   17.0829   11.8122    2.2218 H   0  0  0  0  0  0
   19.0578   13.1233    2.8392 H   0  0  0  0  0  0
   18.5817   13.8264    6.1988 H   0  0  0  0  0  0
   19.4600   13.6077    7.7103 H   0  0  0  0  0  0
   12.3653   12.3384    3.0738 H   0  0  0  0  0  0
   14.5643   11.5465    2.2442 H   0  0  0  0  0  0
   22.3549   17.6330    2.4046 H   0  0  0  0  0  0
   22.1019   19.9896    3.2030 H   0  0  0  0  0  0
   20.9640   19.2330    4.3836 H   0  0  0  0  0  0
   22.6308   18.8129    4.2784 H   0  0  0  0  0  0
   20.9640   18.8330    0.8752 H   0  0  0  0  0  0
   20.4721   17.1988    0.8795 H   0  0  0  0  0  0
   19.5038   18.4324    1.6972 H   0  0  0  0  0  0
   11.0832   14.3170    3.9717 H   0  0  0  0  0  0
   11.6966   14.0631    5.6087 H   0  0  0  0  0  0
   11.9234   15.6232    4.8029 H   0  0  0  0  0  0
  1  2  2  0  0  0
  1  4  1  0  0  0
  2  3  1  0  0  0
  2 25  1  0  0  0
  3  6  2  0  0  0
  4 14  1  0  0  0
  4  5  2  0  0  0
  5  9  1  0  0  0
  5  6  1  0  0  0
  6  7  1  0  0  0
  7  8  1  0  0  0
  7 21  1  0  0  0
  8  9  2  0  0  0
  9 10  1  0  0  0
 10 13  1  0  0  0
 10 11  2  0  0  0
 11 16  1  0  0  0
 11 26  1  0  0  0
 12 15  1  0  0  0
 12 13  2  0  0  0
 12 27  1  0  0  0
 13 28  1  0  0  0
 14 29  1  0  0  0
 14 30  1  0  0  0
 15 16  2  0  0  0
 15 20  1  0  0  0
 16 17  1  0  0  0
 17 18  2  0  0  0
 18 19  1  0  0  0
 18 24  1  0  0  0
 19 20  2  0  0  0
 19 31  1  0  0  0
 20 32  1  0  0  0
 21 22  1  0  0  0
 21 23  1  0  0  0
 21 33  1  0  0  0
 22 34  1  0  0  0
 22 35  1  0  0  0
 22 36  1  0  0  0
 23 37  1  0  0  0
 23 38  1  0  0  0
 23 39  1  0  0  0
 24 40  1  0  0  0
 24 41  1  0  0  0
 24 42  1  0  0  0
M  END
> <s_m_entry_id>
6396

> <s_m_entry_name>
dock_pv.322

> <s_m_Source_Path>
/home/csk/Desktop/cluster/DUD-E-result/abl1

> <s_m_Source_File>
dock_pv.maegz

> <i_m_Source_File_Index>
322

> <chembl_id>
CHEMBL1242209

> <chembl_pref_name>
None

> <i_lp_mmshare_version>
53161

> <i_f3d_flags>
0

> <r_lp_tautomer_probability>
1

> <s_lp_Force_Field>
OPLS_2005

> <r_lp_Energy>
15.268529

> <b_lp_Chiralities_Consistent>
1

> <s_lp_Variant>
CHEMBL1862_lig531-1

> <s_i_glide_gridfile>
glide-grid_2hzi

> <i_i_glide_lignum>
629

> <i_i_glide_rotatable_bonds>
2

> <r_i_docking_score>
-7.71030721622965

> <r_i_glide_ligand_efficiency>
-0.321262800676235

> <r_i_glide_ligand_efficiency_sa>
-0.926682271480428

> <r_i_glide_ligand_efficiency_ln>
-1.8454303197878

> <r_i_glide_gscore>
-7.71030721622965

> <r_i_glide_lipo>
-4.29274564449014

> <r_i_glide_hbond>
-0.229916576194481

> <r_i_glide_metal>
0

> <r_i_glide_rewards>
-1.90900131545547

> <r_i_glide_evdw>
-26.9015274047852

> <r_i_glide_ecoul>
-0.783335447311401

> <r_i_glide_erotb>
0.183933007246415

> <r_i_glide_esite>
0

> <r_i_glide_emodel>
-34.3049317922605

> <r_i_glide_energy>
-27.6848628520966

> <r_i_glide_einternal>
6.28113031387329

> <i_i_glide_confnum>
2

> <i_i_glide_posenum>
74

> <r_i_glide_eff_state_penalty>
0

> <s_user_duplicate_titles>
CHEMBL1862_lig531

> <s_m_subgroup_title>
dock_pv

> <s_m_subgroupid>
dock_pv

> <b_m_subgroup_collapsed>
0

$$$$
CHEMBL1862_lig869
                    3D
 Schrodinger Suite 2021-1.
 40 42  0  0  1  0            999 V2000
   17.7307   15.6560    3.9483 N   0  0  0  0  0  0
   16.5785   15.2464    4.5287 C   0  0  0  0  0  0
   16.6119   15.8637    5.7953 C   0  0  0  0  0  0
   17.6963   16.7408    5.8568 C   0  0  0  0  0  0
   18.4282   16.5630    4.7062 C   0  0  0  0  0  0
   15.6764   15.6327    6.8284 C   0  0  0  0  0  0
   14.5640   15.2330    6.5516 O   0  0  0  0  0  0
   16.1640   15.2330    8.0029 N   0  0  0  0  0  0
   15.6087   14.3123    3.8528 C   0  0  0  0  0  0
   15.9610   13.0894    3.2431 C   0  0  0  0  0  0
   14.9184   12.2214    2.8711 C   0  0  0  0  0  0
   13.5879   12.4906    3.1731 C   0  0  0  0  0  0
   13.2453   13.6988    3.7709 C   0  0  0  0  0  0
   14.2489   14.6497    3.9579 C   0  0  0  0  0  0
   20.7214   17.6331    2.2167 C   0  0  0  0  0  0
   19.6963   17.0729    2.8403 N   0  0  0  0  0  0
   19.6543   17.1828    4.1827 C   0  0  0  0  0  0
   20.6661   17.8195    4.9115 C   0  0  0  0  0  0
   21.7270   18.3503    4.1640 C   0  0  0  0  0  0
   21.7640   18.2821    2.8030 N   0  0  0  0  0  0
   20.5640   17.6330    0.8512 N   0  0  0  0  0  0
   11.8269   13.9370    4.2985 C   0  0  0  0  0  0
   10.9109   13.3472    3.5308 F   0  0  0  0  0  0
   11.7473   13.4181    5.5230 F   0  0  0  0  0  0
   11.5164   15.2262    4.4030 F   0  0  0  0  0  0
   17.4224   12.6572    2.9794 C   0  0  0  0  0  0
   18.1640   12.2736    4.0030 F   0  0  0  0  0  0
   17.3906   11.6330    2.1645 F   0  0  0  0  0  0
   18.1333   13.5948    2.4030 F   0  0  0  0  0  0
   18.0360   15.3511    3.0338 H   0  0  0  0  0  0
   17.9110   17.4227    6.6615 H   0  0  0  0  0  0
   17.1427   15.3222    8.2139 H   0  0  0  0  0  0
   15.5481   14.7388    8.6303 H   0  0  0  0  0  0
   15.1229   11.2771    2.4030 H   0  0  0  0  0  0
   12.8346   11.7425    2.9672 H   0  0  0  0  0  0
   13.9717   15.6160    4.3530 H   0  0  0  0  0  0
   20.6370   17.8963    5.9868 H   0  0  0  0  0  0
   22.5491   18.8608    4.6467 H   0  0  0  0  0  0
   21.3284   18.0332    0.3092 H   0  0  0  0  0  0
   19.9645   16.9290    0.4485 H   0  0  0  0  0  0
  1  2  1  0  0  0
  1  5  1  0  0  0
  1 30  1  0  0  0
  2  3  2  0  0  0
  2  9  1  0  0  0
  3  4  1  0  0  0
  3  6  1  0  0  0
  4  5  2  0  0  0
  4 31  1  0  0  0
  5 17  1  0  0  0
  6  7  2  0  0  0
  6  8  1  0  0  0
  8 32  1  0  0  0
  8 33  1  0  0  0
  9 10  1  0  0  0
  9 14  2  0  0  0
 10 11  2  0  0  0
 10 26  1  0  0  0
 11 12  1  0  0  0
 11 34  1  0  0  0
 12 13  2  0  0  0
 12 35  1  0  0  0
 13 14  1  0  0  0
 13 22  1  0  0  0
 14 36  1  0  0  0
 15 16  1  0  0  0
 15 20  2  0  0  0
 15 21  1  0  0  0
 16 17  2  0  0  0
 17 18  1  0  0  0
 18 19  2  0  0  0
 18 37  1  0  0  0
 19 20  1  0  0  0
 19 38  1  0  0  0
 21 39  1  0  0  0
 21 40  1  0  0  0
 22 23  1  0  0  0
 22 24  1  0  0  0
 22 25  1  0  0  0
 26 27  1  0  0  0
 26 28  1  0  0  0
 26 29  1  0  0  0
M  END
> <s_m_entry_id>
6398

> <s_m_entry_name>
dock_pv.324

> <s_m_Source_Path>
/home/csk/Desktop/cluster/DUD-E-result/abl1

> <s_m_Source_File>
dock_pv.maegz

> <i_m_Source_File_Index>
324

> <chembl_id>
CHEMBL3330127

> <chembl_pref_name>
None

> <i_lp_mmshare_version>
53161

> <i_f3d_flags>
0

> <r_lp_tautomer_probability>
0.999999987636

> <s_lp_Force_Field>
OPLS_2005

> <r_lp_Energy>
2.567666

> <b_lp_Chiralities_Consistent>
1

> <s_lp_Variant>
CHEMBL1862_lig869-1

> <s_i_glide_gridfile>
glide-grid_2hzi

> <i_i_glide_lignum>
1009

> <i_i_glide_rotatable_bonds>
5

> <r_i_docking_score>
-7.69787750262877

> <r_i_glide_ligand_efficiency>
-0.265444051814785

> <r_i_glide_ligand_efficiency_sa>
-0.815528225753416

> <r_i_glide_ligand_efficiency_ln>
-1.76261874677095

> <r_i_glide_gscore>
-7.69787750262877

> <r_i_glide_lipo>
-4.35838837768525

> <r_i_glide_hbond>
-0.470873350931889

> <r_i_glide_metal>
0

> <r_i_glide_rewards>
-2.58993422991836

> <r_i_glide_evdw>
1.30378222465515

> <r_i_glide_ecoul>
-3.57527208328247

> <r_i_glide_erotb>
0.228974996503231

> <r_i_glide_esite>
-0.0365548393368893

> <r_i_glide_emodel>
-38.4219120739491

> <r_i_glide_energy>
-2.27148985862732

> <r_i_glide_einternal>
1.14181208610535

> <i_i_glide_confnum>
3

> <i_i_glide_posenum>
369

> <r_i_glide_eff_state_penalty>
0

> <s_user_duplicate_titles>
CHEMBL1862_lig869

> <s_m_subgroup_title>
dock_pv

> <s_m_subgroupid>
dock_pv

> <b_m_subgroup_collapsed>
0

$$$$
CHEMBL1862_lig798
                    3D
 Schrodinger Suite 2021-1.
 44 48  0  0  1  0            999 V2000
   19.2656   18.4330    5.7700 C   0  0  0  0  0  0
   19.4885   16.5027    3.7048 C   0  0  0  0  0  0
   18.3308   16.5010    4.5407 C   0  0  0  0  0  0
   18.2888   17.4537    5.6032 C   0  0  0  0  0  0
   17.3640   17.4190    6.5696 N   0  0  0  0  0  0
   16.4178   16.4750    6.4743 C   0  0  0  0  0  0
   16.2486   15.6328    5.4625 N   0  0  0  0  0  0
   17.1836   15.6330    4.4902 C   0  0  0  0  0  0
   16.9218   14.7392    3.4489 N   0  0  0  0  0  0
   15.7926   13.9269    3.2055 C   0  0  0  0  0  0
   14.4772   14.1530    3.6886 C   0  0  0  0  0  0
   13.4086   13.2914    3.3656 C   0  0  0  0  0  0
   13.6871   12.2542    2.4839 C   0  0  0  0  0  0
   14.9641   12.0330    2.0030 C   0  0  0  0  0  0
   16.0220   12.8330    2.3891 C   0  0  0  0  0  0
   20.4328   18.2902    5.0764 C   0  0  0  0  0  0
   20.5534   17.3495    4.0506 C   0  0  0  0  0  0
   21.7470   17.2388    3.3897 O   0  0  0  0  0  0
   22.8676   17.6330    4.1948 C   0  0  0  0  0  0
   22.6455   19.0265    4.7823 C   0  0  0  0  0  0
   21.4973   18.9838    5.6030 O   0  0  0  0  0  0
   12.0141   13.4286    3.9085 C   0  0  0  0  0  0
   11.7812   13.9911    5.1694 C   0  0  0  0  0  0
   10.4919   14.0330    5.7023 C   0  0  0  0  0  0
    9.4123   13.5652    4.9657 C   0  0  0  0  0  0
    9.6139   13.0068    3.7113 C   0  0  0  0  0  0
   10.9052   12.9173    3.2030 C   0  0  0  0  0  0
   19.1985   19.1322    6.5911 H   0  0  0  0  0  0
   19.5925   15.7865    2.9021 H   0  0  0  0  0  0
   15.7052   16.4134    7.2766 H   0  0  0  0  0  0
   17.6957   14.5927    2.8197 H   0  0  0  0  0  0
   14.2545   15.0106    4.3000 H   0  0  0  0  0  0
   12.9156   11.5755    2.1622 H   0  0  0  0  0  0
   15.1076   11.2330    1.2995 H   0  0  0  0  0  0
   17.0107   12.6270    2.0030 H   0  0  0  0  0  0
   23.7640   17.6330    3.6030 H   0  0  0  0  0  0
   23.0097   16.9145    5.0054 H   0  0  0  0  0  0
   22.5012   19.7484    3.9765 H   0  0  0  0  0  0
   23.5073   19.3423    5.3707 H   0  0  0  0  0  0
   12.6053   14.3564    5.7646 H   0  0  0  0  0  0
   10.3185   14.4330    6.6901 H   0  0  0  0  0  0
    8.4175   13.6099    5.3832 H   0  0  0  0  0  0
    8.7792   12.6120    3.1499 H   0  0  0  0  0  0
   11.0189   12.4330    2.2440 H   0  0  0  0  0  0
  1 16  1  0  0  0
  1  4  2  0  0  0
  1 28  1  0  0  0
  2  3  2  0  0  0
  2 17  1  0  0  0
  2 29  1  0  0  0
  3  4  1  0  0  0
  3  8  1  0  0  0
  4  5  1  0  0  0
  5  6  2  0  0  0
  6  7  1  0  0  0
  6 30  1  0  0  0
  7  8  2  0  0  0
  8  9  1  0  0  0
  9 10  1  0  0  0
  9 31  1  0  0  0
 10 11  2  0  0  0
 10 15  1  0  0  0
 11 12  1  0  0  0
 11 32  1  0  0  0
 12 13  2  0  0  0
 12 22  1  0  0  0
 13 14  1  0  0  0
 13 33  1  0  0  0
 14 15  2  0  0  0
 14 34  1  0  0  0
 15 35  1  0  0  0
 16 17  2  0  0  0
 16 21  1  0  0  0
 17 18  1  0  0  0
 18 19  1  0  0  0
 19 20  1  0  0  0
 19 36  1  0  0  0
 19 37  1  0  0  0
 20 21  1  0  0  0
 20 38  1  0  0  0
 20 39  1  0  0  0
 22 23  2  0  0  0
 22 27  1  0  0  0
 23 24  1  0  0  0
 23 40  1  0  0  0
 24 25  2  0  0  0
 24 41  1  0  0  0
 25 26  1  0  0  0
 25 42  1  0  0  0
 26 27  2  0  0  0
 26 43  1  0  0  0
 27 44  1  0  0  0
M  END
> <s_m_entry_id>
6399

> <s_m_entry_name>
dock_pv.325

> <s_m_Source_Path>
/home/csk/Desktop/cluster/DUD-E-result/abl1

> <s_m_Source_File>
dock_pv.maegz

> <i_m_Source_File_Index>
325

> <chembl_id>
CHEMBL2419761

> <chembl_pref_name>
None

> <i_lp_mmshare_version>
53161

> <i_f3d_flags>
0

> <r_lp_tautomer_probability>
0.999978000241998

> <s_lp_Force_Field>
OPLS_2005

> <r_lp_Energy>
24.347179

> <b_lp_Chiralities_Consistent>
1

> <s_lp_Variant>
CHEMBL1862_lig798-1

> <s_i_glide_gridfile>
glide-grid_2hzi

> <i_i_glide_lignum>
931

> <i_i_glide_rotatable_bonds>
3

> <r_i_docking_score>
-7.67748430949772

> <r_i_glide_ligand_efficiency>
-0.284351270722138

> <r_i_glide_ligand_efficiency_sa>
-0.853053811229238

> <r_i_glide_ligand_efficiency_ln>
-1.78719177402999

> <r_i_glide_gscore>
-7.67748430949772

> <r_i_glide_lipo>
-4.60373757299645

> <r_i_glide_hbond>
0

> <r_i_glide_metal>
0

> <r_i_glide_rewards>
-1.95778575294709

> <r_i_glide_evdw>
-23.8545436859131

> <r_i_glide_ecoul>
-2.51589822769165

> <r_i_glide_erotb>
0.454150934895219

> <r_i_glide_esite>
0

> <r_i_glide_emodel>
-27.4160383838846

> <r_i_glide_energy>
-26.3704419136047

> <r_i_glide_einternal>
2.54856872558594

> <i_i_glide_confnum>
5

> <i_i_glide_posenum>
58

> <r_i_glide_eff_state_penalty>
0

> <s_user_duplicate_titles>
CHEMBL1862_lig798,CHEMBL1862_lig819

> <s_m_subgroup_title>
dock_pv

> <s_m_subgroupid>
dock_pv

> <b_m_subgroup_collapsed>
0

$$$$
CHEMBL1862_lig816
                    3D
 Schrodinger Suite 2021-1.
 47 49  0  0  1  0            999 V2000
   14.4663   12.9648    3.6030 C   0  0  0  0  0  0
   13.4795   13.7556    4.1986 C   0  0  0  0  0  0
   14.1618   14.8134    4.7861 C   0  0  0  0  0  0
   15.6844   13.6330    3.6681 C   0  0  0  0  0  0
   15.4990   14.7536    4.4685 N   0  0  0  0  0  0
   16.5462   15.7513    4.7475 C   0  0  2  0  0  0
   17.4704   15.6792    3.4801 C   0  0  0  0  0  0
   17.8657   14.2825    3.2030 N   0  0  0  0  0  0
   17.0000   13.2418    3.2030 C   0  0  0  0  0  0
   17.3622   12.1311    2.8249 O   0  0  0  0  0  0
   17.2552   15.7662    6.1374 C   0  0  0  0  0  0
   18.7510   15.4211    6.1320 C   0  0  0  0  0  0
   19.1541   14.2964    6.4030 O   0  0  0  0  0  0
   19.5694   16.4330    5.8223 N   0  0  0  0  0  0
   21.0235   16.3724    5.8663 C   0  0  0  0  0  0
   21.7111   17.4775    5.0253 C   0  0  0  0  0  0
   21.5175   18.8862    5.6030 C   0  0  0  0  0  0
   21.2049   17.4501    3.5604 C   0  0  0  0  0  0
   23.2093   17.2067    5.0770 C   0  0  0  0  0  0
   12.0445   13.5267    4.1941 C   0  0  0  0  0  0
    9.5074   13.6330    4.8534 S   0  0  0  0  0  0
   11.1761   13.9539    5.1834 C   0  0  0  0  0  0
   11.3386   12.8330    3.2030 C   0  0  0  0  0  0
    9.9607   12.8330    3.3895 C   0  0  0  0  0  0
   14.2950   12.0263    3.0925 H   0  0  0  0  0  0
   13.7874   15.6446    5.3609 H   0  0  0  0  0  0
   16.0194   16.7021    4.8030 H   0  0  0  0  0  0
   18.3484   16.3183    3.5443 H   0  0  0  0  0  0
   16.9640   16.0330    2.5858 H   0  0  0  0  0  0
   18.8463   14.0399    3.1835 H   0  0  0  0  0  0
   16.7103   15.2330    6.9068 H   0  0  0  0  0  0
   17.1999   16.7846    6.5293 H   0  0  0  0  0  0
   19.1685   17.3311    5.6017 H   0  0  0  0  0  0
   21.3446   15.3908    5.5051 H   0  0  0  0  0  0
   21.3561   16.4303    6.9053 H   0  0  0  0  0  0
   22.2204   19.0979    6.4030 H   0  0  0  0  0  0
   21.7640   19.6330    4.8486 H   0  0  0  0  0  0
   20.5103   19.0583    5.9845 H   0  0  0  0  0  0
   21.1588   16.4335    3.1689 H   0  0  0  0  0  0
   20.2008   17.8665    3.4767 H   0  0  0  0  0  0
   21.8450   18.0327    2.8956 H   0  0  0  0  0  0
   23.3640   16.1721    4.8030 H   0  0  0  0  0  0
   23.7641   17.8535    4.4030 H   0  0  0  0  0  0
   23.6254   17.3306    6.0787 H   0  0  0  0  0  0
   11.4604   14.4330    6.0935 H   0  0  0  0  0  0
   11.8148   12.3719    2.3495 H   0  0  0  0  0  0
    9.2087   12.3799    2.7594 H   0  0  0  0  0  0
  1  2  1  0  0  0
  1  4  2  0  0  0
  1 25  1  0  0  0
  2  3  2  0  0  0
  2 20  1  0  0  0
  3  5  1  0  0  0
  3 26  1  0  0  0
  4  5  1  0  0  0
  4  9  1  0  0  0
  5  6  1  0  0  0
  6  7  1  0  0  0
  6 11  1  0  0  0
  6 27  1  0  0  0
  7  8  1  0  0  0
  7 28  1  0  0  0
  7 29  1  0  0  0
  8  9  1  0  0  0
  8 30  1  0  0  0
  9 10  2  0  0  0
 11 12  1  0  0  0
 11 31  1  0  0  0
 11 32  1  0  0  0
 12 13  2  0  0  0
 12 14  1  0  0  0
 14 15  1  0  0  0
 14 33  1  0  0  0
 15 16  1  0  0  0
 15 34  1  0  0  0
 15 35  1  0  0  0
 16 17  1  0  0  0
 16 18  1  0  0  0
 16 19  1  0  0  0
 17 36  1  0  0  0
 17 37  1  0  0  0
 17 38  1  0  0  0
 18 39  1  0  0  0
 18 40  1  0  0  0
 18 41  1  0  0  0
 19 42  1  0  0  0
 19 43  1  0  0  0
 19 44  1  0  0  0
 20 22  2  0  0  0
 20 23  1  0  0  0
 21 22  1  0  0  0
 21 24  1  0  0  0
 22 45  1  0  0  0
 23 24  2  0  0  0
 23 46  1  0  0  0
 24 47  1  0  0  0
M  END
> <s_m_entry_id>
6401

> <s_m_entry_name>
dock_pv.327

> <s_m_Source_Path>
/home/csk/Desktop/cluster/DUD-E-result/abl1

> <s_m_Source_File>
dock_pv.maegz

> <i_m_Source_File_Index>
327

> <chembl_id>
CHEMBL3298400

> <chembl_pref_name>
None

> <i_lp_mmshare_version>
53161

> <i_f3d_flags>
0

> <r_lp_tautomer_probability>
1

> <s_lp_Force_Field>
OPLS_2005

> <r_lp_Energy>
21.874272

> <b_lp_Chiralities_Consistent>
1

> <s_lp_Variant>
CHEMBL1862_lig816-1

> <s_i_glide_gridfile>
glide-grid_2hzi

> <i_i_glide_lignum>
953

> <i_i_glide_rotatable_bonds>
6

> <r_i_docking_score>
-7.67305688299731

> <r_i_glide_ligand_efficiency>
-0.319710703458221

> <r_i_glide_ligand_efficiency_sa>
-0.922205248393658

> <r_i_glide_ligand_efficiency_ln>
-1.83651460573889

> <r_i_glide_gscore>
-7.67305688299731

> <r_i_glide_lipo>
-3.91151272485456

> <r_i_glide_hbond>
-0.0902009938655018

> <r_i_glide_metal>
0

> <r_i_glide_rewards>
-2.48681275733439

> <r_i_glide_evdw>
-30.7598648071289

> <r_i_glide_ecoul>
-2.95044660568237

> <r_i_glide_erotb>
0.796029824265952

> <r_i_glide_esite>
0

> <r_i_glide_emodel>
-31.5716118831545

> <r_i_glide_energy>
-33.7103114128113

> <r_i_glide_einternal>
14.3881998062134

> <i_i_glide_confnum>
37

> <i_i_glide_posenum>
25

> <r_i_glide_eff_state_penalty>
0

> <s_user_duplicate_titles>
CHEMBL1862_lig816

> <s_m_subgroup_title>
dock_pv

> <s_m_subgroupid>
dock_pv

> <b_m_subgroup_collapsed>
0

$$$$
CHEMBL1862_lig126
                    3D
 Schrodinger Suite 2021-1.
 41 43  0  0  1  0            999 V2000
   14.1920   12.7565    2.6723 C   0  0  0  0  0  0
   14.4565   13.7347    3.6444 C   0  0  0  0  0  0
   13.4055   14.1765    4.4593 C   0  0  0  0  0  0
   12.1074   13.6978    4.2770 C   0  0  0  0  0  0
   11.8332   12.8331    3.2080 C   0  0  0  0  0  0
   12.8779   12.3540    2.4279 C   0  0  0  0  0  0
   15.3132   12.1067    1.8751 C   0  0  0  0  0  0
   15.7634   14.2465    3.7275 N   0  0  0  0  0  0
   16.4050   15.1958    4.5249 C   0  0  0  0  0  0
   11.1757   14.0115    5.2767 N   0  0  0  0  0  0
   17.6081   15.5963    4.0476 N   0  0  0  0  0  0
   18.2797   16.5452    4.7567 C   0  0  0  0  0  0
   17.7683   17.0420    5.9581 C   0  0  0  0  0  0
   16.5647   16.5161    6.4031 C   0  0  0  0  0  0
   15.8416   15.6330    5.6797 N   0  0  0  0  0  0
    9.8346   14.0122    5.2105 C   0  0  0  0  0  0
    9.1160   14.0644    6.5580 C   0  0  0  0  0  0
    9.1849   13.9827    4.1684 O   0  0  0  0  0  0
   19.5203   17.0885    4.1448 C   0  0  0  0  0  0
   19.7312   17.0353    2.7587 C   0  0  0  0  0  0
   20.8518   17.6333    2.1979 C   0  0  0  0  0  0
   21.7519   18.2742    3.0467 C   0  0  0  0  0  0
   21.6101   18.3107    4.3921 N   0  0  0  0  0  0
   20.5118   17.7152    4.9180 C   0  0  0  0  0  0
   13.5832   14.8772    5.2571 H   0  0  0  0  0  0
   10.8403   12.4446    3.0403 H   0  0  0  0  0  0
   12.6646   11.6275    1.6574 H   0  0  0  0  0  0
   16.0902   11.7491    2.5513 H   0  0  0  0  0  0
   14.9634   11.2510    1.2944 H   0  0  0  0  0  0
   15.7632   12.8349    1.2063 H   0  0  0  0  0  0
   16.3378   13.9771    2.9443 H   0  0  0  0  0  0
   11.5816   14.2048    6.1786 H   0  0  0  0  0  0
   18.2501   17.8307    6.5105 H   0  0  0  0  0  0
   16.1586   16.8348    7.3473 H   0  0  0  0  0  0
    8.4491   14.9211    6.6293 H   0  0  0  0  0  0
    9.8183   14.1227    7.3902 H   0  0  0  0  0  0
    8.5157   13.1632    6.6905 H   0  0  0  0  0  0
   19.0154   16.5614    2.1039 H   0  0  0  0  0  0
   20.9981   17.6301    1.1275 H   0  0  0  0  0  0
   22.5641   18.8325    2.6286 H   0  0  0  0  0  0
   20.4381   17.7733    5.9941 H   0  0  0  0  0  0
  1  6  1  0  0  0
  1  2  2  0  0  0
  1  7  1  0  0  0
  2  8  1  0  0  0
  2  3  1  0  0  0
  3  4  2  0  0  0
  3 25  1  0  0  0
  4  5  1  0  0  0
  4 10  1  0  0  0
  5  6  2  0  0  0
  5 26  1  0  0  0
  6 27  1  0  0  0
  7 28  1  0  0  0
  7 29  1  0  0  0
  7 30  1  0  0  0
  8  9  1  0  0  0
  8 31  1  0  0  0
  9 15  1  0  0  0
  9 11  2  0  0  0
 10 16  1  0  0  0
 10 32  1  0  0  0
 11 12  1  0  0  0
 12 13  2  0  0  0
 12 19  1  0  0  0
 13 14  1  0  0  0
 13 33  1  0  0  0
 14 15  2  0  0  0
 14 34  1  0  0  0
 16 17  1  0  0  0
 16 18  2  0  0  0
 17 35  1  0  0  0
 17 36  1  0  0  0
 17 37  1  0  0  0
 19 20  2  0  0  0
 19 24  1  0  0  0
 20 21  1  0  0  0
 20 38  1  0  0  0
 21 22  2  0  0  0
 21 39  1  0  0  0
 22 23  1  0  0  0
 22 40  1  0  0  0
 23 24  2  0  0  0
 24 41  1  0  0  0
M  END
> <s_m_entry_id>
6403

> <s_m_entry_name>
dock_pv.329

> <s_m_Source_Path>
/home/csk/Desktop/cluster/DUD-E-result/abl1

> <s_m_Source_File>
dock_pv.maegz

> <i_m_Source_File_Index>
329

> <chembl_id>
CHEMBL423288

> <chembl_pref_name>
None

> <i_lp_mmshare_version>
53161

> <i_f3d_flags>
0

> <r_lp_tautomer_probability>
0.999999987636

> <s_lp_Force_Field>
OPLS_2005

> <r_lp_Energy>
14.701175

> <b_lp_Chiralities_Consistent>
1

> <s_lp_Variant>
CHEMBL1862_lig126-1

> <s_i_glide_gridfile>
glide-grid_2hzi

> <i_i_glide_lignum>
145

> <i_i_glide_rotatable_bonds>
5

> <r_i_docking_score>
-7.64535694162216

> <r_i_glide_ligand_efficiency>
-0.318556539234257

> <r_i_glide_ligand_efficiency_sa>
-0.918876062685031

> <r_i_glide_ligand_efficiency_ln>
-1.82988473870033

> <r_i_glide_gscore>
-7.64535694162216

> <r_i_glide_lipo>
-3.81720617055016

> <r_i_glide_hbond>
0

> <r_i_glide_metal>
0

> <r_i_glide_rewards>
-2.40848888044864

> <r_i_glide_evdw>
-42.7300224304199

> <r_i_glide_ecoul>
-0.0993452742695808

> <r_i_glide_erotb>
0.73174102203807

> <r_i_glide_esite>
0

> <r_i_glide_emodel>
-52.0183033221548

> <r_i_glide_energy>
-42.8293677046895

> <r_i_glide_einternal>
14.8360004425049

> <i_i_glide_confnum>
7

> <i_i_glide_posenum>
322

> <r_i_glide_eff_state_penalty>
0

> <s_user_duplicate_titles>
CHEMBL1862_lig126

> <s_m_subgroup_title>
dock_pv

> <s_m_subgroupid>
dock_pv

> <b_m_subgroup_collapsed>
0

$$$$
CHEMBL1862_lig16
                    3D
 Schrodinger Suite 2021-1.
 43 46  0  0  1  0            999 V2000
   18.6744   17.3093    5.0029 N   0  0  0  0  0  0
   17.6849   17.2330    5.9247 C   0  0  0  0  0  0
   16.6268   16.3868    5.9288 N   0  0  0  0  0  0
   18.6838   16.3736    4.0103 C   0  0  0  0  0  0
   17.6952   15.3887    3.9650 C   0  0  0  0  0  0
   16.6780   15.5002    4.9271 C   0  0  0  0  0  0
   15.7535   14.5404    4.5829 N   0  0  0  0  0  0
   16.1790   13.7777    3.5536 N   0  0  0  0  0  0
   17.3514   14.2345    3.2030 C   0  0  0  0  0  0
   19.6614   16.4004    3.0079 N   0  0  0  0  0  0
   14.4644   14.2976    5.2030 C   0  0  0  0  0  0
   13.2549   14.9303    4.4973 C   0  0  1  0  0  0
   13.7640   16.3871    3.6030 Cl  0  0  0  0  0  0
   12.3747   13.9246    3.7306 C   0  0  0  0  0  0
   12.9378   12.9591    2.8868 C   0  0  0  0  0  0
   10.7519   12.0330    2.4432 C   0  0  0  0  0  0
   10.1757   12.9830    3.2867 C   0  0  0  0  0  0
   12.1291   12.0218    2.2537 C   0  0  0  0  0  0
   10.9853   13.9209    3.9330 C   0  0  0  0  0  0
    9.7631   10.8953    1.6030 Cl  0  0  0  0  0  0
   20.5783   17.5217    2.8826 C   0  0  0  0  0  0
   21.5609   17.6466    4.0399 C   0  0  0  0  0  0
   21.7640   16.6392    4.9990 C   0  0  0  0  0  0
   23.3640   18.0277    6.1532 N   0  0  0  0  0  0
   23.1780   18.9717    5.2030 C   0  0  0  0  0  0
   22.6571   16.8765    6.0393 C   0  0  0  0  0  0
   22.2794   18.8330    4.1517 C   0  0  0  0  0  0
   17.7140   17.9708    6.7136 H   0  0  0  0  0  0
   17.9099   13.7740    2.4030 H   0  0  0  0  0  0
   19.6419   15.7094    2.2697 H   0  0  0  0  0  0
   14.5172   14.6743    6.2241 H   0  0  0  0  0  0
   14.3330   13.2330    5.2030 H   0  0  0  0  0  0
   12.6118   15.3251    5.2748 H   0  0  0  0  0  0
   13.9986   12.9215    2.7076 H   0  0  0  0  0  0
    9.1063   12.9902    3.4396 H   0  0  0  0  0  0
   12.5641   11.2783    1.6030 H   0  0  0  0  0  0
   10.5255   14.6439    4.5910 H   0  0  0  0  0  0
   21.1165   17.4554    1.9371 H   0  0  0  0  0  0
   19.9807   18.4316    2.8445 H   0  0  0  0  0  0
   21.2429   15.6949    4.9496 H   0  0  0  0  0  0
   23.7640   19.8734    5.2824 H   0  0  0  0  0  0
   22.8433   16.1255    6.7938 H   0  0  0  0  0  0
   22.1640   19.6295    3.4317 H   0  0  0  0  0  0
  1  2  2  0  0  0
  1  4  1  0  0  0
  2  3  1  0  0  0
  2 28  1  0  0  0
  3  6  2  0  0  0
  4  5  2  0  0  0
  4 10  1  0  0  0
  5  9  1  0  0  0
  5  6  1  0  0  0
  6  7  1  0  0  0
  7  8  1  0  0  0
  7 11  1  0  0  0
  8  9  2  0  0  0
  9 29  1  0  0  0
 10 21  1  0  0  0
 10 30  1  0  0  0
 11 12  1  0  0  0
 11 31  1  0  0  0
 11 32  1  0  0  0
 12 13  1  0  0  0
 12 14  1  0  0  0
 12 33  1  0  0  0
 14 15  2  0  0  0
 14 19  1  0  0  0
 15 18  1  0  0  0
 15 34  1  0  0  0
 16 17  1  0  0  0
 16 18  2  0  0  0
 16 20  1  0  0  0
 17 19  2  0  0  0
 17 35  1  0  0  0
 18 36  1  0  0  0
 19 37  1  0  0  0
 21 22  1  0  0  0
 21 38  1  0  0  0
 21 39  1  0  0  0
 22 23  2  0  0  0
 22 27  1  0  0  0
 23 26  1  0  0  0
 23 40  1  0  0  0
 24 25  1  0  0  0
 24 26  2  0  0  0
 25 27  2  0  0  0
 25 41  1  0  0  0
 26 42  1  0  0  0
 27 43  1  0  0  0
M  END
> <s_m_entry_id>
6404

> <s_m_entry_name>
dock_pv.330

> <s_m_Source_Path>
/home/csk/Desktop/cluster/DUD-E-result/abl1

> <s_m_Source_File>
dock_pv.maegz

> <i_m_Source_File_Index>
330

> <chembl_id>
CHEMBL1775046

> <chembl_pref_name>
None

> <i_lp_mmshare_version>
53161

> <i_f3d_flags>
0

> <r_lp_tautomer_probability>
1

> <s_lp_Force_Field>
OPLS_2005

> <r_lp_Energy>
3.651066

> <b_lp_Chiralities_Consistent>
1

> <s_lp_Variant>
CHEMBL1862_lig16-2

> <s_i_glide_gridfile>
glide-grid_2hzi

> <i_i_glide_lignum>
26

> <i_i_glide_rotatable_bonds>
6

> <r_i_docking_score>
-7.63734218964988

> <r_i_glide_ligand_efficiency>
-0.282864525542588

> <r_i_glide_ligand_efficiency_sa>
-0.848593575695489

> <r_i_glide_ligand_efficiency_ln>
-1.77784735032398

> <r_i_glide_gscore>
-7.63734218964988

> <r_i_glide_lipo>
-3.87488549937535

> <r_i_glide_hbond>
-0.105346092503811

> <r_i_glide_metal>
0

> <r_i_glide_rewards>
-2.10014776907651

> <r_i_glide_evdw>
-38.5272178649902

> <r_i_glide_ecoul>
-2.45335102081299

> <r_i_glide_erotb>
0.737400717677253

> <r_i_glide_esite>
0

> <r_i_glide_emodel>
-51.5463874335228

> <r_i_glide_energy>
-40.9805688858032

> <r_i_glide_einternal>
7.50666379928589

> <i_i_glide_confnum>
21

> <i_i_glide_posenum>
395

> <r_i_glide_eff_state_penalty>
0

> <s_user_duplicate_titles>
CHEMBL1862_lig16

> <s_m_subgroup_title>
dock_pv

> <s_m_subgroupid>
dock_pv

> <b_m_subgroup_collapsed>
0

$$$$
CHEMBL1862_lig546
                    3D
 Schrodinger Suite 2021-1.
 42 46  0  0  1  0            999 V2000
   14.4066   12.0329    1.9948 N   0  0  0  0  0  0
   13.0500   12.0332    2.0385 C   0  0  0  0  0  0
   12.2625   12.6475    2.9283 N   0  0  0  0  0  0
   15.0728   12.7335    2.9064 C   0  0  0  0  0  0
   14.3617   13.5907    3.7527 C   0  0  0  0  0  0
   12.9515   13.4536    3.7236 C   0  0  0  0  0  0
   12.4373   14.3308    4.6370 N   0  0  0  0  0  0
   13.4635   15.0215    5.2055 N   0  0  0  0  0  0
   14.6121   14.6508    4.6529 C   0  0  0  0  0  0
   15.9357   15.3368    4.8552 C   0  0  0  0  0  0
   16.9431   15.2802    3.8751 C   0  0  0  0  0  0
   17.2911   16.8424    6.2026 C   0  0  0  0  0  0
   16.1488   16.0616    6.0197 C   0  0  0  0  0  0
   16.4449   12.5177    2.9357 N   0  0  0  0  0  0
   18.3066   16.8137    5.2388 C   0  0  0  0  0  0
   18.1236   15.9951    4.0912 C   0  0  0  0  0  0
   19.2618   16.1234    3.3203 N   0  0  0  0  0  0
   20.1292   17.0078    3.9075 C   0  0  0  0  0  0
   19.5767   17.4653    5.0852 C   0  0  0  0  0  0
   11.0080   14.5773    4.9707 C   0  0  0  0  0  0
   10.0061   14.3971    3.8025 C   0  0  0  0  0  0
    9.1603   13.1761    4.1512 C   0  0  0  0  0  0
    9.0310   13.3039    5.6682 C   0  0  0  0  0  0
   10.4358   13.7054    6.1145 C   0  0  0  0  0  0
   12.5202   11.3533    1.3885 H   0  0  0  0  0  0
   16.7784   14.8390    2.9106 H   0  0  0  0  0  0
   17.3758   17.4883    7.0592 H   0  0  0  0  0  0
   15.3702   16.0360    6.7691 H   0  0  0  0  0  0
   16.9945   13.0049    3.6292 H   0  0  0  0  0  0
   16.8773   11.9256    2.2493 H   0  0  0  0  0  0
   19.4807   15.6493    2.4529 H   0  0  0  0  0  0
   21.0703   17.2341    3.4295 H   0  0  0  0  0  0
   20.0433   18.1753    5.7513 H   0  0  0  0  0  0
   10.9878   15.6391    5.2027 H   0  0  0  0  0  0
    9.3162   15.2319    3.7725 H   0  0  0  0  0  0
   10.4609   14.3759    2.8148 H   0  0  0  0  0  0
    8.1976   13.1790    3.6434 H   0  0  0  0  0  0
    9.6718   12.2532    3.8746 H   0  0  0  0  0  0
    8.3220   14.0952    5.9195 H   0  0  0  0  0  0
    8.6822   12.3980    6.1607 H   0  0  0  0  0  0
   11.0630   12.8322    6.2856 H   0  0  0  0  0  0
   10.3863   14.2662    7.0511 H   0  0  0  0  0  0
  1  2  2  0  0  0
  1  4  1  0  0  0
  2  3  1  0  0  0
  2 25  1  0  0  0
  3  6  2  0  0  0
  4 14  1  0  0  0
  4  5  2  0  0  0
  5  9  1  0  0  0
  5  6  1  0  0  0
  6  7  1  0  0  0
  7  8  1  0  0  0
  7 20  1  0  0  0
  8  9  2  0  0  0
  9 10  1  0  0  0
 10 13  1  0  0  0
 10 11  2  0  0  0
 11 16  1  0  0  0
 11 26  1  0  0  0
 12 15  1  0  0  0
 12 13  2  0  0  0
 12 27  1  0  0  0
 13 28  1  0  0  0
 14 29  1  0  0  0
 14 30  1  0  0  0
 15 16  2  0  0  0
 15 19  1  0  0  0
 16 17  1  0  0  0
 17 18  1  0  0  0
 17 31  1  0  0  0
 18 19  2  0  0  0
 18 32  1  0  0  0
 19 33  1  0  0  0
 20 21  1  0  0  0
 20 24  1  0  0  0
 20 34  1  0  0  0
 21 22  1  0  0  0
 21 35  1  0  0  0
 21 36  1  0  0  0
 22 23  1  0  0  0
 22 37  1  0  0  0
 22 38  1  0  0  0
 23 24  1  0  0  0
 23 39  1  0  0  0
 23 40  1  0  0  0
 24 41  1  0  0  0
 24 42  1  0  0  0
M  END
> <s_m_entry_id>
6405

> <s_m_entry_name>
dock_pv.331

> <s_m_Source_Path>
/home/csk/Desktop/cluster/DUD-E-result/abl1

> <s_m_Source_File>
dock_pv.maegz

> <i_m_Source_File_Index>
331

> <chembl_id>
CHEMBL1242664

> <chembl_pref_name>
None

> <i_lp_mmshare_version>
53161

> <i_f3d_flags>
0

> <r_lp_tautomer_probability>
1

> <s_lp_Force_Field>
OPLS_2005

> <r_lp_Energy>
29.155983

> <b_lp_Chiralities_Consistent>
1

> <s_lp_Variant>
CHEMBL1862_lig546-1

> <s_i_glide_gridfile>
glide-grid_2hzi

> <i_i_glide_lignum>
649

> <i_i_glide_rotatable_bonds>
2

> <r_i_docking_score>
-7.61478679231986

> <r_i_glide_ligand_efficiency>
-0.317282783013327

> <r_i_glide_ligand_efficiency_sa>
-0.9152019139643

> <r_i_glide_ligand_efficiency_ln>
-1.82256789919954

> <r_i_glide_gscore>
-7.61478679231986

> <r_i_glide_lipo>
-3.75563007070459

> <r_i_glide_hbond>
-0.0346469853921726

> <r_i_glide_metal>
0

> <r_i_glide_rewards>
-2.74502820434708

> <r_i_glide_evdw>
-28.6107559204102

> <r_i_glide_ecoul>
-0.112065002322197

> <r_i_glide_erotb>
0.36786601449283

> <r_i_glide_esite>
0

> <r_i_glide_emodel>
-32.8314015912779

> <r_i_glide_energy>
-28.7228209227324

> <r_i_glide_einternal>
4.09753179550171

> <i_i_glide_confnum>
55

> <i_i_glide_posenum>
163

> <r_i_glide_eff_state_penalty>
0

> <s_user_duplicate_titles>
CHEMBL1862_lig546

> <s_m_subgroup_title>
dock_pv

> <s_m_subgroupid>
dock_pv

> <b_m_subgroup_collapsed>
0

$$$$
CHEMBL1862_lig67
                    3D
 Schrodinger Suite 2021-1.
 46 49  0  0  1  0            999 V2000
   14.1726   12.4299    2.5010 C   0  0  0  0  0  0
   15.5470   12.5960    2.3692 C   0  0  0  0  0  0
   16.2469   13.5000    3.1034 N   0  0  0  0  0  0
   15.5312   14.2514    3.9736 C   0  0  0  0  0  0
   14.1900   14.1758    4.1564 N   0  0  0  0  0  0
   13.5033   13.2581    3.4046 C   0  0  0  0  0  0
   16.2104   15.1542    4.8019 N   0  0  0  0  0  0
   17.5655   15.5072    4.7749 C   0  0  0  0  0  0
   18.3309   15.3697    5.9262 C   0  0  0  0  0  0
   19.6509   15.7959    5.9246 C   0  0  0  0  0  0
   20.1937   16.4231    4.7950 C   0  0  0  0  0  0
   19.4423   16.4748    3.6185 C   0  0  0  0  0  0
   18.1312   16.0166    3.6151 C   0  0  0  0  0  0
   12.0111   13.2266    3.6031 C   0  0  0  0  0  0
   11.2703   14.2791    4.8015 S   0  0  0  0  0  0
    9.7401   13.6332    4.4015 C   0  0  0  0  0  0
    9.7545   12.7404    3.4464 N   0  0  0  0  0  0
   10.9679   12.4744    3.0102 C   0  0  0  0  0  0
   11.0224   11.3804    1.9697 C   0  0  0  0  0  0
    8.6302   13.9967    5.0902 N   0  0  0  0  0  0
   21.4154   17.0691    4.8877 N   0  0  0  0  0  0
   21.8660   18.1241    3.9735 C   0  0  0  0  0  0
   22.6152   19.2081    4.7678 C   0  0  0  0  0  0
   23.7261   18.6356    5.4399 O   0  0  0  0  0  0
   23.3150   17.6324    6.3487 C   0  0  0  0  0  0
   22.5616   16.5145    5.6072 C   0  0  0  0  0  0
   13.6538   11.7000    1.9015 H   0  0  0  0  0  0
   16.1244   12.0373    1.6583 H   0  0  0  0  0  0
   15.6238   15.6270    5.4766 H   0  0  0  0  0  0
   17.9154   14.9510    6.8313 H   0  0  0  0  0  0
   20.2193   15.7064    6.8377 H   0  0  0  0  0  0
   19.8455   16.8972    2.7130 H   0  0  0  0  0  0
   17.5302   16.0984    2.7289 H   0  0  0  0  0  0
   11.3861   11.7414    1.0044 H   0  0  0  0  0  0
   11.6701   10.5553    2.2770 H   0  0  0  0  0  0
   10.0491   10.9146    1.7679 H   0  0  0  0  0  0
    7.7508   13.5372    4.9039 H   0  0  0  0  0  0
    8.6871   14.4981    5.9731 H   0  0  0  0  0  0
   22.4960   17.6947    3.1922 H   0  0  0  0  0  0
   21.0168   18.6002    3.4848 H   0  0  0  0  0  0
   21.9397   19.6544    5.4955 H   0  0  0  0  0  0
   22.9599   20.0080    4.1083 H   0  0  0  0  0  0
   22.6655   18.0321    7.1154 H   0  0  0  0  0  0
   24.1659   17.2497    6.8931 H   0  0  0  0  0  0
   22.2794   15.7311    6.3107 H   0  0  0  0  0  0
   23.2208   16.0348    4.8708 H   0  0  0  0  0  0
  1  2  2  0  0  0
  1  6  1  0  0  0
  1 27  1  0  0  0
  2  3  1  0  0  0
  2 28  1  0  0  0
  3  4  2  0  0  0
  4  7  1  0  0  0
  4  5  1  0  0  0
  5  6  2  0  0  0
  6 14  1  0  0  0
  7  8  1  0  0  0
  7 29  1  0  0  0
  8 13  1  0  0  0
  8  9  2  0  0  0
  9 10  1  0  0  0
  9 30  1  0  0  0
 10 11  2  0  0  0
 10 31  1  0  0  0
 11 21  1  0  0  0
 11 12  1  0  0  0
 12 13  2  0  0  0
 12 32  1  0  0  0
 13 33  1  0  0  0
 14 15  1  0  0  0
 14 18  2  0  0  0
 15 16  1  0  0  0
 16 17  2  0  0  0
 16 20  1  0  0  0
 17 18  1  0  0  0
 18 19  1  0  0  0
 19 34  1  0  0  0
 19 35  1  0  0  0
 19 36  1  0  0  0
 20 37  1  0  0  0
 20 38  1  0  0  0
 21 22  1  0  0  0
 21 26  1  0  0  0
 22 23  1  0  0  0
 22 39  1  0  0  0
 22 40  1  0  0  0
 23 24  1  0  0  0
 23 41  1  0  0  0
 23 42  1  0  0  0
 24 25  1  0  0  0
 25 26  1  0  0  0
 25 43  1  0  0  0
 25 44  1  0  0  0
 26 45  1  0  0  0
 26 46  1  0  0  0
M  END
> <s_m_entry_id>
6406

> <s_m_entry_name>
dock_pv.332

> <s_m_Source_Path>
/home/csk/Desktop/cluster/DUD-E-result/abl1

> <s_m_Source_File>
dock_pv.maegz

> <i_m_Source_File_Index>
332

> <chembl_id>
CHEMBL482967

> <chembl_pref_name>
CYC-116

> <i_lp_mmshare_version>
53161

> <i_f3d_flags>
0

> <r_lp_tautomer_probability>
0.999999987636

> <s_lp_Force_Field>
OPLS_2005

> <r_lp_Energy>
20.731247

> <b_lp_Chiralities_Consistent>
1

> <s_lp_Variant>
CHEMBL1862_lig67-1

> <s_i_glide_gridfile>
glide-grid_2hzi

> <i_i_glide_lignum>
83

> <i_i_glide_rotatable_bonds>
4

> <r_i_docking_score>
-7.60714665170561

> <r_i_glide_ligand_efficiency>
-0.292582563527139

> <r_i_glide_ligand_efficiency_sa>
-0.866774693192353

> <r_i_glide_ligand_efficiency_ln>
-1.78651343006898

> <r_i_glide_gscore>
-7.60714665170561

> <r_i_glide_lipo>
-4.29054207702

> <r_i_glide_hbond>
0

> <r_i_glide_metal>
0

> <r_i_glide_rewards>
-1.85137518103803

> <r_i_glide_evdw>
-43.3097152709961

> <r_i_glide_ecoul>
0.939803004264832

> <r_i_glide_erotb>
0.567766195258309

> <r_i_glide_esite>
-0.00848027599580492

> <r_i_glide_emodel>
-50.7784853654987

> <r_i_glide_energy>
-42.3699122667313

> <r_i_glide_einternal>
2.34767651557922

> <i_i_glide_confnum>
10

> <i_i_glide_posenum>
219

> <r_i_glide_eff_state_penalty>
0

> <s_user_duplicate_titles>
CHEMBL1862_lig67

> <s_m_subgroup_title>
dock_pv

> <s_m_subgroupid>
dock_pv

> <b_m_subgroup_collapsed>
0

$$$$
CHEMBL1862_lig158
                    3D
 Schrodinger Suite 2021-1.
 43 45  0  0  1  0            999 V2000
   16.4530   16.5336    6.8030 C   0  0  0  0  0  0
   17.5028   17.2333    6.2661 C   0  0  0  0  0  0
   17.9650   16.8643    5.0330 C   0  0  0  0  0  0
   15.7244   15.6330    6.0517 C   0  0  0  0  0  0
   16.1919   15.2258    4.7960 C   0  0  0  0  0  0
   17.4487   15.7386    4.3911 C   0  0  0  0  0  0
   18.1969   15.1263    3.3913 N   0  0  0  0  0  0
   15.8833   13.5065    3.1346 O   0  0  0  0  0  0
   15.3660   14.2415    3.9771 C   0  0  0  0  0  0
   14.0384   14.3000    4.2330 N   0  0  0  0  0  0
   12.9582   13.5665    3.7124 C   0  0  0  0  0  0
   13.0688   12.4861    2.8244 C   0  0  0  0  0  0
   11.9195   11.8352    2.3747 C   0  0  0  0  0  0
   10.6589   12.2424    2.8029 C   0  0  0  0  0  0
   10.5325   13.3108    3.6961 C   0  0  0  0  0  0
   11.6876   13.9649    4.1435 C   0  0  0  0  0  0
   19.6447   15.2329    3.2029 C   0  0  0  0  0  0
   20.5641   15.9629    4.1864 C   0  0  0  0  0  0
   21.1279   17.2040    3.8479 C   0  0  0  0  0  0
   21.9927   17.8182    4.7562 C   0  0  0  0  0  0
   22.3215   17.2618    5.9493 N   0  0  0  0  0  0
   21.7717   16.0614    6.2610 C   0  0  0  0  0  0
   20.8907   15.3852    5.4178 C   0  0  0  0  0  0
    9.1599   13.7478    4.1989 C   0  0  0  0  0  0
    8.7580   14.8121    3.5024 F   0  0  0  0  0  0
    9.2163   14.0721    5.4915 F   0  0  0  0  0  0
    8.2539   12.7820    4.0550 F   0  0  0  0  0  0
   16.1640   16.7863    7.8006 H   0  0  0  0  0  0
   17.9673   18.0457    6.8029 H   0  0  0  0  0  0
   18.7621   17.4538    4.6261 H   0  0  0  0  0  0
   14.8336   15.2146    6.4988 H   0  0  0  0  0  0
   17.7504   14.3308    2.9506 H   0  0  0  0  0  0
   13.7744   14.9969    4.9106 H   0  0  0  0  0  0
   14.0243   12.1302    2.4716 H   0  0  0  0  0  0
   12.0075   11.0035    1.6900 H   0  0  0  0  0  0
    9.7871   11.7118    2.4456 H   0  0  0  0  0  0
   11.5885   14.7916    4.8323 H   0  0  0  0  0  0
   19.9802   14.1978    3.2030 H   0  0  0  0  0  0
   19.7641   15.6344    2.1979 H   0  0  0  0  0  0
   20.9072   17.6722    2.8996 H   0  0  0  0  0  0
   22.4487   18.7716    4.5311 H   0  0  0  0  0  0
   22.0694   15.6340    7.2050 H   0  0  0  0  0  0
   20.4761   14.4329    5.7085 H   0  0  0  0  0  0
  1  2  2  0  0  0
  1  4  1  0  0  0
  1 28  1  0  0  0
  2  3  1  0  0  0
  2 29  1  0  0  0
  3  6  2  0  0  0
  3 30  1  0  0  0
  4  5  2  0  0  0
  4 31  1  0  0  0
  5  9  1  0  0  0
  5  6  1  0  0  0
  6  7  1  0  0  0
  7 17  1  0  0  0
  7 32  1  0  0  0
  8  9  2  0  0  0
  9 10  1  0  0  0
 10 11  1  0  0  0
 10 33  1  0  0  0
 11 16  1  0  0  0
 11 12  2  0  0  0
 12 13  1  0  0  0
 12 34  1  0  0  0
 13 14  2  0  0  0
 13 35  1  0  0  0
 14 15  1  0  0  0
 14 36  1  0  0  0
 15 16  2  0  0  0
 15 24  1  0  0  0
 16 37  1  0  0  0
 17 18  1  0  0  0
 17 38  1  0  0  0
 17 39  1  0  0  0
 18 19  2  0  0  0
 18 23  1  0  0  0
 19 20  1  0  0  0
 19 40  1  0  0  0
 20 21  2  0  0  0
 20 41  1  0  0  0
 21 22  1  0  0  0
 22 23  2  0  0  0
 22 42  1  0  0  0
 23 43  1  0  0  0
 24 25  1  0  0  0
 24 26  1  0  0  0
 24 27  1  0  0  0
M  END
> <s_m_entry_id>
6407

> <s_m_entry_name>
dock_pv.333

> <s_m_Source_Path>
/home/csk/Desktop/cluster/DUD-E-result/abl1

> <s_m_Source_File>
dock_pv.maegz

> <i_m_Source_File_Index>
333

> <chembl_id>
CHEMBL153843

> <chembl_pref_name>
None

> <i_lp_mmshare_version>
53161

> <i_f3d_flags>
0

> <r_lp_tautomer_probability>
1

> <s_lp_Force_Field>
OPLS_2005

> <r_lp_Energy>
29.047419

> <b_lp_Chiralities_Consistent>
1

> <s_lp_Variant>
CHEMBL1862_lig158-1

> <s_i_glide_gridfile>
glide-grid_2hzi

> <i_i_glide_lignum>
177

> <i_i_glide_rotatable_bonds>
7

> <r_i_docking_score>
-7.58993230649648

> <r_i_glide_ligand_efficiency>
-0.281108603944314

> <r_i_glide_ligand_efficiency_sa>
-0.843325810906454

> <r_i_glide_ligand_efficiency_ln>
-1.76681111113888

> <r_i_glide_gscore>
-7.58993230649648

> <r_i_glide_lipo>
-3.94666162492644

> <r_i_glide_hbond>
0

> <r_i_glide_metal>
0

> <r_i_glide_rewards>
-2.18198747226813

> <r_i_glide_evdw>
-32.0056762695312

> <r_i_glide_ecoul>
-4.14616107940674

> <r_i_glide_erotb>
0.839804842717762

> <r_i_glide_esite>
-0.0788800766321007

> <r_i_glide_emodel>
-44.303314960754

> <r_i_glide_energy>
-36.151837348938

> <r_i_glide_einternal>
7.98629522323608

> <i_i_glide_confnum>
43

> <i_i_glide_posenum>
226

> <r_i_glide_eff_state_penalty>
0

> <s_user_duplicate_titles>
CHEMBL1862_lig158

> <s_m_subgroup_title>
dock_pv

> <s_m_subgroupid>
dock_pv

> <b_m_subgroup_collapsed>
0

$$$$
CHEMBL1862_lig813
                    3D
 Schrodinger Suite 2021-1.
 33 35  0  0  1  0            999 V2000
   15.2182   15.6330    6.2456 N   0  0  0  0  0  0
   16.4613   16.1280    6.3198 C   0  0  0  0  0  0
   17.4379   15.9424    5.4238 N   0  0  0  0  0  0
   17.1921   15.1436    4.3433 C   0  0  0  0  0  0
   14.9640   14.9056    5.1649 C   0  0  0  0  0  0
   15.9028   14.5464    4.1580 C   0  0  0  0  0  0
   15.2877   13.6401    3.2094 C   0  0  0  0  0  0
   13.9290   13.3890    3.4797 C   0  0  0  0  0  0
   13.3662   14.3429    4.8465 S   0  0  0  0  0  0
   18.2719   15.0209    3.4473 N   0  0  0  0  0  0
   19.4637   15.7673    3.5605 C   0  0  0  0  0  0
   20.2829   15.6327    4.6900 C   0  0  0  0  0  0
   21.3237   16.5311    4.9257 C   0  0  0  0  0  0
   21.5826   17.5472    4.0025 C   0  0  0  0  0  0
   20.8245   17.6330    2.8340 C   0  0  0  0  0  0
   19.7596   16.7577    2.6191 C   0  0  0  0  0  0
   13.0572   12.4882    2.8267 N   0  0  0  0  0  0
   11.6910   12.4606    2.9255 C   0  0  0  0  0  0
   10.9474   11.4312    2.2534 C   0  0  0  0  0  0
   11.0199   13.2745    3.5613 O   0  0  0  0  0  0
   22.5640   18.4482    4.2287 F   0  0  0  0  0  0
   22.2551   16.3954    6.3751 Cl  0  0  0  0  0  0
   11.3720   10.7275    1.2031 C   0  0  0  0  0  0
   16.6760   16.7636    7.1657 H   0  0  0  0  0  0
   15.8240   13.1910    2.3877 H   0  0  0  0  0  0
   18.1465   14.4647    2.6146 H   0  0  0  0  0  0
   20.0591   14.8730    5.4244 H   0  0  0  0  0  0
   21.0451   18.4015    2.1077 H   0  0  0  0  0  0
   19.1449   16.8755    1.7394 H   0  0  0  0  0  0
   13.4840   11.7922    2.2334 H   0  0  0  0  0  0
    9.9442   11.2740    2.6262 H   0  0  0  0  0  0
   12.3651   10.8330    0.8030 H   0  0  0  0  0  0
   10.7100   10.0330    0.7203 H   0  0  0  0  0  0
  1  5  1  0  0  0
  1  2  2  0  0  0
  2  3  1  0  0  0
  2 24  1  0  0  0
  3  4  2  0  0  0
  4  6  1  0  0  0
  4 10  1  0  0  0
  5  6  2  0  0  0
  5  9  1  0  0  0
  6  7  1  0  0  0
  7  8  2  0  0  0
  7 25  1  0  0  0
  8  9  1  0  0  0
  8 17  1  0  0  0
 10 11  1  0  0  0
 10 26  1  0  0  0
 11 12  2  0  0  0
 11 16  1  0  0  0
 12 13  1  0  0  0
 12 27  1  0  0  0
 13 14  2  0  0  0
 13 22  1  0  0  0
 14 15  1  0  0  0
 14 21  1  0  0  0
 15 16  2  0  0  0
 15 28  1  0  0  0
 16 29  1  0  0  0
 17 18  1  0  0  0
 17 30  1  0  0  0
 18 19  1  0  0  0
 18 20  2  0  0  0
 19 23  2  0  0  0
 19 31  1  0  0  0
 23 32  1  0  0  0
 23 33  1  0  0  0
M  END
> <s_m_entry_id>
6408

> <s_m_entry_name>
dock_pv.334

> <s_m_Source_Path>
/home/csk/Desktop/cluster/DUD-E-result/abl1

> <s_m_Source_File>
dock_pv.maegz

> <i_m_Source_File_Index>
334

> <chembl_id>
CHEMBL3233767

> <chembl_pref_name>
None

> <i_lp_mmshare_version>
53161

> <i_f3d_flags>
0

> <r_lp_tautomer_probability>
1

> <s_lp_Force_Field>
OPLS_2005

> <r_lp_Energy>
18.978624

> <b_lp_Chiralities_Consistent>
1

> <s_lp_Variant>
CHEMBL1862_lig813-1

> <s_i_glide_gridfile>
glide-grid_2hzi

> <i_i_glide_lignum>
949

> <i_i_glide_rotatable_bonds>
5

> <r_i_docking_score>
-7.58713769879912

> <r_i_glide_ligand_efficiency>
-0.329875552121701

> <r_i_glide_ligand_efficiency_sa>
-0.938122189158716

> <r_i_glide_ligand_efficiency_ln>
-1.83463869193067

> <r_i_glide_gscore>
-7.58713769879912

> <r_i_glide_lipo>
-3.5631049227414

> <r_i_glide_hbond>
-0.0504956924264572

> <r_i_glide_metal>
0

> <r_i_glide_rewards>
-2.42160312740932

> <r_i_glide_evdw>
-36.2070198059082

> <r_i_glide_ecoul>
-3.46819233894348

> <r_i_glide_erotb>
0.782607369619772

> <r_i_glide_esite>
-0.00396148470477527

> <r_i_glide_emodel>
-53.845480255179

> <r_i_glide_energy>
-39.6752121448517

> <r_i_glide_einternal>
7.5409893989563

> <i_i_glide_confnum>
70

> <i_i_glide_posenum>
75

> <r_i_glide_eff_state_penalty>
0

> <s_user_duplicate_titles>
CHEMBL1862_lig813

> <s_m_subgroup_title>
dock_pv

> <s_m_subgroupid>
dock_pv

> <b_m_subgroup_collapsed>
0

$$$$
CHEMBL1862_lig91
                    3D
 Schrodinger Suite 2021-1.
 18 19  0  0  1  0            999 V2000
   16.9021   14.4615    3.9124 C   0  0  0  0  0  0
   17.8256   13.6321    3.3626 N   0  0  0  0  0  0
   17.3925   12.4955    2.8029 C   0  0  0  0  0  0
   16.1383   12.0331    2.6803 N   0  0  0  0  0  0
   17.3616   15.6281    4.5133 N   0  0  0  0  0  0
   15.5404   14.0784    3.8741 C   0  0  0  0  0  0
   15.2495   12.8774    3.2520 C   0  0  0  0  0  0
   13.9083   12.7280    3.3978 N   0  0  0  0  0  0
   13.4647   13.8003    4.0882 C   0  0  0  0  0  0
   14.4286   14.6501    4.3710 N   0  0  0  0  0  0
   12.0424   13.9586    4.5397 C   0  0  0  0  0  0
   11.1965   13.5231    3.6043 F   0  0  0  0  0  0
   11.7494   15.2316    4.8023 F   0  0  0  0  0  0
   11.8341   13.2619    5.6564 F   0  0  0  0  0  0
   18.1639   11.8555    2.4029 H   0  0  0  0  0  0
   16.7040   16.2369    4.9772 H   0  0  0  0  0  0
   18.3549   15.8049    4.5167 H   0  0  0  0  0  0
   13.3644   11.9357    3.0833 H   0  0  0  0  0  0
  1  6  1  0  0  0
  1  2  2  0  0  0
  1  5  1  0  0  0
  2  3  1  0  0  0
  3  4  2  0  0  0
  3 15  1  0  0  0
  4  7  1  0  0  0
  5 16  1  0  0  0
  5 17  1  0  0  0
  6  7  2  0  0  0
  6 10  1  0  0  0
  7  8  1  0  0  0
  8  9  1  0  0  0
  8 18  1  0  0  0
  9 10  2  0  0  0
  9 11  1  0  0  0
 11 12  1  0  0  0
 11 13  1  0  0  0
 11 14  1  0  0  0
M  END
> <s_m_entry_id>
6409

> <s_m_entry_name>
dock_pv.335

> <s_m_Source_Path>
/home/csk/Desktop/cluster/DUD-E-result/abl1

> <s_m_Source_File>
dock_pv.maegz

> <i_m_Source_File_Index>
335

> <chembl_id>
CHEMBL3105076

> <chembl_pref_name>
None

> <i_lp_mmshare_version>
53161

> <i_f3d_flags>
0

> <r_lp_tautomer_probability>
0.95558173703543

> <s_lp_Force_Field>
OPLS_2005

> <r_lp_Energy>
6.478936

> <b_lp_Chiralities_Consistent>
1

> <s_lp_Variant>
CHEMBL1862_lig91-1

> <s_i_glide_gridfile>
glide-grid_2hzi

> <i_i_glide_lignum>
109

> <i_i_glide_rotatable_bonds>
1

> <r_i_docking_score>
-7.58528312725154

> <r_i_glide_ligand_efficiency>
-0.541805937660824

> <r_i_glide_ligand_efficiency_sa>
-1.30582938818872

> <r_i_glide_ligand_efficiency_ln>
-2.08440880156551

> <r_i_glide_gscore>
-7.58528312725154

> <r_i_glide_lipo>
-0.899627699110793

> <r_i_glide_hbond>
-0.32

> <r_i_glide_metal>
0

> <r_i_glide_rewards>
-4.57414998409091

> <r_i_glide_evdw>
-25.0242347717285

> <r_i_glide_ecoul>
-3.60195803642273

> <r_i_glide_erotb>
0

> <r_i_glide_esite>
0

> <r_i_glide_emodel>
-41.8190519800913

> <r_i_glide_energy>
-28.6261928081512

> <r_i_glide_einternal>
0.0718472376465797

> <i_i_glide_confnum>
1

> <i_i_glide_posenum>
67

> <r_i_glide_eff_state_penalty>
0

> <s_user_duplicate_titles>
CHEMBL1862_lig91

> <s_m_subgroup_title>
dock_pv

> <s_m_subgroupid>
dock_pv

> <b_m_subgroup_collapsed>
0

$$$$
CHEMBL1862_lig3
                    3D
 Schrodinger Suite 2021-1.
 45 48  0  0  1  0            999 V2000
    8.8032   10.5553    1.5929 F   0  0  0  0  0  0
   10.9357   10.4332    1.2027 F   0  0  0  0  0  0
    9.7581   12.0323    0.3363 F   0  0  0  0  0  0
   14.5732   12.8417    2.8152 O   0  0  0  0  0  0
   19.0397   15.0605    3.9581 N   0  0  0  0  0  0
   21.5335   16.1275    5.6572 N   0  0  0  0  0  0
   19.7614   16.6760    2.4280 N   0  0  0  0  0  0
   22.7744   17.8700    4.9420 N   0  0  0  0  0  0
   21.6796   18.1270    2.8033 N   0  0  0  0  0  0
   13.1143   13.7914    4.3049 N   0  0  0  0  0  0
   20.9987   16.4926    4.4419 C   0  0  0  0  0  0
   19.9340   16.0792    3.6332 C   0  0  0  0  0  0
   21.8263   17.5620    4.0042 C   0  0  0  0  0  0
   17.7224   15.2849    4.3902 C   0  0  0  0  0  0
   15.3881   14.5598    4.2781 C   0  0  0  0  0  0
   17.3577   16.2960    5.3020 C   0  0  0  0  0  0
   16.7301   14.4342    3.8846 C   0  0  0  0  0  0
   14.3216   13.6345    3.7233 C   0  0  0  0  0  0
   22.5699   16.9988    5.9005 C   0  0  0  0  0  0
   10.2291   12.1427    2.5951 C   0  0  0  0  0  0
   20.6452   17.6332    2.0666 C   0  0  0  0  0  0
   11.8443   13.3317    3.9529 C   0  0  0  0  0  0
   15.0645   15.5731    5.1914 C   0  0  0  0  0  0
    9.9179   11.2600    1.4071 C   0  0  0  0  0  0
   16.0345   16.4233    5.6893 C   0  0  0  0  0  0
   11.5608   12.4763    2.8784 C   0  0  0  0  0  0
    9.1950   12.6364    3.3969 C   0  0  0  0  0  0
   10.8001   13.8054    4.7537 C   0  0  0  0  0  0
    9.4782   13.4632    4.4785 C   0  0  0  0  0  0
   18.3367   17.2461    5.9571 C   0  0  0  0  0  0
   21.2545   15.3850    6.2821 H   0  0  0  0  0  0
   19.0427   14.4205    3.1780 H   0  0  0  0  0  0
   13.1090   14.4137    5.0964 H   0  0  0  0  0  0
   17.0084   13.6589    3.1827 H   0  0  0  0  0  0
   23.1559   16.9083    6.8031 H   0  0  0  0  0  0
   20.5236   18.0376    1.0735 H   0  0  0  0  0  0
   14.0583   15.7280    5.5399 H   0  0  0  0  0  0
   15.7638   17.1862    6.4004 H   0  0  0  0  0  0
   12.3498   12.0892    2.2514 H   0  0  0  0  0  0
    8.1708   12.3750    3.1845 H   0  0  0  0  0  0
   11.0053   14.4365    5.6041 H   0  0  0  0  0  0
    8.6764   13.8344    5.0995 H   0  0  0  0  0  0
   17.8860   17.8357    6.7582 H   0  0  0  0  0  0
   19.1150   16.6319    6.3957 H   0  0  0  0  0  0
   18.7776   17.9298    5.2327 H   0  0  0  0  0  0
  1 24  1  0  0  0
  2 24  1  0  0  0
  3 24  1  0  0  0
  4 18  2  0  0  0
  5 12  1  0  0  0
  5 14  1  0  0  0
  5 32  1  0  0  0
  6 11  1  0  0  0
  6 31  1  0  0  0
  6 19  1  0  0  0
  7 21  2  0  0  0
  7 12  1  0  0  0
  8 19  2  0  0  0
  8 13  1  0  0  0
  9 13  2  0  0  0
  9 21  1  0  0  0
 10 18  1  0  0  0
 10 22  1  0  0  0
 10 33  1  0  0  0
 11 12  2  0  0  0
 11 13  1  0  0  0
 14 16  1  0  0  0
 14 17  2  0  0  0
 15 17  1  0  0  0
 15 18  1  0  0  0
 15 23  2  0  0  0
 16 25  2  0  0  0
 16 30  1  0  0  0
 17 34  1  0  0  0
 19 35  1  0  0  0
 20 24  1  0  0  0
 20 26  2  0  0  0
 20 27  1  0  0  0
 21 36  1  0  0  0
 22 26  1  0  0  0
 22 28  2  0  0  0
 23 25  1  0  0  0
 23 37  1  0  0  0
 25 38  1  0  0  0
 26 39  1  0  0  0
 27 29  2  0  0  0
 27 40  1  0  0  0
 28 29  1  0  0  0
 28 41  1  0  0  0
 29 42  1  0  0  0
 30 43  1  0  0  0
 30 44  1  0  0  0
 30 45  1  0  0  0
M  END
> <s_m_entry_id>
6410

> <s_m_entry_name>
dock_pv.336

> <s_m_Source_Path>
/home/csk/Desktop/cluster/DUD-E-result/abl1

> <s_m_Source_File>
dock_pv.maegz

> <i_m_Source_File_Index>
336

> <chembl_id>
CHEMBL563577

> <chembl_pref_name>
None

> <i_lp_mmshare_version>
53161

> <i_f3d_flags>
0

> <r_lp_tautomer_probability>
0.0419191988452545

> <s_lp_Force_Field>
OPLS_2005

> <r_lp_Energy>
26.266095

> <b_lp_Chiralities_Consistent>
1

> <s_lp_Variant>
CHEMBL1862_lig3-2

> <s_i_glide_gridfile>
glide-grid_2hzi

> <i_i_glide_lignum>
4

> <i_i_glide_rotatable_bonds>
6

> <r_i_docking_score>
-7.56936961774071

> <r_i_glide_ligand_efficiency>
-0.252312320591357

> <r_i_glide_ligand_efficiency_sa>
-0.783993043305278

> <r_i_glide_ligand_efficiency_ln>
-1.7198432520384

> <r_i_glide_gscore>
-7.56936961774071

> <r_i_glide_lipo>
-3.03355085062754

> <r_i_glide_hbond>
0

> <r_i_glide_metal>
0

> <r_i_glide_rewards>
-2.85972899473346

> <r_i_glide_evdw>
-47.1795234680176

> <r_i_glide_ecoul>
1.26372110843658

> <r_i_glide_erotb>
0.579788113247031

> <r_i_glide_esite>
-0.086459878491352

> <r_i_glide_emodel>
-53.0222956716913

> <r_i_glide_energy>
-45.915802359581

> <r_i_glide_einternal>
18.5421962738037

> <i_i_glide_confnum>
87

> <i_i_glide_posenum>
158

> <r_i_glide_eff_state_penalty>
0

> <s_user_duplicate_titles>
CHEMBL1862_lig3

> <s_m_subgroup_title>
dock_pv

> <s_m_subgroupid>
dock_pv

> <b_m_subgroup_collapsed>
0

$$$$
CHEMBL1862_lig744
                    3D
 Schrodinger Suite 2021-1.
 38 40  0  0  1  0            999 V2000
   18.6049   15.4200    4.4450 C   0  0  0  0  0  0
   18.0949   16.2591    5.4493 C   0  0  0  0  0  0
   16.7375   16.2754    5.7722 C   0  0  0  0  0  0
   17.7636   14.5873    3.7028 C   0  0  0  0  0  0
   16.4070   14.6112    4.0239 C   0  0  0  0  0  0
   15.8814   15.4293    5.0551 C   0  0  0  0  0  0
   14.5326   15.2386    5.2031 N   0  0  0  0  0  0
   14.2197   14.3518    4.2985 C   0  0  0  0  0  0
   15.3056   13.9394    3.5538 N   0  0  0  0  0  0
   12.9236   13.8895    4.1349 N   0  0  0  0  0  0
   12.5221   13.0069    3.1998 C   0  0  0  0  0  0
   11.1912   12.8305    3.2035 N   0  0  0  0  0  0
   13.2729   12.4328    2.4083 O   0  0  0  0  0  0
   10.5006   11.6854    2.6060 C   0  0  0  0  0  0
   10.0678   11.9116    1.1519 C   0  0  0  0  0  0
   19.9497   15.3247    4.1620 O   0  0  0  0  0  0
   20.8226   16.3249    4.5227 C   0  0  0  0  0  0
   21.5769   16.2346    5.7002 C   0  0  0  0  0  0
   22.5047   17.2341    6.0026 C   0  0  0  0  0  0
   22.6569   18.3337    5.1598 C   0  0  0  0  0  0
   21.8912   18.4315    3.9997 C   0  0  0  0  0  0
   20.9793   17.4259    3.6783 C   0  0  0  0  0  0
   21.3555   14.9167    6.8012 Cl  0  0  0  0  0  0
   18.7622   16.8997    6.0049 H   0  0  0  0  0  0
   16.3619   16.9055    6.5659 H   0  0  0  0  0  0
   18.1673   13.9453    2.9349 H   0  0  0  0  0  0
   15.2269   13.2435    2.8220 H   0  0  0  0  0  0
   12.2298   14.2865    4.7511 H   0  0  0  0  0  0
   10.6179   13.4714    3.7297 H   0  0  0  0  0  0
    9.6214   11.4515    3.2076 H   0  0  0  0  0  0
   11.1358   10.7988    2.6495 H   0  0  0  0  0  0
    9.5168   11.0466    0.7796 H   0  0  0  0  0  0
   10.9321   12.0338    0.5027 H   0  0  0  0  0  0
    9.4151   12.7806    1.0541 H   0  0  0  0  0  0
   23.1057   17.1630    6.8950 H   0  0  0  0  0  0
   23.3689   19.1132    5.4075 H   0  0  0  0  0  0
   22.0174   19.2775    3.3418 H   0  0  0  0  0  0
   20.4025   17.4857    2.7669 H   0  0  0  0  0  0
  1  2  2  0  0  0
  1  4  1  0  0  0
  1 16  1  0  0  0
  2  3  1  0  0  0
  2 24  1  0  0  0
  3  6  2  0  0  0
  3 25  1  0  0  0
  4  5  2  0  0  0
  4 26  1  0  0  0
  5  6  1  0  0  0
  5  9  1  0  0  0
  6  7  1  0  0  0
  7  8  2  0  0  0
  8  9  1  0  0  0
  8 10  1  0  0  0
  9 27  1  0  0  0
 10 11  1  0  0  0
 10 28  1  0  0  0
 11 12  1  0  0  0
 11 13  2  0  0  0
 12 14  1  0  0  0
 12 29  1  0  0  0
 14 15  1  0  0  0
 14 30  1  0  0  0
 14 31  1  0  0  0
 15 32  1  0  0  0
 15 33  1  0  0  0
 15 34  1  0  0  0
 16 17  1  0  0  0
 17 18  2  0  0  0
 17 22  1  0  0  0
 18 19  1  0  0  0
 18 23  1  0  0  0
 19 20  2  0  0  0
 19 35  1  0  0  0
 20 21  1  0  0  0
 20 36  1  0  0  0
 21 22  2  0  0  0
 21 37  1  0  0  0
 22 38  1  0  0  0
M  END
> <s_m_entry_id>
6411

> <s_m_entry_name>
dock_pv.337

> <s_m_Source_Path>
/home/csk/Desktop/cluster/DUD-E-result/abl1

> <s_m_Source_File>
dock_pv.maegz

> <i_m_Source_File_Index>
337

> <chembl_id>
CHEMBL2347752

> <chembl_pref_name>
None

> <i_lp_mmshare_version>
53161

> <i_f3d_flags>
0

> <r_lp_tautomer_probability>
1

> <s_lp_Force_Field>
OPLS_2005

> <r_lp_Energy>
14.355276

> <b_lp_Chiralities_Consistent>
1

> <s_lp_Variant>
CHEMBL1862_lig744-1

> <s_i_glide_gridfile>
glide-grid_2hzi

> <i_i_glide_lignum>
877

> <i_i_glide_rotatable_bonds>
6

> <r_i_docking_score>
-7.56231066265303

> <r_i_glide_ligand_efficiency>
-0.328796115767523

> <r_i_glide_ligand_efficiency_sa>
-0.935052415757428

> <r_i_glide_ligand_efficiency_ln>
-1.82863528947143

> <r_i_glide_gscore>
-7.56231066265303

> <r_i_glide_lipo>
-3.78922386603103

> <r_i_glide_hbond>
0

> <r_i_glide_metal>
0

> <r_i_glide_rewards>
-2.36581586736661

> <r_i_glide_evdw>
-47.8558082580566

> <r_i_glide_ecoul>
0.838521420955658

> <r_i_glide_erotb>
0.859741270504091

> <r_i_glide_esite>
0

> <r_i_glide_emodel>
-65.538571885677

> <r_i_glide_energy>
-47.017286837101

> <r_i_glide_einternal>
3.93579983711243

> <i_i_glide_confnum>
13

> <i_i_glide_posenum>
337

> <r_i_glide_eff_state_penalty>
0

> <s_user_duplicate_titles>
CHEMBL1862_lig744

> <s_m_subgroup_title>
dock_pv

> <s_m_subgroupid>
dock_pv

> <b_m_subgroup_collapsed>
0

$$$$
CHEMBL1862_lig865
                    3D
 Schrodinger Suite 2021-1.
 34 36  0  0  1  0            999 V2000
   14.6409   14.6891    4.1879 N   0  0  0  0  0  0
   16.0097   14.6341    4.0118 C   0  0  0  0  0  0
   16.2550   13.4651    3.3013 C   0  0  0  0  0  0
   15.0046   12.9132    2.9675 C   0  0  0  0  0  0
   14.0017   13.6259    3.5971 C   0  0  0  0  0  0
   17.5334   12.9255    2.9533 C   0  0  0  0  0  0
   18.5640   13.5536    2.8030 O   0  0  0  0  0  0
   17.5310   11.6330    2.8030 N   0  0  0  0  0  0
   16.9565   15.6436    4.5814 C   0  0  0  0  0  0
   16.7680   16.1952    5.8537 C   0  0  0  0  0  0
   17.5860   17.2330    6.2776 C   0  0  0  0  0  0
   18.6599   17.6792    5.5147 C   0  0  0  0  0  0
   18.8937   17.1068    4.2746 C   0  0  0  0  0  0
   18.0280   16.1257    3.8089 C   0  0  0  0  0  0
   10.4609   13.7684    4.5584 C   0  0  0  0  0  0
   11.7929   14.0330    4.5537 N   0  0  0  0  0  0
   12.5368   13.3547    3.6369 C   0  0  0  0  0  0
   11.9597   12.4330    2.7555 C   0  0  0  0  0  0
   10.5723   12.2796    2.8030 C   0  0  0  0  0  0
    9.8039   12.9468    3.7019 N   0  0  0  0  0  0
    9.7046   14.3398    5.5692 N   0  0  0  0  0  0
   15.5466   15.6330    6.9381 Cl  0  0  0  0  0  0
   20.2137   17.6330    3.2959 Cl  0  0  0  0  0  0
   14.1676   15.4043    4.7214 H   0  0  0  0  0  0
   14.8467   12.0195    2.3813 H   0  0  0  0  0  0
   16.7899   11.0810    3.2030 H   0  0  0  0  0  0
   18.3878   11.2056    2.4736 H   0  0  0  0  0  0
   17.3640   17.7134    7.2030 H   0  0  0  0  0  0
   19.2920   18.4778    5.8725 H   0  0  0  0  0  0
   18.1832   15.7943    2.8030 H   0  0  0  0  0  0
   12.5460   11.8822    2.0350 H   0  0  0  0  0  0
   10.0633   11.5954    2.1383 H   0  0  0  0  0  0
    8.7527   14.0201    5.6775 H   0  0  0  0  0  0
   10.1925   14.7682    6.3396 H   0  0  0  0  0  0
  1  2  1  0  0  0
  1  5  1  0  0  0
  1 24  1  0  0  0
  2  3  2  0  0  0
  2  9  1  0  0  0
  3  4  1  0  0  0
  3  6  1  0  0  0
  4  5  2  0  0  0
  4 25  1  0  0  0
  5 17  1  0  0  0
  6  7  2  0  0  0
  6  8  1  0  0  0
  8 26  1  0  0  0
  8 27  1  0  0  0
  9 10  1  0  0  0
  9 14  2  0  0  0
 10 11  2  0  0  0
 10 22  1  0  0  0
 11 12  1  0  0  0
 11 28  1  0  0  0
 12 13  2  0  0  0
 12 29  1  0  0  0
 13 14  1  0  0  0
 13 23  1  0  0  0
 14 30  1  0  0  0
 15 16  1  0  0  0
 15 20  2  0  0  0
 15 21  1  0  0  0
 16 17  2  0  0  0
 17 18  1  0  0  0
 18 19  2  0  0  0
 18 31  1  0  0  0
 19 20  1  0  0  0
 19 32  1  0  0  0
 21 33  1  0  0  0
 21 34  1  0  0  0
M  END
> <s_m_entry_id>
6412

> <s_m_entry_name>
dock_pv.338

> <s_m_Source_Path>
/home/csk/Desktop/cluster/DUD-E-result/abl1

> <s_m_Source_File>
dock_pv.maegz

> <i_m_Source_File_Index>
338

> <chembl_id>
CHEMBL3330122

> <chembl_pref_name>
None

> <i_lp_mmshare_version>
53161

> <i_f3d_flags>
0

> <r_lp_tautomer_probability>
0.999999987636

> <s_lp_Force_Field>
OPLS_2005

> <r_lp_Energy>
0.006874

> <b_lp_Chiralities_Consistent>
1

> <s_lp_Variant>
CHEMBL1862_lig865-1

> <s_i_glide_gridfile>
glide-grid_2hzi

> <i_i_glide_lignum>
1005

> <i_i_glide_rotatable_bonds>
3

> <r_i_docking_score>
-7.54839671733993

> <r_i_glide_ligand_efficiency>
-0.328191161623475

> <r_i_glide_ligand_efficiency_sa>
-0.933332006644644

> <r_i_glide_ligand_efficiency_ln>
-1.82527077133004

> <r_i_glide_gscore>
-7.54839671733993

> <r_i_glide_lipo>
-3.63319196071099

> <r_i_glide_hbond>
-0.220790009013608

> <r_i_glide_metal>
0

> <r_i_glide_rewards>
-2.42662671925388

> <r_i_glide_evdw>
-29.5041599273682

> <r_i_glide_ecoul>
-0.59935200214386

> <r_i_glide_erotb>
0.313997491508238

> <r_i_glide_esite>
-0.0166747231797114

> <r_i_glide_emodel>
-39.525700795873

> <r_i_glide_energy>
-30.103511929512

> <r_i_glide_einternal>
1.60442662239075

> <i_i_glide_confnum>
3

> <i_i_glide_posenum>
9

> <r_i_glide_eff_state_penalty>
0

> <s_user_duplicate_titles>
CHEMBL1862_lig865

> <s_m_subgroup_title>
dock_pv

> <s_m_subgroupid>
dock_pv

> <b_m_subgroup_collapsed>
0

$$$$
CHEMBL1862_lig859
                    3D
 Schrodinger Suite 2021-1.
 37 39  0  0  1  0            999 V2000
   15.0402   15.0495    4.2090 N   0  0  0  0  0  0
   16.4028   14.9212    4.0583 C   0  0  0  0  0  0
   16.5993   13.6572    3.4971 C   0  0  0  0  0  0
   15.3211   13.1099    3.2523 C   0  0  0  0  0  0
   14.3562   13.9418    3.7804 C   0  0  0  0  0  0
   17.8573   13.0354    3.1949 C   0  0  0  0  0  0
   18.9334   13.6130    3.2030 O   0  0  0  0  0  0
   17.7640   11.7811    2.8030 N   0  0  0  0  0  0
   17.3680   15.9960    4.4785 C   0  0  0  0  0  0
   17.2599   16.6755    5.7039 C   0  0  0  0  0  0
   18.1641   17.6974    6.0030 C   0  0  0  0  0  0
   19.2202   18.0038    5.1473 C   0  0  0  0  0  0
   19.3468   17.3198    3.9446 C   0  0  0  0  0  0
   18.4053   16.3569    3.6034 C   0  0  0  0  0  0
   10.9938   12.6428    3.1944 C   0  0  0  0  0  0
   12.3361   12.8133    3.0993 N   0  0  0  0  0  0
   12.8849   13.7674    3.8942 C   0  0  0  0  0  0
   12.1133   14.5075    4.7905 C   0  0  0  0  0  0
   10.7380   14.2643    4.8040 C   0  0  0  0  0  0
   10.1561   13.3364    4.0032 N   0  0  0  0  0  0
   10.4362   11.6479    2.4022 N   0  0  0  0  0  0
   16.1889   16.3223    6.7259 C   0  0  0  0  0  0
   20.6621   17.6458    2.8761 Cl  0  0  0  0  0  0
   14.5978   15.8597    4.6162 H   0  0  0  0  0  0
   15.1070   12.1530    2.7973 H   0  0  0  0  0  0
   16.9794   11.2230    3.0922 H   0  0  0  0  0  0
   18.5714   11.3632    2.3505 H   0  0  0  0  0  0
   18.0628   18.2574    6.9194 H   0  0  0  0  0  0
   19.9347   18.7670    5.4168 H   0  0  0  0  0  0
   18.5120   15.8783    2.6446 H   0  0  0  0  0  0
   12.5716   15.2331    5.4373 H   0  0  0  0  0  0
   10.0830   14.8042    5.4721 H   0  0  0  0  0  0
    9.4855   11.3631    2.5892 H   0  0  0  0  0  0
   11.0694   11.0230    1.9235 H   0  0  0  0  0  0
   16.2223   16.9597    7.6030 H   0  0  0  0  0  0
   15.1969   16.4330    6.3014 H   0  0  0  0  0  0
   16.2900   15.2897    7.0552 H   0  0  0  0  0  0
  1  2  1  0  0  0
  1  5  1  0  0  0
  1 24  1  0  0  0
  2  3  2  0  0  0
  2  9  1  0  0  0
  3  4  1  0  0  0
  3  6  1  0  0  0
  4  5  2  0  0  0
  4 25  1  0  0  0
  5 17  1  0  0  0
  6  7  2  0  0  0
  6  8  1  0  0  0
  8 26  1  0  0  0
  8 27  1  0  0  0
  9 10  1  0  0  0
  9 14  2  0  0  0
 10 11  2  0  0  0
 10 22  1  0  0  0
 11 12  1  0  0  0
 11 28  1  0  0  0
 12 13  2  0  0  0
 12 29  1  0  0  0
 13 14  1  0  0  0
 13 23  1  0  0  0
 14 30  1  0  0  0
 15 16  1  0  0  0
 15 20  2  0  0  0
 15 21  1  0  0  0
 16 17  2  0  0  0
 17 18  1  0  0  0
 18 19  2  0  0  0
 18 31  1  0  0  0
 19 20  1  0  0  0
 19 32  1  0  0  0
 21 33  1  0  0  0
 21 34  1  0  0  0
 22 35  1  0  0  0
 22 36  1  0  0  0
 22 37  1  0  0  0
M  END
> <s_m_entry_id>
6413

> <s_m_entry_name>
dock_pv.339

> <s_m_Source_Path>
/home/csk/Desktop/cluster/DUD-E-result/abl1

> <s_m_Source_File>
dock_pv.maegz

> <i_m_Source_File_Index>
339

> <chembl_id>
CHEMBL3330104

> <chembl_pref_name>
None

> <i_lp_mmshare_version>
53161

> <i_f3d_flags>
0

> <r_lp_tautomer_probability>
0.999999987636

> <s_lp_Force_Field>
OPLS_2005

> <r_lp_Energy>
0.081017

> <b_lp_Chiralities_Consistent>
1

> <s_lp_Variant>
CHEMBL1862_lig859-1

> <s_i_glide_gridfile>
glide-grid_2hzi

> <i_i_glide_lignum>
999

> <i_i_glide_rotatable_bonds>
3

> <r_i_docking_score>
-7.54542677778886

> <r_i_glide_ligand_efficiency>
-0.328062033816907

> <r_i_glide_ligand_efficiency_sa>
-0.932964784339747

> <r_i_glide_ligand_efficiency_ln>
-1.82455261301667

> <r_i_glide_gscore>
-7.54542677778886

> <r_i_glide_lipo>
-3.88977681957393

> <r_i_glide_hbond>
-0.287546253421376

> <r_i_glide_metal>
0

> <r_i_glide_rewards>
-2.13307085983325

> <r_i_glide_evdw>
-28.5676383972168

> <r_i_glide_ecoul>
-1.0329886674881

> <r_i_glide_erotb>
0.349479197107468

> <r_i_glide_esite>
-0.00118182208370979

> <r_i_glide_emodel>
-38.6508650920603

> <r_i_glide_energy>
-29.6006270647049

> <r_i_glide_einternal>
1.87697219848633

> <i_i_glide_confnum>
6

> <i_i_glide_posenum>
6

> <r_i_glide_eff_state_penalty>
0

> <s_user_duplicate_titles>
CHEMBL1862_lig859

> <s_m_subgroup_title>
dock_pv

> <s_m_subgroupid>
dock_pv

> <b_m_subgroup_collapsed>
0

$$$$
CHEMBL1862_lig825
                    3D
 Schrodinger Suite 2021-1.
 40 44  0  0  1  0            999 V2000
   19.3181   18.4471    5.8145 C   0  0  0  0  0  0
   19.5563   16.5684    3.7121 C   0  0  0  0  0  0
   18.4080   16.5474    4.5491 C   0  0  0  0  0  0
   18.3292   17.4902    5.6110 C   0  0  0  0  0  0
   17.3640   17.4511    6.5400 N   0  0  0  0  0  0
   16.4169   16.5071    6.4030 C   0  0  0  0  0  0
   16.3168   15.6330    5.4041 N   0  0  0  0  0  0
   17.3191   15.6330    4.4956 C   0  0  0  0  0  0
   17.2791   14.6209    3.5459 N   0  0  0  0  0  0
   20.4811   18.3470    5.1006 C   0  0  0  0  0  0
   20.5930   17.4360    4.0489 C   0  0  0  0  0  0
   21.7640   17.3437    3.3611 O   0  0  0  0  0  0
   22.8822   17.6330    4.1988 C   0  0  0  0  0  0
   22.7190   19.0302    4.8030 C   0  0  0  0  0  0
   21.5514   19.0542    5.6030 O   0  0  0  0  0  0
   16.2117   13.8205    3.2434 C   0  0  0  0  0  0
   14.9352   13.9526    3.5406 N   0  0  0  0  0  0
   14.1843   12.9825    3.0366 C   0  0  0  0  0  0
   14.9276   12.0602    2.3107 C   0  0  0  0  0  0
   16.6130   12.4165    2.4030 S   0  0  0  0  0  0
   12.6880   12.9599    3.2028 C   0  0  0  0  0  0
   11.9072   12.0330    2.4903 C   0  0  0  0  0  0
   10.5195   12.0330    2.6158 C   0  0  0  0  0  0
    9.9025   12.9519    3.4616 C   0  0  0  0  0  0
   10.6621   13.8670    4.1866 C   0  0  0  0  0  0
   12.0492   13.8692    4.0583 C   0  0  0  0  0  0
   19.2428   19.1340    6.6451 H   0  0  0  0  0  0
   19.6765   15.8599    2.9047 H   0  0  0  0  0  0
   15.6738   16.4330    7.1806 H   0  0  0  0  0  0
   18.0523   14.6696    2.9009 H   0  0  0  0  0  0
   22.9846   16.8841    4.9877 H   0  0  0  0  0  0
   23.7643   17.6135    3.6030 H   0  0  0  0  0  0
   23.5826   19.2900    5.4160 H   0  0  0  0  0  0
   22.6313   19.7732    4.0082 H   0  0  0  0  0  0
   14.5647   11.2330    1.7298 H   0  0  0  0  0  0
   12.3583   11.3118    1.8257 H   0  0  0  0  0  0
    9.9264   11.3149    2.0675 H   0  0  0  0  0  0
    8.8270   12.9440    3.5642 H   0  0  0  0  0  0
   10.1786   14.5700    4.8486 H   0  0  0  0  0  0
   12.6256   14.5866    4.6246 H   0  0  0  0  0  0
  1 10  1  0  0  0
  1  4  2  0  0  0
  1 27  1  0  0  0
  2  3  2  0  0  0
  2 11  1  0  0  0
  2 28  1  0  0  0
  3  4  1  0  0  0
  3  8  1  0  0  0
  4  5  1  0  0  0
  5  6  2  0  0  0
  6  7  1  0  0  0
  6 29  1  0  0  0
  7  8  2  0  0  0
  8  9  1  0  0  0
  9 16  1  0  0  0
  9 30  1  0  0  0
 10 11  2  0  0  0
 10 15  1  0  0  0
 11 12  1  0  0  0
 12 13  1  0  0  0
 13 14  1  0  0  0
 13 31  1  0  0  0
 13 32  1  0  0  0
 14 15  1  0  0  0
 14 33  1  0  0  0
 14 34  1  0  0  0
 16 17  2  0  0  0
 16 20  1  0  0  0
 17 18  1  0  0  0
 18 19  2  0  0  0
 18 21  1  0  0  0
 19 20  1  0  0  0
 19 35  1  0  0  0
 21 22  2  0  0  0
 21 26  1  0  0  0
 22 23  1  0  0  0
 22 36  1  0  0  0
 23 24  2  0  0  0
 23 37  1  0  0  0
 24 25  1  0  0  0
 24 38  1  0  0  0
 25 26  2  0  0  0
 25 39  1  0  0  0
 26 40  1  0  0  0
M  END
> <s_m_entry_id>
6414

> <s_m_entry_name>
dock_pv.340

> <s_m_Source_Path>
/home/csk/Desktop/cluster/DUD-E-result/abl1

> <s_m_Source_File>
dock_pv.maegz

> <i_m_Source_File_Index>
340

> <chembl_id>
CHEMBL3297958

> <chembl_pref_name>
None

> <i_lp_mmshare_version>
53161

> <i_f3d_flags>
0

> <r_lp_tautomer_probability>
0.999978000241998

> <s_lp_Force_Field>
OPLS_2005

> <r_lp_Energy>
16.648112

> <b_lp_Chiralities_Consistent>
1

> <s_lp_Variant>
CHEMBL1862_lig825-1

> <s_i_glide_gridfile>
glide-grid_2hzi

> <i_i_glide_lignum>
963

> <i_i_glide_rotatable_bonds>
3

> <r_i_docking_score>
-7.5410132986766

> <r_i_glide_ligand_efficiency>
-0.290038973026023

> <r_i_glide_ligand_efficiency_sa>
-0.859239316341343

> <r_i_glide_ligand_efficiency_ln>
-1.77098222911135

> <r_i_glide_gscore>
-7.5410132986766

> <r_i_glide_lipo>
-4.01563219427661

> <r_i_glide_hbond>
0

> <r_i_glide_metal>
0

> <r_i_glide_rewards>
-2.04259562869703

> <r_i_glide_evdw>
-26.3517398834229

> <r_i_glide_ecoul>
-4.02532148361206

> <r_i_glide_erotb>
0.438599741009993

> <r_i_glide_esite>
0

> <r_i_glide_emodel>
-38.7926680720076

> <r_i_glide_energy>
-30.3770613670349

> <r_i_glide_einternal>
1.26752746105194

> <i_i_glide_confnum>
2

> <i_i_glide_posenum>
52

> <r_i_glide_eff_state_penalty>
0

> <s_user_duplicate_titles>
CHEMBL1862_lig825

> <s_m_subgroup_title>
dock_pv

> <s_m_subgroupid>
dock_pv

> <b_m_subgroup_collapsed>
0

$$$$
CHEMBL1862_lig460
                    3D
 Schrodinger Suite 2021-1.
 39 42  0  0  1  0            999 V2000
   17.3640   12.0973    2.4030 N   0  0  0  0  0  0
   18.3137   12.8330    3.0082 C   0  0  0  0  0  0
   18.1228   13.9259    3.7717 N   0  0  0  0  0  0
   16.0986   12.5357    2.5113 C   0  0  0  0  0  0
   15.7326   13.5150    3.4365 C   0  0  0  0  0  0
   16.8306   14.1911    4.0030 C   0  0  0  0  0  0
   16.2978   15.0535    4.9329 N   0  0  0  0  0  0
   14.9331   14.9982    4.9057 N   0  0  0  0  0  0
   14.5496   14.0698    4.0411 C   0  0  0  0  0  0
   13.0983   13.6341    3.8407 C   0  0  0  0  0  0
   11.9931   14.4174    4.2167 C   0  0  0  0  0  0
   10.6821   13.9911    3.9409 C   0  0  0  0  0  0
   10.4556   12.8330    3.2030 C   0  0  0  0  0  0
   11.5289   12.0473    2.8030 C   0  0  0  0  0  0
   12.8079   12.4042    3.2241 C   0  0  0  0  0  0
   15.2038   12.0330    1.6030 N   0  0  0  0  0  0
    9.5912   14.6901    4.3748 O   0  0  0  0  0  0
   12.1849   15.6179    4.8030 F   0  0  0  0  0  0
   17.0067   15.7867    6.0147 C   0  0  0  0  0  0
   18.4679   15.3578    6.3141 C   0  0  0  0  0  0
   19.3923   16.2087    5.4200 C   0  0  0  0  0  0
   18.4798   17.2796    4.8166 C   0  0  0  0  0  0
   17.2050   17.2330    5.6725 C   0  0  0  0  0  0
   19.3357   12.5449    2.8056 H   0  0  0  0  0  0
    9.4508   12.5142    2.9652 H   0  0  0  0  0  0
   11.3592   11.1023    2.3049 H   0  0  0  0  0  0
   13.5510   11.6362    3.1357 H   0  0  0  0  0  0
   14.2502   12.3629    1.6413 H   0  0  0  0  0  0
   15.4818   11.4011    0.8693 H   0  0  0  0  0  0
    8.7727   14.2030    4.2500 H   0  0  0  0  0  0
   16.3519   15.6425    6.8776 H   0  0  0  0  0  0
   18.6847   15.6330    7.3416 H   0  0  0  0  0  0
   18.6501   14.2857    6.2508 H   0  0  0  0  0  0
   20.1937   16.6630    6.0030 H   0  0  0  0  0  0
   19.8791   15.6201    4.6420 H   0  0  0  0  0  0
   18.9422   18.2677    4.8175 H   0  0  0  0  0  0
   18.2435   17.0321    3.7799 H   0  0  0  0  0  0
   16.3095   17.6328    5.2030 H   0  0  0  0  0  0
   17.3640   17.8074    6.5869 H   0  0  0  0  0  0
  1  2  2  0  0  0
  1  4  1  0  0  0
  2  3  1  0  0  0
  2 24  1  0  0  0
  3  6  2  0  0  0
  4  5  2  0  0  0
  4 16  1  0  0  0
  5  9  1  0  0  0
  5  6  1  0  0  0
  6  7  1  0  0  0
  7  8  1  0  0  0
  7 19  1  0  0  0
  8  9  2  0  0  0
  9 10  1  0  0  0
 10 15  1  0  0  0
 10 11  2  0  0  0
 11 12  1  0  0  0
 11 18  1  0  0  0
 12 13  2  0  0  0
 12 17  1  0  0  0
 13 14  1  0  0  0
 13 25  1  0  0  0
 14 15  2  0  0  0
 14 26  1  0  0  0
 15 27  1  0  0  0
 16 28  1  0  0  0
 16 29  1  0  0  0
 17 30  1  0  0  0
 19 20  1  0  0  0
 19 23  1  0  0  0
 19 31  1  0  0  0
 20 21  1  0  0  0
 20 32  1  0  0  0
 20 33  1  0  0  0
 21 22  1  0  0  0
 21 34  1  0  0  0
 21 35  1  0  0  0
 22 23  1  0  0  0
 22 36  1  0  0  0
 22 37  1  0  0  0
 23 38  1  0  0  0
 23 39  1  0  0  0
M  END
> <s_m_entry_id>
6415

> <s_m_entry_name>
dock_pv.341

> <s_m_Source_Path>
/home/csk/Desktop/cluster/DUD-E-result/abl1

> <s_m_Source_File>
dock_pv.maegz

> <i_m_Source_File_Index>
341

> <chembl_id>
CHEMBL1242111

> <chembl_pref_name>
None

> <i_lp_mmshare_version>
53161

> <i_f3d_flags>
0

> <r_lp_tautomer_probability>
0.999999999997365

> <s_lp_Force_Field>
OPLS_2005

> <r_lp_Energy>
43.439481

> <b_lp_Chiralities_Consistent>
1

> <s_lp_Variant>
CHEMBL1862_lig460-1

> <s_i_glide_gridfile>
glide-grid_2hzi

> <i_i_glide_lignum>
549

> <i_i_glide_rotatable_bonds>
3

> <r_i_docking_score>
-7.53972687573975

> <r_i_glide_ligand_efficiency>
-0.327814211988685

> <r_i_glide_ligand_efficiency_sa>
-0.932260012026317

> <r_i_glide_ligand_efficiency_ln>
-1.82317432501734

> <r_i_glide_gscore>
-7.53972687573975

> <r_i_glide_lipo>
-3.29239601984322

> <r_i_glide_hbond>
-0.264438634665313

> <r_i_glide_metal>
0

> <r_i_glide_rewards>
-2.91589922087041

> <r_i_glide_evdw>
-18.1217231750488

> <r_i_glide_ecoul>
-3.46764016151428

> <r_i_glide_erotb>
0.378353962666628

> <r_i_glide_esite>
-0.0191147800478602

> <r_i_glide_emodel>
-21.648247721425

> <r_i_glide_energy>
-21.5893633365631

> <r_i_glide_einternal>
3.10935378074646

> <i_i_glide_confnum>
52

> <i_i_glide_posenum>
29

> <r_i_glide_eff_state_penalty>
0

> <s_user_duplicate_titles>
CHEMBL1862_lig460

> <s_m_subgroup_title>
dock_pv

> <s_m_subgroupid>
dock_pv

> <b_m_subgroup_collapsed>
0

$$$$
CHEMBL1862_lig92
                    3D
 Schrodinger Suite 2021-1.
 33 34  0  0  1  0            999 V2000
   13.2513   12.4330    2.0055 F   0  0  0  0  0  0
   13.3643   11.5889    4.0001 F   0  0  0  0  0  0
   12.1835   13.3710    3.6353 F   0  0  0  0  0  0
   21.5145   15.9091    5.7436 O   0  0  0  0  0  0
   18.0340   15.7380    4.3095 N   0  0  0  0  0  0
   16.8717   14.0103    3.2029 N   0  0  0  0  0  0
   22.5834   17.8483    5.5765 N   0  0  0  0  0  0
   14.5458   13.5319    3.6356 C   0  0  0  0  0  0
   16.8690   14.9746    4.1667 C   0  0  0  0  0  0
   13.3019   12.7206    3.3055 C   0  0  0  0  0  0
   15.7402   13.3114    2.9494 C   0  0  0  0  0  0
   14.5325   14.5246    4.6189 C   0  0  0  0  0  0
   15.6939   15.2496    4.8869 C   0  0  0  0  0  0
   20.4261   17.6227    4.3877 C   0  0  0  0  0  0
   19.2894   15.4091    3.6027 C   0  0  0  0  0  0
   18.3584   16.4959    5.5358 C   0  0  0  0  0  0
   20.0940   16.6719    3.2217 C   0  0  0  0  0  0
   19.1313   17.7940    5.2035 C   0  0  0  0  0  0
   21.5544   17.0495    5.2883 C   0  0  0  0  0  0
   22.6281   18.7956    5.2333 H   0  0  0  0  0  0
   23.3247   17.4881    6.1588 H   0  0  0  0  0  0
   15.8101   12.5619    2.1742 H   0  0  0  0  0  0
   13.6330   14.7391    5.1777 H   0  0  0  0  0  0
   15.6445   16.0297    5.6287 H   0  0  0  0  0  0
   20.8079   18.5711    4.0061 H   0  0  0  0  0  0
   19.0836   14.8881    2.6682 H   0  0  0  0  0  0
   19.8777   14.7225    4.2109 H   0  0  0  0  0  0
   17.4761   16.7800    6.1021 H   0  0  0  0  0  0
   18.9396   15.8425    6.1876 H   0  0  0  0  0  0
   19.5884   17.2275    2.4309 H   0  0  0  0  0  0
   20.9962   16.4316    2.6685 H   0  0  0  0  0  0
   19.2980   18.4326    6.0714 H   0  0  0  0  0  0
   18.4787   18.4331    4.6220 H   0  0  0  0  0  0
  1 10  1  0  0  0
  2 10  1  0  0  0
  3 10  1  0  0  0
  4 19  2  0  0  0
  5  9  1  0  0  0
  5 15  1  0  0  0
  5 16  1  0  0  0
  6  9  1  0  0  0
  6 11  2  0  0  0
  7 19  1  0  0  0
  7 20  1  0  0  0
  7 21  1  0  0  0
  8 10  1  0  0  0
  8 11  1  0  0  0
  8 12  2  0  0  0
  9 13  2  0  0  0
 11 22  1  0  0  0
 12 13  1  0  0  0
 12 23  1  0  0  0
 13 24  1  0  0  0
 14 17  1  0  0  0
 14 18  1  0  0  0
 14 19  1  0  0  0
 14 25  1  0  0  0
 15 17  1  0  0  0
 15 26  1  0  0  0
 15 27  1  0  0  0
 16 18  1  0  0  0
 16 28  1  0  0  0
 16 29  1  0  0  0
 17 30  1  0  0  0
 17 31  1  0  0  0
 18 32  1  0  0  0
 18 33  1  0  0  0
M  END
> <s_m_entry_id>
6416

> <s_m_entry_name>
dock_pv.342

> <s_m_Source_Path>
/home/csk/Desktop/cluster/DUD-E-result/abl1

> <s_m_Source_File>
dock_pv.maegz

> <i_m_Source_File_Index>
342

> <chembl_id>
CHEMBL1398729

> <chembl_pref_name>
None

> <i_lp_mmshare_version>
53161

> <i_f3d_flags>
0

> <r_lp_tautomer_probability>
1

> <s_lp_Force_Field>
OPLS_2005

> <r_lp_Energy>
16.13366

> <b_lp_Chiralities_Consistent>
1

> <s_lp_Variant>
CHEMBL1862_lig92-1

> <s_i_glide_gridfile>
glide-grid_2hzi

> <i_i_glide_lignum>
111

> <i_i_glide_rotatable_bonds>
3

> <r_i_docking_score>
-7.53819071733834

> <r_i_glide_ligand_efficiency>
-0.396746879859913

> <r_i_glide_ligand_efficiency_sa>
-1.05868002730441

> <r_i_glide_ligand_efficiency_ln>
-1.91109325233657

> <r_i_glide_gscore>
-7.53819071733834

> <r_i_glide_lipo>
-2.62161002875212

> <r_i_glide_hbond>
0

> <r_i_glide_metal>
0

> <r_i_glide_rewards>
-3.30449596451479

> <r_i_glide_evdw>
-36.636360168457

> <r_i_glide_ecoul>
0.0214087143540382

> <r_i_glide_erotb>
0.240211804234553

> <r_i_glide_esite>
-0.0236898270362332

> <r_i_glide_emodel>
-51.5188354850122

> <r_i_glide_energy>
-36.614951454103

> <r_i_glide_einternal>
2.16619205474854

> <i_i_glide_confnum>
6

> <i_i_glide_posenum>
358

> <r_i_glide_eff_state_penalty>
0

> <s_user_duplicate_titles>
CHEMBL1862_lig92

> <s_m_subgroup_title>
dock_pv

> <s_m_subgroupid>
dock_pv

> <b_m_subgroup_collapsed>
0

$$$$
CHEMBL1862_lig171
                    3D
 Schrodinger Suite 2021-1.
 40 43  0  0  1  0            999 V2000
   17.2766   14.2256    3.5519 C   0  0  0  0  0  0
   18.1341   13.2145    3.2025 N   0  0  0  0  0  0
   15.9762   13.7212    3.3271 C   0  0  0  0  0  0
   17.5474   12.0943    2.7767 N   0  0  0  0  0  0
   16.2293   12.4307    2.8052 C   0  0  0  0  0  0
   14.6266   14.0908    3.4735 C   0  0  0  0  0  0
   17.6090   15.4520    4.0262 N   0  0  0  0  0  0
   15.2552   11.6331    2.4021 N   0  0  0  0  0  0
   13.6334   13.2480    3.0995 N   0  0  0  0  0  0
   14.2942   15.3327    4.0062 N   0  0  0  0  0  0
   13.9918   12.0808    2.5647 C   0  0  0  0  0  0
   18.8344   15.9669    4.4441 C   0  0  0  0  0  0
   18.7609   17.1979    5.0697 C   0  0  0  0  0  0
   12.9565   15.7544    4.4062 C   0  0  0  0  0  0
   19.9026   17.7754    5.5878 C   0  0  0  0  0  0
   19.7183   19.2368    6.4135 Cl  0  0  0  0  0  0
   11.8669   14.7274    4.7471 C   0  0  0  0  0  0
   21.2225   15.9111    4.8717 C   0  0  0  0  0  0
   20.0806   15.3410    4.3113 C   0  0  0  0  0  0
   21.1393   17.1422    5.5133 C   0  0  0  0  0  0
   10.5663   14.7754    4.2360 C   0  0  0  0  0  0
   12.1553   13.8079    5.7371 C   0  0  0  0  0  0
   11.1310   13.2331    6.4571 C   0  0  0  0  0  0
    9.5446   14.0630    4.8545 C   0  0  0  0  0  0
    9.8201   13.3552    6.0171 C   0  0  0  0  0  0
   19.1377   13.2905    3.2320 H   0  0  0  0  0  0
   16.8664   16.1071    4.1935 H   0  0  0  0  0  0
   15.0529   15.9664    4.1850 H   0  0  0  0  0  0
   13.1663   11.4676    2.2323 H   0  0  0  0  0  0
   17.8095   17.6905    5.1864 H   0  0  0  0  0  0
   12.6186   16.7067    4.0025 H   0  0  0  0  0  0
   13.2376   16.0320    5.4063 H   0  0  0  0  0  0
   22.1692   15.3968    4.8045 H   0  0  0  0  0  0
   20.2041   14.4265    3.7609 H   0  0  0  0  0  0
   22.0217   17.5847    5.9557 H   0  0  0  0  0  0
   10.3145   15.3856    3.3908 H   0  0  0  0  0  0
   13.1805   13.6797    6.0024 H   0  0  0  0  0  0
   11.3859   12.6499    7.3247 H   0  0  0  0  0  0
    8.5319   14.1188    4.4915 H   0  0  0  0  0  0
    9.0289   12.8526    6.5501 H   0  0  0  0  0  0
  1  2  1  0  0  0
  1  3  2  0  0  0
  1  7  1  0  0  0
  2  4  1  0  0  0
  2 26  1  0  0  0
  3  5  1  0  0  0
  3  6  1  0  0  0
  4  5  2  0  0  0
  5  8  1  0  0  0
  6  9  2  0  0  0
  6 10  1  0  0  0
  7 12  1  0  0  0
  7 27  1  0  0  0
  8 11  2  0  0  0
  9 11  1  0  0  0
 10 14  1  0  0  0
 10 28  1  0  0  0
 11 29  1  0  0  0
 12 13  2  0  0  0
 12 19  1  0  0  0
 13 15  1  0  0  0
 13 30  1  0  0  0
 14 17  1  0  0  0
 14 31  1  0  0  0
 14 32  1  0  0  0
 15 16  1  0  0  0
 15 20  2  0  0  0
 17 21  2  0  0  0
 17 22  1  0  0  0
 18 19  2  0  0  0
 18 20  1  0  0  0
 18 33  1  0  0  0
 19 34  1  0  0  0
 20 35  1  0  0  0
 21 24  1  0  0  0
 21 36  1  0  0  0
 22 23  2  0  0  0
 22 37  1  0  0  0
 23 25  1  0  0  0
 23 38  1  0  0  0
 24 25  2  0  0  0
 24 39  1  0  0  0
 25 40  1  0  0  0
M  END
> <s_m_entry_id>
6417

> <s_m_entry_name>
dock_pv.343

> <s_m_Source_Path>
/home/csk/Desktop/cluster/DUD-E-result/abl1

> <s_m_Source_File>
dock_pv.maegz

> <i_m_Source_File_Index>
343

> <chembl_id>
CHEMBL119982

> <chembl_pref_name>
None

> <i_lp_mmshare_version>
53161

> <i_f3d_flags>
0

> <r_lp_tautomer_probability>
1

> <s_lp_Force_Field>
OPLS_2005

> <r_lp_Energy>
31.531667

> <b_lp_Chiralities_Consistent>
1

> <s_lp_Variant>
CHEMBL1862_lig171-1

> <s_i_glide_gridfile>
glide-grid_2hzi

> <i_i_glide_lignum>
190

> <i_i_glide_rotatable_bonds>
5

> <r_i_docking_score>
-7.5060941280812

> <r_i_glide_ligand_efficiency>
-0.300243765123248

> <r_i_glide_ligand_efficiency_sa>
-0.877918094066225

> <r_i_glide_ligand_efficiency_ln>
-1.77916924784476

> <r_i_glide_gscore>
-7.5060941280812

> <r_i_glide_lipo>
-3.83875672520369

> <r_i_glide_hbond>
-0.368710184599861

> <r_i_glide_metal>
0

> <r_i_glide_rewards>
-2.57621961872578

> <r_i_glide_evdw>
-17.0466232299805

> <r_i_glide_ecoul>
-4.29790210723877

> <r_i_glide_erotb>
0.774608878032976

> <r_i_glide_esite>
0

> <r_i_glide_emodel>
-47.0175527788853

> <r_i_glide_energy>
-21.3445253372192

> <r_i_glide_einternal>
7.08615970611572

> <i_i_glide_confnum>
148

> <i_i_glide_posenum>
181

> <r_i_glide_eff_state_penalty>
0

> <s_user_duplicate_titles>
CHEMBL1862_lig171

> <s_m_subgroup_title>
dock_pv

> <s_m_subgroupid>
dock_pv

> <b_m_subgroup_collapsed>
0

$$$$
CHEMBL1862_lig801
                    3D
 Schrodinger Suite 2021-1.
 37 39  0  0  1  0            999 V2000
   15.7640   14.8973    2.0064 O   0  0  0  0  0  0
   15.7282   13.6702    2.8029 S   0  0  0  0  0  0
   16.2500   12.3944    2.2957 O   0  0  0  0  0  0
   16.7973   15.9854    5.6292 C   0  0  0  0  0  0
   17.2036   15.2514    4.5197 C   0  0  0  0  0  0
   18.3071   15.6525    3.7688 C   0  0  0  0  0  0
   19.0197   16.7913    4.1326 C   0  0  0  0  0  0
   18.6119   17.5308    5.2557 C   0  0  0  0  0  0
   17.5119   17.1141    6.0028 C   0  0  0  0  0  0
   19.2691   18.6613    5.6551 O   0  0  0  0  0  0
   20.4312   17.2378    3.1528 S   0  0  0  0  0  0
   16.5932   14.0332    4.2630 N   0  0  0  0  0  0
   14.0212   13.4095    3.2637 C   0  0  0  0  0  0
   21.6408   17.4882    4.4017 C   0  0  0  0  0  0
   21.9670   16.5445    5.2636 N   0  0  0  0  0  0
   22.8834   17.1635    6.0035 N   0  0  0  0  0  0
   23.0599   18.4332    5.5429 C   0  0  0  0  0  0
   22.2751   18.6463    4.5222 N   0  0  0  0  0  0
   13.2727   12.4334    2.6052 C   0  0  0  0  0  0
   11.8970   12.3686    2.8031 C   0  0  0  0  0  0
   11.2638   13.2566    3.6862 C   0  0  0  0  0  0
   12.0453   14.1770    4.4032 C   0  0  0  0  0  0
   13.4143   14.2699    4.1772 C   0  0  0  0  0  0
    9.7906   13.2333    3.8591 N   0  3  0  0  0  0
    9.1367   12.4333    3.1982 O   0  0  0  0  0  0
    9.2811   14.0334    4.6411 O   0  5  0  0  0  0
   15.9633   15.6540    6.2299 H   0  0  0  0  0  0
   18.6364   15.0571    2.9279 H   0  0  0  0  0  0
   17.2238   17.6406    6.8972 H   0  0  0  0  0  0
   20.0665   18.7963    5.1318 H   0  0  0  0  0  0
   17.0748   13.2495    4.6696 H   0  0  0  0  0  0
   23.3741   16.7215    6.7701 H   0  0  0  0  0  0
   23.7620   19.1157    6.0011 H   0  0  0  0  0  0
   13.7358   11.7599    1.8932 H   0  0  0  0  0  0
   11.3232   11.6356    2.2523 H   0  0  0  0  0  0
   11.5858   14.8605    5.1016 H   0  0  0  0  0  0
   13.9884   15.0355    4.6798 H   0  0  0  0  0  0
  1  2  2  0  0  0
  2  3  2  0  0  0
  2 12  1  0  0  0
  2 13  1  0  0  0
  4  5  2  0  0  0
  4  9  1  0  0  0
  4 27  1  0  0  0
  5  6  1  0  0  0
  5 12  1  0  0  0
  6  7  2  0  0  0
  6 28  1  0  0  0
  7  8  1  0  0  0
  7 11  1  0  0  0
  8  9  2  0  0  0
  8 10  1  0  0  0
  9 29  1  0  0  0
 10 30  1  0  0  0
 11 14  1  0  0  0
 12 31  1  0  0  0
 13 19  2  0  0  0
 13 23  1  0  0  0
 14 15  2  0  0  0
 14 18  1  0  0  0
 15 16  1  0  0  0
 16 17  1  0  0  0
 16 32  1  0  0  0
 17 33  1  0  0  0
 17 18  2  0  0  0
 19 20  1  0  0  0
 19 34  1  0  0  0
 20 21  2  0  0  0
 20 35  1  0  0  0
 21 22  1  0  0  0
 21 24  1  0  0  0
 22 23  2  0  0  0
 22 36  1  0  0  0
 23 37  1  0  0  0
 24 25  2  0  0  0
 24 26  1  0  0  0
M  CHG  2  24   1  26  -1
M  END
> <s_m_entry_id>
6418

> <s_m_entry_name>
dock_pv.344

> <s_m_Source_Path>
/home/csk/Desktop/cluster/DUD-E-result/abl1

> <s_m_Source_File>
dock_pv.maegz

> <i_m_Source_File_Index>
344

> <chembl_id>
CHEMBL2436727

> <chembl_pref_name>
None

> <i_lp_mmshare_version>
53161

> <i_f3d_flags>
0

> <r_lp_tautomer_probability>
0.426694473139324

> <s_lp_Force_Field>
OPLS_2005

> <r_lp_Energy>
15.847266

> <b_lp_Chiralities_Consistent>
1

> <s_lp_Variant>
CHEMBL1862_lig801-2

> <s_i_glide_gridfile>
glide-grid_2hzi

> <i_i_glide_lignum>
936

> <i_i_glide_rotatable_bonds>
7

> <r_i_docking_score>
-7.49448729652664

> <r_i_glide_ligand_efficiency>
-0.288249511404871

> <r_i_glide_ligand_efficiency_sa>
-0.853938043329871

> <r_i_glide_ligand_efficiency_ln>
-1.76005575017069

> <r_i_glide_gscore>
-7.49448729652664

> <r_i_glide_lipo>
-3.27883919797017

> <r_i_glide_hbond>
0

> <r_i_glide_metal>
0

> <r_i_glide_rewards>
-2.03431862214234

> <r_i_glide_evdw>
-41.7239151000977

> <r_i_glide_ecoul>
-4.71151685714722

> <r_i_glide_erotb>
0.631107443262283

> <r_i_glide_esite>
-0.0195136360994507

> <r_i_glide_emodel>
-58.4491799432751

> <r_i_glide_energy>
-46.4354319572449

> <r_i_glide_einternal>
9.84442520141602

> <i_i_glide_confnum>
127

> <i_i_glide_posenum>
246

> <r_i_glide_eff_state_penalty>
0

> <s_user_duplicate_titles>
CHEMBL1862_lig801,CHEMBL1862_lig801

> <s_m_subgroup_title>
dock_pv

> <s_m_subgroupid>
dock_pv

> <b_m_subgroup_collapsed>
0

$$$$
CHEMBL1862_lig880
                    3D
 Schrodinger Suite 2021-1.
 52 55  0  0  1  0            999 V2000
   11.7392   13.6326    6.3976 N   0  0  0  0  0  0
   11.7437   14.2165    5.2001 C   0  0  0  0  0  0
   10.9469   15.0641    4.8086 O   0  0  0  0  0  0
   12.6842   13.6572    4.2103 C   0  0  0  0  0  0
   12.0840   12.8304    3.2830 C   0  0  0  0  0  0
   12.8441   12.1511    2.3776 C   0  0  0  0  0  0
   12.1658   11.2846    1.5927 F   0  0  0  0  0  0
   14.2284   12.3916    2.2917 C   0  0  0  0  0  0
   14.8359   13.3111    3.1496 C   0  0  0  0  0  0
   16.2565   13.8146    3.2527 C   0  0  0  0  0  0
   16.2153   14.6716    4.4394 N   0  0  0  0  0  0
   17.3832   15.2400    5.1879 C   0  0  0  0  0  0
   18.7178   14.4659    5.0690 C   0  0  0  0  0  0
   19.6158   14.8979    3.8917 C   0  0  0  0  0  0
   19.8544   16.3361    3.7866 N   0  0  1  0  0  0
   18.5597   17.0050    3.6938 C   0  0  0  0  0  0
   17.6669   16.7284    4.9300 C   0  0  0  0  0  0
   20.7360   16.9529    4.7951 C   0  0  0  0  0  0
   21.8214   16.0862    5.4885 C   0  0  0  0  0  0
   22.7287   16.9069    6.4011 C   0  0  0  0  0  0
   23.3066   18.2122    5.8200 C   0  0  0  0  0  0
   23.9746   18.8320    6.7874 F   0  0  0  0  0  0
   24.1450   18.0317    4.8086 F   0  0  0  0  0  0
   22.1933   19.0561    5.2172 C   0  0  0  0  0  0
   21.3224   18.2660    4.2364 C   0  0  0  0  0  0
   14.9713   14.7345    4.9807 C   0  0  0  0  0  0
   14.6714   15.2716    6.0320 O   0  0  0  0  0  0
   14.0666   13.9190    4.1176 C   0  0  0  0  0  0
   12.4975   13.0228    6.6631 H   0  0  0  0  0  0
   11.0810   13.9451    7.0967 H   0  0  0  0  0  0
   11.0186   12.6387    3.2891 H   0  0  0  0  0  0
   14.8193   11.8364    1.5884 H   0  0  0  0  0  0
   16.9828   13.0111    3.3694 H   0  0  0  0  0  0
   16.5592   14.4013    2.3897 H   0  0  0  0  0  0
   17.1086   15.2298    6.2443 H   0  0  0  0  0  0
   19.2664   14.5367    6.0078 H   0  0  0  0  0  0
   18.5241   13.3970    4.9954 H   0  0  0  0  0  0
   20.6002   14.4456    3.9458 H   0  0  0  0  0  0
   19.1865   14.5510    2.9506 H   0  0  0  0  0  0
   18.6635   18.0754    3.5387 H   0  0  0  0  0  0
   18.0658   16.6401    2.7917 H   0  0  0  0  0  0
   16.7080   17.2242    4.8542 H   0  0  0  0  0  0
   18.0750   17.1937    5.8248 H   0  0  0  0  0  0
   20.1403   17.2873    5.6426 H   0  0  0  0  0  0
   21.3643   15.2974    6.0853 H   0  0  0  0  0  0
   22.4796   15.5814    4.8026 H   0  0  0  0  0  0
   22.0860   17.2025    7.2098 H   0  0  0  0  0  0
   23.5186   16.2800    6.8084 H   0  0  0  0  0  0
   21.5626   19.4612    6.0032 H   0  0  0  0  0  0
   22.6250   19.9244    4.7155 H   0  0  0  0  0  0
   21.8873   18.0695    3.3238 H   0  0  0  0  0  0
   20.5007   18.9263    4.0011 H   0  0  0  0  0  0
  1  2  1  0  0  0
  1 29  1  0  0  0
  1 30  1  0  0  0
  2  3  2  0  0  0
  2  4  1  0  0  0
  4  5  2  0  0  0
  4 28  1  0  0  0
  5  6  1  0  0  0
  5 31  1  0  0  0
  6  7  1  0  0  0
  6  8  2  0  0  0
  8  9  1  0  0  0
  8 32  1  0  0  0
  9 10  1  0  0  0
  9 28  2  0  0  0
 10 11  1  0  0  0
 10 33  1  0  0  0
 10 34  1  0  0  0
 11 12  1  0  0  0
 11 26  1  0  0  0
 12 13  1  0  0  0
 12 17  1  0  0  0
 12 35  1  0  0  0
 13 14  1  0  0  0
 13 36  1  0  0  0
 13 37  1  0  0  0
 14 15  1  0  0  0
 14 38  1  0  0  0
 14 39  1  0  0  0
 15 16  1  0  0  0
 15 18  1  0  0  0
 16 17  1  0  0  0
 16 40  1  0  0  0
 16 41  1  0  0  0
 17 42  1  0  0  0
 17 43  1  0  0  0
 18 19  1  0  0  0
 18 25  1  0  0  0
 18 44  1  0  0  0
 19 20  1  0  0  0
 19 45  1  0  0  0
 19 46  1  0  0  0
 20 21  1  0  0  0
 20 47  1  0  0  0
 20 48  1  0  0  0
 21 22  1  0  0  0
 21 23  1  0  0  0
 21 24  1  0  0  0
 24 25  1  0  0  0
 24 49  1  0  0  0
 24 50  1  0  0  0
 25 51  1  0  0  0
 25 52  1  0  0  0
 26 27  2  0  0  0
 26 28  1  0  0  0
M  END
> <s_m_entry_id>
6419

> <s_m_entry_name>
dock_pv.345

> <s_m_Source_Path>
/home/csk/Desktop/cluster/DUD-E-result/abl1

> <s_m_Source_File>
dock_pv.maegz

> <i_m_Source_File_Index>
345

> <chembl_id>
CHEMBL3606021

> <chembl_pref_name>
None

> <i_lp_mmshare_version>
53161

> <i_f3d_flags>
0

> <r_lp_tautomer_probability>
1

> <s_lp_Force_Field>
OPLS_2005

> <r_lp_Energy>
56.880896

> <b_lp_Chiralities_Consistent>
1

> <s_lp_Variant>
CHEMBL1862_lig880-1

> <s_i_glide_gridfile>
glide-grid_2hzi

> <i_i_glide_lignum>
1020

> <i_i_glide_rotatable_bonds>
3

> <r_i_docking_score>
-7.49145040557955

> <r_i_glide_ligand_efficiency>
-0.267551800199269

> <r_i_glide_ligand_efficiency_sa>
-0.812444844988172

> <r_i_glide_ligand_efficiency_ln>
-1.72924671214946

> <r_i_glide_gscore>
-7.49145040557955

> <r_i_glide_lipo>
-4.38122695878348

> <r_i_glide_hbond>
0

> <r_i_glide_metal>
0

> <r_i_glide_rewards>
-2.47566911382096

> <r_i_glide_evdw>
-20.2549381256104

> <r_i_glide_ecoul>
1.11569905281067

> <r_i_glide_erotb>
0.250130437032886

> <r_i_glide_esite>
-0.0392927216490816

> <r_i_glide_emodel>
-34.6185254236973

> <r_i_glide_energy>
-19.1392390727997

> <r_i_glide_einternal>
6.48135900497437

> <i_i_glide_confnum>
6

> <i_i_glide_posenum>
183

> <r_i_glide_eff_state_penalty>
0

> <s_user_duplicate_titles>
CHEMBL1862_lig880

> <s_m_subgroup_title>
dock_pv

> <s_m_subgroupid>
dock_pv

> <b_m_subgroup_collapsed>
0

$$$$
CHEMBL1862_lig366
                    3D
 Schrodinger Suite 2021-1.
 35 38  0  0  1  0            999 V2000
   15.1330   12.9690    2.7988 N   0  0  0  0  0  0
   14.7653   13.8952    3.7242 C   0  0  0  0  0  0
   13.4164   14.0334    4.1030 C   0  0  0  0  0  0
   14.1985   12.2091    2.1938 C   0  0  0  0  0  0
   12.8354   12.3132    2.4925 C   0  0  0  0  0  0
   12.4731   13.2416    3.4822 N   0  0  0  0  0  0
   11.1083   13.0800    3.6216 C   0  0  0  0  0  0
   10.7490   12.1159    2.6776 C   0  0  0  0  0  0
   11.7642   11.6367    2.0039 N   0  0  0  0  0  0
   15.8855   14.7672    4.2245 C   0  0  0  0  0  0
   10.2696   13.6110    4.6700 C   0  0  0  0  0  0
    8.9400   14.0345    4.5755 C   0  0  0  0  0  0
    8.3944   14.2837    5.7449 N   0  0  0  0  0  0
    9.3673   14.0314    6.6226 N   0  0  0  0  0  0
   10.5359   13.6331    6.0289 C   0  0  0  0  0  0
   15.7212   15.6355    5.3136 C   0  0  0  0  0  0
   16.7555   16.4820    5.7166 C   0  0  0  0  0  0
   17.9701   16.4896    5.0252 C   0  0  0  0  0  0
   18.1691   15.5943    3.9792 C   0  0  0  0  0  0
   17.1426   14.7468    3.5932 C   0  0  0  0  0  0
   19.0763   17.4646    5.4002 C   0  0  0  0  0  0
   19.7445   18.0315    4.2879 O   0  0  0  0  0  0
   13.0477   14.7396    4.8304 H   0  0  0  0  0  0
   14.5509   11.4970    1.4633 H   0  0  0  0  0  0
    9.7558   11.7090    2.5406 H   0  0  0  0  0  0
    8.3724   14.1011    3.6621 H   0  0  0  0  0  0
    9.2139   14.0977    7.6193 H   0  0  0  0  0  0
   11.4000   13.3493    6.6137 H   0  0  0  0  0  0
   14.7882   15.6726    5.8552 H   0  0  0  0  0  0
   16.5958   17.1527    6.5480 H   0  0  0  0  0  0
   19.1100   15.5696    3.4467 H   0  0  0  0  0  0
   17.3426   14.0861    2.7637 H   0  0  0  0  0  0
   19.8075   16.9258    6.0014 H   0  0  0  0  0  0
   18.6754   18.2792    6.0052 H   0  0  0  0  0  0
   20.6232   18.3100    4.5597 H   0  0  0  0  0  0
  1  2  1  0  0  0
  1  4  2  0  0  0
  2  3  2  0  0  0
  2 10  1  0  0  0
  3  6  1  0  0  0
  3 23  1  0  0  0
  4  5  1  0  0  0
  4 24  1  0  0  0
  5  6  1  0  0  0
  5  9  2  0  0  0
  6  7  1  0  0  0
  7 11  1  0  0  0
  7  8  2  0  0  0
  8  9  1  0  0  0
  8 25  1  0  0  0
 10 16  2  0  0  0
 10 20  1  0  0  0
 11 12  1  0  0  0
 11 15  2  0  0  0
 12 13  2  0  0  0
 12 26  1  0  0  0
 13 14  1  0  0  0
 14 15  1  0  0  0
 14 27  1  0  0  0
 15 28  1  0  0  0
 16 17  1  0  0  0
 16 29  1  0  0  0
 17 18  2  0  0  0
 17 30  1  0  0  0
 18 19  1  0  0  0
 18 21  1  0  0  0
 19 20  2  0  0  0
 19 31  1  0  0  0
 20 32  1  0  0  0
 21 22  1  0  0  0
 21 33  1  0  0  0
 21 34  1  0  0  0
 22 35  1  0  0  0
M  END
> <s_m_entry_id>
6421

> <s_m_entry_name>
dock_pv.347

> <s_m_Source_Path>
/home/csk/Desktop/cluster/DUD-E-result/abl1

> <s_m_Source_File>
dock_pv.maegz

> <i_m_Source_File_Index>
347

> <chembl_id>
CHEMBL1170749

> <chembl_pref_name>
None

> <i_lp_mmshare_version>
53161

> <i_f3d_flags>
0

> <r_lp_tautomer_probability>
0.5

> <s_lp_Force_Field>
OPLS_2005

> <r_lp_Energy>
13.402114

> <b_lp_Chiralities_Consistent>
1

> <s_lp_Variant>
CHEMBL1862_lig366-1

> <s_i_glide_gridfile>
glide-grid_2hzi

> <i_i_glide_lignum>
449

> <i_i_glide_rotatable_bonds>
4

> <r_i_docking_score>
-7.45209865255407

> <r_i_glide_ligand_efficiency>
-0.338731756934276

> <r_i_glide_ligand_efficiency_sa>
-0.949139704493898

> <r_i_glide_ligand_efficiency_ln>
-1.82156473258709

> <r_i_glide_gscore>
-7.45209865255407

> <r_i_glide_lipo>
-3.48190364398092

> <r_i_glide_hbond>
0

> <r_i_glide_metal>
0

> <r_i_glide_rewards>
-2.70581386387883

> <r_i_glide_evdw>
-34.4003562927246

> <r_i_glide_ecoul>
-1.26101899147034

> <r_i_glide_erotb>
0.64478951866246

> <r_i_glide_esite>
0

> <r_i_glide_emodel>
-42.5953306024149

> <r_i_glide_energy>
-35.6613752841949

> <r_i_glide_einternal>
2.04265713691711

> <i_i_glide_confnum>
16

> <i_i_glide_posenum>
125

> <r_i_glide_eff_state_penalty>
0

> <s_user_duplicate_titles>
CHEMBL1862_lig366,647489

> <s_m_subgroup_title>
dock_pv

> <s_m_subgroupid>
dock_pv

> <b_m_subgroup_collapsed>
0

$$$$
CHEMBL1862_lig124
                    3D
 Schrodinger Suite 2021-1.
 34 36  0  0  1  0            999 V2000
   17.4362   14.6220    3.6678 C   0  0  0  0  0  0
   16.0836   14.7052    3.7366 N   0  0  0  0  0  0
   15.3635   13.6079    3.3605 C   0  0  0  0  0  0
   22.3604   18.2102    4.9380 C   0  0  0  0  0  0
   18.1487   15.7602    4.0656 N   0  0  0  0  0  0
   18.1301   13.5399    3.2282 N   0  0  0  0  0  0
   21.4395   17.0472    5.2259 C   0  0  0  0  0  0
   13.8866   13.6479    3.6032 C   0  0  0  0  0  0
   20.2052   16.9437    4.5602 C   0  0  0  0  0  0
   19.3743   15.8337    4.7465 C   0  0  0  0  0  0
   22.1640   18.9822    4.0028 O   0  0  0  0  0  0
   11.9861   14.5949    4.8029 N   0  0  0  0  0  0
   16.0034   12.4722    2.8446 C   0  0  0  0  0  0
   17.3986   12.4806    2.8030 C   0  0  0  0  0  0
   23.4149   18.3398    5.7902 O   0  0  0  0  0  0
   13.3140   14.5356    4.5308 C   0  0  0  0  0  0
   21.8049   16.0230    6.1153 C   0  0  0  0  0  0
   20.9643   14.9318    6.3297 C   0  0  0  0  0  0
   12.9994   12.7834    2.9370 C   0  0  0  0  0  0
   11.1626   13.7495    4.1392 C   0  0  0  0  0  0
   19.7586   14.8344    5.6438 C   0  0  0  0  0  0
   11.6309   12.8330    3.2029 C   0  0  0  0  0  0
   17.6085   16.6103    4.0716 H   0  0  0  0  0  0
   19.8987   17.7114    3.8626 H   0  0  0  0  0  0
   15.4455   11.6045    2.5388 H   0  0  0  0  0  0
   17.9613   11.6327    2.4364 H   0  0  0  0  0  0
   23.4223   17.6615    6.4651 H   0  0  0  0  0  0
   13.9277   15.2190    5.0983 H   0  0  0  0  0  0
   22.7501   16.0311    6.6395 H   0  0  0  0  0  0
   21.2600   14.1430    7.0045 H   0  0  0  0  0  0
   13.3520   12.0702    2.2073 H   0  0  0  0  0  0
   10.1115   13.8112    4.3776 H   0  0  0  0  0  0
   19.1196   13.9794    5.8147 H   0  0  0  0  0  0
   10.9508   12.1638    2.6953 H   0  0  0  0  0  0
  1  2  1  0  0  0
  1  5  1  0  0  0
  1  6  2  0  0  0
  2  3  2  0  0  0
  3  8  1  0  0  0
  3 13  1  0  0  0
  4  7  1  0  0  0
  4 11  2  0  0  0
  4 15  1  0  0  0
  5 10  1  0  0  0
  5 23  1  0  0  0
  6 14  1  0  0  0
  7  9  2  0  0  0
  7 17  1  0  0  0
  8 16  1  0  0  0
  8 19  2  0  0  0
  9 10  1  0  0  0
  9 24  1  0  0  0
 10 21  2  0  0  0
 12 16  2  0  0  0
 12 20  1  0  0  0
 13 14  2  0  0  0
 13 25  1  0  0  0
 14 26  1  0  0  0
 15 27  1  0  0  0
 16 28  1  0  0  0
 17 18  2  0  0  0
 17 29  1  0  0  0
 18 21  1  0  0  0
 18 30  1  0  0  0
 19 22  1  0  0  0
 19 31  1  0  0  0
 20 22  2  0  0  0
 20 32  1  0  0  0
 21 33  1  0  0  0
 22 34  1  0  0  0
M  END
> <s_m_entry_id>
6422

> <s_m_entry_name>
dock_pv.348

> <s_m_Source_Path>
/home/csk/Desktop/cluster/DUD-E-result/abl1

> <s_m_Source_File>
dock_pv.maegz

> <i_m_Source_File_Index>
348

> <chembl_id>
CHEMBL57556

> <chembl_pref_name>
None

> <i_lp_mmshare_version>
53161

> <i_f3d_flags>
0

> <r_lp_tautomer_probability>
0.999999987636

> <s_lp_Force_Field>
OPLS_2005

> <r_lp_Energy>
10.13556

> <b_lp_Chiralities_Consistent>
1

> <s_lp_Variant>
CHEMBL1862_lig124-1

> <s_i_glide_gridfile>
glide-grid_2hzi

> <i_i_glide_lignum>
143

> <i_i_glide_rotatable_bonds>
5

> <r_i_docking_score>
-7.45089119854231

> <r_i_glide_ligand_efficiency>
-0.338676872661014

> <r_i_glide_ligand_efficiency_sa>
-0.948985916601742

> <r_i_glide_ligand_efficiency_ln>
-1.82126958678366

> <r_i_glide_gscore>
-7.45089119854231

> <r_i_glide_lipo>
-3.81787759142694

> <r_i_glide_hbond>
0

> <r_i_glide_metal>
0

> <r_i_glide_rewards>
-1.87872149935482

> <r_i_glide_evdw>
-49.5763244628906

> <r_i_glide_ecoul>
-0.867652714252472

> <r_i_glide_erotb>
0.854672022521855

> <r_i_glide_esite>
0

> <r_i_glide_emodel>
-68.2694568173516

> <r_i_glide_energy>
-50.4439771771431

> <r_i_glide_einternal>
8.86218547821045

> <i_i_glide_confnum>
21

> <i_i_glide_posenum>
217

> <r_i_glide_eff_state_penalty>
0

> <s_user_duplicate_titles>
CHEMBL1862_lig124

> <s_m_subgroup_title>
dock_pv

> <s_m_subgroupid>
dock_pv

> <b_m_subgroup_collapsed>
0

$$$$
CHEMBL1862_lig585
                    3D
 Schrodinger Suite 2021-1.
 32 35  0  0  1  0            999 V2000
   22.7030   17.8058    5.9788 C   0  0  0  0  0  0
   23.1001   18.9606    5.3145 C   0  0  0  0  0  0
   22.5640   19.3080    4.0725 C   0  0  0  0  0  0
   21.7640   18.3875    3.3882 C   0  0  0  0  0  0
   21.3646   18.4330    2.0599 C   0  0  0  0  0  0
   20.3585   17.6219    1.5407 C   0  0  0  0  0  0
   19.7640   16.6787    2.3631 C   0  0  0  0  0  0
   20.2758   16.5205    3.6376 C   0  0  0  0  0  0
   21.7159   17.0335    5.3860 C   0  0  0  0  0  0
   21.2736   17.3323    4.1169 C   0  0  0  0  0  0
   20.9250   15.9277    5.7534 C   0  0  0  0  0  0
   20.0002   15.6616    4.7117 C   0  0  0  0  0  0
   19.2050   14.7153    5.1228 C   0  0  0  0  0  0
   19.7640   14.4330    6.4030 C   0  0  0  0  0  0
   20.8330   15.1969    6.7425 N   0  0  0  0  0  0
   18.0834   14.1556    4.3903 C   0  0  0  0  0  0
   19.3640   13.6330    7.1764 O   0  0  0  0  0  0
   16.9584   14.8935    4.5345 O   0  0  0  0  0  0
   18.1641   13.1365    3.7015 O   0  0  0  0  0  0
   15.7470   14.4961    3.8998 C   0  0  0  0  0  0
   14.5620   15.2329    4.5338 C   0  0  0  0  0  0
   23.1004   17.5753    6.9560 H   0  0  0  0  0  0
   23.7990   19.6312    5.7837 H   0  0  0  0  0  0
   22.8936   20.2185    3.6030 H   0  0  0  0  0  0
   21.7640   19.2849    1.5761 H   0  0  0  0  0  0
   20.0284   17.7389    0.5211 H   0  0  0  0  0  0
   18.9764   16.0414    2.0030 H   0  0  0  0  0  0
   15.5940   13.4199    4.0031 H   0  0  0  0  0  0
   15.8045   14.7149    2.8324 H   0  0  0  0  0  0
   13.6236   14.9170    4.0783 H   0  0  0  0  0  0
   14.6417   16.3121    4.4070 H   0  0  0  0  0  0
   14.4976   15.0253    5.6026 H   0  0  0  0  0  0
  1  2  2  0  0  0
  1  9  1  0  0  0
  1 22  1  0  0  0
  2  3  1  0  0  0
  2 23  1  0  0  0
  3  4  2  0  0  0
  3 24  1  0  0  0
  4 10  1  0  0  0
  4  5  1  0  0  0
  5  6  2  0  0  0
  5 25  1  0  0  0
  6  7  1  0  0  0
  6 26  1  0  0  0
  7  8  2  0  0  0
  7 27  1  0  0  0
  8 12  1  0  0  0
  8 10  1  0  0  0
  9 10  2  0  0  0
  9 11  1  0  0  0
 11 12  1  0  0  0
 11 15  2  0  0  0
 12 13  2  0  0  0
 13 14  1  0  0  0
 13 16  1  0  0  0
 14 15  1  0  0  0
 14 17  2  0  0  0
 16 18  1  0  0  0
 16 19  2  0  0  0
 18 20  1  0  0  0
 20 21  1  0  0  0
 20 28  1  0  0  0
 20 29  1  0  0  0
 21 30  1  0  0  0
 21 31  1  0  0  0
 21 32  1  0  0  0
M  END
> <s_m_entry_id>
6423

> <s_m_entry_name>
dock_pv.349

> <s_m_Source_Path>
/home/csk/Desktop/cluster/DUD-E-result/abl1

> <s_m_Source_File>
dock_pv.maegz

> <i_m_Source_File_Index>
349

> <chembl_id>
CHEMBL1784725

> <chembl_pref_name>
None

> <i_lp_mmshare_version>
53161

> <i_f3d_flags>
0

> <r_lp_tautomer_probability>
1

> <s_lp_Force_Field>
OPLS_2005

> <r_lp_Energy>
71.396822

> <b_lp_Chiralities_Consistent>
1

> <s_lp_Variant>
CHEMBL1862_lig585-1

> <s_i_glide_gridfile>
glide-grid_2hzi

> <i_i_glide_lignum>
691

> <i_i_glide_rotatable_bonds>
3

> <r_i_docking_score>
-7.44345697629033

> <r_i_glide_ligand_efficiency>
-0.354450332204301

> <r_i_glide_ligand_efficiency_sa>
-0.977901589852352

> <r_i_glide_ligand_efficiency_ln>
-1.84037969646673

> <r_i_glide_gscore>
-7.44345697629033

> <r_i_glide_lipo>
-3.99652719424251

> <r_i_glide_hbond>
-0.00324438358252076

> <r_i_glide_metal>
0

> <r_i_glide_rewards>
-3.04146103028971

> <r_i_glide_evdw>
-5.76224040985107

> <r_i_glide_ecoul>
-2.32212829589844

> <r_i_glide_erotb>
0.234206896701733

> <r_i_glide_esite>
0

> <r_i_glide_emodel>
-32.6786225581194

> <r_i_glide_energy>
-8.08436870574951

> <r_i_glide_einternal>
7.98434209823608

> <i_i_glide_confnum>
1

> <i_i_glide_posenum>
12

> <r_i_glide_eff_state_penalty>
0

> <s_user_duplicate_titles>
CHEMBL1862_lig585

> <s_m_subgroup_title>
dock_pv

> <s_m_subgroupid>
dock_pv

> <b_m_subgroup_collapsed>
0

$$$$
CHEMBL1862_lig749
                    3D
 Schrodinger Suite 2021-1.
 36 38  0  0  1  0            999 V2000
   14.4517   13.4081    3.5545 C   0  0  0  0  0  0
   15.2272   12.3876    2.9770 C   0  0  0  0  0  0
   16.6100   12.4878    2.8073 C   0  0  0  0  0  0
   15.0842   14.5840    4.0047 C   0  0  0  0  0  0
   16.4684   14.6744    3.8541 C   0  0  0  0  0  0
   17.2386   13.6523    3.2537 C   0  0  0  0  0  0
   18.5641   13.9951    3.2070 N   0  0  0  0  0  0
   18.6279   15.1784    3.7644 C   0  0  0  0  0  0
   17.3968   15.6328    4.1854 N   0  0  0  0  0  0
   19.8056   15.9041    3.8503 N   0  0  0  0  0  0
   19.9903   17.0605    4.5221 C   0  0  0  0  0  0
   21.2653   17.4735    4.4351 N   0  0  0  0  0  0
   19.1177   17.6596    5.1577 O   0  0  0  0  0  0
   21.8852   18.5100    5.2633 C   0  0  0  0  0  0
   23.1209   17.9870    6.0029 C   0  0  0  0  0  0
   12.9580   13.2776    3.6489 C   0  0  0  0  0  0
   12.2123   14.0340    4.5705 C   0  0  0  0  0  0
   10.8177   13.9794    4.5469 C   0  0  0  0  0  0
   10.1246   13.2094    3.6751 N   0  0  0  0  0  0
   10.8365   12.4330    2.8183 C   0  0  0  0  0  0
   12.2340   12.4333    2.7863 C   0  0  0  0  0  0
   14.7478   11.4771    2.6509 H   0  0  0  0  0  0
   17.1902   11.6882    2.3709 H   0  0  0  0  0  0
   14.5340   15.4036    4.4407 H   0  0  0  0  0  0
   17.2828   16.5302    4.6369 H   0  0  0  0  0  0
   20.5961   15.4877    3.3827 H   0  0  0  0  0  0
   21.8436   17.0856    3.7065 H   0  0  0  0  0  0
   21.1839   18.9174    5.9972 H   0  0  0  0  0  0
   22.1661   19.3457    4.6225 H   0  0  0  0  0  0
   23.5725   18.7774    6.6043 H   0  0  0  0  0  0
   23.8813   17.6345    5.3076 H   0  0  0  0  0  0
   22.8682   17.1689    6.6791 H   0  0  0  0  0  0
   12.6932   14.6755    5.2895 H   0  0  0  0  0  0
   10.2295   14.5650    5.2380 H   0  0  0  0  0  0
   10.2693   11.8019    2.1503 H   0  0  0  0  0  0
   12.7293   11.8116    2.0551 H   0  0  0  0  0  0
  1  2  2  0  0  0
  1  4  1  0  0  0
  1 16  1  0  0  0
  2  3  1  0  0  0
  2 22  1  0  0  0
  3  6  2  0  0  0
  3 23  1  0  0  0
  4  5  2  0  0  0
  4 24  1  0  0  0
  5  6  1  0  0  0
  5  9  1  0  0  0
  6  7  1  0  0  0
  7  8  2  0  0  0
  8  9  1  0  0  0
  8 10  1  0  0  0
  9 25  1  0  0  0
 10 11  1  0  0  0
 10 26  1  0  0  0
 11 12  1  0  0  0
 11 13  2  0  0  0
 12 14  1  0  0  0
 12 27  1  0  0  0
 14 15  1  0  0  0
 14 28  1  0  0  0
 14 29  1  0  0  0
 15 30  1  0  0  0
 15 31  1  0  0  0
 15 32  1  0  0  0
 16 17  2  0  0  0
 16 21  1  0  0  0
 17 18  1  0  0  0
 17 33  1  0  0  0
 18 19  2  0  0  0
 18 34  1  0  0  0
 19 20  1  0  0  0
 20 21  2  0  0  0
 20 35  1  0  0  0
 21 36  1  0  0  0
M  END
> <s_m_entry_id>
6424

> <s_m_entry_name>
dock_pv.350

> <s_m_Source_Path>
/home/csk/Desktop/cluster/DUD-E-result/abl1

> <s_m_Source_File>
dock_pv.maegz

> <i_m_Source_File_Index>
350

> <chembl_id>
CHEMBL2347748

> <chembl_pref_name>
None

> <i_lp_mmshare_version>
53161

> <i_f3d_flags>
0

> <r_lp_tautomer_probability>
1

> <s_lp_Force_Field>
OPLS_2005

> <r_lp_Energy>
11.174045

> <b_lp_Chiralities_Consistent>
1

> <s_lp_Variant>
CHEMBL1862_lig749-1

> <s_i_glide_gridfile>
glide-grid_2hzi

> <i_i_glide_lignum>
882

> <i_i_glide_rotatable_bonds>
5

> <r_i_docking_score>
-7.35860130885038

> <r_i_glide_ligand_efficiency>
-0.350409586135732

> <r_i_glide_ligand_efficiency_sa>
-0.966753477844474

> <r_i_glide_ligand_efficiency_ln>
-1.81939930415923

> <r_i_glide_gscore>
-7.35860130885038

> <r_i_glide_lipo>
-3.58896669989876

> <r_i_glide_hbond>
-0.0675990435678036

> <r_i_glide_metal>
0

> <r_i_glide_rewards>
-2.1007459019411

> <r_i_glide_evdw>
-43.255859375

> <r_i_glide_ecoul>
-2.34731006622314

> <r_i_glide_erotb>
0.913599815240751

> <r_i_glide_esite>
0

> <r_i_glide_emodel>
-64.3661621078414

> <r_i_glide_energy>
-45.6031694412231

> <r_i_glide_einternal>
2.7322461605072

> <i_i_glide_confnum>
9

> <i_i_glide_posenum>
14

> <r_i_glide_eff_state_penalty>
0

> <s_user_duplicate_titles>
CHEMBL1862_lig749

> <s_m_subgroup_title>
dock_pv

> <s_m_subgroupid>
dock_pv

> <b_m_subgroup_collapsed>
0

$$$$
CHEMBL1862_lig123
                    3D
 Schrodinger Suite 2021-1.
 45 48  0  0  1  0            999 V2000
   15.1077   13.7746    3.6061 C   0  0  0  0  0  0
   13.9367   14.0407    4.2343 N   0  0  0  0  0  0
   20.8528   17.6328    2.9844 C   0  0  0  0  0  0
   19.6776   16.9896    2.8793 N   0  0  0  0  0  0
   12.8190   13.4641    3.7182 C   0  0  0  0  0  0
   16.2526   14.0391    4.3314 N   0  0  0  0  0  0
   15.2685   13.0025    2.5091 N   0  0  0  0  0  0
   11.5641   13.6332    4.4913 C   0  0  0  0  0  0
   18.7544   16.6815    3.8728 C   0  0  0  0  0  0
   21.3631   18.1412    2.0019 O   0  0  0  0  0  0
   17.9473   15.5723    3.6261 C   0  0  0  0  0  0
   16.9304   15.2363    4.5097 C   0  0  0  0  0  0
   21.6308   17.6543    4.2645 C   0  0  0  0  0  0
    9.1357   13.7026    4.5688 N   0  0  0  0  0  0
   12.8827   12.6216    2.6072 C   0  0  0  0  0  0
   14.1381   12.4306    2.0294 C   0  0  0  0  0  0
   10.3060   13.6723    3.8794 C   0  0  0  0  0  0
   17.5475   17.0927    5.9319 C   0  0  0  0  0  0
   11.5974   13.6331    5.8937 C   0  0  0  0  0  0
    9.1977   13.6690    5.9219 C   0  0  0  0  0  0
   18.5629   17.4385    5.0390 C   0  0  0  0  0  0
   16.7183   16.0036    5.6600 C   0  0  0  0  0  0
   22.4075   18.7844    4.5360 C   0  0  0  0  0  0
   21.6985   16.5266    5.0937 C   0  0  0  0  0  0
   10.4027   13.6315    6.6209 C   0  0  0  0  0  0
   22.5600   16.5329    6.1780 C   0  0  0  0  0  0
   23.2843   18.7747    5.6002 C   0  0  0  0  0  0
   23.3623   17.6491    6.4005 C   0  0  0  0  0  0
   19.4179   16.7148    1.9438 H   0  0  0  0  0  0
   16.0761   13.6836    5.2654 H   0  0  0  0  0  0
   18.1346   14.9237    2.7801 H   0  0  0  0  0  0
   12.0113   12.1054    2.2353 H   0  0  0  0  0  0
   14.2582   11.7392    1.2041 H   0  0  0  0  0  0
   10.2047   13.6459    2.8062 H   0  0  0  0  0  0
   17.3869   17.6650    6.8331 H   0  0  0  0  0  0
   12.5611   13.6032    6.4062 H   0  0  0  0  0  0
    8.2587   13.6734    6.4540 H   0  0  0  0  0  0
   19.1736   18.3057    5.2468 H   0  0  0  0  0  0
   15.9503   15.7295    6.3650 H   0  0  0  0  0  0
   22.3745   19.6533    3.9002 H   0  0  0  0  0  0
   21.1296   15.6308    4.8793 H   0  0  0  0  0  0
   10.4203   13.6122    7.6993 H   0  0  0  0  0  0
   22.6586   15.6542    6.8001 H   0  0  0  0  0  0
   23.9063   19.6324    5.7681 H   0  0  0  0  0  0
   24.0871   17.6273    7.2018 H   0  0  0  0  0  0
  1  2  1  0  0  0
  1  6  1  0  0  0
  1  7  2  0  0  0
  2  5  2  0  0  0
  3  4  1  0  0  0
  3 10  2  0  0  0
  3 13  1  0  0  0
  4  9  1  0  0  0
  4 29  1  0  0  0
  5  8  1  0  0  0
  5 15  1  0  0  0
  6 12  1  0  0  0
  6 30  1  0  0  0
  7 16  1  0  0  0
  8 17  1  0  0  0
  8 19  2  0  0  0
  9 11  2  0  0  0
  9 21  1  0  0  0
 11 12  1  0  0  0
 11 31  1  0  0  0
 12 22  2  0  0  0
 13 23  2  0  0  0
 13 24  1  0  0  0
 14 17  2  0  0  0
 14 20  1  0  0  0
 15 16  2  0  0  0
 15 32  1  0  0  0
 16 33  1  0  0  0
 17 34  1  0  0  0
 18 22  1  0  0  0
 18 21  2  0  0  0
 18 35  1  0  0  0
 19 25  1  0  0  0
 19 36  1  0  0  0
 20 25  2  0  0  0
 20 37  1  0  0  0
 21 38  1  0  0  0
 22 39  1  0  0  0
 23 27  1  0  0  0
 23 40  1  0  0  0
 24 26  2  0  0  0
 24 41  1  0  0  0
 25 42  1  0  0  0
 26 28  1  0  0  0
 26 43  1  0  0  0
 27 28  2  0  0  0
 27 44  1  0  0  0
 28 45  1  0  0  0
M  END
> <s_m_entry_id>
6425

> <s_m_entry_name>
dock_pv.351

> <s_m_Source_Path>
/home/csk/Desktop/cluster/DUD-E-result/abl1

> <s_m_Source_File>
dock_pv.maegz

> <i_m_Source_File_Index>
351

> <chembl_id>
CHEMBL277931

> <chembl_pref_name>
None

> <i_lp_mmshare_version>
53161

> <i_f3d_flags>
0

> <r_lp_tautomer_probability>
0.999999987636

> <s_lp_Force_Field>
OPLS_2005

> <r_lp_Energy>
23.318209

> <b_lp_Chiralities_Consistent>
1

> <s_lp_Variant>
CHEMBL1862_lig123-1

> <s_i_glide_gridfile>
glide-grid_2hzi

> <i_i_glide_lignum>
142

> <i_i_glide_rotatable_bonds>
6

> <r_i_docking_score>
-7.33690184603004

> <r_i_glide_ligand_efficiency>
-0.262032208786787

> <r_i_glide_ligand_efficiency_sa>
-0.795684114594385

> <r_i_glide_ligand_efficiency_ln>
-1.69357236686255

> <r_i_glide_gscore>
-7.33690184603004

> <r_i_glide_lipo>
-5.42435646679083

> <r_i_glide_hbond>
0

> <r_i_glide_metal>
0

> <r_i_glide_rewards>
-0.354034206014554

> <r_i_glide_evdw>
-41.9547500610352

> <r_i_glide_ecoul>
-2.11193990707397

> <r_i_glide_erotb>
0.856017315888197

> <r_i_glide_esite>
0

> <r_i_glide_emodel>
-30.6239554234232

> <r_i_glide_energy>
-44.0666899681091

> <r_i_glide_einternal>
27.5594863891602

> <i_i_glide_confnum>
66

> <i_i_glide_posenum>
202

> <r_i_glide_eff_state_penalty>
0

> <s_user_duplicate_titles>
CHEMBL1862_lig123

> <s_m_subgroup_title>
dock_pv

> <s_m_subgroupid>
dock_pv

> <b_m_subgroup_collapsed>
0

$$$$
CHEMBL1862_lig119
                    3D
 Schrodinger Suite 2021-1.
 33 35  0  0  1  0            999 V2000
   22.2032   18.0776    4.7210 N   0  3  0  0  0  0
   17.2603   14.6069    3.9709 C   0  0  0  0  0  0
   15.9040   14.5747    4.0030 N   0  0  0  0  0  0
   21.3138   16.9720    5.1515 C   0  0  0  0  0  0
   15.2827   13.4938    3.4449 C   0  0  0  0  0  0
   17.8658   15.7237    4.5586 N   0  0  0  0  0  0
   19.9928   16.8801    4.6793 C   0  0  0  0  0  0
   18.0506   13.6506    3.4153 N   0  0  0  0  0  0
   21.8066   18.8333    3.8406 O   0  5  0  0  0  0
   23.3028   18.1904    5.2544 O   0  0  0  0  0  0
   13.1669   12.5007    2.7821 N   0  0  0  0  0  0
   13.7876   13.4330    3.5613 C   0  0  0  0  0  0
   19.1724   15.8148    5.0559 C   0  0  0  0  0  0
   16.0307   12.4853    2.8132 C   0  0  0  0  0  0
   17.4207   12.6005    2.8333 C   0  0  0  0  0  0
   21.7849   15.9784    6.0236 C   0  0  0  0  0  0
   20.9633   14.9200    6.4059 C   0  0  0  0  0  0
   11.8159   12.4134    2.8031 C   0  0  0  0  0  0
   19.6589   14.8427    5.9314 C   0  0  0  0  0  0
   13.0448   14.2793    4.4030 C   0  0  0  0  0  0
   11.0220   13.2331    3.6032 C   0  0  0  0  0  0
   11.6514   14.1703    4.4223 C   0  0  0  0  0  0
   17.2176   16.4200    4.9009 H   0  0  0  0  0  0
   19.6072   17.6221    3.9956 H   0  0  0  0  0  0
   15.5463   11.6325    2.3639 H   0  0  0  0  0  0
   18.0577   11.8416    2.4023 H   0  0  0  0  0  0
   22.7989   16.0120    6.3989 H   0  0  0  0  0  0
   21.3426   14.1494    7.0588 H   0  0  0  0  0  0
   11.3757   11.6577    2.1672 H   0  0  0  0  0  0
   19.0268   14.0209    6.2313 H   0  0  0  0  0  0
   13.5341   15.0112    5.0315 H   0  0  0  0  0  0
    9.9463   13.1307    3.6003 H   0  0  0  0  0  0
   11.0643   14.8111    5.0630 H   0  0  0  0  0  0
  1  4  1  0  0  0
  1  9  1  0  0  0
  1 10  2  0  0  0
  2  6  1  0  0  0
  2  3  1  0  0  0
  2  8  2  0  0  0
  3  5  2  0  0  0
  4  7  2  0  0  0
  4 16  1  0  0  0
  5 12  1  0  0  0
  5 14  1  0  0  0
  6 13  1  0  0  0
  6 23  1  0  0  0
  7 13  1  0  0  0
  7 24  1  0  0  0
  8 15  1  0  0  0
 11 12  1  0  0  0
 11 18  2  0  0  0
 12 20  2  0  0  0
 13 19  2  0  0  0
 14 15  2  0  0  0
 14 25  1  0  0  0
 15 26  1  0  0  0
 16 17  2  0  0  0
 16 27  1  0  0  0
 17 19  1  0  0  0
 17 28  1  0  0  0
 18 21  1  0  0  0
 18 29  1  0  0  0
 19 30  1  0  0  0
 20 22  1  0  0  0
 20 31  1  0  0  0
 21 22  2  0  0  0
 21 32  1  0  0  0
 22 33  1  0  0  0
M  CHG  2   1   1   9  -1
M  END
> <s_m_entry_id>
6426

> <s_m_entry_name>
dock_pv.352

> <s_m_Source_Path>
/home/csk/Desktop/cluster/DUD-E-result/abl1

> <s_m_Source_File>
dock_pv.maegz

> <i_m_Source_File_Index>
352

> <chembl_id>
CHEMBL60816

> <chembl_pref_name>
None

> <i_lp_mmshare_version>
53161

> <i_f3d_flags>
0

> <r_lp_tautomer_probability>
0.999999987636

> <s_lp_Force_Field>
OPLS_2005

> <r_lp_Energy>
7.204034

> <b_lp_Chiralities_Consistent>
1

> <s_lp_Variant>
CHEMBL1862_lig119-1

> <s_i_glide_gridfile>
glide-grid_2hzi

> <i_i_glide_lignum>
138

> <i_i_glide_rotatable_bonds>
4

> <r_i_docking_score>
-7.33565415405927

> <r_i_glide_ligand_efficiency>
-0.333438825184512

> <r_i_glide_ligand_efficiency_sa>
-0.934308701571867

> <r_i_glide_ligand_efficiency_ln>
-1.79310144973868

> <r_i_glide_gscore>
-7.33565415405927

> <r_i_glide_lipo>
-3.88993574901236

> <r_i_glide_hbond>
0

> <r_i_glide_metal>
0

> <r_i_glide_rewards>
-1.81280290206276

> <r_i_glide_evdw>
-48.3722610473633

> <r_i_glide_ecoul>
0.989720523357391

> <r_i_glide_erotb>
0.637239470880406

> <r_i_glide_esite>
0

> <r_i_glide_emodel>
-65.1739112252275

> <r_i_glide_energy>
-47.3825405240059

> <r_i_glide_einternal>
4.95689678192139

> <i_i_glide_confnum>
9

> <i_i_glide_posenum>
150

> <r_i_glide_eff_state_penalty>
0

> <s_user_duplicate_titles>
CHEMBL1862_lig119

> <s_m_subgroup_title>
dock_pv

> <s_m_subgroupid>
dock_pv

> <b_m_subgroup_collapsed>
0

$$$$
CHEMBL1862_lig411
                    3D
 Schrodinger Suite 2021-1.
 52 55  0  0  1  0            999 V2000
   22.9401   18.1194    5.3921 C   0  0  0  0  0  0
   22.5642   17.0749    6.2369 C   0  0  0  0  0  0
   21.5871   16.1560    5.8385 C   0  0  0  0  0  0
   21.1249   16.1959    4.5462 C   0  0  0  0  0  0
   21.3404   17.3277    3.7724 C   0  0  0  0  0  0
   22.2869   18.2776    4.1721 C   0  0  0  0  0  0
   20.8569   15.2218    6.7739 C   0  0  0  0  0  0
   20.9642   15.6331    8.0029 F   0  0  0  0  0  0
   19.5615   15.1042    6.4936 F   0  0  0  0  0  0
   21.3638   14.0336    6.7184 F   0  0  0  0  0  0
   20.4825   17.5333    2.5693 C   0  0  0  0  0  0
   19.1912   17.1502    2.6071 N   0  0  0  0  0  0
   20.9643   18.0324    1.5746 O   0  0  0  0  0  0
   18.4265   16.8330    3.7450 C   0  0  0  0  0  0
   17.5255   15.7773    3.6489 C   0  0  0  0  0  0
   16.5882   15.4922    4.6578 C   0  0  0  0  0  0
   16.7505   16.1760    5.8853 C   0  0  0  0  0  0
   17.6851   17.2127    6.0029 C   0  0  0  0  0  0
   18.4962   17.5664    4.9329 C   0  0  0  0  0  0
   15.9076   15.8810    7.1020 C   0  0  0  0  0  0
   15.4746   14.6249    4.3460 N   0  0  0  0  0  0
   14.1318   14.9508    4.9309 C   0  0  0  0  0  0
   14.5232   12.8406    3.1935 N   0  0  0  0  0  0
   15.6620   13.4820    3.5994 C   0  0  0  0  0  0
   14.7266   11.6331    2.4083 C   0  0  0  0  0  0
   16.7819   13.0783    3.2488 O   0  0  0  0  0  0
   13.1823   13.1880    3.4530 C   0  0  0  0  0  0
   12.9418   14.2607    4.2962 C   0  0  0  0  0  0
   11.5975   14.5566    4.5515 C   0  0  0  0  0  0
   10.5640   13.8638    4.0099 N   0  0  0  0  0  0
   10.9039   12.8329    3.2027 C   0  0  0  0  0  0
   12.1668   12.4652    2.8864 N   0  0  0  0  0  0
    9.8760   12.0762    2.6605 N   0  0  0  0  0  0
   23.6751   18.8435    5.7144 H   0  0  0  0  0  0
   23.0206   17.0113    7.2029 H   0  0  0  0  0  0
   20.4405   15.4243    4.2198 H   0  0  0  0  0  0
   22.5038   19.1428    3.5596 H   0  0  0  0  0  0
   18.7312   17.0734    1.7143 H   0  0  0  0  0  0
   17.4673   15.2584    2.7183 H   0  0  0  0  0  0
   17.7656   17.7746    6.9211 H   0  0  0  0  0  0
   19.1726   18.4025    5.0349 H   0  0  0  0  0  0
   15.7638   14.8401    7.3851 H   0  0  0  0  0  0
   16.1640   16.4596    7.9715 H   0  0  0  0  0  0
   14.9639   16.2612    6.8173 H   0  0  0  0  0  0
   14.1117   14.5677    5.9489 H   0  0  0  0  0  0
   13.9808   16.0294    4.9764 H   0  0  0  0  0  0
   14.5638   10.8334    3.1379 H   0  0  0  0  0  0
   14.0060   11.5573    1.5956 H   0  0  0  0  0  0
   15.7069   11.5499    1.9467 H   0  0  0  0  0  0
   11.3205   15.3709    5.1989 H   0  0  0  0  0  0
    8.9406   12.2233    3.0064 H   0  0  0  0  0  0
   10.1227   11.2155    2.1945 H   0  0  0  0  0  0
  1  6  1  0  0  0
  1  2  2  0  0  0
  1 34  1  0  0  0
  2  3  1  0  0  0
  2 35  1  0  0  0
  3  7  1  0  0  0
  3  4  2  0  0  0
  4  5  1  0  0  0
  4 36  1  0  0  0
  5 11  1  0  0  0
  5  6  2  0  0  0
  6 37  1  0  0  0
  7  8  1  0  0  0
  7  9  1  0  0  0
  7 10  1  0  0  0
 11 12  1  0  0  0
 11 13  2  0  0  0
 12 14  1  0  0  0
 12 38  1  0  0  0
 14 19  1  0  0  0
 14 15  2  0  0  0
 15 16  1  0  0  0
 15 39  1  0  0  0
 16 17  2  0  0  0
 16 21  1  0  0  0
 17 18  1  0  0  0
 17 20  1  0  0  0
 18 19  2  0  0  0
 18 40  1  0  0  0
 19 41  1  0  0  0
 20 42  1  0  0  0
 20 43  1  0  0  0
 20 44  1  0  0  0
 21 22  1  0  0  0
 21 24  1  0  0  0
 22 28  1  0  0  0
 22 45  1  0  0  0
 22 46  1  0  0  0
 23 27  1  0  0  0
 23 24  1  0  0  0
 23 25  1  0  0  0
 24 26  2  0  0  0
 25 47  1  0  0  0
 25 48  1  0  0  0
 25 49  1  0  0  0
 27 28  2  0  0  0
 27 32  1  0  0  0
 28 29  1  0  0  0
 29 30  2  0  0  0
 29 50  1  0  0  0
 30 31  1  0  0  0
 31 32  2  0  0  0
 31 33  1  0  0  0
 33 51  1  0  0  0
 33 52  1  0  0  0
M  END
> <s_m_entry_id>
6427

> <s_m_entry_name>
dock_pv.353

> <s_m_Source_Path>
/home/csk/Desktop/cluster/DUD-E-result/abl1

> <s_m_Source_File>
dock_pv.maegz

> <i_m_Source_File_Index>
353

> <chembl_id>
CHEMBL459850

> <chembl_pref_name>
None

> <i_lp_mmshare_version>
53161

> <i_f3d_flags>
0

> <r_lp_tautomer_probability>
0.999999987636

> <s_lp_Force_Field>
OPLS_2005

> <r_lp_Energy>
53.122373

> <b_lp_Chiralities_Consistent>
1

> <s_lp_Variant>
CHEMBL1862_lig411-1

> <s_i_glide_gridfile>
glide-grid_2hzi

> <i_i_glide_lignum>
496

> <i_i_glide_rotatable_bonds>
5

> <r_i_docking_score>
-7.33300199923035

> <r_i_glide_ligand_efficiency>
-0.222212181794859

> <r_i_glide_ligand_efficiency_sa>
-0.712753200819568

> <r_i_glide_ligand_efficiency_ln>
-1.63082167637649

> <r_i_glide_gscore>
-7.33300199923035

> <r_i_glide_lipo>
-4.88246536010161

> <r_i_glide_hbond>
-0.0432630004237843

> <r_i_glide_metal>
0

> <r_i_glide_rewards>
-1.18999589618569

> <r_i_glide_evdw>
-25.7886600494385

> <r_i_glide_ecoul>
-1.91911220550537

> <r_i_glide_erotb>
0.385884971277369

> <r_i_glide_esite>
-0.0258628804989067

> <r_i_glide_emodel>
-40.6086389449873

> <r_i_glide_energy>
-27.7077722549438

> <r_i_glide_einternal>
8.42785835266113

> <i_i_glide_confnum>
18

> <i_i_glide_posenum>
52

> <r_i_glide_eff_state_penalty>
0

> <s_user_duplicate_titles>
CHEMBL1862_lig411,447437

> <s_m_subgroup_title>
dock_pv

> <s_m_subgroupid>
dock_pv

> <b_m_subgroup_collapsed>
0

$$$$
CHEMBL1862_lig746
                    3D
 Schrodinger Suite 2021-1.
 36 38  0  0  1  0            999 V2000
   15.1285   14.5685    4.0350 C   0  0  0  0  0  0
   16.6479   12.4943    2.8030 C   0  0  0  0  0  0
   15.2565   12.4274    2.9215 C   0  0  0  0  0  0
   14.4772   13.4272    3.5267 C   0  0  0  0  0  0
   12.9811   13.2907    3.6089 C   0  0  0  0  0  0
   12.2513   12.4330    2.7619 C   0  0  0  0  0  0
   10.8548   12.4071    2.8036 C   0  0  0  0  0  0
   10.2015   13.2338    3.7153 C   0  0  0  0  0  0
   10.8659   14.0332    4.5842 N   0  0  0  0  0  0
   12.2227   14.0405    4.5269 C   0  0  0  0  0  0
   17.2574   13.6250    3.3387 C   0  0  0  0  0  0
   16.5252   14.6581    3.9629 C   0  0  0  0  0  0
   17.3630   15.6330    4.4379 N   0  0  0  0  0  0
   18.5730   15.2156    4.1311 C   0  0  0  0  0  0
   18.5644   14.0282    3.4452 N   0  0  0  0  0  0
   19.7956   15.7916    4.4233 N   0  0  0  0  0  0
   19.9908   16.9837    5.0155 C   0  0  0  0  0  0
   21.2764   17.1348    5.3745 N   0  0  0  0  0  0
   19.1291   17.8423    5.2061 O   0  0  0  0  0  0
   21.9548   18.4204    5.5120 C   0  0  0  0  0  0
   22.3768   18.9860    4.1556 C   0  0  0  0  0  0
   14.5824   15.3751    4.4972 H   0  0  0  0  0  0
   17.2297   11.7065    2.3463 H   0  0  0  0  0  0
   14.7761   11.5425    2.5315 H   0  0  0  0  0  0
   12.7431   11.8052    2.0338 H   0  0  0  0  0  0
   10.2971   11.7590    2.1430 H   0  0  0  0  0  0
    9.1226   13.2410    3.7823 H   0  0  0  0  0  0
   12.6949   14.6950    5.2433 H   0  0  0  0  0  0
   19.4002   13.5719    3.1101 H   0  0  0  0  0  0
   20.6072   15.2302    4.2222 H   0  0  0  0  0  0
   21.8461   16.3117    5.5038 H   0  0  0  0  0  0
   22.8294   18.2963    6.1530 H   0  0  0  0  0  0
   21.3090   19.1493    6.0025 H   0  0  0  0  0  0
   22.9640   19.8985    4.2738 H   0  0  0  0  0  0
   21.4996   19.2336    3.5608 H   0  0  0  0  0  0
   22.9637   18.2568    3.6018 H   0  0  0  0  0  0
  1 12  2  0  0  0
  1  4  1  0  0  0
  1 22  1  0  0  0
  2 11  2  0  0  0
  2  3  1  0  0  0
  2 23  1  0  0  0
  3  4  2  0  0  0
  3 24  1  0  0  0
  4  5  1  0  0  0
  5 10  1  0  0  0
  5  6  2  0  0  0
  6  7  1  0  0  0
  6 25  1  0  0  0
  7  8  2  0  0  0
  7 26  1  0  0  0
  8  9  1  0  0  0
  8 27  1  0  0  0
  9 10  2  0  0  0
 10 28  1  0  0  0
 11 12  1  0  0  0
 11 15  1  0  0  0
 12 13  1  0  0  0
 13 14  2  0  0  0
 14 15  1  0  0  0
 14 16  1  0  0  0
 15 29  1  0  0  0
 16 17  1  0  0  0
 16 30  1  0  0  0
 17 18  1  0  0  0
 17 19  2  0  0  0
 18 20  1  0  0  0
 18 31  1  0  0  0
 20 21  1  0  0  0
 20 32  1  0  0  0
 20 33  1  0  0  0
 21 34  1  0  0  0
 21 35  1  0  0  0
 21 36  1  0  0  0
M  END
> <s_m_entry_id>
6429

> <s_m_entry_name>
dock_pv.355

> <s_m_Source_Path>
/home/csk/Desktop/cluster/DUD-E-result/abl1

> <s_m_Source_File>
dock_pv.maegz

> <i_m_Source_File_Index>
355

> <chembl_id>
CHEMBL472524

> <chembl_pref_name>
None

> <i_lp_mmshare_version>
53161

> <i_f3d_flags>
0

> <r_lp_tautomer_probability>
1

> <s_lp_Force_Field>
OPLS_2005

> <r_lp_Energy>
11.940033

> <b_lp_Chiralities_Consistent>
1

> <s_lp_Variant>
CHEMBL1862_lig746-1

> <s_i_glide_gridfile>
glide-grid_2hzi

> <i_i_glide_lignum>
879

> <i_i_glide_rotatable_bonds>
5

> <r_i_docking_score>
-7.29997841421728

> <r_i_glide_ligand_efficiency>
-0.347618019724632

> <r_i_glide_ligand_efficiency_sa>
-0.959051757790733

> <r_i_glide_ligand_efficiency_ln>
-1.80490491191991

> <r_i_glide_gscore>
-7.29997841421728

> <r_i_glide_lipo>
-3.46649086557553

> <r_i_glide_hbond>
-0.0144219902612669

> <r_i_glide_metal>
0

> <r_i_glide_rewards>
-1.98989346200014

> <r_i_glide_evdw>
-42.5221061706543

> <r_i_glide_ecoul>
-4.11111068725586

> <r_i_glide_erotb>
0.913599815240751

> <r_i_glide_esite>
0

> <r_i_glide_emodel>
-67.0778463588464

> <r_i_glide_energy>
-46.6332168579102

> <r_i_glide_einternal>
1.92712223529816

> <i_i_glide_confnum>
2

> <i_i_glide_posenum>
167

> <r_i_glide_eff_state_penalty>
0

> <s_user_duplicate_titles>
CHEMBL1862_lig746

> <s_m_subgroup_title>
dock_pv

> <s_m_subgroupid>
dock_pv

> <b_m_subgroup_collapsed>
0

$$$$
CHEMBL1862_lig136
                    3D
 Schrodinger Suite 2021-1.
 37 39  0  0  1  0            999 V2000
   15.8414   13.8609    3.6047 C   0  0  0  0  0  0
   16.7481   14.7864    4.0227 N   0  0  0  0  0  0
   18.0638   14.5013    3.8274 C   0  0  0  0  0  0
    9.6961   13.9623    4.8490 C   0  0  0  0  0  0
   14.5097   14.1473    3.9335 N   0  0  0  0  0  0
   16.1583   12.6851    2.9933 N   0  0  0  0  0  0
   10.8713   13.5070    4.0643 C   0  0  0  0  0  0
   19.0571   15.4856    4.3136 C   0  0  0  0  0  0
   12.1535   14.0165    4.3216 C   0  0  0  0  0  0
   13.2726   13.5402    3.6359 C   0  0  0  0  0  0
    8.5640   14.1015    4.3770 O   0  0  0  0  0  0
   20.8570   16.0304    5.8605 N   0  0  0  0  0  0
   18.4740   13.3250    3.2030 C   0  0  0  0  0  0
   17.4782   12.4342    2.8029 C   0  0  0  0  0  0
    9.9989   14.0559    6.1636 O   0  0  0  0  0  0
   19.8639   15.2087    5.4280 C   0  0  0  0  0  0
   10.7096   12.5305    3.0746 C   0  0  0  0  0  0
   11.8243   12.0332    2.4022 C   0  0  0  0  0  0
   19.2937   16.6784    3.6221 C   0  0  0  0  0  0
   21.0729   17.1719    5.1620 C   0  0  0  0  0  0
   13.0987   12.5245    2.6869 C   0  0  0  0  0  0
    9.0153   14.3882    7.1329 C   0  0  0  0  0  0
   20.3168   17.5325    4.0435 C   0  0  0  0  0  0
   14.4296   14.9774    4.5032 H   0  0  0  0  0  0
   12.2814   14.7905    5.0658 H   0  0  0  0  0  0
   19.5036   13.1340    2.9744 H   0  0  0  0  0  0
   17.7581   11.5160    2.3110 H   0  0  0  0  0  0
   19.7369   14.2870    5.9783 H   0  0  0  0  0  0
    9.7357   12.1197    2.8502 H   0  0  0  0  0  0
   11.7075   11.2528    1.6639 H   0  0  0  0  0  0
   18.7135   16.9226    2.7446 H   0  0  0  0  0  0
   21.8815   17.8013    5.5061 H   0  0  0  0  0  0
   13.9253   12.1148    2.1274 H   0  0  0  0  0  0
    9.5135   14.7828    8.0130 H   0  0  0  0  0  0
    8.4436   13.5045    7.4197 H   0  0  0  0  0  0
    8.3324   15.1611    6.7864 H   0  0  0  0  0  0
   20.5400   18.4330    3.4994 H   0  0  0  0  0  0
  1  2  1  0  0  0
  1  5  1  0  0  0
  1  6  2  0  0  0
  2  3  2  0  0  0
  3  8  1  0  0  0
  3 13  1  0  0  0
  4  7  1  0  0  0
  4 11  2  0  0  0
  4 15  1  0  0  0
  5 10  1  0  0  0
  5 24  1  0  0  0
  6 14  1  0  0  0
  7  9  2  0  0  0
  7 17  1  0  0  0
  8 16  1  0  0  0
  8 19  2  0  0  0
  9 10  1  0  0  0
  9 25  1  0  0  0
 10 21  2  0  0  0
 12 16  2  0  0  0
 12 20  1  0  0  0
 13 14  2  0  0  0
 13 26  1  0  0  0
 14 27  1  0  0  0
 15 22  1  0  0  0
 16 28  1  0  0  0
 17 18  2  0  0  0
 17 29  1  0  0  0
 18 21  1  0  0  0
 18 30  1  0  0  0
 19 23  1  0  0  0
 19 31  1  0  0  0
 20 23  2  0  0  0
 20 32  1  0  0  0
 21 33  1  0  0  0
 22 34  1  0  0  0
 22 35  1  0  0  0
 22 36  1  0  0  0
 23 37  1  0  0  0
M  END
> <s_m_entry_id>
6430

> <s_m_entry_name>
dock_pv.356

> <s_m_Source_Path>
/home/csk/Desktop/cluster/DUD-E-result/abl1

> <s_m_Source_File>
dock_pv.maegz

> <i_m_Source_File_Index>
356

> <chembl_id>
CHEMBL56671

> <chembl_pref_name>
None

> <i_lp_mmshare_version>
53161

> <i_f3d_flags>
0

> <r_lp_tautomer_probability>
0.999999987636

> <s_lp_Force_Field>
OPLS_2005

> <r_lp_Energy>
11.871297

> <b_lp_Chiralities_Consistent>
1

> <s_lp_Variant>
CHEMBL1862_lig136-1

> <s_i_glide_gridfile>
glide-grid_2hzi

> <i_i_glide_lignum>
155

> <i_i_glide_rotatable_bonds>
5

> <r_i_docking_score>
-7.29912332582911

> <r_i_glide_ligand_efficiency>
-0.317353188079527

> <r_i_glide_ligand_efficiency_sa>
-0.902510251586717

> <r_i_glide_ligand_efficiency_ln>
-1.76499420497658

> <r_i_glide_gscore>
-7.29912332582911

> <r_i_glide_lipo>
-3.4422773534311

> <r_i_glide_hbond>
0

> <r_i_glide_metal>
0

> <r_i_glide_rewards>
-2.29262540159816

> <r_i_glide_evdw>
-42.805591583252

> <r_i_glide_ecoul>
-1.40882444381714

> <r_i_glide_erotb>
0.787382674935323

> <r_i_glide_esite>
0

> <r_i_glide_emodel>
-57.2146826287734

> <r_i_glide_energy>
-44.2144160270691

> <r_i_glide_einternal>
10.5890998840332

> <i_i_glide_confnum>
17

> <i_i_glide_posenum>
237

> <r_i_glide_eff_state_penalty>
0

> <s_user_duplicate_titles>
CHEMBL1862_lig136

> <s_m_subgroup_title>
dock_pv

> <s_m_subgroupid>
dock_pv

> <b_m_subgroup_collapsed>
0

$$$$
CHEMBL1862_lig529
                    3D
 Schrodinger Suite 2021-1.
 43 47  0  0  1  0            999 V2000
   16.5599   16.8330    6.8030 N   0  0  0  0  0  0
   17.5769   17.6236    6.4049 C   0  0  0  0  0  0
   18.3620   17.4543    5.3465 N   0  0  0  0  0  0
   16.1121   15.8876    5.9855 C   0  0  0  0  0  0
   16.8391   15.5943    4.8386 C   0  0  0  0  0  0
   17.9722   16.4058    4.6338 C   0  0  0  0  0  0
   18.6630   15.8378    3.6271 N   0  0  0  0  0  0
   18.0212   14.7189    3.2030 N   0  0  0  0  0  0
   16.8125   14.7206    3.7282 C   0  0  0  0  0  0
   15.6553   13.8988    3.2579 C   0  0  0  0  0  0
   14.3455   14.2545    3.6271 C   0  0  0  0  0  0
   14.7414   12.0551    2.0127 C   0  0  0  0  0  0
   15.8436   12.7743    2.4579 C   0  0  0  0  0  0
   14.9645   15.2330    6.4004 N   0  0  0  0  0  0
   13.4528   12.3909    2.4318 C   0  0  0  0  0  0
   13.2411   13.4631    3.2962 C   0  0  0  0  0  0
   11.8648   13.7351    3.8208 C   0  0  0  0  0  0
   10.8416   12.8528    3.2727 C   0  0  0  0  0  0
   11.1547   11.8782    2.4030 C   0  0  0  0  0  0
   12.4045   11.6330    1.9521 O   0  0  0  0  0  0
   11.6287   14.6321    4.6266 O   0  0  0  0  0  0
   20.0514   16.1447    3.3318 C   0  0  0  0  0  0
   20.3564   17.6257    3.0267 C   0  0  0  0  0  0
   21.2082   18.1557    4.1900 C   0  0  0  0  0  0
   21.8758   16.9336    4.8212 C   0  0  0  0  0  0
   20.9640   15.7311    4.5142 C   0  0  0  0  0  0
   17.7754   18.4777    7.0315 H   0  0  0  0  0  0
   14.1643   15.1786    4.1511 H   0  0  0  0  0  0
   14.8858   11.2330    1.3397 H   0  0  0  0  0  0
   16.8380   12.4768    2.1560 H   0  0  0  0  0  0
   14.6030   14.4559    5.8689 H   0  0  0  0  0  0
   14.5203   15.5451    7.2529 H   0  0  0  0  0  0
    9.8149   12.9722    3.5818 H   0  0  0  0  0  0
   10.4338   11.1917    1.9782 H   0  0  0  0  0  0
   20.1640   15.6330    2.4030 H   0  0  0  0  0  0
   20.9345   17.6932    2.1028 H   0  0  0  0  0  0
   19.4496   18.2094    2.8622 H   0  0  0  0  0  0
   21.9426   18.8891    3.8530 H   0  0  0  0  0  0
   20.5878   18.6605    4.9285 H   0  0  0  0  0  0
   22.8726   16.8036    4.4030 H   0  0  0  0  0  0
   22.0157   17.0665    5.8953 H   0  0  0  0  0  0
   20.3928   15.4888    5.4123 H   0  0  0  0  0  0
   21.5364   14.8324    4.2963 H   0  0  0  0  0  0
  1  2  2  0  0  0
  1  4  1  0  0  0
  2  3  1  0  0  0
  2 27  1  0  0  0
  3  6  2  0  0  0
  4 14  1  0  0  0
  4  5  2  0  0  0
  5  9  1  0  0  0
  5  6  1  0  0  0
  6  7  1  0  0  0
  7  8  1  0  0  0
  7 22  1  0  0  0
  8  9  2  0  0  0
  9 10  1  0  0  0
 10 13  1  0  0  0
 10 11  2  0  0  0
 11 16  1  0  0  0
 11 28  1  0  0  0
 12 13  2  0  0  0
 12 15  1  0  0  0
 12 29  1  0  0  0
 13 30  1  0  0  0
 14 31  1  0  0  0
 14 32  1  0  0  0
 15 16  2  0  0  0
 15 20  1  0  0  0
 16 17  1  0  0  0
 17 18  1  0  0  0
 17 21  2  0  0  0
 18 19  2  0  0  0
 18 33  1  0  0  0
 19 20  1  0  0  0
 19 34  1  0  0  0
 22 23  1  0  0  0
 22 26  1  0  0  0
 22 35  1  0  0  0
 23 24  1  0  0  0
 23 36  1  0  0  0
 23 37  1  0  0  0
 24 25  1  0  0  0
 24 38  1  0  0  0
 24 39  1  0  0  0
 25 26  1  0  0  0
 25 40  1  0  0  0
 25 41  1  0  0  0
 26 42  1  0  0  0
 26 43  1  0  0  0
M  END
> <s_m_entry_id>
6431

> <s_m_entry_name>
dock_pv.357

> <s_m_Source_Path>
/home/csk/Desktop/cluster/DUD-E-result/abl1

> <s_m_Source_File>
dock_pv.maegz

> <i_m_Source_File_Index>
357

> <chembl_id>
CHEMBL1242119

> <chembl_pref_name>
None

> <i_lp_mmshare_version>
53161

> <i_f3d_flags>
0

> <r_lp_tautomer_probability>
1

> <s_lp_Force_Field>
OPLS_2005

> <r_lp_Energy>
30.755691

> <b_lp_Chiralities_Consistent>
1

> <s_lp_Variant>
CHEMBL1862_lig529-1

> <s_i_glide_gridfile>
glide-grid_2hzi

> <i_i_glide_lignum>
627

> <i_i_glide_rotatable_bonds>
2

> <r_i_docking_score>
-7.292004784529

> <r_i_glide_ligand_efficiency>
-0.280461722481885

> <r_i_glide_ligand_efficiency_sa>
-0.830866749288995

> <r_i_glide_ligand_efficiency_ln>
-1.71250339662736

> <r_i_glide_gscore>
-7.292004784529

> <r_i_glide_lipo>
-3.75016733498421

> <r_i_glide_hbond>
0

> <r_i_glide_metal>
0

> <r_i_glide_rewards>
-2.44195252031668

> <r_i_glide_evdw>
-19.9510383605957

> <r_i_glide_ecoul>
-2.78427648544312

> <r_i_glide_erotb>
0.315308461618141

> <r_i_glide_esite>
0

> <r_i_glide_emodel>
-41.4112707934513

> <r_i_glide_energy>
-22.7353148460388

> <r_i_glide_einternal>
1.60767877101898

> <i_i_glide_confnum>
38

> <i_i_glide_posenum>
54

> <r_i_glide_eff_state_penalty>
0

> <s_user_duplicate_titles>
CHEMBL1862_lig529

> <s_m_subgroup_title>
dock_pv

> <s_m_subgroupid>
dock_pv

> <b_m_subgroup_collapsed>
0

$$$$
CHEMBL1862_lig122
                    3D
 Schrodinger Suite 2021-1.
 31 33  0  0  1  0            999 V2000
   17.1697   14.5689    3.9702 C   0  0  0  0  0  0
   15.8123   14.5142    3.9955 N   0  0  0  0  0  0
   15.2063   13.4306    3.4239 C   0  0  0  0  0  0
   17.7603   15.6886    4.5712 N   0  0  0  0  0  0
   17.9770   13.6290    3.4101 N   0  0  0  0  0  0
   13.7080   13.3488    3.5182 C   0  0  0  0  0  0
   19.0784   15.8261    5.0319 C   0  0  0  0  0  0
   19.8360   16.9447    4.6705 C   0  0  0  0  0  0
   11.6104   14.1886    4.4469 N   0  0  0  0  0  0
   15.9762   12.4334    2.8034 C   0  0  0  0  0  0
   21.1537   17.0734    5.1159 C   0  0  0  0  0  0
   17.3648   12.5704    2.8269 C   0  0  0  0  0  0
   22.1028   18.4330    4.6342 Cl  0  0  0  0  0  0
   12.9657   14.1923    4.3662 C   0  0  0  0  0  0
   20.9527   14.9899    6.3237 C   0  0  0  0  0  0
   12.9645   12.4376    2.7445 C   0  0  0  0  0  0
   10.9325   13.3146    3.6642 C   0  0  0  0  0  0
   19.6410   14.8567    5.8698 C   0  0  0  0  0  0
   21.7117   16.0984    5.9457 C   0  0  0  0  0  0
   11.5715   12.4237    2.8037 C   0  0  0  0  0  0
   17.0999   16.3547    4.9414 H   0  0  0  0  0  0
   19.4131   17.6981    4.0225 H   0  0  0  0  0  0
   15.5178   11.5708    2.3542 H   0  0  0  0  0  0
   18.0148   11.8218    2.4025 H   0  0  0  0  0  0
   13.4588   14.9125    5.0016 H   0  0  0  0  0  0
   21.3836   14.2260    6.9506 H   0  0  0  0  0  0
   13.4387   11.7501    2.0614 H   0  0  0  0  0  0
    9.8547   13.3290    3.7412 H   0  0  0  0  0  0
   19.0612   13.9923    6.1581 H   0  0  0  0  0  0
   22.7312   16.1945    6.2916 H   0  0  0  0  0  0
   11.0008   11.7315    2.2007 H   0  0  0  0  0  0
  1  2  1  0  0  0
  1  4  1  0  0  0
  1  5  2  0  0  0
  2  3  2  0  0  0
  3  6  1  0  0  0
  3 10  1  0  0  0
  4  7  1  0  0  0
  4 21  1  0  0  0
  5 12  1  0  0  0
  6 14  1  0  0  0
  6 16  2  0  0  0
  7  8  1  0  0  0
  7 18  2  0  0  0
  8 11  2  0  0  0
  8 22  1  0  0  0
  9 14  2  0  0  0
  9 17  1  0  0  0
 10 12  2  0  0  0
 10 23  1  0  0  0
 11 13  1  0  0  0
 11 19  1  0  0  0
 12 24  1  0  0  0
 14 25  1  0  0  0
 15 18  1  0  0  0
 15 19  2  0  0  0
 15 26  1  0  0  0
 16 20  1  0  0  0
 16 27  1  0  0  0
 17 20  2  0  0  0
 17 28  1  0  0  0
 18 29  1  0  0  0
 19 30  1  0  0  0
 20 31  1  0  0  0
M  END
> <s_m_entry_id>
6432

> <s_m_entry_name>
dock_pv.358

> <s_m_Source_Path>
/home/csk/Desktop/cluster/DUD-E-result/abl1

> <s_m_Source_File>
dock_pv.maegz

> <i_m_Source_File_Index>
358

> <chembl_id>
CHEMBL300817

> <chembl_pref_name>
None

> <i_lp_mmshare_version>
53161

> <i_f3d_flags>
0

> <r_lp_tautomer_probability>
0.999999987636

> <s_lp_Force_Field>
OPLS_2005

> <r_lp_Energy>
8.80121

> <b_lp_Chiralities_Consistent>
1

> <s_lp_Variant>
CHEMBL1862_lig122-1

> <s_i_glide_gridfile>
glide-grid_2hzi

> <i_i_glide_lignum>
141

> <i_i_glide_rotatable_bonds>
3

> <r_i_docking_score>
-7.27093849836332

> <r_i_glide_ligand_efficiency>
-0.363546924918166

> <r_i_glide_ligand_efficiency_sa>
-0.986818176471361

> <r_i_glide_ligand_efficiency_ln>
-1.81967609453879

> <r_i_glide_gscore>
-7.27093849836332

> <r_i_glide_lipo>
-4.10570221308103

> <r_i_glide_hbond>
0

> <r_i_glide_metal>
0

> <r_i_glide_rewards>
-1.52440380781051

> <r_i_glide_evdw>
-44.4843635559082

> <r_i_glide_ecoul>
-0.639099478721619

> <r_i_glide_erotb>
0.679250622131875

> <r_i_glide_esite>
0

> <r_i_glide_emodel>
-62.4523911710278

> <r_i_glide_energy>
-45.1234630346298

> <r_i_glide_einternal>
4.10555648803711

> <i_i_glide_confnum>
14

> <i_i_glide_posenum>
325

> <r_i_glide_eff_state_penalty>
0

> <s_user_duplicate_titles>
CHEMBL1862_lig122

> <s_m_subgroup_title>
dock_pv

> <s_m_subgroupid>
dock_pv

> <b_m_subgroup_collapsed>
0

$$$$
CHEMBL1862_lig140
                    3D
 Schrodinger Suite 2021-1.
 44 47  0  0  1  0            999 V2000
   14.8732   13.3083    3.3666 C   0  0  0  0  0  0
   20.6050   17.4902    2.8931 C   0  0  0  0  0  0
   13.8274   13.7984    4.0909 N   0  0  0  0  0  0
   21.3564   17.4238    4.1898 C   0  0  0  0  0  0
   19.4239   16.8894    2.7466 N   0  0  0  0  0  0
   12.5883   13.3300    3.7431 C   0  0  0  0  0  0
   16.1892   13.6784    3.6030 N   0  0  0  0  0  0
   14.7864   12.4332    2.3436 N   0  0  0  0  0  0
   11.4313   13.6486    4.6127 C   0  0  0  0  0  0
   18.5379   16.4313    3.7104 C   0  0  0  0  0  0
   21.1144   18.0330    1.9245 O   0  0  0  0  0  0
   17.9053   15.2414    3.4016 C   0  0  0  0  0  0
   16.7849   14.8331    4.1027 C   0  0  0  0  0  0
   23.0090   18.4324    5.6365 N   0  0  0  0  0  0
    9.0221   13.8881    4.8568 N   0  0  0  0  0  0
   12.4105   12.4329    2.6870 C   0  0  0  0  0  0
   13.5455   12.0331    2.0034 C   0  0  0  0  0  0
   22.2000   18.4783    4.5546 C   0  0  0  0  0  0
   10.1382   13.8052    4.0892 C   0  0  0  0  0  0
   21.3377   16.2795    5.0025 C   0  0  0  0  0  0
   17.0702   16.7046    5.6035 C   0  0  0  0  0  0
   11.5609   13.6316    6.0030 C   0  0  0  0  0  0
    9.1741   13.7786    6.1995 C   0  0  0  0  0  0
   22.9696   17.3157    6.3992 C   0  0  0  0  0  0
   18.1640   17.1513    4.8512 C   0  0  0  0  0  0
   16.3467   15.5753    5.2036 C   0  0  0  0  0  0
   22.1467   16.2251    6.1311 C   0  0  0  0  0  0
   10.4201   13.6330    6.8040 C   0  0  0  0  0  0
   19.1444   16.7410    1.7889 H   0  0  0  0  0  0
   16.8105   13.1560    3.0058 H   0  0  0  0  0  0
   18.2490   14.6613    2.5570 H   0  0  0  0  0  0
   11.4455   12.0199    2.4309 H   0  0  0  0  0  0
   13.4783   11.3099    1.2030 H   0  0  0  0  0  0
   22.2782   19.3728    3.9513 H   0  0  0  0  0  0
    9.9677   13.8129    3.0230 H   0  0  0  0  0  0
   20.7425   15.4147    4.7473 H   0  0  0  0  0  0
   16.7509   17.2525    6.4761 H   0  0  0  0  0  0
   12.5377   13.5204    6.4562 H   0  0  0  0  0  0
    8.2757   13.8092    6.7976 H   0  0  0  0  0  0
   23.6844   17.2854    7.2030 H   0  0  0  0  0  0
   18.6604   18.0739    5.1141 H   0  0  0  0  0  0
   15.4784   15.2624    5.7651 H   0  0  0  0  0  0
   22.1642   15.3428    6.7528 H   0  0  0  0  0  0
   10.5125   13.5613    7.8762 H   0  0  0  0  0  0
  1  3  1  0  0  0
  1  7  1  0  0  0
  1  8  2  0  0  0
  2  5  1  0  0  0
  2  4  1  0  0  0
  2 11  2  0  0  0
  3  6  2  0  0  0
  4 18  1  0  0  0
  4 20  2  0  0  0
  5 10  1  0  0  0
  5 29  1  0  0  0
  6  9  1  0  0  0
  6 16  1  0  0  0
  7 13  1  0  0  0
  7 30  1  0  0  0
  8 17  1  0  0  0
  9 19  1  0  0  0
  9 22  2  0  0  0
 10 12  2  0  0  0
 10 25  1  0  0  0
 12 13  1  0  0  0
 12 31  1  0  0  0
 13 26  2  0  0  0
 14 18  2  0  0  0
 14 24  1  0  0  0
 15 19  2  0  0  0
 15 23  1  0  0  0
 16 17  2  0  0  0
 16 32  1  0  0  0
 17 33  1  0  0  0
 18 34  1  0  0  0
 19 35  1  0  0  0
 20 27  1  0  0  0
 20 36  1  0  0  0
 21 26  1  0  0  0
 21 25  2  0  0  0
 21 37  1  0  0  0
 22 28  1  0  0  0
 22 38  1  0  0  0
 23 28  2  0  0  0
 23 39  1  0  0  0
 24 27  2  0  0  0
 24 40  1  0  0  0
 25 41  1  0  0  0
 26 42  1  0  0  0
 27 43  1  0  0  0
 28 44  1  0  0  0
M  END
> <s_m_entry_id>
6433

> <s_m_entry_name>
dock_pv.359

> <s_m_Source_Path>
/home/csk/Desktop/cluster/DUD-E-result/abl1

> <s_m_Source_File>
dock_pv.maegz

> <i_m_Source_File_Index>
359

> <chembl_id>
CHEMBL418270

> <chembl_pref_name>
None

> <i_lp_mmshare_version>
53161

> <i_f3d_flags>
0

> <r_lp_tautomer_probability>
0.999999987636

> <s_lp_Force_Field>
OPLS_2005

> <r_lp_Energy>
24.903574

> <b_lp_Chiralities_Consistent>
1

> <s_lp_Variant>
CHEMBL1862_lig140-1

> <s_i_glide_gridfile>
glide-grid_2hzi

> <i_i_glide_lignum>
159

> <i_i_glide_rotatable_bonds>
6

> <r_i_docking_score>
-7.25238803680992

> <r_i_glide_ligand_efficiency>
-0.259013858457497

> <r_i_glide_ligand_efficiency_sa>
-0.786518625281386

> <r_i_glide_ligand_efficiency_ln>
-1.67406409826128

> <r_i_glide_gscore>
-7.25238803680992

> <r_i_glide_lipo>
-4.90498311618698

> <r_i_glide_hbond>
0

> <r_i_glide_metal>
0

> <r_i_glide_rewards>
-0.612270338637198

> <r_i_glide_evdw>
-44.0505867004395

> <r_i_glide_ecoul>
-2.56350493431091

> <r_i_glide_erotb>
0.851920493182862

> <r_i_glide_esite>
0

> <r_i_glide_emodel>
-29.6713927814918

> <r_i_glide_energy>
-46.6140916347504

> <r_i_glide_einternal>
30.2058048248291

> <i_i_glide_confnum>
43

> <i_i_glide_posenum>
46

> <r_i_glide_eff_state_penalty>
0

> <s_user_duplicate_titles>
CHEMBL1862_lig140,88408

> <s_m_subgroup_title>
dock_pv

> <s_m_subgroupid>
dock_pv

> <b_m_subgroup_collapsed>
0

$$$$
CHEMBL1862_lig765
                    3D
 Schrodinger Suite 2021-1.
 40 42  0  0  1  0            999 V2000
   14.5297   14.2574    4.1283 C   0  0  0  0  0  0
   14.5640   14.9693    5.3365 C   0  0  0  0  0  0
   15.6915   15.6475    5.7940 C   0  0  0  0  0  0
   15.6986   14.1839    3.3429 C   0  0  0  0  0  0
   16.8451   14.8324    3.8216 C   0  0  0  0  0  0
   16.8519   15.5749    5.0271 C   0  0  0  0  0  0
   18.0766   16.1279    5.2760 N   0  0  0  0  0  0
   18.8140   15.7562    4.2556 C   0  0  0  0  0  0
   18.1377   14.9592    3.3643 N   0  0  0  0  0  0
   20.1250   16.0980    3.9974 N   0  0  0  0  0  0
   21.0135   16.4815    4.9302 C   0  0  0  0  0  0
   21.9822   17.2330    4.3910 N   0  0  0  0  0  0
   20.9530   16.2020    6.1284 O   0  0  0  0  0  0
   23.1894   17.6425    5.0911 C   0  0  0  0  0  0
   23.0949   19.0612    5.6122 C   0  0  0  0  0  0
   13.2508   13.5974    3.6910 C   0  0  0  0  0  0
   12.0017   14.0896    4.1079 C   0  0  0  0  0  0
   10.8086   13.5194    3.6722 C   0  0  0  0  0  0
   10.8408   12.4324    2.8032 C   0  0  0  0  0  0
   12.0676   11.9117    2.4014 C   0  0  0  0  0  0
   13.2589   12.4796    2.8450 C   0  0  0  0  0  0
    9.5488   11.7881    2.3365 C   0  0  0  0  0  0
   13.6931   14.9947    5.9700 H   0  0  0  0  0  0
   15.6750   16.1871    6.7300 H   0  0  0  0  0  0
   15.7169   13.6513    2.4047 H   0  0  0  0  0  0
   18.5643   14.5734    2.5347 H   0  0  0  0  0  0
   20.3690   16.2098    3.0257 H   0  0  0  0  0  0
   21.9124   17.4959    3.4201 H   0  0  0  0  0  0
   24.0143   17.6331    4.3890 H   0  0  0  0  0  0
   23.4453   16.9527    5.8991 H   0  0  0  0  0  0
   23.9200   19.2330    6.3010 H   0  0  0  0  0  0
   22.1633   19.2328    6.1458 H   0  0  0  0  0  0
   23.1657   19.7947    4.8072 H   0  0  0  0  0  0
   11.9342   14.9525    4.7530 H   0  0  0  0  0  0
    9.8643   13.9254    4.0048 H   0  0  0  0  0  0
   12.1037   11.0627    1.7353 H   0  0  0  0  0  0
   14.1863   12.0386    2.5122 H   0  0  0  0  0  0
    8.8360   11.7244    3.1596 H   0  0  0  0  0  0
    9.0954   12.3721    1.5358 H   0  0  0  0  0  0
    9.7124   10.7673    1.9872 H   0  0  0  0  0  0
  1  2  2  0  0  0
  1  4  1  0  0  0
  1 16  1  0  0  0
  2  3  1  0  0  0
  2 23  1  0  0  0
  3  6  2  0  0  0
  3 24  1  0  0  0
  4  5  2  0  0  0
  4 25  1  0  0  0
  5  6  1  0  0  0
  5  9  1  0  0  0
  6  7  1  0  0  0
  7  8  2  0  0  0
  8  9  1  0  0  0
  8 10  1  0  0  0
  9 26  1  0  0  0
 10 11  1  0  0  0
 10 27  1  0  0  0
 11 12  1  0  0  0
 11 13  2  0  0  0
 12 14  1  0  0  0
 12 28  1  0  0  0
 14 15  1  0  0  0
 14 29  1  0  0  0
 14 30  1  0  0  0
 15 31  1  0  0  0
 15 32  1  0  0  0
 15 33  1  0  0  0
 16 17  2  0  0  0
 16 21  1  0  0  0
 17 18  1  0  0  0
 17 34  1  0  0  0
 18 19  2  0  0  0
 18 35  1  0  0  0
 19 20  1  0  0  0
 19 22  1  0  0  0
 20 21  2  0  0  0
 20 36  1  0  0  0
 21 37  1  0  0  0
 22 38  1  0  0  0
 22 39  1  0  0  0
 22 40  1  0  0  0
M  END
> <s_m_entry_id>
6434

> <s_m_entry_name>
dock_pv.360

> <s_m_Source_Path>
/home/csk/Desktop/cluster/DUD-E-result/abl1

> <s_m_Source_File>
dock_pv.maegz

> <i_m_Source_File_Index>
360

> <chembl_id>
CHEMBL2347732

> <chembl_pref_name>
None

> <i_lp_mmshare_version>
53161

> <i_f3d_flags>
0

> <r_lp_tautomer_probability>
1

> <s_lp_Force_Field>
OPLS_2005

> <r_lp_Energy>
13.606314

> <b_lp_Chiralities_Consistent>
1

> <s_lp_Variant>
CHEMBL1862_lig765-1

> <s_i_glide_gridfile>
glide-grid_2hzi

> <i_i_glide_lignum>
898

> <i_i_glide_rotatable_bonds>
5

> <r_i_docking_score>
-7.23557692958302

> <r_i_glide_ligand_efficiency>
-0.328889860435592

> <r_i_glide_ligand_efficiency_sa>
-0.92156232344476

> <r_i_glide_ligand_efficiency_ln>
-1.76863892567122

> <r_i_glide_gscore>
-7.23557692958302

> <r_i_glide_lipo>
-3.11238262317658

> <r_i_glide_hbond>
0

> <r_i_glide_metal>
0

> <r_i_glide_rewards>
-2.45637699700117

> <r_i_glide_evdw>
-37.9081192016602

> <r_i_glide_ecoul>
-4.10449314117432

> <r_i_glide_erotb>
0.844262621853888

> <r_i_glide_esite>
0

> <r_i_glide_emodel>
-56.1772762718644

> <r_i_glide_energy>
-42.0126123428345

> <r_i_glide_einternal>
10.3724822998047

> <i_i_glide_confnum>
7

> <i_i_glide_posenum>
157

> <r_i_glide_eff_state_penalty>
0

> <s_user_duplicate_titles>
CHEMBL1862_lig765

> <s_m_subgroup_title>
dock_pv

> <s_m_subgroupid>
dock_pv

> <b_m_subgroup_collapsed>
0

$$$$
CHEMBL1862_lig809
                    3D
 Schrodinger Suite 2021-1.
 42 45  0  0  1  0            999 V2000
   16.4188   15.6330    4.8127 C   0  0  0  0  0  0
   15.0919   15.3782    4.7523 N   0  0  0  0  0  0
   14.6816   14.3068    4.0209 C   0  0  0  0  0  0
   17.3921   14.9559    4.1857 N   0  0  0  0  0  0
   16.8301   16.6963    5.6209 N   0  0  0  0  0  0
   13.2868   14.1690    4.0774 N   0  0  0  0  0  0
   11.5293   11.7375    2.4030 C   0  0  0  0  0  0
   12.6728   12.2714    2.7605 N   0  0  0  0  0  0
   12.3737   13.3219    3.5030 C   0  0  0  0  0  0
   10.9925   13.4469    3.6030 C   0  0  0  0  0  0
   10.4446   12.4310    2.8664 N   0  0  0  0  0  0
    9.0426   12.1045    2.7021 C   0  0  0  0  0  0
   18.2266   16.8206    6.0775 C   0  0  1  0  0  0
   18.7149   15.5342    6.8030 C   0  0  0  0  0  0
   19.2588   17.3345    5.0551 C   0  0  0  0  0  0
   18.9640   17.3013    3.7248 N   0  0  0  0  0  0
   19.9613   17.6330    2.8703 C   0  0  0  0  0  0
   21.2170   18.0330    3.3216 C   0  0  0  0  0  0
   21.4281   18.0637    4.6992 C   0  0  0  0  0  0
   20.4576   17.7164    5.5824 N   0  0  0  0  0  0
   22.1640   18.4330    2.4553 F   0  0  0  0  0  0
   15.7516   12.2793    2.5732 C   0  0  0  0  0  0
   17.1139   12.0330    2.4162 C   0  0  0  0  0  0
   17.8420   13.0382    2.9500 N   0  0  0  0  0  0
   16.9825   13.9130    3.5268 C   0  0  0  0  0  0
   15.6415   13.4798    3.3652 C   0  0  0  0  0  0
   16.1102   17.2194    6.0946 H   0  0  0  0  0  0
   12.9268   14.9104    4.6571 H   0  0  0  0  0  0
   11.3914   10.8442    1.8095 H   0  0  0  0  0  0
   10.3665   14.1567    4.1211 H   0  0  0  0  0  0
    8.9389   11.0678    2.3790 H   0  0  0  0  0  0
    8.5187   12.2421    3.6483 H   0  0  0  0  0  0
    8.6124   12.7543    1.9405 H   0  0  0  0  0  0
   18.1640   17.6257    6.8030 H   0  0  0  0  0  0
   19.6897   15.6330    7.2752 H   0  0  0  0  0  0
   17.9893   15.2330    7.5560 H   0  0  0  0  0  0
   18.8414   14.6850    6.1356 H   0  0  0  0  0  0
   19.7361   17.5980    1.8146 H   0  0  0  0  0  0
   22.3756   18.3825    5.1088 H   0  0  0  0  0  0
   14.9641   11.6330    2.2203 H   0  0  0  0  0  0
   17.7089   11.2352    2.0030 H   0  0  0  0  0  0
   18.8508   13.0739    2.9397 H   0  0  0  0  0  0
  1  2  1  0  0  0
  1  4  2  0  0  0
  1  5  1  0  0  0
  2  3  2  0  0  0
  3 26  1  0  0  0
  3  6  1  0  0  0
  4 25  1  0  0  0
  5 13  1  0  0  0
  5 27  1  0  0  0
  6  9  1  0  0  0
  6 28  1  0  0  0
  7  8  2  0  0  0
  7 11  1  0  0  0
  7 29  1  0  0  0
  8  9  1  0  0  0
  9 10  2  0  0  0
 10 11  1  0  0  0
 10 30  1  0  0  0
 11 12  1  0  0  0
 12 31  1  0  0  0
 12 32  1  0  0  0
 12 33  1  0  0  0
 13 14  1  0  0  0
 13 15  1  0  0  0
 13 34  1  0  0  0
 14 35  1  0  0  0
 14 36  1  0  0  0
 14 37  1  0  0  0
 15 16  1  0  0  0
 15 20  2  0  0  0
 16 17  2  0  0  0
 17 18  1  0  0  0
 17 38  1  0  0  0
 18 19  2  0  0  0
 18 21  1  0  0  0
 19 20  1  0  0  0
 19 39  1  0  0  0
 22 23  2  0  0  0
 22 26  1  0  0  0
 22 40  1  0  0  0
 23 24  1  0  0  0
 23 41  1  0  0  0
 24 25  1  0  0  0
 24 42  1  0  0  0
 25 26  2  0  0  0
M  END
> <s_m_entry_id>
6435

> <s_m_entry_name>
dock_pv.361

> <s_m_Source_Path>
/home/csk/Desktop/cluster/DUD-E-result/abl1

> <s_m_Source_File>
dock_pv.maegz

> <i_m_Source_File_Index>
361

> <chembl_id>
CHEMBL3116050

> <chembl_pref_name>
None

> <i_lp_mmshare_version>
53161

> <i_f3d_flags>
0

> <r_lp_tautomer_probability>
0.999810549966233

> <s_lp_Force_Field>
OPLS_2005

> <r_lp_Energy>
-5.583531

> <b_lp_Chiralities_Consistent>
1

> <s_lp_Variant>
CHEMBL1862_lig809-1

> <s_i_glide_gridfile>
glide-grid_2hzi

> <i_i_glide_lignum>
945

> <i_i_glide_rotatable_bonds>
5

> <r_i_docking_score>
-7.21718676779087

> <r_i_glide_ligand_efficiency>
-0.277584106453495

> <r_i_glide_ligand_efficiency_sa>
-0.822341823127762

> <r_i_glide_ligand_efficiency_ln>
-1.69493263089435

> <r_i_glide_gscore>
-7.21718676779087

> <r_i_glide_lipo>
-2.94370978906428

> <r_i_glide_hbond>
0

> <r_i_glide_metal>
0

> <r_i_glide_rewards>
-2.70433776798579

> <r_i_glide_evdw>
-39.4661979675293

> <r_i_glide_ecoul>
-2.29780507087708

> <r_i_glide_erotb>
0.76468432612689

> <r_i_glide_esite>
-0.0158428778596601

> <r_i_glide_emodel>
-49.3084946499318

> <r_i_glide_energy>
-41.7640030384064

> <r_i_glide_einternal>
7.95222139358521

> <i_i_glide_confnum>
11

> <i_i_glide_posenum>
381

> <r_i_glide_eff_state_penalty>
0

> <s_user_duplicate_titles>
CHEMBL1862_lig809

> <s_m_subgroup_title>
dock_pv

> <s_m_subgroupid>
dock_pv

> <b_m_subgroup_collapsed>
0

$$$$
CHEMBL1862_lig445
                    3D
 Schrodinger Suite 2021-1.
 55 57  0  0  1  0            999 V2000
   14.4287   12.0330    1.9851 N   0  0  0  0  0  0
   13.0726   12.0330    2.0444 C   0  0  0  0  0  0
   12.2888   12.7533    2.8661 N   0  0  0  0  0  0
   15.1046   12.8269    2.8073 C   0  0  0  0  0  0
   14.4031   13.7297    3.6096 C   0  0  0  0  0  0
   12.9932   13.6107    3.6002 C   0  0  0  0  0  0
   12.5208   14.5494    4.4776 N   0  0  0  0  0  0
   13.5662   15.2334    5.0181 N   0  0  0  0  0  0
   14.6850   14.8014    4.4802 C   0  0  0  0  0  0
   16.0498   15.3348    4.7310 C   0  0  0  0  0  0
   16.9640   15.3847    3.6679 C   0  0  0  0  0  0
   18.3041   15.6973    3.8664 C   0  0  0  0  0  0
   18.7558   15.8975    5.1670 C   0  0  0  0  0  0
   17.8413   15.9153    6.2197 C   0  0  0  0  0  0
   16.4875   15.6637    6.0075 C   0  0  0  0  0  0
   11.1366   14.7779    4.9403 C   0  0  0  0  0  0
   10.8597   13.8861    6.1681 C   0  0  0  0  0  0
   10.0363   14.5598    3.8697 C   0  0  0  0  0  0
   16.4858   12.6683    2.8030 N   0  0  0  0  0  0
   20.1004   16.1881    5.3617 N   0  0  0  0  0  0
   20.9349   15.8083    6.4020 C   0  0  0  0  0  0
   22.0300   16.6231    6.5124 O   0  0  0  0  0  0
   20.7235   14.8964    7.1969 O   0  0  0  0  0  0
   22.3844   17.7603    5.6935 C   0  0  0  0  0  0
   21.2890   18.8350    5.5954 C   0  0  0  0  0  0
   22.7100   17.2725    4.2852 C   0  0  0  0  0  0
   23.6352   18.3807    6.3511 C   0  0  0  0  0  0
   19.1737   15.7365    2.8042 O   0  0  0  0  0  0
   19.3591   17.0106    2.2002 C   0  0  0  0  0  0
   12.5642   11.3168    1.4127 H   0  0  0  0  0  0
   16.6201   15.2048    2.6611 H   0  0  0  0  0  0
   18.1957   16.1133    7.2030 H   0  0  0  0  0  0
   15.8021   15.6408    6.8440 H   0  0  0  0  0  0
   11.0786   15.8306    5.2030 H   0  0  0  0  0  0
    9.9130   14.1456    6.6439 H   0  0  0  0  0  0
   10.8058   12.8334    5.8948 H   0  0  0  0  0  0
   11.6410   13.9775    6.9235 H   0  0  0  0  0  0
    9.0638   14.8330    4.2774 H   0  0  0  0  0  0
   10.1671   15.1597    2.9721 H   0  0  0  0  0  0
    9.9511   13.5168    3.5684 H   0  0  0  0  0  0
   17.0439   13.2449    3.4160 H   0  0  0  0  0  0
   16.9185   12.0332    2.1546 H   0  0  0  0  0  0
   20.5243   16.7633    4.6518 H   0  0  0  0  0  0
   21.7639   19.8203    5.6021 H   0  0  0  0  0  0
   20.5630   18.7910    6.4026 H   0  0  0  0  0  0
   20.7197   18.7774    4.6673 H   0  0  0  0  0  0
   23.3639   16.4326    4.4031 H   0  0  0  0  0  0
   21.8404   16.9508    3.7142 H   0  0  0  0  0  0
   23.2061   18.0310    3.6925 H   0  0  0  0  0  0
   24.2684   17.6335    6.8182 H   0  0  0  0  0  0
   24.2447   18.9307    5.6336 H   0  0  0  0  0  0
   23.3658   19.0827    7.1343 H   0  0  0  0  0  0
   20.2937   17.0087    1.6400 H   0  0  0  0  0  0
   18.5638   17.2333    1.4940 H   0  0  0  0  0  0
   19.4096   17.8221    2.9246 H   0  0  0  0  0  0
  1  2  2  0  0  0
  1  4  1  0  0  0
  2  3  1  0  0  0
  2 30  1  0  0  0
  3  6  2  0  0  0
  4  5  2  0  0  0
  4 19  1  0  0  0
  5  9  1  0  0  0
  5  6  1  0  0  0
  6  7  1  0  0  0
  7 16  1  0  0  0
  7  8  1  0  0  0
  8  9  2  0  0  0
  9 10  1  0  0  0
 10 15  1  0  0  0
 10 11  2  0  0  0
 11 12  1  0  0  0
 11 31  1  0  0  0
 12 13  2  0  0  0
 12 28  1  0  0  0
 13 20  1  0  0  0
 13 14  1  0  0  0
 14 15  2  0  0  0
 14 32  1  0  0  0
 15 33  1  0  0  0
 16 17  1  0  0  0
 16 18  1  0  0  0
 16 34  1  0  0  0
 17 35  1  0  0  0
 17 36  1  0  0  0
 17 37  1  0  0  0
 18 38  1  0  0  0
 18 39  1  0  0  0
 18 40  1  0  0  0
 19 41  1  0  0  0
 19 42  1  0  0  0
 20 21  1  0  0  0
 20 43  1  0  0  0
 21 22  1  0  0  0
 21 23  2  0  0  0
 22 24  1  0  0  0
 24 25  1  0  0  0
 24 26  1  0  0  0
 24 27  1  0  0  0
 25 44  1  0  0  0
 25 45  1  0  0  0
 25 46  1  0  0  0
 26 47  1  0  0  0
 26 48  1  0  0  0
 26 49  1  0  0  0
 27 50  1  0  0  0
 27 51  1  0  0  0
 27 52  1  0  0  0
 28 29  1  0  0  0
 29 53  1  0  0  0
 29 54  1  0  0  0
 29 55  1  0  0  0
M  END
> <s_m_entry_id>
6436

> <s_m_entry_name>
dock_pv.362

> <s_m_Source_Path>
/home/csk/Desktop/cluster/DUD-E-result/abl1

> <s_m_Source_File>
dock_pv.maegz

> <i_m_Source_File_Index>
362

> <chembl_id>
CHEMBL1241481

> <chembl_pref_name>
None

> <i_lp_mmshare_version>
53161

> <i_f3d_flags>
0

> <r_lp_tautomer_probability>
1

> <s_lp_Force_Field>
OPLS_2005

> <r_lp_Energy>
23.220324

> <b_lp_Chiralities_Consistent>
1

> <s_lp_Variant>
CHEMBL1862_lig445-1

> <s_i_glide_gridfile>
glide-grid_2hzi

> <i_i_glide_lignum>
533

> <i_i_glide_rotatable_bonds>
7

> <r_i_docking_score>
-7.20678395959508

> <r_i_glide_ligand_efficiency>
-0.248509791710175

> <r_i_glide_ligand_efficiency_sa>
-0.763500813561879

> <r_i_glide_ligand_efficiency_ln>
-1.65017077847401

> <r_i_glide_gscore>
-7.20678395959508

> <r_i_glide_lipo>
-4.08570633687727

> <r_i_glide_hbond>
-0.210528027467292

> <r_i_glide_metal>
0

> <r_i_glide_rewards>
-1.72837027893843

> <r_i_glide_evdw>
-31.6059913635254

> <r_i_glide_ecoul>
-0.63530558347702

> <r_i_glide_erotb>
0.493416089385737

> <r_i_glide_esite>
0

> <r_i_glide_emodel>
-50.3310403799865

> <r_i_glide_energy>
-32.2412969470024

> <r_i_glide_einternal>
13.9591312408447

> <i_i_glide_confnum>
21

> <i_i_glide_posenum>
116

> <r_i_glide_eff_state_penalty>
0

> <s_user_duplicate_titles>
CHEMBL1862_lig445

> <s_m_subgroup_title>
dock_pv

> <s_m_subgroupid>
dock_pv

> <b_m_subgroup_collapsed>
0

$$$$
CHEMBL1862_lig174
                    3D
 Schrodinger Suite 2021-1.
 38 41  0  0  1  0            999 V2000
   16.9288   14.5957    4.2880 C   0  0  0  0  0  0
   15.9188   13.7588    3.7388 C   0  0  0  0  0  0
   14.5243   13.5150    3.8169 C   0  0  0  0  0  0
   18.1144   14.0945    3.8077 N   0  0  0  0  0  0
   18.0188   13.1014    2.9230 N   0  0  0  0  0  0
   16.6712   12.9321    2.8336 C   0  0  0  0  0  0
   13.9647   12.6506    2.9323 N   0  0  0  0  0  0
   16.8252   15.6328    5.1727 N   0  0  0  0  0  0
   13.6649   14.0650    4.7945 N   0  0  0  0  0  0
   16.1088   12.0655    2.0030 N   0  0  0  0  0  0
   14.7638   12.0334    2.0490 C   0  0  0  0  0  0
   17.7410   16.6727    5.4001 C   0  0  0  0  0  0
   12.2589   13.9151    4.8368 C   0  0  0  0  0  0
   11.5516   13.6330    6.0066 C   0  0  0  0  0  0
   17.4009   17.5719    6.4029 C   0  0  0  0  0  0
   10.1556   13.4967    5.9689 C   0  0  0  0  0  0
   18.1640   18.7200    6.6331 C   0  0  0  0  0  0
    9.2588   13.0883    7.3695 Cl  0  0  0  0  0  0
   17.7678   19.6330    7.5849 O   0  0  0  0  0  0
   19.7718   17.9410    5.0050 C   0  0  0  0  0  0
   10.1502   13.9022    3.6045 C   0  0  0  0  0  0
   11.5322   14.0330    3.6592 C   0  0  0  0  0  0
   18.9238   16.8874    4.6715 C   0  0  0  0  0  0
    9.4576   13.6349    4.7738 C   0  0  0  0  0  0
   19.3915   18.8330    6.0030 C   0  0  0  0  0  0
   19.0150   14.4573    4.0806 H   0  0  0  0  0  0
   15.9648   15.7589    5.6829 H   0  0  0  0  0  0
   14.1111   14.4636    5.6039 H   0  0  0  0  0  0
   14.2795   11.3696    1.3475 H   0  0  0  0  0  0
   12.0761   13.5153    6.9436 H   0  0  0  0  0  0
   16.5277   17.3716    6.9985 H   0  0  0  0  0  0
   17.3645   20.4359    7.2201 H   0  0  0  0  0  0
   20.7183   18.0615    4.4978 H   0  0  0  0  0  0
    9.6234   14.0031    2.6674 H   0  0  0  0  0  0
   12.0932   14.2737    2.7849 H   0  0  0  0  0  0
   19.2282   16.2571    3.8539 H   0  0  0  0  0  0
    8.3853   13.5125    4.7510 H   0  0  0  0  0  0
   20.0617   19.5963    6.3708 H   0  0  0  0  0  0
  1  2  2  0  0  0
  1  4  1  0  0  0
  1  8  1  0  0  0
  2  3  1  0  0  0
  2  6  1  0  0  0
  3  7  2  0  0  0
  3  9  1  0  0  0
  4  5  1  0  0  0
  4 26  1  0  0  0
  5  6  2  0  0  0
  6 10  1  0  0  0
  7 11  1  0  0  0
  8 12  1  0  0  0
  8 27  1  0  0  0
  9 13  1  0  0  0
  9 28  1  0  0  0
 10 11  2  0  0  0
 11 29  1  0  0  0
 12 15  2  0  0  0
 12 23  1  0  0  0
 13 14  2  0  0  0
 13 22  1  0  0  0
 14 16  1  0  0  0
 14 30  1  0  0  0
 15 17  1  0  0  0
 15 31  1  0  0  0
 16 18  1  0  0  0
 16 24  2  0  0  0
 17 19  1  0  0  0
 17 25  2  0  0  0
 19 32  1  0  0  0
 20 23  2  0  0  0
 20 25  1  0  0  0
 20 33  1  0  0  0
 21 22  2  0  0  0
 21 24  1  0  0  0
 21 34  1  0  0  0
 22 35  1  0  0  0
 23 36  1  0  0  0
 24 37  1  0  0  0
 25 38  1  0  0  0
M  END
> <s_m_entry_id>
6437

> <s_m_entry_name>
dock_pv.363

> <s_m_Source_Path>
/home/csk/Desktop/cluster/DUD-E-result/abl1

> <s_m_Source_File>
dock_pv.maegz

> <i_m_Source_File_Index>
363

> <chembl_id>
CHEMBL121954

> <chembl_pref_name>
None

> <i_lp_mmshare_version>
53161

> <i_f3d_flags>
0

> <r_lp_tautomer_probability>
1

> <s_lp_Force_Field>
OPLS_2005

> <r_lp_Energy>
35.138993

> <b_lp_Chiralities_Consistent>
1

> <s_lp_Variant>
CHEMBL1862_lig174-1

> <s_i_glide_gridfile>
glide-grid_2hzi

> <i_i_glide_lignum>
193

> <i_i_glide_rotatable_bonds>
5

> <r_i_docking_score>
-7.15182310436297

> <r_i_glide_ligand_efficiency>
-0.286072924174519

> <r_i_glide_ligand_efficiency_sa>
-0.836482303811206

> <r_i_glide_ligand_efficiency_ln>
-1.69519639857767

> <r_i_glide_gscore>
-7.15182310436297

> <r_i_glide_lipo>
-3.42103215745946

> <r_i_glide_hbond>
-0.608

> <r_i_glide_metal>
0

> <r_i_glide_rewards>
-2.43375759886038

> <r_i_glide_evdw>
-5.91596174240112

> <r_i_glide_ecoul>
-6.71181297302246

> <r_i_glide_erotb>
0.613536685030292

> <r_i_glide_esite>
0

> <r_i_glide_emodel>
-36.6321273127714

> <r_i_glide_energy>
-12.6277747154236

> <r_i_glide_einternal>
10.503963470459

> <i_i_glide_confnum>
2

> <i_i_glide_posenum>
115

> <r_i_glide_eff_state_penalty>
0

> <s_user_duplicate_titles>
CHEMBL1862_lig174,198357

> <s_m_subgroup_title>
dock_pv

> <s_m_subgroupid>
dock_pv

> <b_m_subgroup_collapsed>
0

$$$$
CHEMBL1862_lig169
                    3D
 Schrodinger Suite 2021-1.
 36 39  0  0  1  0            999 V2000
   16.9265   14.6075    4.2736 C   0  0  0  0  0  0
   15.9169   13.7668    3.7412 C   0  0  0  0  0  0
   14.5272   13.5039    3.8379 C   0  0  0  0  0  0
   18.1119   14.1153    3.7814 N   0  0  0  0  0  0
   18.0097   13.1262    2.8946 N   0  0  0  0  0  0
   16.6617   12.9513    2.8256 C   0  0  0  0  0  0
   13.9569   12.6101    2.9874 N   0  0  0  0  0  0
   16.8199   15.6330    5.1635 N   0  0  0  0  0  0
   16.0908   12.0877    2.0030 N   0  0  0  0  0  0
   13.7259   14.0993    4.8127 O   0  0  0  0  0  0
   14.7480   12.0330    2.0733 C   0  0  0  0  0  0
   17.7280   16.6798    5.3795 C   0  0  0  0  0  0
   12.3408   13.9216    4.8231 C   0  0  0  0  0  0
   18.8941   16.9188    4.6296 C   0  0  0  0  0  0
   11.6363   13.6330    5.9990 C   0  0  0  0  0  0
   10.2402   13.4968    5.9665 C   0  0  0  0  0  0
   19.7447   17.9691    4.9725 C   0  0  0  0  0  0
    9.3467   13.0947    7.3698 Cl  0  0  0  0  0  0
   21.2372   18.1922    4.1345 Cl  0  0  0  0  0  0
   18.1640   18.6989    6.6405 C   0  0  0  0  0  0
   10.2219   13.8979    3.6030 C   0  0  0  0  0  0
   17.3984   17.5557    6.4030 C   0  0  0  0  0  0
   11.6051   14.0330    3.6426 C   0  0  0  0  0  0
   19.3842   18.8330    6.0030 C   0  0  0  0  0  0
    9.5363   13.6330    4.7758 C   0  0  0  0  0  0
   19.0145   14.4766    4.0493 H   0  0  0  0  0  0
   15.9641   15.7306    5.6908 H   0  0  0  0  0  0
   14.2643   11.3628    1.3776 H   0  0  0  0  0  0
   19.1797   16.3084    3.7905 H   0  0  0  0  0  0
   12.1640   13.5271    6.9351 H   0  0  0  0  0  0
   17.8925   19.3732    7.4405 H   0  0  0  0  0  0
    9.6871   13.9948    2.6701 H   0  0  0  0  0  0
   16.5386   17.3386    7.0153 H   0  0  0  0  0  0
   12.1581   14.2710    2.7552 H   0  0  0  0  0  0
   20.0513   19.5967    6.3789 H   0  0  0  0  0  0
    8.4632   13.5105    4.7596 H   0  0  0  0  0  0
  1  2  2  0  0  0
  1  4  1  0  0  0
  1  8  1  0  0  0
  2  3  1  0  0  0
  2  6  1  0  0  0
  3  7  2  0  0  0
  3 10  1  0  0  0
  4  5  1  0  0  0
  4 26  1  0  0  0
  5  6  2  0  0  0
  6  9  1  0  0  0
  7 11  1  0  0  0
  8 12  1  0  0  0
  8 27  1  0  0  0
  9 11  2  0  0  0
 10 13  1  0  0  0
 11 28  1  0  0  0
 12 14  2  0  0  0
 12 22  1  0  0  0
 13 15  1  0  0  0
 13 23  2  0  0  0
 14 17  1  0  0  0
 14 29  1  0  0  0
 15 16  2  0  0  0
 15 30  1  0  0  0
 16 18  1  0  0  0
 16 25  1  0  0  0
 17 19  1  0  0  0
 17 24  2  0  0  0
 20 22  2  0  0  0
 20 24  1  0  0  0
 20 31  1  0  0  0
 21 23  1  0  0  0
 21 25  2  0  0  0
 21 32  1  0  0  0
 22 33  1  0  0  0
 23 34  1  0  0  0
 24 35  1  0  0  0
 25 36  1  0  0  0
M  END
> <s_m_entry_id>
6438

> <s_m_entry_name>
dock_pv.364

> <s_m_Source_Path>
/home/csk/Desktop/cluster/DUD-E-result/abl1

> <s_m_Source_File>
dock_pv.maegz

> <i_m_Source_File_Index>
364

> <chembl_id>
CHEMBL334026

> <chembl_pref_name>
None

> <i_lp_mmshare_version>
53161

> <i_f3d_flags>
0

> <r_lp_tautomer_probability>
1

> <s_lp_Force_Field>
OPLS_2005

> <r_lp_Energy>
32.198812

> <b_lp_Chiralities_Consistent>
1

> <s_lp_Variant>
CHEMBL1862_lig169-1

> <s_i_glide_gridfile>
glide-grid_2hzi

> <i_i_glide_lignum>
188

> <i_i_glide_rotatable_bonds>
4

> <r_i_docking_score>
-7.1308492712942

> <r_i_glide_ligand_efficiency>
-0.285233970851768

> <r_i_glide_ligand_efficiency_sa>
-0.834029189416582

> <r_i_glide_ligand_efficiency_ln>
-1.69022497160531

> <r_i_glide_gscore>
-7.1308492712942

> <r_i_glide_lipo>
-3.76798241116099

> <r_i_glide_hbond>
-0.32

> <r_i_glide_metal>
0

> <r_i_glide_rewards>
-2.39635416208543

> <r_i_glide_evdw>
-15.6190481185913

> <r_i_glide_ecoul>
-2.82094216346741

> <r_i_glide_erotb>
0.557581032401897

> <r_i_glide_esite>
0

> <r_i_glide_emodel>
-20.7618890187155

> <r_i_glide_energy>
-18.4399902820587

> <r_i_glide_einternal>
2.99797177314758

> <i_i_glide_confnum>
20

> <i_i_glide_posenum>
345

> <r_i_glide_eff_state_penalty>
0

> <s_user_duplicate_titles>
CHEMBL1862_lig169

> <s_m_subgroup_title>
dock_pv

> <s_m_subgroupid>
dock_pv

> <b_m_subgroup_collapsed>
0

$$$$
CHEMBL1862_lig147
                    3D
 Schrodinger Suite 2021-1.
 44 47  0  0  1  0            999 V2000
   11.8018   13.6964    4.7782 C   0  0  0  0  0  0
   11.3290   13.2373    3.5814 N   0  0  0  0  0  0
   18.3432   15.6459    4.7170 C   0  0  0  0  0  0
   17.8199   15.0097    3.6590 N   0  0  0  0  0  0
    9.9895   13.0038    3.5026 C   0  0  0  0  0  0
   13.1445   14.1019    4.8939 N   0  0  0  0  0  0
   11.0379   13.8555    5.8872 N   0  0  0  0  0  0
    9.4840   12.4772    2.2287 C   0  0  0  0  0  0
   16.6221   14.2729    3.6162 C   0  0  0  0  0  0
   17.8503   15.6154    5.8537 O   0  0  0  0  0  0
   15.4375   14.6086    4.2970 C   0  0  0  0  0  0
   14.3040   13.8020    4.1703 C   0  0  0  0  0  0
   19.6304   16.4137    4.4768 C   0  0  0  0  0  0
    8.0418   12.7844    0.3042 N   0  0  0  0  0  0
   22.0162   17.8621    4.0815 N   0  0  0  0  0  0
    9.1238   13.2477    4.5828 C   0  0  0  0  0  0
    9.7044   13.6433    5.7896 C   0  0  0  0  0  0
    8.4644   13.1476    1.5371 C   0  0  0  0  0  0
   15.5172   12.3393    2.6811 C   0  0  0  0  0  0
   10.0178   11.3220    1.6433 C   0  0  0  0  0  0
   21.0888   17.7472    3.0968 C   0  0  0  0  0  0
   21.7589   17.2379    5.2539 C   0  0  0  0  0  0
    8.5966   11.6844   -0.2559 C   0  0  0  0  0  0
   16.6550   13.1398    2.8122 C   0  0  0  0  0  0
   14.3644   12.6455    3.3764 C   0  0  0  0  0  0
   19.8909   17.0553    3.2464 C   0  0  0  0  0  0
   20.5937   16.5118    5.4915 C   0  0  0  0  0  0
    9.5474   10.8903    0.4034 C   0  0  0  0  0  0
   18.4214   14.8862    2.8502 H   0  0  0  0  0  0
   13.3511   14.5103    5.7915 H   0  0  0  0  0  0
   15.3932   15.4719    4.9365 H   0  0  0  0  0  0
    8.0724   13.0669    4.4960 H   0  0  0  0  0  0
    9.0975   13.8009    6.6609 H   0  0  0  0  0  0
    8.0549   14.0511    1.9672 H   0  0  0  0  0  0
   15.5177   11.4740    2.0461 H   0  0  0  0  0  0
   10.8009   10.7682    2.1323 H   0  0  0  0  0  0
   21.3245   18.2295    2.1549 H   0  0  0  0  0  0
   22.5181   17.3301    6.0166 H   0  0  0  0  0  0
    8.3399   11.4539   -1.2795 H   0  0  0  0  0  0
   17.5756   12.8823    2.2999 H   0  0  0  0  0  0
   13.5455   11.9628    3.2953 H   0  0  0  0  0  0
   19.1880   17.0162    2.4259 H   0  0  0  0  0  0
   20.4441   16.0262    6.4433 H   0  0  0  0  0  0
    9.9737   10.0335   -0.0853 H   0  0  0  0  0  0
  1  2  1  0  0  0
  1  6  1  0  0  0
  1  7  2  0  0  0
  2  5  2  0  0  0
  3  4  1  0  0  0
  3 10  2  0  0  0
  3 13  1  0  0  0
  4  9  1  0  0  0
  4 29  1  0  0  0
  5  8  1  0  0  0
  5 16  1  0  0  0
  6 12  1  0  0  0
  6 30  1  0  0  0
  7 17  1  0  0  0
  8 18  1  0  0  0
  8 20  2  0  0  0
  9 11  2  0  0  0
  9 24  1  0  0  0
 11 12  1  0  0  0
 11 31  1  0  0  0
 12 25  2  0  0  0
 13 26  1  0  0  0
 13 27  2  0  0  0
 14 18  2  0  0  0
 14 23  1  0  0  0
 15 22  2  0  0  0
 15 21  1  0  0  0
 16 17  2  0  0  0
 16 32  1  0  0  0
 17 33  1  0  0  0
 18 34  1  0  0  0
 19 25  1  0  0  0
 19 24  2  0  0  0
 19 35  1  0  0  0
 20 28  1  0  0  0
 20 36  1  0  0  0
 21 26  2  0  0  0
 21 37  1  0  0  0
 22 27  1  0  0  0
 22 38  1  0  0  0
 23 28  2  0  0  0
 23 39  1  0  0  0
 24 40  1  0  0  0
 25 41  1  0  0  0
 26 42  1  0  0  0
 27 43  1  0  0  0
 28 44  1  0  0  0
M  END
> <s_m_entry_id>
6439

> <s_m_entry_name>
dock_pv.365

> <s_m_Source_Path>
/home/csk/Desktop/cluster/DUD-E-result/abl1

> <s_m_Source_File>
dock_pv.maegz

> <i_m_Source_File_Index>
365

> <chembl_id>
CHEMBL55592

> <chembl_pref_name>
None

> <i_lp_mmshare_version>
53161

> <i_f3d_flags>
0

> <r_lp_tautomer_probability>
0.999999987636

> <s_lp_Force_Field>
OPLS_2005

> <r_lp_Energy>
17.609436

> <b_lp_Chiralities_Consistent>
1

> <s_lp_Variant>
CHEMBL1862_lig147-1

> <s_i_glide_gridfile>
glide-grid_2hzi

> <i_i_glide_lignum>
166

> <i_i_glide_rotatable_bonds>
6

> <r_i_docking_score>
-7.11000409544744

> <r_i_glide_ligand_efficiency>
-0.253928717694551

> <r_i_glide_ligand_efficiency_sa>
-0.771077142937341

> <r_i_glide_ligand_efficiency_ln>
-1.64119770402065

> <r_i_glide_gscore>
-7.11000409544744

> <r_i_glide_lipo>
-3.73467258028937

> <r_i_glide_hbond>
0

> <r_i_glide_metal>
0

> <r_i_glide_rewards>
-1.7492947238904

> <r_i_glide_evdw>
-45.7522964477539

> <r_i_glide_ecoul>
-1.26894974708557

> <r_i_glide_erotb>
0.851920493182862

> <r_i_glide_esite>
0

> <r_i_glide_emodel>
-49.9715956801887

> <r_i_glide_energy>
-47.0212461948395

> <r_i_glide_einternal>
12.6942987442017

> <i_i_glide_confnum>
49

> <i_i_glide_posenum>
88

> <r_i_glide_eff_state_penalty>
0

> <s_user_duplicate_titles>
CHEMBL1862_lig147,88249

> <s_m_subgroup_title>
dock_pv

> <s_m_subgroupid>
dock_pv

> <b_m_subgroup_collapsed>
0

$$$$
CHEMBL1862_lig16
                    3D
 Schrodinger Suite 2021-1.
 43 46  0  0  1  0            999 V2000
   17.2603   16.1112    5.1889 N   0  0  0  0  0  0
   16.1637   16.2431    5.9675 C   0  0  0  0  0  0
   14.9651   15.6273    5.8159 N   0  0  0  0  0  0
   17.1884   15.2431    4.1415 C   0  0  0  0  0  0
   15.9983   14.5250    3.9021 C   0  0  0  0  0  0
   14.9235   14.7743    4.7891 C   0  0  0  0  0  0
   13.8867   13.9345    4.3985 N   0  0  0  0  0  0
   14.2552   13.2182    3.3107 N   0  0  0  0  0  0
   15.4817   13.5579    2.9909 C   0  0  0  0  0  0
   18.2969   15.0953    3.2914 N   0  0  0  0  0  0
   12.6227   13.6360    5.1097 C   0  0  0  0  0  0
   11.2942   14.0517    4.4146 C   0  0  2  0  0  0
   10.0883   14.2576    5.7217 Cl  0  0  0  0  0  0
   10.7154   13.1384    3.3144 C   0  0  0  0  0  0
    9.4373   13.4169    2.8044 C   0  0  0  0  0  0
    9.6037   11.5482    1.2909 C   0  0  0  0  0  0
   10.8584   11.2413    1.7989 C   0  0  0  0  0  0
    8.8930   12.6334    1.7908 C   0  0  0  0  0  0
   11.4086   12.0328    2.8024 C   0  0  0  0  0  0
    8.9278   10.5785    0.0328 Cl  0  0  0  0  0  0
   19.3012   16.1620    3.1787 C   0  0  0  0  0  0
   20.3018   16.2756    4.3319 C   0  0  0  0  0  0
   21.1551   17.3865    4.3691 C   0  0  0  0  0  0
   22.1841   16.5712    6.3998 N   0  0  0  0  0  0
   21.3623   15.4959    6.3490 C   0  0  0  0  0  0
   22.0739   17.4975    5.4151 C   0  0  0  0  0  0
   20.4159   15.3087    5.3418 C   0  0  0  0  0  0
   16.2487   16.9188    6.8049 H   0  0  0  0  0  0
   15.9775   13.1030    2.1459 H   0  0  0  0  0  0
   18.1717   14.5076    2.4806 H   0  0  0  0  0  0
   12.6956   14.1398    6.0733 H   0  0  0  0  0  0
   12.5639   12.5791    5.3478 H   0  0  0  0  0  0
   11.4152   15.0509    4.0034 H   0  0  0  0  0  0
    8.8712   14.2546    3.1792 H   0  0  0  0  0  0
   11.4036   10.3867    1.4253 H   0  0  0  0  0  0
    7.9255   12.8717    1.3849 H   0  0  0  0  0  0
   12.3633   11.7252    3.1886 H   0  0  0  0  0  0
   19.8551   16.0331    2.2484 H   0  0  0  0  0  0
   18.7844   17.1180    3.0784 H   0  0  0  0  0  0
   21.1100   18.1477    3.6035 H   0  0  0  0  0  0
   21.4749   14.7635    7.1320 H   0  0  0  0  0  0
   22.7463   18.3410    5.4756 H   0  0  0  0  0  0
   19.7846   14.4336    5.3519 H   0  0  0  0  0  0
  1  2  2  0  0  0
  1  4  1  0  0  0
  2  3  1  0  0  0
  2 28  1  0  0  0
  3  6  2  0  0  0
  4  5  2  0  0  0
  4 10  1  0  0  0
  5  9  1  0  0  0
  5  6  1  0  0  0
  6  7  1  0  0  0
  7  8  1  0  0  0
  7 11  1  0  0  0
  8  9  2  0  0  0
  9 29  1  0  0  0
 10 21  1  0  0  0
 10 30  1  0  0  0
 11 12  1  0  0  0
 11 31  1  0  0  0
 11 32  1  0  0  0
 12 13  1  0  0  0
 12 14  1  0  0  0
 12 33  1  0  0  0
 14 15  2  0  0  0
 14 19  1  0  0  0
 15 18  1  0  0  0
 15 34  1  0  0  0
 16 17  1  0  0  0
 16 18  2  0  0  0
 16 20  1  0  0  0
 17 19  2  0  0  0
 17 35  1  0  0  0
 18 36  1  0  0  0
 19 37  1  0  0  0
 21 22  1  0  0  0
 21 38  1  0  0  0
 21 39  1  0  0  0
 22 23  2  0  0  0
 22 27  1  0  0  0
 23 26  1  0  0  0
 23 40  1  0  0  0
 24 25  1  0  0  0
 24 26  2  0  0  0
 25 27  2  0  0  0
 25 41  1  0  0  0
 26 42  1  0  0  0
 27 43  1  0  0  0
M  END
> <s_m_entry_id>
6440

> <s_m_entry_name>
dock_pv.366

> <s_m_Source_Path>
/home/csk/Desktop/cluster/DUD-E-result/abl1

> <s_m_Source_File>
dock_pv.maegz

> <i_m_Source_File_Index>
366

> <chembl_id>
CHEMBL1775046

> <chembl_pref_name>
None

> <i_lp_mmshare_version>
53161

> <i_f3d_flags>
0

> <r_lp_tautomer_probability>
1

> <s_lp_Force_Field>
OPLS_2005

> <r_lp_Energy>
5.846797

> <b_lp_Chiralities_Consistent>
1

> <s_lp_Variant>
CHEMBL1862_lig16-1

> <s_i_glide_gridfile>
glide-grid_2hzi

> <i_i_glide_lignum>
25

> <i_i_glide_rotatable_bonds>
6

> <r_i_docking_score>
-7.07191589582718

> <r_i_glide_ligand_efficiency>
-0.261922810956562

> <r_i_glide_ligand_efficiency_sa>
-0.785768432006432

> <r_i_glide_ligand_efficiency_ln>
-1.64622543090305

> <r_i_glide_gscore>
-7.07191589582718

> <r_i_glide_lipo>
-3.60763907753485

> <r_i_glide_hbond>
0

> <r_i_glide_metal>
0

> <r_i_glide_rewards>
-2.24758973618206

> <r_i_glide_evdw>
-44.9094848632812

> <r_i_glide_ecoul>
1.94257628917694

> <r_i_glide_erotb>
0.737400717677253

> <r_i_glide_esite>
0

> <r_i_glide_emodel>
-52.55367053665

> <r_i_glide_energy>
-42.9669085741043

> <r_i_glide_einternal>
7.40669918060303

> <i_i_glide_confnum>
59

> <i_i_glide_posenum>
340

> <r_i_glide_eff_state_penalty>
0

> <s_user_duplicate_titles>
CHEMBL1862_lig16

> <s_m_subgroup_title>
dock_pv

> <s_m_subgroupid>
dock_pv

> <b_m_subgroup_collapsed>
0

$$$$
CHEMBL1862_lig280
                    3D
 Schrodinger Suite 2021-1.
 34 36  0  0  1  0            999 V2000
   17.7640   18.0330    6.4306 O   0  0  0  0  0  0
   18.1859   17.1133    5.7533 C   0  0  0  0  0  0
   19.5237   17.0423    5.5197 N   0  0  0  0  0  0
   20.1702   16.0277    4.6604 C   0  0  0  0  0  0
   19.3145   15.8570    3.3723 C   0  0  2  0  0  0
   19.2535   17.1466    2.5038 C   0  0  0  0  0  0
   20.5640   17.6024    1.8738 C   0  0  0  0  0  0
   21.4875   18.0330    2.7345 F   0  0  0  0  0  0
   17.9418   15.4976    3.9144 C   0  0  0  0  0  0
   16.9940   14.6501    3.4073 N   0  0  0  0  0  0
   17.4480   16.0816    5.0654 C   0  0  0  0  0  0
   16.1247   15.6330    5.1910 C   0  0  0  0  0  0
   15.8457   14.7266    4.1643 C   0  0  0  0  0  0
   14.5924   13.9947    3.8252 C   0  0  0  0  0  0
   14.5518   12.9738    2.8659 C   0  0  0  0  0  0
   13.2975   12.4330    2.5786 C   0  0  0  0  0  0
   13.4726   14.4057    4.4845 N   0  0  0  0  0  0
   12.3096   13.7970    4.1419 C   0  0  0  0  0  0
   12.1640   12.8330    3.2030 N   0  0  0  0  0  0
   11.1577   14.1970    4.8030 N   0  0  0  0  0  0
   20.0717   17.8316    5.8248 H   0  0  0  0  0  0
   20.2488   15.0859    5.2086 H   0  0  0  0  0  0
   21.1924   16.3276    4.4322 H   0  0  0  0  0  0
   19.7147   15.0283    2.8030 H   0  0  0  0  0  0
   18.8386   17.9782    3.0744 H   0  0  0  0  0  0
   18.5640   16.9886    1.6826 H   0  0  0  0  0  0
   20.3865   18.4330    1.2030 H   0  0  0  0  0  0
   20.9640   16.7970    1.2660 H   0  0  0  0  0  0
   17.1018   14.1000    2.5681 H   0  0  0  0  0  0
   15.4257   15.9544    5.9507 H   0  0  0  0  0  0
   15.4327   12.6337    2.3442 H   0  0  0  0  0  0
   13.1748   11.6572    1.8384 H   0  0  0  0  0  0
   10.3071   13.6822    4.6311 H   0  0  0  0  0  0
   11.2529   14.8090    5.5970 H   0  0  0  0  0  0
  1  2  2  0  0  0
  2  3  1  0  0  0
  2 11  1  0  0  0
  3  4  1  0  0  0
  3 21  1  0  0  0
  4  5  1  0  0  0
  4 22  1  0  0  0
  4 23  1  0  0  0
  5  6  1  0  0  0
  5  9  1  0  0  0
  5 24  1  0  0  0
  6  7  1  0  0  0
  6 25  1  0  0  0
  6 26  1  0  0  0
  7  8  1  0  0  0
  7 27  1  0  0  0
  7 28  1  0  0  0
  9 11  2  0  0  0
  9 10  1  0  0  0
 10 13  1  0  0  0
 10 29  1  0  0  0
 11 12  1  0  0  0
 12 13  2  0  0  0
 12 30  1  0  0  0
 13 14  1  0  0  0
 14 17  2  0  0  0
 14 15  1  0  0  0
 15 16  2  0  0  0
 15 31  1  0  0  0
 16 19  1  0  0  0
 16 32  1  0  0  0
 17 18  1  0  0  0
 18 20  1  0  0  0
 18 19  2  0  0  0
 20 33  1  0  0  0
 20 34  1  0  0  0
M  END
> <s_m_entry_id>
6441

> <s_m_entry_name>
dock_pv.367

> <s_m_Source_Path>
/home/csk/Desktop/cluster/DUD-E-result/abl1

> <s_m_Source_File>
dock_pv.maegz

> <i_m_Source_File_Index>
367

> <chembl_id>
CHEMBL524266

> <chembl_pref_name>
None

> <i_lp_mmshare_version>
53161

> <i_f3d_flags>
0

> <r_lp_tautomer_probability>
0.999999987636

> <s_lp_Force_Field>
OPLS_2005

> <r_lp_Energy>
7.175171

> <b_lp_Chiralities_Consistent>
1

> <s_lp_Variant>
CHEMBL1862_lig280-1

> <s_i_glide_gridfile>
glide-grid_2hzi

> <i_i_glide_lignum>
320

> <i_i_glide_rotatable_bonds>
3

> <r_i_docking_score>
-7.07086021901319

> <r_i_glide_ligand_efficiency>
-0.35354301095066

> <r_i_glide_ligand_efficiency_sa>
-0.959663376190178

> <r_i_glide_ligand_efficiency_ln>
-1.76960310024076

> <r_i_glide_gscore>
-7.07086021901319

> <r_i_glide_lipo>
-2.71478642622125

> <r_i_glide_hbond>
0

> <r_i_glide_metal>
0

> <r_i_glide_rewards>
-2.90298437360724

> <r_i_glide_evdw>
-32.3995399475098

> <r_i_glide_ecoul>
-2.04947876930237

> <r_i_glide_erotb>
0.474309393586135

> <r_i_glide_esite>
0

> <r_i_glide_emodel>
-45.5282495991794

> <r_i_glide_energy>
-34.4490187168121

> <r_i_glide_einternal>
2.45223927497864

> <i_i_glide_confnum>
6

> <i_i_glide_posenum>
256

> <r_i_glide_eff_state_penalty>
0

> <s_user_duplicate_titles>
CHEMBL1862_lig280

> <s_m_subgroup_title>
dock_pv

> <s_m_subgroupid>
dock_pv

> <b_m_subgroup_collapsed>
0

$$$$
CHEMBL1862_lig868
                    3D
 Schrodinger Suite 2021-1.
 38 40  0  0  1  0            999 V2000
   14.5043   14.4379    3.8920 N   0  0  0  0  0  0
   15.8786   14.4500    3.8896 C   0  0  0  0  0  0
   16.2714   13.2947    3.2091 C   0  0  0  0  0  0
   15.0851   12.6472    2.7868 C   0  0  0  0  0  0
   13.9822   13.3301    3.2771 C   0  0  0  0  0  0
   17.6293   12.8602    3.0105 C   0  0  0  0  0  0
   18.6100   13.5634    3.1951 O   0  0  0  0  0  0
   17.7640   11.6345    2.5584 N   0  0  0  0  0  0
   16.6563   15.5157    4.6026 C   0  0  0  0  0  0
   16.2717   15.9422    5.8786 C   0  0  0  0  0  0
   16.9679   16.9566    6.5027 C   0  0  0  0  0  0
   18.0662   17.5616    5.9061 C   0  0  0  0  0  0
   18.4716   17.1639    4.6398 C   0  0  0  0  0  0
   17.7641   16.1354    3.9981 C   0  0  0  0  0  0
   10.3830   13.5573    3.9494 C   0  0  0  0  0  0
   11.7137   13.8137    4.0030 N   0  0  0  0  0  0
   12.5188   13.0398    3.2188 C   0  0  0  0  0  0
   11.9933   12.0328    2.4027 C   0  0  0  0  0  0
   10.6064   11.8623    2.4031 C   0  0  0  0  0  0
    9.7836   12.6212    3.1739 N   0  0  0  0  0  0
    9.5608   14.2963    4.7857 N   0  0  0  0  0  0
   14.9641   15.2330    6.7552 Cl  0  0  0  0  0  0
   19.4942   17.8832    4.0623 O   0  0  0  0  0  0
   20.4882   17.1814    3.3260 C   0  0  0  0  0  0
   21.5156   18.0142    3.1628 F   0  0  0  0  0  0
   20.9300   16.1189    4.0028 F   0  0  0  0  0  0
   20.0413   16.8335    2.1192 F   0  0  0  0  0  0
   13.9398   15.1330    4.3587 H   0  0  0  0  0  0
   15.0227   11.7248    2.2274 H   0  0  0  0  0  0
   17.0874   10.9351    2.8037 H   0  0  0  0  0  0
   18.6645   11.3693    2.1643 H   0  0  0  0  0  0
   16.6224   17.2768    7.4726 H   0  0  0  0  0  0
   18.5729   18.3752    6.4029 H   0  0  0  0  0  0
   18.0303   15.8683    2.9879 H   0  0  0  0  0  0
   12.6196   11.4147    1.7782 H   0  0  0  0  0  0
   10.1377   11.0997    1.7961 H   0  0  0  0  0  0
    8.6076   13.9769    4.8829 H   0  0  0  0  0  0
   10.0059   14.8280    5.5168 H   0  0  0  0  0  0
  1  2  1  0  0  0
  1  5  1  0  0  0
  1 28  1  0  0  0
  2  3  2  0  0  0
  2  9  1  0  0  0
  3  4  1  0  0  0
  3  6  1  0  0  0
  4  5  2  0  0  0
  4 29  1  0  0  0
  5 17  1  0  0  0
  6  7  2  0  0  0
  6  8  1  0  0  0
  8 30  1  0  0  0
  8 31  1  0  0  0
  9 10  1  0  0  0
  9 14  2  0  0  0
 10 11  2  0  0  0
 10 22  1  0  0  0
 11 12  1  0  0  0
 11 32  1  0  0  0
 12 13  2  0  0  0
 12 33  1  0  0  0
 13 14  1  0  0  0
 13 23  1  0  0  0
 14 34  1  0  0  0
 15 16  1  0  0  0
 15 20  2  0  0  0
 15 21  1  0  0  0
 16 17  2  0  0  0
 17 18  1  0  0  0
 18 19  2  0  0  0
 18 35  1  0  0  0
 19 20  1  0  0  0
 19 36  1  0  0  0
 21 37  1  0  0  0
 21 38  1  0  0  0
 23 24  1  0  0  0
 24 25  1  0  0  0
 24 26  1  0  0  0
 24 27  1  0  0  0
M  END
> <s_m_entry_id>
6442

> <s_m_entry_name>
dock_pv.368

> <s_m_Source_Path>
/home/csk/Desktop/cluster/DUD-E-result/abl1

> <s_m_Source_File>
dock_pv.maegz

> <i_m_Source_File_Index>
368

> <chembl_id>
CHEMBL3330126

> <chembl_pref_name>
None

> <i_lp_mmshare_version>
53161

> <i_f3d_flags>
0

> <r_lp_tautomer_probability>
0.999999987636

> <s_lp_Force_Field>
OPLS_2005

> <r_lp_Energy>
1.350405

> <b_lp_Chiralities_Consistent>
1

> <s_lp_Variant>
CHEMBL1862_lig868-1

> <s_i_glide_gridfile>
glide-grid_2hzi

> <i_i_glide_lignum>
1008

> <i_i_glide_rotatable_bonds>
5

> <r_i_docking_score>
-7.03821666504564

> <r_i_glide_ligand_efficiency>
-0.260674691297987

> <r_i_glide_ligand_efficiency_sa>
-0.782024073034819

> <r_i_glide_ligand_efficiency_ln>
-1.63838080555235

> <r_i_glide_gscore>
-7.03821666504564

> <r_i_glide_lipo>
-3.34028455127571

> <r_i_glide_hbond>
-0.300139816926677

> <r_i_glide_metal>
0

> <r_i_glide_rewards>
-2.06101600909142

> <r_i_glide_evdw>
-27.7856578826904

> <r_i_glide_ecoul>
-1.94798517227173

> <r_i_glide_erotb>
0.371268397708168

> <r_i_glide_esite>
-0.0265640154847263

> <r_i_glide_emodel>
-31.7969692799371

> <r_i_glide_energy>
-29.7336430549622

> <r_i_glide_einternal>
6.30513525009155

> <i_i_glide_confnum>
11

> <i_i_glide_posenum>
31

> <r_i_glide_eff_state_penalty>
0

> <s_user_duplicate_titles>
CHEMBL1862_lig868

> <s_m_subgroup_title>
dock_pv

> <s_m_subgroupid>
dock_pv

> <b_m_subgroup_collapsed>
0

$$$$
CHEMBL1862_lig518
                    3D
 Schrodinger Suite 2021-1.
 43 47  0  0  1  0            999 V2000
   10.0927   14.0711    5.9200 N   0  0  0  0  0  0
    8.9379   13.8175    5.2645 C   0  0  0  0  0  0
    8.7833   13.2855    4.0249 N   0  0  0  0  0  0
   11.2378   13.8015    5.2561 C   0  0  0  0  0  0
   11.2295   13.2332    3.9762 C   0  0  0  0  0  0
    9.9529   12.9705    3.4507 C   0  0  0  0  0  0
   10.1625   12.3152    2.2536 N   0  0  0  0  0  0
   11.4937   12.0342    2.0773 N   0  0  0  0  0  0
   12.1574   12.7336    2.9931 C   0  0  0  0  0  0
   13.6537   12.9167    2.9778 C   0  0  0  0  0  0
   14.2461   14.0304    3.6033 C   0  0  0  0  0  0
   15.8796   12.1095    2.3914 N   0  0  0  0  0  0
   14.5315   12.0371    2.3499 C   0  0  0  0  0  0
   12.4090   14.0076    5.9517 N   0  0  0  0  0  0
   16.4482   13.1518    3.0588 C   0  0  0  0  0  0
   15.6535   14.1557    3.6808 C   0  0  0  0  0  0
   16.2981   15.2310    4.3478 C   0  0  0  0  0  0
   17.6916   15.3082    4.3607 C   0  0  0  0  0  0
   18.4658   14.3285    3.7435 C   0  0  0  0  0  0
   17.8552   13.2393    3.1114 C   0  0  0  0  0  0
    9.1339   11.9372    1.2683 C   0  0  0  0  0  0
    9.3633   12.4422   -0.1613 C   0  0  0  0  0  0
    8.7231   11.4141   -1.0879 C   0  0  0  0  0  0
    8.9601   10.0892   -0.3809 C   0  0  0  0  0  0
    8.9889   10.4330    1.1217 C   0  0  0  0  0  0
    8.0320   14.0475    5.8138 H   0  0  0  0  0  0
   13.6393   14.8195    4.0156 H   0  0  0  0  0  0
   14.1450   11.2340    1.7448 H   0  0  0  0  0  0
   13.2885   13.7254    5.5379 H   0  0  0  0  0  0
   12.3586   14.3358    6.9127 H   0  0  0  0  0  0
   15.7013   15.9972    4.8276 H   0  0  0  0  0  0
   18.1834   16.1384    4.8498 H   0  0  0  0  0  0
   19.5443   14.4134    3.7373 H   0  0  0  0  0  0
   18.4540   12.4725    2.6319 H   0  0  0  0  0  0
    8.1842   12.3325    1.6294 H   0  0  0  0  0  0
    8.9806   13.4438   -0.3310 H   0  0  0  0  0  0
   10.4268   12.4352   -0.3866 H   0  0  0  0  0  0
    7.6642   11.6344   -1.1913 H   0  0  0  0  0  0
    9.1626   11.4325   -2.0862 H   0  0  0  0  0  0
    8.1885    9.3601   -0.6171 H   0  0  0  0  0  0
    9.9012    9.6340   -0.6948 H   0  0  0  0  0  0
    9.8370    9.9375    1.5946 H   0  0  0  0  0  0
    8.0934   10.0611    1.6168 H   0  0  0  0  0  0
  1  2  2  0  0  0
  1  4  1  0  0  0
  2  3  1  0  0  0
  2 26  1  0  0  0
  3  6  2  0  0  0
  4 14  1  0  0  0
  4  5  2  0  0  0
  5  9  1  0  0  0
  5  6  1  0  0  0
  6  7  1  0  0  0
  7  8  1  0  0  0
  7 21  1  0  0  0
  8  9  2  0  0  0
  9 10  1  0  0  0
 10 13  1  0  0  0
 10 11  2  0  0  0
 11 16  1  0  0  0
 11 27  1  0  0  0
 12 15  1  0  0  0
 12 13  2  0  0  0
 13 28  1  0  0  0
 14 29  1  0  0  0
 14 30  1  0  0  0
 15 16  1  0  0  0
 15 20  2  0  0  0
 16 17  2  0  0  0
 17 18  1  0  0  0
 17 31  1  0  0  0
 18 19  2  0  0  0
 18 32  1  0  0  0
 19 20  1  0  0  0
 19 33  1  0  0  0
 20 34  1  0  0  0
 21 22  1  0  0  0
 21 25  1  0  0  0
 21 35  1  0  0  0
 22 23  1  0  0  0
 22 36  1  0  0  0
 22 37  1  0  0  0
 23 24  1  0  0  0
 23 38  1  0  0  0
 23 39  1  0  0  0
 24 25  1  0  0  0
 24 40  1  0  0  0
 24 41  1  0  0  0
 25 42  1  0  0  0
 25 43  1  0  0  0
M  END
> <s_m_entry_id>
6443

> <s_m_entry_name>
dock_pv.369

> <s_m_Source_Path>
/home/csk/Desktop/cluster/DUD-E-result/abl1

> <s_m_Source_File>
dock_pv.maegz

> <i_m_Source_File_Index>
369

> <chembl_id>
CHEMBL1242755

> <chembl_pref_name>
None

> <i_lp_mmshare_version>
53161

> <i_f3d_flags>
0

> <r_lp_tautomer_probability>
1

> <s_lp_Force_Field>
OPLS_2005

> <r_lp_Energy>
36.219276

> <b_lp_Chiralities_Consistent>
1

> <s_lp_Variant>
CHEMBL1862_lig518-1

> <s_i_glide_gridfile>
glide-grid_2hzi

> <i_i_glide_lignum>
615

> <i_i_glide_rotatable_bonds>
2

> <r_i_docking_score>
-7.00203085583983

> <r_i_glide_ligand_efficiency>
-0.280081234233593

> <r_i_glide_ligand_efficiency_sa>
-0.818962496160866

> <r_i_glide_ligand_efficiency_ln>
-1.65969114676623

> <r_i_glide_gscore>
-7.00203085583983

> <r_i_glide_lipo>
-2.97142661925881

> <r_i_glide_hbond>
-0.340475857803704

> <r_i_glide_metal>
0

> <r_i_glide_rewards>
-2.75986866364711

> <r_i_glide_evdw>
-18.9771785736084

> <r_i_glide_ecoul>
-2.17333889007568

> <r_i_glide_erotb>
0.344600047061567

> <r_i_glide_esite>
0

> <r_i_glide_emodel>
-39.2903752834522

> <r_i_glide_energy>
-21.1505174636841

> <r_i_glide_einternal>
0.682913959026337

> <i_i_glide_confnum>
18

> <i_i_glide_posenum>
188

> <r_i_glide_eff_state_penalty>
0

> <s_user_duplicate_titles>
CHEMBL1862_lig518

> <s_m_subgroup_title>
dock_pv

> <s_m_subgroupid>
dock_pv

> <b_m_subgroup_collapsed>
0

$$$$
CHEMBL1862_lig632
                    3D
 Schrodinger Suite 2021-1.
 53 56  0  0  1  0            999 V2000
    9.5987   13.1450    3.1926 C   0  0  0  0  0  0
    9.8987   11.9863    2.4880 C   0  0  0  0  0  0
   11.2160   11.5588    2.3709 C   0  0  0  0  0  0
   12.2458   12.2977    2.9464 C   0  0  0  0  0  0
   11.9796   13.5119    3.6010 C   0  0  0  0  0  0
   10.6307   13.9013    3.7380 C   0  0  0  0  0  0
   13.0448   14.4333    4.1562 C   0  0  0  0  0  0
   14.5391   14.2823    3.9778 C   0  0  0  0  0  0
   12.6577   15.4059    4.8030 O   0  0  0  0  0  0
   15.1168   13.5519    2.9268 C   0  0  0  0  0  0
   16.4909   13.3889    2.8028 C   0  0  0  0  0  0
   15.3743   14.9905    4.8696 C   0  0  0  0  0  0
   16.7571   14.8283    4.7354 C   0  0  0  0  0  0
   17.3188   14.0362    3.7109 C   0  0  0  0  0  0
   18.6781   14.0208    3.7740 N   0  0  0  0  0  0
   18.9611   14.6516    4.8761 C   0  0  0  0  0  0
   17.8549   15.2135    5.4830 N   0  0  0  0  0  0
   20.2294   14.8331    5.3335 N   0  0  0  0  0  0
   17.8405   16.0361    6.6583 C   0  0  0  0  0  0
   17.7665   17.5260    6.2927 C   0  0  0  0  0  0
   18.7925   18.0719    5.2536 C   0  0  0  0  0  0
   20.2911   18.1726    5.5922 C   0  0  0  0  0  0
   21.2153   18.4278    4.3765 C   0  0  0  0  0  0
   20.8005   17.7200    3.1584 N   0  0  1  0  0  0
   19.4370   17.9196    2.6897 C   0  0  0  0  0  0
   18.4951   17.6335    3.8112 C   0  0  0  0  0  0
   21.6861   18.0400    2.0743 C   0  0  0  0  0  0
    8.5718   13.4606    3.3047 H   0  0  0  0  0  0
    9.1035   11.3910    2.0622 H   0  0  0  0  0  0
   11.4345   10.6256    1.8700 H   0  0  0  0  0  0
   13.2228   11.8497    2.9032 H   0  0  0  0  0  0
   10.3603   14.8106    4.2572 H   0  0  0  0  0  0
   14.5246   13.1233    2.1375 H   0  0  0  0  0  0
   16.9147   12.8014    2.0035 H   0  0  0  0  0  0
   14.9679   15.5814    5.6796 H   0  0  0  0  0  0
   21.0020   14.5512    4.7475 H   0  0  0  0  0  0
   20.4410   15.4712    6.0827 H   0  0  0  0  0  0
   16.9492   15.7421    7.2040 H   0  0  0  0  0  0
   18.7213   15.7808    7.2358 H   0  0  0  0  0  0
   16.7609   17.6330    5.8869 H   0  0  0  0  0  0
   17.7659   18.1369    7.1964 H   0  0  0  0  0  0
   18.5645   19.1381    5.2038 H   0  0  0  0  0  0
   20.4567   18.9042    6.3818 H   0  0  0  0  0  0
   20.6356   17.2369    6.0174 H   0  0  0  0  0  0
   21.3639   19.4889    4.1795 H   0  0  0  0  0  0
   22.2146   18.0684    4.6298 H   0  0  0  0  0  0
   19.1239   18.8309    2.1760 H   0  0  0  0  0  0
   19.2908   17.1706    1.9065 H   0  0  0  0  0  0
   18.3242   16.5978    3.6497 H   0  0  0  0  0  0
   17.5660   18.0330    3.6030 H   0  0  0  0  0  0
   21.7663   19.1152    1.9138 H   0  0  0  0  0  0
   22.6322   17.6428    2.4036 H   0  0  0  0  0  0
   21.3643   17.5671    1.1432 H   0  0  0  0  0  0
  1  6  1  0  0  0
  1  2  2  0  0  0
  1 28  1  0  0  0
  2  3  1  0  0  0
  2 29  1  0  0  0
  3  4  2  0  0  0
  3 30  1  0  0  0
  4  5  1  0  0  0
  4 31  1  0  0  0
  5  7  1  0  0  0
  5  6  2  0  0  0
  6 32  1  0  0  0
  7  8  1  0  0  0
  7  9  2  0  0  0
  8 10  2  0  0  0
  8 12  1  0  0  0
 10 11  1  0  0  0
 10 33  1  0  0  0
 11 14  2  0  0  0
 11 34  1  0  0  0
 12 13  2  0  0  0
 12 35  1  0  0  0
 13 14  1  0  0  0
 13 17  1  0  0  0
 14 15  1  0  0  0
 15 16  2  0  0  0
 16 17  1  0  0  0
 16 18  1  0  0  0
 17 19  1  0  0  0
 18 36  1  0  0  0
 18 37  1  0  0  0
 19 20  1  0  0  0
 19 38  1  0  0  0
 19 39  1  0  0  0
 20 21  1  0  0  0
 20 40  1  0  0  0
 20 41  1  0  0  0
 21 22  1  0  0  0
 21 26  1  0  0  0
 21 42  1  0  0  0
 22 23  1  0  0  0
 22 43  1  0  0  0
 22 44  1  0  0  0
 23 24  1  0  0  0
 23 45  1  0  0  0
 23 46  1  0  0  0
 24 25  1  0  0  0
 24 27  1  0  0  0
 25 26  1  0  0  0
 25 47  1  0  0  0
 25 48  1  0  0  0
 26 49  1  0  0  0
 26 50  1  0  0  0
 27 51  1  0  0  0
 27 52  1  0  0  0
 27 53  1  0  0  0
M  END
> <s_m_entry_id>
6444

> <s_m_entry_name>
dock_pv.370

> <s_m_Source_Path>
/home/csk/Desktop/cluster/DUD-E-result/abl1

> <s_m_Source_File>
dock_pv.maegz

> <i_m_Source_File_Index>
370

> <chembl_id>
CHEMBL2059177

> <chembl_pref_name>
None

> <i_lp_mmshare_version>
53161

> <i_f3d_flags>
0

> <r_lp_tautomer_probability>
1

> <s_lp_Force_Field>
OPLS_2005

> <r_lp_Energy>
34.30356

> <b_lp_Chiralities_Consistent>
1

> <s_lp_Variant>
CHEMBL1862_lig632-1

> <s_i_glide_gridfile>
glide-grid_2hzi

> <i_i_glide_lignum>
740

> <i_i_glide_rotatable_bonds>
5

> <r_i_docking_score>
-6.99439640096727

> <r_i_glide_ligand_efficiency>
-0.259051718554343

> <r_i_glide_ligand_efficiency_sa>
-0.777155154809238

> <r_i_glide_ligand_efficiency_ln>
-1.62818017050842

> <r_i_glide_gscore>
-6.99439640096727

> <r_i_glide_lipo>
-4.21695129665248

> <r_i_glide_hbond>
0

> <r_i_glide_metal>
0

> <r_i_glide_rewards>
-2.64477404514544

> <r_i_glide_evdw>
-16.8900241851807

> <r_i_glide_ecoul>
-0.126309797167778

> <r_i_glide_erotb>
0.73077661966485

> <r_i_glide_esite>
0

> <r_i_glide_emodel>
-52.2266152700744

> <r_i_glide_energy>
-17.0163339823484

> <r_i_glide_einternal>
10.7197484970093

> <i_i_glide_confnum>
116

> <i_i_glide_posenum>
124

> <r_i_glide_eff_state_penalty>
0

> <s_user_duplicate_titles>
CHEMBL1862_lig632

> <s_m_subgroup_title>
dock_pv

> <s_m_subgroupid>
dock_pv

> <b_m_subgroup_collapsed>
0

$$$$
CHEMBL1862_lig823
                    3D
 Schrodinger Suite 2021-1.
 43 47  0  0  1  0            999 V2000
    9.6159   13.3606    3.2269 C   0  0  0  0  0  0
   11.8069   11.8212    2.3244 C   0  0  0  0  0  0
   12.0437   12.8993    3.2021 C   0  0  0  0  0  0
   10.9225   13.6492    3.6904 C   0  0  0  0  0  0
   11.0673   14.7165    4.5047 N   0  0  0  0  0  0
   12.3308   15.0475    4.8004 C   0  0  0  0  0  0
   13.4620   14.4375    4.4131 N   0  0  0  0  0  0
   13.3267   13.3889    3.6010 C   0  0  0  0  0  0
   14.5191   12.8362    3.0934 N   0  0  0  0  0  0
   15.8648   13.2322    3.2038 C   0  0  0  0  0  0
   16.3241   14.5143    3.5959 C   0  0  0  0  0  0
   17.6851   14.8147    3.7091 C   0  0  0  0  0  0
   18.5800   13.8176    3.3753 C   0  0  0  0  0  0
   18.1602   12.5488    3.0205 C   0  0  0  0  0  0
   16.8094   12.2634    2.9228 C   0  0  0  0  0  0
   18.2147   16.0964    4.2569 C   0  0  0  0  0  0
   19.3895   16.6965    3.7764 C   0  0  0  0  0  0
   19.9168   17.8044    4.4424 C   0  0  0  0  0  0
   19.2747   18.2957    5.5786 C   0  0  0  0  0  0
   18.1273   17.6364    5.9980 C   0  0  0  0  0  0
   17.5813   16.5749    5.3568 N   0  0  0  0  0  0
    9.4495   12.4087    2.2415 C   0  0  0  0  0  0
   10.5280   11.6124    1.8323 C   0  0  0  0  0  0
   10.3955   10.6990    0.8125 O   0  0  0  0  0  0
    9.0530   10.4443    0.4013 C   0  0  0  0  0  0
    8.2806   11.7665    0.3145 C   0  0  0  0  0  0
    8.2091   12.3178    1.6404 O   0  0  0  0  0  0
    8.7784   13.9616    3.5553 H   0  0  0  0  0  0
   12.6097   11.2338    1.9205 H   0  0  0  0  0  0
   12.4866   16.0324    5.2026 H   0  0  0  0  0  0
   14.3623   11.9641    2.5972 H   0  0  0  0  0  0
   15.6413   15.3161    3.8324 H   0  0  0  0  0  0
   19.6341   14.0331    3.4317 H   0  0  0  0  0  0
   18.8938   11.7765    2.8222 H   0  0  0  0  0  0
   16.4961   11.2499    2.7356 H   0  0  0  0  0  0
   19.9148   16.2959    2.9148 H   0  0  0  0  0  0
   20.8225   18.2785    4.0979 H   0  0  0  0  0  0
   19.6564   19.1472    6.1170 H   0  0  0  0  0  0
   17.5915   17.9830    6.8739 H   0  0  0  0  0  0
    8.5915    9.7821    1.1291 H   0  0  0  0  0  0
    9.0761    9.9195   -0.5537 H   0  0  0  0  0  0
    7.3020   11.5925   -0.1058 H   0  0  0  0  0  0
    8.8329   12.4361   -0.3313 H   0  0  0  0  0  0
  1 22  1  0  0  0
  1  4  2  0  0  0
  1 28  1  0  0  0
  2  3  2  0  0  0
  2 23  1  0  0  0
  2 29  1  0  0  0
  3  4  1  0  0  0
  3  8  1  0  0  0
  4  5  1  0  0  0
  5  6  2  0  0  0
  6  7  1  0  0  0
  6 30  1  0  0  0
  7  8  2  0  0  0
  8  9  1  0  0  0
  9 10  1  0  0  0
  9 31  1  0  0  0
 10 11  2  0  0  0
 10 15  1  0  0  0
 11 12  1  0  0  0
 11 32  1  0  0  0
 12 13  2  0  0  0
 12 16  1  0  0  0
 13 14  1  0  0  0
 13 33  1  0  0  0
 14 15  2  0  0  0
 14 34  1  0  0  0
 15 35  1  0  0  0
 16 17  2  0  0  0
 16 21  1  0  0  0
 17 18  1  0  0  0
 17 36  1  0  0  0
 18 19  2  0  0  0
 18 37  1  0  0  0
 19 20  1  0  0  0
 19 38  1  0  0  0
 20 21  2  0  0  0
 20 39  1  0  0  0
 22 23  2  0  0  0
 22 27  1  0  0  0
 23 24  1  0  0  0
 24 25  1  0  0  0
 25 26  1  0  0  0
 25 40  1  0  0  0
 25 41  1  0  0  0
 26 27  1  0  0  0
 26 42  1  0  0  0
 26 43  1  0  0  0
M  END
> <s_m_entry_id>
6445

> <s_m_entry_name>
dock_pv.371

> <s_m_Source_Path>
/home/csk/Desktop/cluster/DUD-E-result/abl1

> <s_m_Source_File>
dock_pv.maegz

> <i_m_Source_File_Index>
371

> <chembl_id>
CHEMBL3297956

> <chembl_pref_name>
None

> <i_lp_mmshare_version>
53161

> <i_f3d_flags>
0

> <r_lp_tautomer_probability>
0.999978000241998

> <s_lp_Force_Field>
OPLS_2005

> <r_lp_Energy>
22.995048

> <b_lp_Chiralities_Consistent>
1

> <s_lp_Variant>
CHEMBL1862_lig823-1

> <s_i_glide_gridfile>
glide-grid_2hzi

> <i_i_glide_lignum>
961

> <i_i_glide_rotatable_bonds>
3

> <r_i_docking_score>
-6.95339630862182

> <r_i_glide_ligand_efficiency>
-0.257533196615623

> <r_i_glide_ligand_efficiency_sa>
-0.772599588998081

> <r_i_glide_ligand_efficiency_ln>
-1.61863602494974

> <r_i_glide_gscore>
-6.95339630862182

> <r_i_glide_lipo>
-3.87469426877444

> <r_i_glide_hbond>
0

> <r_i_glide_metal>
0

> <r_i_glide_rewards>
-1.61625927842732

> <r_i_glide_evdw>
-32.966495513916

> <r_i_glide_ecoul>
-1.77352845668793

> <r_i_glide_erotb>
0.451911282778932

> <r_i_glide_esite>
0

> <r_i_glide_emodel>
-45.7859879680637

> <r_i_glide_energy>
-34.7400239706039

> <r_i_glide_einternal>
4.7372841835022

> <i_i_glide_confnum>
4

> <i_i_glide_posenum>
21

> <r_i_glide_eff_state_penalty>
0

> <s_user_duplicate_titles>
CHEMBL1862_lig823

> <s_m_subgroup_title>
dock_pv

> <s_m_subgroupid>
dock_pv

> <b_m_subgroup_collapsed>
0

$$$$
CHEMBL1862_lig172
                    3D
 Schrodinger Suite 2021-1.
 37 40  0  0  1  0            999 V2000
   14.1273   13.2432    3.4447 C   0  0  0  0  0  0
   15.5513   13.3868    3.4495 C   0  0  0  0  0  0
   16.5792   14.1669    4.0018 C   0  0  0  0  0  0
   13.8973   12.2267    2.5644 N   0  0  0  0  0  0
   14.9691   11.6906    2.0019 N   0  0  0  0  0  0
   15.9900   12.3415    2.5972 C   0  0  0  0  0  0
   17.8874   13.8447    3.8227 N   0  0  0  0  0  0
   13.1475   13.8507    4.1850 N   0  0  0  0  0  0
   16.2992   15.3119    4.7257 N   0  0  0  0  0  0
   17.2690   12.0333    2.4030 N   0  0  0  0  0  0
   18.1647   12.7970    3.0380 C   0  0  0  0  0  0
   11.7602   13.5907    4.1864 C   0  0  0  0  0  0
   17.2111   16.3193    5.0387 C   0  0  0  0  0  0
   11.0591   14.0321    5.3002 C   0  0  0  0  0  0
   18.3034   16.6572    4.2152 C   0  0  0  0  0  0
   19.1675   17.6822    4.5744 C   0  0  0  0  0  0
    9.6836   13.8654    5.4237 C   0  0  0  0  0  0
    8.8754   14.4220    6.8412 Cl  0  0  0  0  0  0
   20.7262   18.0322    3.5397 Br  0  0  0  0  0  0
    9.6584   12.7294    3.2993 C   0  0  0  0  0  0
   17.7729   18.1102    6.4869 C   0  0  0  0  0  0
   16.9639   17.0352    6.1876 C   0  0  0  0  0  0
   11.0429   12.8822    3.2030 C   0  0  0  0  0  0
    8.9777   13.2324    4.4067 C   0  0  0  0  0  0
   18.8864   18.4326    5.7045 C   0  0  0  0  0  0
   12.9821   11.8506    2.3669 H   0  0  0  0  0  0
   13.4221   14.4407    4.9527 H   0  0  0  0  0  0
   15.3485   15.4396    5.0209 H   0  0  0  0  0  0
   19.2027   12.5815    2.8235 H   0  0  0  0  0  0
   11.6201   14.4328    6.1160 H   0  0  0  0  0  0
   18.5042   16.1344    3.2927 H   0  0  0  0  0  0
    9.1202   12.1994    2.5279 H   0  0  0  0  0  0
   17.6480   18.6615    7.4060 H   0  0  0  0  0  0
   16.1449   16.7774    6.8426 H   0  0  0  0  0  0
   11.5014   12.4629    2.3269 H   0  0  0  0  0  0
    7.9153   13.0864    4.4946 H   0  0  0  0  0  0
   19.5449   19.2313    6.0099 H   0  0  0  0  0  0
  1  2  2  0  0  0
  1  4  1  0  0  0
  1  8  1  0  0  0
  2  3  1  0  0  0
  2  6  1  0  0  0
  3  7  2  0  0  0
  3  9  1  0  0  0
  4  5  1  0  0  0
  4 26  1  0  0  0
  5  6  2  0  0  0
  6 10  1  0  0  0
  7 11  1  0  0  0
  8 12  1  0  0  0
  8 27  1  0  0  0
  9 13  1  0  0  0
  9 28  1  0  0  0
 10 11  2  0  0  0
 11 29  1  0  0  0
 12 14  2  0  0  0
 12 23  1  0  0  0
 13 15  2  0  0  0
 13 22  1  0  0  0
 14 17  1  0  0  0
 14 30  1  0  0  0
 15 16  1  0  0  0
 15 31  1  0  0  0
 16 19  1  0  0  0
 16 25  2  0  0  0
 17 18  1  0  0  0
 17 24  2  0  0  0
 20 23  2  0  0  0
 20 24  1  0  0  0
 20 32  1  0  0  0
 21 22  2  0  0  0
 21 25  1  0  0  0
 21 33  1  0  0  0
 22 34  1  0  0  0
 23 35  1  0  0  0
 24 36  1  0  0  0
 25 37  1  0  0  0
M  END
> <s_m_entry_id>
6446

> <s_m_entry_name>
dock_pv.372

> <s_m_Source_Path>
/home/csk/Desktop/cluster/DUD-E-result/abl1

> <s_m_Source_File>
dock_pv.maegz

> <i_m_Source_File_Index>
372

> <chembl_id>
CHEMBL120319

> <chembl_pref_name>
None

> <i_lp_mmshare_version>
53161

> <i_f3d_flags>
0

> <r_lp_tautomer_probability>
1

> <s_lp_Force_Field>
OPLS_2005

> <r_lp_Energy>
32.569022

> <b_lp_Chiralities_Consistent>
1

> <s_lp_Variant>
CHEMBL1862_lig172-1

> <s_i_glide_gridfile>
glide-grid_2hzi

> <i_i_glide_lignum>
191

> <i_i_glide_rotatable_bonds>
4

> <r_i_docking_score>
-6.95117969752999

> <r_i_glide_ligand_efficiency>
-0.2780471879012

> <r_i_glide_ligand_efficiency_sa>
-0.813014908610982

> <r_i_glide_ligand_efficiency_ln>
-1.64763789836055

> <r_i_glide_gscore>
-6.95117969752999

> <r_i_glide_lipo>
-3.161260973244

> <r_i_glide_hbond>
-0.545547274932023

> <r_i_glide_metal>
0

> <r_i_glide_rewards>
-2.20236232958847

> <r_i_glide_evdw>
-19.0822315216064

> <r_i_glide_ecoul>
-3.63392472267151

> <r_i_glide_erotb>
0.457191164715547

> <r_i_glide_esite>
0

> <r_i_glide_emodel>
-32.1301320367935

> <r_i_glide_energy>
-22.716156244278

> <r_i_glide_einternal>
8.0500602722168

> <i_i_glide_confnum>
23

> <i_i_glide_posenum>
204

> <r_i_glide_eff_state_penalty>
0

> <s_user_duplicate_titles>
CHEMBL1862_lig172

> <s_m_subgroup_title>
dock_pv

> <s_m_subgroupid>
dock_pv

> <b_m_subgroup_collapsed>
0

$$$$
CHEMBL1862_lig743
                    3D
 Schrodinger Suite 2021-1.
 42 44  0  0  1  0            999 V2000
   17.7282   14.9822    4.4032 C   0  0  0  0  0  0
   18.1274   13.9269    3.5732 C   0  0  0  0  0  0
   17.2000   13.0802    2.9605 C   0  0  0  0  0  0
   16.3786   15.2330    4.6625 C   0  0  0  0  0  0
   15.4537   14.3777    4.0583 C   0  0  0  0  0  0
   15.8382   13.3055    3.2093 C   0  0  0  0  0  0
   14.7436   12.6064    2.7696 N   0  0  0  0  0  0
   13.7185   13.2068    3.3243 C   0  0  0  0  0  0
   14.0849   14.2833    4.1024 N   0  0  0  0  0  0
   12.4129   12.7859    3.1398 N   0  0  0  0  0  0
   11.2954   13.3929    3.6030 C   0  0  0  0  0  0
   10.1301   12.8483    3.2049 N   0  0  0  0  0  0
   11.2900   14.3909    4.3259 O   0  0  0  0  0  0
    9.8977   11.5982    2.4794 C   0  0  0  0  0  0
    9.9676   11.7455    0.9567 C   0  0  0  0  0  0
   18.6639   15.7826    5.0168 O   0  0  0  0  0  0
   19.5789   16.4997    4.2738 C   0  0  0  0  0  0
   20.7623   16.8957    4.9020 C   0  0  0  0  0  0
   21.7206   17.6631    4.2188 C   0  0  0  0  0  0
   21.4627   18.0330    2.8986 C   0  0  0  0  0  0
   20.2960   17.6326    2.2536 C   0  0  0  0  0  0
   19.3533   16.8787    2.9429 C   0  0  0  0  0  0
   22.9220   18.0823    4.7540 O   0  0  0  0  0  0
   23.2809   17.6733    6.0684 C   0  0  0  0  0  0
   19.1807   13.7723    3.3900 H   0  0  0  0  0  0
   17.5309   12.2730    2.3234 H   0  0  0  0  0  0
   16.0779   16.0368    5.3169 H   0  0  0  0  0  0
   13.4069   14.8442    4.6010 H   0  0  0  0  0  0
   12.2960   11.9692    2.5586 H   0  0  0  0  0  0
    9.2962   13.3190    3.5235 H   0  0  0  0  0  0
    8.9080   11.2330    2.7602 H   0  0  0  0  0  0
   10.6023   10.8332    2.8027 H   0  0  0  0  0  0
    9.7392   10.7953    0.4720 H   0  0  0  0  0  0
   10.9670   12.0330    0.6383 H   0  0  0  0  0  0
    9.2572   12.4857    0.5885 H   0  0  0  0  0  0
   20.9212   16.5945    5.9253 H   0  0  0  0  0  0
   22.1796   18.6310    2.3574 H   0  0  0  0  0  0
   20.1202   17.9146    1.2256 H   0  0  0  0  0  0
   18.4445   16.5924    2.4386 H   0  0  0  0  0  0
   24.2479   18.1017    6.3308 H   0  0  0  0  0  0
   22.5640   18.0289    6.8029 H   0  0  0  0  0  0
   23.3629   16.5879    6.1474 H   0  0  0  0  0  0
  1  2  2  0  0  0
  1  4  1  0  0  0
  1 16  1  0  0  0
  2  3  1  0  0  0
  2 25  1  0  0  0
  3  6  2  0  0  0
  3 26  1  0  0  0
  4  5  2  0  0  0
  4 27  1  0  0  0
  5  6  1  0  0  0
  5  9  1  0  0  0
  6  7  1  0  0  0
  7  8  2  0  0  0
  8  9  1  0  0  0
  8 10  1  0  0  0
  9 28  1  0  0  0
 10 11  1  0  0  0
 10 29  1  0  0  0
 11 12  1  0  0  0
 11 13  2  0  0  0
 12 14  1  0  0  0
 12 30  1  0  0  0
 14 15  1  0  0  0
 14 31  1  0  0  0
 14 32  1  0  0  0
 15 33  1  0  0  0
 15 34  1  0  0  0
 15 35  1  0  0  0
 16 17  1  0  0  0
 17 18  2  0  0  0
 17 22  1  0  0  0
 18 19  1  0  0  0
 18 36  1  0  0  0
 19 20  2  0  0  0
 19 23  1  0  0  0
 20 21  1  0  0  0
 20 37  1  0  0  0
 21 22  2  0  0  0
 21 38  1  0  0  0
 22 39  1  0  0  0
 23 24  1  0  0  0
 24 40  1  0  0  0
 24 41  1  0  0  0
 24 42  1  0  0  0
M  END
> <s_m_entry_id>
6447

> <s_m_entry_name>
dock_pv.373

> <s_m_Source_Path>
/home/csk/Desktop/cluster/DUD-E-result/abl1

> <s_m_Source_File>
dock_pv.maegz

> <i_m_Source_File_Index>
373

> <chembl_id>
CHEMBL2347706

> <chembl_pref_name>
None

> <i_lp_mmshare_version>
53161

> <i_f3d_flags>
0

> <r_lp_tautomer_probability>
1

> <s_lp_Force_Field>
OPLS_2005

> <r_lp_Energy>
18.485558

> <b_lp_Chiralities_Consistent>
1

> <s_lp_Variant>
CHEMBL1862_lig743-1

> <s_i_glide_gridfile>
glide-grid_2hzi

> <i_i_glide_lignum>
876

> <i_i_glide_rotatable_bonds>
7

> <r_i_docking_score>
-6.93798434951536

> <r_i_glide_ligand_efficiency>
-0.289082681229807

> <r_i_glide_ligand_efficiency_sa>
-0.833858744690655

> <r_i_glide_ligand_efficiency_ln>
-1.66057801819599

> <r_i_glide_gscore>
-6.93798434951536

> <r_i_glide_lipo>
-3.7252970537707

> <r_i_glide_hbond>
0

> <r_i_glide_metal>
0

> <r_i_glide_rewards>
-1.2713451691902

> <r_i_glide_evdw>
-47.3215522766113

> <r_i_glide_ecoul>
-3.03785252571106

> <r_i_glide_erotb>
0.88041336613276

> <r_i_glide_esite>
0

> <r_i_glide_emodel>
-64.7244950179034

> <r_i_glide_energy>
-50.3594048023224

> <r_i_glide_einternal>
8.056321144104

> <i_i_glide_confnum>
8

> <i_i_glide_posenum>
268

> <r_i_glide_eff_state_penalty>
0

> <s_user_duplicate_titles>
CHEMBL1862_lig743

> <s_m_subgroup_title>
dock_pv

> <s_m_subgroupid>
dock_pv

> <b_m_subgroup_collapsed>
0

$$$$
CHEMBL1862_lig173
                    3D
 Schrodinger Suite 2021-1.
 37 40  0  0  1  0            999 V2000
   16.7845   14.6282    4.2244 C   0  0  0  0  0  0
   15.7399   13.8026    3.7059 C   0  0  0  0  0  0
   14.3399   13.5864    3.8111 C   0  0  0  0  0  0
   17.9460   14.1152    3.6992 N   0  0  0  0  0  0
   17.8037   13.1038    2.8390 N   0  0  0  0  0  0
   16.4516   12.9437    2.8029 C   0  0  0  0  0  0
   13.7333   12.7123    2.9687 N   0  0  0  0  0  0
   16.7313   15.6607    5.1234 N   0  0  0  0  0  0
   15.8521   12.0687    2.0032 N   0  0  0  0  0  0
   13.5334   14.1705    4.8030 N   0  0  0  0  0  0
   14.5090   12.0331    2.1035 C   0  0  0  0  0  0
   17.6643   16.6914    5.3545 C   0  0  0  0  0  0
   17.3674   17.5539    6.4029 C   0  0  0  0  0  0
   12.1586   13.9407    5.0345 C   0  0  0  0  0  0
   18.1640   18.6756    6.6758 C   0  0  0  0  0  0
   17.7657   19.7194    8.0028 Cl  0  0  0  0  0  0
   19.6899   17.9779    4.9483 C   0  0  0  0  0  0
   18.8273   16.9316    4.6025 C   0  0  0  0  0  0
   19.3628   18.8330    6.0027 C   0  0  0  0  0  0
   11.6999   13.6330    6.3173 C   0  0  0  0  0  0
   11.2298   14.0330    3.9967 C   0  0  0  0  0  0
    9.8671   13.8778    4.2338 C   0  0  0  0  0  0
   10.3349   13.5093    6.5725 C   0  0  0  0  0  0
    9.4238   13.6330    5.5291 C   0  0  0  0  0  0
   18.8610   14.4665    3.9363 H   0  0  0  0  0  0
   15.8931   15.7807    5.6706 H   0  0  0  0  0  0
   14.0400   14.5974    5.5605 H   0  0  0  0  0  0
   14.0010   11.3804    1.4103 H   0  0  0  0  0  0
   16.5155   17.3271    7.0236 H   0  0  0  0  0  0
   20.6155   18.1156    4.4080 H   0  0  0  0  0  0
   19.0959   16.3220    3.7558 H   0  0  0  0  0  0
   20.0450   19.5820    6.3824 H   0  0  0  0  0  0
   12.3880   13.5686    7.1443 H   0  0  0  0  0  0
   11.5725   14.2432    2.9991 H   0  0  0  0  0  0
    9.1604   13.9546    3.4208 H   0  0  0  0  0  0
    9.9856   13.3181    7.5769 H   0  0  0  0  0  0
    8.3682   13.5227    5.7264 H   0  0  0  0  0  0
  1  2  2  0  0  0
  1  4  1  0  0  0
  1  8  1  0  0  0
  2  3  1  0  0  0
  2  6  1  0  0  0
  3  7  2  0  0  0
  3 10  1  0  0  0
  4  5  1  0  0  0
  4 25  1  0  0  0
  5  6  2  0  0  0
  6  9  1  0  0  0
  7 11  1  0  0  0
  8 12  1  0  0  0
  8 26  1  0  0  0
  9 11  2  0  0  0
 10 14  1  0  0  0
 10 27  1  0  0  0
 11 28  1  0  0  0
 12 13  2  0  0  0
 12 18  1  0  0  0
 13 15  1  0  0  0
 13 29  1  0  0  0
 14 20  2  0  0  0
 14 21  1  0  0  0
 15 16  1  0  0  0
 15 19  2  0  0  0
 17 18  2  0  0  0
 17 19  1  0  0  0
 17 30  1  0  0  0
 18 31  1  0  0  0
 19 32  1  0  0  0
 20 23  1  0  0  0
 20 33  1  0  0  0
 21 22  2  0  0  0
 21 34  1  0  0  0
 22 24  1  0  0  0
 22 35  1  0  0  0
 23 24  2  0  0  0
 23 36  1  0  0  0
 24 37  1  0  0  0
M  END
> <s_m_entry_id>
6448

> <s_m_entry_name>
dock_pv.374

> <s_m_Source_Path>
/home/csk/Desktop/cluster/DUD-E-result/abl1

> <s_m_Source_File>
dock_pv.maegz

> <i_m_Source_File_Index>
374

> <chembl_id>
CHEMBL121260

> <chembl_pref_name>
None

> <i_lp_mmshare_version>
53161

> <i_f3d_flags>
0

> <r_lp_tautomer_probability>
1

> <s_lp_Force_Field>
OPLS_2005

> <r_lp_Energy>
33.490315

> <b_lp_Chiralities_Consistent>
1

> <s_lp_Variant>
CHEMBL1862_lig173-1

> <s_i_glide_gridfile>
glide-grid_2hzi

> <i_i_glide_lignum>
192

> <i_i_glide_rotatable_bonds>
4

> <r_i_docking_score>
-6.93550517347876

> <r_i_glide_ligand_efficiency>
-0.288979382228282

> <r_i_glide_ligand_efficiency_sa>
-0.833560778809845

> <r_i_glide_ligand_efficiency_ln>
-1.65998463760846

> <r_i_glide_gscore>
-6.93550517347876

> <r_i_glide_lipo>
-3.53765289785465

> <r_i_glide_hbond>
-0.32

> <r_i_glide_metal>
0

> <r_i_glide_rewards>
-2.67905937041328

> <r_i_glide_evdw>
-12.9074001312256

> <r_i_glide_ecoul>
-2.79765915870667

> <r_i_glide_erotb>
0.666225975156454

> <r_i_glide_esite>
0

> <r_i_glide_emodel>
-23.5065649629941

> <r_i_glide_energy>
-15.7050592899323

> <r_i_glide_einternal>
5.11651086807251

> <i_i_glide_confnum>
1

> <i_i_glide_posenum>
356

> <r_i_glide_eff_state_penalty>
0

> <s_user_duplicate_titles>
CHEMBL1862_lig173

> <s_m_subgroup_title>
dock_pv

> <s_m_subgroupid>
dock_pv

> <b_m_subgroup_collapsed>
0

$$$$
CHEMBL1862_lig754
                    3D
 Schrodinger Suite 2021-1.
 48 51  0  0  1  0            999 V2000
   17.9622   15.2542    4.8936 C   0  0  0  0  0  0
   18.0394   14.3875    3.7952 C   0  0  0  0  0  0
   16.9067   13.8430    3.2032 C   0  0  0  0  0  0
   16.7247   15.7005    5.3795 C   0  0  0  0  0  0
   15.5866   15.1206    4.8038 C   0  0  0  0  0  0
   15.6663   14.1851    3.7398 C   0  0  0  0  0  0
   14.4382   13.6989    3.4027 N   0  0  0  0  0  0
   13.6079   14.3049    4.2170 C   0  0  0  0  0  0
   14.2373   15.1878    5.0651 N   0  0  0  0  0  0
   12.2403   14.1318    4.3141 N   0  0  0  0  0  0
   11.4936   13.2359    3.6290 C   0  0  0  0  0  0
   10.1833   13.2375    3.9349 N   0  0  0  0  0  0
   11.9254   12.4353    2.8005 O   0  0  0  0  0  0
    9.4818   14.0540    4.9289 C   0  0  0  0  0  0
    9.7114   13.5980    6.3812 C   0  0  0  0  0  0
   19.2205   15.5132    5.6243 C   0  0  0  0  0  0
   19.9314   16.7264    5.6614 C   0  0  0  0  0  0
   21.2131   16.7893    6.2193 C   0  0  0  0  0  0
   21.7640   15.6678    6.7818 C   0  0  0  0  0  0
   21.0462   14.4920    6.8030 C   0  0  0  0  0  0
   19.7912   14.4125    6.2424 C   0  0  0  0  0  0
   19.4546   17.8805    5.1394 O   0  0  0  0  0  0
   19.8677   17.9689    3.8621 C   0  0  0  0  0  0
   21.1933   18.2438    3.5353 C   0  0  0  0  0  0
   21.5663   18.0597    2.2223 C   0  0  0  0  0  0
   20.6548   17.6331    1.2644 C   0  0  0  0  0  0
   19.3428   17.4379    1.6033 C   0  0  0  0  0  0
   18.9639   17.5640    2.9116 C   0  0  0  0  0  0
   19.0095   14.0746    3.4317 H   0  0  0  0  0  0
   16.9910   13.1332    2.3957 H   0  0  0  0  0  0
   16.6603   16.3605    6.2324 H   0  0  0  0  0  0
   13.7604   15.7272    5.7726 H   0  0  0  0  0  0
   11.7579   14.7092    4.9823 H   0  0  0  0  0  0
    9.6158   12.5669    3.4353 H   0  0  0  0  0  0
    8.4171   13.9983    4.7058 H   0  0  0  0  0  0
    9.7560   15.1008    4.8046 H   0  0  0  0  0  0
    9.1917   14.2568    7.0776 H   0  0  0  0  0  0
   10.7661   13.6039    6.6575 H   0  0  0  0  0  0
    9.3165   12.5949    6.5436 H   0  0  0  0  0  0
   21.7681   17.7135    6.2424 H   0  0  0  0  0  0
   22.7549   15.7147    7.2036 H   0  0  0  0  0  0
   21.5058   13.6329    7.2272 H   0  0  0  0  0  0
   19.3013   13.4524    6.2224 H   0  0  0  0  0  0
   21.9144   18.5714    4.2668 H   0  0  0  0  0  0
   22.5639   18.2954    1.9250 H   0  0  0  0  0  0
   20.9527   17.5227    0.2348 H   0  0  0  0  0  0
   18.6105   17.2330    0.8424 H   0  0  0  0  0  0
   17.9601   17.3135    3.2081 H   0  0  0  0  0  0
  1  2  2  0  0  0
  1  4  1  0  0  0
  1 16  1  0  0  0
  2  3  1  0  0  0
  2 29  1  0  0  0
  3  6  2  0  0  0
  3 30  1  0  0  0
  4  5  2  0  0  0
  4 31  1  0  0  0
  5  6  1  0  0  0
  5  9  1  0  0  0
  6  7  1  0  0  0
  7  8  2  0  0  0
  8  9  1  0  0  0
  8 10  1  0  0  0
  9 32  1  0  0  0
 10 11  1  0  0  0
 10 33  1  0  0  0
 11 12  1  0  0  0
 11 13  2  0  0  0
 12 14  1  0  0  0
 12 34  1  0  0  0
 14 15  1  0  0  0
 14 35  1  0  0  0
 14 36  1  0  0  0
 15 37  1  0  0  0
 15 38  1  0  0  0
 15 39  1  0  0  0
 16 17  2  0  0  0
 16 21  1  0  0  0
 17 18  1  0  0  0
 17 22  1  0  0  0
 18 19  2  0  0  0
 18 40  1  0  0  0
 19 20  1  0  0  0
 19 41  1  0  0  0
 20 21  2  0  0  0
 20 42  1  0  0  0
 21 43  1  0  0  0
 22 23  1  0  0  0
 23 24  2  0  0  0
 23 28  1  0  0  0
 24 25  1  0  0  0
 24 44  1  0  0  0
 25 26  2  0  0  0
 25 45  1  0  0  0
 26 27  1  0  0  0
 26 46  1  0  0  0
 27 28  2  0  0  0
 27 47  1  0  0  0
 28 48  1  0  0  0
M  END
> <s_m_entry_id>
6449

> <s_m_entry_name>
dock_pv.375

> <s_m_Source_Path>
/home/csk/Desktop/cluster/DUD-E-result/abl1

> <s_m_Source_File>
dock_pv.maegz

> <i_m_Source_File_Index>
375

> <chembl_id>
CHEMBL2347743

> <chembl_pref_name>
None

> <i_lp_mmshare_version>
53161

> <i_f3d_flags>
0

> <r_lp_tautomer_probability>
1

> <s_lp_Force_Field>
OPLS_2005

> <r_lp_Energy>
21.866408

> <b_lp_Chiralities_Consistent>
1

> <s_lp_Variant>
CHEMBL1862_lig754-1

> <s_i_glide_gridfile>
glide-grid_2hzi

> <i_i_glide_lignum>
887

> <i_i_glide_rotatable_bonds>
7

> <r_i_docking_score>
-6.89840541230924

> <r_i_glide_ligand_efficiency>
-0.246371621868187

> <r_i_glide_ligand_efficiency_sa>
-0.748129349117085

> <r_i_glide_ligand_efficiency_ln>
-1.59235451514505

> <r_i_glide_gscore>
-6.89840541230924

> <r_i_glide_lipo>
-4.97513212704352

> <r_i_glide_hbond>
0

> <r_i_glide_metal>
0

> <r_i_glide_rewards>
-1.63022211340772

> <r_i_glide_evdw>
-24.6205997467041

> <r_i_glide_ecoul>
0.683063507080078

> <r_i_glide_erotb>
0.835519289415182

> <r_i_glide_esite>
0

> <r_i_glide_emodel>
-52.0580175159494

> <r_i_glide_energy>
-23.937536239624

> <r_i_glide_einternal>
8.34759044647217

> <i_i_glide_confnum>
41

> <i_i_glide_posenum>
190

> <r_i_glide_eff_state_penalty>
0

> <s_user_duplicate_titles>
CHEMBL1862_lig754

> <s_m_subgroup_title>
dock_pv

> <s_m_subgroupid>
dock_pv

> <b_m_subgroup_collapsed>
0

$$$$
CHEMBL1862_lig811
                    3D
 Schrodinger Suite 2021-1.
 47 50  0  0  1  0            999 V2000
   20.4798   15.6354    5.4381 S   0  0  0  0  0  0
   20.7500   15.3787    6.8581 O   0  0  0  0  0  0
   21.1548   14.8486    4.4088 O   0  0  0  0  0  0
   13.4395   12.3939    2.5986 N   0  0  0  0  0  0
   14.2611   13.2479    3.2281 N   0  0  0  0  0  0
   13.7378   14.2047    4.0488 C   0  0  0  0  0  0
   12.4160   14.3561    4.3380 N   0  0  0  0  0  0
   11.6091   13.4938    3.7125 C   0  0  0  0  0  0
   12.1338   12.5158    2.8435 C   0  0  0  0  0  0
    9.8904   12.2990    2.8996 N   0  0  0  0  0  0
   11.0405   11.8155    2.3788 N   0  0  0  0  0  0
   10.1988   13.2854    3.7112 C   0  0  0  0  0  0
   14.5811   15.1150    4.6872 N   0  0  0  0  0  0
   15.9733   15.2316    4.7725 C   0  0  0  0  0  0
   16.4542   16.0529    5.7863 C   0  0  0  0  0  0
   17.8213   16.1784    5.9988 C   0  0  0  0  0  0
   18.7162   15.4831    5.1824 C   0  0  0  0  0  0
   18.2419   14.6834    4.1427 C   0  0  0  0  0  0
   16.8732   14.5600    3.9354 C   0  0  0  0  0  0
   20.8325   17.3188    5.0821 N   0  0  0  0  0  0
   21.6565   18.1515    5.9662 C   0  0  0  0  0  0
   22.9275   18.6377    5.2483 C   0  0  0  0  0  0
   22.5433   19.3305    4.0133 N   0  0  0  0  0  0
   21.8284   18.4329    3.0969 C   0  0  0  0  0  0
   20.5350   17.9112    3.7647 C   0  0  0  0  0  0
    9.1413   14.0179    4.4932 C   0  0  0  0  0  0
   10.9852   10.6921    1.4708 C   0  0  0  0  0  0
   14.0811   15.7488    5.2897 H   0  0  0  0  0  0
   15.7665   16.5773    6.4288 H   0  0  0  0  0  0
   18.1621   16.8142    6.7940 H   0  0  0  0  0  0
   18.9300   14.1472    3.5034 H   0  0  0  0  0  0
   16.5498   13.9316    3.1236 H   0  0  0  0  0  0
   21.0445   18.9825    6.3086 H   0  0  0  0  0  0
   21.9635   17.5417    6.8108 H   0  0  0  0  0  0
   23.5379   17.7897    4.9301 H   0  0  0  0  0  0
   23.5512   19.2605    5.8859 H   0  0  0  0  0  0
   23.3719   19.6921    3.5597 H   0  0  0  0  0  0
   22.5359   17.6221    2.9427 H   0  0  0  0  0  0
   21.6667   18.8849    2.1205 H   0  0  0  0  0  0
   20.0909   17.1420    3.1327 H   0  0  0  0  0  0
   19.7955   18.6960    3.9065 H   0  0  0  0  0  0
    9.5782   14.8174    5.0901 H   0  0  0  0  0  0
    8.6184   13.3543    5.1815 H   0  0  0  0  0  0
    8.3988   14.4676    3.8379 H   0  0  0  0  0  0
   11.9840   10.4579    1.1049 H   0  0  0  0  0  0
   10.5930    9.8334    2.0001 H   0  0  0  0  0  0
   10.3388   10.9289    0.6246 H   0  0  0  0  0  0
  1  2  2  0  0  0
  1  3  2  0  0  0
  1 20  1  0  0  0
  1 17  1  0  0  0
  4  5  2  0  0  0
  4  9  1  0  0  0
  5  6  1  0  0  0
  6  7  2  0  0  0
  6 13  1  0  0  0
  7  8  1  0  0  0
  8  9  2  0  0  0
  8 12  1  0  0  0
  9 11  1  0  0  0
 10 11  1  0  0  0
 10 12  2  0  0  0
 11 27  1  0  0  0
 12 26  1  0  0  0
 13 14  1  0  0  0
 13 28  1  0  0  0
 14 15  1  0  0  0
 14 19  2  0  0  0
 15 16  2  0  0  0
 15 29  1  0  0  0
 16 17  1  0  0  0
 16 30  1  0  0  0
 17 18  2  0  0  0
 18 19  1  0  0  0
 18 31  1  0  0  0
 19 32  1  0  0  0
 20 21  1  0  0  0
 20 25  1  0  0  0
 21 22  1  0  0  0
 21 33  1  0  0  0
 21 34  1  0  0  0
 22 23  1  0  0  0
 22 35  1  0  0  0
 22 36  1  0  0  0
 23 24  1  0  0  0
 23 37  1  0  0  0
 24 25  1  0  0  0
 24 38  1  0  0  0
 24 39  1  0  0  0
 25 40  1  0  0  0
 25 41  1  0  0  0
 26 42  1  0  0  0
 26 43  1  0  0  0
 26 44  1  0  0  0
 27 45  1  0  0  0
 27 46  1  0  0  0
 27 47  1  0  0  0
M  END
> <s_m_entry_id>
6450

> <s_m_entry_name>
dock_pv.376

> <s_m_Source_Path>
/home/csk/Desktop/cluster/DUD-E-result/abl1

> <s_m_Source_File>
dock_pv.maegz

> <i_m_Source_File_Index>
376

> <chembl_id>
CHEMBL3237850

> <chembl_pref_name>
None

> <i_lp_mmshare_version>
53161

> <i_f3d_flags>
0

> <r_lp_tautomer_probability>
1

> <s_lp_Force_Field>
OPLS_2005

> <r_lp_Energy>
23.766085

> <b_lp_Chiralities_Consistent>
1

> <s_lp_Variant>
CHEMBL1862_lig811-1

> <s_i_glide_gridfile>
glide-grid_2hzi

> <i_i_glide_lignum>
947

> <i_i_glide_rotatable_bonds>
4

> <r_i_docking_score>
-6.86125183842599

> <r_i_glide_ligand_efficiency>
-0.254120438460222

> <r_i_glide_ligand_efficiency_sa>
-0.762361314543127

> <r_i_glide_ligand_efficiency_ln>
-1.59718631140847

> <r_i_glide_gscore>
-6.86125183842599

> <r_i_glide_lipo>
-3.12161259698039

> <r_i_glide_hbond>
0

> <r_i_glide_metal>
0

> <r_i_glide_rewards>
-1.74031799053616

> <r_i_glide_evdw>
-41.7553329467773

> <r_i_glide_ecoul>
-2.85372686386108

> <r_i_glide_erotb>
0.51650442600858

> <r_i_glide_esite>
0

> <r_i_glide_emodel>
-55.1483148766917

> <r_i_glide_energy>
-44.6090598106384

> <r_i_glide_einternal>
2.96981644630432

> <i_i_glide_confnum>
3

> <i_i_glide_posenum>
243

> <r_i_glide_eff_state_penalty>
0

> <s_user_duplicate_titles>
CHEMBL1862_lig811

> <s_m_subgroup_title>
dock_pv

> <s_m_subgroupid>
dock_pv

> <b_m_subgroup_collapsed>
0

$$$$
CHEMBL1862_lig348
                    3D
 Schrodinger Suite 2021-1.
 42 44  0  0  1  0            999 V2000
   11.9014   13.3849    4.5367 C   0  0  0  0  0  0
   12.4277   12.9207    3.3317 C   0  0  0  0  0  0
   13.7650   13.2271    3.0443 C   0  0  0  0  0  0
   12.6064   14.0499    5.4660 N   0  0  0  0  0  0
   13.8668   14.4348    5.1417 C   0  0  0  0  0  0
   14.5037   14.0680    3.9238 C   0  0  0  0  0  0
   15.8141   14.5705    3.6627 C   0  0  0  0  0  0
   16.4482   15.3899    4.6202 C   0  0  0  0  0  0
   15.8148   15.7169    5.7931 C   0  0  0  0  0  0
   14.5639   15.2326    6.0528 C   0  0  0  0  0  0
   17.6833   15.9690    4.5669 O   0  0  0  0  0  0
   18.6428   15.6309    3.6058 C   0  0  1  0  0  0
   19.9193   16.3519    4.0431 C   0  0  0  0  0  0
   18.8800   14.1315    3.4453 C   0  0  0  0  0  0
   20.5145   16.0936    5.3005 C   0  0  0  0  0  0
   21.6638   16.7814    5.6909 C   0  0  0  0  0  0
   22.2212   17.7389    4.8539 C   0  0  0  0  0  0
   21.6407   17.9835    3.6144 C   0  0  0  0  0  0
   20.5130   17.2918    3.1907 C   0  0  0  0  0  0
   19.8965   17.6312    1.6028 Cl  0  0  0  0  0  0
   22.1662   18.9094    2.8059 F   0  0  0  0  0  0
   19.8723   14.9382    6.4184 Cl  0  0  0  0  0  0
   11.5627   12.2263    2.3591 C   0  0  0  0  0  0
   10.2238   12.4320    2.2758 C   0  0  0  0  0  0
    9.3408   11.8661    1.2875 C   0  0  0  0  0  0
    9.6414   10.6642    0.8117 N   0  0  0  0  0  0
    8.3664   12.4827    0.8714 O   0  0  0  0  0  0
   10.8754   13.1964    4.8158 H   0  0  0  0  0  0
   14.2154   12.9036    2.1168 H   0  0  0  0  0  0
   16.2798   14.3319    2.7207 H   0  0  0  0  0  0
   16.3199   16.3170    6.5366 H   0  0  0  0  0  0
   14.1646   15.3686    7.0356 H   0  0  0  0  0  0
   18.2638   16.0350    2.6750 H   0  0  0  0  0  0
   18.3149   13.6825    2.6304 H   0  0  0  0  0  0
   19.9306   14.0412    3.2035 H   0  0  0  0  0  0
   18.6747   13.5660    4.3542 H   0  0  0  0  0  0
   22.1180   16.5802    6.6505 H   0  0  0  0  0  0
   23.1009   18.2868    5.1600 H   0  0  0  0  0  0
   12.0595   11.5411    1.6841 H   0  0  0  0  0  0
    9.7195   13.1141    2.9422 H   0  0  0  0  0  0
    9.0413   10.2524    0.1148 H   0  0  0  0  0  0
   10.3916   10.1149    1.2036 H   0  0  0  0  0  0
  1  4  2  0  0  0
  1  2  1  0  0  0
  1 28  1  0  0  0
  2  3  2  0  0  0
  2 23  1  0  0  0
  3  6  1  0  0  0
  3 29  1  0  0  0
  4  5  1  0  0  0
  5 10  2  0  0  0
  5  6  1  0  0  0
  6  7  2  0  0  0
  7  8  1  0  0  0
  7 30  1  0  0  0
  8  9  2  0  0  0
  8 11  1  0  0  0
  9 10  1  0  0  0
  9 31  1  0  0  0
 10 32  1  0  0  0
 11 12  1  0  0  0
 12 13  1  0  0  0
 12 14  1  0  0  0
 12 33  1  0  0  0
 13 15  2  0  0  0
 13 19  1  0  0  0
 14 34  1  0  0  0
 14 35  1  0  0  0
 14 36  1  0  0  0
 15 16  1  0  0  0
 15 22  1  0  0  0
 16 17  2  0  0  0
 16 37  1  0  0  0
 17 18  1  0  0  0
 17 38  1  0  0  0
 18 19  2  0  0  0
 18 21  1  0  0  0
 19 20  1  0  0  0
 23 24  2  0  0  0
 23 39  1  0  0  0
 24 25  1  0  0  0
 24 40  1  0  0  0
 25 26  1  0  0  0
 25 27  2  0  0  0
 26 41  1  0  0  0
 26 42  1  0  0  0
M  END
> <s_m_entry_id>
6451

> <s_m_entry_name>
dock_pv.377

> <s_m_Source_Path>
/home/csk/Desktop/cluster/DUD-E-result/abl1

> <s_m_Source_File>
dock_pv.maegz

> <i_m_Source_File_Index>
377

> <chembl_id>
CHEMBL602471

> <chembl_pref_name>
None

> <i_lp_mmshare_version>
53161

> <i_f3d_flags>
0

> <r_lp_tautomer_probability>
1

> <s_lp_Force_Field>
OPLS_2005

> <r_lp_Energy>
21.476103

> <b_lp_Chiralities_Consistent>
1

> <s_lp_Variant>
CHEMBL1862_lig348-1

> <s_i_glide_gridfile>
glide-grid_2hzi

> <i_i_glide_lignum>
428

> <i_i_glide_rotatable_bonds>
5

> <r_i_docking_score>
-6.85428063950005

> <r_i_glide_ligand_efficiency>
-0.253862245907409

> <r_i_glide_ligand_efficiency_sa>
-0.761586736885539

> <r_i_glide_ligand_efficiency_ln>
-1.59556353122771

> <r_i_glide_gscore>
-6.85428063950005

> <r_i_glide_lipo>
-5.06964726824292

> <r_i_glide_hbond>
-0.0670981114922799

> <r_i_glide_metal>
0

> <r_i_glide_rewards>
-0.0429410331460449

> <r_i_glide_evdw>
-27.494312286377

> <r_i_glide_ecoul>
-5.69963407516479

> <r_i_glide_erotb>
0.59828549706357

> <r_i_glide_esite>
-0.0432189980888092

> <r_i_glide_emodel>
-31.7510022647997

> <r_i_glide_energy>
-33.1939463615417

> <r_i_glide_einternal>
7.74744176864624

> <i_i_glide_confnum>
84

> <i_i_glide_posenum>
271

> <r_i_glide_eff_state_penalty>
0

> <s_user_duplicate_titles>
CHEMBL1862_lig348

> <s_m_subgroup_title>
dock_pv

> <s_m_subgroupid>
dock_pv

> <b_m_subgroup_collapsed>
0

$$$$
442196
                    3D
 Schrodinger Suite 2021-1.
 44 47  0  0  1  0            999 V2000
    9.5814   13.6322    5.8785 C   0  0  0  0  0  0
    9.3130   13.5861    4.5146 C   0  0  0  0  0  0
   10.3638   13.5215    3.6038 C   0  0  0  0  0  0
   11.6895   13.5235    4.0500 C   0  0  0  0  0  0
   11.9485   13.6328    5.4199 C   0  0  0  0  0  0
   10.8965   13.6330    6.3330 C   0  0  0  0  0  0
   12.8180   13.4310    3.0244 C   0  0  0  0  0  0
   13.8821   12.4913    3.3735 N   0  0  0  0  0  0
   15.2045   12.9530    3.3873 C   0  0  0  0  0  0
   15.6224   14.1417    4.0276 C   0  0  0  0  0  0
   15.0754   15.2169    4.7939 C   0  0  0  0  0  0
   16.0135   16.0330    5.2035 N   0  0  0  0  0  0
   17.1926   15.5900    4.7138 N   0  0  0  0  0  0
   17.0108   14.4229    3.9829 C   0  0  0  0  0  0
   17.9272   13.6671    3.3672 N   0  0  0  0  0  0
   17.4174   12.5357    2.8189 C   0  0  0  0  0  0
   16.1201   12.1345    2.8034 N   0  0  0  0  0  0
   18.3681   16.4550    4.8749 C   0  0  0  0  0  0
   19.7340   15.7202    4.9883 C   0  0  1  0  0  0
   20.9150   16.7037    5.0031 C   0  0  0  0  0  0
   21.8865   16.6911    6.0139 C   0  0  0  0  0  0
   22.9137   17.6305    6.0188 C   0  0  0  0  0  0
   22.9689   18.5919    5.0216 C   0  0  0  0  0  0
   22.0506   18.5842    3.9807 C   0  0  0  0  0  0
   21.0330   17.6372    3.9638 C   0  0  0  0  0  0
   19.6952   14.6131    6.4007 Cl  0  0  0  0  0  0
    8.7661   13.6476    6.5881 H   0  0  0  0  0  0
    8.2941   13.5645    4.1624 H   0  0  0  0  0  0
   10.1322   13.4319    2.5542 H   0  0  0  0  0  0
   12.9623   13.6324    5.7864 H   0  0  0  0  0  0
   11.1018   13.6431    7.3933 H   0  0  0  0  0  0
   13.1871   14.4329    2.8184 H   0  0  0  0  0  0
   12.4142   13.0358    2.0939 H   0  0  0  0  0  0
   13.7907   11.5910    2.9165 H   0  0  0  0  0  0
   14.0472   15.3993    5.0629 H   0  0  0  0  0  0
   18.1496   11.8572    2.4026 H   0  0  0  0  0  0
   18.2227   17.0838    5.7553 H   0  0  0  0  0  0
   18.3542   17.1235    4.0147 H   0  0  0  0  0  0
   19.9023   15.0954    4.1121 H   0  0  0  0  0  0
   21.8649   15.9683    6.8142 H   0  0  0  0  0  0
   23.6544   17.6235    6.8040 H   0  0  0  0  0  0
   23.7505   19.3387    5.0435 H   0  0  0  0  0  0
   22.1298   19.3160    3.1912 H   0  0  0  0  0  0
   20.3331   17.6440    3.1411 H   0  0  0  0  0  0
  1  6  1  0  0  0
  1  2  2  0  0  0
  1 27  1  0  0  0
  2  3  1  0  0  0
  2 28  1  0  0  0
  3  4  2  0  0  0
  3 29  1  0  0  0
  4  5  1  0  0  0
  4  7  1  0  0  0
  5  6  2  0  0  0
  5 30  1  0  0  0
  6 31  1  0  0  0
  7  8  1  0  0  0
  7 32  1  0  0  0
  7 33  1  0  0  0
  8  9  1  0  0  0
  8 34  1  0  0  0
  9 17  1  0  0  0
  9 10  2  0  0  0
 10 14  1  0  0  0
 10 11  1  0  0  0
 11 12  2  0  0  0
 11 35  1  0  0  0
 12 13  1  0  0  0
 13 14  1  0  0  0
 13 18  1  0  0  0
 14 15  2  0  0  0
 15 16  1  0  0  0
 16 17  2  0  0  0
 16 36  1  0  0  0
 18 19  1  0  0  0
 18 37  1  0  0  0
 18 38  1  0  0  0
 19 20  1  0  0  0
 19 26  1  0  0  0
 19 39  1  0  0  0
 20 25  1  0  0  0
 20 21  2  0  0  0
 21 22  1  0  0  0
 21 40  1  0  0  0
 22 23  2  0  0  0
 22 41  1  0  0  0
 23 24  1  0  0  0
 23 42  1  0  0  0
 24 25  2  0  0  0
 24 43  1  0  0  0
 25 44  1  0  0  0
M  END
> <s_m_entry_id>
6497

> <s_m_entry_name>
ligand_docking-pose.8

> <s_m_Source_Path>
/home/csk/Desktop/cluster/DUD-E-result/abl1

> <s_m_Source_File>
ligand_docking-pose.sdf

> <i_m_Source_File_Index>
8

> <i_lp_mmshare_version>
53161

> <r_lp_tautomer_probability>
1

> <s_lp_Force_Field>
OPLS_2005

> <r_lp_Energy>
11.676182

> <b_lp_Chiralities_Consistent>
1

> <s_lp_Variant>
442196-1

> <s_i_glide_gridfile>
glide-grid_2hzi

> <i_i_glide_lignum>
52

> <i_i_glide_rotatable_bonds>
6

> <r_i_docking_score>
-11.6121458505609

> <r_i_glide_ligand_efficiency>
-0.446620994252343

> <r_i_glide_ligand_efficiency_sa>
-1.32311293810382

> <r_i_glide_ligand_efficiency_ln>
-2.72707435044591

> <r_i_glide_gscore>
-11.6121458505609

> <r_i_glide_lipo>
-5.23927544929946

> <r_i_glide_hbond>
-0.38666137136075

> <r_i_glide_metal>
0

> <r_i_glide_rewards>
-3.39440804421022

> <r_i_glide_evdw>
-50.3941307067871

> <r_i_glide_ecoul>
-4.54542636871338

> <r_i_glide_erotb>
0.609719504955863

> <r_i_glide_esite>
0

> <r_i_glide_emodel>
-78.6696593408915

> <r_i_glide_energy>
-54.9395570755005

> <r_i_glide_einternal>
19.7459259033203

> <i_i_glide_confnum>
49

> <i_i_glide_posenum>
263

> <r_i_glide_eff_state_penalty>
0

> <i_f3d_flags>
0

> <s_user_duplicate_titles>
442196

> <s_m_subgroup_title>
dock_pv

> <s_m_subgroupid>
dock_pv1

> <b_m_subgroup_collapsed>
0

$$$$
281739
                    3D
 Schrodinger Suite 2021-1.
 46 49  0  0  1  0            999 V2000
   10.6684   13.6568    3.6036 C   0  0  0  0  0  0
   12.0403   13.9209    3.6031 C   0  0  0  0  0  0
   12.7581   14.0706    4.7893 C   0  0  0  0  0  0
   12.0712   13.8458    5.9857 C   0  0  0  0  0  0
   10.6905   13.6330    6.0033 C   0  0  0  0  0  0
    9.9837   13.5482    4.8091 C   0  0  0  0  0  0
   10.0303   13.5081    7.1953 O   0  0  0  0  0  0
   14.2183   14.4219    4.6732 C   0  0  0  0  0  0
   14.9679   15.4750    5.2030 C   0  0  0  0  0  0
   16.2961   15.4353    4.7888 N   0  0  0  0  0  0
   16.4373   14.3159    4.0025 C   0  0  0  0  0  0
   15.1789   13.6654    3.9266 C   0  0  0  0  0  0
   15.1902   12.4710    3.2031 C   0  0  0  0  0  0
   16.2994   12.0313    2.5754 N   0  0  0  0  0  0
   17.4387   12.7195    2.7783 C   0  0  0  0  0  0
   17.5711   13.8738    3.4498 N   0  0  0  0  0  0
   14.0928   11.6332    3.2031 N   0  0  0  0  0  0
   17.3866   16.3758    5.1297 C   0  0  2  0  0  0
   18.1638   16.8824    3.8839 C   0  0  0  0  0  0
   19.5399   16.2242    3.8966 C   0  0  0  0  0  0
   19.5675   15.3454    5.0635 N   0  0  2  0  0  0
   18.4935   15.7257    5.9758 C   0  0  0  0  0  0
   20.8910   15.0605    5.6375 C   0  0  0  0  0  0
   21.7160   16.3101    6.0280 C   0  0  0  0  0  0
   21.2771   17.4576    6.0028 O   0  0  0  0  0  0
   22.9630   16.0867    6.4027 N   0  0  0  0  0  0
   10.1261   13.5478    2.6775 H   0  0  0  0  0  0
   12.5639   14.0325    2.6649 H   0  0  0  0  0  0
   12.5640   13.9328    6.9375 H   0  0  0  0  0  0
    8.9187   13.3652    4.8089 H   0  0  0  0  0  0
    9.0775   13.4223    7.1013 H   0  0  0  0  0  0
   14.6494   16.2807    5.8419 H   0  0  0  0  0  0
   18.3539   12.2929    2.4021 H   0  0  0  0  0  0
   13.2458   11.9152    3.6727 H   0  0  0  0  0  0
   14.1582   10.7456    2.7040 H   0  0  0  0  0  0
   16.8779   17.1835    5.6579 H   0  0  0  0  0  0
   18.2671   17.9671    3.9139 H   0  0  0  0  0  0
   17.7001   16.6036    2.9422 H   0  0  0  0  0  0
   20.3043   16.9990    3.8866 H   0  0  0  0  0  0
   19.7026   15.6325    2.9937 H   0  0  0  0  0  0
   18.1620   14.8891    6.5921 H   0  0  0  0  0  0
   18.8839   16.4330    6.6871 H   0  0  0  0  0  0
   21.4676   14.4980    4.9018 H   0  0  0  0  0  0
   20.7900   14.4025    6.5015 H   0  0  0  0  0  0
   23.5485   16.8704    6.6510 H   0  0  0  0  0  0
   23.3293   15.1420    6.5133 H   0  0  0  0  0  0
  1  6  1  0  0  0
  1  2  2  0  0  0
  1 27  1  0  0  0
  2  3  1  0  0  0
  2 28  1  0  0  0
  3  4  2  0  0  0
  3  8  1  0  0  0
  4  5  1  0  0  0
  4 29  1  0  0  0
  5  6  2  0  0  0
  5  7  1  0  0  0
  6 30  1  0  0  0
  7 31  1  0  0  0
  8 12  1  0  0  0
  8  9  2  0  0  0
  9 10  1  0  0  0
  9 32  1  0  0  0
 10 11  1  0  0  0
 10 18  1  0  0  0
 11 16  1  0  0  0
 11 12  2  0  0  0
 12 13  1  0  0  0
 13 14  2  0  0  0
 13 17  1  0  0  0
 14 15  1  0  0  0
 15 16  2  0  0  0
 15 33  1  0  0  0
 17 34  1  0  0  0
 17 35  1  0  0  0
 18 22  1  0  0  0
 18 19  1  0  0  0
 18 36  1  0  0  0
 19 20  1  0  0  0
 19 37  1  0  0  0
 19 38  1  0  0  0
 20 21  1  0  0  0
 20 39  1  0  0  0
 20 40  1  0  0  0
 21 22  1  0  0  0
 21 23  1  0  0  0
 22 41  1  0  0  0
 22 42  1  0  0  0
 23 24  1  0  0  0
 23 43  1  0  0  0
 23 44  1  0  0  0
 24 25  2  0  0  0
 24 26  1  0  0  0
 26 45  1  0  0  0
 26 46  1  0  0  0
M  END
> <s_m_entry_id>
6498

> <s_m_entry_name>
ligand_docking-pose.9

> <s_m_Source_Path>
/home/csk/Desktop/cluster/DUD-E-result/abl1

> <s_m_Source_File>
ligand_docking-pose.sdf

> <i_m_Source_File_Index>
9

> <i_lp_mmshare_version>
53161

> <r_lp_tautomer_probability>
0.999999999997365

> <s_lp_Force_Field>
OPLS_2005

> <r_lp_Energy>
31.515822

> <b_lp_Chiralities_Consistent>
1

> <s_lp_Variant>
281739-1

> <s_i_glide_gridfile>
glide-grid_2hzi

> <i_i_glide_lignum>
113

> <i_i_glide_rotatable_bonds>
5

> <r_i_docking_score>
-11.5030430089865

> <r_i_glide_ligand_efficiency>
-0.442424731114864

> <r_i_glide_ligand_efficiency_sa>
-1.31068152507053

> <r_i_glide_ligand_efficiency_ln>
-2.70145190609777

> <r_i_glide_gscore>
-11.5030430089865

> <r_i_glide_lipo>
-3.79420828435384

> <r_i_glide_hbond>
-0.920322691719318

> <r_i_glide_metal>
0

> <r_i_glide_rewards>
-3.74351042349719

> <r_i_glide_evdw>
-23.0665988922119

> <r_i_glide_ecoul>
-14.5231819152832

> <r_i_glide_erotb>
0.322736384994407

> <r_i_glide_esite>
-0.0359307625074392

> <r_i_glide_emodel>
-51.0536315244848

> <r_i_glide_energy>
-37.5897808074951

> <r_i_glide_einternal>
7.35654640197754

> <i_i_glide_confnum>
57

> <i_i_glide_posenum>
308

> <r_i_glide_eff_state_penalty>
0

> <i_f3d_flags>
0

> <s_user_duplicate_titles>
281739

> <s_m_subgroup_title>
dock_pv

> <s_m_subgroupid>
dock_pv1

> <b_m_subgroup_collapsed>
0

$$$$
281860
                    3D
 Schrodinger Suite 2021-1.
 40 43  0  0  1  0            999 V2000
   10.7693   13.6325    3.6008 C   0  0  0  0  0  0
   12.1281   13.9389    3.4708 C   0  0  0  0  0  0
   12.9380   14.1367    4.5820 C   0  0  0  0  0  0
   12.3599   13.9407    5.8275 C   0  0  0  0  0  0
   11.0069   13.6330    5.9679 C   0  0  0  0  0  0
   10.1956   13.5034    4.8540 C   0  0  0  0  0  0
   10.4594   13.5333    7.2042 O   0  0  0  0  0  0
   14.3922   14.4673    4.4565 C   0  0  0  0  0  0
   15.1263   15.4607    5.0970 C   0  0  0  0  0  0
   16.4765   15.3810    4.7962 N   0  0  0  0  0  0
   16.6489   14.2816    3.9730 C   0  0  0  0  0  0
   15.3650   13.7337    3.6993 C   0  0  0  0  0  0
   15.3644   12.6184    2.8506 C   0  0  0  0  0  0
   16.5087   12.0541    2.4087 N   0  0  0  0  0  0
   17.6605   12.6452    2.8030 C   0  0  0  0  0  0
   17.8091   13.7713    3.5397 N   0  0  0  0  0  0
   14.1725   12.0330    2.4705 N   0  0  0  0  0  0
   17.5390   16.2550    5.3284 C   0  0  0  0  0  0
   18.5033   15.4946    6.2617 C   0  0  0  0  0  0
   19.8757   15.4933    5.5853 C   0  0  0  0  0  0
   19.8770   16.7785    4.7601 C   0  0  0  0  0  0
   18.4387   16.9020    4.2454 C   0  0  0  0  0  0
   10.1527   13.4946    2.7267 H   0  0  0  0  0  0
   12.5638   14.0464    2.4891 H   0  0  0  0  0  0
   12.9639   14.0401    6.7101 H   0  0  0  0  0  0
    9.1439   13.2792    4.9601 H   0  0  0  0  0  0
   11.0710   13.8363    7.8858 H   0  0  0  0  0  0
   14.7881   16.2260    5.7774 H   0  0  0  0  0  0
   18.5646   12.1835    2.4512 H   0  0  0  0  0  0
   13.3245   12.3769    2.8957 H   0  0  0  0  0  0
   14.1646   11.1285    2.0036 H   0  0  0  0  0  0
   17.0130   17.0156    5.9094 H   0  0  0  0  0  0
   18.5635   16.0307    7.2024 H   0  0  0  0  0  0
   18.1707   14.4895    6.5124 H   0  0  0  0  0  0
   20.6952   15.4613    6.3047 H   0  0  0  0  0  0
   19.9763   14.6182    4.9398 H   0  0  0  0  0  0
   20.1241   17.6306    5.3951 H   0  0  0  0  0  0
   20.6073   16.7484    3.9504 H   0  0  0  0  0  0
   18.3619   16.3822    3.2896 H   0  0  0  0  0  0
   18.1768   17.9442    4.0629 H   0  0  0  0  0  0
  1  6  1  0  0  0
  1  2  2  0  0  0
  1 23  1  0  0  0
  2  3  1  0  0  0
  2 24  1  0  0  0
  3  4  2  0  0  0
  3  8  1  0  0  0
  4  5  1  0  0  0
  4 25  1  0  0  0
  5  6  2  0  0  0
  5  7  1  0  0  0
  6 26  1  0  0  0
  7 27  1  0  0  0
  8 12  1  0  0  0
  8  9  2  0  0  0
  9 10  1  0  0  0
  9 28  1  0  0  0
 10 11  1  0  0  0
 10 18  1  0  0  0
 11 16  1  0  0  0
 11 12  2  0  0  0
 12 13  1  0  0  0
 13 14  2  0  0  0
 13 17  1  0  0  0
 14 15  1  0  0  0
 15 16  2  0  0  0
 15 29  1  0  0  0
 17 30  1  0  0  0
 17 31  1  0  0  0
 18 22  1  0  0  0
 18 19  1  0  0  0
 18 32  1  0  0  0
 19 20  1  0  0  0
 19 33  1  0  0  0
 19 34  1  0  0  0
 20 21  1  0  0  0
 20 35  1  0  0  0
 20 36  1  0  0  0
 21 22  1  0  0  0
 21 37  1  0  0  0
 21 38  1  0  0  0
 22 39  1  0  0  0
 22 40  1  0  0  0
M  END
> <s_m_entry_id>
6499

> <s_m_entry_name>
ligand_docking-pose.10

> <s_m_Source_Path>
/home/csk/Desktop/cluster/DUD-E-result/abl1

> <s_m_Source_File>
ligand_docking-pose.sdf

> <i_m_Source_File_Index>
10

> <i_lp_mmshare_version>
53161

> <r_lp_tautomer_probability>
0.999999999997365

> <s_lp_Force_Field>
OPLS_2005

> <r_lp_Energy>
33.446519

> <b_lp_Chiralities_Consistent>
1

> <s_lp_Variant>
281860-1

> <s_i_glide_gridfile>
glide-grid_2hzi

> <i_i_glide_lignum>
110

> <i_i_glide_rotatable_bonds>
3

> <r_i_docking_score>
-11.4446727098678

> <r_i_glide_ligand_efficiency>
-0.52021239590308

> <r_i_glide_ligand_efficiency_sa>
-1.45765559211301

> <r_i_glide_ligand_efficiency_ln>
-2.79749546487177

> <r_i_glide_gscore>
-11.4446727098678

> <r_i_glide_lipo>
-4.09119258890849

> <r_i_glide_hbond>
-0.886328734676889

> <r_i_glide_metal>
0

> <r_i_glide_rewards>
-4.02241364961912

> <r_i_glide_evdw>
-25.020191192627

> <r_i_glide_ecoul>
-9.92813396453857

> <r_i_glide_erotb>
0.295491917648861

> <r_i_glide_esite>
0

> <r_i_glide_emodel>
-47.9045383925581

> <r_i_glide_energy>
-34.9483251571655

> <r_i_glide_einternal>
3.47186064720154

> <i_i_glide_confnum>
52

> <i_i_glide_posenum>
43

> <r_i_glide_eff_state_penalty>
0

> <i_f3d_flags>
0

> <s_user_duplicate_titles>
281860

> <s_m_subgroup_title>
dock_pv

> <s_m_subgroupid>
dock_pv1

> <b_m_subgroup_collapsed>
0

$$$$
289405
                    3D
 Schrodinger Suite 2021-1.
 40 43  0  0  1  0            999 V2000
   10.0109   13.5822    4.9452 C   0  0  0  0  0  0
   10.8004   13.6330    6.0883 C   0  0  0  0  0  0
   12.1640   13.9007    5.9700 C   0  0  0  0  0  0
   12.7548   14.1330    4.7319 C   0  0  0  0  0  0
   11.9525   14.0330    3.6030 C   0  0  0  0  0  0
   10.5878   13.7637    3.6937 C   0  0  0  0  0  0
   14.2192   14.4358    4.5743 C   0  0  0  0  0  0
   14.9926   15.4394    5.1475 C   0  0  0  0  0  0
   16.3362   15.3649    4.7884 N   0  0  0  0  0  0
   16.4582   14.2250    4.0030 C   0  0  0  0  0  0
   15.1544   13.6928    3.7812 C   0  0  0  0  0  0
   15.1030   12.5944    2.9117 C   0  0  0  0  0  0
   16.2198   12.0330    2.4030 N   0  0  0  0  0  0
   17.3994   12.5758    2.7773 C   0  0  0  0  0  0
   17.5919   13.6806    3.5317 N   0  0  0  0  0  0
   13.8921   12.0330    2.5531 N   0  0  0  0  0  0
   17.3508   16.3332    5.0718 C   0  0  0  0  0  0
   17.2237   17.1902    6.1686 C   0  0  0  0  0  0
   18.1640   18.1930    6.4030 C   0  0  0  0  0  0
   19.2975   18.2880    5.6027 C   0  0  0  0  0  0
   19.4585   17.4443    4.5025 C   0  0  0  0  0  0
   18.4804   16.4773    4.2424 C   0  0  0  0  0  0
   20.7004   17.5850    3.6241 C   0  0  0  0  0  0
   20.5072   17.2330    2.2654 O   0  0  0  0  0  0
    8.9523   13.3814    5.0291 H   0  0  0  0  0  0
   10.3574   13.4989    7.0646 H   0  0  0  0  0  0
   12.7409   14.0330    6.8681 H   0  0  0  0  0  0
   12.4126   14.1894    2.6426 H   0  0  0  0  0  0
    9.9803   13.7012    2.8030 H   0  0  0  0  0  0
   14.6627   16.2468    5.7779 H   0  0  0  0  0  0
   18.2895   12.0955    2.4030 H   0  0  0  0  0  0
   13.0583   12.3675    3.0129 H   0  0  0  0  0  0
   13.8789   11.1411    2.0576 H   0  0  0  0  0  0
   16.3830   17.1091    6.8403 H   0  0  0  0  0  0
   18.0402   18.8643    7.2390 H   0  0  0  0  0  0
   20.0529   19.0157    5.8511 H   0  0  0  0  0  0
   18.6083   15.8667    3.3637 H   0  0  0  0  0  0
   21.0162   18.6287    3.6216 H   0  0  0  0  0  0
   21.5230   17.0062    4.0457 H   0  0  0  0  0  0
   20.5638   16.2741    2.1732 H   0  0  0  0  0  0
  1  6  1  0  0  0
  1  2  2  0  0  0
  1 25  1  0  0  0
  2  3  1  0  0  0
  2 26  1  0  0  0
  3  4  2  0  0  0
  3 27  1  0  0  0
  4  5  1  0  0  0
  4  7  1  0  0  0
  5  6  2  0  0  0
  5 28  1  0  0  0
  6 29  1  0  0  0
  7 11  1  0  0  0
  7  8  2  0  0  0
  8  9  1  0  0  0
  8 30  1  0  0  0
  9 10  1  0  0  0
  9 17  1  0  0  0
 10 15  1  0  0  0
 10 11  2  0  0  0
 11 12  1  0  0  0
 12 13  2  0  0  0
 12 16  1  0  0  0
 13 14  1  0  0  0
 14 15  2  0  0  0
 14 31  1  0  0  0
 16 32  1  0  0  0
 16 33  1  0  0  0
 17 22  1  0  0  0
 17 18  2  0  0  0
 18 19  1  0  0  0
 18 34  1  0  0  0
 19 20  2  0  0  0
 19 35  1  0  0  0
 20 21  1  0  0  0
 20 36  1  0  0  0
 21 22  2  0  0  0
 21 23  1  0  0  0
 22 37  1  0  0  0
 23 24  1  0  0  0
 23 38  1  0  0  0
 23 39  1  0  0  0
 24 40  1  0  0  0
M  END
> <s_m_entry_id>
6500

> <s_m_entry_name>
ligand_docking-pose.11

> <s_m_Source_Path>
/home/csk/Desktop/cluster/DUD-E-result/abl1

> <s_m_Source_File>
ligand_docking-pose.sdf

> <i_m_Source_File_Index>
11

> <i_lp_mmshare_version>
53161

> <r_lp_tautomer_probability>
1

> <s_lp_Force_Field>
OPLS_2005

> <r_lp_Energy>
17.203916

> <b_lp_Chiralities_Consistent>
1

> <s_lp_Variant>
289405-1

> <s_i_glide_gridfile>
glide-grid_2hzi

> <i_i_glide_lignum>
23

> <i_i_glide_rotatable_bonds>
4

> <r_i_docking_score>
-11.0403941788576

> <r_i_glide_ligand_efficiency>
-0.460016424119068

> <r_i_glide_ligand_efficiency_sa>
-1.32691697863448

> <r_i_glide_ligand_efficiency_ln>
-2.64247293767831

> <r_i_glide_gscore>
-11.0403941788576

> <r_i_glide_lipo>
-4.20502375761206

> <r_i_glide_hbond>
-0.735159051532217

> <r_i_glide_metal>
0

> <r_i_glide_rewards>
-3.85134018228919

> <r_i_glide_evdw>
-22.3310127258301

> <r_i_glide_ecoul>
-10.1528692245483

> <r_i_glide_erotb>
0.390609832549585

> <r_i_glide_esite>
0

> <r_i_glide_emodel>
-43.5550815080145

> <r_i_glide_energy>
-32.4838819503784

> <r_i_glide_einternal>
2.37355542182922

> <i_i_glide_confnum>
19

> <i_i_glide_posenum>
195

> <r_i_glide_eff_state_penalty>
0

> <i_f3d_flags>
0

> <s_user_duplicate_titles>
289405

> <s_m_subgroup_title>
dock_pv

> <s_m_subgroupid>
dock_pv1

> <b_m_subgroup_collapsed>
0

$$$$
282862
                    3D
 Schrodinger Suite 2021-1.
 39 42  0  0  1  0            999 V2000
   10.7461   13.6331    3.6030 C   0  0  0  0  0  0
   12.1100   13.9256    3.5123 C   0  0  0  0  0  0
   12.8979   14.1019    4.6439 C   0  0  0  0  0  0
   12.2787   13.9151    5.8761 C   0  0  0  0  0  0
   10.9159   13.6330    5.9810 C   0  0  0  0  0  0
   10.1390   13.5067    4.8418 C   0  0  0  0  0  0
   10.3255   13.5509    7.2030 O   0  0  0  0  0  0
   14.3628   14.4213    4.5285 C   0  0  0  0  0  0
   15.1083   15.3847    5.2030 C   0  0  0  0  0  0
   16.4547   15.3209    4.8786 N   0  0  0  0  0  0
   16.6197   14.2669    4.0030 C   0  0  0  0  0  0
   15.3365   13.7137    3.7383 C   0  0  0  0  0  0
   15.3432   12.6200    2.8625 C   0  0  0  0  0  0
   16.4931   12.0754    2.4030 N   0  0  0  0  0  0
   17.6449   12.6761    2.7884 C   0  0  0  0  0  0
   17.7827   13.7933    3.5371 N   0  0  0  0  0  0
   14.1543   12.0330    2.4760 N   0  0  0  0  0  0
   17.5338   16.1579    5.4309 C   0  0  1  0  0  0
   18.6515   15.3827    6.1487 C   0  0  0  0  0  0
   19.9453   15.8364    5.4694 C   0  0  0  0  0  0
   19.6439   17.1252    4.8713 N   0  0  2  0  0  0
   18.2944   16.9519    4.3599 C   0  0  0  0  0  0
   10.1505   13.5077    2.7125 H   0  0  0  0  0  0
   12.5640   14.0434    2.5405 H   0  0  0  0  0  0
   12.8528   14.0330    6.7774 H   0  0  0  0  0  0
    9.0817   13.2966    4.9179 H   0  0  0  0  0  0
   10.9167   13.8435    7.9044 H   0  0  0  0  0  0
   14.7802   16.1137    5.9270 H   0  0  0  0  0  0
   18.5618   12.2511    2.4107 H   0  0  0  0  0  0
   13.3030   12.3584    2.9096 H   0  0  0  0  0  0
   14.1640   11.1327    2.0016 H   0  0  0  0  0  0
   17.0391   16.8486    6.1166 H   0  0  0  0  0  0
   18.6714   15.6330    7.2031 H   0  0  0  0  0  0
   18.5640   14.2988    6.0817 H   0  0  0  0  0  0
   20.7534   15.9549    6.1929 H   0  0  0  0  0  0
   20.2765   15.1130    4.7208 H   0  0  0  0  0  0
   20.2876   17.3101    4.1126 H   0  0  0  0  0  0
   18.3494   16.3998    3.4194 H   0  0  0  0  0  0
   17.8130   17.8992    4.1284 H   0  0  0  0  0  0
  1  6  1  0  0  0
  1  2  2  0  0  0
  1 23  1  0  0  0
  2  3  1  0  0  0
  2 24  1  0  0  0
  3  4  2  0  0  0
  3  8  1  0  0  0
  4  5  1  0  0  0
  4 25  1  0  0  0
  5  6  2  0  0  0
  5  7  1  0  0  0
  6 26  1  0  0  0
  7 27  1  0  0  0
  8 12  1  0  0  0
  8  9  2  0  0  0
  9 10  1  0  0  0
  9 28  1  0  0  0
 10 11  1  0  0  0
 10 18  1  0  0  0
 11 16  1  0  0  0
 11 12  2  0  0  0
 12 13  1  0  0  0
 13 14  2  0  0  0
 13 17  1  0  0  0
 14 15  1  0  0  0
 15 16  2  0  0  0
 15 29  1  0  0  0
 17 30  1  0  0  0
 17 31  1  0  0  0
 18 22  1  0  0  0
 18 19  1  0  0  0
 18 32  1  0  0  0
 19 20  1  0  0  0
 19 33  1  0  0  0
 19 34  1  0  0  0
 20 21  1  0  0  0
 20 35  1  0  0  0
 20 36  1  0  0  0
 21 22  1  0  0  0
 21 37  1  0  0  0
 22 38  1  0  0  0
 22 39  1  0  0  0
M  END
> <s_m_entry_id>
6503

> <s_m_entry_name>
ligand_docking-pose.14

> <s_m_Source_Path>
/home/csk/Desktop/cluster/DUD-E-result/abl1

> <s_m_Source_File>
ligand_docking-pose.sdf

> <i_m_Source_File_Index>
14

> <i_lp_mmshare_version>
53161

> <r_lp_tautomer_probability>
0.999999999997365

> <s_lp_Force_Field>
OPLS_2005

> <r_lp_Energy>
34.056001

> <b_lp_Chiralities_Consistent>
1

> <s_lp_Variant>
282862-2

> <s_i_glide_gridfile>
glide-grid_2hzi

> <i_i_glide_lignum>
112

> <i_i_glide_rotatable_bonds>
3

> <r_i_docking_score>
-10.8787629639356

> <r_i_glide_ligand_efficiency>
-0.494489225633435

> <r_i_glide_ligand_efficiency_sa>
-1.38557825738258

> <r_i_glide_ligand_efficiency_ln>
-2.65916648090641

> <r_i_glide_gscore>
-10.8787629639356

> <r_i_glide_lipo>
-3.81875437613729

> <r_i_glide_hbond>
-0.886294612495129

> <r_i_glide_metal>
0

> <r_i_glide_rewards>
-3.66453256428245

> <r_i_glide_evdw>
-26.2176380157471

> <r_i_glide_ecoul>
-9.94711208343506

> <r_i_glide_erotb>
0.293767302281915

> <r_i_glide_esite>
0

> <r_i_glide_emodel>
-50.7064270807527

> <r_i_glide_energy>
-36.1647500991821

> <r_i_glide_einternal>
0.450475603342056

> <i_i_glide_confnum>
6

> <i_i_glide_posenum>
18

> <r_i_glide_eff_state_penalty>
0

> <i_f3d_flags>
0

> <s_user_duplicate_titles>
282862

> <s_m_subgroup_title>
dock_pv

> <s_m_subgroupid>
dock_pv1

> <b_m_subgroup_collapsed>
0

$$$$
281927
                    3D
 Schrodinger Suite 2021-1.
 40 43  0  0  1  0            999 V2000
   10.0088   13.5863    4.9455 C   0  0  0  0  0  0
   10.7993   13.6330    6.0883 C   0  0  0  0  0  0
   12.1640   13.8951    5.9691 C   0  0  0  0  0  0
   12.7544   14.1236    4.7301 C   0  0  0  0  0  0
   11.9509   14.0328    3.6030 C   0  0  0  0  0  0
   10.5852   13.7686    3.6939 C   0  0  0  0  0  0
   14.2178   14.4234    4.5727 C   0  0  0  0  0  0
   14.9904   15.3906    5.2032 C   0  0  0  0  0  0
   16.3271   15.3123    4.8444 N   0  0  0  0  0  0
   16.4595   14.2239    4.0030 C   0  0  0  0  0  0
   15.1598   13.6914    3.7685 C   0  0  0  0  0  0
   15.1235   12.5964    2.8932 C   0  0  0  0  0  0
   16.2511   12.0330    2.4030 N   0  0  0  0  0  0
   17.4230   12.6038    2.7718 C   0  0  0  0  0  0
   17.6023   13.7191    3.5180 N   0  0  0  0  0  0
   13.9164   12.0330    2.5243 N   0  0  0  0  0  0
   17.4144   16.1864    5.3326 C   0  0  1  0  0  0
   18.4548   15.4433    6.1994 C   0  0  0  0  0  0
   19.7819   15.4403    5.4314 C   0  0  0  0  0  0
   19.7009   16.6376    4.4908 C   0  0  2  0  0  0
   18.2193   16.8676    4.2009 C   0  0  0  0  0  0
   20.5639   16.6531    3.3756 O   0  0  0  0  0  0
    8.9495   13.3899    5.0300 H   0  0  0  0  0  0
   10.3561   13.5020    7.0650 H   0  0  0  0  0  0
   12.7412   14.0329    6.8663 H   0  0  0  0  0  0
   12.4118   14.1884    2.6428 H   0  0  0  0  0  0
    9.9774   13.7107    2.8030 H   0  0  0  0  0  0
   14.6846   16.1401    5.9143 H   0  0  0  0  0  0
   18.3217   12.1355    2.4030 H   0  0  0  0  0  0
   13.0785   12.3669    2.9769 H   0  0  0  0  0  0
   13.9083   11.1404    2.0305 H   0  0  0  0  0  0
   16.9019   16.9307    5.9458 H   0  0  0  0  0  0
   18.5641   15.9756    7.1418 H   0  0  0  0  0  0
   18.1640   14.4330    6.4720 H   0  0  0  0  0  0
   19.8695   14.5231    4.8499 H   0  0  0  0  0  0
   20.6543   15.4803    6.0856 H   0  0  0  0  0  0
   20.0458   17.4747    5.1018 H   0  0  0  0  0  0
   17.9760   16.4331    3.2300 H   0  0  0  0  0  0
   18.0203   17.9340    4.1181 H   0  0  0  0  0  0
   20.5957   15.7726    2.9831 H   0  0  0  0  0  0
  1  6  1  0  0  0
  1  2  2  0  0  0
  1 23  1  0  0  0
  2  3  1  0  0  0
  2 24  1  0  0  0
  3  4  2  0  0  0
  3 25  1  0  0  0
  4  5  1  0  0  0
  4  7  1  0  0  0
  5  6  2  0  0  0
  5 26  1  0  0  0
  6 27  1  0  0  0
  7 11  1  0  0  0
  7  8  2  0  0  0
  8  9  1  0  0  0
  8 28  1  0  0  0
  9 10  1  0  0  0
  9 17  1  0  0  0
 10 15  1  0  0  0
 10 11  2  0  0  0
 11 12  1  0  0  0
 12 13  2  0  0  0
 12 16  1  0  0  0
 13 14  1  0  0  0
 14 15  2  0  0  0
 14 29  1  0  0  0
 16 30  1  0  0  0
 16 31  1  0  0  0
 17 21  1  0  0  0
 17 18  1  0  0  0
 17 32  1  0  0  0
 18 19  1  0  0  0
 18 33  1  0  0  0
 18 34  1  0  0  0
 19 20  1  0  0  0
 19 35  1  0  0  0
 19 36  1  0  0  0
 20 21  1  0  0  0
 20 22  1  0  0  0
 20 37  1  0  0  0
 21 38  1  0  0  0
 21 39  1  0  0  0
 22 40  1  0  0  0
M  END
> <s_m_entry_id>
6505

> <s_m_entry_name>
ligand_docking-pose.16

> <s_m_Source_Path>
/home/csk/Desktop/cluster/DUD-E-result/abl1

> <s_m_Source_File>
ligand_docking-pose.sdf

> <i_m_Source_File_Index>
16

> <i_lp_mmshare_version>
53161

> <r_lp_tautomer_probability>
1

> <s_lp_Force_Field>
OPLS_2005

> <r_lp_Energy>
33.251427

> <b_lp_Chiralities_Consistent>
1

> <s_lp_Variant>
281927-4

> <s_i_glide_gridfile>
glide-grid_2hzi

> <i_i_glide_lignum>
20

> <i_i_glide_rotatable_bonds>
3

> <r_i_docking_score>
-10.803221424095

> <r_i_glide_ligand_efficiency>
-0.491055519277043

> <r_i_glide_ligand_efficiency_sa>
-1.37595687713197

> <r_i_glide_ligand_efficiency_ln>
-2.64070137312475

> <r_i_glide_gscore>
-10.803221424095

> <r_i_glide_lipo>
-3.98076665906042

> <r_i_glide_hbond>
-0.744465156433658

> <r_i_glide_metal>
0

> <r_i_glide_rewards>
-3.66954018103489

> <r_i_glide_evdw>
-25.5826778411865

> <r_i_glide_ecoul>
-9.49871635437012

> <r_i_glide_erotb>
0.295491917648861

> <r_i_glide_esite>
0

> <r_i_glide_emodel>
-48.3570235487008

> <r_i_glide_energy>
-35.0813941955566

> <r_i_glide_einternal>
3.16510391235352

> <i_i_glide_confnum>
47

> <i_i_glide_posenum>
297

> <r_i_glide_eff_state_penalty>
0

> <i_f3d_flags>
0

> <s_user_duplicate_titles>
281927

> <s_m_subgroup_title>
dock_pv

> <s_m_subgroupid>
dock_pv1

> <b_m_subgroup_collapsed>
0

$$$$
312479
                    3D
 Schrodinger Suite 2021-1.
 41 43  0  0  1  0            999 V2000
   20.1308   17.3931    1.9273 C   0  0  0  0  0  0
   20.7109   17.2324    3.3299 C   0  0  0  0  0  0
   21.7613   18.0680    3.7245 C   0  0  0  0  0  0
   22.3477   17.9261    4.9795 C   0  0  0  0  0  0
   21.9016   16.9320    5.8461 C   0  0  0  0  0  0
   20.8524   16.0880    5.4781 C   0  0  0  0  0  0
   20.2304   16.2519    4.2217 C   0  0  0  0  0  0
   19.2014   15.3965    3.7904 N   0  0  0  0  0  0
   17.9648   15.3340    4.3273 C   0  0  0  0  0  0
   17.5696   16.0493    5.2501 O   0  0  0  0  0  0
   17.1092   14.3493    3.7132 C   0  0  0  0  0  0
   17.4385   13.1662    3.0439 C   0  0  0  0  0  0
   16.4302   12.4296    2.6204 N   0  0  0  0  0  0
   15.2632   12.9229    2.9506 C   0  0  0  0  0  0
   15.3641   14.4315    3.8316 S   0  0  0  0  0  0
   14.0927   12.2833    2.5853 N   0  0  0  0  0  0
   12.7348   12.5299    2.8468 C   0  0  0  0  0  0
   11.7890   11.7516    2.1636 C   0  0  0  0  0  0
   10.4380   12.0132    2.4041 C   0  0  0  0  0  0
   10.0289   12.9565    3.2906 N   0  0  0  0  0  0
   11.0170   13.6391    3.9233 C   0  0  0  0  0  0
   12.3534   13.4854    3.7370 N   0  0  0  0  0  0
   10.5832   14.6697    4.9379 C   0  0  0  0  0  0
    9.3427   11.2507    1.6879 C   0  0  0  0  0  0
   20.4017   14.8324    6.5858 Cl  0  0  0  0  0  0
   19.0965   17.7375    1.9786 H   0  0  0  0  0  0
   20.7075   18.0888    1.3166 H   0  0  0  0  0  0
   20.1341   16.4358    1.4042 H   0  0  0  0  0  0
   22.1366   18.8278    3.0532 H   0  0  0  0  0  0
   23.1608   18.5746    5.2740 H   0  0  0  0  0  0
   22.3857   16.8074    6.8039 H   0  0  0  0  0  0
   19.4121   14.8321    2.9806 H   0  0  0  0  0  0
   18.4425   12.8150    2.8443 H   0  0  0  0  0  0
   14.1657   11.4567    2.0066 H   0  0  0  0  0  0
   12.0866   10.9877    1.4592 H   0  0  0  0  0  0
    9.7305   15.2307    4.5609 H   0  0  0  0  0  0
   10.2935   14.1837    5.8704 H   0  0  0  0  0  0
   11.3850   15.3779    5.1448 H   0  0  0  0  0  0
    9.7453   10.4120    1.1197 H   0  0  0  0  0  0
    8.6200   10.8547    2.4020 H   0  0  0  0  0  0
    8.8164   11.9078    0.9954 H   0  0  0  0  0  0
  1  2  1  0  0  0
  1 26  1  0  0  0
  1 27  1  0  0  0
  1 28  1  0  0  0
  2  7  1  0  0  0
  2  3  2  0  0  0
  3  4  1  0  0  0
  3 29  1  0  0  0
  4  5  2  0  0  0
  4 30  1  0  0  0
  5  6  1  0  0  0
  5 31  1  0  0  0
  6  7  2  0  0  0
  6 25  1  0  0  0
  7  8  1  0  0  0
  8  9  1  0  0  0
  8 32  1  0  0  0
  9 10  2  0  0  0
  9 11  1  0  0  0
 11 15  1  0  0  0
 11 12  2  0  0  0
 12 13  1  0  0  0
 12 33  1  0  0  0
 13 14  2  0  0  0
 14 15  1  0  0  0
 14 16  1  0  0  0
 16 17  1  0  0  0
 16 34  1  0  0  0
 17 22  1  0  0  0
 17 18  2  0  0  0
 18 19  1  0  0  0
 18 35  1  0  0  0
 19 20  2  0  0  0
 19 24  1  0  0  0
 20 21  1  0  0  0
 21 22  2  0  0  0
 21 23  1  0  0  0
 23 36  1  0  0  0
 23 37  1  0  0  0
 23 38  1  0  0  0
 24 39  1  0  0  0
 24 40  1  0  0  0
 24 41  1  0  0  0
M  END
> <s_m_entry_id>
6506

> <s_m_entry_name>
ligand_docking-pose.17

> <s_m_Source_Path>
/home/csk/Desktop/cluster/DUD-E-result/abl1

> <s_m_Source_File>
ligand_docking-pose.sdf

> <i_m_Source_File_Index>
17

> <i_lp_mmshare_version>
53161

> <r_lp_tautomer_probability>
0.999999583200174

> <s_lp_Force_Field>
OPLS_2005

> <r_lp_Energy>
12.46463

> <b_lp_Chiralities_Consistent>
1

> <s_lp_Variant>
312479-1

> <s_i_glide_gridfile>
glide-grid_2hzi

> <i_i_glide_lignum>
271

> <i_i_glide_rotatable_bonds>
5

> <r_i_docking_score>
-10.6804701116368

> <r_i_glide_ligand_efficiency>
-0.427218804465471

> <r_i_glide_ligand_efficiency_sa>
-1.2491953610148

> <r_i_glide_ligand_efficiency_ln>
-2.53159148431927

> <r_i_glide_gscore>
-10.6804701116368

> <r_i_glide_lipo>
-4.12711756158802

> <r_i_glide_hbond>
-0.449771139778517

> <r_i_glide_metal>
0

> <r_i_glide_rewards>
-2.84504325820335

> <r_i_glide_evdw>
-54.5069923400879

> <r_i_glide_ecoul>
-6.78146934509277

> <r_i_glide_erotb>
0.484031866701427

> <r_i_glide_esite>
0

> <r_i_glide_emodel>
-93.1666612653413

> <r_i_glide_energy>
-61.2884616851807

> <r_i_glide_einternal>
6.116126537323

> <i_i_glide_confnum>
21

> <i_i_glide_posenum>
281

> <r_i_glide_eff_state_penalty>
0

> <i_f3d_flags>
0

> <s_user_duplicate_titles>
312479

> <s_m_subgroup_title>
dock_pv

> <s_m_subgroupid>
dock_pv1

> <b_m_subgroup_collapsed>
0

$$$$
282344
                    3D
 Schrodinger Suite 2021-1.
 39 42  0  0  1  0            999 V2000
    9.7793   13.6049    5.0747 C   0  0  0  0  0  0
   10.3543   13.8478    3.8335 C   0  0  0  0  0  0
   11.7322   14.0322    3.7452 C   0  0  0  0  0  0
   12.5557   13.9904    4.8672 C   0  0  0  0  0  0
   11.9659   13.6416    6.0876 C   0  0  0  0  0  0
   10.5844   13.4884    6.2051 C   0  0  0  0  0  0
   14.0275   14.3067    4.6827 C   0  0  0  0  0  0
   14.8333   15.2622    5.3020 C   0  0  0  0  0  0
   16.1474   15.2346    4.8539 N   0  0  0  0  0  0
   16.2463   14.1547    3.9997 C   0  0  0  0  0  0
   14.9407   13.6191    3.8124 C   0  0  0  0  0  0
   14.8668   12.5669    2.8916 C   0  0  0  0  0  0
   15.9705   12.0332    2.3273 N   0  0  0  0  0  0
   17.1576   12.5958    2.6532 C   0  0  0  0  0  0
   17.3627   13.6794    3.4316 N   0  0  0  0  0  0
   13.6443   12.0332    2.5255 N   0  0  0  0  0  0
   17.2345   16.1566    5.2661 C   0  0  0  0  0  0
   18.2008   15.5888    6.3088 C   0  0  0  0  0  0
   19.4011   15.0459    5.5358 C   0  0  0  0  0  0
   19.5422   15.9700    4.3249 C   0  0  0  0  0  0
   18.1643   16.6262    4.1160 C   0  0  0  0  0  0
    8.7087   13.4817    5.1577 H   0  0  0  0  0  0
    9.7393   13.9114    2.9467 H   0  0  0  0  0  0
   12.1853   14.2676    2.8014 H   0  0  0  0  0  0
   12.5643   13.6120    6.9857 H   0  0  0  0  0  0
   10.1374   13.2818    7.1675 H   0  0  0  0  0  0
   14.5633   16.0028    6.0337 H   0  0  0  0  0  0
   18.0388   12.1558    2.2173 H   0  0  0  0  0  0
   12.8061   12.3213    3.0085 H   0  0  0  0  0  0
   13.6644   11.1530    2.0067 H   0  0  0  0  0  0
   16.6659   16.9986    5.6672 H   0  0  0  0  0  0
   18.5615   16.4312    6.8842 H   0  0  0  0  0  0
   17.7772   14.8487    6.9923 H   0  0  0  0  0  0
   20.3053   15.0217    6.1447 H   0  0  0  0  0  0
   19.2037   14.0277    5.2187 H   0  0  0  0  0  0
   20.3030   16.7318    4.5130 H   0  0  0  0  0  0
   19.8587   15.4137    3.4433 H   0  0  0  0  0  0
   17.7627   16.4196    3.1204 H   0  0  0  0  0  0
   18.2749   17.7135    4.1547 H   0  0  0  0  0  0
  1  6  1  0  0  0
  1  2  2  0  0  0
  1 22  1  0  0  0
  2  3  1  0  0  0
  2 23  1  0  0  0
  3  4  2  0  0  0
  3 24  1  0  0  0
  4  5  1  0  0  0
  4  7  1  0  0  0
  5  6  2  0  0  0
  5 25  1  0  0  0
  6 26  1  0  0  0
  7 11  1  0  0  0
  7  8  2  0  0  0
  8  9  1  0  0  0
  8 27  1  0  0  0
  9 10  1  0  0  0
  9 17  1  0  0  0
 10 15  1  0  0  0
 10 11  2  0  0  0
 11 12  1  0  0  0
 12 13  2  0  0  0
 12 16  1  0  0  0
 13 14  1  0  0  0
 14 15  2  0  0  0
 14 28  1  0  0  0
 16 29  1  0  0  0
 16 30  1  0  0  0
 17 21  1  0  0  0
 17 18  1  0  0  0
 17 31  1  0  0  0
 18 19  1  0  0  0
 18 32  1  0  0  0
 18 33  1  0  0  0
 19 20  1  0  0  0
 19 34  1  0  0  0
 19 35  1  0  0  0
 20 21  1  0  0  0
 20 36  1  0  0  0
 20 37  1  0  0  0
 21 38  1  0  0  0
 21 39  1  0  0  0
M  END
> <s_m_entry_id>
6507

> <s_m_entry_name>
ligand_docking-pose.18

> <s_m_Source_Path>
/home/csk/Desktop/cluster/DUD-E-result/abl1

> <s_m_Source_File>
ligand_docking-pose.sdf

> <i_m_Source_File_Index>
18

> <i_lp_mmshare_version>
53161

> <r_lp_tautomer_probability>
1

> <s_lp_Force_Field>
OPLS_2005

> <r_lp_Energy>
33.926739

> <b_lp_Chiralities_Consistent>
1

> <s_lp_Variant>
282344-1

> <s_i_glide_gridfile>
glide-grid_2hzi

> <i_i_glide_lignum>
15

> <i_i_glide_rotatable_bonds>
2

> <r_i_docking_score>
-10.6752370838368

> <r_i_glide_ligand_efficiency>
-0.508344623039847

> <r_i_glide_ligand_efficiency_sa>
-1.40248426901468

> <r_i_glide_ligand_efficiency_ln>
-2.63943079763099

> <r_i_glide_gscore>
-10.6752370838368

> <r_i_glide_lipo>
-3.90834226395437

> <r_i_glide_hbond>
-0.592933189164006

> <r_i_glide_metal>
0

> <r_i_glide_rewards>
-4.07039928862108

> <r_i_glide_evdw>
-27.3338356018066

> <r_i_glide_ecoul>
-7.08373880386353

> <r_i_glide_erotb>
0.325690258572532

> <r_i_glide_esite>
0

> <r_i_glide_emodel>
-44.5739196566196

> <r_i_glide_energy>
-34.4175744056702

> <r_i_glide_einternal>
3.49578404426575

> <i_i_glide_confnum>
57

> <i_i_glide_posenum>
186

> <r_i_glide_eff_state_penalty>
0

> <i_f3d_flags>
0

> <s_user_duplicate_titles>
282344

> <s_m_subgroup_title>
dock_pv

> <s_m_subgroupid>
dock_pv1

> <b_m_subgroup_collapsed>
0

$$$$
282346
                    3D
 Schrodinger Suite 2021-1.
 51 54  0  0  1  0            999 V2000
   21.8814   18.3867    3.6511 C   0  0  0  0  0  0
   20.5867   17.8416    3.4103 O   0  0  0  0  0  0
   20.1085   16.8438    4.2370 C   0  0  0  0  0  0
   20.8502   16.2548    5.2751 C   0  0  0  0  0  0
   20.2892   15.2512    6.0629 C   0  0  0  0  0  0
   18.9808   14.8332    5.8312 C   0  0  0  0  0  0
   18.2305   15.3995    4.7975 C   0  0  0  0  0  0
   18.8011   16.4012    4.0073 C   0  0  0  0  0  0
   16.8510   14.9057    4.5413 C   0  0  0  0  0  0
   15.6770   15.2392    5.2036 C   0  0  0  0  0  0
   14.6284   14.4330    4.8028 N   0  0  0  0  0  0
   15.0751   13.6627    3.7457 C   0  0  0  0  0  0
   16.4820   13.8415    3.6531 C   0  0  0  0  0  0
   17.1383   12.9250    2.8233 C   0  0  0  0  0  0
   16.4477   12.0330    2.0821 N   0  0  0  0  0  0
   15.0998   12.0508    2.1812 C   0  0  0  0  0  0
   14.3504   12.8177    3.0004 N   0  0  0  0  0  0
   18.5222   12.8406    2.8030 N   0  0  0  0  0  0
   13.2684   14.4526    5.3506 C   0  0  2  0  0  0
   12.3658   13.2170    5.4436 C   0  0  0  0  0  0
   11.1808   14.0259    4.8973 C   0  0  1  0  0  0
   12.2194   15.0352    4.4030 C   0  0  0  0  0  0
   10.3807   13.3099    3.7679 C   0  0  0  0  0  0
    9.1685   13.4944    3.7198 O   0  0  0  0  0  0
   11.0464   12.4758    2.9322 N   0  0  0  0  0  0
   10.5535   11.5068    1.9350 C   0  0  0  0  0  0
    9.1308   11.6438    1.3451 C   0  0  0  0  0  0
    8.9640   12.8329    0.5984 O   0  0  0  0  0  0
   22.0983   19.1535    2.9080 H   0  0  0  0  0  0
   21.9399   18.8555    4.6344 H   0  0  0  0  0  0
   22.6637   17.6326    3.5702 H   0  0  0  0  0  0
   21.8656   16.5576    5.4812 H   0  0  0  0  0  0
   20.8708   14.7963    6.8508 H   0  0  0  0  0  0
   18.5641   14.0454    6.4408 H   0  0  0  0  0  0
   18.2284   16.8390    3.2036 H   0  0  0  0  0  0
   15.5186   15.9547    5.9987 H   0  0  0  0  0  0
   14.5639   11.3509    1.5575 H   0  0  0  0  0  0
   19.0658   13.5204    3.3155 H   0  0  0  0  0  0
   18.9622   12.1754    2.1688 H   0  0  0  0  0  0
   13.3640   14.8330    6.3563 H   0  0  0  0  0  0
   12.1748   12.8330    6.4474 H   0  0  0  0  0  0
   12.7425   12.4330    4.8030 H   0  0  0  0  0  0
   10.5295   14.4316    5.6737 H   0  0  0  0  0  0
   12.5640   14.8329    3.3904 H   0  0  0  0  0  0
   11.9992   16.0936    4.5440 H   0  0  0  0  0  0
   12.0519   12.4722    3.0378 H   0  0  0  0  0  0
   10.6071   10.5256    2.4043 H   0  0  0  0  0  0
   11.2800   11.4464    1.1249 H   0  0  0  0  0  0
    8.3977   11.6626    2.1505 H   0  0  0  0  0  0
    8.8905   10.7802    0.7234 H   0  0  0  0  0  0
    9.4646   12.7552   -0.2176 H   0  0  0  0  0  0
  1  2  1  0  0  0
  1 29  1  0  0  0
  1 30  1  0  0  0
  1 31  1  0  0  0
  2  3  1  0  0  0
  3  8  1  0  0  0
  3  4  2  0  0  0
  4  5  1  0  0  0
  4 32  1  0  0  0
  5  6  2  0  0  0
  5 33  1  0  0  0
  6  7  1  0  0  0
  6 34  1  0  0  0
  7  8  2  0  0  0
  7  9  1  0  0  0
  8 35  1  0  0  0
  9 13  1  0  0  0
  9 10  2  0  0  0
 10 11  1  0  0  0
 10 36  1  0  0  0
 11 12  1  0  0  0
 11 19  1  0  0  0
 12 17  1  0  0  0
 12 13  2  0  0  0
 13 14  1  0  0  0
 14 15  2  0  0  0
 14 18  1  0  0  0
 15 16  1  0  0  0
 16 17  2  0  0  0
 16 37  1  0  0  0
 18 38  1  0  0  0
 18 39  1  0  0  0
 19 22  1  0  0  0
 19 20  1  0  0  0
 19 40  1  0  0  0
 20 21  1  0  0  0
 20 41  1  0  0  0
 20 42  1  0  0  0
 21 22  1  0  0  0
 21 23  1  0  0  0
 21 43  1  0  0  0
 22 44  1  0  0  0
 22 45  1  0  0  0
 23 24  2  0  0  0
 23 25  1  0  0  0
 25 26  1  0  0  0
 25 46  1  0  0  0
 26 27  1  0  0  0
 26 47  1  0  0  0
 26 48  1  0  0  0
 27 28  1  0  0  0
 27 49  1  0  0  0
 27 50  1  0  0  0
 28 51  1  0  0  0
M  END
> <s_m_entry_id>
6508

> <s_m_entry_name>
ligand_docking-pose.19

> <s_m_Source_Path>
/home/csk/Desktop/cluster/DUD-E-result/abl1

> <s_m_Source_File>
ligand_docking-pose.sdf

> <i_m_Source_File_Index>
19

> <i_lp_mmshare_version>
53161

> <r_lp_tautomer_probability>
1

> <s_lp_Force_Field>
OPLS_2005

> <r_lp_Energy>
22.828162

> <b_lp_Chiralities_Consistent>
1

> <s_lp_Variant>
282346-1

> <s_i_glide_gridfile>
glide-grid_2hzi

> <i_i_glide_lignum>
461

> <i_i_glide_rotatable_bonds>
8

> <r_i_docking_score>
-10.6063239585556

> <r_i_glide_ligand_efficiency>
-0.378797284234128

> <r_i_glide_ligand_efficiency_sa>
-1.15025165460418

> <r_i_glide_ligand_efficiency_ln>
-2.44825098483789

> <r_i_glide_gscore>
-10.6063239585556

> <r_i_glide_lipo>
-4.19580710292069

> <r_i_glide_hbond>
-0.608

> <r_i_glide_metal>
0

> <r_i_glide_rewards>
-3.33052409474463

> <r_i_glide_evdw>
-34.0760078430176

> <r_i_glide_ecoul>
-8.75947952270508

> <r_i_glide_erotb>
0.560364746985371

> <r_i_glide_esite>
-0.0146351873190011

> <r_i_glide_emodel>
-48.0806656007783

> <r_i_glide_energy>
-42.8354873657227

> <r_i_glide_einternal>
18.4456939697266

> <i_i_glide_confnum>
47

> <i_i_glide_posenum>
83

> <r_i_glide_eff_state_penalty>
0

> <i_f3d_flags>
0

> <s_user_duplicate_titles>
282346

> <s_m_subgroup_title>
dock_pv

> <s_m_subgroupid>
dock_pv1

> <b_m_subgroup_collapsed>
0

$$$$
281721
                    3D
 Schrodinger Suite 2021-1.
 36 39  0  0  1  0            999 V2000
    9.8032   13.6325    5.0073 C   0  0  0  0  0  0
   10.5987   13.5107    6.1419 C   0  0  0  0  0  0
   11.9833   13.6402    6.0313 C   0  0  0  0  0  0
   12.5775   13.9926    4.8141 C   0  0  0  0  0  0
   11.7681   14.0331    3.6855 C   0  0  0  0  0  0
   10.3883   13.8608    3.7671 C   0  0  0  0  0  0
   14.0410   14.3224    4.6474 C   0  0  0  0  0  0
   14.8251   15.2829    5.2848 C   0  0  0  0  0  0
   16.1450   15.2445    4.8740 N   0  0  0  0  0  0
   16.2738   14.1836    4.0032 C   0  0  0  0  0  0
   14.9761   13.6365    3.7963 C   0  0  0  0  0  0
   14.9355   12.5770    2.8855 C   0  0  0  0  0  0
   16.0622   12.0332    2.3730 N   0  0  0  0  0  0
   17.2377   12.6013    2.7293 C   0  0  0  0  0  0
   17.4144   13.7073    3.4850 N   0  0  0  0  0  0
   13.7274   12.0330    2.4949 N   0  0  0  0  0  0
   17.2299   16.1161    5.3476 C   0  0  0  0  0  0
   18.4642   15.5107    6.0425 C   0  0  0  0  0  0
   19.3138   16.6131    5.3953 C   0  0  0  0  0  0
   18.2181   16.7336    4.3358 C   0  0  0  0  0  0
    8.7313   13.5201    5.0870 H   0  0  0  0  0  0
   10.1459   13.3223    7.1047 H   0  0  0  0  0  0
   12.5639   13.6175    6.9367 H   0  0  0  0  0  0
   12.2317   14.2615    2.7456 H   0  0  0  0  0  0
    9.7755   13.9264    2.8800 H   0  0  0  0  0  0
   14.5589   16.0233    6.0208 H   0  0  0  0  0  0
   18.1389   12.1399    2.3537 H   0  0  0  0  0  0
   12.8860   12.3313    2.9648 H   0  0  0  0  0  0
   13.7601   11.1389    2.0030 H   0  0  0  0  0  0
   16.7528   16.8835    5.9630 H   0  0  0  0  0  0
   18.4265   15.4961    7.1315 H   0  0  0  0  0  0
   18.7237   14.5079    5.6973 H   0  0  0  0  0  0
   19.4232   17.5119    6.0029 H   0  0  0  0  0  0
   20.2922   16.2999    5.0276 H   0  0  0  0  0  0
   18.4072   16.1217    3.4522 H   0  0  0  0  0  0
   17.9850   17.7421    4.0006 H   0  0  0  0  0  0
  1  6  1  0  0  0
  1  2  2  0  0  0
  1 21  1  0  0  0
  2  3  1  0  0  0
  2 22  1  0  0  0
  3  4  2  0  0  0
  3 23  1  0  0  0
  4  5  1  0  0  0
  4  7  1  0  0  0
  5  6  2  0  0  0
  5 24  1  0  0  0
  6 25  1  0  0  0
  7 11  1  0  0  0
  7  8  2  0  0  0
  8  9  1  0  0  0
  8 26  1  0  0  0
  9 10  1  0  0  0
  9 17  1  0  0  0
 10 15  1  0  0  0
 10 11  2  0  0  0
 11 12  1  0  0  0
 12 13  2  0  0  0
 12 16  1  0  0  0
 13 14  1  0  0  0
 14 15  2  0  0  0
 14 27  1  0  0  0
 16 28  1  0  0  0
 16 29  1  0  0  0
 17 20  1  0  0  0
 17 18  1  0  0  0
 17 30  1  0  0  0
 18 19  1  0  0  0
 18 31  1  0  0  0
 18 32  1  0  0  0
 19 20  1  0  0  0
 19 33  1  0  0  0
 19 34  1  0  0  0
 20 35  1  0  0  0
 20 36  1  0  0  0
M  END
> <s_m_entry_id>
6509

> <s_m_entry_name>
ligand_docking-pose.20

> <s_m_Source_Path>
/home/csk/Desktop/cluster/DUD-E-result/abl1

> <s_m_Source_File>
ligand_docking-pose.sdf

> <i_m_Source_File_Index>
20

> <i_lp_mmshare_version>
53161

> <r_lp_tautomer_probability>
1

> <s_lp_Force_Field>
OPLS_2005

> <r_lp_Energy>
23.902026

> <b_lp_Chiralities_Consistent>
1

> <s_lp_Variant>
281721-1

> <s_i_glide_gridfile>
glide-grid_2hzi

> <i_i_glide_lignum>
11

> <i_i_glide_rotatable_bonds>
2

> <r_i_docking_score>
-10.5821787277047

> <r_i_glide_ligand_efficiency>
-0.529108936385235

> <r_i_glide_ligand_efficiency_sa>
-1.4362226165877

> <r_i_glide_ligand_efficiency_ln>
-2.64837031193094

> <r_i_glide_gscore>
-10.5821787277047

> <r_i_glide_lipo>
-3.77397712142912

> <r_i_glide_hbond>
-0.599738585692958

> <r_i_glide_metal>
0

> <r_i_glide_rewards>
-4.09033094966466

> <r_i_glide_evdw>
-27.5729007720947

> <r_i_glide_ecoul>
-7.3044319152832

> <r_i_glide_erotb>
0.35617775497926

> <r_i_glide_esite>
0

> <r_i_glide_emodel>
-49.0201874113768

> <r_i_glide_energy>
-34.8773326873779

> <r_i_glide_einternal>
2.24059104919434

> <i_i_glide_confnum>
16

> <i_i_glide_posenum>
32

> <r_i_glide_eff_state_penalty>
0

> <i_f3d_flags>
0

> <s_user_duplicate_titles>
281721

> <s_m_subgroup_title>
dock_pv

> <s_m_subgroupid>
dock_pv1

> <b_m_subgroup_collapsed>
0

$$$$
281928
                    3D
 Schrodinger Suite 2021-1.
 37 40  0  0  1  0            999 V2000
   10.8275   13.2334    3.4515 C   0  0  0  0  0  0
   12.1579   13.6330    3.2704 C   0  0  0  0  0  0
   12.9408   14.0611    4.3435 C   0  0  0  0  0  0
   12.3616   14.0330    5.6030 C   0  0  0  0  0  0
   11.0405   13.6330    5.8065 C   0  0  0  0  0  0
   10.2551   13.2625    4.7197 C   0  0  0  0  0  0
   10.5202   13.6330    7.0716 O   0  0  0  0  0  0
   14.3876   14.4537    4.2727 C   0  0  0  0  0  0
   15.0156   15.4900    4.9514 C   0  0  0  0  0  0
   16.3905   15.4487    4.8065 N   0  0  0  0  0  0
   16.6875   14.3954    3.9629 C   0  0  0  0  0  0
   15.4592   13.7787    3.5935 C   0  0  0  0  0  0
   15.5954   12.6693    2.7525 C   0  0  0  0  0  0
   16.7993   12.1677    2.4030 N   0  0  0  0  0  0
   17.8849   12.8348    2.8537 C   0  0  0  0  0  0
   17.9041   13.9626    3.6030 N   0  0  0  0  0  0
   14.4777   12.0330    2.2624 N   0  0  0  0  0  0
   17.3462   16.3028    5.5239 C   0  0  0  0  0  0
   18.5554   15.6330    6.1993 C   0  0  0  0  0  0
   19.4888   16.2635    5.1589 C   0  0  0  0  0  0
   18.3416   17.1941    4.7550 C   0  0  0  0  0  0
   10.2360   12.9102    2.6069 H   0  0  0  0  0  0
   12.5640   13.6330    2.2773 H   0  0  0  0  0  0
   12.9640   14.3213    6.4490 H   0  0  0  0  0  0
    9.2275   12.9610    4.8641 H   0  0  0  0  0  0
   11.1313   13.9850    7.7301 H   0  0  0  0  0  0
   14.5801   16.2316    5.6030 H   0  0  0  0  0  0
   18.8491   12.4330    2.5847 H   0  0  0  0  0  0
   13.5801   12.3039    2.6350 H   0  0  0  0  0  0
   14.5624   11.1641    1.7490 H   0  0  0  0  0  0
   16.7475   16.8796    6.2321 H   0  0  0  0  0  0
   18.7182   16.0024    7.2030 H   0  0  0  0  0  0
   18.5611   14.5423    6.2189 H   0  0  0  0  0  0
   20.3669   16.7630    5.5707 H   0  0  0  0  0  0
   19.7996   15.5810    4.3667 H   0  0  0  0  0  0
   18.1640   17.2755    3.6817 H   0  0  0  0  0  0
   18.4551   18.1889    5.1884 H   0  0  0  0  0  0
  1  6  1  0  0  0
  1  2  2  0  0  0
  1 22  1  0  0  0
  2  3  1  0  0  0
  2 23  1  0  0  0
  3  4  2  0  0  0
  3  8  1  0  0  0
  4  5  1  0  0  0
  4 24  1  0  0  0
  5  6  2  0  0  0
  5  7  1  0  0  0
  6 25  1  0  0  0
  7 26  1  0  0  0
  8 12  1  0  0  0
  8  9  2  0  0  0
  9 10  1  0  0  0
  9 27  1  0  0  0
 10 11  1  0  0  0
 10 18  1  0  0  0
 11 16  1  0  0  0
 11 12  2  0  0  0
 12 13  1  0  0  0
 13 14  2  0  0  0
 13 17  1  0  0  0
 14 15  1  0  0  0
 15 16  2  0  0  0
 15 28  1  0  0  0
 17 29  1  0  0  0
 17 30  1  0  0  0
 18 21  1  0  0  0
 18 19  1  0  0  0
 18 31  1  0  0  0
 19 20  1  0  0  0
 19 32  1  0  0  0
 19 33  1  0  0  0
 20 21  1  0  0  0
 20 34  1  0  0  0
 20 35  1  0  0  0
 21 36  1  0  0  0
 21 37  1  0  0  0
M  END
> <s_m_entry_id>
6510

> <s_m_entry_name>
ligand_docking-pose.21

> <s_m_Source_Path>
/home/csk/Desktop/cluster/DUD-E-result/abl1

> <s_m_Source_File>
ligand_docking-pose.sdf

> <i_m_Source_File_Index>
21

> <i_lp_mmshare_version>
53161

> <r_lp_tautomer_probability>
0.999999999997365

> <s_lp_Force_Field>
OPLS_2005

> <r_lp_Energy>
23.202368

> <b_lp_Chiralities_Consistent>
1

> <s_lp_Variant>
281928-1

> <s_i_glide_gridfile>
glide-grid_2hzi

> <i_i_glide_lignum>
109

> <i_i_glide_rotatable_bonds>
3

> <r_i_docking_score>
-10.5488140663288

> <r_i_glide_ligand_efficiency>
-0.50232447934899

> <r_i_glide_ligand_efficiency_sa>
-1.38587514905755

> <r_i_glide_ligand_efficiency_ln>
-2.6081729620139

> <r_i_glide_gscore>
-10.5488140663288

> <r_i_glide_lipo>
-3.79437403338757

> <r_i_glide_hbond>
-0.763889424029637

> <r_i_glide_metal>
0

> <r_i_glide_rewards>
-3.70866225797601

> <r_i_glide_evdw>
-27.8785285949707

> <r_i_glide_ecoul>
-8.06455039978027

> <r_i_glide_erotb>
0.321720638780007

> <r_i_glide_esite>
0

> <r_i_glide_emodel>
-50.3832895246422

> <r_i_glide_energy>
-35.943078994751

> <r_i_glide_einternal>
4.63695478439331

> <i_i_glide_confnum>
38

> <i_i_glide_posenum>
206

> <r_i_glide_eff_state_penalty>
0

> <i_f3d_flags>
0

> <s_user_duplicate_titles>
281928

> <s_m_subgroup_title>
dock_pv

> <s_m_subgroupid>
dock_pv1

> <b_m_subgroup_collapsed>
0

$$$$
282182
                    3D
 Schrodinger Suite 2021-1.
 40 43  0  0  1  0            999 V2000
   20.0940   17.3223    1.4949 C   0  0  0  0  0  0
   20.6314   17.2568    2.8081 O   0  0  0  0  0  0
   19.9201   16.5878    3.7821 C   0  0  0  0  0  0
   20.5945   16.3191    4.9724 C   0  0  0  0  0  0
   19.9611   15.6340    6.0056 C   0  0  0  0  0  0
   18.6341   15.2330    5.8686 C   0  0  0  0  0  0
   17.9460   15.4667    4.6757 C   0  0  0  0  0  0
   18.5895   16.1563    3.6449 C   0  0  0  0  0  0
   16.5662   14.9489    4.4553 C   0  0  0  0  0  0
   15.3909   15.2844    5.1069 C   0  0  0  0  0  0
   14.3232   14.5290    4.6471 N   0  0  0  0  0  0
   14.7875   13.6995    3.6528 C   0  0  0  0  0  0
   16.2006   13.8543    3.6030 C   0  0  0  0  0  0
   16.8645   12.9175    2.8030 C   0  0  0  0  0  0
   16.1817   12.0332    2.0433 N   0  0  0  0  0  0
   14.8324   12.0581    2.1266 C   0  0  0  0  0  0
   14.0696   12.8330    2.9293 N   0  0  0  0  0  0
   18.2490   12.8330    2.8030 N   0  0  0  0  0  0
   12.9746   14.5490    5.2030 C   0  0  0  0  0  0
   11.7169   14.8327    4.3814 C   0  0  0  0  0  0
   10.9226   13.9058    5.2970 C   0  0  0  0  0  0
   12.2630   13.2812    5.6806 C   0  0  0  0  0  0
   20.8645   17.6576    0.8029 H   0  0  0  0  0  0
   19.7640   16.3422    1.1536 H   0  0  0  0  0  0
   19.2590   18.0220    1.4421 H   0  0  0  0  0  0
   21.6212   16.6345    5.0882 H   0  0  0  0  0  0
   20.4964   15.4267    6.9203 H   0  0  0  0  0  0
   18.1640   14.7100    6.6847 H   0  0  0  0  0  0
   18.0401   16.3497    2.7396 H   0  0  0  0  0  0
   15.2337   16.0070    5.8958 H   0  0  0  0  0  0
   14.3008   11.3769    1.4797 H   0  0  0  0  0  0
   18.7822   13.4978    3.3454 H   0  0  0  0  0  0
   18.7059   12.1628    2.1903 H   0  0  0  0  0  0
   13.0950   15.2330    6.0030 H   0  0  0  0  0  0
   11.4000   15.8750    4.4030 H   0  0  0  0  0  0
   11.7730   14.4330    3.3639 H   0  0  0  0  0  0
   10.4200   14.4192    6.1187 H   0  0  0  0  0  0
   10.2201   13.2368    4.7975 H   0  0  0  0  0  0
   12.5640   12.4330    5.0767 H   0  0  0  0  0  0
   12.3429   13.0490    6.7399 H   0  0  0  0  0  0
  1  2  1  0  0  0
  1 23  1  0  0  0
  1 24  1  0  0  0
  1 25  1  0  0  0
  2  3  1  0  0  0
  3  8  1  0  0  0
  3  4  2  0  0  0
  4  5  1  0  0  0
  4 26  1  0  0  0
  5  6  2  0  0  0
  5 27  1  0  0  0
  6  7  1  0  0  0
  6 28  1  0  0  0
  7  8  2  0  0  0
  7  9  1  0  0  0
  8 29  1  0  0  0
  9 13  1  0  0  0
  9 10  2  0  0  0
 10 11  1  0  0  0
 10 30  1  0  0  0
 11 12  1  0  0  0
 11 19  1  0  0  0
 12 17  1  0  0  0
 12 13  2  0  0  0
 13 14  1  0  0  0
 14 15  2  0  0  0
 14 18  1  0  0  0
 15 16  1  0  0  0
 16 17  2  0  0  0
 16 31  1  0  0  0
 18 32  1  0  0  0
 18 33  1  0  0  0
 19 22  1  0  0  0
 19 20  1  0  0  0
 19 34  1  0  0  0
 20 21  1  0  0  0
 20 35  1  0  0  0
 20 36  1  0  0  0
 21 22  1  0  0  0
 21 37  1  0  0  0
 21 38  1  0  0  0
 22 39  1  0  0  0
 22 40  1  0  0  0
M  END
> <s_m_entry_id>
6511

> <s_m_entry_name>
ligand_docking-pose.22

> <s_m_Source_Path>
/home/csk/Desktop/cluster/DUD-E-result/abl1

> <s_m_Source_File>
ligand_docking-pose.sdf

> <i_m_Source_File_Index>
22

> <i_lp_mmshare_version>
53161

> <r_lp_tautomer_probability>
1

> <s_lp_Force_Field>
OPLS_2005

> <r_lp_Energy>
27.481651

> <b_lp_Chiralities_Consistent>
1

> <s_lp_Variant>
282182-1

> <s_i_glide_gridfile>
glide-grid_2hzi

> <i_i_glide_lignum>
456

> <i_i_glide_rotatable_bonds>
3

> <r_i_docking_score>
-10.5178593621747

> <r_i_glide_ligand_efficiency>
-0.478084516462486

> <r_i_glide_ligand_efficiency_sa>
-1.33961161712498

> <r_i_glide_ligand_efficiency_ln>
-2.57094847635733

> <r_i_glide_gscore>
-10.5178593621747

> <r_i_glide_lipo>
-3.90391621104596

> <r_i_glide_hbond>
-0.608

> <r_i_glide_metal>
0

> <r_i_glide_rewards>
-3.85265875213484

> <r_i_glide_evdw>
-29.0396595001221

> <r_i_glide_ecoul>
-6.64528894424438

> <r_i_glide_erotb>
0.295491917648861

> <r_i_glide_esite>
0

> <r_i_glide_emodel>
-47.491786759207

> <r_i_glide_energy>
-35.6849484443665

> <r_i_glide_einternal>
4.32152223587036

> <i_i_glide_confnum>
13

> <i_i_glide_posenum>
203

> <r_i_glide_eff_state_penalty>
0

> <i_f3d_flags>
0

> <s_user_duplicate_titles>
282182

> <s_m_subgroup_title>
dock_pv

> <s_m_subgroupid>
dock_pv1

> <b_m_subgroup_collapsed>
0

$$$$
282315
                    3D
 Schrodinger Suite 2021-1.
 52 55  0  0  1  0            999 V2000
   22.3437   18.9511    4.5586 C   0  0  0  0  0  0
   21.0626   18.4329    4.2095 O   0  0  0  0  0  0
   20.6492   17.2368    4.7609 C   0  0  0  0  0  0
   21.4459   16.4408    5.6022 C   0  0  0  0  0  0
   20.9543   15.2428    6.1137 C   0  0  0  0  0  0
   19.6619   14.8330    5.7983 C   0  0  0  0  0  0
   18.8576   15.6031    4.9568 C   0  0  0  0  0  0
   19.3541   16.8066    4.4485 C   0  0  0  0  0  0
   17.4764   15.1290    4.6834 C   0  0  0  0  0  0
   16.3102   15.6330    5.2301 C   0  0  0  0  0  0
   15.2393   14.8283    4.8908 N   0  0  0  0  0  0
   15.6505   13.9030    3.9697 C   0  0  0  0  0  0
   17.0491   14.0330    3.8454 C   0  0  0  0  0  0
   17.6178   13.0566    3.0216 C   0  0  0  0  0  0
   16.8978   12.0928    2.4030 N   0  0  0  0  0  0
   15.5616   12.1329    2.5780 C   0  0  0  0  0  0
   14.8806   12.9986    3.3505 N   0  0  0  0  0  0
   18.9640   13.0267    2.8030 N   0  0  0  0  0  0
   13.8759   14.9942    5.3221 C   0  0  2  0  0  0
   12.8771   13.8439    5.6013 C   0  0  0  0  0  0
   11.8563   14.5209    4.6853 C   0  0  1  0  0  0
   12.9638   15.4814    4.2203 C   0  0  0  0  0  0
   11.1417   13.5577    3.6943 C   0  0  0  0  0  0
   12.0518   12.8330    2.8054 N   0  0  2  0  0  0
   11.5745   11.5614    2.2624 C   0  0  0  0  0  0
   10.2176   11.5811    1.5202 C   0  0  0  0  0  0
    9.1130   11.6331    2.4052 O   0  0  0  0  0  0
   22.5351   19.8649    3.9961 H   0  0  0  0  0  0
   22.3939   19.2009    5.6197 H   0  0  0  0  0  0
   23.1416   18.2462    4.3229 H   0  0  0  0  0  0
   22.4512   16.7301    5.8688 H   0  0  0  0  0  0
   21.5771   14.6335    6.7517 H   0  0  0  0  0  0
   19.2863   13.9052    6.2049 H   0  0  0  0  0  0
   18.7336   17.4132    3.8055 H   0  0  0  0  0  0
   16.1677   16.4539    5.9186 H   0  0  0  0  0  0
   14.9641   11.3916    2.0642 H   0  0  0  0  0  0
   19.5538   13.7688    3.1547 H   0  0  0  0  0  0
   19.3188   12.3098    2.1700 H   0  0  0  0  0  0
   13.9660   15.6330    6.1766 H   0  0  0  0  0  0
   12.5629   13.7613    6.6422 H   0  0  0  0  0  0
   13.2105   12.8941    5.2029 H   0  0  0  0  0  0
   11.0756   15.0684    5.2044 H   0  0  0  0  0  0
   13.3640   15.2332    3.2337 H   0  0  0  0  0  0
   12.7509   16.5446    4.3458 H   0  0  0  0  0  0
   10.4252   14.1129    3.0886 H   0  0  0  0  0  0
   10.5764   12.8333    4.2826 H   0  0  0  0  0  0
   12.9957   12.7724    3.1814 H   0  0  0  0  0  0
   11.6003   10.7821    3.0165 H   0  0  0  0  0  0
   12.3341   11.2557    1.5431 H   0  0  0  0  0  0
   10.1217   10.6767    0.9179 H   0  0  0  0  0  0
   10.1639   12.4204    0.8257 H   0  0  0  0  0  0
    8.9834   10.7598    2.7987 H   0  0  0  0  0  0
  1  2  1  0  0  0
  1 28  1  0  0  0
  1 29  1  0  0  0
  1 30  1  0  0  0
  2  3  1  0  0  0
  3  8  1  0  0  0
  3  4  2  0  0  0
  4  5  1  0  0  0
  4 31  1  0  0  0
  5  6  2  0  0  0
  5 32  1  0  0  0
  6  7  1  0  0  0
  6 33  1  0  0  0
  7  8  2  0  0  0
  7  9  1  0  0  0
  8 34  1  0  0  0
  9 13  1  0  0  0
  9 10  2  0  0  0
 10 11  1  0  0  0
 10 35  1  0  0  0
 11 12  1  0  0  0
 11 19  1  0  0  0
 12 17  1  0  0  0
 12 13  2  0  0  0
 13 14  1  0  0  0
 14 15  2  0  0  0
 14 18  1  0  0  0
 15 16  1  0  0  0
 16 17  2  0  0  0
 16 36  1  0  0  0
 18 37  1  0  0  0
 18 38  1  0  0  0
 19 22  1  0  0  0
 19 20  1  0  0  0
 19 39  1  0  0  0
 20 21  1  0  0  0
 20 40  1  0  0  0
 20 41  1  0  0  0
 21 22  1  0  0  0
 21 23  1  0  0  0
 21 42  1  0  0  0
 22 43  1  0  0  0
 22 44  1  0  0  0
 23 24  1  0  0  0
 23 45  1  0  0  0
 23 46  1  0  0  0
 24 25  1  0  0  0
 24 47  1  0  0  0
 25 26  1  0  0  0
 25 48  1  0  0  0
 25 49  1  0  0  0
 26 27  1  0  0  0
 26 50  1  0  0  0
 26 51  1  0  0  0
 27 52  1  0  0  0
M  END
> <s_m_entry_id>
6513

> <s_m_entry_name>
ligand_docking-pose.24

> <s_m_Source_Path>
/home/csk/Desktop/cluster/DUD-E-result/abl1

> <s_m_Source_File>
ligand_docking-pose.sdf

> <i_m_Source_File_Index>
24

> <i_lp_mmshare_version>
53161

> <r_lp_tautomer_probability>
1

> <s_lp_Force_Field>
OPLS_2005

> <r_lp_Energy>
34.168758

> <b_lp_Chiralities_Consistent>
1

> <s_lp_Variant>
282315-1

> <s_i_glide_gridfile>
glide-grid_2hzi

> <i_i_glide_lignum>
457

> <i_i_glide_rotatable_bonds>
8

> <r_i_docking_score>
-10.4365145117883

> <r_i_glide_ligand_efficiency>
-0.386537574510677

> <r_i_glide_ligand_efficiency_sa>
-1.15961272225807

> <r_i_glide_ligand_efficiency_ln>
-2.42944851895541

> <r_i_glide_gscore>
-10.4365145117883

> <r_i_glide_lipo>
-4.43705871983774

> <r_i_glide_hbond>
-0.873384074106904

> <r_i_glide_metal>
0

> <r_i_glide_rewards>
-2.94612965228284

> <r_i_glide_evdw>
-29.7660388946533

> <r_i_glide_ecoul>
-10.3165645599365

> <r_i_glide_erotb>
0.855844563162356

> <r_i_glide_esite>
0

> <r_i_glide_emodel>
-48.0560558430017

> <r_i_glide_energy>
-40.0826034545898

> <r_i_glide_einternal>
11.1445980072021

> <i_i_glide_confnum>
81

> <i_i_glide_posenum>
174

> <r_i_glide_eff_state_penalty>
0

> <i_f3d_flags>
0

> <s_user_duplicate_titles>
282315

> <s_m_subgroup_title>
dock_pv

> <s_m_subgroupid>
dock_pv1

> <b_m_subgroup_collapsed>
0

$$$$
281926
                    3D
 Schrodinger Suite 2021-1.
 37 40  0  0  1  0            999 V2000
    9.8494   13.6297    4.9296 C   0  0  0  0  0  0
   10.4613   13.8512    3.7012 C   0  0  0  0  0  0
   11.8419   14.0318    3.6464 C   0  0  0  0  0  0
   12.6246   14.0002    4.7957 C   0  0  0  0  0  0
   12.0035   13.6627    6.0029 C   0  0  0  0  0  0
   10.6182   13.5290    6.0835 C   0  0  0  0  0  0
   14.0907   14.3281    4.6610 C   0  0  0  0  0  0
   14.8603   15.2541    5.3584 C   0  0  0  0  0  0
   16.1933   15.2361    4.9850 N   0  0  0  0  0  0
   16.3335   14.2313    4.0430 C   0  0  0  0  0  0
   15.0445   13.6657    3.8120 C   0  0  0  0  0  0
   15.0252   12.6039    2.8987 C   0  0  0  0  0  0
   16.1641   12.0686    2.4030 N   0  0  0  0  0  0
   17.3250   12.6659    2.7659 C   0  0  0  0  0  0
   17.4807   13.7781    3.5212 N   0  0  0  0  0  0
   13.8246   12.0352    2.5139 N   0  0  0  0  0  0
   17.2690   16.0299    5.6103 C   0  0  2  0  0  0
   18.1641   16.9272    4.7355 C   0  0  0  0  0  0
   19.3529   16.0025    4.9975 C   0  0  2  0  0  0
   18.5554   15.3239    6.1110 C   0  0  0  0  0  0
   20.5839   16.6004    5.3403 O   0  0  0  0  0  0
    8.7770   13.5113    4.9862 H   0  0  0  0  0  0
    9.8647   13.9059    2.8028 H   0  0  0  0  0  0
   12.3255   14.2531    2.7130 H   0  0  0  0  0  0
   12.5605   13.6329    6.9234 H   0  0  0  0  0  0
   10.1454   13.3455    7.0375 H   0  0  0  0  0  0
   14.5638   15.9397    6.1346 H   0  0  0  0  0  0
   18.2354   12.2155    2.4028 H   0  0  0  0  0  0
   12.9831   12.3501    2.9743 H   0  0  0  0  0  0
   13.8279   11.1501    2.0091 H   0  0  0  0  0  0
   16.7853   16.6004    6.4057 H   0  0  0  0  0  0
   17.8755   16.9946    3.6871 H   0  0  0  0  0  0
   18.3157   17.9265    5.1463 H   0  0  0  0  0  0
   19.5634   15.3466    4.1502 H   0  0  0  0  0  0
   18.8671   15.6330    7.1083 H   0  0  0  0  0  0
   18.5623   14.2354    6.0568 H   0  0  0  0  0  0
   21.2691   15.9272    5.3199 H   0  0  0  0  0  0
  1  6  1  0  0  0
  1  2  2  0  0  0
  1 22  1  0  0  0
  2  3  1  0  0  0
  2 23  1  0  0  0
  3  4  2  0  0  0
  3 24  1  0  0  0
  4  5  1  0  0  0
  4  7  1  0  0  0
  5  6  2  0  0  0
  5 25  1  0  0  0
  6 26  1  0  0  0
  7 11  1  0  0  0
  7  8  2  0  0  0
  8  9  1  0  0  0
  8 27  1  0  0  0
  9 10  1  0  0  0
  9 17  1  0  0  0
 10 15  1  0  0  0
 10 11  2  0  0  0
 11 12  1  0  0  0
 12 13  2  0  0  0
 12 16  1  0  0  0
 13 14  1  0  0  0
 14 15  2  0  0  0
 14 28  1  0  0  0
 16 29  1  0  0  0
 16 30  1  0  0  0
 17 20  1  0  0  0
 17 18  1  0  0  0
 17 31  1  0  0  0
 18 19  1  0  0  0
 18 32  1  0  0  0
 18 33  1  0  0  0
 19 20  1  0  0  0
 19 21  1  0  0  0
 19 34  1  0  0  0
 20 35  1  0  0  0
 20 36  1  0  0  0
 21 37  1  0  0  0
M  END
> <s_m_entry_id>
6514

> <s_m_entry_name>
ligand_docking-pose.25

> <s_m_Source_Path>
/home/csk/Desktop/cluster/DUD-E-result/abl1

> <s_m_Source_File>
ligand_docking-pose.sdf

> <i_m_Source_File_Index>
25

> <i_lp_mmshare_version>
53161

> <r_lp_tautomer_probability>
1

> <s_lp_Force_Field>
OPLS_2005

> <r_lp_Energy>
21.351851

> <b_lp_Chiralities_Consistent>
1

> <s_lp_Variant>
281926-2

> <s_i_glide_gridfile>
glide-grid_2hzi

> <i_i_glide_lignum>
14

> <i_i_glide_rotatable_bonds>
3

> <r_i_docking_score>
-10.4078009825995

> <r_i_glide_ligand_efficiency>
-0.495609570599975

> <r_i_glide_ligand_efficiency_sa>
-1.36734922498649

> <r_i_glide_ligand_efficiency_ln>
-2.57330776200559

> <r_i_glide_gscore>
-10.4078009825995

> <r_i_glide_lipo>
-3.75448903898264

> <r_i_glide_hbond>
-0.595846647866248

> <r_i_glide_metal>
0

> <r_i_glide_rewards>
-3.73276662396083

> <r_i_glide_evdw>
-29.367094039917

> <r_i_glide_ecoul>
-7.85376405715942

> <r_i_glide_erotb>
0.321720638780007

> <r_i_glide_esite>
0

> <r_i_glide_emodel>
-52.1256344014298

> <r_i_glide_energy>
-37.2208580970764

> <r_i_glide_einternal>
4.49491262435913

> <i_i_glide_confnum>
30

> <i_i_glide_posenum>
293

> <r_i_glide_eff_state_penalty>
0

> <i_f3d_flags>
0

> <s_user_duplicate_titles>
281926

> <s_m_subgroup_title>
dock_pv

> <s_m_subgroupid>
dock_pv1

> <b_m_subgroup_collapsed>
0

$$$$
281861
                    3D
 Schrodinger Suite 2021-1.
 40 43  0  0  1  0            999 V2000
   12.1687   13.6427    3.4039 C   0  0  0  0  0  0
   10.8237   13.3082    3.5793 C   0  0  0  0  0  0
   10.2606   13.3408    4.8475 C   0  0  0  0  0  0
   11.0579   13.6346    5.9431 C   0  0  0  0  0  0
   12.3808   14.0328    5.7405 C   0  0  0  0  0  0
   12.9601   14.0638    4.4785 C   0  0  0  0  0  0
   14.4208   14.4482    4.3830 C   0  0  0  0  0  0
   15.1072   15.4702    5.0483 C   0  0  0  0  0  0
   16.4733   15.4369    4.8026 N   0  0  0  0  0  0
   16.7081   14.3609    3.9744 C   0  0  0  0  0  0
   15.4573   13.7619    3.6570 C   0  0  0  0  0  0
   15.5506   12.6572    2.8037 C   0  0  0  0  0  0
   16.7348   12.1487    2.4029 N   0  0  0  0  0  0
   17.8428   12.8110    2.8030 C   0  0  0  0  0  0
   17.9054   13.9247    3.5630 N   0  0  0  0  0  0
   14.4107   12.0330    2.3541 N   0  0  0  0  0  0
   17.5140   16.3320    5.3486 C   0  0  0  0  0  0
   18.5414   15.5718    6.2210 C   0  0  0  0  0  0
   19.9190   15.7400    5.5690 C   0  0  0  0  0  0
   19.8072   17.0564    4.8105 C   0  0  0  0  0  0
   18.3783   17.0316    4.2668 C   0  0  0  0  0  0
    8.9340   13.0614    5.0248 O   0  0  0  0  0  0
   12.5638   13.6646    2.4031 H   0  0  0  0  0  0
   10.2198   13.0423    2.7247 H   0  0  0  0  0  0
   10.6400   13.6325    6.9396 H   0  0  0  0  0  0
   12.9641   14.3154    6.5994 H   0  0  0  0  0  0
   14.7195   16.2237    5.7151 H   0  0  0  0  0  0
   18.7909   12.4330    2.4594 H   0  0  0  0  0  0
   13.5354   12.2979    2.7788 H   0  0  0  0  0  0
   14.4708   11.1583    1.8446 H   0  0  0  0  0  0
   16.9834   17.0558    5.9705 H   0  0  0  0  0  0
   18.5595   16.0274    7.2028 H   0  0  0  0  0  0
   18.3047   14.5198    6.3743 H   0  0  0  0  0  0
   20.7293   15.7489    6.2995 H   0  0  0  0  0  0
   20.1157   14.9210    4.8752 H   0  0  0  0  0  0
   19.9426   17.9000    5.4897 H   0  0  0  0  0  0
   20.5532   17.1433    4.0193 H   0  0  0  0  0  0
   18.3838   16.4789    3.3271 H   0  0  0  0  0  0
   18.0342   18.0330    4.0317 H   0  0  0  0  0  0
    8.5002   12.7502    4.2269 H   0  0  0  0  0  0
  1  6  1  0  0  0
  1  2  2  0  0  0
  1 23  1  0  0  0
  2  3  1  0  0  0
  2 24  1  0  0  0
  3  4  2  0  0  0
  3 22  1  0  0  0
  4  5  1  0  0  0
  4 25  1  0  0  0
  5  6  2  0  0  0
  5 26  1  0  0  0
  6  7  1  0  0  0
  7 11  1  0  0  0
  7  8  2  0  0  0
  8  9  1  0  0  0
  8 27  1  0  0  0
  9 10  1  0  0  0
  9 17  1  0  0  0
 10 15  1  0  0  0
 10 11  2  0  0  0
 11 12  1  0  0  0
 12 13  2  0  0  0
 12 16  1  0  0  0
 13 14  1  0  0  0
 14 15  2  0  0  0
 14 28  1  0  0  0
 16 29  1  0  0  0
 16 30  1  0  0  0
 17 21  1  0  0  0
 17 18  1  0  0  0
 17 31  1  0  0  0
 18 19  1  0  0  0
 18 32  1  0  0  0
 18 33  1  0  0  0
 19 20  1  0  0  0
 19 34  1  0  0  0
 19 35  1  0  0  0
 20 21  1  0  0  0
 20 36  1  0  0  0
 20 37  1  0  0  0
 21 38  1  0  0  0
 21 39  1  0  0  0
 22 40  1  0  0  0
M  END
> <s_m_entry_id>
6515

> <s_m_entry_name>
ligand_docking-pose.26

> <s_m_Source_Path>
/home/csk/Desktop/cluster/DUD-E-result/abl1

> <s_m_Source_File>
ligand_docking-pose.sdf

> <i_m_Source_File_Index>
26

> <i_lp_mmshare_version>
53161

> <r_lp_tautomer_probability>
0.999999999997365

> <s_lp_Force_Field>
OPLS_2005

> <r_lp_Energy>
32.771729

> <b_lp_Chiralities_Consistent>
1

> <s_lp_Variant>
281861-1

> <s_i_glide_gridfile>
glide-grid_2hzi

> <i_i_glide_lignum>
16

> <i_i_glide_rotatable_bonds>
3

> <r_i_docking_score>
-10.3414345168742

> <r_i_glide_ligand_efficiency>
-0.470065205312462

> <r_i_glide_ligand_efficiency_sa>
-1.317141191901

> <r_i_glide_ligand_efficiency_ln>
-2.52782380891328

> <r_i_glide_gscore>
-10.3414345168742

> <r_i_glide_lipo>
-4.11466231226577

> <r_i_glide_hbond>
-0.520908665968771

> <r_i_glide_metal>
0

> <r_i_glide_rewards>
-3.91781093972506

> <r_i_glide_evdw>
-27.9077892303467

> <r_i_glide_ecoul>
-4.58770036697388

> <r_i_glide_erotb>
0.295491917648861

> <r_i_glide_esite>
0

> <r_i_glide_emodel>
-43.4608537967541

> <r_i_glide_energy>
-32.4954895973206

> <r_i_glide_einternal>
1.50995171070099

> <i_i_glide_confnum>
44

> <i_i_glide_posenum>
167

> <r_i_glide_eff_state_penalty>
0

> <i_f3d_flags>
0

> <s_user_duplicate_titles>
281861

> <s_m_subgroup_title>
dock_pv

> <s_m_subgroupid>
dock_pv1

> <b_m_subgroup_collapsed>
0

$$$$
281925
                    3D
 Schrodinger Suite 2021-1.
 44 47  0  0  1  0            999 V2000
   22.3935   19.0003    4.5790 C   0  0  0  0  0  0
   21.1771   18.4077    4.1311 O   0  0  0  0  0  0
   20.7739   17.2100    4.6892 C   0  0  0  0  0  0
   21.5564   16.4570    5.5818 C   0  0  0  0  0  0
   21.0667   15.2716    6.1226 C   0  0  0  0  0  0
   19.7887   14.8330    5.7898 C   0  0  0  0  0  0
   19.0052   15.5478    4.8855 C   0  0  0  0  0  0
   19.5018   16.7377    4.3427 C   0  0  0  0  0  0
   17.6181   15.0801    4.6330 C   0  0  0  0  0  0
   16.4932   15.6330    5.2030 C   0  0  0  0  0  0
   15.3674   14.9202    4.8548 N   0  0  0  0  0  0
   15.7139   13.9507    3.9497 C   0  0  0  0  0  0
   17.1216   13.9890    3.8230 C   0  0  0  0  0  0
   17.6226   12.9655    3.0122 C   0  0  0  0  0  0
   16.8398   12.0468    2.4030 N   0  0  0  0  0  0
   15.5087   12.1803    2.5719 C   0  0  0  0  0  0
   14.8814   13.0977    3.3312 N   0  0  0  0  0  0
   18.9640   12.8382    2.8030 N   0  0  0  0  0  0
   14.0244   15.2410    5.2462 C   0  0  2  0  0  0
   12.9323   14.1807    5.5663 C   0  0  0  0  0  0
   11.9594   14.9973    4.6996 C   0  0  1  0  0  0
   13.1699   15.6972    4.0828 C   0  0  0  0  0  0
   11.0218   14.1863    3.7876 C   0  0  0  0  0  0
   10.0657   13.5064    4.5724 O   0  0  0  0  0  0
   22.5640   19.9330    4.0410 H   0  0  0  0  0  0
   22.3482   19.2330    5.6437 H   0  0  0  0  0  0
   23.2523   18.3517    4.4030 H   0  0  0  0  0  0
   22.5470   16.7733    5.8712 H   0  0  0  0  0  0
   21.6781   14.6989    6.8030 H   0  0  0  0  0  0
   19.4064   13.9247    6.2331 H   0  0  0  0  0  0
   18.8891   17.3139    3.6652 H   0  0  0  0  0  0
   16.4087   16.4727    5.8786 H   0  0  0  0  0  0
   14.8741   11.4709    2.0606 H   0  0  0  0  0  0
   19.5903   13.5510    3.1515 H   0  0  0  0  0  0
   19.2821   12.1217    2.1465 H   0  0  0  0  0  0
   14.1640   15.9968    6.0030 H   0  0  0  0  0  0
   13.1718   13.2156    5.1334 H   0  0  0  0  0  0
   12.6429   14.0330    6.6077 H   0  0  0  0  0  0
   11.3403   15.7293    5.2030 H   0  0  0  0  0  0
   13.1287   16.7852    4.0030 H   0  0  0  0  0  0
   13.4944   15.2330    3.1555 H   0  0  0  0  0  0
   10.5084   14.8330    3.0777 H   0  0  0  0  0  0
   11.5864   13.4580    3.2030 H   0  0  0  0  0  0
    9.5357   12.9422    4.0022 H   0  0  0  0  0  0
  1  2  1  0  0  0
  1 25  1  0  0  0
  1 26  1  0  0  0
  1 27  1  0  0  0
  2  3  1  0  0  0
  3  8  1  0  0  0
  3  4  2  0  0  0
  4  5  1  0  0  0
  4 28  1  0  0  0
  5  6  2  0  0  0
  5 29  1  0  0  0
  6  7  1  0  0  0
  6 30  1  0  0  0
  7  8  2  0  0  0
  7  9  1  0  0  0
  8 31  1  0  0  0
  9 13  1  0  0  0
  9 10  2  0  0  0
 10 11  1  0  0  0
 10 32  1  0  0  0
 11 12  1  0  0  0
 11 19  1  0  0  0
 12 17  1  0  0  0
 12 13  2  0  0  0
 13 14  1  0  0  0
 14 15  2  0  0  0
 14 18  1  0  0  0
 15 16  1  0  0  0
 16 17  2  0  0  0
 16 33  1  0  0  0
 18 34  1  0  0  0
 18 35  1  0  0  0
 19 22  1  0  0  0
 19 20  1  0  0  0
 19 36  1  0  0  0
 20 21  1  0  0  0
 20 37  1  0  0  0
 20 38  1  0  0  0
 21 22  1  0  0  0
 21 23  1  0  0  0
 21 39  1  0  0  0
 22 40  1  0  0  0
 22 41  1  0  0  0
 23 24  1  0  0  0
 23 42  1  0  0  0
 23 43  1  0  0  0
 24 44  1  0  0  0
M  END
> <s_m_entry_id>
6516

> <s_m_entry_name>
ligand_docking-pose.27

> <s_m_Source_Path>
/home/csk/Desktop/cluster/DUD-E-result/abl1

> <s_m_Source_File>
ligand_docking-pose.sdf

> <i_m_Source_File_Index>
27

> <i_lp_mmshare_version>
53161

> <r_lp_tautomer_probability>
1

> <s_lp_Force_Field>
OPLS_2005

> <r_lp_Energy>
26.771251

> <b_lp_Chiralities_Consistent>
1

> <s_lp_Variant>
281925-1

> <s_i_glide_gridfile>
glide-grid_2hzi

> <i_i_glide_lignum>
459

> <i_i_glide_rotatable_bonds>
5

> <r_i_docking_score>
-10.1144008473936

> <r_i_glide_ligand_efficiency>
-0.4214333686414

> <r_i_glide_ligand_efficiency_sa>
-1.21562418838475

> <r_i_glide_ligand_efficiency_ln>
-2.42084024239373

> <r_i_glide_gscore>
-10.1144008473936

> <r_i_glide_lipo>
-3.94036869587853

> <r_i_glide_hbond>
-0.605485068919908

> <r_i_glide_metal>
0

> <r_i_glide_rewards>
-3.64316678904366

> <r_i_glide_evdw>
-25.6412105560303

> <r_i_glide_ecoul>
-7.84834098815918

> <r_i_glide_erotb>
0.533931382473899

> <r_i_glide_esite>
0

> <r_i_glide_emodel>
-41.6602259730504

> <r_i_glide_energy>
-33.4895515441895

> <r_i_glide_einternal>
6.99121952056885

> <i_i_glide_confnum>
22

> <i_i_glide_posenum>
161

> <r_i_glide_eff_state_penalty>
0

> <i_f3d_flags>
0

> <s_user_duplicate_titles>
281925

> <s_m_subgroup_title>
dock_pv

> <s_m_subgroupid>
dock_pv1

> <b_m_subgroup_collapsed>
0

$$$$
290801
                    3D
 Schrodinger Suite 2021-1.
 44 47  0  0  1  0            999 V2000
    8.8865   13.3880    6.9738 C   0  0  0  0  0  0
   10.2907   13.6328    6.8980 O   0  0  0  0  0  0
   10.9047   13.6328    5.6604 C   0  0  0  0  0  0
   10.2666   13.2473    4.4733 C   0  0  0  0  0  0
   10.9865   13.2052    3.2876 C   0  0  0  0  0  0
   12.3200   13.6171    3.2614 C   0  0  0  0  0  0
   12.9739   14.0437    4.4161 C   0  0  0  0  0  0
   12.2478   14.0328    5.6033 C   0  0  0  0  0  0
   14.4379   14.3882    4.3958 C   0  0  0  0  0  0
   15.1063   15.4663    4.9715 C   0  0  0  0  0  0
   16.4717   15.4449    4.7035 N   0  0  0  0  0  0
   16.7159   14.3082    3.9632 C   0  0  0  0  0  0
   15.4807   13.6460    3.7408 C   0  0  0  0  0  0
   15.5919   12.4570    3.0123 C   0  0  0  0  0  0
   16.7612   12.0334    2.4905 N   0  0  0  0  0  0
   17.8580   12.7543    2.8027 C   0  0  0  0  0  0
   17.9113   13.8709    3.5461 N   0  0  0  0  0  0
   14.4974   11.6359    2.8804 N   0  0  0  0  0  0
   17.4283   16.4468    5.0083 C   0  0  0  0  0  0
   17.2720   17.2331    6.1448 C   0  0  0  0  0  0
   18.1639   18.2736    6.4027 C   0  0  0  0  0  0
   19.2994   18.4333    5.6033 C   0  0  0  0  0  0
   19.5141   17.6167    4.4934 C   0  0  0  0  0  0
   18.5527   16.6600    4.1845 C   0  0  0  0  0  0
   20.7490   17.7259    3.6011 C   0  0  0  0  0  0
   21.7640   18.5911    4.0754 O   0  0  0  0  0  0
    8.5309   13.5044    7.9997 H   0  0  0  0  0  0
    8.3350   14.1008    6.3588 H   0  0  0  0  0  0
    8.6370   12.3744    6.6603 H   0  0  0  0  0  0
    9.2389   12.9173    4.4632 H   0  0  0  0  0  0
   10.5095   12.8344    2.3933 H   0  0  0  0  0  0
   12.8608   13.5874    2.3338 H   0  0  0  0  0  0
   12.7557   14.2967    6.5150 H   0  0  0  0  0  0
   14.6942   16.2905    5.5334 H   0  0  0  0  0  0
   18.8040   12.4328    2.4067 H   0  0  0  0  0  0
   13.6380   11.9326    3.3182 H   0  0  0  0  0  0
   14.5166   10.7372    2.3994 H   0  0  0  0  0  0
   16.4381   17.0781    6.8133 H   0  0  0  0  0  0
   18.0169   18.9097    7.2620 H   0  0  0  0  0  0
   20.0255   19.1732    5.8952 H   0  0  0  0  0  0
   18.7035   16.1041    3.2727 H   0  0  0  0  0  0
   21.1890   16.7361    3.4766 H   0  0  0  0  0  0
   20.4415   18.0331    2.6013 H   0  0  0  0  0  0
   22.0873   18.2533    4.9143 H   0  0  0  0  0  0
  1  2  1  0  0  0
  1 27  1  0  0  0
  1 28  1  0  0  0
  1 29  1  0  0  0
  2  3  1  0  0  0
  3  8  1  0  0  0
  3  4  2  0  0  0
  4  5  1  0  0  0
  4 30  1  0  0  0
  5  6  2  0  0  0
  5 31  1  0  0  0
  6  7  1  0  0  0
  6 32  1  0  0  0
  7  8  2  0  0  0
  7  9  1  0  0  0
  8 33  1  0  0  0
  9 13  1  0  0  0
  9 10  2  0  0  0
 10 11  1  0  0  0
 10 34  1  0  0  0
 11 12  1  0  0  0
 11 19  1  0  0  0
 12 17  1  0  0  0
 12 13  2  0  0  0
 13 14  1  0  0  0
 14 15  2  0  0  0
 14 18  1  0  0  0
 15 16  1  0  0  0
 16 17  2  0  0  0
 16 35  1  0  0  0
 18 36  1  0  0  0
 18 37  1  0  0  0
 19 24  1  0  0  0
 19 20  2  0  0  0
 20 21  1  0  0  0
 20 38  1  0  0  0
 21 22  2  0  0  0
 21 39  1  0  0  0
 22 23  1  0  0  0
 22 40  1  0  0  0
 23 24  2  0  0  0
 23 25  1  0  0  0
 24 41  1  0  0  0
 25 26  1  0  0  0
 25 42  1  0  0  0
 25 43  1  0  0  0
 26 44  1  0  0  0
M  END
> <s_m_entry_id>
6517

> <s_m_entry_name>
ligand_docking-pose.28

> <s_m_Source_Path>
/home/csk/Desktop/cluster/DUD-E-result/abl1

> <s_m_Source_File>
ligand_docking-pose.sdf

> <i_m_Source_File_Index>
28

> <i_lp_mmshare_version>
53161

> <r_lp_tautomer_probability>
1

> <s_lp_Force_Field>
OPLS_2005

> <r_lp_Energy>
20.632598

> <b_lp_Chiralities_Consistent>
1

> <s_lp_Variant>
290801-1

> <s_i_glide_gridfile>
glide-grid_2hzi

> <i_i_glide_lignum>
469

> <i_i_glide_rotatable_bonds>
5

> <r_i_docking_score>
-10.0949237831577

> <r_i_glide_ligand_efficiency>
-0.388266299352219

> <r_i_glide_ligand_efficiency_sa>
-1.15023738407683

> <r_i_glide_ligand_efficiency_ln>
-2.37075972632792

> <r_i_glide_gscore>
-10.0949237831577

> <r_i_glide_lipo>
-4.13469554126623

> <r_i_glide_hbond>
-0.579962045406034

> <r_i_glide_metal>
0

> <r_i_glide_rewards>
-3.40046520255927

> <r_i_glide_evdw>
-19.6590576171875

> <r_i_glide_ecoul>
-8.64649391174316

> <r_i_glide_erotb>
0.33275319336833

> <r_i_glide_esite>
-0.032627219673627

> <r_i_glide_emodel>
-29.6441548447037

> <r_i_glide_energy>
-28.3055515289307

> <r_i_glide_einternal>
5.51205968856812

> <i_i_glide_confnum>
19

> <i_i_glide_posenum>
293

> <r_i_glide_eff_state_penalty>
0

> <i_f3d_flags>
0

> <s_user_duplicate_titles>
290801

> <s_m_subgroup_title>
dock_pv

> <s_m_subgroupid>
dock_pv1

> <b_m_subgroup_collapsed>
0

$$$$
290728
                    3D
 Schrodinger Suite 2021-1.
 36 39  0  0  1  0            999 V2000
    9.4622   13.6330    5.5856 C   0  0  0  0  0  0
   10.4070   13.4968    6.5970 C   0  0  0  0  0  0
   11.7638   13.6330    6.3067 C   0  0  0  0  0  0
   12.1735   13.9767    5.0154 C   0  0  0  0  0  0
   11.2154   14.0679    4.0030 C   0  0  0  0  0  0
    9.8625   13.9040    4.2818 C   0  0  0  0  0  0
   13.5510   14.1282    4.6988 N   0  0  0  0  0  0
   14.4834   14.9494    5.3102 C   0  0  0  0  0  0
   15.7609   14.8161    4.7698 C   0  0  0  0  0  0
   15.6099   13.7954    3.7581 C   0  0  0  0  0  0
   14.2202   13.4631    3.6907 C   0  0  0  0  0  0
   13.6670   12.6049    2.8278 N   0  0  0  0  0  0
   14.5640   12.0330    2.0030 C   0  0  0  0  0  0
   15.9022   12.1755    2.0030 N   0  0  0  0  0  0
   16.4262   13.0640    2.8636 C   0  0  0  0  0  0
   17.8077   13.1641    2.8030 N   0  0  0  0  0  0
   17.0262   15.4982    5.2030 C   0  0  0  0  0  0
   18.2678   14.8473    5.1790 C   0  0  0  0  0  0
   19.4578   15.5504    5.3362 C   0  0  0  0  0  0
   19.4137   16.9125    5.6030 C   0  0  0  0  0  0
   18.1840   17.5360    5.8191 C   0  0  0  0  0  0
   16.9949   16.8330    5.6030 C   0  0  0  0  0  0
   18.1643   19.1624    6.4030 Cl  0  0  0  0  0  0
    8.4140   13.5097    5.8137 H   0  0  0  0  0  0
   10.0860   13.2774    7.6030 H   0  0  0  0  0  0
   12.4794   13.5478    7.1083 H   0  0  0  0  0  0
   11.5227   14.2750    2.9926 H   0  0  0  0  0  0
    9.1294   13.9825    3.4925 H   0  0  0  0  0  0
   14.1642   15.5747    6.1275 H   0  0  0  0  0  0
   14.1655   11.3459    1.2690 H   0  0  0  0  0  0
   18.2749   13.8841    3.3335 H   0  0  0  0  0  0
   18.3095   12.5959    2.1320 H   0  0  0  0  0  0
   18.3252   13.7794    5.0558 H   0  0  0  0  0  0
   20.4073   15.0390    5.2684 H   0  0  0  0  0  0
   20.3343   17.4602    5.7443 H   0  0  0  0  0  0
   16.0466   17.3378    5.7064 H   0  0  0  0  0  0
  1  6  1  0  0  0
  1  2  2  0  0  0
  1 24  1  0  0  0
  2  3  1  0  0  0
  2 25  1  0  0  0
  3  4  2  0  0  0
  3 26  1  0  0  0
  4  5  1  0  0  0
  4  7  1  0  0  0
  5  6  2  0  0  0
  5 27  1  0  0  0
  6 28  1  0  0  0
  7 11  1  0  0  0
  7  8  1  0  0  0
  8  9  2  0  0  0
  8 29  1  0  0  0
  9 10  1  0  0  0
  9 17  1  0  0  0
 10 15  2  0  0  0
 10 11  1  0  0  0
 11 12  2  0  0  0
 12 13  1  0  0  0
 13 14  2  0  0  0
 13 30  1  0  0  0
 14 15  1  0  0  0
 15 16  1  0  0  0
 16 31  1  0  0  0
 16 32  1  0  0  0
 17 22  1  0  0  0
 17 18  2  0  0  0
 18 19  1  0  0  0
 18 33  1  0  0  0
 19 20  2  0  0  0
 19 34  1  0  0  0
 20 21  1  0  0  0
 20 35  1  0  0  0
 21 22  2  0  0  0
 21 23  1  0  0  0
 22 36  1  0  0  0
M  END
> <s_m_entry_id>
6518

> <s_m_entry_name>
ligand_docking-pose.29

> <s_m_Source_Path>
/home/csk/Desktop/cluster/DUD-E-result/abl1

> <s_m_Source_File>
ligand_docking-pose.sdf

> <i_m_Source_File_Index>
29

> <i_lp_mmshare_version>
53161

> <r_lp_tautomer_probability>
1

> <s_lp_Force_Field>
OPLS_2005

> <r_lp_Energy>
16.654508

> <b_lp_Chiralities_Consistent>
1

> <s_lp_Variant>
290728-1

> <s_i_glide_gridfile>
glide-grid_2hzi

> <i_i_glide_lignum>
97

> <i_i_glide_rotatable_bonds>
2

> <r_i_docking_score>
-10.0689668647612

> <r_i_glide_ligand_efficiency>
-0.437781168033094

> <r_i_glide_ligand_efficiency_sa>
-1.24499140686894

> <r_i_glide_ligand_efficiency_ln>
-2.43476748824297

> <r_i_glide_gscore>
-10.0689668647612

> <r_i_glide_lipo>
-4.14404355098645

> <r_i_glide_hbond>
-0.499687297969283

> <r_i_glide_metal>
0

> <r_i_glide_rewards>
-3.56070660048162

> <r_i_glide_evdw>
-25.8505153656006

> <r_i_glide_ecoul>
-5.50750684738159

> <r_i_glide_erotb>
0.254122380063458

> <r_i_glide_esite>
0

> <r_i_glide_emodel>
-37.9335892794536

> <r_i_glide_energy>
-31.3580222129822

> <r_i_glide_einternal>
2.92747116088867

> <i_i_glide_confnum>
5

> <i_i_glide_posenum>
296

> <r_i_glide_eff_state_penalty>
0

> <i_f3d_flags>
0

> <s_user_duplicate_titles>
290728

> <s_m_subgroup_title>
dock_pv

> <s_m_subgroupid>
dock_pv1

> <b_m_subgroup_collapsed>
0

$$$$
442152
                    3D
 Schrodinger Suite 2021-1.
 44 47  0  0  1  0            999 V2000
   21.7630   18.4690    3.9111 C   0  0  0  0  0  0
   22.5818   18.5725    5.0345 C   0  0  0  0  0  0
   22.5600   17.5719    6.0032 C   0  0  0  0  0  0
   21.7115   16.4754    5.8548 C   0  0  0  0  0  0
   20.8793   16.3725    4.7317 C   0  0  0  0  0  0
   20.9100   17.3765    3.7598 C   0  0  0  0  0  0
   20.0526   15.1205    4.4993 C   0  0  0  0  0  0
   18.6306   15.3765    4.2401 N   0  0  0  0  0  0
   17.8472   14.3196    3.7399 C   0  0  0  0  0  0
   16.4407   14.3280    3.8440 C   0  0  0  0  0  0
   15.3829   15.1412    4.3581 C   0  0  0  0  0  0
   14.2231   14.5369    4.2409 N   0  0  0  0  0  0
   14.4438   13.3449    3.6367 N   0  0  0  0  0  0
   15.7787   13.1774    3.3500 C   0  0  0  0  0  0
   16.3581   12.1028    2.8029 N   0  0  0  0  0  0
   17.7056   12.1940    2.8033 C   0  0  0  0  0  0
   18.4702   13.2338    3.2032 N   0  0  0  0  0  0
   13.3996   12.3301    3.4928 C   0  0  0  0  0  0
   12.0226   12.8967    3.0905 C   0  0  2  0  0  0
   11.1054   13.4176    4.2095 C   0  0  0  0  0  0
   11.5067   13.4448    5.5549 C   0  0  0  0  0  0
   10.5704   13.6341    6.5631 C   0  0  0  0  0  0
    9.2604   13.9523    6.2291 C   0  0  0  0  0  0
    8.8722   14.0311    4.8965 C   0  0  0  0  0  0
    9.7880   13.7542    3.8885 C   0  0  0  0  0  0
    8.3665   14.2133    7.2045 F   0  0  0  0  0  0
   11.1949   11.6334    2.1185 Cl  0  0  0  0  0  0
   21.7130   15.5125    6.8023 F   0  0  0  0  0  0
   21.7946   19.2373    3.1532 H   0  0  0  0  0  0
   23.2392   19.4232    5.1524 H   0  0  0  0  0  0
   23.2095   17.6375    6.8647 H   0  0  0  0  0  0
   20.2962   17.2936    2.8741 H   0  0  0  0  0  0
   20.1302   14.4443    5.3541 H   0  0  0  0  0  0
   20.5115   14.5885    3.6627 H   0  0  0  0  0  0
   18.1711   16.0727    4.8067 H   0  0  0  0  0  0
   15.4549   16.1049    4.8401 H   0  0  0  0  0  0
   18.2197   11.3360    2.4037 H   0  0  0  0  0  0
   13.3640   11.7242    4.3961 H   0  0  0  0  0  0
   13.7416   11.6483    2.7127 H   0  0  0  0  0  0
   12.2205   13.7097    2.4043 H   0  0  0  0  0  0
   12.5173   13.2196    5.8475 H   0  0  0  0  0  0
   10.8663   13.5959    7.6025 H   0  0  0  0  0  0
    7.8579   14.2837    4.6449 H   0  0  0  0  0  0
    9.4555   13.7515    2.8603 H   0  0  0  0  0  0
  1  6  1  0  0  0
  1  2  2  0  0  0
  1 29  1  0  0  0
  2  3  1  0  0  0
  2 30  1  0  0  0
  3  4  2  0  0  0
  3 31  1  0  0  0
  4  5  1  0  0  0
  4 28  1  0  0  0
  5  6  2  0  0  0
  5  7  1  0  0  0
  6 32  1  0  0  0
  7  8  1  0  0  0
  7 33  1  0  0  0
  7 34  1  0  0  0
  8  9  1  0  0  0
  8 35  1  0  0  0
  9 17  1  0  0  0
  9 10  2  0  0  0
 10 14  1  0  0  0
 10 11  1  0  0  0
 11 12  2  0  0  0
 11 36  1  0  0  0
 12 13  1  0  0  0
 13 14  1  0  0  0
 13 18  1  0  0  0
 14 15  2  0  0  0
 15 16  1  0  0  0
 16 17  2  0  0  0
 16 37  1  0  0  0
 18 19  1  0  0  0
 18 38  1  0  0  0
 18 39  1  0  0  0
 19 20  1  0  0  0
 19 27  1  0  0  0
 19 40  1  0  0  0
 20 25  1  0  0  0
 20 21  2  0  0  0
 21 22  1  0  0  0
 21 41  1  0  0  0
 22 23  2  0  0  0
 22 42  1  0  0  0
 23 24  1  0  0  0
 23 26  1  0  0  0
 24 25  2  0  0  0
 24 43  1  0  0  0
 25 44  1  0  0  0
M  END
> <s_m_entry_id>
6519

> <s_m_entry_name>
ligand_docking-pose.30

> <s_m_Source_Path>
/home/csk/Desktop/cluster/DUD-E-result/abl1

> <s_m_Source_File>
ligand_docking-pose.sdf

> <i_m_Source_File_Index>
30

> <i_lp_mmshare_version>
53161

> <r_lp_tautomer_probability>
1

> <s_lp_Force_Field>
OPLS_2005

> <r_lp_Energy>
10.614867

> <b_lp_Chiralities_Consistent>
1

> <s_lp_Variant>
442152-2

> <s_i_glide_gridfile>
glide-grid_2hzi

> <i_i_glide_lignum>
63

> <i_i_glide_rotatable_bonds>
6

> <r_i_docking_score>
-10.0369120749855

> <r_i_glide_ligand_efficiency>
-0.358461145535197

> <r_i_glide_ligand_efficiency_sa>
-1.08849916016906

> <r_i_glide_ligand_efficiency_ln>
-2.31681400345054

> <r_i_glide_gscore>
-10.0369120749855

> <r_i_glide_lipo>
-4.55112594391326

> <r_i_glide_hbond>
-0.309017468131741

> <r_i_glide_metal>
0

> <r_i_glide_rewards>
-3.13177050505489

> <r_i_glide_evdw>
-45.7471084594727

> <r_i_glide_ecoul>
-3.28816699981689

> <r_i_glide_erotb>
0.735582315060544

> <r_i_glide_esite>
0

> <r_i_glide_emodel>
-64.690735395203

> <r_i_glide_energy>
-49.0352754592896

> <r_i_glide_einternal>
11.6399116516113

> <i_i_glide_confnum>
128

> <i_i_glide_posenum>
290

> <r_i_glide_eff_state_penalty>
0

> <i_f3d_flags>
0

> <s_user_duplicate_titles>
442152

> <s_m_subgroup_title>
dock_pv

> <s_m_subgroupid>
dock_pv1

> <b_m_subgroup_collapsed>
0

$$$$
282345
                    3D
 Schrodinger Suite 2021-1.
 36 39  0  0  1  0            999 V2000
   19.6446   16.8586    5.6024 C   0  0  0  0  0  0
   19.6555   15.4753    5.4791 C   0  0  0  0  0  0
   18.4539   14.8031    5.2841 C   0  0  0  0  0  0
   17.2369   15.4939    5.2030 C   0  0  0  0  0  0
   17.2379   16.8595    5.4429 C   0  0  0  0  0  0
   18.4381   17.5527    5.6030 C   0  0  0  0  0  0
   15.9569   14.8330    4.7684 C   0  0  0  0  0  0
   14.6564   14.9833    5.2694 C   0  0  0  0  0  0
   13.7443   14.1413    4.6476 N   0  0  0  0  0  0
   14.4457   13.4695    3.6679 C   0  0  0  0  0  0
   15.8282   13.8225    3.7483 C   0  0  0  0  0  0
   16.6670   13.1065    2.8619 C   0  0  0  0  0  0
   16.1640   12.2058    2.0030 N   0  0  0  0  0  0
   14.8301   12.0330    2.0030 C   0  0  0  0  0  0
   13.9173   12.5909    2.8132 N   0  0  0  0  0  0
   18.0476   13.2330    2.8030 N   0  0  0  0  0  0
   12.3526   13.9754    4.9072 C   0  0  0  0  0  0
   11.8815   13.6330    6.1784 C   0  0  0  0  0  0
   10.5129   13.5062    6.4121 C   0  0  0  0  0  0
    9.6152   13.6330    5.3568 C   0  0  0  0  0  0
   10.0776   13.8737    4.0671 C   0  0  0  0  0  0
   11.4426   14.0330    3.8482 C   0  0  0  0  0  0
   20.5748   17.3930    5.7315 H   0  0  0  0  0  0
   20.5877   14.9299    5.5181 H   0  0  0  0  0  0
   18.4765   13.7275    5.2030 H   0  0  0  0  0  0
   16.3025   17.3973    5.4318 H   0  0  0  0  0  0
   18.4353   18.6239    5.7378 H   0  0  0  0  0  0
   14.3092   15.6232    6.0652 H   0  0  0  0  0  0
   14.4524   11.3147    1.2885 H   0  0  0  0  0  0
   18.5057   13.9477    3.3496 H   0  0  0  0  0  0
   18.5586   12.6624    2.1401 H   0  0  0  0  0  0
   12.5636   13.5647    7.0109 H   0  0  0  0  0  0
   10.1496   13.3060    7.4097 H   0  0  0  0  0  0
    8.5559   13.5177    5.5370 H   0  0  0  0  0  0
    9.3834   13.9328    3.2418 H   0  0  0  0  0  0
   11.8001   14.2074    2.8465 H   0  0  0  0  0  0
  1  6  1  0  0  0
  1  2  2  0  0  0
  1 23  1  0  0  0
  2  3  1  0  0  0
  2 24  1  0  0  0
  3  4  2  0  0  0
  3 25  1  0  0  0
  4  5  1  0  0  0
  4  7  1  0  0  0
  5  6  2  0  0  0
  5 26  1  0  0  0
  6 27  1  0  0  0
  7 11  1  0  0  0
  7  8  2  0  0  0
  8  9  1  0  0  0
  8 28  1  0  0  0
  9 10  1  0  0  0
  9 17  1  0  0  0
 10 15  1  0  0  0
 10 11  2  0  0  0
 11 12  1  0  0  0
 12 13  2  0  0  0
 12 16  1  0  0  0
 13 14  1  0  0  0
 14 15  2  0  0  0
 14 29  1  0  0  0
 16 30  1  0  0  0
 16 31  1  0  0  0
 17 22  1  0  0  0
 17 18  2  0  0  0
 18 19  1  0  0  0
 18 32  1  0  0  0
 19 20  2  0  0  0
 19 33  1  0  0  0
 20 21  1  0  0  0
 20 34  1  0  0  0
 21 22  2  0  0  0
 21 35  1  0  0  0
 22 36  1  0  0  0
M  END
> <s_m_entry_id>
6520

> <s_m_entry_name>
ligand_docking-pose.31

> <s_m_Source_Path>
/home/csk/Desktop/cluster/DUD-E-result/abl1

> <s_m_Source_File>
ligand_docking-pose.sdf

> <i_m_Source_File_Index>
31

> <i_lp_mmshare_version>
53161

> <r_lp_tautomer_probability>
1

> <s_lp_Force_Field>
OPLS_2005

> <r_lp_Energy>
16.807781

> <b_lp_Chiralities_Consistent>
1

> <s_lp_Variant>
282345-1

> <s_i_glide_gridfile>
glide-grid_2hzi

> <i_i_glide_lignum>
21

> <i_i_glide_rotatable_bonds>
2

> <r_i_docking_score>
-9.99959233098695

> <r_i_glide_ligand_efficiency>
-0.454526924135771

> <r_i_glide_ligand_efficiency_sa>
-1.27360231695799

> <r_i_glide_ligand_efficiency_ln>
-2.44426510968576

> <r_i_glide_gscore>
-9.99959233098695

> <r_i_glide_lipo>
-3.96016754346079

> <r_i_glide_hbond>
-0.570731380453987

> <r_i_glide_metal>
0

> <r_i_glide_rewards>
-3.79889892241037

> <r_i_glide_evdw>
-24.2684936523438

> <r_i_glide_ecoul>
-5.10963487625122

> <r_i_glide_erotb>
0.310075429393065

> <r_i_glide_esite>
0

> <r_i_glide_emodel>
-37.5658135869618

> <r_i_glide_energy>
-29.378128528595

> <r_i_glide_einternal>
0.976920425891876

> <i_i_glide_confnum>
5

> <i_i_glide_posenum>
42

> <r_i_glide_eff_state_penalty>
0

> <i_f3d_flags>
0

> <s_user_duplicate_titles>
282345

> <s_m_subgroup_title>
dock_pv

> <s_m_subgroupid>
dock_pv1

> <b_m_subgroup_collapsed>
0

$$$$
442426
                    3D
 Schrodinger Suite 2021-1.
 44 47  0  0  1  0            999 V2000
    9.2776   14.0284    5.9307 C   0  0  0  0  0  0
   10.5551   13.6984    6.3671 C   0  0  0  0  0  0
   11.5663   13.4836    5.4363 C   0  0  0  0  0  0
   11.2713   13.4330    4.0645 C   0  0  0  0  0  0
    9.9909   13.8074    3.6409 C   0  0  0  0  0  0
    8.9994   14.1047    4.5678 C   0  0  0  0  0  0
   12.2444   12.8410    3.0240 C   0  0  1  0  0  0
   13.5060   12.1129    3.5529 C   0  0  0  0  0  0
   14.7540   12.8790    3.4827 N   0  0  0  0  0  0
   15.2029   13.9711    4.2113 C   0  0  0  0  0  0
   16.5130   14.2315    3.7386 C   0  0  0  0  0  0
   16.7694   13.1962    2.8019 C   0  0  0  0  0  0
   15.7208   12.4333    2.6445 N   0  0  0  0  0  0
   17.1712   15.3446    4.2806 C   0  0  0  0  0  0
   16.5938   16.0347    5.3021 N   0  0  0  0  0  0
   15.3643   15.6350    5.7087 C   0  0  0  0  0  0
   14.5893   14.6511    5.1868 N   0  0  0  0  0  0
   18.3800   15.7885    3.7160 N   0  0  0  0  0  0
   18.9504   17.0947    4.0517 C   0  0  0  0  0  0
   20.3206   17.0194    4.7204 C   0  0  0  0  0  0
   21.2455   18.0326    4.4355 C   0  0  0  0  0  0
   22.4806   18.0662    5.0794 C   0  0  0  0  0  0
   22.8058   17.0773    6.0028 C   0  0  0  0  0  0
   21.9020   16.0513    6.2785 C   0  0  0  0  0  0
   20.6581   16.0266    5.6562 C   0  0  0  0  0  0
   19.7882   15.0474    5.9956 F   0  0  0  0  0  0
   11.3678   11.6352    2.0030 Cl  0  0  0  0  0  0
    8.4996   14.2268    6.6557 H   0  0  0  0  0  0
   10.7739   13.6466    7.4255 H   0  0  0  0  0  0
   12.5417   13.2335    5.8152 H   0  0  0  0  0  0
    9.7394   13.8010    2.5905 H   0  0  0  0  0  0
    8.0124   14.3612    4.2249 H   0  0  0  0  0  0
   12.5647   13.6349    2.3574 H   0  0  0  0  0  0
   13.3650   11.6946    4.5341 H   0  0  0  0  0  0
   13.6701   11.2331    2.9484 H   0  0  0  0  0  0
   17.6756   13.0169    2.2409 H   0  0  0  0  0  0
   14.9649   16.1517    6.5635 H   0  0  0  0  0  0
   18.8171   15.2417    2.9867 H   0  0  0  0  0  0
   19.0398   17.6634    3.1256 H   0  0  0  0  0  0
   18.2943   17.6785    4.6974 H   0  0  0  0  0  0
   21.0021   18.8176    3.7339 H   0  0  0  0  0  0
   23.1808   18.8639    4.8741 H   0  0  0  0  0  0
   23.7588   17.1068    6.5120 H   0  0  0  0  0  0
   22.1637   15.2858    6.9913 H   0  0  0  0  0  0
  1  6  1  0  0  0
  1  2  2  0  0  0
  1 28  1  0  0  0
  2  3  1  0  0  0
  2 29  1  0  0  0
  3  4  2  0  0  0
  3 30  1  0  0  0
  4  5  1  0  0  0
  4  7  1  0  0  0
  5  6  2  0  0  0
  5 31  1  0  0  0
  6 32  1  0  0  0
  7  8  1  0  0  0
  7 27  1  0  0  0
  7 33  1  0  0  0
  8  9  1  0  0  0
  8 34  1  0  0  0
  8 35  1  0  0  0
  9 13  1  0  0  0
  9 10  1  0  0  0
 10 17  2  0  0  0
 10 11  1  0  0  0
 11 12  1  0  0  0
 11 14  2  0  0  0
 12 13  2  0  0  0
 12 36  1  0  0  0
 14 15  1  0  0  0
 14 18  1  0  0  0
 15 16  2  0  0  0
 16 17  1  0  0  0
 16 37  1  0  0  0
 18 19  1  0  0  0
 18 38  1  0  0  0
 19 20  1  0  0  0
 19 39  1  0  0  0
 19 40  1  0  0  0
 20 25  1  0  0  0
 20 21  2  0  0  0
 21 22  1  0  0  0
 21 41  1  0  0  0
 22 23  2  0  0  0
 22 42  1  0  0  0
 23 24  1  0  0  0
 23 43  1  0  0  0
 24 25  2  0  0  0
 24 44  1  0  0  0
 25 26  1  0  0  0
M  END
> <s_m_entry_id>
6521

> <s_m_entry_name>
ligand_docking-pose.32

> <s_m_Source_Path>
/home/csk/Desktop/cluster/DUD-E-result/abl1

> <s_m_Source_File>
ligand_docking-pose.sdf

> <i_m_Source_File_Index>
32

> <i_lp_mmshare_version>
53161

> <r_lp_tautomer_probability>
1

> <s_lp_Force_Field>
OPLS_2005

> <r_lp_Energy>
12.877146

> <b_lp_Chiralities_Consistent>
1

> <s_lp_Variant>
442426-1

> <s_i_glide_gridfile>
glide-grid_2hzi

> <i_i_glide_lignum>
33

> <i_i_glide_rotatable_bonds>
6

> <r_i_docking_score>
-9.93261034302549

> <r_i_glide_ligand_efficiency>
-0.367874457149092

> <r_i_glide_ligand_efficiency_sa>
-1.10362337023482

> <r_i_glide_ligand_efficiency_ln>
-2.31214793597692

> <r_i_glide_gscore>
-9.93261034302549

> <r_i_glide_lipo>
-4.42220288630663

> <r_i_glide_hbond>
-0.0698610242331463

> <r_i_glide_metal>
0

> <r_i_glide_rewards>
-3.64206961877177

> <r_i_glide_evdw>
-43.7554817199707

> <r_i_glide_ecoul>
-2.7313437461853

> <r_i_glide_erotb>
0.798998834212392

> <r_i_glide_esite>
0

> <r_i_glide_emodel>
-61.2912625707432

> <r_i_glide_energy>
-46.486825466156

> <r_i_glide_einternal>
13.7493524551392

> <i_i_glide_confnum>
95

> <i_i_glide_posenum>
99

> <r_i_glide_eff_state_penalty>
0

> <i_f3d_flags>
0

> <s_user_duplicate_titles>
442426

> <s_m_subgroup_title>
dock_pv

> <s_m_subgroupid>
dock_pv1

> <b_m_subgroup_collapsed>
0

$$$$
281720
                    3D
 Schrodinger Suite 2021-1.
 37 40  0  0  1  0            999 V2000
   12.2060   13.9949    5.6254 C   0  0  0  0  0  0
   10.8653   13.6330    5.7519 C   0  0  0  0  0  0
   10.1451   13.2768    4.6195 C   0  0  0  0  0  0
   10.7761   13.2382    3.3837 C   0  0  0  0  0  0
   12.1127   13.6323    3.2786 C   0  0  0  0  0  0
   12.8465   14.0333    4.3945 C   0  0  0  0  0  0
   14.3075   14.4038    4.3574 C   0  0  0  0  0  0
   14.9660   15.3565    5.1286 C   0  0  0  0  0  0
   16.3370   15.3275    4.9496 N   0  0  0  0  0  0
   16.6096   14.3569    4.0030 C   0  0  0  0  0  0
   15.3722   13.7531    3.6368 C   0  0  0  0  0  0
   15.4996   12.6665    2.7654 C   0  0  0  0  0  0
   16.6975   12.1649    2.4024 N   0  0  0  0  0  0
   17.7893   12.8331    2.8281 C   0  0  0  0  0  0
   17.8190   13.9475    3.5944 N   0  0  0  0  0  0
   14.3843   12.0330    2.2718 N   0  0  0  0  0  0
   17.3089   16.0927    5.7510 C   0  0  0  0  0  0
   18.6296   15.4157    6.1813 C   0  0  0  0  0  0
   19.3828   16.2653    5.1489 C   0  0  0  0  0  0
   18.1640   17.1936    5.0995 C   0  0  0  0  0  0
    8.8250   12.9386    4.7302 O   0  0  0  0  0  0
   12.7635   14.2390    6.5144 H   0  0  0  0  0  0
   10.3915   13.6328    6.7228 H   0  0  0  0  0  0
   10.2296   12.9329    2.5030 H   0  0  0  0  0  0
   12.5640   13.6522    2.3066 H   0  0  0  0  0  0
   14.5640   16.0329    5.8659 H   0  0  0  0  0  0
   18.7458   12.4422    2.5191 H   0  0  0  0  0  0
   13.4922   12.2755    2.6743 H   0  0  0  0  0  0
   14.4757   11.1653    1.7563 H   0  0  0  0  0  0
   16.7412   16.4641    6.6068 H   0  0  0  0  0  0
   18.9246   15.6330    7.2030 H   0  0  0  0  0  0
   18.6879   14.3361    6.0422 H   0  0  0  0  0  0
   20.3041   16.7249    5.5092 H   0  0  0  0  0  0
   19.5826   15.7537    4.2067 H   0  0  0  0  0  0
   17.8531   17.5054    4.1024 H   0  0  0  0  0  0
   18.2855   18.0724    5.7353 H   0  0  0  0  0  0
    8.4606   12.5667    3.9238 H   0  0  0  0  0  0
  1  6  1  0  0  0
  1  2  2  0  0  0
  1 22  1  0  0  0
  2  3  1  0  0  0
  2 23  1  0  0  0
  3  4  2  0  0  0
  3 21  1  0  0  0
  4  5  1  0  0  0
  4 24  1  0  0  0
  5  6  2  0  0  0
  5 25  1  0  0  0
  6  7  1  0  0  0
  7 11  1  0  0  0
  7  8  2  0  0  0
  8  9  1  0  0  0
  8 26  1  0  0  0
  9 10  1  0  0  0
  9 17  1  0  0  0
 10 15  1  0  0  0
 10 11  2  0  0  0
 11 12  1  0  0  0
 12 13  2  0  0  0
 12 16  1  0  0  0
 13 14  1  0  0  0
 14 15  2  0  0  0
 14 27  1  0  0  0
 16 28  1  0  0  0
 16 29  1  0  0  0
 17 20  1  0  0  0
 17 18  1  0  0  0
 17 30  1  0  0  0
 18 19  1  0  0  0
 18 31  1  0  0  0
 18 32  1  0  0  0
 19 20  1  0  0  0
 19 33  1  0  0  0
 19 34  1  0  0  0
 20 35  1  0  0  0
 20 36  1  0  0  0
 21 37  1  0  0  0
M  END
> <s_m_entry_id>
6522

> <s_m_entry_name>
ligand_docking-pose.33

> <s_m_Source_Path>
/home/csk/Desktop/cluster/DUD-E-result/abl1

> <s_m_Source_File>
ligand_docking-pose.sdf

> <i_m_Source_File_Index>
33

> <i_lp_mmshare_version>
53161

> <r_lp_tautomer_probability>
0.999999999997365

> <s_lp_Force_Field>
OPLS_2005

> <r_lp_Energy>
22.925959

> <b_lp_Chiralities_Consistent>
1

> <s_lp_Variant>
281720-1

> <s_i_glide_gridfile>
glide-grid_2hzi

> <i_i_glide_lignum>
12

> <i_i_glide_rotatable_bonds>
3

> <r_i_docking_score>
-9.73638450364531

> <r_i_glide_ligand_efficiency>
-0.463637357316443

> <r_i_glide_ligand_efficiency_sa>
-1.27914031287566

> <r_i_glide_ligand_efficiency_ln>
-2.40730139430892

> <r_i_glide_gscore>
-9.73638450364531

> <r_i_glide_lipo>
-3.76485033055334

> <r_i_glide_hbond>
-0.500652313739413

> <r_i_glide_metal>
0

> <r_i_glide_rewards>
-3.75724800308404

> <r_i_glide_evdw>
-28.0227031707764

> <r_i_glide_ecoul>
-4.2281289100647

> <r_i_glide_erotb>
0.321720638780007

> <r_i_glide_esite>
0

> <r_i_glide_emodel>
-44.62297956842

> <r_i_glide_energy>
-32.2508320808411

> <r_i_glide_einternal>
4.90205764770508

> <i_i_glide_confnum>
40

> <i_i_glide_posenum>
361

> <r_i_glide_eff_state_penalty>
0

> <i_f3d_flags>
0

> <s_user_duplicate_titles>
281720

> <s_m_subgroup_title>
dock_pv

> <s_m_subgroupid>
dock_pv1

> <b_m_subgroup_collapsed>
0

$$$$
289674
                    3D
 Schrodinger Suite 2021-1.
 40 43  0  0  1  0            999 V2000
    9.3881   13.6415    5.5956 C   0  0  0  0  0  0
   10.3018   13.4776    6.6299 C   0  0  0  0  0  0
   11.6662   13.6330    6.3886 C   0  0  0  0  0  0
   12.1199   14.0220    5.1229 C   0  0  0  0  0  0
   11.1840   14.1776    4.0975 C   0  0  0  0  0  0
    9.8250   13.9855    4.3221 C   0  0  0  0  0  0
   13.5765   14.2093    4.7989 C   0  0  0  0  0  0
   14.5618   14.9894    5.4132 C   0  0  0  0  0  0
   15.8026   14.8677    4.8030 N   0  0  0  0  0  0
   15.6474   13.9226    3.8066 C   0  0  0  0  0  0
   14.2846   13.5114    3.7672 C   0  0  0  0  0  0
   13.9922   12.5416    2.7950 C   0  0  0  0  0  0
   14.9577   12.0320    2.0030 N   0  0  0  0  0  0
   16.2144   12.4695    2.1909 C   0  0  0  0  0  0
   16.6176   13.4417    3.0221 N   0  0  0  0  0  0
   12.7162   12.0335    2.6072 N   0  0  0  0  0  0
   17.0239   15.5105    5.1697 C   0  0  0  0  0  0
   18.2664   14.8881    4.9545 C   0  0  0  0  0  0
   19.4508   15.6047    5.0592 C   0  0  0  0  0  0
   19.4172   16.9544    5.4013 C   0  0  0  0  0  0
   18.1921   17.5550    5.7056 C   0  0  0  0  0  0
   17.0024   16.8329    5.6031 C   0  0  0  0  0  0
   20.7065   17.7705    5.4338 C   0  0  0  0  0  0
   21.8015   17.0768    6.0036 O   0  0  0  0  0  0
    8.3353   13.4978    5.7852 H   0  0  0  0  0  0
    9.9486   13.2213    7.6142 H   0  0  0  0  0  0
   12.3593   13.5107    7.2036 H   0  0  0  0  0  0
   11.5212   14.4330    3.1095 H   0  0  0  0  0  0
    9.1158   14.0984    3.5152 H   0  0  0  0  0  0
   14.4781   15.6328    6.2743 H   0  0  0  0  0  0
   17.0030   12.0330    1.6032 H   0  0  0  0  0  0
   11.9736   12.3093    3.2317 H   0  0  0  0  0  0
   12.6335   11.2227    2.0034 H   0  0  0  0  0  0
   18.3439   13.8493    4.6739 H   0  0  0  0  0  0
   20.3915   15.1167    4.8460 H   0  0  0  0  0  0
   18.1629   18.5936    6.0013 H   0  0  0  0  0  0
   16.0631   17.3339    5.7826 H   0  0  0  0  0  0
   20.9598   18.0514    4.4106 H   0  0  0  0  0  0
   20.5541   18.6894    6.0016 H   0  0  0  0  0  0
   22.5908   17.6204    5.9351 H   0  0  0  0  0  0
  1  6  1  0  0  0
  1  2  2  0  0  0
  1 25  1  0  0  0
  2  3  1  0  0  0
  2 26  1  0  0  0
  3  4  2  0  0  0
  3 27  1  0  0  0
  4  5  1  0  0  0
  4  7  1  0  0  0
  5  6  2  0  0  0
  5 28  1  0  0  0
  6 29  1  0  0  0
  7 11  1  0  0  0
  7  8  2  0  0  0
  8  9  1  0  0  0
  8 30  1  0  0  0
  9 10  1  0  0  0
  9 17  1  0  0  0
 10 15  1  0  0  0
 10 11  2  0  0  0
 11 12  1  0  0  0
 12 13  2  0  0  0
 12 16  1  0  0  0
 13 14  1  0  0  0
 14 15  2  0  0  0
 14 31  1  0  0  0
 16 32  1  0  0  0
 16 33  1  0  0  0
 17 22  1  0  0  0
 17 18  2  0  0  0
 18 19  1  0  0  0
 18 34  1  0  0  0
 19 20  2  0  0  0
 19 35  1  0  0  0
 20 21  1  0  0  0
 20 23  1  0  0  0
 21 22  2  0  0  0
 21 36  1  0  0  0
 22 37  1  0  0  0
 23 24  1  0  0  0
 23 38  1  0  0  0
 23 39  1  0  0  0
 24 40  1  0  0  0
M  END
> <s_m_entry_id>
6523

> <s_m_entry_name>
ligand_docking-pose.34

> <s_m_Source_Path>
/home/csk/Desktop/cluster/DUD-E-result/abl1

> <s_m_Source_File>
ligand_docking-pose.sdf

> <i_m_Source_File_Index>
34

> <i_lp_mmshare_version>
53161

> <r_lp_tautomer_probability>
1

> <s_lp_Force_Field>
OPLS_2005

> <r_lp_Energy>
16.409202

> <b_lp_Chiralities_Consistent>
1

> <s_lp_Variant>
289674-1

> <s_i_glide_gridfile>
glide-grid_2hzi

> <i_i_glide_lignum>
22

> <i_i_glide_rotatable_bonds>
4

> <r_i_docking_score>
-9.70531669655457

> <r_i_glide_ligand_efficiency>
-0.404388195689774

> <r_i_glide_ligand_efficiency_sa>
-1.16645740170624

> <r_i_glide_ligand_efficiency_ln>
-2.32292763344945

> <r_i_glide_gscore>
-9.70531669655457

> <r_i_glide_lipo>
-4.42757675375655

> <r_i_glide_hbond>
-0.383381475120162

> <r_i_glide_metal>
0

> <r_i_glide_rewards>
-3.38439970767907

> <r_i_glide_evdw>
-33.3107147216797

> <r_i_glide_ecoul>
-1.56688570976257

> <r_i_glide_erotb>
0.390609832549585

> <r_i_glide_esite>
0

> <r_i_glide_emodel>
-34.4651285074965

> <r_i_glide_energy>
-34.8776004314423

> <r_i_glide_einternal>
2.53898763656616

> <i_i_glide_confnum>
61

> <i_i_glide_posenum>
298

> <r_i_glide_eff_state_penalty>
0

> <i_f3d_flags>
0

> <s_user_duplicate_titles>
289674

> <s_m_subgroup_title>
dock_pv

> <s_m_subgroupid>
dock_pv1

> <b_m_subgroup_collapsed>
0

$$$$
281829
                    3D
 Schrodinger Suite 2021-1.
 43 46  0  0  1  0            999 V2000
   22.0856   18.3588    5.3584 C   0  0  0  0  0  0
   21.7319   17.0074    5.6388 O   0  0  0  0  0  0
   20.4268   16.5976    5.4477 C   0  0  0  0  0  0
   19.3549   17.4612    5.1846 C   0  0  0  0  0  0
   18.0738   16.9492    4.9913 C   0  0  0  0  0  0
   17.8354   15.5755    5.0169 C   0  0  0  0  0  0
   18.8998   14.7229    5.3221 C   0  0  0  0  0  0
   20.1797   15.2296    5.5428 C   0  0  0  0  0  0
   16.4743   15.0248    4.6847 C   0  0  0  0  0  0
   15.2544   15.3639    5.2561 C   0  0  0  0  0  0
   14.2168   14.5512    4.8187 N   0  0  0  0  0  0
   14.7326   13.7471    3.8181 C   0  0  0  0  0  0
   16.1437   13.9693    3.7579 C   0  0  0  0  0  0
   16.8296   13.1027    2.8851 C   0  0  0  0  0  0
   16.1796   12.2073    2.1112 N   0  0  0  0  0  0
   14.8385   12.1495    2.2363 C   0  0  0  0  0  0
   14.0601   12.8549    3.0804 N   0  0  0  0  0  0
   18.2121   13.0832    2.8032 N   0  0  0  0  0  0
   12.8464   14.5570    5.3944 C   0  0  0  0  0  0
   11.8632   15.4593    4.6565 C   0  0  0  0  0  0
   11.2462   14.5123    3.6075 C   0  0  0  0  0  0
   10.9544   13.2717    4.3994 C   0  0  0  0  0  0
   12.0855   13.2331    5.4390 C   0  0  0  0  0  0
   23.1531   18.4959    5.5329 H   0  0  0  0  0  0
   21.5579   19.0632    6.0008 H   0  0  0  0  0  0
   21.8866   18.6134    4.3155 H   0  0  0  0  0  0
   19.4961   18.5283    5.1266 H   0  0  0  0  0  0
   17.2681   17.6319    4.7993 H   0  0  0  0  0  0
   18.7378   13.6569    5.3862 H   0  0  0  0  0  0
   20.9939   14.5549    5.7652 H   0  0  0  0  0  0
   15.0546   16.0861    6.0347 H   0  0  0  0  0  0
   14.3254   11.4598    1.5848 H   0  0  0  0  0  0
   18.7475   13.7805    3.3004 H   0  0  0  0  0  0
   18.6535   12.4413    2.1547 H   0  0  0  0  0  0
   13.1089   14.8320    6.4029 H   0  0  0  0  0  0
   10.9910   15.7969    5.2029 H   0  0  0  0  0  0
   12.3583   16.3902    4.4010 H   0  0  0  0  0  0
   10.3338   14.9069    3.1577 H   0  0  0  0  0  0
   11.9555   14.2943    2.8084 H   0  0  0  0  0  0
    9.9815   13.3351    4.8874 H   0  0  0  0  0  0
   10.9355   12.4323    3.7081 H   0  0  0  0  0  0
   12.7469   12.4325    5.2023 H   0  0  0  0  0  0
   11.6909   13.0363    6.4369 H   0  0  0  0  0  0
  1  2  1  0  0  0
  1 24  1  0  0  0
  1 25  1  0  0  0
  1 26  1  0  0  0
  2  3  1  0  0  0
  3  8  1  0  0  0
  3  4  2  0  0  0
  4  5  1  0  0  0
  4 27  1  0  0  0
  5  6  2  0  0  0
  5 28  1  0  0  0
  6  7  1  0  0  0
  6  9  1  0  0  0
  7  8  2  0  0  0
  7 29  1  0  0  0
  8 30  1  0  0  0
  9 13  1  0  0  0
  9 10  2  0  0  0
 10 11  1  0  0  0
 10 31  1  0  0  0
 11 12  1  0  0  0
 11 19  1  0  0  0
 12 17  1  0  0  0
 12 13  2  0  0  0
 13 14  1  0  0  0
 14 15  2  0  0  0
 14 18  1  0  0  0
 15 16  1  0  0  0
 16 17  2  0  0  0
 16 32  1  0  0  0
 18 33  1  0  0  0
 18 34  1  0  0  0
 19 23  1  0  0  0
 19 20  1  0  0  0
 19 35  1  0  0  0
 20 21  1  0  0  0
 20 36  1  0  0  0
 20 37  1  0  0  0
 21 22  1  0  0  0
 21 38  1  0  0  0
 21 39  1  0  0  0
 22 23  1  0  0  0
 22 40  1  0  0  0
 22 41  1  0  0  0
 23 42  1  0  0  0
 23 43  1  0  0  0
M  END
> <s_m_entry_id>
6524

> <s_m_entry_name>
ligand_docking-pose.35

> <s_m_Source_Path>
/home/csk/Desktop/cluster/DUD-E-result/abl1

> <s_m_Source_File>
ligand_docking-pose.sdf

> <i_m_Source_File_Index>
35

> <i_lp_mmshare_version>
53161

> <r_lp_tautomer_probability>
1

> <s_lp_Force_Field>
OPLS_2005

> <r_lp_Energy>
37.100908

> <b_lp_Chiralities_Consistent>
1

> <s_lp_Variant>
281829-1

> <s_i_glide_gridfile>
glide-grid_2hzi

> <i_i_glide_lignum>
463

> <i_i_glide_rotatable_bonds>
3

> <r_i_docking_score>
-9.64879964451617

> <r_i_glide_ligand_efficiency>
-0.419513028022442

> <r_i_glide_ligand_efficiency_sa>
-1.19303924676365

> <r_i_glide_ligand_efficiency_ln>
-2.33316724452202

> <r_i_glide_gscore>
-9.64879964451617

> <r_i_glide_lipo>
-3.69583340208121

> <r_i_glide_hbond>
-0.608

> <r_i_glide_metal>
0

> <r_i_glide_rewards>
-3.77663981023776

> <r_i_glide_evdw>
-21.3546047210693

> <r_i_glide_ecoul>
-5.15306663513184

> <r_i_glide_erotb>
0.272363799126053

> <r_i_glide_esite>
0

> <r_i_glide_emodel>
-35.19933331634

> <r_i_glide_energy>
-26.5076713562012

> <r_i_glide_einternal>
8.85868549346924

> <i_i_glide_confnum>
56

> <i_i_glide_posenum>
134

> <r_i_glide_eff_state_penalty>
0

> <i_f3d_flags>
0

> <s_user_duplicate_titles>
281829

> <s_m_subgroup_title>
dock_pv

> <s_m_subgroupid>
dock_pv1

> <b_m_subgroup_collapsed>
0

$$$$
193962
                    3D
 Schrodinger Suite 2021-1.
 37 40  0  0  1  0            999 V2000
   22.5903   17.3756    4.6539 C   0  0  0  0  0  0
   21.7151   17.7171    3.6247 C   0  0  0  0  0  0
   20.4291   17.1781    3.5928 C   0  0  0  0  0  0
   20.0011   16.3242    4.6256 C   0  0  0  0  0  0
   20.9342   15.8872    5.5836 C   0  0  0  0  0  0
   22.2184   16.4263    5.6027 C   0  0  0  0  0  0
   20.5070   14.7395    6.8058 Cl  0  0  0  0  0  0
   18.5500   16.1371    4.8657 C   0  0  0  0  0  0
   17.7495   15.1919    4.2851 C   0  0  0  0  0  0
   18.1460   14.1065    3.3858 C   0  0  0  0  0  0
   17.1787   13.2885    2.8889 C   0  0  0  0  0  0
   15.7746   13.5203    3.2210 C   0  0  0  0  0  0
   15.4378   14.4819    3.9970 N   0  0  0  0  0  0
   16.3756   15.2330    4.5685 N   0  0  0  0  0  0
   15.9212   16.0328    5.6037 C   0  0  0  0  0  0
   16.6674   16.8368    6.2474 N   0  0  0  0  0  0
   17.9482   17.1502    5.7671 C   0  0  0  0  0  0
   18.5641   18.1910    6.0030 O   0  0  0  0  0  0
   14.4839   12.4236    2.5990 S   0  0  0  0  0  0
   12.8995   12.8337    3.3740 C   0  0  0  0  0  0
   12.7668   13.5126    4.5972 C   0  0  0  0  0  0
   11.5170   13.9071    5.0692 C   0  0  0  0  0  0
   10.3670   13.6008    4.3564 C   0  0  0  0  0  0
   10.4669   12.8331    3.2032 C   0  0  0  0  0  0
   11.7193   12.4325    2.7292 C   0  0  0  0  0  0
   11.7649   11.6728    1.6094 F   0  0  0  0  0  0
    9.1592   14.0049    4.8071 F   0  0  0  0  0  0
   19.3661   17.6336    2.3024 Cl  0  0  0  0  0  0
   23.5791   17.8083    4.6878 H   0  0  0  0  0  0
   22.0291   18.4095    2.8571 H   0  0  0  0  0  0
   22.9251   16.1221    6.3635 H   0  0  0  0  0  0
   19.1870   13.9556    3.1368 H   0  0  0  0  0  0
   17.4707   12.4788    2.2354 H   0  0  0  0  0  0
   14.8750   15.9068    5.8758 H   0  0  0  0  0  0
   13.6053   13.7262    5.2336 H   0  0  0  0  0  0
   11.4356   14.4325    6.0019 H   0  0  0  0  0  0
    9.5730   12.5413    2.6729 H   0  0  0  0  0  0
  1  6  1  0  0  0
  1  2  2  0  0  0
  1 29  1  0  0  0
  2  3  1  0  0  0
  2 30  1  0  0  0
  3  4  2  0  0  0
  3 28  1  0  0  0
  4  5  1  0  0  0
  4  8  1  0  0  0
  5  6  2  0  0  0
  5  7  1  0  0  0
  6 31  1  0  0  0
  8 17  1  0  0  0
  8  9  2  0  0  0
  9 14  1  0  0  0
  9 10  1  0  0  0
 10 11  2  0  0  0
 10 32  1  0  0  0
 11 12  1  0  0  0
 11 33  1  0  0  0
 12 13  2  0  0  0
 12 19  1  0  0  0
 13 14  1  0  0  0
 14 15  1  0  0  0
 15 16  2  0  0  0
 15 34  1  0  0  0
 16 17  1  0  0  0
 17 18  2  0  0  0
 19 20  1  0  0  0
 20 25  1  0  0  0
 20 21  2  0  0  0
 21 22  1  0  0  0
 21 35  1  0  0  0
 22 23  2  0  0  0
 22 36  1  0  0  0
 23 24  1  0  0  0
 23 27  1  0  0  0
 24 25  2  0  0  0
 24 37  1  0  0  0
 25 26  1  0  0  0
M  END
> <s_m_entry_id>
6525

> <s_m_entry_name>
ligand_docking-pose.36

> <s_m_Source_Path>
/home/csk/Desktop/cluster/DUD-E-result/abl1

> <s_m_Source_File>
ligand_docking-pose.sdf

> <i_m_Source_File_Index>
36

> <i_lp_mmshare_version>
53161

> <r_lp_tautomer_probability>
1

> <s_lp_Force_Field>
OPLS_2005

> <r_lp_Energy>
43.744972

> <b_lp_Chiralities_Consistent>
1

> <s_lp_Variant>
193962-1

> <s_i_glide_gridfile>
glide-grid_2hzi

> <i_i_glide_lignum>
38

> <i_i_glide_rotatable_bonds>
3

> <r_i_docking_score>
-9.62750150258419

> <r_i_glide_ligand_efficiency>
-0.343839339378007

> <r_i_glide_ligand_efficiency_sa>
-1.04409874489255

> <r_i_glide_ligand_efficiency_ln>
-2.22231002252357

> <r_i_glide_gscore>
-9.62750150258419

> <r_i_glide_lipo>
-5.28294705548509

> <r_i_glide_hbond>
0

> <r_i_glide_metal>
0

> <r_i_glide_rewards>
-1.75805784855935

> <r_i_glide_evdw>
-51.6470336914062

> <r_i_glide_ecoul>
-1.98455083370209

> <r_i_glide_erotb>
0.314168101931062

> <r_i_glide_esite>
-0.0206303908451839

> <r_i_glide_emodel>
-50.8561446399973

> <r_i_glide_energy>
-53.6315845251083

> <r_i_glide_einternal>
11.6305541992188

> <i_i_glide_confnum>
2

> <i_i_glide_posenum>
268

> <r_i_glide_eff_state_penalty>
0

> <i_f3d_flags>
0

> <s_user_duplicate_titles>
193962

> <s_m_subgroup_title>
dock_pv

> <s_m_subgroupid>
dock_pv1

> <b_m_subgroup_collapsed>
0

$$$$
442098
                    3D
 Schrodinger Suite 2021-1.
 44 47  0  0  1  0            999 V2000
   23.1297   18.8793    5.2032 C   0  0  0  0  0  0
   23.3587   18.0299    6.2701 C   0  0  0  0  0  0
   22.6324   16.8445    6.3782 C   0  0  0  0  0  0
   21.6942   16.4908    5.4080 C   0  0  0  0  0  0
   21.4360   17.3761    4.3309 C   0  0  0  0  0  0
   22.1641   18.5683    4.2549 C   0  0  0  0  0  0
   20.4407   17.1775    3.1784 C   0  0  0  0  0  0
   19.5699   16.0145    3.2268 N   0  0  0  0  0  0
   18.4162   15.9736    4.0172 C   0  0  0  0  0  0
   17.4722   14.9568    3.8060 C   0  0  0  0  0  0
   17.3208   13.7636    3.0390 C   0  0  0  0  0  0
   16.1194   13.2616    3.1745 N   0  0  0  0  0  0
   15.4682   14.0307    4.0676 N   0  0  0  0  0  0
   16.2846   15.0452    4.5570 C   0  0  0  0  0  0
   16.0502   15.9384    5.5325 N   0  0  0  0  0  0
   17.0623   16.8318    5.6919 C   0  0  0  0  0  0
   18.2042   16.9231    4.9707 N   0  0  0  0  0  0
   14.1594   13.5877    4.5365 C   0  0  0  0  0  0
   12.9570   14.4249    4.0473 C   0  0  1  0  0  0
   11.6175   13.9805    4.6445 C   0  0  0  0  0  0
   11.4972   13.6332    5.9997 C   0  0  0  0  0  0
   10.2475   13.3573    6.5460 C   0  0  0  0  0  0
    9.1243   13.3576    5.7295 C   0  0  0  0  0  0
    9.2294   13.6575    4.3760 C   0  0  0  0  0  0
   10.4723   13.9870    3.8433 C   0  0  0  0  0  0
    7.9281   13.0494    6.2645 F   0  0  0  0  0  0
   13.2004   16.1570    4.4032 Cl  0  0  0  0  0  0
   20.9718   14.9351    5.6219 Cl  0  0  0  0  0  0
   23.6935   19.8026    5.1178 H   0  0  0  0  0  0
   24.1183   18.2705    6.9981 H   0  0  0  0  0  0
   22.8378   16.1741    7.2005 H   0  0  0  0  0  0
   21.9960   19.2581    3.4418 H   0  0  0  0  0  0
   20.9838   17.1303    2.2319 H   0  0  0  0  0  0
   19.8065   18.0603    3.1117 H   0  0  0  0  0  0
   19.7095   15.2985    2.5186 H   0  0  0  0  0  0
   18.0416   13.3054    2.3802 H   0  0  0  0  0  0
   16.9525   17.5681    6.4719 H   0  0  0  0  0  0
   14.2257   13.6418    5.6027 H   0  0  0  0  0  0
   14.0163   12.5357    4.2714 H   0  0  0  0  0  0
   12.9046   14.3374    2.9650 H   0  0  0  0  0  0
   12.3500   13.6396    6.6584 H   0  0  0  0  0  0
   10.1494   13.1474    7.6006 H   0  0  0  0  0  0
    8.3515   13.6424    3.7477 H   0  0  0  0  0  0
   10.5335   14.2538    2.8042 H   0  0  0  0  0  0
  1  6  1  0  0  0
  1  2  2  0  0  0
  1 29  1  0  0  0
  2  3  1  0  0  0
  2 30  1  0  0  0
  3  4  2  0  0  0
  3 31  1  0  0  0
  4  5  1  0  0  0
  4 28  1  0  0  0
  5  6  2  0  0  0
  5  7  1  0  0  0
  6 32  1  0  0  0
  7  8  1  0  0  0
  7 33  1  0  0  0
  7 34  1  0  0  0
  8  9  1  0  0  0
  8 35  1  0  0  0
  9 17  1  0  0  0
  9 10  2  0  0  0
 10 14  1  0  0  0
 10 11  1  0  0  0
 11 12  2  0  0  0
 11 36  1  0  0  0
 12 13  1  0  0  0
 13 14  1  0  0  0
 13 18  1  0  0  0
 14 15  2  0  0  0
 15 16  1  0  0  0
 16 17  2  0  0  0
 16 37  1  0  0  0
 18 19  1  0  0  0
 18 38  1  0  0  0
 18 39  1  0  0  0
 19 20  1  0  0  0
 19 27  1  0  0  0
 19 40  1  0  0  0
 20 25  1  0  0  0
 20 21  2  0  0  0
 21 22  1  0  0  0
 21 41  1  0  0  0
 22 23  2  0  0  0
 22 42  1  0  0  0
 23 24  1  0  0  0
 23 26  1  0  0  0
 24 25  2  0  0  0
 24 43  1  0  0  0
 25 44  1  0  0  0
M  END
> <s_m_entry_id>
6526

> <s_m_entry_name>
ligand_docking-pose.37

> <s_m_Source_Path>
/home/csk/Desktop/cluster/DUD-E-result/abl1

> <s_m_Source_File>
ligand_docking-pose.sdf

> <i_m_Source_File_Index>
37

> <i_lp_mmshare_version>
53161

> <r_lp_tautomer_probability>
1

> <s_lp_Force_Field>
OPLS_2005

> <r_lp_Energy>
9.558726

> <b_lp_Chiralities_Consistent>
1

> <s_lp_Variant>
442098-1

> <s_i_glide_gridfile>
glide-grid_2hzi

> <i_i_glide_lignum>
58

> <i_i_glide_rotatable_bonds>
6

> <r_i_docking_score>
-9.47171338242493

> <r_i_glide_ligand_efficiency>
-0.338275477943748

> <r_i_glide_ligand_efficiency_sa>
-1.027203584639

> <r_i_glide_ligand_efficiency_ln>
-2.18634955025285

> <r_i_glide_gscore>
-9.47171338242493

> <r_i_glide_lipo>
-5.09680549912187

> <r_i_glide_hbond>
-0.274156030303811

> <r_i_glide_metal>
0

> <r_i_glide_rewards>
-2.05061566903689

> <r_i_glide_evdw>
-42.8763313293457

> <r_i_glide_ecoul>
-3.93539595603943

> <r_i_glide_erotb>
0.683989775910835

> <r_i_glide_esite>
0

> <r_i_glide_emodel>
-59.3247009916991

> <r_i_glide_energy>
-46.8117272853851

> <r_i_glide_einternal>
19.6001091003418

> <i_i_glide_confnum>
85

> <i_i_glide_posenum>
93

> <r_i_glide_eff_state_penalty>
0

> <i_f3d_flags>
0

> <s_user_duplicate_titles>
442098

> <s_m_subgroup_title>
dock_pv

> <s_m_subgroupid>
dock_pv1

> <b_m_subgroup_collapsed>
0

$$$$
281736
                    3D
 Schrodinger Suite 2021-1.
 49 52  0  0  1  0            999 V2000
   20.8084   17.7360    2.0158 C   0  0  0  0  0  0
   21.2652   17.5335    3.3401 O   0  0  0  0  0  0
   20.5643   16.6917    4.1683 C   0  0  0  0  0  0
   21.1972   16.3274    5.3610 C   0  0  0  0  0  0
   20.5609   15.5002    6.2844 C   0  0  0  0  0  0
   19.2643   15.0450    6.0282 C   0  0  0  0  0  0
   18.6223   15.3896    4.8341 C   0  0  0  0  0  0
   19.2745   16.1980    3.9042 C   0  0  0  0  0  0
   17.2351   14.9344    4.5844 C   0  0  0  0  0  0
   16.1000   15.3936    5.2069 C   0  0  0  0  0  0
   15.0019   14.6306    4.8635 N   0  0  0  0  0  0
   15.3656   13.7446    3.8893 C   0  0  0  0  0  0
   16.7722   13.8700    3.7438 C   0  0  0  0  0  0
   17.3364   12.9173    2.9057 C   0  0  0  0  0  0
   16.5855   12.0347    2.2160 N   0  0  0  0  0  0
   15.2414   12.0895    2.3927 C   0  0  0  0  0  0
   14.5619   12.9026    3.2306 N   0  0  0  0  0  0
   18.7073   12.8321    2.8034 N   0  0  0  0  0  0
   13.6482   14.9209    5.2672 C   0  0  1  0  0  0
   12.9649   15.6456    4.1706 C   0  0  0  0  0  0
   11.6819   14.8188    4.0027 C   0  0  0  0  0  0
   11.3757   14.2268    5.2574 N   0  0  2  0  0  0
   12.6901   13.7793    5.6858 C   0  0  0  0  0  0
   10.3067   13.2287    5.2380 C   0  0  0  0  0  0
    8.9344   13.8938    5.1205 C   0  0  0  0  0  0
    8.2733   14.1557    6.1273 O   0  0  0  0  0  0
    8.4922   14.1638    3.8933 N   0  0  0  0  0  0
   21.3842   18.5511    1.6034 H   0  0  0  0  0  0
   20.9617   16.8464    1.4045 H   0  0  0  0  0  0
   19.7658   18.0355    1.9450 H   0  0  0  0  0  0
   22.1886   16.6943    5.5749 H   0  0  0  0  0  0
   21.0579   15.2327    7.2041 H   0  0  0  0  0  0
   18.7590   14.4208    6.7548 H   0  0  0  0  0  0
   18.7503   16.4583    2.9981 H   0  0  0  0  0  0
   15.9928   16.1950    5.9248 H   0  0  0  0  0  0
   14.6483   11.3959    1.8084 H   0  0  0  0  0  0
   19.2809   13.5138    3.2744 H   0  0  0  0  0  0
   19.1011   12.1439    2.1647 H   0  0  0  0  0  0
   13.8130   15.6325    6.0160 H   0  0  0  0  0  0
   13.5670   15.6670    3.2597 H   0  0  0  0  0  0
   12.7163   16.6778    4.4031 H   0  0  0  0  0  0
   11.8197   14.0350    3.2575 H   0  0  0  0  0  0
   10.8120   15.3435    3.6048 H   0  0  0  0  0  0
   12.5656   13.5929    6.7551 H   0  0  0  0  0  0
   12.9447   12.8333    5.2033 H   0  0  0  0  0  0
   10.3170   12.6703    6.1758 H   0  0  0  0  0  0
   10.4320   12.5459    4.3980 H   0  0  0  0  0  0
    7.5915   14.5975    3.7916 H   0  0  0  0  0  0
    9.0277   13.9063    3.0793 H   0  0  0  0  0  0
  1  2  1  0  0  0
  1 28  1  0  0  0
  1 29  1  0  0  0
  1 30  1  0  0  0
  2  3  1  0  0  0
  3  8  1  0  0  0
  3  4  2  0  0  0
  4  5  1  0  0  0
  4 31  1  0  0  0
  5  6  2  0  0  0
  5 32  1  0  0  0
  6  7  1  0  0  0
  6 33  1  0  0  0
  7  8  2  0  0  0
  7  9  1  0  0  0
  8 34  1  0  0  0
  9 13  1  0  0  0
  9 10  2  0  0  0
 10 11  1  0  0  0
 10 35  1  0  0  0
 11 12  1  0  0  0
 11 19  1  0  0  0
 12 17  1  0  0  0
 12 13  2  0  0  0
 13 14  1  0  0  0
 14 15  2  0  0  0
 14 18  1  0  0  0
 15 16  1  0  0  0
 16 17  2  0  0  0
 16 36  1  0  0  0
 18 37  1  0  0  0
 18 38  1  0  0  0
 19 23  1  0  0  0
 19 20  1  0  0  0
 19 39  1  0  0  0
 20 21  1  0  0  0
 20 40  1  0  0  0
 20 41  1  0  0  0
 21 22  1  0  0  0
 21 42  1  0  0  0
 21 43  1  0  0  0
 22 23  1  0  0  0
 22 24  1  0  0  0
 23 44  1  0  0  0
 23 45  1  0  0  0
 24 25  1  0  0  0
 24 46  1  0  0  0
 24 47  1  0  0  0
 25 26  2  0  0  0
 25 27  1  0  0  0
 27 48  1  0  0  0
 27 49  1  0  0  0
M  END
> <s_m_entry_id>
6527

> <s_m_entry_name>
ligand_docking-pose.38

> <s_m_Source_Path>
/home/csk/Desktop/cluster/DUD-E-result/abl1

> <s_m_Source_File>
ligand_docking-pose.sdf

> <i_m_Source_File_Index>
38

> <i_lp_mmshare_version>
53161

> <r_lp_tautomer_probability>
1

> <s_lp_Force_Field>
OPLS_2005

> <r_lp_Energy>
35.555461

> <b_lp_Chiralities_Consistent>
1

> <s_lp_Variant>
281736-2

> <s_i_glide_gridfile>
glide-grid_2hzi

> <i_i_glide_lignum>
471

> <i_i_glide_rotatable_bonds>
5

> <r_i_docking_score>
-9.44913058998686

> <r_i_glide_ligand_efficiency>
-0.349967799629143

> <r_i_glide_ligand_efficiency_sa>
-1.04990339773399

> <r_i_glide_ligand_efficiency_ln>
-2.19960182025621

> <r_i_glide_gscore>
-9.44913058998686

> <r_i_glide_lipo>
-3.79164633627229

> <r_i_glide_hbond>
-0.608

> <r_i_glide_metal>
0

> <r_i_glide_rewards>
-3.33219097381897

> <r_i_glide_evdw>
-17.9533042907715

> <r_i_glide_ecoul>
-7.47117233276367

> <r_i_glide_erotb>
0.301047784557522

> <r_i_glide_esite>
0

> <r_i_glide_emodel>
-39.6174223675203

> <r_i_glide_energy>
-25.4244766235352

> <r_i_glide_einternal>
10.279974937439

> <i_i_glide_confnum>
9

> <i_i_glide_posenum>
305

> <r_i_glide_eff_state_penalty>
0

> <i_f3d_flags>
0

> <s_user_duplicate_titles>
281736

> <s_m_subgroup_title>
dock_pv

> <s_m_subgroupid>
dock_pv1

> <b_m_subgroup_collapsed>
0

$$$$
454783
                    3D
 Schrodinger Suite 2021-1.
 52 55  0  0  1  0            999 V2000
   18.0930   18.3180    6.4187 C   0  0  0  0  0  0
   17.1264   17.2330    6.1567 N   0  0  0  0  0  0
   16.3165   16.6232    7.2024 C   0  0  0  0  0  0
   17.3047   16.4319    5.0305 C   0  0  0  0  0  0
   18.3994   16.6779    4.3068 N   0  0  0  0  0  0
   18.8265   15.7269    3.4742 C   0  0  0  0  0  0
   18.0970   14.5235    3.3386 C   0  0  0  0  0  0
   18.1819   13.2092    2.8027 C   0  0  0  0  0  0
   17.0375   12.5624    2.8906 N   0  0  0  0  0  0
   16.1916   13.3626    3.5794 N   0  0  0  0  0  0
   16.8478   14.5077    3.9669 C   0  0  0  0  0  0
   16.4254   15.4245    4.8105 N   0  0  0  0  0  0
   14.8861   12.8682    4.0416 C   0  0  0  0  0  0
   13.6914   13.7904    3.6645 C   0  0  1  0  0  0
   12.3645   13.0921    3.3167 C   0  0  0  0  0  0
   12.3688   12.0333    2.4028 C   0  0  0  0  0  0
   11.1789   11.4318    2.0032 C   0  0  0  0  0  0
    9.9670   11.8928    2.5081 C   0  0  0  0  0  0
    9.9387   12.9404    3.4236 C   0  0  0  0  0  0
   11.1312   13.5368    3.8286 C   0  0  0  0  0  0
   13.4740   15.1322    4.8036 Cl  0  0  0  0  0  0
   20.0008   16.0332    2.8031 N   0  0  0  0  0  0
   20.6510   17.3397    2.8657 C   0  0  0  0  0  0
   21.5330   17.5351    4.0954 C   0  0  0  0  0  0
   22.2602   18.7183    4.1717 C   0  0  0  0  0  0
   23.1697   18.9082    5.2028 C   0  0  0  0  0  0
   23.3203   17.9434    6.1865 C   0  0  0  0  0  0
   22.5609   16.7796    6.1506 C   0  0  0  0  0  0
   21.6694   16.5701    5.1070 C   0  0  0  0  0  0
   19.0994   17.9148    6.4030 H   0  0  0  0  0  0
   18.1640   19.0521    5.6181 H   0  0  0  0  0  0
   17.9094   18.8320    7.3623 H   0  0  0  0  0  0
   15.3410   16.3815    6.8011 H   0  0  0  0  0  0
   16.7178   15.6690    7.5583 H   0  0  0  0  0  0
   16.1646   17.3142    8.0031 H   0  0  0  0  0  0
   19.0625   12.7489    2.4002 H   0  0  0  0  0  0
   14.9642   12.8331    5.1216 H   0  0  0  0  0  0
   14.7508   11.8452    3.6894 H   0  0  0  0  0  0
   14.0062   14.3261    2.8030 H   0  0  0  0  0  0
   13.2942   11.6791    1.9723 H   0  0  0  0  0  0
   11.2003   10.6087    1.3026 H   0  0  0  0  0  0
    9.0446   11.4180    2.2051 H   0  0  0  0  0  0
    8.9954   13.2846    3.8207 H   0  0  0  0  0  0
   11.0652   14.3519    4.5319 H   0  0  0  0  0  0
   20.4084   15.3317    2.1787 H   0  0  0  0  0  0
   21.2498   17.4813    1.9657 H   0  0  0  0  0  0
   19.8937   18.1213    2.8441 H   0  0  0  0  0  0
   22.1646   19.4721    3.4033 H   0  0  0  0  0  0
   23.7652   19.8085    5.2204 H   0  0  0  0  0  0
   24.0392   18.0904    6.9787 H   0  0  0  0  0  0
   22.6876   16.0317    6.9175 H   0  0  0  0  0  0
   21.1180   15.6421    5.0795 H   0  0  0  0  0  0
  1  2  1  0  0  0
  1 30  1  0  0  0
  1 31  1  0  0  0
  1 32  1  0  0  0
  2  3  1  0  0  0
  2  4  1  0  0  0
  3 33  1  0  0  0
  3 34  1  0  0  0
  3 35  1  0  0  0
  4 12  1  0  0  0
  4  5  2  0  0  0
  5  6  1  0  0  0
  6  7  2  0  0  0
  6 22  1  0  0  0
  7 11  1  0  0  0
  7  8  1  0  0  0
  8  9  2  0  0  0
  8 36  1  0  0  0
  9 10  1  0  0  0
 10 11  1  0  0  0
 10 13  1  0  0  0
 11 12  2  0  0  0
 13 14  1  0  0  0
 13 37  1  0  0  0
 13 38  1  0  0  0
 14 15  1  0  0  0
 14 21  1  0  0  0
 14 39  1  0  0  0
 15 20  1  0  0  0
 15 16  2  0  0  0
 16 17  1  0  0  0
 16 40  1  0  0  0
 17 18  2  0  0  0
 17 41  1  0  0  0
 18 19  1  0  0  0
 18 42  1  0  0  0
 19 20  2  0  0  0
 19 43  1  0  0  0
 20 44  1  0  0  0
 22 23  1  0  0  0
 22 45  1  0  0  0
 23 24  1  0  0  0
 23 46  1  0  0  0
 23 47  1  0  0  0
 24 29  1  0  0  0
 24 25  2  0  0  0
 25 26  1  0  0  0
 25 48  1  0  0  0
 26 27  2  0  0  0
 26 49  1  0  0  0
 27 28  1  0  0  0
 27 50  1  0  0  0
 28 29  2  0  0  0
 28 51  1  0  0  0
 29 52  1  0  0  0
M  END
> <s_m_entry_id>
6528

> <s_m_entry_name>
ligand_docking-pose.39

> <s_m_Source_Path>
/home/csk/Desktop/cluster/DUD-E-result/abl1

> <s_m_Source_File>
ligand_docking-pose.sdf

> <i_m_Source_File_Index>
39

> <i_lp_mmshare_version>
53161

> <r_lp_tautomer_probability>
0.99999558864179

> <s_lp_Force_Field>
OPLS_2005

> <r_lp_Energy>
11.514557

> <b_lp_Chiralities_Consistent>
1

> <s_lp_Variant>
454783-1

> <s_i_glide_gridfile>
glide-grid_2hzi

> <i_i_glide_lignum>
430

> <i_i_glide_rotatable_bonds>
7

> <r_i_docking_score>
-9.44371855232829

> <r_i_glide_ligand_efficiency>
-0.325645467321665

> <r_i_glide_ligand_efficiency_sa>
-1.0004860473377

> <r_i_glide_ligand_efficiency_ln>
-2.1623720764429

> <r_i_glide_gscore>
-9.44371855232829

> <r_i_glide_lipo>
-4.18337583374899

> <r_i_glide_hbond>
-0.288790954590128

> <r_i_glide_metal>
0

> <r_i_glide_rewards>
-3.19236117777238

> <r_i_glide_evdw>
-21.6669807434082

> <r_i_glide_ecoul>
-9.13008403778076

> <r_i_glide_erotb>
0.712666497166783

> <r_i_glide_esite>
-0.0389954405460442

> <r_i_glide_emodel>
-57.7645447510525

> <r_i_glide_energy>
-30.797064781189

> <r_i_glide_einternal>
17.3707008361816

> <i_i_glide_confnum>
65

> <i_i_glide_posenum>
99

> <r_i_glide_eff_state_penalty>
0

> <i_f3d_flags>
0

> <s_user_duplicate_titles>
454783

> <s_m_subgroup_title>
dock_pv

> <s_m_subgroupid>
dock_pv1

> <b_m_subgroup_collapsed>
0

$$$$
348520
                    3D
 Schrodinger Suite 2021-1.
 32 34  0  0  1  0            999 V2000
    9.3828   13.6809    5.2981 C   0  0  0  0  0  0
    9.4042   13.3621    3.9455 C   0  0  0  0  0  0
   10.6224   13.1466    3.3089 C   0  0  0  0  0  0
   11.8326   13.2813    4.0029 C   0  0  0  0  0  0
   11.7962   13.6331    5.3569 C   0  0  0  0  0  0
   10.5735   13.8059    6.0051 C   0  0  0  0  0  0
   13.0851   12.8697    3.3230 C   0  0  0  0  0  0
   14.3683   13.3243    3.3863 C   0  0  0  0  0  0
   15.3975   12.6341    2.7051 C   0  0  0  0  0  0
   15.3640   11.6348    2.0031 O   0  0  0  0  0  0
   16.4798   13.3273    3.0177 N   0  0  0  0  0  0
   16.2270   14.4311    3.8281 N   0  0  0  0  0  0
   14.8828   14.4738    4.0724 C   0  0  0  0  0  0
   14.2636   15.3176    4.7182 O   0  0  0  0  0  0
   17.2744   15.2960    4.2438 C   0  0  0  0  0  0
   18.5256   15.2172    3.6038 C   0  0  0  0  0  0
   19.5768   16.0419    3.9859 C   0  0  0  0  0  0
   19.3893   16.9664    5.0052 C   0  0  0  0  0  0
   18.1568   17.0704    5.6412 C   0  0  0  0  0  0
   17.1079   16.2290    5.2798 C   0  0  0  0  0  0
   20.9825   18.1826    5.5979 I   0  0  0  0  0  0
    8.4402   13.8159    5.8072 H   0  0  0  0  0  0
    8.4813   13.2457    3.3992 H   0  0  0  0  0  0
   10.6106   12.8306    2.2796 H   0  0  0  0  0  0
   12.7053   13.7022    5.9355 H   0  0  0  0  0  0
   10.5537   14.0330    7.0616 H   0  0  0  0  0  0
   12.9185   11.9914    2.7064 H   0  0  0  0  0  0
   17.4580   13.2200    2.8014 H   0  0  0  0  0  0
   18.7147   14.5198    2.8013 H   0  0  0  0  0  0
   20.5332   15.9636    3.4873 H   0  0  0  0  0  0
   18.0150   17.7937    6.4285 H   0  0  0  0  0  0
   16.1732   16.3251    5.8117 H   0  0  0  0  0  0
  1  6  1  0  0  0
  1  2  2  0  0  0
  1 22  1  0  0  0
  2  3  1  0  0  0
  2 23  1  0  0  0
  3  4  2  0  0  0
  3 24  1  0  0  0
  4  5  1  0  0  0
  4  7  1  0  0  0
  5  6  2  0  0  0
  5 25  1  0  0  0
  6 26  1  0  0  0
  7  8  2  0  0  0
  7 27  1  0  0  0
  8 13  1  0  0  0
  8  9  1  0  0  0
  9 10  2  0  0  0
  9 11  1  0  0  0
 11 12  1  0  0  0
 11 28  1  0  0  0
 12 13  1  0  0  0
 12 15  1  0  0  0
 13 14  2  0  0  0
 15 20  1  0  0  0
 15 16  2  0  0  0
 16 17  1  0  0  0
 16 29  1  0  0  0
 17 18  2  0  0  0
 17 30  1  0  0  0
 18 19  1  0  0  0
 18 21  1  0  0  0
 19 20  2  0  0  0
 19 31  1  0  0  0
 20 32  1  0  0  0
M  END
> <s_m_entry_id>
6530

> <s_m_entry_name>
ligand_docking-pose.41

> <s_m_Source_Path>
/home/csk/Desktop/cluster/DUD-E-result/abl1

> <s_m_Source_File>
ligand_docking-pose.sdf

> <i_m_Source_File_Index>
41

> <i_lp_mmshare_version>
53161

> <r_lp_tautomer_probability>
0.499933002277922

> <s_lp_Force_Field>
OPLS_2005

> <r_lp_Energy>
30.298226

> <b_lp_Chiralities_Consistent>
1

> <s_lp_Variant>
348520-1

> <s_i_glide_gridfile>
glide-grid_2hzi

> <i_i_glide_lignum>
27

> <i_i_glide_rotatable_bonds>
2

> <r_i_docking_score>
-9.43382738802699

> <r_i_glide_ligand_efficiency>
-0.449229875620333

> <r_i_glide_ligand_efficiency_sa>
-1.23939116334384

> <r_i_glide_ligand_efficiency_ln>
-2.33249475884651

> <r_i_glide_gscore>
-9.43382738802699

> <r_i_glide_lipo>
-3.4309877171439

> <r_i_glide_hbond>
-0.32

> <r_i_glide_metal>
0

> <r_i_glide_rewards>
-3.36113663958299

> <r_i_glide_evdw>
-34.2734146118164

> <r_i_glide_ecoul>
-4.90756034851074

> <r_i_glide_erotb>
0.128101751567335

> <r_i_glide_esite>
0

> <r_i_glide_emodel>
-57.3853634795574

> <r_i_glide_energy>
-39.1809749603271

> <r_i_glide_einternal>
0.388124644756317

> <i_i_glide_confnum>
1

> <i_i_glide_posenum>
195

> <r_i_glide_eff_state_penalty>
0

> <i_f3d_flags>
0

> <s_user_duplicate_titles>
348520

> <s_m_subgroup_title>
dock_pv

> <s_m_subgroupid>
dock_pv1

> <b_m_subgroup_collapsed>
0

$$$$
402627
                    3D
 Schrodinger Suite 2021-1.
 45 48  0  0  1  0            999 V2000
   16.1187   15.4923    7.6388 C   0  0  0  0  0  0
   16.6605   16.8324    6.5253 S   0  0  0  0  0  0
   17.2681   15.9639    5.2084 C   0  0  0  0  0  0
   18.5567   16.1607    4.9147 N   0  0  0  0  0  0
   19.1393   15.2320    4.1267 C   0  0  0  0  0  0
   18.3586   14.1720    3.5844 C   0  0  0  0  0  0
   18.4671   12.9926    2.8033 C   0  0  0  0  0  0
   17.3157   12.3597    2.6678 N   0  0  0  0  0  0
   16.3803   13.0733    3.3281 N   0  0  0  0  0  0
   16.9970   14.1589    3.9317 C   0  0  0  0  0  0
   16.4523   14.9955    4.7872 N   0  0  0  0  0  0
   15.0358   12.4927    3.6238 C   0  0  0  0  0  0
   13.8528   13.3221    3.0654 C   0  0  1  0  0  0
   12.4006   12.8333    3.2071 C   0  0  0  0  0  0
   11.9015   11.8859    2.3087 C   0  0  0  0  0  0
   10.5342   11.6320    2.2337 C   0  0  0  0  0  0
    9.6540   12.3183    3.0670 C   0  0  0  0  0  0
   10.1329   13.2331    4.0003 C   0  0  0  0  0  0
   11.5008   13.4745    4.0804 C   0  0  0  0  0  0
   13.9211   15.0372    3.6030 Cl  0  0  0  0  0  0
   20.5270   15.3452    4.0030 N   0  0  0  0  0  0
   21.3172   16.4142    4.4590 C   0  0  0  0  0  0
   21.3168   17.6317    3.7713 C   0  0  0  0  0  0
   22.1491   18.6646    4.1940 C   0  0  0  0  0  0
   22.9637   18.4794    5.3070 C   0  0  0  0  0  0
   22.9549   17.2744    6.0032 C   0  0  0  0  0  0
   22.1342   16.2348    5.5765 C   0  0  0  0  0  0
   15.7640   15.8830    8.5758 H   0  0  0  0  0  0
   15.3213   14.9011    7.1932 H   0  0  0  0  0  0
   16.9330   14.8331    7.9590 H   0  0  0  0  0  0
   19.3826   12.6043    2.4032 H   0  0  0  0  0  0
   14.9623   12.4019    4.7032 H   0  0  0  0  0  0
   14.9855   11.4890    3.2039 H   0  0  0  0  0  0
   14.0432   13.2330    1.9996 H   0  0  0  0  0  0
   12.5632   11.3824    1.6183 H   0  0  0  0  0  0
   10.1574   10.9070    1.5257 H   0  0  0  0  0  0
    8.5942   12.1159    3.0063 H   0  0  0  0  0  0
    9.4480   13.7457    4.6596 H   0  0  0  0  0  0
   11.8353   14.2012    4.8052 H   0  0  0  0  0  0
   20.9498   14.7578    3.2934 H   0  0  0  0  0  0
   20.6867   17.7654    2.9040 H   0  0  0  0  0  0
   22.1642   19.6050    3.6621 H   0  0  0  0  0  0
   23.6110   19.2805    5.6334 H   0  0  0  0  0  0
   23.5986   17.1414    6.8596 H   0  0  0  0  0  0
   22.1439   15.2906    6.1023 H   0  0  0  0  0  0
  1  2  1  0  0  0
  1 28  1  0  0  0
  1 29  1  0  0  0
  1 30  1  0  0  0
  2  3  1  0  0  0
  3 11  1  0  0  0
  3  4  2  0  0  0
  4  5  1  0  0  0
  5  6  2  0  0  0
  5 21  1  0  0  0
  6 10  1  0  0  0
  6  7  1  0  0  0
  7  8  2  0  0  0
  7 31  1  0  0  0
  8  9  1  0  0  0
  9 10  1  0  0  0
  9 12  1  0  0  0
 10 11  2  0  0  0
 12 13  1  0  0  0
 12 32  1  0  0  0
 12 33  1  0  0  0
 13 14  1  0  0  0
 13 20  1  0  0  0
 13 34  1  0  0  0
 14 19  1  0  0  0
 14 15  2  0  0  0
 15 16  1  0  0  0
 15 35  1  0  0  0
 16 17  2  0  0  0
 16 36  1  0  0  0
 17 18  1  0  0  0
 17 37  1  0  0  0
 18 19  2  0  0  0
 18 38  1  0  0  0
 19 39  1  0  0  0
 21 22  1  0  0  0
 21 40  1  0  0  0
 22 27  1  0  0  0
 22 23  2  0  0  0
 23 24  1  0  0  0
 23 41  1  0  0  0
 24 25  2  0  0  0
 24 42  1  0  0  0
 25 26  1  0  0  0
 25 43  1  0  0  0
 26 27  2  0  0  0
 26 44  1  0  0  0
 27 45  1  0  0  0
M  END
> <s_m_entry_id>
6531

> <s_m_entry_name>
ligand_docking-pose.42

> <s_m_Source_Path>
/home/csk/Desktop/cluster/DUD-E-result/abl1

> <s_m_Source_File>
ligand_docking-pose.sdf

> <i_m_Source_File_Index>
42

> <i_lp_mmshare_version>
53161

> <r_lp_tautomer_probability>
1

> <s_lp_Force_Field>
OPLS_2005

> <r_lp_Energy>
14.175447

> <b_lp_Chiralities_Consistent>
1

> <s_lp_Variant>
402627-1

> <s_i_glide_gridfile>
glide-grid_2hzi

> <i_i_glide_lignum>
514

> <i_i_glide_rotatable_bonds>
6

> <r_i_docking_score>
-9.35261366143692

> <r_i_glide_ligand_efficiency>
-0.346393098571738

> <r_i_glide_ligand_efficiency_sa>
-1.03917929457356

> <r_i_glide_ligand_efficiency_ln>
-2.17713427049571

> <r_i_glide_gscore>
-9.35261366143692

> <r_i_glide_lipo>
-4.17666485400505

> <r_i_glide_hbond>
-0.346277435756073

> <r_i_glide_metal>
0

> <r_i_glide_rewards>
-3.15487426071075

> <r_i_glide_evdw>
-24.521936416626

> <r_i_glide_ecoul>
-7.1508936882019

> <r_i_glide_erotb>
0.623933763096541

> <r_i_glide_esite>
0

> <r_i_glide_emodel>
-52.1273962693567

> <r_i_glide_energy>
-31.6728301048279

> <r_i_glide_einternal>
16.2928619384766

> <i_i_glide_confnum>
69

> <i_i_glide_posenum>
28

> <r_i_glide_eff_state_penalty>
0

> <i_f3d_flags>
0

> <s_user_duplicate_titles>
402627

> <s_m_subgroup_title>
dock_pv

> <s_m_subgroupid>
dock_pv1

> <b_m_subgroup_collapsed>
0

$$$$
442427
                    3D
 Schrodinger Suite 2021-1.
 44 47  0  0  1  0            999 V2000
   23.3183   17.8728    6.1871 C   0  0  0  0  0  0
   22.5640   16.7036    6.1756 C   0  0  0  0  0  0
   21.6407   16.4877    5.1615 C   0  0  0  0  0  0
   21.4602   17.4535    4.1586 C   0  0  0  0  0  0
   22.2014   18.6321    4.1975 C   0  0  0  0  0  0
   23.1384   18.8330    5.2030 C   0  0  0  0  0  0
   20.5063   17.2682    2.9803 C   0  0  0  0  0  0
   19.7330   16.0330    3.0059 N   0  0  0  0  0  0
   18.6230   15.8809    3.8430 C   0  0  0  0  0  0
   17.7228   14.8152    3.6492 C   0  0  0  0  0  0
   17.5513   13.6343    2.8512 C   0  0  0  0  0  0
   16.3674   13.0971    3.0364 N   0  0  0  0  0  0
   15.7642   13.8198    4.0030 N   0  0  0  0  0  0
   16.5868   14.8330    4.4702 C   0  0  0  0  0  0
   16.3635   15.6833    5.4849 N   0  0  0  0  0  0
   17.3146   16.6378    5.6049 C   0  0  0  0  0  0
   18.4030   16.8047    4.8220 N   0  0  0  0  0  0
   14.4569   13.4335    4.5349 C   0  0  0  0  0  0
   13.2912   14.2662    3.9608 C   0  0  1  0  0  0
   11.9057   14.0031    4.6069 C   0  0  0  0  0  0
   10.7496   14.1445    3.8318 C   0  0  0  0  0  0
    9.4804   13.9574    4.3707 C   0  0  0  0  0  0
    9.3507   13.6330    5.7142 C   0  0  0  0  0  0
   10.4771   13.4751    6.5065 C   0  0  0  0  0  0
   11.7431   13.6330    5.9518 C   0  0  0  0  0  0
    8.1273   13.4703    6.2564 F   0  0  0  0  0  0
   13.7640   15.9976    4.0071 Cl  0  0  0  0  0  0
   24.0566   18.0288    6.9603 H   0  0  0  0  0  0
   22.7167   15.9559    6.9384 H   0  0  0  0  0  0
   21.0885   15.5600    5.1531 H   0  0  0  0  0  0
   22.0845   19.3824    3.4295 H   0  0  0  0  0  0
   23.7327   19.7349    5.2033 H   0  0  0  0  0  0
   21.0662   17.3092    2.0462 H   0  0  0  0  0  0
   19.8136   18.1086    2.9554 H   0  0  0  0  0  0
   19.9394   15.3332    2.2995 H   0  0  0  0  0  0
   18.2336   13.2197    2.1232 H   0  0  0  0  0  0
   17.1751   17.3587    6.3974 H   0  0  0  0  0  0
   14.5175   13.6331    5.6021 H   0  0  0  0  0  0
   14.3029   12.3647    4.3799 H   0  0  0  0  0  0
   13.2053   14.0113    2.9038 H   0  0  0  0  0  0
   10.8215   14.4331    2.8030 H   0  0  0  0  0  0
    8.6000   14.0734    3.7566 H   0  0  0  0  0  0
   10.3695   13.2352    7.5539 H   0  0  0  0  0  0
   12.5640   13.5375    6.6289 H   0  0  0  0  0  0
  1  6  1  0  0  0
  1  2  2  0  0  0
  1 28  1  0  0  0
  2  3  1  0  0  0
  2 29  1  0  0  0
  3  4  2  0  0  0
  3 30  1  0  0  0
  4  5  1  0  0  0
  4  7  1  0  0  0
  5  6  2  0  0  0
  5 31  1  0  0  0
  6 32  1  0  0  0
  7  8  1  0  0  0
  7 33  1  0  0  0
  7 34  1  0  0  0
  8  9  1  0  0  0
  8 35  1  0  0  0
  9 17  1  0  0  0
  9 10  2  0  0  0
 10 14  1  0  0  0
 10 11  1  0  0  0
 11 12  2  0  0  0
 11 36  1  0  0  0
 12 13  1  0  0  0
 13 14  1  0  0  0
 13 18  1  0  0  0
 14 15  2  0  0  0
 15 16  1  0  0  0
 16 17  2  0  0  0
 16 37  1  0  0  0
 18 19  1  0  0  0
 18 38  1  0  0  0
 18 39  1  0  0  0
 19 20  1  0  0  0
 19 27  1  0  0  0
 19 40  1  0  0  0
 20 25  1  0  0  0
 20 21  2  0  0  0
 21 22  1  0  0  0
 21 41  1  0  0  0
 22 23  2  0  0  0
 22 42  1  0  0  0
 23 24  1  0  0  0
 23 26  1  0  0  0
 24 25  2  0  0  0
 24 43  1  0  0  0
 25 44  1  0  0  0
M  END
> <s_m_entry_id>
6532

> <s_m_entry_name>
ligand_docking-pose.43

> <s_m_Source_Path>
/home/csk/Desktop/cluster/DUD-E-result/abl1

> <s_m_Source_File>
ligand_docking-pose.sdf

> <i_m_Source_File_Index>
43

> <i_lp_mmshare_version>
53161

> <r_lp_tautomer_probability>
1

> <s_lp_Force_Field>
OPLS_2005

> <r_lp_Energy>
10.781449

> <b_lp_Chiralities_Consistent>
1

> <s_lp_Variant>
442427-1

> <s_i_glide_gridfile>
glide-grid_2hzi

> <i_i_glide_lignum>
56

> <i_i_glide_rotatable_bonds>
6

> <r_i_docking_score>
-9.23563996073879

> <r_i_glide_ligand_efficiency>
-0.342060739286622

> <r_i_glide_ligand_efficiency_sa>
-1.02618221673249

> <r_i_glide_ligand_efficiency_ln>
-2.14990472143536

> <r_i_glide_gscore>
-9.23563996073879

> <r_i_glide_lipo>
-4.96504542065633

> <r_i_glide_hbond>
-0.32

> <r_i_glide_metal>
0

> <r_i_glide_rewards>
-2.21349694303268

> <r_i_glide_evdw>
-35.640625

> <r_i_glide_ecoul>
-4.89501476287842

> <r_i_glide_erotb>
0.798998834212392

> <r_i_glide_esite>
-0.0198129668304196

> <r_i_glide_emodel>
-50.4222270146555

> <r_i_glide_energy>
-40.5356397628784

> <r_i_glide_einternal>
6.86557292938232

> <i_i_glide_confnum>
122

> <i_i_glide_posenum>
217

> <r_i_glide_eff_state_penalty>
0

> <i_f3d_flags>
0

> <s_user_duplicate_titles>
442427

> <s_m_subgroup_title>
dock_pv

> <s_m_subgroupid>
dock_pv1

> <b_m_subgroup_collapsed>
0

$$$$
442402
                    3D
 Schrodinger Suite 2021-1.
 44 47  0  0  1  0            999 V2000
    8.8319   14.0265    5.8108 C   0  0  0  0  0  0
   10.0351   13.8114    6.4687 C   0  0  0  0  0  0
   11.1955   13.6330    5.7353 C   0  0  0  0  0  0
   11.1712   13.6318    4.3294 C   0  0  0  0  0  0
    9.9488   13.8771    3.6890 C   0  0  0  0  0  0
    8.7824   14.0607    4.4229 C   0  0  0  0  0  0
   12.4042   13.3147    3.4556 C   0  0  1  0  0  0
   13.6427   12.8169    4.2196 C   0  0  0  0  0  0
   14.9198   13.2607    3.6882 N   0  0  0  0  0  0
   15.6765   14.3158    4.1592 C   0  0  0  0  0  0
   16.8946   14.2666    3.4520 C   0  0  0  0  0  0
   16.7774   13.0867    2.6566 C   0  0  0  0  0  0
   15.5995   12.5181    2.7913 N   0  0  0  0  0  0
   17.8042   15.3086    3.7229 C   0  0  0  0  0  0
   17.5476   16.1848    4.7358 N   0  0  0  0  0  0
   16.3734   16.0437    5.4032 C   0  0  0  0  0  0
   15.3622   15.1914    5.1242 N   0  0  0  0  0  0
   18.9617   15.4583    2.9363 N   0  0  0  0  0  0
   19.7355   16.7031    2.9028 C   0  0  0  0  0  0
   20.7261   16.8295    4.0590 C   0  0  0  0  0  0
   21.6631   17.8641    4.0768 C   0  0  0  0  0  0
   22.5716   17.9652    5.1366 C   0  0  0  0  0  0
   22.5212   17.0515    6.1931 C   0  0  0  0  0  0
   21.5555   16.0456    6.1906 C   0  0  0  0  0  0
   20.6994   15.9246    5.1209 C   0  0  0  0  0  0
   21.3732   15.1776    7.2030 F   0  0  0  0  0  0
   12.0038   12.0338    2.2825 Cl  0  0  0  0  0  0
    7.9417   14.1711    6.4002 H   0  0  0  0  0  0
   10.0645   13.7958    7.5466 H   0  0  0  0  0  0
   12.0754   13.4732    6.3323 H   0  0  0  0  0  0
    9.8772   13.8730    2.6145 H   0  0  0  0  0  0
    7.8509   14.2364    3.9088 H   0  0  0  0  0  0
   12.6470   14.2127    2.8903 H   0  0  0  0  0  0
   13.6589   13.2343    5.2060 H   0  0  0  0  0  0
   13.6519   11.7308    4.3363 H   0  0  0  0  0  0
   17.5205   12.6664    1.9983 H   0  0  0  0  0  0
   16.1947   16.7491    6.1985 H   0  0  0  0  0  0
   19.1042   14.8148    2.1700 H   0  0  0  0  0  0
   20.2840   16.7362    1.9586 H   0  0  0  0  0  0
   19.0652   17.5639    2.9187 H   0  0  0  0  0  0
   21.6987   18.5793    3.2675 H   0  0  0  0  0  0
   23.3016   18.7648    5.1447 H   0  0  0  0  0  0
   23.2227   17.1371    7.0074 H   0  0  0  0  0  0
   19.9920   15.1110    5.1596 H   0  0  0  0  0  0
  1  6  1  0  0  0
  1  2  2  0  0  0
  1 28  1  0  0  0
  2  3  1  0  0  0
  2 29  1  0  0  0
  3  4  2  0  0  0
  3 30  1  0  0  0
  4  5  1  0  0  0
  4  7  1  0  0  0
  5  6  2  0  0  0
  5 31  1  0  0  0
  6 32  1  0  0  0
  7  8  1  0  0  0
  7 27  1  0  0  0
  7 33  1  0  0  0
  8  9  1  0  0  0
  8 34  1  0  0  0
  8 35  1  0  0  0
  9 13  1  0  0  0
  9 10  1  0  0  0
 10 17  2  0  0  0
 10 11  1  0  0  0
 11 12  1  0  0  0
 11 14  2  0  0  0
 12 13  2  0  0  0
 12 36  1  0  0  0
 14 15  1  0  0  0
 14 18  1  0  0  0
 15 16  2  0  0  0
 16 17  1  0  0  0
 16 37  1  0  0  0
 18 19  1  0  0  0
 18 38  1  0  0  0
 19 20  1  0  0  0
 19 39  1  0  0  0
 19 40  1  0  0  0
 20 25  1  0  0  0
 20 21  2  0  0  0
 21 22  1  0  0  0
 21 41  1  0  0  0
 22 23  2  0  0  0
 22 42  1  0  0  0
 23 24  1  0  0  0
 23 43  1  0  0  0
 24 25  2  0  0  0
 24 26  1  0  0  0
 25 44  1  0  0  0
M  END
> <s_m_entry_id>
6533

> <s_m_entry_name>
ligand_docking-pose.44

> <s_m_Source_Path>
/home/csk/Desktop/cluster/DUD-E-result/abl1

> <s_m_Source_File>
ligand_docking-pose.sdf

> <i_m_Source_File_Index>
44

> <i_lp_mmshare_version>
53161

> <r_lp_tautomer_probability>
1

> <s_lp_Force_Field>
OPLS_2005

> <r_lp_Energy>
10.596731

> <b_lp_Chiralities_Consistent>
1

> <s_lp_Variant>
442402-1

> <s_i_glide_gridfile>
glide-grid_2hzi

> <i_i_glide_lignum>
31

> <i_i_glide_rotatable_bonds>
6

> <r_i_docking_score>
-9.15997773006704

> <r_i_glide_ligand_efficiency>
-0.339258434446927

> <r_i_glide_ligand_efficiency_sa>
-1.01777530222264

> <r_i_glide_ligand_efficiency_ln>
-2.13229180152434

> <r_i_glide_gscore>
-9.15997773006704

> <r_i_glide_lipo>
-4.16156322112089

> <r_i_glide_hbond>
-0.088120124909032

> <r_i_glide_metal>
0

> <r_i_glide_rewards>
-3.14657131409144

> <r_i_glide_evdw>
-44.3639106750488

> <r_i_glide_ecoul>
-2.13226008415222

> <r_i_glide_erotb>
0.798998834212392

> <r_i_glide_esite>
-0.0246873577828032

> <r_i_glide_emodel>
-66.2202932793523

> <r_i_glide_energy>
-46.496170759201

> <r_i_glide_einternal>
8.31312084197998

> <i_i_glide_confnum>
116

> <i_i_glide_posenum>
133

> <r_i_glide_eff_state_penalty>
0

> <i_f3d_flags>
0

> <s_user_duplicate_titles>
442402

> <s_m_subgroup_title>
dock_pv

> <s_m_subgroupid>
dock_pv1

> <b_m_subgroup_collapsed>
0

$$$$
442199
                    3D
 Schrodinger Suite 2021-1.
 44 47  0  0  1  0            999 V2000
   22.9646   18.5887    5.1994 C   0  0  0  0  0  0
   22.1244   18.4291    4.0965 C   0  0  0  0  0  0
   21.2821   17.3155    4.0031 C   0  0  0  0  0  0
   21.3122   16.3567    5.0256 C   0  0  0  0  0  0
   22.1229   16.5300    6.1336 C   0  0  0  0  0  0
   22.9642   17.6351    6.2163 C   0  0  0  0  0  0
   22.0480   15.6333    7.1370 F   0  0  0  0  0  0
   20.3506   17.1863    2.7971 C   0  0  0  0  0  0
   19.4528   16.0333    2.8430 N   0  0  0  0  0  0
   18.3766   15.9478    3.7352 C   0  0  0  0  0  0
   17.4611   14.8944    3.6018 C   0  0  0  0  0  0
   17.2877   13.6865    2.8520 C   0  0  0  0  0  0
   16.1137   13.1584    3.0754 N   0  0  0  0  0  0
   15.5120   13.9351    4.0026 N   0  0  0  0  0  0
   16.3225   14.9712    4.4159 C   0  0  0  0  0  0
   16.1050   15.8727    5.3864 N   0  0  0  0  0  0
   17.1118   16.7771    5.5024 C   0  0  0  0  0  0
   18.2018   16.8945    4.7016 N   0  0  0  0  0  0
   14.2762   13.5090    4.6073 C   0  0  0  0  0  0
   13.0107   13.7417    3.7517 C   0  0  2  0  0  0
   11.6981   13.7994    4.5533 C   0  0  0  0  0  0
   10.4940   14.0147    3.8701 C   0  0  0  0  0  0
    9.2812   14.0323    4.5504 C   0  0  0  0  0  0
    9.2618   13.8421    5.9281 C   0  0  0  0  0  0
   10.4429   13.6331    6.6236 C   0  0  0  0  0  0
   11.6556   13.6305    5.9445 C   0  0  0  0  0  0
    8.0941   13.8679    6.5984 F   0  0  0  0  0  0
   12.9183   12.4331    2.5336 Cl  0  0  0  0  0  0
   23.6056   19.4562    5.2704 H   0  0  0  0  0  0
   22.1270   19.1797    3.3185 H   0  0  0  0  0  0
   20.6910   15.4754    4.9972 H   0  0  0  0  0  0
   23.6084   17.7568    7.0747 H   0  0  0  0  0  0
   20.9465   17.1370    1.8861 H   0  0  0  0  0  0
   19.7411   18.0844    2.7207 H   0  0  0  0  0  0
   19.5977   15.2988    2.1596 H   0  0  0  0  0  0
   17.9683   13.2320    2.1459 H   0  0  0  0  0  0
   17.0061   17.5207    6.2773 H   0  0  0  0  0  0
   14.2282   14.0368    5.5572 H   0  0  0  0  0  0
   14.4005   12.4513    4.8030 H   0  0  0  0  0  0
   13.1051   14.6823    3.2101 H   0  0  0  0  0  0
   10.4904   14.1509    2.8031 H   0  0  0  0  0  0
    8.3588   14.1900    4.0143 H   0  0  0  0  0  0
   10.4224   13.4924    7.6922 H   0  0  0  0  0  0
   12.5459   13.4610    6.5335 H   0  0  0  0  0  0
  1  6  1  0  0  0
  1  2  2  0  0  0
  1 29  1  0  0  0
  2  3  1  0  0  0
  2 30  1  0  0  0
  3  4  2  0  0  0
  3  8  1  0  0  0
  4  5  1  0  0  0
  4 31  1  0  0  0
  5  6  2  0  0  0
  5  7  1  0  0  0
  6 32  1  0  0  0
  8  9  1  0  0  0
  8 33  1  0  0  0
  8 34  1  0  0  0
  9 10  1  0  0  0
  9 35  1  0  0  0
 10 18  1  0  0  0
 10 11  2  0  0  0
 11 15  1  0  0  0
 11 12  1  0  0  0
 12 13  2  0  0  0
 12 36  1  0  0  0
 13 14  1  0  0  0
 14 15  1  0  0  0
 14 19  1  0  0  0
 15 16  2  0  0  0
 16 17  1  0  0  0
 17 18  2  0  0  0
 17 37  1  0  0  0
 19 20  1  0  0  0
 19 38  1  0  0  0
 19 39  1  0  0  0
 20 21  1  0  0  0
 20 28  1  0  0  0
 20 40  1  0  0  0
 21 26  1  0  0  0
 21 22  2  0  0  0
 22 23  1  0  0  0
 22 41  1  0  0  0
 23 24  2  0  0  0
 23 42  1  0  0  0
 24 25  1  0  0  0
 24 27  1  0  0  0
 25 26  2  0  0  0
 25 43  1  0  0  0
 26 44  1  0  0  0
M  END
> <s_m_entry_id>
6534

> <s_m_entry_name>
ligand_docking-pose.45

> <s_m_Source_Path>
/home/csk/Desktop/cluster/DUD-E-result/abl1

> <s_m_Source_File>
ligand_docking-pose.sdf

> <i_m_Source_File_Index>
45

> <i_lp_mmshare_version>
53161

> <r_lp_tautomer_probability>
1

> <s_lp_Force_Field>
OPLS_2005

> <r_lp_Energy>
9.391329

> <b_lp_Chiralities_Consistent>
1

> <s_lp_Variant>
442199-2

> <s_i_glide_gridfile>
glide-grid_2hzi

> <i_i_glide_lignum>
90

> <i_i_glide_rotatable_bonds>
6

> <r_i_docking_score>
-9.12759792591597

> <r_i_glide_ligand_efficiency>
-0.325985640211285

> <r_i_glide_ligand_efficiency_sa>
-0.989884398955916

> <r_i_glide_ligand_efficiency_ln>
-2.10691759922175

> <r_i_glide_gscore>
-9.12759792591597

> <r_i_glide_lipo>
-4.96817496449295

> <r_i_glide_hbond>
-0.24144360855281

> <r_i_glide_metal>
0

> <r_i_glide_rewards>
-2.12560610306622

> <r_i_glide_evdw>
-40.0912551879883

> <r_i_glide_ecoul>
-3.35822248458862

> <r_i_glide_erotb>
0.735582315060544

> <r_i_glide_esite>
-0.0196594327768334

> <r_i_glide_emodel>
-51.8563764518109

> <r_i_glide_energy>
-43.4494776725769

> <r_i_glide_einternal>
5.78509855270386

> <i_i_glide_confnum>
59

> <i_i_glide_posenum>
6

> <r_i_glide_eff_state_penalty>
0

> <i_f3d_flags>
0

> <s_user_duplicate_titles>
442199

> <s_m_subgroup_title>
dock_pv

> <s_m_subgroupid>
dock_pv1

> <b_m_subgroup_collapsed>
0

$$$$
281899
                    3D
 Schrodinger Suite 2021-1.
 51 54  0  0  1  0            999 V2000
    8.7568   10.5450    0.3386 C   0  0  0  0  0  0
    8.5265   11.7152    1.1241 O   0  0  0  0  0  0
    9.5368   12.1626    1.9527 C   0  0  0  0  0  0
   10.8134   11.5898    1.9850 C   0  0  0  0  0  0
   11.7946   12.1191    2.8013 C   0  0  0  0  0  0
   11.5240   13.2194    3.6193 C   0  0  0  0  0  0
   10.2501   13.7898    3.6107 C   0  0  0  0  0  0
    9.2645   13.2595    2.7776 C   0  0  0  0  0  0
   12.6060   13.6943    4.5810 C   0  0  0  0  0  0
   13.4487   14.8737    4.0224 C   0  0  1  0  0  0
   13.0261   16.1767    4.5915 C   0  0  0  0  0  0
   13.7141   17.2569    4.0030 O   0  0  0  0  0  0
   14.8850   14.6667    4.1744 N   0  0  0  0  0  0
   15.8661   15.3983    4.8335 C   0  0  0  0  0  0
   17.1298   14.9290    4.5110 C   0  0  0  0  0  0
   16.8808   13.8474    3.6039 C   0  0  0  0  0  0
   15.4915   13.7038    3.4483 C   0  0  0  0  0  0
   14.8474   12.8365    2.6705 N   0  0  0  0  0  0
   15.6639   12.0338    2.0023 C   0  0  0  0  0  0
   17.0061   12.0330    2.0601 N   0  0  0  0  0  0
   17.6029   12.9363    2.8483 C   0  0  0  0  0  0
   18.9639   12.9317    2.8039 N   0  0  0  0  0  0
   18.4593   15.4421    4.9368 C   0  0  0  0  0  0
   19.2965   14.6319    5.7093 C   0  0  0  0  0  0
   20.5779   15.0604    6.0571 C   0  0  0  0  0  0
   21.0362   16.3026    5.6229 C   0  0  0  0  0  0
   20.2044   17.1190    4.8585 C   0  0  0  0  0  0
   18.9126   16.7008    4.5296 C   0  0  0  0  0  0
   20.6708   18.3244    4.4193 O   0  0  0  0  0  0
    7.9590   10.4180   -0.3876 H   0  0  0  0  0  0
    8.7732    9.6606    0.9771 H   0  0  0  0  0  0
    9.6888   10.5876   -0.2320 H   0  0  0  0  0  0
   11.0729   10.7213    1.4002 H   0  0  0  0  0  0
   12.7453   11.6132    2.8311 H   0  0  0  0  0  0
   10.0198   14.6248    4.2556 H   0  0  0  0  0  0
    8.2827   13.7040    2.7639 H   0  0  0  0  0  0
   12.1591   13.9321    5.5490 H   0  0  0  0  0  0
   13.2401   12.8363    4.7988 H   0  0  0  0  0  0
   13.3485   14.9228    2.9451 H   0  0  0  0  0  0
   11.9455   16.3279    4.5878 H   0  0  0  0  0  0
   13.3590   16.0323    5.6030 H   0  0  0  0  0  0
   13.1457   18.0334    4.0038 H   0  0  0  0  0  0
   15.5953   16.2381    5.4567 H   0  0  0  0  0  0
   15.1735   11.3331    1.3399 H   0  0  0  0  0  0
   19.5041   13.6547    3.2583 H   0  0  0  0  0  0
   19.3711   12.2530    2.1601 H   0  0  0  0  0  0
   18.9651   13.6509    6.0147 H   0  0  0  0  0  0
   21.2251   14.4190    6.6359 H   0  0  0  0  0  0
   22.0379   16.6187    5.8786 H   0  0  0  0  0  0
   18.2823   17.3355    3.9242 H   0  0  0  0  0  0
   21.5859   18.4753    4.6653 H   0  0  0  0  0  0
  1  2  1  0  0  0
  1 30  1  0  0  0
  1 31  1  0  0  0
  1 32  1  0  0  0
  2  3  1  0  0  0
  3  8  1  0  0  0
  3  4  2  0  0  0
  4  5  1  0  0  0
  4 33  1  0  0  0
  5  6  2  0  0  0
  5 34  1  0  0  0
  6  7  1  0  0  0
  6  9  1  0  0  0
  7  8  2  0  0  0
  7 35  1  0  0  0
  8 36  1  0  0  0
  9 10  1  0  0  0
  9 37  1  0  0  0
  9 38  1  0  0  0
 10 11  1  0  0  0
 10 13  1  0  0  0
 10 39  1  0  0  0
 11 12  1  0  0  0
 11 40  1  0  0  0
 11 41  1  0  0  0
 12 42  1  0  0  0
 13 17  1  0  0  0
 13 14  1  0  0  0
 14 15  2  0  0  0
 14 43  1  0  0  0
 15 16  1  0  0  0
 15 23  1  0  0  0
 16 21  2  0  0  0
 16 17  1  0  0  0
 17 18  2  0  0  0
 18 19  1  0  0  0
 19 20  2  0  0  0
 19 44  1  0  0  0
 20 21  1  0  0  0
 21 22  1  0  0  0
 22 45  1  0  0  0
 22 46  1  0  0  0
 23 28  1  0  0  0
 23 24  2  0  0  0
 24 25  1  0  0  0
 24 47  1  0  0  0
 25 26  2  0  0  0
 25 48  1  0  0  0
 26 27  1  0  0  0
 26 49  1  0  0  0
 27 28  2  0  0  0
 27 29  1  0  0  0
 28 50  1  0  0  0
 29 51  1  0  0  0
M  END
> <s_m_entry_id>
6536

> <s_m_entry_name>
ligand_docking-pose.47

> <s_m_Source_Path>
/home/csk/Desktop/cluster/DUD-E-result/abl1

> <s_m_Source_File>
ligand_docking-pose.sdf

> <i_m_Source_File_Index>
47

> <i_lp_mmshare_version>
53161

> <r_lp_tautomer_probability>
0.999999999997365

> <s_lp_Force_Field>
OPLS_2005

> <r_lp_Energy>
23.188497

> <b_lp_Chiralities_Consistent>
1

> <s_lp_Variant>
281899-2

> <s_i_glide_gridfile>
glide-grid_2hzi

> <i_i_glide_lignum>
477

> <i_i_glide_rotatable_bonds>
8

> <r_i_docking_score>
-8.94395273234415

> <r_i_glide_ligand_efficiency>
-0.308412163184281

> <r_i_glide_ligand_efficiency_sa>
-0.947539877133686

> <r_i_glide_ligand_efficiency_ln>
-2.04793837663428

> <r_i_glide_gscore>
-8.94395273234415

> <r_i_glide_lipo>
-3.982757569526

> <r_i_glide_hbond>
-0.66093457296118

> <r_i_glide_metal>
0

> <r_i_glide_rewards>
-2.98083099761123

> <r_i_glide_evdw>
-12.7195158004761

> <r_i_glide_ecoul>
-8.82131385803223

> <r_i_glide_erotb>
0.639743276482909

> <r_i_glide_esite>
0

> <r_i_glide_emodel>
-35.8540067367203

> <r_i_glide_energy>
-21.5408296585083

> <r_i_glide_einternal>
18.6397361755371

> <i_i_glide_confnum>
88

> <i_i_glide_posenum>
221

> <r_i_glide_eff_state_penalty>
0

> <i_f3d_flags>
0

> <s_user_duplicate_titles>
281899

> <s_m_subgroup_title>
dock_pv

> <s_m_subgroupid>
dock_pv1

> <b_m_subgroup_collapsed>
0

$$$$
281740
                    3D
 Schrodinger Suite 2021-1.
 48 51  0  0  1  0            999 V2000
   11.3358   10.5811    1.2998 C   0  0  0  0  0  0
   11.1760   11.6080    2.2494 O   0  0  0  0  0  0
    9.9523   12.0038    2.6404 C   0  0  0  0  0  0
    8.8842   11.6589    2.1326 O   0  0  0  0  0  0
    9.9711   12.9508    3.8425 C   0  0  0  0  0  0
   11.2329   13.6860    3.9992 N   0  0  1  0  0  0
   10.9639   15.0591    4.2732 C   0  0  0  0  0  0
   12.3154   15.6244    4.6595 C   0  0  0  0  0  0
   13.0754   14.4995    5.3322 C   0  0  1  0  0  0
   12.1417   13.3003    5.0817 C   0  0  0  0  0  0
   14.4363   14.4337    4.7685 N   0  0  0  0  0  0
   15.4812   15.2330    5.1975 C   0  0  0  0  0  0
   16.6780   14.8534    4.6111 C   0  0  0  0  0  0
   16.3244   13.8157    3.6766 C   0  0  0  0  0  0
   14.9094   13.6584    3.7220 C   0  0  0  0  0  0
   14.2035   12.8327    2.9415 N   0  0  0  0  0  0
   14.9632   12.0722    2.1261 C   0  0  0  0  0  0
   16.3109   12.0434    2.0510 N   0  0  0  0  0  0
   16.9902   12.9159    2.8277 C   0  0  0  0  0  0
   18.3739   12.8332    2.8030 N   0  0  0  0  0  0
   18.0365   15.3593    4.9522 C   0  0  0  0  0  0
   18.9831   14.4683    5.4659 C   0  0  0  0  0  0
   20.2650   14.9014    5.8044 C   0  0  0  0  0  0
   20.6214   16.2318    5.6031 C   0  0  0  0  0  0
   19.6809   17.1287    5.1005 C   0  0  0  0  0  0
   18.3895   16.7011    4.7901 C   0  0  0  0  0  0
   20.0318   18.4326    4.9133 O   0  0  0  0  0  0
   12.2906   10.7196    0.8036 H   0  0  0  0  0  0
   10.5486   10.5533    0.5440 H   0  0  0  0  0  0
   11.3620    9.6329    1.8286 H   0  0  0  0  0  0
    9.1489   13.6421    3.6505 H   0  0  0  0  0  0
    9.7000   12.4331    4.7596 H   0  0  0  0  0  0
   10.5130   15.4843    3.3835 H   0  0  0  0  0  0
   10.2109   15.1685    5.0580 H   0  0  0  0  0  0
   12.9638   16.1766    4.0020 H   0  0  0  0  0  0
   11.9665   16.4331    5.2030 H   0  0  0  0  0  0
   13.2692   14.6249    6.3958 H   0  0  0  0  0  0
   11.5655   13.0561    5.9768 H   0  0  0  0  0  0
   12.7102   12.4243    4.8232 H   0  0  0  0  0  0
   15.3054   15.9574    5.9807 H   0  0  0  0  0  0
   14.4344   11.3979    1.4707 H   0  0  0  0  0  0
   18.9154   13.5059    3.3270 H   0  0  0  0  0  0
   18.8178   12.1815    2.1595 H   0  0  0  0  0  0
   18.7324   13.4288    5.5998 H   0  0  0  0  0  0
   20.9885   14.2028    6.2000 H   0  0  0  0  0  0
   21.6211   16.5589    5.8490 H   0  0  0  0  0  0
   17.6757   17.4096    4.4039 H   0  0  0  0  0  0
   20.9653   18.5807    5.0817 H   0  0  0  0  0  0
  1  2  1  0  0  0
  1 28  1  0  0  0
  1 29  1  0  0  0
  1 30  1  0  0  0
  2  3  1  0  0  0
  3  4  2  0  0  0
  3  5  1  0  0  0
  5  6  1  0  0  0
  5 31  1  0  0  0
  5 32  1  0  0  0
  6 10  1  0  0  0
  6  7  1  0  0  0
  7  8  1  0  0  0
  7 33  1  0  0  0
  7 34  1  0  0  0
  8  9  1  0  0  0
  8 35  1  0  0  0
  8 36  1  0  0  0
  9 10  1  0  0  0
  9 11  1  0  0  0
  9 37  1  0  0  0
 10 38  1  0  0  0
 10 39  1  0  0  0
 11 15  1  0  0  0
 11 12  1  0  0  0
 12 13  2  0  0  0
 12 40  1  0  0  0
 13 14  1  0  0  0
 13 21  1  0  0  0
 14 19  2  0  0  0
 14 15  1  0  0  0
 15 16  2  0  0  0
 16 17  1  0  0  0
 17 18  2  0  0  0
 17 41  1  0  0  0
 18 19  1  0  0  0
 19 20  1  0  0  0
 20 42  1  0  0  0
 20 43  1  0  0  0
 21 26  1  0  0  0
 21 22  2  0  0  0
 22 23  1  0  0  0
 22 44  1  0  0  0
 23 24  2  0  0  0
 23 45  1  0  0  0
 24 25  1  0  0  0
 24 46  1  0  0  0
 25 26  2  0  0  0
 25 27  1  0  0  0
 26 47  1  0  0  0
 27 48  1  0  0  0
M  END
> <s_m_entry_id>
6537

> <s_m_entry_name>
ligand_docking-pose.48

> <s_m_Source_Path>
/home/csk/Desktop/cluster/DUD-E-result/abl1

> <s_m_Source_File>
ligand_docking-pose.sdf

> <i_m_Source_File_Index>
48

> <i_lp_mmshare_version>
53161

> <r_lp_tautomer_probability>
0.999999999997365

> <s_lp_Force_Field>
OPLS_2005

> <r_lp_Energy>
38.711435

> <b_lp_Chiralities_Consistent>
1

> <s_lp_Variant>
281740-1

> <s_i_glide_gridfile>
glide-grid_2hzi

> <i_i_glide_lignum>
492

> <i_i_glide_rotatable_bonds>
6

> <r_i_docking_score>
-8.91924344779388

> <r_i_glide_ligand_efficiency>
-0.330342349918292

> <r_i_glide_ligand_efficiency_sa>
-0.991027048666122

> <r_i_glide_ligand_efficiency_ln>
-2.07625282942597

> <r_i_glide_gscore>
-8.91924344779388

> <r_i_glide_lipo>
-3.28108427682796

> <r_i_glide_hbond>
-0.608

> <r_i_glide_metal>
0

> <r_i_glide_rewards>
-3.26714723871045

> <r_i_glide_evdw>
-24.5279693603516

> <r_i_glide_ecoul>
-6.23171472549438

> <r_i_glide_erotb>
0.399477738050583

> <r_i_glide_esite>
-0.00133399346431428

> <r_i_glide_emodel>
-76.7021600415503

> <r_i_glide_energy>
-30.7596840858459

> <r_i_glide_einternal>
10.7662944793701

> <i_i_glide_confnum>
135

> <i_i_glide_posenum>
152

> <r_i_glide_eff_state_penalty>
0

> <i_f3d_flags>
0

> <s_user_duplicate_titles>
281740

> <s_m_subgroup_title>
dock_pv

> <s_m_subgroupid>
dock_pv1

> <b_m_subgroup_collapsed>
0

$$$$
402616
                    3D
 Schrodinger Suite 2021-1.
 48 51  0  0  1  0            999 V2000
   18.7186   18.8268    6.1126 C   0  0  0  0  0  0
   17.3640   17.6273    6.4148 S   0  0  0  0  0  0
   17.2595   16.4675    5.2066 C   0  0  0  0  0  0
   18.2999   16.5172    4.4068 N   0  0  0  0  0  0
   18.4601   15.5107    3.5570 C   0  0  0  0  0  0
   17.5000   14.4741    3.4671 C   0  0  0  0  0  0
   17.2429   13.2352    2.8019 C   0  0  0  0  0  0
   16.0258   12.8044    3.0500 N   0  0  0  0  0  0
   15.4747   13.6618    3.9391 N   0  0  0  0  0  0
   16.3685   14.6515    4.2888 C   0  0  0  0  0  0
   16.2296   15.5988    5.2211 N   0  0  0  0  0  0
   14.1706   13.3879    4.5387 C   0  0  0  0  0  0
   13.0115   14.2656    4.0260 C   0  0  1  0  0  0
   11.6479   13.9193    4.6391 C   0  0  0  0  0  0
   10.5009   13.9636    3.8450 C   0  0  0  0  0  0
    9.2468   13.7228    4.3885 C   0  0  0  0  0  0
    9.1259   13.4592    5.7480 C   0  0  0  0  0  0
   10.2537   13.4211    6.5563 C   0  0  0  0  0  0
   11.5128   13.6330    6.0022 C   0  0  0  0  0  0
   13.3660   15.9659    4.4029 Cl  0  0  0  0  0  0
   19.6054   15.6345    2.8030 N   0  0  0  0  0  0
   20.3617   16.8870    2.6536 C   0  0  0  0  0  0
   21.2653   17.2626    3.8353 C   0  0  0  0  0  0
   21.4880   16.4168    4.9323 C   0  0  0  0  0  0
   22.3686   16.7989    5.9416 C   0  0  0  0  0  0
   23.0105   18.0319    5.8607 C   0  0  0  0  0  0
   22.7593   18.8930    4.8038 C   0  0  0  0  0  0
   21.9064   18.4996    3.7815 C   0  0  0  0  0  0
   23.9020   18.3956    6.8028 F   0  0  0  0  0  0
   18.7756   19.5343    6.9422 H   0  0  0  0  0  0
   19.6829   18.3293    6.0124 H   0  0  0  0  0  0
   18.5667   19.3855    5.2033 H   0  0  0  0  0  0
   17.8785   12.7209    2.0982 H   0  0  0  0  0  0
   14.2929   13.6333    5.5926 H   0  0  0  0  0  0
   13.9375   12.3273    4.4033 H   0  0  0  0  0  0
   12.9542   14.1739    2.9403 H   0  0  0  0  0  0
   10.5686   14.2114    2.8029 H   0  0  0  0  0  0
    8.3691   13.7518    3.7602 H   0  0  0  0  0  0
    8.1584   13.2821    6.1841 H   0  0  0  0  0  0
   10.1538   13.2343    7.6126 H   0  0  0  0  0  0
   12.3704   13.6320    6.6606 H   0  0  0  0  0  0
   19.9238   14.8741    2.2013 H   0  0  0  0  0  0
   20.9633   16.8175    1.7476 H   0  0  0  0  0  0
   19.6620   17.7034    2.4781 H   0  0  0  0  0  0
   21.0089   15.4501    4.9920 H   0  0  0  0  0  0
   22.5722   16.1393    6.7701 H   0  0  0  0  0  0
   23.2584   19.8513    4.7660 H   0  0  0  0  0  0
   21.7642   19.1603    2.9383 H   0  0  0  0  0  0
  1  2  1  0  0  0
  1 30  1  0  0  0
  1 31  1  0  0  0
  1 32  1  0  0  0
  2  3  1  0  0  0
  3 11  1  0  0  0
  3  4  2  0  0  0
  4  5  1  0  0  0
  5  6  2  0  0  0
  5 21  1  0  0  0
  6 10  1  0  0  0
  6  7  1  0  0  0
  7  8  2  0  0  0
  7 33  1  0  0  0
  8  9  1  0  0  0
  9 10  1  0  0  0
  9 12  1  0  0  0
 10 11  2  0  0  0
 12 13  1  0  0  0
 12 34  1  0  0  0
 12 35  1  0  0  0
 13 14  1  0  0  0
 13 20  1  0  0  0
 13 36  1  0  0  0
 14 19  1  0  0  0
 14 15  2  0  0  0
 15 16  1  0  0  0
 15 37  1  0  0  0
 16 17  2  0  0  0
 16 38  1  0  0  0
 17 18  1  0  0  0
 17 39  1  0  0  0
 18 19  2  0  0  0
 18 40  1  0  0  0
 19 41  1  0  0  0
 21 22  1  0  0  0
 21 42  1  0  0  0
 22 23  1  0  0  0
 22 43  1  0  0  0
 22 44  1  0  0  0
 23 28  1  0  0  0
 23 24  2  0  0  0
 24 25  1  0  0  0
 24 45  1  0  0  0
 25 26  2  0  0  0
 25 46  1  0  0  0
 26 27  1  0  0  0
 26 29  1  0  0  0
 27 28  2  0  0  0
 27 47  1  0  0  0
 28 48  1  0  0  0
M  END
> <s_m_entry_id>
6538

> <s_m_entry_name>
ligand_docking-pose.49

> <s_m_Source_Path>
/home/csk/Desktop/cluster/DUD-E-result/abl1

> <s_m_Source_File>
ligand_docking-pose.sdf

> <i_m_Source_File_Index>
49

> <i_lp_mmshare_version>
53161

> <r_lp_tautomer_probability>
1

> <s_lp_Force_Field>
OPLS_2005

> <r_lp_Energy>
9.555769

> <b_lp_Chiralities_Consistent>
1

> <s_lp_Variant>
402616-1

> <s_i_glide_gridfile>
glide-grid_2hzi

> <i_i_glide_lignum>
528

> <i_i_glide_rotatable_bonds>
7

> <r_i_docking_score>
-8.88179469036394

> <r_i_glide_ligand_efficiency>
-0.306268782426343

> <r_i_glide_ligand_efficiency_sa>
-0.940954732374613

> <r_i_glide_ligand_efficiency_ln>
-2.03370576121276

> <r_i_glide_gscore>
-8.88179469036394

> <r_i_glide_lipo>
-5.17995935628907

> <r_i_glide_hbond>
-0.303884125021888

> <r_i_glide_metal>
0

> <r_i_glide_rewards>
-2.3790842579426

> <r_i_glide_evdw>
-17.6387424468994

> <r_i_glide_ecoul>
-4.95748805999756

> <r_i_glide_erotb>
0.650691763995007

> <r_i_glide_esite>
-0.0439983837607927

> <r_i_glide_emodel>
-33.3677582238896

> <r_i_glide_energy>
-22.596230506897

> <r_i_glide_einternal>
6.84902715682983

> <i_i_glide_confnum>
11

> <i_i_glide_posenum>
48

> <r_i_glide_eff_state_penalty>
0

> <i_f3d_flags>
0

> <s_user_duplicate_titles>
402616

> <s_m_subgroup_title>
dock_pv

> <s_m_subgroupid>
dock_pv1

> <b_m_subgroup_collapsed>
0

$$$$
402614
                    3D
 Schrodinger Suite 2021-1.
 48 51  0  0  1  0            999 V2000
   18.5464   18.6668    6.0700 C   0  0  0  0  0  0
   17.3637   17.3182    6.4030 S   0  0  0  0  0  0
   17.6652   16.0951    5.2599 C   0  0  0  0  0  0
   18.9480   16.0212    4.9281 N   0  0  0  0  0  0
   19.3205   14.9848    4.1767 C   0  0  0  0  0  0
   18.3814   14.0467    3.7188 C   0  0  0  0  0  0
   18.3350   12.7879    3.0693 C   0  0  0  0  0  0
   17.1089   12.3441    2.9474 N   0  0  0  0  0  0
   16.3124   13.2154    3.6029 N   0  0  0  0  0  0
   17.0481   14.2870    4.0912 C   0  0  0  0  0  0
   16.6543   15.2773    4.9002 N   0  0  0  0  0  0
   14.9647   12.7740    4.0043 C   0  0  0  0  0  0
   13.9030   13.4892    3.1924 C   0  0  1  0  0  0
   12.4519   13.0115    3.3055 C   0  0  0  0  0  0
   11.5455   13.6358    4.1760 C   0  0  0  0  0  0
   10.1882   13.3297    4.1141 C   0  0  0  0  0  0
    9.7370   12.3799    3.2021 C   0  0  0  0  0  0
   10.6311   11.7158    2.3645 C   0  0  0  0  0  0
   11.9861   12.0328    2.4163 C   0  0  0  0  0  0
   14.0420   15.2327    3.6030 Cl  0  0  0  0  0  0
   20.6810   14.8331    4.0032 N   0  0  0  0  0  0
   21.6171   15.2101    5.0532 C   0  0  0  0  0  0
   21.9881   16.6770    5.0024 C   0  0  0  0  0  0
   21.5755   17.5360    3.9688 C   0  0  0  0  0  0
   22.0640   18.8285    3.9014 C   0  0  0  0  0  0
   22.9640   19.2613    4.8573 C   0  0  0  0  0  0
   23.3610   18.4240    5.8931 C   0  0  0  0  0  0
   22.8591   17.1401    5.9790 C   0  0  0  0  0  0
   24.2579   18.8329    6.8030 F   0  0  0  0  0  0
   18.2199   19.5830    6.5618 H   0  0  0  0  0  0
   19.5565   18.4375    6.4024 H   0  0  0  0  0  0
   18.5807   18.8395    4.9967 H   0  0  0  0  0  0
   19.1829   12.1816    2.8010 H   0  0  0  0  0  0
   14.8513   13.0279    5.0545 H   0  0  0  0  0  0
   14.8781   11.6910    3.8975 H   0  0  0  0  0  0
   14.1989   13.2628    2.1633 H   0  0  0  0  0  0
   11.8761   14.3879    4.8770 H   0  0  0  0  0  0
    9.4879   13.8231    4.7718 H   0  0  0  0  0  0
    8.6858   12.1331    3.1600 H   0  0  0  0  0  0
   10.2760   10.9662    1.6714 H   0  0  0  0  0  0
   12.6606   11.5451    1.7280 H   0  0  0  0  0  0
   20.9668   14.1150    3.3491 H   0  0  0  0  0  0
   21.2032   14.9710    6.0346 H   0  0  0  0  0  0
   22.5260   14.6114    4.9533 H   0  0  0  0  0  0
   20.9098   17.2020    3.1870 H   0  0  0  0  0  0
   21.7700   19.4777    3.0968 H   0  0  0  0  0  0
   23.3646   20.2624    4.8021 H   0  0  0  0  0  0
   23.2018   16.4904    6.7717 H   0  0  0  0  0  0
  1  2  1  0  0  0
  1 30  1  0  0  0
  1 31  1  0  0  0
  1 32  1  0  0  0
  2  3  1  0  0  0
  3 11  1  0  0  0
  3  4  2  0  0  0
  4  5  1  0  0  0
  5  6  2  0  0  0
  5 21  1  0  0  0
  6 10  1  0  0  0
  6  7  1  0  0  0
  7  8  2  0  0  0
  7 33  1  0  0  0
  8  9  1  0  0  0
  9 10  1  0  0  0
  9 12  1  0  0  0
 10 11  2  0  0  0
 12 13  1  0  0  0
 12 34  1  0  0  0
 12 35  1  0  0  0
 13 14  1  0  0  0
 13 20  1  0  0  0
 13 36  1  0  0  0
 14 19  1  0  0  0
 14 15  2  0  0  0
 15 16  1  0  0  0
 15 37  1  0  0  0
 16 17  2  0  0  0
 16 38  1  0  0  0
 17 18  1  0  0  0
 17 39  1  0  0  0
 18 19  2  0  0  0
 18 40  1  0  0  0
 19 41  1  0  0  0
 21 22  1  0  0  0
 21 42  1  0  0  0
 22 23  1  0  0  0
 22 43  1  0  0  0
 22 44  1  0  0  0
 23 28  1  0  0  0
 23 24  2  0  0  0
 24 25  1  0  0  0
 24 45  1  0  0  0
 25 26  2  0  0  0
 25 46  1  0  0  0
 26 27  1  0  0  0
 26 47  1  0  0  0
 27 28  2  0  0  0
 27 29  1  0  0  0
 28 48  1  0  0  0
M  END
> <s_m_entry_id>
6539

> <s_m_entry_name>
ligand_docking-pose.50

> <s_m_Source_Path>
/home/csk/Desktop/cluster/DUD-E-result/abl1

> <s_m_Source_File>
ligand_docking-pose.sdf

> <i_m_Source_File_Index>
50

> <i_lp_mmshare_version>
53161

> <r_lp_tautomer_probability>
1

> <s_lp_Force_Field>
OPLS_2005

> <r_lp_Energy>
7.989961

> <b_lp_Chiralities_Consistent>
1

> <s_lp_Variant>
402614-1

> <s_i_glide_gridfile>
glide-grid_2hzi

> <i_i_glide_lignum>
530

> <i_i_glide_rotatable_bonds>
7

> <r_i_docking_score>
-8.87110799800683

> <r_i_glide_ligand_efficiency>
-0.305900275793339

> <r_i_glide_ligand_efficiency_sa>
-0.939822563246929

> <r_i_glide_ligand_efficiency_ln>
-2.03125877965411

> <r_i_glide_gscore>
-8.87110799800683

> <r_i_glide_lipo>
-4.40144435832131

> <r_i_glide_hbond>
-0.197310382591841

> <r_i_glide_metal>
0

> <r_i_glide_rewards>
-3.06369696238812

> <r_i_glide_evdw>
-20.2055797576904

> <r_i_glide_ecoul>
-5.66046047210693

> <r_i_glide_erotb>
0.650691763995007

> <r_i_glide_esite>
0

> <r_i_glide_emodel>
-31.7302951575069

> <r_i_glide_energy>
-25.8660402297974

> <r_i_glide_einternal>
13.8769445419312

> <i_i_glide_confnum>
113

> <i_i_glide_posenum>
10

> <r_i_glide_eff_state_penalty>
0

> <i_f3d_flags>
0

> <s_user_duplicate_titles>
402614

> <s_m_subgroup_title>
dock_pv

> <s_m_subgroupid>
dock_pv1

> <b_m_subgroup_collapsed>
0

$$$$
489664
                    3D
 Schrodinger Suite 2021-1.
 29 31  0  0  1  0            999 V2000
   23.0930   18.0329    5.8507 C   0  0  0  0  0  0
   22.3653   16.8536    6.0462 C   0  0  0  0  0  0
   21.3145   16.6959    5.1449 C   0  0  0  0  0  0
   21.2703   18.0269    4.0064 S   0  0  0  0  0  0
   22.6027   18.7956    4.8029 C   0  0  0  0  0  0
   20.2711   15.7020    5.1974 C   0  0  0  0  0  0
   19.9242   15.2172    6.2783 O   0  0  0  0  0  0
   19.7216   15.3953    4.0056 N   0  0  0  0  0  0
   18.5830   14.6340    3.8664 C   0  0  0  0  0  0
   18.5457   13.5125    3.2019 N   0  0  0  0  0  0
   17.3098   13.0747    3.0697 C   0  0  0  0  0  0
   16.2846   13.8627    3.6064 C   0  0  0  0  0  0
   17.0440   15.2328    4.3959 S   0  0  0  0  0  0
   14.7996   13.6542    3.6137 C   0  0  0  0  0  0
   14.2413   12.6414    2.8218 C   0  0  0  0  0  0
   12.8639   12.4332    2.8122 C   0  0  0  0  0  0
   12.0369   13.2332    3.6013 C   0  0  0  0  0  0
   12.5808   14.2321    4.4031 C   0  0  0  0  0  0
   13.9541   14.4439    4.4038 C   0  0  0  0  0  0
   10.3305   12.9895    3.5830 Cl  0  0  0  0  0  0
   23.9336   18.3269    6.4656 H   0  0  0  0  0  0
   22.5848   16.1499    6.8355 H   0  0  0  0  0  0
   22.9638   19.7575    4.4648 H   0  0  0  0  0  0
   20.2509   15.5908    3.1676 H   0  0  0  0  0  0
   17.1665   12.1405    2.5483 H   0  0  0  0  0  0
   14.8611   12.0126    2.2042 H   0  0  0  0  0  0
   12.4408   11.6484    2.1991 H   0  0  0  0  0  0
   11.9378   14.8425    5.0174 H   0  0  0  0  0  0
   14.3499   15.2219    5.0385 H   0  0  0  0  0  0
  1  5  2  0  0  0
  1  2  1  0  0  0
  1 21  1  0  0  0
  2  3  2  0  0  0
  2 22  1  0  0  0
  3  4  1  0  0  0
  3  6  1  0  0  0
  4  5  1  0  0  0
  5 23  1  0  0  0
  6  7  2  0  0  0
  6  8  1  0  0  0
  8  9  1  0  0  0
  8 24  1  0  0  0
  9 13  1  0  0  0
  9 10  2  0  0  0
 10 11  1  0  0  0
 11 12  2  0  0  0
 11 25  1  0  0  0
 12 13  1  0  0  0
 12 14  1  0  0  0
 14 19  1  0  0  0
 14 15  2  0  0  0
 15 16  1  0  0  0
 15 26  1  0  0  0
 16 17  2  0  0  0
 16 27  1  0  0  0
 17 18  1  0  0  0
 17 20  1  0  0  0
 18 19  2  0  0  0
 18 28  1  0  0  0
 19 29  1  0  0  0
M  END
> <s_m_entry_id>
6540

> <s_m_entry_name>
ligand_docking-pose.51

> <s_m_Source_Path>
/home/csk/Desktop/cluster/DUD-E-result/abl1

> <s_m_Source_File>
ligand_docking-pose.sdf

> <i_m_Source_File_Index>
51

> <i_lp_mmshare_version>
53161

> <r_lp_tautomer_probability>
0.999000488399163

> <s_lp_Force_Field>
OPLS_2005

> <r_lp_Energy>
12.497541

> <b_lp_Chiralities_Consistent>
1

> <s_lp_Variant>
489664-1

> <s_i_glide_gridfile>
glide-grid_2hzi

> <i_i_glide_lignum>
125

> <i_i_glide_rotatable_bonds>
4

> <r_i_docking_score>
-8.84846185498019

> <r_i_glide_ligand_efficiency>
-0.442423092749009

> <r_i_glide_ligand_efficiency_sa>
-1.2009210357471

> <r_i_glide_ligand_efficiency_ln>
-2.21447816049746

> <r_i_glide_gscore>
-8.84846185498019

> <r_i_glide_lipo>
-4.56809102158116

> <r_i_glide_hbond>
-0.0514000089407242

> <r_i_glide_metal>
0

> <r_i_glide_rewards>
-2.13689948976407

> <r_i_glide_evdw>
-46.4813957214355

> <r_i_glide_ecoul>
-3.29261493682861

> <r_i_glide_erotb>
0.725890691901836

> <r_i_glide_esite>
0

> <r_i_glide_emodel>
-71.2023646138703

> <r_i_glide_energy>
-49.7740106582642

> <r_i_glide_einternal>
10.0591955184937

> <i_i_glide_confnum>
20

> <i_i_glide_posenum>
259

> <r_i_glide_eff_state_penalty>
0

> <i_f3d_flags>
0

> <s_user_duplicate_titles>
489664

> <s_m_subgroup_title>
dock_pv

> <s_m_subgroupid>
dock_pv1

> <b_m_subgroup_collapsed>
0

$$$$
292354
                    3D
 Schrodinger Suite 2021-1.
 40 43  0  0  1  0            999 V2000
   21.4985   18.3560    4.7783 C   0  0  0  0  0  0
   20.2970   18.4050    5.5438 O   0  0  0  0  0  0
   19.2187   17.6315    5.1625 C   0  0  0  0  0  0
   19.1671   16.8564    4.0060 C   0  0  0  0  0  0
   18.0380   16.0886    3.7573 C   0  0  0  0  0  0
   16.9723   16.0166    4.6687 C   0  0  0  0  0  0
   17.0069   16.8194    5.7997 C   0  0  0  0  0  0
   18.1102   17.6413    6.0016 C   0  0  0  0  0  0
   15.8071   15.1287    4.3178 C   0  0  0  0  0  0
   14.4260   15.2447    4.5597 C   0  0  0  0  0  0
   13.6592   14.2570    3.9234 N   0  0  0  0  0  0
   14.5919   13.4691    3.2798 C   0  0  0  0  0  0
   15.9162   13.9141    3.5704 C   0  0  0  0  0  0
   16.9394   13.0908    3.0445 C   0  0  0  0  0  0
   16.6539   12.0323    2.2880 N   0  0  0  0  0  0
   15.3567   11.7670    2.0520 C   0  0  0  0  0  0
   14.3014   12.4239    2.5201 N   0  0  0  0  0  0
   18.3007   13.2389    3.2463 N   0  0  0  0  0  0
   12.2272   14.0233    3.9517 C   0  0  0  0  0  0
   11.5660   13.0115    3.2129 C   0  0  0  0  0  0
   10.2085   12.7469    3.3790 C   0  0  0  0  0  0
    9.5030   13.4054    4.3691 C   0  0  0  0  0  0
   10.1218   14.4053    5.0991 C   0  0  0  0  0  0
   11.4325   14.7865    4.8036 C   0  0  0  0  0  0
   22.2659   18.9443    5.2799 H   0  0  0  0  0  0
   21.3650   18.7837    3.7839 H   0  0  0  0  0  0
   21.8793   17.3373    4.6819 H   0  0  0  0  0  0
   19.9717   16.8556    3.2863 H   0  0  0  0  0  0
   17.9830   15.5897    2.8066 H   0  0  0  0  0  0
   16.1823   16.8238    6.4969 H   0  0  0  0  0  0
   18.1261   18.2910    6.8625 H   0  0  0  0  0  0
   13.9311   16.0111    5.1305 H   0  0  0  0  0  0
   15.0910   10.8863    1.4570 H   0  0  0  0  0  0
   18.6496   13.9899    3.8220 H   0  0  0  0  0  0
   18.9188   12.5836    2.7892 H   0  0  0  0  0  0
   12.0295   12.3913    2.4697 H   0  0  0  0  0  0
    9.7347   11.9687    2.7968 H   0  0  0  0  0  0
    8.4756   13.1400    4.5684 H   0  0  0  0  0  0
    9.5624   14.9025    5.8699 H   0  0  0  0  0  0
   11.8556   15.6787    5.2016 H   0  0  0  0  0  0
  1  2  1  0  0  0
  1 25  1  0  0  0
  1 26  1  0  0  0
  1 27  1  0  0  0
  2  3  1  0  0  0
  3  8  1  0  0  0
  3  4  2  0  0  0
  4  5  1  0  0  0
  4 28  1  0  0  0
  5  6  2  0  0  0
  5 29  1  0  0  0
  6  7  1  0  0  0
  6  9  1  0  0  0
  7  8  2  0  0  0
  7 30  1  0  0  0
  8 31  1  0  0  0
  9 13  1  0  0  0
  9 10  2  0  0  0
 10 11  1  0  0  0
 10 32  1  0  0  0
 11 12  1  0  0  0
 11 19  1  0  0  0
 12 17  1  0  0  0
 12 13  2  0  0  0
 13 14  1  0  0  0
 14 15  2  0  0  0
 14 18  1  0  0  0
 15 16  1  0  0  0
 16 17  2  0  0  0
 16 33  1  0  0  0
 18 34  1  0  0  0
 18 35  1  0  0  0
 19 24  1  0  0  0
 19 20  2  0  0  0
 20 21  1  0  0  0
 20 36  1  0  0  0
 21 22  2  0  0  0
 21 37  1  0  0  0
 22 23  1  0  0  0
 22 38  1  0  0  0
 23 24  2  0  0  0
 23 39  1  0  0  0
 24 40  1  0  0  0
M  END
> <s_m_entry_id>
6541

> <s_m_entry_name>
ligand_docking-pose.52

> <s_m_Source_Path>
/home/csk/Desktop/cluster/DUD-E-result/abl1

> <s_m_Source_File>
ligand_docking-pose.sdf

> <i_m_Source_File_Index>
52

> <i_lp_mmshare_version>
53161

> <r_lp_tautomer_probability>
1

> <s_lp_Force_Field>
OPLS_2005

> <r_lp_Energy>
19.987494

> <b_lp_Chiralities_Consistent>
1

> <s_lp_Variant>
292354-1

> <s_i_glide_gridfile>
glide-grid_2hzi

> <i_i_glide_lignum>
465

> <i_i_glide_rotatable_bonds>
3

> <r_i_docking_score>
-8.81410122884089

> <r_i_glide_ligand_efficiency>
-0.36725421786837

> <r_i_glide_ligand_efficiency_sa>
-1.05934447470626

> <r_i_glide_ligand_efficiency_ln>
-2.10961887681252

> <r_i_glide_gscore>
-8.81410122884089

> <r_i_glide_lipo>
-3.70262364860809

> <r_i_glide_hbond>
-0.375440620806081

> <r_i_glide_metal>
0

> <r_i_glide_rewards>
-3.59791566884032

> <r_i_glide_evdw>
-18.4526062011719

> <r_i_glide_ecoul>
-2.98789620399475

> <r_i_glide_erotb>
0.260406555033057

> <r_i_glide_esite>
-0.0277131049616579

> <r_i_glide_emodel>
-45.8663851726493

> <r_i_glide_energy>
-21.4405024051666

> <r_i_glide_einternal>
1.08728647232056

> <i_i_glide_confnum>
10

> <i_i_glide_posenum>
51

> <r_i_glide_eff_state_penalty>
0

> <i_f3d_flags>
0

> <s_user_duplicate_titles>
292354

> <s_m_subgroup_title>
dock_pv

> <s_m_subgroupid>
dock_pv1

> <b_m_subgroup_collapsed>
0

$$$$
436901
                    3D
 Schrodinger Suite 2021-1.
 37 39  0  0  1  0            999 V2000
   21.7531   18.2424    3.9169 C   0  0  0  0  0  0
   22.6210   18.1229    5.0003 C   0  0  0  0  0  0
   22.3604   17.1877    6.0034 C   0  0  0  0  0  0
   21.2137   16.3896    5.9388 C   0  0  0  0  0  0
   20.3027   16.5420    4.8689 C   0  0  0  0  0  0
   20.6052   17.4513    3.8438 C   0  0  0  0  0  0
   19.0350   15.7254    4.8011 C   0  0  0  0  0  0
   18.2247   15.7865    5.7285 O   0  0  0  0  0  0
   18.9086   14.9303    3.7179 N   0  0  0  0  0  0
   17.8565   14.0538    3.4890 C   0  0  0  0  0  0
   18.0547   12.8710    2.9689 N   0  0  0  0  0  0
   16.8737   12.1639    2.8024 N   0  0  0  0  0  0
   15.7971   12.8112    3.1952 C   0  0  0  0  0  0
   16.1618   14.4340    3.7422 S   0  0  0  0  0  0
   14.2068   12.0412    3.3068 S   0  0  0  0  0  0
   13.0352   13.3874    2.9854 C   0  0  0  0  0  0
   11.8682   13.4128    3.9675 C   0  0  0  0  0  0
   10.5509   13.2292    3.5376 C   0  0  0  0  0  0
    9.5008   13.2333    4.4558 C   0  0  0  0  0  0
    9.7737   13.4625    5.8100 C   0  0  0  0  0  0
   11.0903   13.6327    6.2370 C   0  0  0  0  0  0
   12.1345   13.6352    5.3176 C   0  0  0  0  0  0
    8.6794   13.4651    6.7914 N   0  3  0  0  0  0
    7.9406   12.4870    6.8027 O   0  5  0  0  0  0
    8.5867   14.4375    7.5329 O   0  0  0  0  0  0
   20.9636   15.2328    7.1997 Cl  0  0  0  0  0  0
   21.9686   18.9557    3.1321 H   0  0  0  0  0  0
   23.4975   18.7460    5.0633 H   0  0  0  0  0  0
   23.0696   17.0682    6.8071 H   0  0  0  0  0  0
   19.9464   17.5719    2.9978 H   0  0  0  0  0  0
   19.7398   14.7871    3.1625 H   0  0  0  0  0  0
   13.5138   14.3649    3.0261 H   0  0  0  0  0  0
   12.6471   13.2330    1.9814 H   0  0  0  0  0  0
   10.3237   13.0373    2.4929 H   0  0  0  0  0  0
    8.4902   13.0461    4.1196 H   0  0  0  0  0  0
   11.3119   13.7846    7.2874 H   0  0  0  0  0  0
   13.1613   13.7922    5.6311 H   0  0  0  0  0  0
  1  6  1  0  0  0
  1  2  2  0  0  0
  1 27  1  0  0  0
  2  3  1  0  0  0
  2 28  1  0  0  0
  3  4  2  0  0  0
  3 29  1  0  0  0
  4  5  1  0  0  0
  4 26  1  0  0  0
  5  6  2  0  0  0
  5  7  1  0  0  0
  6 30  1  0  0  0
  7  8  2  0  0  0
  7  9  1  0  0  0
  9 10  1  0  0  0
  9 31  1  0  0  0
 10 14  1  0  0  0
 10 11  2  0  0  0
 11 12  1  0  0  0
 12 13  2  0  0  0
 13 14  1  0  0  0
 13 15  1  0  0  0
 15 16  1  0  0  0
 16 17  1  0  0  0
 16 32  1  0  0  0
 16 33  1  0  0  0
 17 22  1  0  0  0
 17 18  2  0  0  0
 18 19  1  0  0  0
 18 34  1  0  0  0
 19 20  2  0  0  0
 19 35  1  0  0  0
 20 21  1  0  0  0
 20 23  1  0  0  0
 21 22  2  0  0  0
 21 36  1  0  0  0
 22 37  1  0  0  0
 23 24  1  0  0  0
 23 25  2  0  0  0
M  CHG  2  23   1  24  -1
M  END
> <s_m_entry_id>
6542

> <s_m_entry_name>
ligand_docking-pose.53

> <s_m_Source_Path>
/home/csk/Desktop/cluster/DUD-E-result/abl1

> <s_m_Source_File>
ligand_docking-pose.sdf

> <i_m_Source_File_Index>
53

> <i_lp_mmshare_version>
53161

> <r_lp_tautomer_probability>
1

> <s_lp_Force_Field>
OPLS_2005

> <r_lp_Energy>
18.662112

> <b_lp_Chiralities_Consistent>
1

> <s_lp_Variant>
436901-1

> <s_i_glide_gridfile>
glide-grid_2hzi

> <i_i_glide_lignum>
78

> <i_i_glide_rotatable_bonds>
7

> <r_i_docking_score>
-8.78973527232294

> <r_i_glide_ligand_efficiency>
-0.33806674124319

> <r_i_glide_ligand_efficiency_sa>
-1.00152139070456

> <r_i_glide_ligand_efficiency_ln>
-2.0642404872312

> <r_i_glide_gscore>
-8.78973527232294

> <r_i_glide_lipo>
-4.57477674067629

> <r_i_glide_hbond>
-0.163583190760211

> <r_i_glide_metal>
0

> <r_i_glide_rewards>
-1.18444192809004

> <r_i_glide_evdw>
-50.0031814575195

> <r_i_glide_ecoul>
-7.19717073440552

> <r_i_glide_erotb>
0.712801270240408

> <r_i_glide_esite>
0

> <r_i_glide_emodel>
-73.9835562846123

> <r_i_glide_energy>
-57.200352191925

> <r_i_glide_einternal>
12.4248123168945

> <i_i_glide_confnum>
7

> <i_i_glide_posenum>
72

> <r_i_glide_eff_state_penalty>
0

> <i_f3d_flags>
0

> <s_user_duplicate_titles>
436901

> <s_m_subgroup_title>
dock_pv

> <s_m_subgroupid>
dock_pv1

> <b_m_subgroup_collapsed>
0

$$$$
61511
                    3D
 Schrodinger Suite 2021-1.
 48 51  0  0  1  0            999 V2000
   18.7273   18.8142    6.1097 C   0  0  0  0  0  0
   17.3640   17.6324    6.4175 S   0  0  0  0  0  0
   17.2706   16.4564    5.2190 C   0  0  0  0  0  0
   18.3142   16.5101    4.4213 N   0  0  0  0  0  0
   18.4744   15.5132    3.5674 C   0  0  0  0  0  0
   17.5242   14.4769    3.4675 C   0  0  0  0  0  0
   17.2756   13.2361    2.8031 C   0  0  0  0  0  0
   16.0599   12.7977    3.0402 N   0  0  0  0  0  0
   15.4962   13.6566    3.9196 N   0  0  0  0  0  0
   16.3863   14.6481    4.2796 C   0  0  0  0  0  0
   16.2406   15.5921    5.2141 N   0  0  0  0  0  0
   14.1955   13.3765    4.5170 C   0  0  0  0  0  0
   13.0316   14.2533    4.0078 C   0  0  1  0  0  0
   11.6766   13.9055    4.6344 C   0  0  0  0  0  0
   11.5698   13.6328    6.0031 C   0  0  0  0  0  0
   10.3227   13.4269    6.5846 C   0  0  0  0  0  0
    9.1786   13.4511    5.7925 C   0  0  0  0  0  0
    9.2750   13.6945    4.4258 C   0  0  0  0  0  0
   10.5192   13.9328    3.8518 C   0  0  0  0  0  0
   13.3849   15.9493    4.4030 Cl  0  0  0  0  0  0
   19.6206   15.6497    2.8030 N   0  0  0  0  0  0
   20.3827   16.9011    2.7034 C   0  0  0  0  0  0
   21.2865   17.2344    3.8994 C   0  0  0  0  0  0
   21.9223   18.4746    3.9040 C   0  0  0  0  0  0
   22.7558   18.8321    4.9567 C   0  0  0  0  0  0
   22.9687   17.9418    6.0029 C   0  0  0  0  0  0
   22.3488   16.6959    6.0065 C   0  0  0  0  0  0
   21.5018   16.3448    4.9621 C   0  0  0  0  0  0
   18.8011   19.5168    6.9374 H   0  0  0  0  0  0
   19.6856   18.3042    6.0042 H   0  0  0  0  0  0
   18.5668   19.3852    5.2036 H   0  0  0  0  0  0
   17.9258   12.7163    2.1128 H   0  0  0  0  0  0
   14.3277   13.6210    5.5714 H   0  0  0  0  0  0
   13.9669   12.3160    4.4003 H   0  0  0  0  0  0
   12.9620   14.1599    2.9240 H   0  0  0  0  0  0
   12.4484   13.6363    6.6344 H   0  0  0  0  0  0
   10.2450   13.2328    7.6410 H   0  0  0  0  0  0
    8.2157   13.2730    6.2477 H   0  0  0  0  0  0
    8.3862   13.7116    3.8153 H   0  0  0  0  0  0
   10.5682   14.1664    2.8028 H   0  0  0  0  0  0
   19.9315   14.8946    2.1910 H   0  0  0  0  0  0
   20.9627   16.8698    1.7845 H   0  0  0  0  0  0
   19.6841   17.7268    2.5672 H   0  0  0  0  0  0
   21.7756   19.1634    3.0825 H   0  0  0  0  0  0
   23.2483   19.7949    4.9549 H   0  0  0  0  0  0
   23.6417   18.2130    6.8023 H   0  0  0  0  0  0
   22.5378   16.0031    6.8110 H   0  0  0  0  0  0
   21.0311   15.3734    4.9776 H   0  0  0  0  0  0
  1  2  1  0  0  0
  1 29  1  0  0  0
  1 30  1  0  0  0
  1 31  1  0  0  0
  2  3  1  0  0  0
  3 11  1  0  0  0
  3  4  2  0  0  0
  4  5  1  0  0  0
  5  6  2  0  0  0
  5 21  1  0  0  0
  6 10  1  0  0  0
  6  7  1  0  0  0
  7  8  2  0  0  0
  7 32  1  0  0  0
  8  9  1  0  0  0
  9 10  1  0  0  0
  9 12  1  0  0  0
 10 11  2  0  0  0
 12 13  1  0  0  0
 12 33  1  0  0  0
 12 34  1  0  0  0
 13 14  1  0  0  0
 13 20  1  0  0  0
 13 35  1  0  0  0
 14 19  1  0  0  0
 14 15  2  0  0  0
 15 16  1  0  0  0
 15 36  1  0  0  0
 16 17  2  0  0  0
 16 37  1  0  0  0
 17 18  1  0  0  0
 17 38  1  0  0  0
 18 19  2  0  0  0
 18 39  1  0  0  0
 19 40  1  0  0  0
 21 22  1  0  0  0
 21 41  1  0  0  0
 22 23  1  0  0  0
 22 42  1  0  0  0
 22 43  1  0  0  0
 23 28  1  0  0  0
 23 24  2  0  0  0
 24 25  1  0  0  0
 24 44  1  0  0  0
 25 26  2  0  0  0
 25 45  1  0  0  0
 26 27  1  0  0  0
 26 46  1  0  0  0
 27 28  2  0  0  0
 27 47  1  0  0  0
 28 48  1  0  0  0
M  END
> <s_m_entry_id>
6543

> <s_m_entry_name>
ligand_docking-pose.54

> <s_m_Source_Path>
/home/csk/Desktop/cluster/DUD-E-result/abl1

> <s_m_Source_File>
ligand_docking-pose.sdf

> <i_m_Source_File_Index>
54

> <i_lp_mmshare_version>
53161

> <r_lp_tautomer_probability>
1

> <s_lp_Force_Field>
OPLS_2005

> <r_lp_Energy>
10.192039

> <b_lp_Chiralities_Consistent>
1

> <s_lp_Variant>
61511-1

> <s_i_glide_gridfile>
glide-grid_2hzi

> <i_i_glide_lignum>
522

> <i_i_glide_rotatable_bonds>
7

> <r_i_docking_score>
-8.74545168124061

> <r_i_glide_ligand_efficiency>
-0.312337560044307

> <r_i_glide_ligand_efficiency_sa>
-0.94844078927963

> <r_i_glide_ligand_efficiency_ln>
-2.01870702564938

> <r_i_glide_gscore>
-8.74545168124061

> <r_i_glide_lipo>
-5.20347173440559

> <r_i_glide_hbond>
-0.304424989989128

> <r_i_glide_metal>
0

> <r_i_glide_rewards>
-2.20227669026213

> <r_i_glide_evdw>
-18.0413055419922

> <r_i_glide_ecoul>
-5.28719711303711

> <r_i_glide_erotb>
0.70321184262238

> <r_i_glide_esite>
-0.0433452651509642

> <r_i_glide_emodel>
-33.132008908533

> <r_i_glide_energy>
-23.3285026550293

> <r_i_glide_einternal>
5.91819143295288

> <i_i_glide_confnum>
48

> <i_i_glide_posenum>
187

> <r_i_glide_eff_state_penalty>
0

> <i_f3d_flags>
0

> <s_user_duplicate_titles>
61511

> <s_m_subgroup_title>
dock_pv

> <s_m_subgroupid>
dock_pv1

> <b_m_subgroup_collapsed>
0

$$$$
134364
                    3D
 Schrodinger Suite 2021-1.
 47 49  0  0  1  0            999 V2000
   12.6503   11.7231    2.9017 C   0  0  0  0  0  0
   12.3879   13.1976    3.2344 C   0  0  0  0  0  0
   13.2401   13.7733    4.2804 N   0  0  0  0  0  0
   12.6024   14.3170    5.4788 C   0  0  0  0  0  0
   11.5729   13.3936    6.1531 C   0  0  0  0  0  0
   14.6167   14.0265    4.0298 C   0  0  0  0  0  0
   15.3634   15.0590    4.6319 C   0  0  0  0  0  0
   15.1407   16.1846    5.4017 C   0  0  0  0  0  0
   16.2223   16.8330    5.7263 N   0  0  0  0  0  0
   17.2361   16.1950    5.1311 N   0  0  0  0  0  0
   16.7522   15.1229    4.4028 C   0  0  0  0  0  0
   17.4144   14.2942    3.6221 N   0  0  0  0  0  0
   16.6029   13.3617    3.0847 C   0  0  0  0  0  0
   15.2698   13.2091    3.1824 N   0  0  0  0  0  0
   17.3640   12.0330    2.4030 S   0  0  0  0  0  0
   18.9633   11.8694    3.2030 C   0  0  0  0  0  0
   18.5222   16.8744    5.1026 C   0  0  0  0  0  0
   19.7640   15.9610    4.9716 C   0  0  1  0  0  0
   21.0131   16.8417    4.9662 C   0  0  0  0  0  0
   21.1601   17.7808    3.9378 C   0  0  0  0  0  0
   22.1640   18.7382    4.0033 C   0  0  0  0  0  0
   23.0461   18.7320    5.0781 C   0  0  0  0  0  0
   22.9688   17.7460    6.0514 C   0  0  0  0  0  0
   21.9514   16.8034    6.0028 C   0  0  0  0  0  0
   19.7481   14.7159    6.2645 Cl  0  0  0  0  0  0
   11.7656   11.2478    2.4769 H   0  0  0  0  0  0
   13.4420   11.6335    2.1584 H   0  0  0  0  0  0
   12.9640   11.1508    3.7745 H   0  0  0  0  0  0
   11.3331   13.3441    3.4640 H   0  0  0  0  0  0
   12.5640   13.7846    2.3433 H   0  0  0  0  0  0
   13.3617   14.5233    6.2315 H   0  0  0  0  0  0
   12.1344   15.2622    5.2029 H   0  0  0  0  0  0
   11.2149   13.8258    7.0870 H   0  0  0  0  0  0
   10.6948   13.2242    5.5316 H   0  0  0  0  0  0
   12.0217   12.4332    6.4033 H   0  0  0  0  0  0
   14.1640   16.5200    5.6030 H   0  0  0  0  0  0
   19.3640   10.8796    2.9922 H   0  0  0  0  0  0
   19.6344   12.6307    2.8030 H   0  0  0  0  0  0
   18.8488   11.9693    4.2813 H   0  0  0  0  0  0
   18.6095   17.4842    6.0030 H   0  0  0  0  0  0
   18.4681   17.5716    4.2659 H   0  0  0  0  0  0
   19.7494   15.4193    4.0246 H   0  0  0  0  0  0
   20.4646   17.8086    3.1115 H   0  0  0  0  0  0
   22.2504   19.4903    3.2331 H   0  0  0  0  0  0
   23.8151   19.4878    5.1470 H   0  0  0  0  0  0
   23.6834   17.7296    6.8614 H   0  0  0  0  0  0
   21.8904   16.0815    6.8025 H   0  0  0  0  0  0
  1  2  1  0  0  0
  1 26  1  0  0  0
  1 27  1  0  0  0
  1 28  1  0  0  0
  2  3  1  0  0  0
  2 29  1  0  0  0
  2 30  1  0  0  0
  3  4  1  0  0  0
  3  6  1  0  0  0
  4  5  1  0  0  0
  4 31  1  0  0  0
  4 32  1  0  0  0
  5 33  1  0  0  0
  5 34  1  0  0  0
  5 35  1  0  0  0
  6 14  1  0  0  0
  6  7  2  0  0  0
  7 11  1  0  0  0
  7  8  1  0  0  0
  8  9  2  0  0  0
  8 36  1  0  0  0
  9 10  1  0  0  0
 10 11  1  0  0  0
 10 17  1  0  0  0
 11 12  2  0  0  0
 12 13  1  0  0  0
 13 14  2  0  0  0
 13 15  1  0  0  0
 15 16  1  0  0  0
 16 37  1  0  0  0
 16 38  1  0  0  0
 16 39  1  0  0  0
 17 18  1  0  0  0
 17 40  1  0  0  0
 17 41  1  0  0  0
 18 19  1  0  0  0
 18 25  1  0  0  0
 18 42  1  0  0  0
 19 24  1  0  0  0
 19 20  2  0  0  0
 20 21  1  0  0  0
 20 43  1  0  0  0
 21 22  2  0  0  0
 21 44  1  0  0  0
 22 23  1  0  0  0
 22 45  1  0  0  0
 23 24  2  0  0  0
 23 46  1  0  0  0
 24 47  1  0  0  0
M  END
> <s_m_entry_id>
6544

> <s_m_entry_name>
ligand_docking-pose.55

> <s_m_Source_Path>
/home/csk/Desktop/cluster/DUD-E-result/abl1

> <s_m_Source_File>
ligand_docking-pose.sdf

> <i_m_Source_File_Index>
55

> <i_lp_mmshare_version>
53161

> <r_lp_tautomer_probability>
1

> <s_lp_Force_Field>
OPLS_2005

> <r_lp_Energy>
9.478175

> <b_lp_Chiralities_Consistent>
1

> <s_lp_Variant>
134364-1

> <s_i_glide_gridfile>
glide-grid_2hzi

> <i_i_glide_lignum>
329

> <i_i_glide_rotatable_bonds>
7

> <r_i_docking_score>
-8.74173611229638

> <r_i_glide_ligand_efficiency>
-0.349669444491855

> <r_i_glide_ligand_efficiency_sa>
-1.02243965710819

> <r_i_glide_ligand_efficiency_ln>
-2.07205342730595

> <r_i_glide_gscore>
-8.74173611229638

> <r_i_glide_lipo>
-4.47125959988872

> <r_i_glide_hbond>
0

> <r_i_glide_metal>
0

> <r_i_glide_rewards>
-2.93741108870942

> <r_i_glide_evdw>
-31.1841812133789

> <r_i_glide_ecoul>
-2.14417171478271

> <r_i_glide_erotb>
0.547769394188123

> <r_i_glide_esite>
0

> <r_i_glide_emodel>
-35.0734038636831

> <r_i_glide_energy>
-33.3283529281616

> <r_i_glide_einternal>
12.2582635879517

> <i_i_glide_confnum>
21

> <i_i_glide_posenum>
41

> <r_i_glide_eff_state_penalty>
0

> <i_f3d_flags>
0

> <s_user_duplicate_titles>
134364

> <s_m_subgroup_title>
dock_pv

> <s_m_subgroupid>
dock_pv1

> <b_m_subgroup_collapsed>
0

$$$$
317507
                    3D
 Schrodinger Suite 2021-1.
 39 41  0  0  1  0            999 V2000
   22.3427   17.4046    5.5189 C   0  0  0  0  0  0
   21.4237   18.1341    4.7712 C   0  0  0  0  0  0
   20.0710   17.7938    4.8049 C   0  0  0  0  0  0
   19.6154   16.7421    5.6029 C   0  0  0  0  0  0
   20.5624   15.9580    6.2834 C   0  0  0  0  0  0
   21.9079   16.3067    6.2553 C   0  0  0  0  0  0
   20.1920   14.8361    6.9377 F   0  0  0  0  0  0
   18.1447   16.3867    5.6209 C   0  0  0  0  0  0
   17.3701   16.9529    6.3941 O   0  0  0  0  0  0
   17.6882   15.3823    4.7100 N   0  0  0  0  0  0
   18.4314   14.6490    3.8182 C   0  0  0  0  0  0
   17.6842   13.7797    3.2010 N   0  0  0  0  0  0
   16.4765   14.0328    3.6685 C   0  0  0  0  0  0
   16.4072   14.9924    4.5726 N   0  0  0  0  0  0
   15.4313   13.2706    3.2032 N   0  0  0  0  0  0
   14.0509   13.2929    3.4605 C   0  0  0  0  0  0
   13.2665   12.4340    2.6897 C   0  0  0  0  0  0
   11.8802   12.4310    2.8030 C   0  0  0  0  0  0
   11.2696   13.3139    3.6965 C   0  0  0  0  0  0
   12.0474   14.1397    4.5051 C   0  0  0  0  0  0
   13.4341   14.1322    4.3937 C   0  0  0  0  0  0
    9.4914   13.4592    3.8238 S   0  0  0  0  0  0
    9.1757   13.4206    5.2545 O   0  0  0  0  0  0
    9.1112   14.6103    2.9980 O   0  0  0  0  0  0
    8.8053   12.0333    3.0906 N   0  0  0  0  0  0
   19.7630   14.8331    3.6033 N   0  0  0  0  0  0
   19.2111   18.4328    3.9973 F   0  0  0  0  0  0
   23.3900   17.6677    5.5018 H   0  0  0  0  0  0
   21.7639   18.9512    4.1517 H   0  0  0  0  0  0
   22.6108   15.7086    6.8021 H   0  0  0  0  0  0
   15.6554   12.5785    2.5066 H   0  0  0  0  0  0
   13.7274   11.7863    1.9623 H   0  0  0  0  0  0
   11.2986   11.7738    2.1737 H   0  0  0  0  0  0
   11.5688   14.8150    5.1940 H   0  0  0  0  0  0
   13.9997   14.8008    5.0218 H   0  0  0  0  0  0
    8.9329   11.9585    2.0798 H   0  0  0  0  0  0
    8.9450   11.1523    3.6009 H   0  0  0  0  0  0
   20.2622   14.4327    2.8100 H   0  0  0  0  0  0
   20.2977   15.4757    4.1686 H   0  0  0  0  0  0
  1  6  1  0  0  0
  1  2  2  0  0  0
  1 28  1  0  0  0
  2  3  1  0  0  0
  2 29  1  0  0  0
  3  4  2  0  0  0
  3 27  1  0  0  0
  4  5  1  0  0  0
  4  8  1  0  0  0
  5  6  2  0  0  0
  5  7  1  0  0  0
  6 30  1  0  0  0
  8  9  2  0  0  0
  8 10  1  0  0  0
 10 14  1  0  0  0
 10 11  1  0  0  0
 11 12  2  0  0  0
 11 26  1  0  0  0
 12 13  1  0  0  0
 13 14  2  0  0  0
 13 15  1  0  0  0
 15 16  1  0  0  0
 15 31  1  0  0  0
 16 21  1  0  0  0
 16 17  2  0  0  0
 17 18  1  0  0  0
 17 32  1  0  0  0
 18 19  2  0  0  0
 18 33  1  0  0  0
 19 20  1  0  0  0
 19 22  1  0  0  0
 20 21  2  0  0  0
 20 34  1  0  0  0
 21 35  1  0  0  0
 22 23  2  0  0  0
 22 24  2  0  0  0
 22 25  1  0  0  0
 25 36  1  0  0  0
 25 37  1  0  0  0
 26 38  1  0  0  0
 26 39  1  0  0  0
M  END
> <s_m_entry_id>
6545

> <s_m_entry_name>
ligand_docking-pose.56

> <s_m_Source_Path>
/home/csk/Desktop/cluster/DUD-E-result/abl1

> <s_m_Source_File>
ligand_docking-pose.sdf

> <i_m_Source_File_Index>
56

> <i_lp_mmshare_version>
53161

> <r_lp_tautomer_probability>
1

> <s_lp_Force_Field>
OPLS_2005

> <r_lp_Energy>
35.355715

> <b_lp_Chiralities_Consistent>
1

> <s_lp_Variant>
317507-1

> <s_i_glide_gridfile>
glide-grid_2hzi

> <i_i_glide_lignum>
91

> <i_i_glide_rotatable_bonds>
5

> <r_i_docking_score>
-8.69295589657539

> <r_i_glide_ligand_efficiency>
-0.321961329502792

> <r_i_glide_ligand_efficiency_sa>
-0.965883987447244

> <r_i_glide_ligand_efficiency_ln>
-2.02357681814415

> <r_i_glide_gscore>
-8.69295589657539

> <r_i_glide_lipo>
-3.08448817956583

> <r_i_glide_hbond>
-0.572476339460577

> <r_i_glide_metal>
0

> <r_i_glide_rewards>
-1.68005618962756

> <r_i_glide_evdw>
-40.1999168395996

> <r_i_glide_ecoul>
-11.5883941650391

> <r_i_glide_erotb>
0.502684924801126

> <r_i_glide_esite>
-0.110365145986701

> <r_i_glide_emodel>
-67.4861229148562

> <r_i_glide_energy>
-51.7883110046387

> <r_i_glide_einternal>
5.7655086517334

> <i_i_glide_confnum>
13

> <i_i_glide_posenum>
306

> <r_i_glide_eff_state_penalty>
0

> <i_f3d_flags>
0

> <s_user_duplicate_titles>
317507

> <s_m_subgroup_title>
dock_pv

> <s_m_subgroupid>
dock_pv1

> <b_m_subgroup_collapsed>
0

$$$$
442228
                    3D
 Schrodinger Suite 2021-1.
 44 47  0  0  1  0            999 V2000
   10.2095   13.2308    3.2134 C   0  0  0  0  0  0
    9.2438   13.6270    4.1344 C   0  0  0  0  0  0
    9.5957   13.8269    5.4650 C   0  0  0  0  0  0
   10.9069   13.6330    5.8813 C   0  0  0  0  0  0
   11.8784   13.2706    4.9533 C   0  0  0  0  0  0
   11.5448   13.0708    3.6031 C   0  0  0  0  0  0
   12.5640   12.5745    2.5652 C   0  0  0  0  0  0
   13.9629   12.4329    2.9770 N   0  0  0  0  0  0
   14.7666   13.5179    3.3645 C   0  0  0  0  0  0
   16.1640   13.4197    3.2780 C   0  0  0  0  0  0
   17.1593   12.5173    2.8054 C   0  0  0  0  0  0
   18.3584   13.0049    2.9814 N   0  0  0  0  0  0
   18.2288   14.2084    3.5725 N   0  0  0  0  0  0
   16.8991   14.4984    3.8152 C   0  0  0  0  0  0
   16.3758   15.5695    4.4179 N   0  0  0  0  0  0
   15.0182   15.5807    4.4030 C   0  0  0  0  0  0
   14.1999   14.6518    3.8601 N   0  0  0  0  0  0
   19.4166   15.0402    3.7517 C   0  0  0  0  0  0
   19.4978   15.6952    5.1429 C   0  0  2  0  0  0
   20.7557   16.5443    5.2784 C   0  0  0  0  0  0
   20.8438   17.7555    4.5805 C   0  0  0  0  0  0
   21.9956   18.5325    4.6769 C   0  0  0  0  0  0
   23.0389   18.1068    5.4913 C   0  0  0  0  0  0
   22.9491   16.9184    6.1941 C   0  0  0  0  0  0
   21.8240   16.1233    6.0742 C   0  0  0  0  0  0
   24.1640   18.8356    5.5994 F   0  0  0  0  0  0
   19.3639   14.4333    6.4030 Cl  0  0  0  0  0  0
    8.6572   14.2029    6.3619 F   0  0  0  0  0  0
    9.9034   13.0287    2.1972 H   0  0  0  0  0  0
    8.2202   13.7533    3.8221 H   0  0  0  0  0  0
   11.1705   13.7616    6.9212 H   0  0  0  0  0  0
   12.8803   13.1069    5.3129 H   0  0  0  0  0  0
   12.5640   13.2329    1.7063 H   0  0  0  0  0  0
   12.2287   11.6039    2.1962 H   0  0  0  0  0  0
   14.4340   11.6126    2.6225 H   0  0  0  0  0  0
   17.0357   11.5567    2.3450 H   0  0  0  0  0  0
   14.5390   16.4420    4.8458 H   0  0  0  0  0  0
   19.4086   15.7878    2.9578 H   0  0  0  0  0  0
   20.3090   14.4330    3.6030 H   0  0  0  0  0  0
   18.6534   16.3657    5.3009 H   0  0  0  0  0  0
   20.0285   18.0887    3.9548 H   0  0  0  0  0  0
   22.0843   19.4613    4.1329 H   0  0  0  0  0  0
   23.7621   16.6050    6.8271 H   0  0  0  0  0  0
   21.8090   15.1885    6.6121 H   0  0  0  0  0  0
  1  6  1  0  0  0
  1  2  2  0  0  0
  1 29  1  0  0  0
  2  3  1  0  0  0
  2 30  1  0  0  0
  3  4  2  0  0  0
  3 28  1  0  0  0
  4  5  1  0  0  0
  4 31  1  0  0  0
  5  6  2  0  0  0
  5 32  1  0  0  0
  6  7  1  0  0  0
  7  8  1  0  0  0
  7 33  1  0  0  0
  7 34  1  0  0  0
  8  9  1  0  0  0
  8 35  1  0  0  0
  9 17  1  0  0  0
  9 10  2  0  0  0
 10 14  1  0  0  0
 10 11  1  0  0  0
 11 12  2  0  0  0
 11 36  1  0  0  0
 12 13  1  0  0  0
 13 14  1  0  0  0
 13 18  1  0  0  0
 14 15  2  0  0  0
 15 16  1  0  0  0
 16 17  2  0  0  0
 16 37  1  0  0  0
 18 19  1  0  0  0
 18 38  1  0  0  0
 18 39  1  0  0  0
 19 20  1  0  0  0
 19 27  1  0  0  0
 19 40  1  0  0  0
 20 25  1  0  0  0
 20 21  2  0  0  0
 21 22  1  0  0  0
 21 41  1  0  0  0
 22 23  2  0  0  0
 22 42  1  0  0  0
 23 24  1  0  0  0
 23 26  1  0  0  0
 24 25  2  0  0  0
 24 43  1  0  0  0
 25 44  1  0  0  0
M  END
> <s_m_entry_id>
6547

> <s_m_entry_name>
ligand_docking-pose.58

> <s_m_Source_Path>
/home/csk/Desktop/cluster/DUD-E-result/abl1

> <s_m_Source_File>
ligand_docking-pose.sdf

> <i_m_Source_File_Index>
58

> <i_lp_mmshare_version>
53161

> <r_lp_tautomer_probability>
1

> <s_lp_Force_Field>
OPLS_2005

> <r_lp_Energy>
10.274692

> <b_lp_Chiralities_Consistent>
1

> <s_lp_Variant>
442228-2

> <s_i_glide_gridfile>
glide-grid_2hzi

> <i_i_glide_lignum>
61

> <i_i_glide_rotatable_bonds>
6

> <r_i_docking_score>
-8.61218285608593

> <r_i_glide_ligand_efficiency>
-0.307577959145926

> <r_i_glide_ligand_efficiency_sa>
-0.93398783769713

> <r_i_glide_ligand_efficiency_ln>
-1.98794466786094

> <r_i_glide_gscore>
-8.61218285608593

> <r_i_glide_lipo>
-4.71512632002488

> <r_i_glide_hbond>
-0.0447880776215143

> <r_i_glide_metal>
0

> <r_i_glide_rewards>
-2.40733442786432

> <r_i_glide_evdw>
-39.6035232543945

> <r_i_glide_ecoul>
-1.27778577804565

> <r_i_glide_erotb>
0.735582315060544

> <r_i_glide_esite>
-0.00867231620918431

> <r_i_glide_emodel>
-34.4248205068762

> <r_i_glide_energy>
-40.8813090324402

> <r_i_glide_einternal>
25.6284255981445

> <i_i_glide_confnum>
38

> <i_i_glide_posenum>
182

> <r_i_glide_eff_state_penalty>
0

> <i_f3d_flags>
0

> <s_user_duplicate_titles>
442228

> <s_m_subgroup_title>
dock_pv

> <s_m_subgroupid>
dock_pv1

> <b_m_subgroup_collapsed>
0

$$$$
436606
                    3D
 Schrodinger Suite 2021-1.
 35 37  0  0  1  0            999 V2000
   21.7514   18.0665    3.7191 C   0  0  0  0  0  0
   22.6213   17.9865    4.8043 C   0  0  0  0  0  0
   22.3543   17.1045    5.8473 C   0  0  0  0  0  0
   21.2043   16.3143    5.8283 C   0  0  0  0  0  0
   20.2944   16.4193    4.7543 C   0  0  0  0  0  0
   20.5971   17.2844    3.6902 C   0  0  0  0  0  0
   19.0255   15.6102    4.7139 C   0  0  0  0  0  0
   18.2426   15.6481    5.6653 O   0  0  0  0  0  0
   18.8576   14.8576    3.6041 N   0  0  0  0  0  0
   17.7814   14.0102    3.3837 C   0  0  0  0  0  0
   17.9284   12.8236    2.8576 N   0  0  0  0  0  0
   16.7299   12.1235    2.7901 N   0  0  0  0  0  0
   15.6912   12.8086    3.2034 C   0  0  0  0  0  0
   16.1102   14.4334    3.6831 S   0  0  0  0  0  0
   14.1079   12.0696    3.4843 S   0  0  0  0  0  0
   12.9424   13.4252    3.1457 C   0  0  0  0  0  0
   11.7506   13.4347    4.0914 C   0  0  0  0  0  0
   11.9542   13.6335    5.4595 C   0  0  0  0  0  0
   10.8667   13.6329    6.3321 C   0  0  0  0  0  0
    9.5776   13.4747    5.8345 C   0  0  0  0  0  0
    9.3668   13.2768    4.4731 C   0  0  0  0  0  0
   10.4530   13.2416    3.6033 C   0  0  0  0  0  0
    8.5268   13.4982    6.6806 F   0  0  0  0  0  0
   20.9641   15.2250    7.1562 Cl  0  0  0  0  0  0
   21.9723   18.7384    2.8991 H   0  0  0  0  0  0
   23.5114   18.5964    4.8321 H   0  0  0  0  0  0
   23.0455   17.0311    6.6736 H   0  0  0  0  0  0
   19.9311   17.3724    2.8428 H   0  0  0  0  0  0
   19.6763   14.7052    3.0272 H   0  0  0  0  0  0
   13.4121   14.4038    3.1972 H   0  0  0  0  0  0
   12.6030   13.2445    2.1262 H   0  0  0  0  0  0
   12.9562   13.7747    5.8443 H   0  0  0  0  0  0
   11.0141   13.7658    7.3937 H   0  0  0  0  0  0
    8.3675   13.1337    4.0971 H   0  0  0  0  0  0
   10.2745   13.0607    2.5531 H   0  0  0  0  0  0
  1  6  1  0  0  0
  1  2  2  0  0  0
  1 25  1  0  0  0
  2  3  1  0  0  0
  2 26  1  0  0  0
  3  4  2  0  0  0
  3 27  1  0  0  0
  4  5  1  0  0  0
  4 24  1  0  0  0
  5  6  2  0  0  0
  5  7  1  0  0  0
  6 28  1  0  0  0
  7  8  2  0  0  0
  7  9  1  0  0  0
  9 10  1  0  0  0
  9 29  1  0  0  0
 10 14  1  0  0  0
 10 11  2  0  0  0
 11 12  1  0  0  0
 12 13  2  0  0  0
 13 14  1  0  0  0
 13 15  1  0  0  0
 15 16  1  0  0  0
 16 17  1  0  0  0
 16 30  1  0  0  0
 16 31  1  0  0  0
 17 22  1  0  0  0
 17 18  2  0  0  0
 18 19  1  0  0  0
 18 32  1  0  0  0
 19 20  2  0  0  0
 19 33  1  0  0  0
 20 21  1  0  0  0
 20 23  1  0  0  0
 21 22  2  0  0  0
 21 34  1  0  0  0
 22 35  1  0  0  0
M  END
> <s_m_entry_id>
6549

> <s_m_entry_name>
ligand_docking-pose.60

> <s_m_Source_Path>
/home/csk/Desktop/cluster/DUD-E-result/abl1

> <s_m_Source_File>
ligand_docking-pose.sdf

> <i_m_Source_File_Index>
60

> <i_lp_mmshare_version>
53161

> <r_lp_tautomer_probability>
1

> <s_lp_Force_Field>
OPLS_2005

> <r_lp_Energy>
16.309619

> <b_lp_Chiralities_Consistent>
1

> <s_lp_Variant>
436606-1

> <s_i_glide_gridfile>
glide-grid_2hzi

> <i_i_glide_lignum>
76

> <i_i_glide_rotatable_bonds>
6

> <r_i_docking_score>
-8.5587217282466

> <r_i_glide_ligand_efficiency>
-0.356613405343608

> <r_i_glide_ligand_efficiency_sa>
-1.02865106015566

> <r_i_glide_ligand_efficiency_ln>
-2.04849484371862

> <r_i_glide_gscore>
-8.5587217282466

> <r_i_glide_lipo>
-4.56495060395414

> <r_i_glide_hbond>
-0.226295640095288

> <r_i_glide_metal>
0

> <r_i_glide_rewards>
-1.44609628752986

> <r_i_glide_evdw>
-48.4398422241211

> <r_i_glide_ecoul>
-4.70557355880737

> <r_i_glide_erotb>
0.806448948359858

> <r_i_glide_esite>
0

> <r_i_glide_emodel>
-73.9031341976766

> <r_i_glide_energy>
-53.1454157829285

> <r_i_glide_einternal>
7.21860694885254

> <i_i_glide_confnum>
51

> <i_i_glide_posenum>
145

> <r_i_glide_eff_state_penalty>
0

> <i_f3d_flags>
0

> <s_user_duplicate_titles>
436606

> <s_m_subgroup_title>
dock_pv

> <s_m_subgroupid>
dock_pv1

> <b_m_subgroup_collapsed>
0

$$$$
442363
                    3D
 Schrodinger Suite 2021-1.
 44 47  0  0  1  0            999 V2000
   21.7583   15.7663    6.3592 C   0  0  0  0  0  0
   20.7660   15.9083    5.4043 C   0  0  0  0  0  0
   20.8103   16.9662    4.4802 C   0  0  0  0  0  0
   21.8485   17.8996    4.5545 C   0  0  0  0  0  0
   22.8444   17.7476    5.5138 C   0  0  0  0  0  0
   22.7959   16.6856    6.4023 C   0  0  0  0  0  0
   24.1632   18.8408    5.6012 Cl  0  0  0  0  0  0
   19.7568   17.1410    3.3994 C   0  0  0  0  0  0
   19.0108   15.9149    3.1501 N   0  0  0  0  0  0
   17.8537   15.5776    3.8623 C   0  0  0  0  0  0
   17.1842   14.3888    3.5481 C   0  0  0  0  0  0
   17.3991   13.1992    2.8025 C   0  0  0  0  0  0
   16.3510   12.4175    2.8301 N   0  0  0  0  0  0
   15.4272   13.0307    3.6035 N   0  0  0  0  0  0
   15.9085   14.2276    4.1096 C   0  0  0  0  0  0
   15.3382   15.0511    4.9987 N   0  0  0  0  0  0
   16.1498   16.0813    5.3549 C   0  0  0  0  0  0
   17.3638   16.4004    4.8309 N   0  0  0  0  0  0
   14.2291   12.3028    4.0329 C   0  0  0  0  0  0
   12.9948   12.2249    3.1328 C   0  0  1  0  0  0
   11.6791   12.9132    3.5022 C   0  0  0  0  0  0
   11.5816   13.9477    4.4389 C   0  0  0  0  0  0
   10.3309   14.4347    4.7988 C   0  0  0  0  0  0
    9.1872   13.9396    4.1849 C   0  0  0  0  0  0
    9.2733   12.9475    3.2203 C   0  0  0  0  0  0
   10.5144   12.4319    2.8857 C   0  0  0  0  0  0
    7.9821   14.4343    4.5266 F   0  0  0  0  0  0
   13.4910   12.7575    1.6030 Cl  0  0  0  0  0  0
   21.7312   14.9375    7.0500 H   0  0  0  0  0  0
   19.9790   15.1702    5.3899 H   0  0  0  0  0  0
   21.8994   18.7209    3.8558 H   0  0  0  0  0  0
   23.5769   16.5710    7.1379 H   0  0  0  0  0  0
   20.2441   17.4339    2.4689 H   0  0  0  0  0  0
   19.0865   17.9598    3.6749 H   0  0  0  0  0  0
   19.3908   15.2637    2.4739 H   0  0  0  0  0  0
   18.2786   12.9078    2.2474 H   0  0  0  0  0  0
   15.7652   16.7503    6.1087 H   0  0  0  0  0  0
   13.8732   12.8897    4.8205 H   0  0  0  0  0  0
   14.5267   11.3199    4.4028 H   0  0  0  0  0  0
   12.7251   11.1874    3.0230 H   0  0  0  0  0  0
   12.4458   14.3749    4.9221 H   0  0  0  0  0  0
   10.2444   15.2007    5.5500 H   0  0  0  0  0  0
    8.3864   12.5592    2.7479 H   0  0  0  0  0  0
   10.5595   11.6387    2.1496 H   0  0  0  0  0  0
  1  6  1  0  0  0
  1  2  2  0  0  0
  1 29  1  0  0  0
  2  3  1  0  0  0
  2 30  1  0  0  0
  3  4  2  0  0  0
  3  8  1  0  0  0
  4  5  1  0  0  0
  4 31  1  0  0  0
  5  6  2  0  0  0
  5  7  1  0  0  0
  6 32  1  0  0  0
  8  9  1  0  0  0
  8 33  1  0  0  0
  8 34  1  0  0  0
  9 10  1  0  0  0
  9 35  1  0  0  0
 10 18  1  0  0  0
 10 11  2  0  0  0
 11 15  1  0  0  0
 11 12  1  0  0  0
 12 13  2  0  0  0
 12 36  1  0  0  0
 13 14  1  0  0  0
 14 15  1  0  0  0
 14 19  1  0  0  0
 15 16  2  0  0  0
 16 17  1  0  0  0
 17 18  2  0  0  0
 17 37  1  0  0  0
 19 20  1  0  0  0
 19 38  1  0  0  0
 19 39  1  0  0  0
 20 21  1  0  0  0
 20 28  1  0  0  0
 20 40  1  0  0  0
 21 26  1  0  0  0
 21 22  2  0  0  0
 22 23  1  0  0  0
 22 41  1  0  0  0
 23 24  2  0  0  0
 23 42  1  0  0  0
 24 25  1  0  0  0
 24 27  1  0  0  0
 25 26  2  0  0  0
 25 43  1  0  0  0
 26 44  1  0  0  0
M  END
> <s_m_entry_id>
6550

> <s_m_entry_name>
ligand_docking-pose.61

> <s_m_Source_Path>
/home/csk/Desktop/cluster/DUD-E-result/abl1

> <s_m_Source_File>
ligand_docking-pose.sdf

> <i_m_Source_File_Index>
61

> <i_lp_mmshare_version>
53161

> <r_lp_tautomer_probability>
1

> <s_lp_Force_Field>
OPLS_2005

> <r_lp_Energy>
10.055525

> <b_lp_Chiralities_Consistent>
1

> <s_lp_Variant>
442363-1

> <s_i_glide_gridfile>
glide-grid_2hzi

> <i_i_glide_lignum>
42

> <i_i_glide_rotatable_bonds>
6

> <r_i_docking_score>
-8.54908717472442

> <r_i_glide_ligand_efficiency>
-0.305324541954444

> <r_i_glide_ligand_efficiency_sa>
-0.927145135912039

> <r_i_glide_ligand_efficiency_ln>
-1.973380332033

> <r_i_glide_gscore>
-8.54908717472442

> <r_i_glide_lipo>
-3.98948287362241

> <r_i_glide_hbond>
-0.23292520246781

> <r_i_glide_metal>
0

> <r_i_glide_rewards>
-2.89597733096593

> <r_i_glide_evdw>
-31.8544960021973

> <r_i_glide_ecoul>
-3.47977828979492

> <r_i_glide_erotb>
0.683989775910835

> <r_i_glide_esite>
0

> <r_i_glide_emodel>
-39.8374936510732

> <r_i_glide_energy>
-35.3342742919922

> <r_i_glide_einternal>
10.4209098815918

> <i_i_glide_confnum>
8

> <i_i_glide_posenum>
237

> <r_i_glide_eff_state_penalty>
0

> <i_f3d_flags>
0

> <s_user_duplicate_titles>
442363

> <s_m_subgroup_title>
dock_pv

> <s_m_subgroupid>
dock_pv1

> <b_m_subgroup_collapsed>
0

$$$$
281827
                    3D
 Schrodinger Suite 2021-1.
 43 46  0  0  1  0            999 V2000
    9.7012   14.4168    6.8841 C   0  0  0  0  0  0
    9.4219   13.9293    5.5817 O   0  0  0  0  0  0
   10.4467   13.6416    4.7035 C   0  0  0  0  0  0
   10.0802   12.8368    3.6284 C   0  0  0  0  0  0
   11.0286   12.4320    2.7080 C   0  0  0  0  0  0
   12.3361   12.8945    2.8097 C   0  0  0  0  0  0
   12.7664   13.7007    3.8699 C   0  0  0  0  0  0
   11.7883   14.0722    4.8110 C   0  0  0  0  0  0
   14.2145   14.1553    4.0230 C   0  0  0  0  0  0
   14.6474   15.2972    4.6862 C   0  0  0  0  0  0
   16.0231   15.4606    4.6474 N   0  0  0  0  0  0
   16.5461   14.3931    3.9453 C   0  0  0  0  0  0
   15.4576   13.5875    3.5116 C   0  0  0  0  0  0
   15.8699   12.4792    2.7552 C   0  0  0  0  0  0
   17.1566   12.1729    2.4967 N   0  0  0  0  0  0
   18.0784   13.0150    2.9991 C   0  0  0  0  0  0
   17.8435   14.1427    3.7019 N   0  0  0  0  0  0
   14.9354   11.6342    2.2407 N   0  0  0  0  0  0
   16.7717   16.5756    5.2616 C   0  0  0  0  0  0
   17.2780   16.2274    6.6531 C   0  0  0  0  0  0
   18.6629   15.6087    6.4163 C   0  0  0  0  0  0
   19.2536   16.4074    5.2491 C   0  0  0  0  0  0
   18.0520   17.0158    4.5006 C   0  0  0  0  0  0
    8.8742   14.1487    7.5420 H   0  0  0  0  0  0
   10.6047   13.9834    7.3157 H   0  0  0  0  0  0
    9.7633   15.5024    6.8790 H   0  0  0  0  0  0
    9.0586   12.4991    3.5290 H   0  0  0  0  0  0
   10.7339   11.8218    1.8655 H   0  0  0  0  0  0
   12.9429   12.7294    1.9445 H   0  0  0  0  0  0
   12.0855   14.7325    5.6018 H   0  0  0  0  0  0
   14.0531   16.0329    5.2035 H   0  0  0  0  0  0
   19.1132   12.7746    2.8000 H   0  0  0  0  0  0
   13.9879   11.7856    2.5534 H   0  0  0  0  0  0
   15.1081   10.7901    1.7200 H   0  0  0  0  0  0
   16.0149   17.3597    5.2917 H   0  0  0  0  0  0
   17.3662   17.1658    7.2025 H   0  0  0  0  0  0
   16.5969   15.5801    7.2068 H   0  0  0  0  0  0
   19.3078   15.6321    7.2892 H   0  0  0  0  0  0
   18.5689   14.5558    6.1529 H   0  0  0  0  0  0
   19.9080   17.1962    5.6219 H   0  0  0  0  0  0
   19.8621   15.7749    4.6003 H   0  0  0  0  0  0
   18.0325   16.7555    3.4414 H   0  0  0  0  0  0
   18.1622   18.0957    4.5273 H   0  0  0  0  0  0
  1  2  1  0  0  0
  1 24  1  0  0  0
  1 25  1  0  0  0
  1 26  1  0  0  0
  2  3  1  0  0  0
  3  8  1  0  0  0
  3  4  2  0  0  0
  4  5  1  0  0  0
  4 27  1  0  0  0
  5  6  2  0  0  0
  5 28  1  0  0  0
  6  7  1  0  0  0
  6 29  1  0  0  0
  7  8  2  0  0  0
  7  9  1  0  0  0
  8 30  1  0  0  0
  9 13  1  0  0  0
  9 10  2  0  0  0
 10 11  1  0  0  0
 10 31  1  0  0  0
 11 12  1  0  0  0
 11 19  1  0  0  0
 12 17  1  0  0  0
 12 13  2  0  0  0
 13 14  1  0  0  0
 14 15  2  0  0  0
 14 18  1  0  0  0
 15 16  1  0  0  0
 16 17  2  0  0  0
 16 32  1  0  0  0
 18 33  1  0  0  0
 18 34  1  0  0  0
 19 23  1  0  0  0
 19 20  1  0  0  0
 19 35  1  0  0  0
 20 21  1  0  0  0
 20 36  1  0  0  0
 20 37  1  0  0  0
 21 22  1  0  0  0
 21 38  1  0  0  0
 21 39  1  0  0  0
 22 23  1  0  0  0
 22 40  1  0  0  0
 22 41  1  0  0  0
 23 42  1  0  0  0
 23 43  1  0  0  0
M  END
> <s_m_entry_id>
6551

> <s_m_entry_name>
ligand_docking-pose.62

> <s_m_Source_Path>
/home/csk/Desktop/cluster/DUD-E-result/abl1

> <s_m_Source_File>
ligand_docking-pose.sdf

> <i_m_Source_File_Index>
62

> <i_lp_mmshare_version>
53161

> <r_lp_tautomer_probability>
1

> <s_lp_Force_Field>
OPLS_2005

> <r_lp_Energy>
37.593515

> <b_lp_Chiralities_Consistent>
1

> <s_lp_Variant>
281827-1

> <s_i_glide_gridfile>
glide-grid_2hzi

> <i_i_glide_lignum>
464

> <i_i_glide_rotatable_bonds>
3

> <r_i_docking_score>
-8.53203098245719

> <r_i_glide_ligand_efficiency>
-0.370957868802487

> <r_i_glide_ligand_efficiency_sa>
-1.0549548329009

> <r_i_glide_ligand_efficiency_ln>
-2.06312245573779

> <r_i_glide_gscore>
-8.53203098245719

> <r_i_glide_lipo>
-3.75579977148267

> <r_i_glide_hbond>
-0.328039747232609

> <r_i_glide_metal>
0

> <r_i_glide_rewards>
-3.29356057397674

> <r_i_glide_evdw>
-24.614086151123

> <r_i_glide_ecoul>
-1.77075088024139

> <r_i_glide_erotb>
0.389091141608647

> <r_i_glide_esite>
-0.0474050917814547

> <r_i_glide_emodel>
-30.0148166027612

> <r_i_glide_energy>
-26.3848370313644

> <r_i_glide_einternal>
7.47816038131714

> <i_i_glide_confnum>
63

> <i_i_glide_posenum>
189

> <r_i_glide_eff_state_penalty>
0

> <i_f3d_flags>
0

> <s_user_duplicate_titles>
281827

> <s_m_subgroup_title>
dock_pv

> <s_m_subgroupid>
dock_pv1

> <b_m_subgroup_collapsed>
0

$$$$
489585
                    3D
 Schrodinger Suite 2021-1.
 32 34  0  0  1  0            999 V2000
   21.7402   18.3838    3.8850 C   0  0  0  0  0  0
   22.3615   18.1331    5.1057 C   0  0  0  0  0  0
   21.9747   17.0311    5.8648 C   0  0  0  0  0  0
   20.9642   16.1796    5.4132 C   0  0  0  0  0  0
   20.3329   16.4217    4.1800 C   0  0  0  0  0  0
   20.7302   17.5349    3.4265 C   0  0  0  0  0  0
   19.3000   15.4508    3.5952 C   0  0  0  0  0  0
   17.9084   15.4758    4.2137 C   0  0  0  0  0  0
   17.3636   16.1989    5.2816 C   0  0  0  0  0  0
   16.0943   15.9980    5.5902 N   0  0  0  0  0  0
   15.5316   15.1159    4.8030 C   0  0  0  0  0  0
   16.6191   14.4600    3.6030 S   0  0  0  0  0  0
   14.1978   14.7423    4.9865 N   0  0  0  0  0  0
   13.4413   13.9038    4.2364 C   0  0  0  0  0  0
   13.8043   13.3421    3.2030 O   0  0  0  0  0  0
   12.0842   13.7709    4.7164 C   0  0  0  0  0  0
   11.6303   13.6330    6.0293 C   0  0  0  0  0  0
   10.2346   13.6227    6.1394 C   0  0  0  0  0  0
    9.6065   13.6152    4.9056 C   0  0  0  0  0  0
   10.7480   13.6330    3.6030 S   0  0  0  0  0  0
   20.5319   14.8330    6.4030 Cl  0  0  0  0  0  0
   22.0481   19.2314    3.2899 H   0  0  0  0  0  0
   23.1448   18.7881    5.4610 H   0  0  0  0  0  0
   22.4705   16.8324    6.8030 H   0  0  0  0  0  0
   20.2743   17.7309    2.4666 H   0  0  0  0  0  0
   19.7165   14.4449    3.6609 H   0  0  0  0  0  0
   19.2227   15.6330    2.5224 H   0  0  0  0  0  0
   17.9219   16.9112    5.8709 H   0  0  0  0  0  0
   13.7427   15.1692    5.7790 H   0  0  0  0  0  0
   12.2752   13.6249    6.8954 H   0  0  0  0  0  0
    9.7060   13.5897    7.0818 H   0  0  0  0  0  0
    8.5461   13.5676    4.7032 H   0  0  0  0  0  0
  1  6  1  0  0  0
  1  2  2  0  0  0
  1 22  1  0  0  0
  2  3  1  0  0  0
  2 23  1  0  0  0
  3  4  2  0  0  0
  3 24  1  0  0  0
  4  5  1  0  0  0
  4 21  1  0  0  0
  5  6  2  0  0  0
  5  7  1  0  0  0
  6 25  1  0  0  0
  7  8  1  0  0  0
  7 26  1  0  0  0
  7 27  1  0  0  0
  8 12  1  0  0  0
  8  9  2  0  0  0
  9 10  1  0  0  0
  9 28  1  0  0  0
 10 11  2  0  0  0
 11 12  1  0  0  0
 11 13  1  0  0  0
 13 14  1  0  0  0
 13 29  1  0  0  0
 14 15  2  0  0  0
 14 16  1  0  0  0
 16 20  1  0  0  0
 16 17  2  0  0  0
 17 18  1  0  0  0
 17 30  1  0  0  0
 18 19  2  0  0  0
 18 31  1  0  0  0
 19 20  1  0  0  0
 19 32  1  0  0  0
M  END
> <s_m_entry_id>
6552

> <s_m_entry_name>
ligand_docking-pose.63

> <s_m_Source_Path>
/home/csk/Desktop/cluster/DUD-E-result/abl1

> <s_m_Source_File>
ligand_docking-pose.sdf

> <i_m_Source_File_Index>
63

> <i_lp_mmshare_version>
53161

> <r_lp_tautomer_probability>
0.999000488399163

> <s_lp_Force_Field>
OPLS_2005

> <r_lp_Energy>
11.041722

> <b_lp_Chiralities_Consistent>
1

> <s_lp_Variant>
489585-1

> <s_i_glide_gridfile>
glide-grid_2hzi

> <i_i_glide_lignum>
25

> <i_i_glide_rotatable_bonds>
5

> <r_i_docking_score>
-8.5151268534279

> <r_i_glide_ligand_efficiency>
-0.405482231115614

> <r_i_glide_ligand_efficiency_sa>
-1.11869472938253

> <r_i_glide_ligand_efficiency_ln>
-2.10534790807611

> <r_i_glide_gscore>
-8.5151268534279

> <r_i_glide_lipo>
-4.55854550864786

> <r_i_glide_hbond>
0

> <r_i_glide_metal>
0

> <r_i_glide_rewards>
-2.24478043744212

> <r_i_glide_evdw>
-46.5894889831543

> <r_i_glide_ecoul>
-1.49092209339142

> <r_i_glide_erotb>
0.841311855828505

> <r_i_glide_esite>
0

> <r_i_glide_emodel>
-68.6611103321261

> <r_i_glide_energy>
-48.0804110765457

> <r_i_glide_einternal>
4.46203899383545

> <i_i_glide_confnum>
45

> <i_i_glide_posenum>
301

> <r_i_glide_eff_state_penalty>
0

> <i_f3d_flags>
0

> <s_user_duplicate_titles>
489585

> <s_m_subgroup_title>
dock_pv

> <s_m_subgroupid>
dock_pv1

> <b_m_subgroup_collapsed>
0

$$$$
489658
                    3D
 Schrodinger Suite 2021-1.
 32 34  0  0  1  0            999 V2000
   12.1289   13.8312    4.6674 C   0  0  0  0  0  0
   13.4770   13.6111    4.3819 C   0  0  0  0  0  0
   13.8567   12.8461    3.2679 C   0  0  0  0  0  0
   12.8537   12.2599    2.4898 C   0  0  0  0  0  0
   11.5071   12.4330    2.8030 C   0  0  0  0  0  0
   11.1418   13.2503    3.8716 C   0  0  0  0  0  0
   10.2968   11.6330    1.8671 Cl  0  0  0  0  0  0
   15.3206   12.5502    2.9173 C   0  0  0  0  0  0
   16.3733   13.5887    3.2657 C   0  0  0  0  0  0
   16.2649   14.9140    3.6890 C   0  0  0  0  0  0
   17.3640   15.5629    4.0032 N   0  0  0  0  0  0
   18.4165   14.8219    3.8077 C   0  0  0  0  0  0
   18.0918   13.2330    3.2030 S   0  0  0  0  0  0
   19.6977   15.2907    3.9910 N   0  0  0  0  0  0
   20.1726   15.6287    5.2075 C   0  0  0  0  0  0
   19.7137   15.2123    6.2751 O   0  0  0  0  0  0
   21.2600   16.5714    5.1978 C   0  0  0  0  0  0
   22.2153   16.7443    6.1941 C   0  0  0  0  0  0
   23.0121   17.8773    6.0030 C   0  0  0  0  0  0
   22.6651   18.5931    4.8688 C   0  0  0  0  0  0
   21.3640   17.8492    4.0040 S   0  0  0  0  0  0
   11.8511   14.4254    5.5247 H   0  0  0  0  0  0
   14.2164   14.0202    5.0531 H   0  0  0  0  0  0
   13.1176   11.6330    1.6503 H   0  0  0  0  0  0
   10.0982   13.3961    4.1092 H   0  0  0  0  0  0
   15.3902   12.3052    1.8565 H   0  0  0  0  0  0
   15.5658   11.6330    3.4439 H   0  0  0  0  0  0
   15.3339   15.4497    3.7932 H   0  0  0  0  0  0
   20.2571   15.4635    3.1657 H   0  0  0  0  0  0
   22.3185   16.0860    7.0450 H   0  0  0  0  0  0
   23.8005   18.1728    6.6808 H   0  0  0  0  0  0
   23.1020   19.5163    4.5155 H   0  0  0  0  0  0
  1  6  1  0  0  0
  1  2  2  0  0  0
  1 22  1  0  0  0
  2  3  1  0  0  0
  2 23  1  0  0  0
  3  4  2  0  0  0
  3  8  1  0  0  0
  4  5  1  0  0  0
  4 24  1  0  0  0
  5  6  2  0  0  0
  5  7  1  0  0  0
  6 25  1  0  0  0
  8  9  1  0  0  0
  8 26  1  0  0  0
  8 27  1  0  0  0
  9 13  1  0  0  0
  9 10  2  0  0  0
 10 11  1  0  0  0
 10 28  1  0  0  0
 11 12  2  0  0  0
 12 13  1  0  0  0
 12 14  1  0  0  0
 14 15  1  0  0  0
 14 29  1  0  0  0
 15 16  2  0  0  0
 15 17  1  0  0  0
 17 21  1  0  0  0
 17 18  2  0  0  0
 18 19  1  0  0  0
 18 30  1  0  0  0
 19 20  2  0  0  0
 19 31  1  0  0  0
 20 21  1  0  0  0
 20 32  1  0  0  0
M  END
> <s_m_entry_id>
6554

> <s_m_entry_name>
ligand_docking-pose.65

> <s_m_Source_Path>
/home/csk/Desktop/cluster/DUD-E-result/abl1

> <s_m_Source_File>
ligand_docking-pose.sdf

> <i_m_Source_File_Index>
65

> <i_lp_mmshare_version>
53161

> <r_lp_tautomer_probability>
0.999000488399163

> <s_lp_Force_Field>
OPLS_2005

> <r_lp_Energy>
9.915172

> <b_lp_Chiralities_Consistent>
1

> <s_lp_Variant>
489658-1

> <s_i_glide_gridfile>
glide-grid_2hzi

> <i_i_glide_lignum>
39

> <i_i_glide_rotatable_bonds>
5

> <r_i_docking_score>
-8.41186814813092

> <r_i_glide_ligand_efficiency>
-0.400565149910996

> <r_i_glide_ligand_efficiency_sa>
-1.10512887518365

> <r_i_glide_ligand_efficiency_ln>
-2.07981740184529

> <r_i_glide_gscore>
-8.41186814813092

> <r_i_glide_lipo>
-4.46109311388329

> <r_i_glide_hbond>
-0.101187679347282

> <r_i_glide_metal>
0

> <r_i_glide_rewards>
-2.02318733290597

> <r_i_glide_evdw>
-45.2263031005859

> <r_i_glide_ecoul>
-2.70931148529053

> <r_i_glide_erotb>
0.841311855828505

> <r_i_glide_esite>
0

> <r_i_glide_emodel>
-63.6386316108956

> <r_i_glide_energy>
-47.9356145858765

> <r_i_glide_einternal>
12.7596569061279

> <i_i_glide_confnum>
11

> <i_i_glide_posenum>
325

> <r_i_glide_eff_state_penalty>
0

> <i_f3d_flags>
0

> <s_user_duplicate_titles>
489658

> <s_m_subgroup_title>
dock_pv

> <s_m_subgroupid>
dock_pv1

> <b_m_subgroup_collapsed>
0

$$$$
60597
                    3D
 Schrodinger Suite 2021-1.
 37 39  0  0  1  0            999 V2000
   16.7211   17.1423    6.4036 C   0  0  0  0  0  0
   17.5093   16.1789    5.5086 C   0  0  0  0  0  0
   18.3611   16.9983    4.5029 C   0  0  0  0  0  0
   18.4709   15.3421    6.3862 C   0  0  0  0  0  0
   16.5823   15.2685    4.7817 N   0  0  0  0  0  0
   16.9384   14.2630    3.9181 C   0  0  0  0  0  0
   15.7549   13.5702    3.5978 C   0  0  0  0  0  0
   14.7024   14.2546    4.2832 C   0  0  0  0  0  0
   15.2304   15.2417    4.9852 N   0  0  0  0  0  0
   13.2324   13.9165    4.3214 C   0  0  0  0  0  0
   12.5324   13.4376    3.2056 C   0  0  0  0  0  0
   11.1615   13.1875    3.2776 C   0  0  0  0  0  0
   10.4729   13.4264    4.4605 C   0  0  0  0  0  0
   11.1670   13.8042    5.6019 C   0  0  0  0  0  0
   12.5397   14.0336    5.5276 C   0  0  0  0  0  0
    8.7604   13.2329    4.5199 Cl  0  0  0  0  0  0
   15.9410   12.4350    2.8028 C   0  0  0  0  0  0
   17.1632   12.0331    2.4033 N   0  0  0  0  0  0
   18.2029   12.7992    2.8031 C   0  0  0  0  0  0
   18.1701   13.9294    3.5336 N   0  0  0  0  0  0
   14.8766   11.6388    2.4619 N   0  0  0  0  0  0
   16.2029   16.6119    7.2025 H   0  0  0  0  0  0
   17.3648   17.8971    6.8562 H   0  0  0  0  0  0
   15.9525   17.6330    5.8116 H   0  0  0  0  0  0
   18.9861   16.3676    3.8713 H   0  0  0  0  0  0
   17.7642   17.6151    3.8408 H   0  0  0  0  0  0
   19.0382   17.6756    5.0251 H   0  0  0  0  0  0
   18.9985   14.5649    5.8356 H   0  0  0  0  0  0
   19.2503   15.9717    6.8034 H   0  0  0  0  0  0
   17.9518   14.8513    7.2033 H   0  0  0  0  0  0
   13.0155   13.2930    2.2549 H   0  0  0  0  0  0
   10.6258   12.8327    2.4089 H   0  0  0  0  0  0
   10.6423   13.9582    6.5336 H   0  0  0  0  0  0
   13.0548   14.3985    6.4030 H   0  0  0  0  0  0
   19.1893   12.4667    2.5358 H   0  0  0  0  0  0
   13.9771   11.8662    2.8573 H   0  0  0  0  0  0
   14.9633   10.7713    1.9501 H   0  0  0  0  0  0
  1  2  1  0  0  0
  1 22  1  0  0  0
  1 23  1  0  0  0
  1 24  1  0  0  0
  2  3  1  0  0  0
  2  4  1  0  0  0
  2  5  1  0  0  0
  3 25  1  0  0  0
  3 26  1  0  0  0
  3 27  1  0  0  0
  4 28  1  0  0  0
  4 29  1  0  0  0
  4 30  1  0  0  0
  5  9  1  0  0  0
  5  6  1  0  0  0
  6 20  2  0  0  0
  6  7  1  0  0  0
  7  8  1  0  0  0
  7 17  2  0  0  0
  8  9  2  0  0  0
  8 10  1  0  0  0
 10 15  1  0  0  0
 10 11  2  0  0  0
 11 12  1  0  0  0
 11 31  1  0  0  0
 12 13  2  0  0  0
 12 32  1  0  0  0
 13 14  1  0  0  0
 13 16  1  0  0  0
 14 15  2  0  0  0
 14 33  1  0  0  0
 15 34  1  0  0  0
 17 18  1  0  0  0
 17 21  1  0  0  0
 18 19  2  0  0  0
 19 20  1  0  0  0
 19 35  1  0  0  0
 21 36  1  0  0  0
 21 37  1  0  0  0
M  END
> <s_m_entry_id>
6555

> <s_m_entry_name>
ligand_docking-pose.66

> <s_m_Source_Path>
/home/csk/Desktop/cluster/DUD-E-result/abl1

> <s_m_Source_File>
ligand_docking-pose.sdf

> <i_m_Source_File_Index>
66

> <i_lp_mmshare_version>
53161

> <r_lp_tautomer_probability>
1

> <s_lp_Force_Field>
OPLS_2005

> <r_lp_Energy>
18.384559

> <b_lp_Chiralities_Consistent>
1

> <s_lp_Variant>
60597-1

> <s_i_glide_gridfile>
glide-grid_2hzi

> <i_i_glide_lignum>
284

> <i_i_glide_rotatable_bonds>
2

> <r_i_docking_score>
-8.37452997692858

> <r_i_glide_ligand_efficiency>
-0.398787141758504

> <r_i_glide_ligand_efficiency_sa>
-1.10022348551091

> <r_i_glide_ligand_efficiency_ln>
-2.07058561446439

> <r_i_glide_gscore>
-8.37452997692858

> <r_i_glide_lipo>
-3.44074238042971

> <r_i_glide_hbond>
-0.458557098406373

> <r_i_glide_metal>
0

> <r_i_glide_rewards>
-3.06443418490847

> <r_i_glide_evdw>
-19.3047180175781

> <r_i_glide_ecoul>
-3.62479686737061

> <r_i_glide_erotb>
0.141449407071097

> <r_i_glide_esite>
-0.043290289270629

> <r_i_glide_emodel>
-23.4154152821073

> <r_i_glide_energy>
-22.9295148849487

> <r_i_glide_einternal>
1.45800018310547

> <i_i_glide_confnum>
2

> <i_i_glide_posenum>
290

> <r_i_glide_eff_state_penalty>
0

> <i_f3d_flags>
0

> <s_user_duplicate_titles>
60597

> <s_m_subgroup_title>
dock_pv

> <s_m_subgroupid>
dock_pv1

> <b_m_subgroup_collapsed>
0

$$$$
489666
                    3D
 Schrodinger Suite 2021-1.
 32 34  0  0  1  0            999 V2000
   10.9595   11.4357    2.0012 C   0  0  0  0  0  0
   12.1459   12.0331    2.4368 C   0  0  0  0  0  0
   11.9391   13.0934    3.3301 C   0  0  0  0  0  0
   10.2262   13.3404    3.6031 S   0  0  0  0  0  0
    9.8290   12.0330    2.5371 C   0  0  0  0  0  0
   12.9147   13.9308    3.9952 C   0  0  0  0  0  0
   12.5692   14.7937    4.8029 O   0  0  0  0  0  0
   14.1862   13.6897    3.6030 N   0  0  0  0  0  0
   15.3506   14.3460    3.9822 C   0  0  0  0  0  0
   16.4923   14.0483    3.4209 N   0  0  0  0  0  0
   17.4832   14.7618    3.9194 C   0  0  0  0  0  0
   17.1809   15.6745    4.9342 C   0  0  0  0  0  0
   15.4605   15.5848    5.2031 S   0  0  0  0  0  0
   18.0326   16.6206    5.7483 C   0  0  0  0  0  0
   19.5273   16.6233    5.4426 C   0  0  0  0  0  0
   20.0867   17.7449    4.8168 C   0  0  0  0  0  0
   21.4682   17.8515    4.6601 C   0  0  0  0  0  0
   22.2964   16.8359    5.1226 C   0  0  0  0  0  0
   21.7500   15.6901    5.6921 C   0  0  0  0  0  0
   20.3715   15.5805    5.8661 C   0  0  0  0  0  0
   19.7579   14.1570    6.6318 Cl  0  0  0  0  0  0
   22.1642   19.2333    3.9010 Cl  0  0  0  0  0  0
   10.9291   10.5917    1.3253 H   0  0  0  0  0  0
   13.1142   11.6796    2.1130 H   0  0  0  0  0  0
    8.7978   11.7535    2.3751 H   0  0  0  0  0  0
   14.3115   12.9573    2.9224 H   0  0  0  0  0  0
   18.4778   14.5954    3.5305 H   0  0  0  0  0  0
   17.6433   17.6338    5.6521 H   0  0  0  0  0  0
   17.9139   16.3828    6.8029 H   0  0  0  0  0  0
   19.4536   18.5513    4.4769 H   0  0  0  0  0  0
   23.3643   16.9230    5.0123 H   0  0  0  0  0  0
   22.4017   14.8891    6.0036 H   0  0  0  0  0  0
  1  5  2  0  0  0
  1  2  1  0  0  0
  1 23  1  0  0  0
  2  3  2  0  0  0
  2 24  1  0  0  0
  3  4  1  0  0  0
  3  6  1  0  0  0
  4  5  1  0  0  0
  5 25  1  0  0  0
  6  7  2  0  0  0
  6  8  1  0  0  0
  8  9  1  0  0  0
  8 26  1  0  0  0
  9 13  1  0  0  0
  9 10  2  0  0  0
 10 11  1  0  0  0
 11 12  2  0  0  0
 11 27  1  0  0  0
 12 13  1  0  0  0
 12 14  1  0  0  0
 14 15  1  0  0  0
 14 28  1  0  0  0
 14 29  1  0  0  0
 15 20  1  0  0  0
 15 16  2  0  0  0
 16 17  1  0  0  0
 16 30  1  0  0  0
 17 18  2  0  0  0
 17 22  1  0  0  0
 18 19  1  0  0  0
 18 31  1  0  0  0
 19 20  2  0  0  0
 19 32  1  0  0  0
 20 21  1  0  0  0
M  END
> <s_m_entry_id>
6556

> <s_m_entry_name>
ligand_docking-pose.67

> <s_m_Source_Path>
/home/csk/Desktop/cluster/DUD-E-result/abl1

> <s_m_Source_File>
ligand_docking-pose.sdf

> <i_m_Source_File_Index>
67

> <i_lp_mmshare_version>
53161

> <r_lp_tautomer_probability>
0.999000488399163

> <s_lp_Force_Field>
OPLS_2005

> <r_lp_Energy>
9.8987

> <b_lp_Chiralities_Consistent>
1

> <s_lp_Variant>
489666-1

> <s_i_glide_gridfile>
glide-grid_2hzi

> <i_i_glide_lignum>
128

> <i_i_glide_rotatable_bonds>
5

> <r_i_docking_score>
-8.37255724362871

> <r_i_glide_ligand_efficiency>
-0.380570783801305

> <r_i_glide_ligand_efficiency_sa>
-1.06637430321087

> <r_i_glide_ligand_efficiency_ln>
-2.04655838678861

> <r_i_glide_gscore>
-8.37255724362871

> <r_i_glide_lipo>
-4.24255576337749

> <r_i_glide_hbond>
0

> <r_i_glide_metal>
0

> <r_i_glide_rewards>
-2.00959336320116

> <r_i_glide_evdw>
-45.0174560546875

> <r_i_glide_ecoul>
-3.84256625175476

> <r_i_glide_erotb>
0.706849623447534

> <r_i_glide_esite>
0

> <r_i_glide_emodel>
-70.9460621197997

> <r_i_glide_energy>
-48.8600223064423

> <r_i_glide_einternal>
1.20734703540802

> <i_i_glide_confnum>
29

> <i_i_glide_posenum>
171

> <r_i_glide_eff_state_penalty>
0

> <i_f3d_flags>
0

> <s_user_duplicate_titles>
489666

> <s_m_subgroup_title>
dock_pv

> <s_m_subgroupid>
dock_pv1

> <b_m_subgroup_collapsed>
0

$$$$
489665
                    3D
 Schrodinger Suite 2021-1.
 35 37  0  0  1  0            999 V2000
   10.6997   11.5783    1.9641 C   0  0  0  0  0  0
   11.6345   12.4318    2.8026 C   0  0  0  0  0  0
   11.1298   13.2697    3.7977 C   0  0  0  0  0  0
   12.0057   13.9728    4.6235 C   0  0  0  0  0  0
   13.3851   13.8479    4.4507 C   0  0  0  0  0  0
   13.9067   13.0687    3.4085 C   0  0  0  0  0  0
   13.0132   12.3595    2.5998 C   0  0  0  0  0  0
   15.4067   12.8772    3.1508 C   0  0  0  0  0  0
   16.4083   13.9331    3.6045 C   0  0  0  0  0  0
   16.2791   15.2152    4.1598 C   0  0  0  0  0  0
   17.3753   15.8719    4.4718 N   0  0  0  0  0  0
   18.4346   15.1877    4.1489 C   0  0  0  0  0  0
   18.1308   13.6306    3.4836 S   0  0  0  0  0  0
   19.7078   15.6967    4.2245 N   0  0  0  0  0  0
   20.4133   15.7487    5.3705 C   0  0  0  0  0  0
   20.1465   15.1035    6.3890 O   0  0  0  0  0  0
   21.5210   16.6748    5.3503 C   0  0  0  0  0  0
   22.5627   16.7423    6.2703 C   0  0  0  0  0  0
   23.3631   17.8773    6.1192 C   0  0  0  0  0  0
   22.9512   18.6928    5.0824 C   0  0  0  0  0  0
   21.5884   18.0346    4.2474 S   0  0  0  0  0  0
    9.7463   11.4150    2.4682 H   0  0  0  0  0  0
   10.5219   12.0333    0.9900 H   0  0  0  0  0  0
   11.1320   10.5888    1.8015 H   0  0  0  0  0  0
   10.0642   13.3432    3.9599 H   0  0  0  0  0  0
   11.6145   14.5858    5.4195 H   0  0  0  0  0  0
   14.0294   14.3374    5.1611 H   0  0  0  0  0  0
   13.3938   11.7094    1.8241 H   0  0  0  0  0  0
   15.5372   12.7311    2.0766 H   0  0  0  0  0  0
   15.6676   11.9134    3.5887 H   0  0  0  0  0  0
   15.3452   15.7183    4.3504 H   0  0  0  0  0  0
   20.0755   16.1613    3.4070 H   0  0  0  0  0  0
   22.7169   16.0116    7.0502 H   0  0  0  0  0  0
   24.2008   18.1031    6.7639 H   0  0  0  0  0  0
   23.3690   19.6440    4.7866 H   0  0  0  0  0  0
  1  2  1  0  0  0
  1 22  1  0  0  0
  1 23  1  0  0  0
  1 24  1  0  0  0
  2  7  1  0  0  0
  2  3  2  0  0  0
  3  4  1  0  0  0
  3 25  1  0  0  0
  4  5  2  0  0  0
  4 26  1  0  0  0
  5  6  1  0  0  0
  5 27  1  0  0  0
  6  7  2  0  0  0
  6  8  1  0  0  0
  7 28  1  0  0  0
  8  9  1  0  0  0
  8 29  1  0  0  0
  8 30  1  0  0  0
  9 13  1  0  0  0
  9 10  2  0  0  0
 10 11  1  0  0  0
 10 31  1  0  0  0
 11 12  2  0  0  0
 12 13  1  0  0  0
 12 14  1  0  0  0
 14 15  1  0  0  0
 14 32  1  0  0  0
 15 16  2  0  0  0
 15 17  1  0  0  0
 17 21  1  0  0  0
 17 18  2  0  0  0
 18 19  1  0  0  0
 18 33  1  0  0  0
 19 20  2  0  0  0
 19 34  1  0  0  0
 20 21  1  0  0  0
 20 35  1  0  0  0
M  END
> <s_m_entry_id>
6557

> <s_m_entry_name>
ligand_docking-pose.68

> <s_m_Source_Path>
/home/csk/Desktop/cluster/DUD-E-result/abl1

> <s_m_Source_File>
ligand_docking-pose.sdf

> <i_m_Source_File_Index>
68

> <i_lp_mmshare_version>
53161

> <r_lp_tautomer_probability>
0.999000488399163

> <s_lp_Force_Field>
OPLS_2005

> <r_lp_Energy>
9.944365

> <b_lp_Chiralities_Consistent>
1

> <s_lp_Variant>
489665-1

> <s_i_glide_gridfile>
glide-grid_2hzi

> <i_i_glide_lignum>
161

> <i_i_glide_rotatable_bonds>
5

> <r_i_docking_score>
-8.31956048092685

> <r_i_glide_ligand_efficiency>
-0.396169546710803

> <r_i_glide_ligand_efficiency_sa>
-1.09300173925716

> <r_i_glide_ligand_efficiency_ln>
-2.05699451765429

> <r_i_glide_gscore>
-8.31956048092685

> <r_i_glide_lipo>
-4.57475549542915

> <r_i_glide_hbond>
0

> <r_i_glide_metal>
0

> <r_i_glide_rewards>
-2.02534924429441

> <r_i_glide_evdw>
-42.9971313476562

> <r_i_glide_ecoul>
-3.39790463447571

> <r_i_glide_erotb>
0.940086521350872

> <r_i_glide_esite>
0

> <r_i_glide_emodel>
-64.6791487161271

> <r_i_glide_energy>
-46.395035982132

> <r_i_glide_einternal>
8.34657001495361

> <i_i_glide_confnum>
41

> <i_i_glide_posenum>
222

> <r_i_glide_eff_state_penalty>
0

> <i_f3d_flags>
0

> <s_user_duplicate_titles>
489665

> <s_m_subgroup_title>
dock_pv

> <s_m_subgroupid>
dock_pv1

> <b_m_subgroup_collapsed>
0

$$$$
436195
                    3D
 Schrodinger Suite 2021-1.
 35 37  0  0  1  0            999 V2000
    9.7023   13.5043    3.5686 C   0  0  0  0  0  0
   10.1559   12.4330    2.8016 C   0  0  0  0  0  0
   11.5095   12.1054    2.8029 C   0  0  0  0  0  0
   12.3982   12.8330    3.6034 C   0  0  0  0  0  0
   11.9406   13.9178    4.3575 C   0  0  0  0  0  0
   10.5895   14.2511    4.3404 C   0  0  0  0  0  0
   13.8229   12.3399    3.7835 C   0  0  0  0  0  0
   14.7610   12.4330    2.2475 S   0  0  0  0  0  0
   16.3080   12.9175    2.8901 C   0  0  0  0  0  0
   17.3781   12.1723    2.8031 N   0  0  0  0  0  0
   18.5272   12.8336    3.2025 N   0  0  0  0  0  0
   18.2807   14.0491    3.6088 C   0  0  0  0  0  0
   16.5971   14.4864    3.5964 S   0  0  0  0  0  0
   19.2757   14.9707    3.8292 N   0  0  0  0  0  0
   19.5378   15.5019    5.0366 C   0  0  0  0  0  0
   18.9636   15.1932    6.0837 O   0  0  0  0  0  0
   20.6743   16.4842    5.0471 C   0  0  0  0  0  0
   20.7579   17.5011    4.0838 C   0  0  0  0  0  0
   21.8013   18.4222    4.1342 C   0  0  0  0  0  0
   22.7630   18.3187    5.1343 C   0  0  0  0  0  0
   22.7041   17.2948    6.0695 C   0  0  0  0  0  0
   21.6565   16.3832    6.0370 C   0  0  0  0  0  0
   23.7646   19.2185    5.2030 F   0  0  0  0  0  0
    8.6504   13.7499    3.5689 H   0  0  0  0  0  0
    9.4602   11.8501    2.2149 H   0  0  0  0  0  0
   11.8551   11.2514    2.2354 H   0  0  0  0  0  0
   12.6174   14.4739    4.9907 H   0  0  0  0  0  0
   10.2291   15.0723    4.9408 H   0  0  0  0  0  0
   13.7900   11.2928    4.0872 H   0  0  0  0  0  0
   14.3270   12.8834    4.5819 H   0  0  0  0  0  0
   20.0104   15.0136    3.1327 H   0  0  0  0  0  0
   20.0111   17.5968    3.3078 H   0  0  0  0  0  0
   21.8675   19.2184    3.4076 H   0  0  0  0  0  0
   23.4686   17.2198    6.8283 H   0  0  0  0  0  0
   21.6184   15.5999    6.7814 H   0  0  0  0  0  0
  1  6  1  0  0  0
  1  2  2  0  0  0
  1 24  1  0  0  0
  2  3  1  0  0  0
  2 25  1  0  0  0
  3  4  2  0  0  0
  3 26  1  0  0  0
  4  5  1  0  0  0
  4  7  1  0  0  0
  5  6  2  0  0  0
  5 27  1  0  0  0
  6 28  1  0  0  0
  7  8  1  0  0  0
  7 29  1  0  0  0
  7 30  1  0  0  0
  8  9  1  0  0  0
  9 13  1  0  0  0
  9 10  2  0  0  0
 10 11  1  0  0  0
 11 12  2  0  0  0
 12 13  1  0  0  0
 12 14  1  0  0  0
 14 15  1  0  0  0
 14 31  1  0  0  0
 15 16  2  0  0  0
 15 17  1  0  0  0
 17 22  1  0  0  0
 17 18  2  0  0  0
 18 19  1  0  0  0
 18 32  1  0  0  0
 19 20  2  0  0  0
 19 33  1  0  0  0
 20 21  1  0  0  0
 20 23  1  0  0  0
 21 22  2  0  0  0
 21 34  1  0  0  0
 22 35  1  0  0  0
M  END
> <s_m_entry_id>
6558

> <s_m_entry_name>
ligand_docking-pose.69

> <s_m_Source_Path>
/home/csk/Desktop/cluster/DUD-E-result/abl1

> <s_m_Source_File>
ligand_docking-pose.sdf

> <i_m_Source_File_Index>
69

> <i_lp_mmshare_version>
53161

> <r_lp_tautomer_probability>
1

> <s_lp_Force_Field>
OPLS_2005

> <r_lp_Energy>
15.34863

> <b_lp_Chiralities_Consistent>
1

> <s_lp_Variant>
436195-1

> <s_i_glide_gridfile>
glide-grid_2hzi

> <i_i_glide_lignum>
84

> <i_i_glide_rotatable_bonds>
6

> <r_i_docking_score>
-8.30929771719876

> <r_i_glide_ligand_efficiency>
-0.36127381379125

> <r_i_glide_ligand_efficiency_sa>
-1.02741466865216

> <r_i_glide_ligand_efficiency_ln>
-2.00926353256472

> <r_i_glide_gscore>
-8.30929771719876

> <r_i_glide_lipo>
-4.18253254438858

> <r_i_glide_hbond>
-0.244870973540042

> <r_i_glide_metal>
0

> <r_i_glide_rewards>
-1.77768295394583

> <r_i_glide_evdw>
-47.9204063415527

> <r_i_glide_ecoul>
-4.26850843429565

> <r_i_glide_erotb>
0.955450551954932

> <r_i_glide_esite>
-0.0233652150572585

> <r_i_glide_emodel>
-69.384532753727

> <r_i_glide_energy>
-52.1889147758484

> <r_i_glide_einternal>
11.0044355392456

> <i_i_glide_confnum>
72

> <i_i_glide_posenum>
304

> <r_i_glide_eff_state_penalty>
0

> <i_f3d_flags>
0

> <s_user_duplicate_titles>
436195

> <s_m_subgroup_title>
dock_pv

> <s_m_subgroupid>
dock_pv1

> <b_m_subgroup_collapsed>
0

$$$$
455132
                    3D
 Schrodinger Suite 2021-1.
 44 46  0  0  1  0            999 V2000
   10.2291   13.5458    5.5481 C   0  0  0  0  0  0
   11.7328   13.7640    5.7605 C   0  0  0  0  0  0
   12.3116   14.8371    4.8267 C   0  0  0  0  0  0
   13.6624   15.2739    5.2030 N   0  0  0  0  0  0
   14.8124   14.7434    4.6466 C   0  0  0  0  0  0
   16.1032   15.2674    4.8402 C   0  0  0  0  0  0
   16.7928   16.2702    5.5951 C   0  0  0  0  0  0
   18.0659   16.3166    5.2617 N   0  0  0  0  0  0
   18.2562   15.3910    4.2909 N   0  0  0  0  0  0
   17.1097   14.6716    4.0506 C   0  0  0  0  0  0
   16.9470   13.6470    3.2028 N   0  0  0  0  0  0
   15.6594   13.2390    3.1423 C   0  0  0  0  0  0
   14.6172   13.7209    3.8155 N   0  0  0  0  0  0
   15.2010   12.0330    2.0030 S   0  0  0  0  0  0
   13.3685   12.0324    2.0030 C   0  0  0  0  0  0
   19.5344   15.1747    3.6280 C   0  0  0  0  0  0
   20.3411   16.4375    3.2512 C   0  0  2  0  0  0
   21.2502   17.0549    4.3158 C   0  0  0  0  0  0
   21.8891   18.2714    4.0402 C   0  0  0  0  0  0
   22.8583   18.7655    4.9034 C   0  0  0  0  0  0
   23.2180   18.0220    6.0176 C   0  0  0  0  0  0
   22.5639   16.8363    6.3276 C   0  0  0  0  0  0
   21.5691   16.3592    5.4893 C   0  0  0  0  0  0
   24.2307   18.4330    6.8030 F   0  0  0  0  0  0
   19.3639   17.6330    2.3795 Cl  0  0  0  0  0  0
    9.8331   12.8332    6.2705 H   0  0  0  0  0  0
   10.0191   13.1625    4.5488 H   0  0  0  0  0  0
    9.6715   14.4740    5.6758 H   0  0  0  0  0  0
   11.9114   14.0329    6.8018 H   0  0  0  0  0  0
   12.2760   12.8330    5.6101 H   0  0  0  0  0  0
   12.2589   14.4808    3.7967 H   0  0  0  0  0  0
   11.6721   15.7205    4.8134 H   0  0  0  0  0  0
   13.7620   15.8950    5.9940 H   0  0  0  0  0  0
   16.3846   16.9438    6.3347 H   0  0  0  0  0  0
   12.9763   11.3329    1.2635 H   0  0  0  0  0  0
   12.9934   11.7131    2.9759 H   0  0  0  0  0  0
   12.9642   13.0186    1.7888 H   0  0  0  0  0  0
   20.1073   14.4482    4.1951 H   0  0  0  0  0  0
   19.3147   14.6534    2.6999 H   0  0  0  0  0  0
   20.9982   16.1009    2.4676 H   0  0  0  0  0  0
   21.6780   18.8206    3.1343 H   0  0  0  0  0  0
   23.3641   19.6965    4.6929 H   0  0  0  0  0  0
   22.8542   16.2723    7.2015 H   0  0  0  0  0  0
   21.1075   15.4211    5.7504 H   0  0  0  0  0  0
  1  2  1  0  0  0
  1 26  1  0  0  0
  1 27  1  0  0  0
  1 28  1  0  0  0
  2  3  1  0  0  0
  2 29  1  0  0  0
  2 30  1  0  0  0
  3  4  1  0  0  0
  3 31  1  0  0  0
  3 32  1  0  0  0
  4  5  1  0  0  0
  4 33  1  0  0  0
  5 13  1  0  0  0
  5  6  2  0  0  0
  6 10  1  0  0  0
  6  7  1  0  0  0
  7  8  2  0  0  0
  7 34  1  0  0  0
  8  9  1  0  0  0
  9 10  1  0  0  0
  9 16  1  0  0  0
 10 11  2  0  0  0
 11 12  1  0  0  0
 12 13  2  0  0  0
 12 14  1  0  0  0
 14 15  1  0  0  0
 15 35  1  0  0  0
 15 36  1  0  0  0
 15 37  1  0  0  0
 16 17  1  0  0  0
 16 38  1  0  0  0
 16 39  1  0  0  0
 17 18  1  0  0  0
 17 25  1  0  0  0
 17 40  1  0  0  0
 18 23  1  0  0  0
 18 19  2  0  0  0
 19 20  1  0  0  0
 19 41  1  0  0  0
 20 21  2  0  0  0
 20 42  1  0  0  0
 21 22  1  0  0  0
 21 24  1  0  0  0
 22 23  2  0  0  0
 22 43  1  0  0  0
 23 44  1  0  0  0
M  END
> <s_m_entry_id>
6559

> <s_m_entry_name>
ligand_docking-pose.70

> <s_m_Source_Path>
/home/csk/Desktop/cluster/DUD-E-result/abl1

> <s_m_Source_File>
ligand_docking-pose.sdf

> <i_m_Source_File_Index>
70

> <i_lp_mmshare_version>
53161

> <r_lp_tautomer_probability>
1

> <s_lp_Force_Field>
OPLS_2005

> <r_lp_Energy>
6.127119

> <b_lp_Chiralities_Consistent>
1

> <s_lp_Variant>
455132-2

> <s_i_glide_gridfile>
glide-grid_2hzi

> <i_i_glide_lignum>
307

> <i_i_glide_rotatable_bonds>
7

> <r_i_docking_score>
-8.30294351367206

> <r_i_glide_ligand_efficiency>
-0.332117740546882

> <r_i_glide_ligand_efficiency_sa>
-0.971118163492293

> <r_i_glide_ligand_efficiency_ln>
-1.96804643187891

> <r_i_glide_gscore>
-8.30294351367206

> <r_i_glide_lipo>
-3.84145623445761

> <r_i_glide_hbond>
0

> <r_i_glide_metal>
0

> <r_i_glide_rewards>
-2.5586632573011

> <r_i_glide_evdw>
-36.4541969299316

> <r_i_glide_ecoul>
-5.01389694213867

> <r_i_glide_erotb>
0.671970365904035

> <r_i_glide_esite>
0

> <r_i_glide_emodel>
-48.2432241254899

> <r_i_glide_energy>
-41.4680938720703

> <r_i_glide_einternal>
12.6048002243042

> <i_i_glide_confnum>
60

> <i_i_glide_posenum>
329

> <r_i_glide_eff_state_penalty>
0

> <i_f3d_flags>
0

> <s_user_duplicate_titles>
455132

> <s_m_subgroup_title>
dock_pv

> <s_m_subgroupid>
dock_pv1

> <b_m_subgroup_collapsed>
0

$$$$
402599
                    3D
 Schrodinger Suite 2021-1.
 54 57  0  0  1  0            999 V2000
   18.7145   12.2063    3.2713 C   0  0  0  0  0  0
   17.6342   11.8686    2.2524 C   0  0  0  0  0  0
   15.8793   12.0368    2.5988 S   0  0  0  0  0  0
   15.6880   13.6544    3.1820 C   0  0  0  0  0  0
   14.5565   13.8029    3.8717 N   0  0  0  0  0  0
   14.5459   14.7354    4.8392 C   0  0  0  0  0  0
   15.7002   15.4962    5.1146 C   0  0  0  0  0  0
   16.2155   16.4348    6.0569 C   0  0  0  0  0  0
   17.4194   16.8346    5.7337 N   0  0  0  0  0  0
   17.7631   16.1822    4.6055 N   0  0  0  0  0  0
   16.7710   15.3048    4.2224 C   0  0  0  0  0  0
   16.7757   14.4568    3.2031 N   0  0  0  0  0  0
   19.0231   16.4890    3.9472 C   0  0  0  0  0  0
   20.3012   15.8689    4.6053 C   0  0  1  0  0  0
   21.4035   16.9044    4.8851 C   0  0  0  0  0  0
   22.2430   16.7861    6.0011 C   0  0  0  0  0  0
   23.2231   17.7395    6.2490 C   0  0  0  0  0  0
   23.3676   18.8195    5.3897 C   0  0  0  0  0  0
   22.5558   18.9464    4.2739 C   0  0  0  0  0  0
   21.6009   17.9759    4.0024 C   0  0  0  0  0  0
   19.9249   14.8328    6.0307 Cl  0  0  0  0  0  0
   13.3926   14.8275    5.6007 N   0  0  0  0  0  0
   12.2874   13.8632    5.5045 C   0  0  0  0  0  0
   11.1431   14.2960    4.5652 C   0  0  0  0  0  0
   10.6704   13.2268    3.5753 C   0  0  0  0  0  0
   11.5777   12.4349    2.8470 C   0  0  0  0  0  0
   11.1224   11.4743    1.9514 C   0  0  0  0  0  0
    9.7575   11.3095    1.7547 C   0  0  0  0  0  0
    8.8481   12.0908    2.4600 C   0  0  0  0  0  0
    9.2997   13.0466    3.3675 C   0  0  0  0  0  0
   19.6704   11.9862    2.8031 H   0  0  0  0  0  0
   18.8034   13.2524    3.5408 H   0  0  0  0  0  0
   18.6094   11.6334    4.1916 H   0  0  0  0  0  0
   17.8070   10.8338    2.0029 H   0  0  0  0  0  0
   17.7824   12.4333    1.3458 H   0  0  0  0  0  0
   15.7636   16.8175    6.9532 H   0  0  0  0  0  0
   19.0619   17.5774    3.9121 H   0  0  0  0  0  0
   18.9538   16.1694    2.9055 H   0  0  0  0  0  0
   20.7336   15.1757    3.8818 H   0  0  0  0  0  0
   22.1629   15.9583    6.6894 H   0  0  0  0  0  0
   23.8723   17.6372    7.1068 H   0  0  0  0  0  0
   24.1310   19.5589    5.5770 H   0  0  0  0  0  0
   22.6808   19.7856    3.6049 H   0  0  0  0  0  0
   21.0162   18.0755    3.1004 H   0  0  0  0  0  0
   13.3065   15.5999    6.2474 H   0  0  0  0  0  0
   12.6683   12.8859    5.2091 H   0  0  0  0  0  0
   11.8949   13.6641    6.5034 H   0  0  0  0  0  0
   10.3062   14.6217    5.1847 H   0  0  0  0  0  0
   11.4283   15.1794    4.0032 H   0  0  0  0  0  0
   12.6408   12.5460    2.9677 H   0  0  0  0  0  0
   11.8247   10.8567    1.4101 H   0  0  0  0  0  0
    9.4036   10.5547    1.0672 H   0  0  0  0  0  0
    7.7943   11.9395    2.3110 H   0  0  0  0  0  0
    8.5785   13.6396    3.9101 H   0  0  0  0  0  0
  1  2  1  0  0  0
  1 31  1  0  0  0
  1 32  1  0  0  0
  1 33  1  0  0  0
  2  3  1  0  0  0
  2 34  1  0  0  0
  2 35  1  0  0  0
  3  4  1  0  0  0
  4 12  1  0  0  0
  4  5  2  0  0  0
  5  6  1  0  0  0
  6  7  2  0  0  0
  6 22  1  0  0  0
  7 11  1  0  0  0
  7  8  1  0  0  0
  8  9  2  0  0  0
  8 36  1  0  0  0
  9 10  1  0  0  0
 10 11  1  0  0  0
 10 13  1  0  0  0
 11 12  2  0  0  0
 13 14  1  0  0  0
 13 37  1  0  0  0
 13 38  1  0  0  0
 14 15  1  0  0  0
 14 21  1  0  0  0
 14 39  1  0  0  0
 15 20  1  0  0  0
 15 16  2  0  0  0
 16 17  1  0  0  0
 16 40  1  0  0  0
 17 18  2  0  0  0
 17 41  1  0  0  0
 18 19  1  0  0  0
 18 42  1  0  0  0
 19 20  2  0  0  0
 19 43  1  0  0  0
 20 44  1  0  0  0
 22 23  1  0  0  0
 22 45  1  0  0  0
 23 24  1  0  0  0
 23 46  1  0  0  0
 23 47  1  0  0  0
 24 25  1  0  0  0
 24 48  1  0  0  0
 24 49  1  0  0  0
 25 30  1  0  0  0
 25 26  2  0  0  0
 26 27  1  0  0  0
 26 50  1  0  0  0
 27 28  2  0  0  0
 27 51  1  0  0  0
 28 29  1  0  0  0
 28 52  1  0  0  0
 29 30  2  0  0  0
 29 53  1  0  0  0
 30 54  1  0  0  0
M  END
> <s_m_entry_id>
6561

> <s_m_entry_name>
ligand_docking-pose.72

> <s_m_Source_Path>
/home/csk/Desktop/cluster/DUD-E-result/abl1

> <s_m_Source_File>
ligand_docking-pose.sdf

> <i_m_Source_File_Index>
72

> <i_lp_mmshare_version>
53161

> <r_lp_tautomer_probability>
1

> <s_lp_Force_Field>
OPLS_2005

> <r_lp_Energy>
9.347861

> <b_lp_Chiralities_Consistent>
1

> <s_lp_Variant>
402599-1

> <s_i_glide_gridfile>
glide-grid_2hzi

> <i_i_glide_lignum>
346

> <i_i_glide_rotatable_bonds>
9

> <r_i_docking_score>
-8.28877476182155

> <r_i_glide_ligand_efficiency>
-0.276292492060718

> <r_i_glide_ligand_efficiency_sa>
-0.858505011508747

> <r_i_glide_ligand_efficiency_ln>
-1.88329993932042

> <r_i_glide_gscore>
-8.28877476182155

> <r_i_glide_lipo>
-4.77354244089203

> <r_i_glide_hbond>
0

> <r_i_glide_metal>
0

> <r_i_glide_rewards>
-1.99293104921642

> <r_i_glide_evdw>
-33.3859367370605

> <r_i_glide_ecoul>
-3.87220525741577

> <r_i_glide_erotb>
0.727826353752286

> <r_i_glide_esite>
0

> <r_i_glide_emodel>
-28.2815790142357

> <r_i_glide_energy>
-37.2581419944763

> <r_i_glide_einternal>
18.1350116729736

> <i_i_glide_confnum>
27

> <i_i_glide_posenum>
288

> <r_i_glide_eff_state_penalty>
0

> <i_f3d_flags>
0

> <s_user_duplicate_titles>
402599

> <s_m_subgroup_title>
dock_pv

> <s_m_subgroupid>
dock_pv1

> <b_m_subgroup_collapsed>
0

$$$$
454707
                    3D
 Schrodinger Suite 2021-1.
 46 49  0  0  1  0            999 V2000
   18.7661   12.1122    3.2086 C   0  0  0  0  0  0
   17.1601   12.0329    2.4031 S   0  0  0  0  0  0
   16.3276   13.4596    2.8090 C   0  0  0  0  0  0
   17.1287   14.4578    3.2033 N   0  0  0  0  0  0
   16.5695   15.1898    4.1376 C   0  0  0  0  0  0
   15.2637   15.0537    4.6328 C   0  0  0  0  0  0
   15.3017   15.9277    5.7549 C   0  0  0  0  0  0
   16.4072   16.6284    5.8244 N   0  0  0  0  0  0
   17.1694   16.2146    4.8027 N   0  0  0  0  0  0
   18.4394   16.8317    4.4681 C   0  0  0  0  0  0
   19.4543   16.5665    5.5699 C   0  0  2  0  0  0
   20.8329   17.1848    5.3847 C   0  0  0  0  0  0
   21.8164   16.9054    6.3333 C   0  0  0  0  0  0
   23.0455   17.5475    6.2669 C   0  0  0  0  0  0
   23.3037   18.4486    5.2431 C   0  0  0  0  0  0
   22.3440   18.7058    4.2711 C   0  0  0  0  0  0
   21.1129   18.0649    4.3339 C   0  0  0  0  0  0
   19.5622   14.6203    6.0016 Br  0  0  0  0  0  0
   14.4325   14.1304    3.9346 C   0  0  0  0  0  0
   15.0129   13.2934    3.0361 N   0  0  0  0  0  0
   13.0486   14.0028    4.0677 N   0  0  0  0  0  0
   12.3193   12.8578    3.4619 C   0  0  0  0  0  0
   10.7737   12.8320    3.5729 C   0  0  0  0  0  0
   10.3426   13.3859    4.7963 O   0  0  0  0  0  0
   10.7387   14.7394    4.8232 C   0  0  0  0  0  0
   12.2698   14.8269    4.9959 C   0  0  0  0  0  0
   19.3196   11.1828    3.0952 H   0  0  0  0  0  0
   19.3607   12.9333    2.8091 H   0  0  0  0  0  0
   18.5726   12.2758    4.2695 H   0  0  0  0  0  0
   14.5644   16.0327    6.5226 H   0  0  0  0  0  0
   18.2602   17.8991    4.3304 H   0  0  0  0  0  0
   18.7976   16.4365    3.5150 H   0  0  0  0  0  0
   18.9743   17.0415    6.4028 H   0  0  0  0  0  0
   21.6245   16.2250    7.1501 H   0  0  0  0  0  0
   23.7951   17.3496    7.0183 H   0  0  0  0  0  0
   24.2550   18.9591    5.2040 H   0  0  0  0  0  0
   22.5518   19.4078    3.4769 H   0  0  0  0  0  0
   20.3786   18.2965    3.5805 H   0  0  0  0  0  0
   12.5654   12.8167    2.4013 H   0  0  0  0  0  0
   12.7349   11.9487    3.8882 H   0  0  0  0  0  0
   10.3899   11.8196    3.4529 H   0  0  0  0  0  0
   10.2932   13.3881    2.7797 H   0  0  0  0  0  0
   10.1871   15.2319    5.6104 H   0  0  0  0  0  0
   10.4360   15.2417    3.9070 H   0  0  0  0  0  0
   12.5633   14.5328    6.0014 H   0  0  0  0  0  0
   12.5630   15.8671    4.8499 H   0  0  0  0  0  0
  1  2  1  0  0  0
  1 27  1  0  0  0
  1 28  1  0  0  0
  1 29  1  0  0  0
  2  3  1  0  0  0
  3 20  1  0  0  0
  3  4  2  0  0  0
  4  5  1  0  0  0
  5  9  1  0  0  0
  5  6  2  0  0  0
  6  7  1  0  0  0
  6 19  1  0  0  0
  7  8  2  0  0  0
  7 30  1  0  0  0
  8  9  1  0  0  0
  9 10  1  0  0  0
 10 11  1  0  0  0
 10 31  1  0  0  0
 10 32  1  0  0  0
 11 12  1  0  0  0
 11 18  1  0  0  0
 11 33  1  0  0  0
 12 17  1  0  0  0
 12 13  2  0  0  0
 13 14  1  0  0  0
 13 34  1  0  0  0
 14 15  2  0  0  0
 14 35  1  0  0  0
 15 16  1  0  0  0
 15 36  1  0  0  0
 16 17  2  0  0  0
 16 37  1  0  0  0
 17 38  1  0  0  0
 19 20  2  0  0  0
 19 21  1  0  0  0
 21 26  1  0  0  0
 21 22  1  0  0  0
 22 23  1  0  0  0
 22 39  1  0  0  0
 22 40  1  0  0  0
 23 24  1  0  0  0
 23 41  1  0  0  0
 23 42  1  0  0  0
 24 25  1  0  0  0
 25 26  1  0  0  0
 25 43  1  0  0  0
 25 44  1  0  0  0
 26 45  1  0  0  0
 26 46  1  0  0  0
M  END
> <s_m_entry_id>
6562

> <s_m_entry_name>
ligand_docking-pose.73

> <s_m_Source_Path>
/home/csk/Desktop/cluster/DUD-E-result/abl1

> <s_m_Source_File>
ligand_docking-pose.sdf

> <i_m_Source_File_Index>
73

> <i_lp_mmshare_version>
53161

> <r_lp_tautomer_probability>
1

> <s_lp_Force_Field>
OPLS_2005

> <r_lp_Energy>
17.359379

> <b_lp_Chiralities_Consistent>
1

> <s_lp_Variant>
454707-2

> <s_i_glide_gridfile>
glide-grid_2hzi

> <i_i_glide_lignum>
501

> <i_i_glide_rotatable_bonds>
5

> <r_i_docking_score>
-8.26355948592092

> <r_i_glide_ligand_efficiency>
-0.317829210996958

> <r_i_glide_ligand_efficiency_sa>
-0.941567786980933

> <r_i_glide_ligand_efficiency_ln>
-1.94066983031826

> <r_i_glide_gscore>
-8.26355948592092

> <r_i_glide_lipo>
-4.39567666382372

> <r_i_glide_hbond>
0

> <r_i_glide_metal>
0

> <r_i_glide_rewards>
-2.32397539976528

> <r_i_glide_evdw>
-32.1893196105957

> <r_i_glide_ecoul>
-2.37783265113831

> <r_i_glide_erotb>
0.422233455868615

> <r_i_glide_esite>
0

> <r_i_glide_emodel>
-54.7966356025081

> <r_i_glide_energy>
-34.567152261734

> <r_i_glide_einternal>
8.33915519714355

> <i_i_glide_confnum>
13

> <i_i_glide_posenum>
372

> <r_i_glide_eff_state_penalty>
0

> <i_f3d_flags>
0

> <s_user_duplicate_titles>
454707

> <s_m_subgroup_title>
dock_pv

> <s_m_subgroupid>
dock_pv1

> <b_m_subgroup_collapsed>
0

$$$$
402624
                    3D
 Schrodinger Suite 2021-1.
 45 48  0  0  1  0            999 V2000
   14.9965   11.6330    1.8008 C   0  0  0  0  0  0
   16.6549   12.0580    2.4030 S   0  0  0  0  0  0
   16.3812   13.4855    3.3289 C   0  0  0  0  0  0
   15.0894   13.7858    3.5723 N   0  0  0  0  0  0
   14.7864   14.7426    4.4623 C   0  0  0  0  0  0
   15.8560   15.4553    5.0445 C   0  0  0  0  0  0
   16.1020   16.5193    5.9433 C   0  0  0  0  0  0
   17.3773   16.7229    6.1529 N   0  0  0  0  0  0
   18.0336   15.8029    5.4240 N   0  0  0  0  0  0
   17.1624   15.0440    4.6854 C   0  0  0  0  0  0
   17.4781   14.0648    3.8461 N   0  0  0  0  0  0
   19.4760   15.6670    5.5179 C   0  0  0  0  0  0
   20.2788   16.1162    4.2571 C   0  0  2  0  0  0
   21.4032   17.0757    4.6489 C   0  0  0  0  0  0
   22.2527   16.7391    5.7098 C   0  0  0  0  0  0
   23.2281   17.6326    6.1297 C   0  0  0  0  0  0
   23.3882   18.8330    5.4612 C   0  0  0  0  0  0
   22.5640   19.1783    4.4030 C   0  0  0  0  0  0
   21.5830   18.2935    3.9885 C   0  0  0  0  0  0
   19.2524   16.7324    2.9077 Cl  0  0  0  0  0  0
   13.4254   14.9287    4.7909 N   0  0  0  0  0  0
   12.2426   14.2701    4.3536 C   0  0  0  0  0  0
   12.2297   13.0848    3.6030 C   0  0  0  0  0  0
   11.0486   12.5063    3.1416 C   0  0  0  0  0  0
    9.8296   13.0948    3.4458 C   0  0  0  0  0  0
    9.8051   14.2572    4.2043 C   0  0  0  0  0  0
   10.9995   14.8330    4.6542 C   0  0  0  0  0  0
    8.6146   14.8330    4.4739 F   0  0  0  0  0  0
   14.9640   10.8650    1.0318 H   0  0  0  0  0  0
   14.4770   11.2330    2.6649 H   0  0  0  0  0  0
   14.4669   12.5067    1.4231 H   0  0  0  0  0  0
   15.3640   17.1350    6.4030 H   0  0  0  0  0  0
   19.6896   14.6202    5.7392 H   0  0  0  0  0  0
   19.7922   16.2124    6.4030 H   0  0  0  0  0  0
   20.7632   15.2331    3.8363 H   0  0  0  0  0  0
   22.1536   15.7950    6.2262 H   0  0  0  0  0  0
   23.8716   17.3838    6.9602 H   0  0  0  0  0  0
   24.1640   19.5141    5.7580 H   0  0  0  0  0  0
   22.7033   20.1176    3.8906 H   0  0  0  0  0  0
   20.9720   18.5678    3.1487 H   0  0  0  0  0  0
   13.2737   15.6825    5.4424 H   0  0  0  0  0  0
   13.1229   12.5510    3.3863 H   0  0  0  0  0  0
   11.0814   11.5885    2.5707 H   0  0  0  0  0  0
    8.9078   12.6490    3.1010 H   0  0  0  0  0  0
   10.9638   15.7559    5.2030 H   0  0  0  0  0  0
  1  2  1  0  0  0
  1 29  1  0  0  0
  1 30  1  0  0  0
  1 31  1  0  0  0
  2  3  1  0  0  0
  3 11  1  0  0  0
  3  4  2  0  0  0
  4  5  1  0  0  0
  5  6  2  0  0  0
  5 21  1  0  0  0
  6 10  1  0  0  0
  6  7  1  0  0  0
  7  8  2  0  0  0
  7 32  1  0  0  0
  8  9  1  0  0  0
  9 10  1  0  0  0
  9 12  1  0  0  0
 10 11  2  0  0  0
 12 13  1  0  0  0
 12 33  1  0  0  0
 12 34  1  0  0  0
 13 14  1  0  0  0
 13 20  1  0  0  0
 13 35  1  0  0  0
 14 19  1  0  0  0
 14 15  2  0  0  0
 15 16  1  0  0  0
 15 36  1  0  0  0
 16 17  2  0  0  0
 16 37  1  0  0  0
 17 18  1  0  0  0
 17 38  1  0  0  0
 18 19  2  0  0  0
 18 39  1  0  0  0
 19 40  1  0  0  0
 21 22  1  0  0  0
 21 41  1  0  0  0
 22 27  1  0  0  0
 22 23  2  0  0  0
 23 24  1  0  0  0
 23 42  1  0  0  0
 24 25  2  0  0  0
 24 43  1  0  0  0
 25 26  1  0  0  0
 25 44  1  0  0  0
 26 27  2  0  0  0
 26 28  1  0  0  0
 27 45  1  0  0  0
M  END
> <s_m_entry_id>
6563

> <s_m_entry_name>
ligand_docking-pose.74

> <s_m_Source_Path>
/home/csk/Desktop/cluster/DUD-E-result/abl1

> <s_m_Source_File>
ligand_docking-pose.sdf

> <i_m_Source_File_Index>
74

> <i_lp_mmshare_version>
53161

> <r_lp_tautomer_probability>
1

> <s_lp_Force_Field>
OPLS_2005

> <r_lp_Energy>
13.452824

> <b_lp_Chiralities_Consistent>
1

> <s_lp_Variant>
402624-2

> <s_i_glide_gridfile>
glide-grid_2hzi

> <i_i_glide_lignum>
521

> <i_i_glide_rotatable_bonds>
6

> <r_i_docking_score>
-8.2299375302631

> <r_i_glide_ligand_efficiency>
-0.293926340366539

> <r_i_glide_ligand_efficiency_sa>
-0.892533482709438

> <r_i_glide_ligand_efficiency_ln>
-1.89971122345059

> <r_i_glide_gscore>
-8.2299375302631

> <r_i_glide_lipo>
-4.30692332919518

> <r_i_glide_hbond>
0

> <r_i_glide_metal>
0

> <r_i_glide_rewards>
-2.30598393332429

> <r_i_glide_evdw>
-30.5332336425781

> <r_i_glide_ecoul>
-4.30245923995972

> <r_i_glide_erotb>
0.575920893809885

> <r_i_glide_esite>
-0.0209205934306491

> <r_i_glide_emodel>
-40.5183512544394

> <r_i_glide_energy>
-34.8356928825378

> <r_i_glide_einternal>
12.7346487045288

> <i_i_glide_confnum>
17

> <i_i_glide_posenum>
258

> <r_i_glide_eff_state_penalty>
0

> <i_f3d_flags>
0

> <s_user_duplicate_titles>
402624

> <s_m_subgroup_title>
dock_pv

> <s_m_subgroupid>
dock_pv1

> <b_m_subgroup_collapsed>
0

$$$$
348396
                    3D
 Schrodinger Suite 2021-1.
 25 27  0  0  1  0            999 V2000
   17.6517   14.4359    3.8245 C   0  0  0  0  0  0
   16.3134   14.1827    3.5222 C   0  0  0  0  0  0
   15.3066   14.7643    4.2940 C   0  0  0  0  0  0
   15.6234   15.6333    5.3330 C   0  0  0  0  0  0
   16.9550   15.8971    5.6295 C   0  0  0  0  0  0
   17.9673   15.2764    4.8938 C   0  0  0  0  0  0
   19.3626   15.4694    5.3507 C   0  0  0  0  0  0
   20.3420   16.3749    4.8555 C   0  0  0  0  0  0
   20.4977   17.2862    3.7973 C   0  0  0  0  0  0
   21.6130   18.0366    3.8013 N   0  0  0  0  0  0
   22.5512   17.9260    4.7638 C   0  0  0  0  0  0
   22.4903   17.0287    5.7829 N   0  0  0  0  0  0
   21.3901   16.2673    5.8020 C   0  0  0  0  0  0
   21.0790   15.3138    6.7124 N   0  0  0  0  0  0
   19.8234   14.8334    6.4034 N   0  0  0  0  0  0
   19.5650   17.4428    2.7789 N   0  0  0  0  0  0
   13.6524   14.3760    4.0035 Cl  0  0  0  0  0  0
   21.7418   18.7157    3.0666 H   0  0  0  0  0  0
   18.4352   13.9509    3.2595 H   0  0  0  0  0  0
   16.0590   13.5083    2.7180 H   0  0  0  0  0  0
   14.8413   16.0671    5.9353 H   0  0  0  0  0  0
   17.1971   16.5404    6.4635 H   0  0  0  0  0  0
   23.3774   18.6166    4.7062 H   0  0  0  0  0  0
   18.8191   16.7647    2.7308 H   0  0  0  0  0  0
   19.8533   17.9251    1.9424 H   0  0  0  0  0  0
  1  6  1  0  0  0
  1  2  2  0  0  0
  1 19  1  0  0  0
  2  3  1  0  0  0
  2 20  1  0  0  0
  3  4  2  0  0  0
  3 17  1  0  0  0
  4  5  1  0  0  0
  4 21  1  0  0  0
  5  6  2  0  0  0
  5 22  1  0  0  0
  6  7  1  0  0  0
  7 15  2  0  0  0
  7  8  1  0  0  0
  8 13  1  0  0  0
  8  9  2  0  0  0
  9 10  1  0  0  0
  9 16  1  0  0  0
 10 18  1  0  0  0
 10 11  1  0  0  0
 11 12  2  0  0  0
 11 23  1  0  0  0
 12 13  1  0  0  0
 13 14  2  0  0  0
 14 15  1  0  0  0
 16 24  1  0  0  0
 16 25  1  0  0  0
M  END
> <s_m_entry_id>
6564

> <s_m_entry_name>
ligand_docking-pose.75

> <s_m_Source_Path>
/home/csk/Desktop/cluster/DUD-E-result/abl1

> <s_m_Source_File>
ligand_docking-pose.sdf

> <i_m_Source_File_Index>
75

> <i_lp_mmshare_version>
53161

> <r_lp_tautomer_probability>
1

> <s_lp_Force_Field>
OPLS_2005

> <r_lp_Energy>
28.247427

> <b_lp_Chiralities_Consistent>
1

> <s_lp_Variant>
348396-1

> <s_i_glide_gridfile>
glide-grid_2hzi

> <i_i_glide_lignum>
10

> <i_i_glide_rotatable_bonds>
1

> <r_i_docking_score>
-8.22095784436657

> <r_i_glide_ligand_efficiency>
-0.483585755550975

> <r_i_glide_ligand_efficiency_sa>
-1.24343514957847

> <r_i_glide_ligand_efficiency_ln>
-2.144664829865

> <r_i_glide_gscore>
-8.22095784436657

> <r_i_glide_lipo>
-2.84674376775135

> <r_i_glide_hbond>
0

> <r_i_glide_metal>
0

> <r_i_glide_rewards>
-3.45908577272727

> <r_i_glide_evdw>
-40.1109085083008

> <r_i_glide_ecoul>
-1.32061564922333

> <r_i_glide_erotb>
0.288509468910584

> <r_i_glide_esite>
0

> <r_i_glide_emodel>
-58.5204241773091

> <r_i_glide_energy>
-41.4315241575241

> <r_i_glide_einternal>
3.6671679019928

> <i_i_glide_confnum>
3

> <i_i_glide_posenum>
319

> <r_i_glide_eff_state_penalty>
0

> <i_f3d_flags>
0

> <s_user_duplicate_titles>
348396

> <s_m_subgroup_title>
dock_pv

> <s_m_subgroupid>
dock_pv1

> <b_m_subgroup_collapsed>
0

$$$$
455133
                    3D
 Schrodinger Suite 2021-1.
 47 49  0  0  1  0            999 V2000
    9.9356   13.2667    3.9411 C   0  0  0  0  0  0
   10.3024   13.6296    5.3898 C   0  0  0  0  0  0
   11.8079   13.8509    5.6246 C   0  0  0  0  0  0
   12.4009   15.0071    4.8031 C   0  0  0  0  0  0
   13.7633   15.3772    5.2022 N   0  0  0  0  0  0
   14.8793   14.8167    4.6077 C   0  0  0  0  0  0
   16.1825   15.2870    4.8188 C   0  0  0  0  0  0
   16.8919   16.2548    5.5974 C   0  0  0  0  0  0
   18.1645   16.2722    5.2707 N   0  0  0  0  0  0
   18.3320   15.3564    4.2869 N   0  0  0  0  0  0
   17.1720   14.6656    4.0322 C   0  0  0  0  0  0
   16.9823   13.6518    3.1745 N   0  0  0  0  0  0
   15.6808   13.2894    3.0942 C   0  0  0  0  0  0
   14.6475   13.8193    3.7489 N   0  0  0  0  0  0
   15.2094   12.0338    2.0030 S   0  0  0  0  0  0
   13.3772   12.0329    2.0096 C   0  0  0  0  0  0
   19.5964   15.1542    3.6035 C   0  0  0  0  0  0
   20.3740   16.4330    3.2202 C   0  0  2  0  0  0
   21.2837   17.0482    4.2830 C   0  0  0  0  0  0
   21.9272   18.2599    4.0028 C   0  0  0  0  0  0
   22.8811   18.7628    4.8763 C   0  0  0  0  0  0
   23.2224   18.0277    6.0035 C   0  0  0  0  0  0
   22.5630   16.8471    6.3169 C   0  0  0  0  0  0
   21.5822   16.3641    5.4686 C   0  0  0  0  0  0
   24.2239   18.4369    6.8027 F   0  0  0  0  0  0
   19.3631   17.6330    2.3974 Cl  0  0  0  0  0  0
    8.8732   13.0367    3.8569 H   0  0  0  0  0  0
   10.4862   12.3904    3.5984 H   0  0  0  0  0  0
   10.1495   14.0845    3.2532 H   0  0  0  0  0  0
    9.7512   14.5208    5.6914 H   0  0  0  0  0  0
    9.9567   12.8339    6.0510 H   0  0  0  0  0  0
   11.9740   14.0318    6.6870 H   0  0  0  0  0  0
   12.3609   12.9370    5.4049 H   0  0  0  0  0  0
   12.3582   14.7374    3.7484 H   0  0  0  0  0  0
   11.7706   15.8952    4.8582 H   0  0  0  0  0  0
   13.8872   15.9393    6.0332 H   0  0  0  0  0  0
   16.4966   16.9298    6.3424 H   0  0  0  0  0  0
   12.9788   11.3237    1.2832 H   0  0  0  0  0  0
   13.0110   11.7272    2.9899 H   0  0  0  0  0  0
   12.9645   13.0143    1.7866 H   0  0  0  0  0  0
   20.1912   14.4349    4.1557 H   0  0  0  0  0  0
   19.3603   14.6354    2.6790 H   0  0  0  0  0  0
   21.0081   16.1234    2.4080 H   0  0  0  0  0  0
   21.7244   18.7987    3.0891 H   0  0  0  0  0  0
   23.3805   19.6967    4.6678 H   0  0  0  0  0  0
   22.8369   16.2936    7.2029 H   0  0  0  0  0  0
   21.1134   15.4319    5.7358 H   0  0  0  0  0  0
  1  2  1  0  0  0
  1 27  1  0  0  0
  1 28  1  0  0  0
  1 29  1  0  0  0
  2  3  1  0  0  0
  2 30  1  0  0  0
  2 31  1  0  0  0
  3  4  1  0  0  0
  3 32  1  0  0  0
  3 33  1  0  0  0
  4  5  1  0  0  0
  4 34  1  0  0  0
  4 35  1  0  0  0
  5  6  1  0  0  0
  5 36  1  0  0  0
  6 14  1  0  0  0
  6  7  2  0  0  0
  7 11  1  0  0  0
  7  8  1  0  0  0
  8  9  2  0  0  0
  8 37  1  0  0  0
  9 10  1  0  0  0
 10 11  1  0  0  0
 10 17  1  0  0  0
 11 12  2  0  0  0
 12 13  1  0  0  0
 13 14  2  0  0  0
 13 15  1  0  0  0
 15 16  1  0  0  0
 16 38  1  0  0  0
 16 39  1  0  0  0
 16 40  1  0  0  0
 17 18  1  0  0  0
 17 41  1  0  0  0
 17 42  1  0  0  0
 18 19  1  0  0  0
 18 26  1  0  0  0
 18 43  1  0  0  0
 19 24  1  0  0  0
 19 20  2  0  0  0
 20 21  1  0  0  0
 20 44  1  0  0  0
 21 22  2  0  0  0
 21 45  1  0  0  0
 22 23  1  0  0  0
 22 25  1  0  0  0
 23 24  2  0  0  0
 23 46  1  0  0  0
 24 47  1  0  0  0
M  END
> <s_m_entry_id>
6567

> <s_m_entry_name>
ligand_docking-pose.78

> <s_m_Source_Path>
/home/csk/Desktop/cluster/DUD-E-result/abl1

> <s_m_Source_File>
ligand_docking-pose.sdf

> <i_m_Source_File_Index>
78

> <i_lp_mmshare_version>
53161

> <r_lp_tautomer_probability>
1

> <s_lp_Force_Field>
OPLS_2005

> <r_lp_Energy>
6.485054

> <b_lp_Chiralities_Consistent>
1

> <s_lp_Variant>
455133-2

> <s_i_glide_gridfile>
glide-grid_2hzi

> <i_i_glide_lignum>
291

> <i_i_glide_rotatable_bonds>
8

> <r_i_docking_score>
-8.18158086376482

> <r_i_glide_ligand_efficiency>
-0.314676187067878

> <r_i_glide_ligand_efficiency_sa>
-0.932226965997581

> <r_i_glide_ligand_efficiency_ln>
-1.9214174198987

> <r_i_glide_gscore>
-8.18158086376482

> <r_i_glide_lipo>
-3.89046810307986

> <r_i_glide_hbond>
0

> <r_i_glide_metal>
0

> <r_i_glide_rewards>
-2.47624742647813

> <r_i_glide_evdw>
-36.0568542480469

> <r_i_glide_ecoul>
-5.11725997924805

> <r_i_glide_erotb>
0.755566375082728

> <r_i_glide_esite>
0

> <r_i_glide_emodel>
-47.9162204803671

> <r_i_glide_energy>
-41.1741142272949

> <r_i_glide_einternal>
13.0378189086914

> <i_i_glide_confnum>
3

> <i_i_glide_posenum>
191

> <r_i_glide_eff_state_penalty>
0

> <i_f3d_flags>
0

> <s_user_duplicate_titles>
455133

> <s_m_subgroup_title>
dock_pv

> <s_m_subgroupid>
dock_pv1

> <b_m_subgroup_collapsed>
0

$$$$
402613
                    3D
 Schrodinger Suite 2021-1.
 48 51  0  0  1  0            999 V2000
   19.0973   19.0839    5.9300 C   0  0  0  0  0  0
   17.7640   17.9941    6.4032 S   0  0  0  0  0  0
   17.4720   16.8241    5.2188 C   0  0  0  0  0  0
   18.4123   16.8422    4.2977 N   0  0  0  0  0  0
   18.4464   15.8774    3.3879 C   0  0  0  0  0  0
   17.4384   14.8762    3.4108 C   0  0  0  0  0  0
   17.0523   13.6408    2.8030 C   0  0  0  0  0  0
   15.8302   13.2985    3.1519 N   0  0  0  0  0  0
   15.3843   14.2305    4.0258 N   0  0  0  0  0  0
   16.3982   15.0995    4.3482 C   0  0  0  0  0  0
   16.3872   16.0312    5.3053 N   0  0  0  0  0  0
   14.0741   14.1901    4.6797 C   0  0  0  0  0  0
   12.8584   13.7180    3.8345 C   0  0  2  0  0  0
   11.5228   13.8157    4.5860 C   0  0  0  0  0  0
   11.4328   13.6309    5.9727 C   0  0  0  0  0  0
   10.1961   13.6327    6.6093 C   0  0  0  0  0  0
    9.0387   13.8317    5.8700 C   0  0  0  0  0  0
    9.1093   14.0330    4.4961 C   0  0  0  0  0  0
   10.3473   14.0310    3.8636 C   0  0  0  0  0  0
   13.0507   12.0576    3.2034 Cl  0  0  0  0  0  0
   19.5070   16.0330    2.4893 N   0  0  0  0  0  0
   20.4668   17.1510    2.5824 C   0  0  0  0  0  0
   21.3434   17.1840    3.8581 C   0  0  0  0  0  0
   21.3639   16.1433    4.8038 C   0  0  0  0  0  0
   22.1629   16.2344    5.9442 C   0  0  0  0  0  0
   22.9606   17.3583    6.1489 C   0  0  0  0  0  0
   22.9539   18.3953    5.2222 C   0  0  0  0  0  0
   22.1540   18.2975    4.0875 C   0  0  0  0  0  0
   22.1640   19.3025    3.2031 F   0  0  0  0  0  0
   18.9679   20.0381    6.4324 H   0  0  0  0  0  0
   20.0687   18.6600    6.1818 H   0  0  0  0  0  0
   19.0373   19.2329    4.8538 H   0  0  0  0  0  0
   17.6034   13.0565    2.0800 H   0  0  0  0  0  0
   13.8582   15.2086    5.0096 H   0  0  0  0  0  0
   14.2117   13.6330    5.5922 H   0  0  0  0  0  0
   12.8004   14.3578    2.9514 H   0  0  0  0  0  0
   12.3046   13.4541    6.5797 H   0  0  0  0  0  0
   10.1384   13.4784    7.6737 H   0  0  0  0  0  0
    8.0846   13.8258    6.3735 H   0  0  0  0  0  0
    8.2125   14.1792    3.9172 H   0  0  0  0  0  0
   10.3891   14.1718    2.8031 H   0  0  0  0  0  0
   19.7428   15.2734    1.8588 H   0  0  0  0  0  0
   21.0800   17.1867    1.6853 H   0  0  0  0  0  0
   19.8859   18.0711    2.5565 H   0  0  0  0  0  0
   20.7722   15.2516    4.6612 H   0  0  0  0  0  0
   22.1680   15.4278    6.6622 H   0  0  0  0  0  0
   23.5920   17.4258    7.0220 H   0  0  0  0  0  0
   23.5658   19.2714    5.3804 H   0  0  0  0  0  0
  1  2  1  0  0  0
  1 30  1  0  0  0
  1 31  1  0  0  0
  1 32  1  0  0  0
  2  3  1  0  0  0
  3 11  1  0  0  0
  3  4  2  0  0  0
  4  5  1  0  0  0
  5  6  2  0  0  0
  5 21  1  0  0  0
  6 10  1  0  0  0
  6  7  1  0  0  0
  7  8  2  0  0  0
  7 33  1  0  0  0
  8  9  1  0  0  0
  9 10  1  0  0  0
  9 12  1  0  0  0
 10 11  2  0  0  0
 12 13  1  0  0  0
 12 34  1  0  0  0
 12 35  1  0  0  0
 13 14  1  0  0  0
 13 20  1  0  0  0
 13 36  1  0  0  0
 14 19  1  0  0  0
 14 15  2  0  0  0
 15 16  1  0  0  0
 15 37  1  0  0  0
 16 17  2  0  0  0
 16 38  1  0  0  0
 17 18  1  0  0  0
 17 39  1  0  0  0
 18 19  2  0  0  0
 18 40  1  0  0  0
 19 41  1  0  0  0
 21 22  1  0  0  0
 21 42  1  0  0  0
 22 23  1  0  0  0
 22 43  1  0  0  0
 22 44  1  0  0  0
 23 28  1  0  0  0
 23 24  2  0  0  0
 24 25  1  0  0  0
 24 45  1  0  0  0
 25 26  2  0  0  0
 25 46  1  0  0  0
 26 27  1  0  0  0
 26 47  1  0  0  0
 27 28  2  0  0  0
 27 48  1  0  0  0
 28 29  1  0  0  0
M  END
> <s_m_entry_id>
6568

> <s_m_entry_name>
ligand_docking-pose.79

> <s_m_Source_Path>
/home/csk/Desktop/cluster/DUD-E-result/abl1

> <s_m_Source_File>
ligand_docking-pose.sdf

> <i_m_Source_File_Index>
79

> <i_lp_mmshare_version>
53161

> <r_lp_tautomer_probability>
1

> <s_lp_Force_Field>
OPLS_2005

> <r_lp_Energy>
8.260506

> <b_lp_Chiralities_Consistent>
1

> <s_lp_Variant>
402613-2

> <s_i_glide_gridfile>
glide-grid_2hzi

> <i_i_glide_lignum>
527

> <i_i_glide_rotatable_bonds>
7

> <r_i_docking_score>
-8.18046632847089

> <r_i_glide_ligand_efficiency>
-0.282085045809341

> <r_i_glide_ligand_efficiency_sa>
-0.86665463154164

> <r_i_glide_ligand_efficiency_ln>
-1.87311935049205

> <r_i_glide_gscore>
-8.18046632847089

> <r_i_glide_lipo>
-4.8308717003969

> <r_i_glide_hbond>
-0.254974627847819

> <r_i_glide_metal>
0

> <r_i_glide_rewards>
-2.14861490739912

> <r_i_glide_evdw>
-24.7924365997314

> <r_i_glide_ecoul>
-2.06990385055542

> <r_i_glide_erotb>
0.650691763995007

> <r_i_glide_esite>
-0.0465894492521693

> <r_i_glide_emodel>
-30.7821577641084

> <r_i_glide_energy>
-26.8623404502869

> <r_i_glide_einternal>
8.361403465271

> <i_i_glide_confnum>
28

> <i_i_glide_posenum>
328

> <r_i_glide_eff_state_penalty>
0

> <i_f3d_flags>
0

> <s_user_duplicate_titles>
402613

> <s_m_subgroup_title>
dock_pv

> <s_m_subgroupid>
dock_pv1

> <b_m_subgroup_collapsed>
0

$$$$
402623
                    3D
 Schrodinger Suite 2021-1.
 45 48  0  0  1  0            999 V2000
   14.9774   11.6331    1.8044 C   0  0  0  0  0  0
   16.6330   12.0623    2.4031 S   0  0  0  0  0  0
   16.3596   13.4813    3.3367 C   0  0  0  0  0  0
   15.0688   13.7814    3.5890 N   0  0  0  0  0  0
   14.7747   14.7572    4.4611 C   0  0  0  0  0  0
   15.8539   15.4714    5.0349 C   0  0  0  0  0  0
   16.1193   16.5412    5.9265 C   0  0  0  0  0  0
   17.3991   16.7358    6.1255 N   0  0  0  0  0  0
   18.0401   15.8055    5.4024 N   0  0  0  0  0  0
   17.1564   15.0500    4.6720 C   0  0  0  0  0  0
   17.4619   14.0635    3.8381 N   0  0  0  0  0  0
   19.4805   15.6484    5.5077 C   0  0  0  0  0  0
   20.2972   16.0909    4.2545 C   0  0  2  0  0  0
   21.4080   17.0610    4.6543 C   0  0  0  0  0  0
   21.5842   18.2774    3.9890 C   0  0  0  0  0  0
   22.5640   19.1667    4.4034 C   0  0  0  0  0  0
   23.3849   18.8326    5.4646 C   0  0  0  0  0  0
   23.2228   17.6328    6.1421 C   0  0  0  0  0  0
   22.2510   16.7336    5.7236 C   0  0  0  0  0  0
   19.2905   16.6830    2.8803 Cl  0  0  0  0  0  0
   13.4089   14.9554    4.7696 N   0  0  0  0  0  0
   12.2182   14.2908    4.3520 C   0  0  0  0  0  0
   10.9846   14.8332    4.7121 C   0  0  0  0  0  0
    9.7673   14.2615    4.3419 C   0  0  0  0  0  0
    9.7563   13.1328    3.5326 C   0  0  0  0  0  0
   10.9627   12.5866    3.1112 C   0  0  0  0  0  0
   12.1694   13.1421    3.5478 C   0  0  0  0  0  0
   10.9657   11.2599    2.0025 Cl  0  0  0  0  0  0
   14.9638   10.8652    1.0376 H   0  0  0  0  0  0
   14.4456   11.2341    2.6643 H   0  0  0  0  0  0
   14.4543   12.5060    1.4131 H   0  0  0  0  0  0
   15.3939   17.1659    6.3998 H   0  0  0  0  0  0
   19.6734   14.5974    5.7246 H   0  0  0  0  0  0
   19.7986   16.1812    6.4026 H   0  0  0  0  0  0
   20.7989   15.2091    3.8547 H   0  0  0  0  0  0
   20.9747   18.5440    3.1463 H   0  0  0  0  0  0
   22.7000   20.1019    3.8856 H   0  0  0  0  0  0
   24.1627   19.5103    5.7580 H   0  0  0  0  0  0
   23.8640   17.3900    6.9770 H   0  0  0  0  0  0
   22.1533   15.7916    6.2419 H   0  0  0  0  0  0
   13.2575   15.7123    5.4163 H   0  0  0  0  0  0
   10.9644   15.7859    5.2057 H   0  0  0  0  0  0
    8.8345   14.7169    4.6404 H   0  0  0  0  0  0
    8.8206   12.6987    3.2081 H   0  0  0  0  0  0
   13.0555   12.6566    3.2132 H   0  0  0  0  0  0
  1  2  1  0  0  0
  1 29  1  0  0  0
  1 30  1  0  0  0
  1 31  1  0  0  0
  2  3  1  0  0  0
  3 11  1  0  0  0
  3  4  2  0  0  0
  4  5  1  0  0  0
  5  6  2  0  0  0
  5 21  1  0  0  0
  6 10  1  0  0  0
  6  7  1  0  0  0
  7  8  2  0  0  0
  7 32  1  0  0  0
  8  9  1  0  0  0
  9 10  1  0  0  0
  9 12  1  0  0  0
 10 11  2  0  0  0
 12 13  1  0  0  0
 12 33  1  0  0  0
 12 34  1  0  0  0
 13 14  1  0  0  0
 13 20  1  0  0  0
 13 35  1  0  0  0
 14 19  1  0  0  0
 14 15  2  0  0  0
 15 16  1  0  0  0
 15 36  1  0  0  0
 16 17  2  0  0  0
 16 37  1  0  0  0
 17 18  1  0  0  0
 17 38  1  0  0  0
 18 19  2  0  0  0
 18 39  1  0  0  0
 19 40  1  0  0  0
 21 22  1  0  0  0
 21 41  1  0  0  0
 22 27  1  0  0  0
 22 23  2  0  0  0
 23 24  1  0  0  0
 23 42  1  0  0  0
 24 25  2  0  0  0
 24 43  1  0  0  0
 25 26  1  0  0  0
 25 44  1  0  0  0
 26 27  2  0  0  0
 26 28  1  0  0  0
 27 45  1  0  0  0
M  END
> <s_m_entry_id>
6569

> <s_m_entry_name>
ligand_docking-pose.80

> <s_m_Source_Path>
/home/csk/Desktop/cluster/DUD-E-result/abl1

> <s_m_Source_File>
ligand_docking-pose.sdf

> <i_m_Source_File_Index>
80

> <i_lp_mmshare_version>
53161

> <r_lp_tautomer_probability>
1

> <s_lp_Force_Field>
OPLS_2005

> <r_lp_Energy>
12.613436

> <b_lp_Chiralities_Consistent>
1

> <s_lp_Variant>
402623-2

> <s_i_glide_gridfile>
glide-grid_2hzi

> <i_i_glide_lignum>
519

> <i_i_glide_rotatable_bonds>
6

> <r_i_docking_score>
-8.15231546372594

> <r_i_glide_ligand_efficiency>
-0.291154123704498

> <r_i_glide_ligand_efficiency_sa>
-0.884115400175183

> <r_i_glide_ligand_efficiency_ln>
-1.88179377141091

> <r_i_glide_gscore>
-8.15231546372594

> <r_i_glide_lipo>
-4.46572883239423

> <r_i_glide_hbond>
0

> <r_i_glide_metal>
0

> <r_i_glide_rewards>
-2.21626525504547

> <r_i_glide_evdw>
-34.6622505187988

> <r_i_glide_ecoul>
-1.82616627216339

> <r_i_glide_erotb>
0.536716090478208

> <r_i_glide_esite>
0

> <r_i_glide_emodel>
-39.8665199864315

> <r_i_glide_energy>
-36.4884167909622

> <r_i_glide_einternal>
13.5613880157471

> <i_i_glide_confnum>
34

> <i_i_glide_posenum>
123

> <r_i_glide_eff_state_penalty>
0

> <i_f3d_flags>
0

> <s_user_duplicate_titles>
402623

> <s_m_subgroup_title>
dock_pv

> <s_m_subgroupid>
dock_pv1

> <b_m_subgroup_collapsed>
0

$$$$
436558
                    3D
 Schrodinger Suite 2021-1.
 35 37  0  0  1  0            999 V2000
    9.6860   13.5097    3.5646 C   0  0  0  0  0  0
   10.5751   14.2602    4.3313 C   0  0  0  0  0  0
   11.9253   13.9224    4.3521 C   0  0  0  0  0  0
   12.3796   12.8330    3.6030 C   0  0  0  0  0  0
   11.4901   12.1054    2.8030 C   0  0  0  0  0  0
   10.1368   12.4330    2.8028 C   0  0  0  0  0  0
   13.8051   12.3399    3.7736 C   0  0  0  0  0  0
   14.7345   12.4330    2.2297 S   0  0  0  0  0  0
   16.2682   12.9752    2.8560 C   0  0  0  0  0  0
   17.3640   12.2708    2.7659 N   0  0  0  0  0  0
   18.4830   12.9569    3.2030 N   0  0  0  0  0  0
   18.2018   14.1522    3.6504 C   0  0  0  0  0  0
   16.4976   14.5404    3.5854 S   0  0  0  0  0  0
   19.2209   14.9998    4.0447 N   0  0  0  0  0  0
   19.1327   16.1966    4.6548 C   0  0  0  0  0  0
   18.0990   16.7994    4.9446 O   0  0  0  0  0  0
   20.4732   16.8075    4.9357 C   0  0  0  0  0  0
   20.8281   17.9889    4.2734 C   0  0  0  0  0  0
   22.0621   18.5943    4.5092 C   0  0  0  0  0  0
   22.9466   18.0316    5.4242 C   0  0  0  0  0  0
   22.5936   16.8637    6.0984 C   0  0  0  0  0  0
   21.3604   16.2519    5.8776 C   0  0  0  0  0  0
   20.9731   14.8335    6.8014 Cl  0  0  0  0  0  0
    8.6346   13.7575    3.5650 H   0  0  0  0  0  0
   10.2162   15.0863    4.9260 H   0  0  0  0  0  0
   12.6043   14.4804    4.9810 H   0  0  0  0  0  0
   11.8345   11.2498    2.2374 H   0  0  0  0  0  0
    9.4403   11.8482    2.2190 H   0  0  0  0  0  0
   13.7736   11.2924    4.0766 H   0  0  0  0  0  0
   14.3118   12.8825    4.5709 H   0  0  0  0  0  0
   20.1535   14.6685    3.8442 H   0  0  0  0  0  0
   20.1463   18.4329    3.5636 H   0  0  0  0  0  0
   22.3305   19.5028    3.9889 H   0  0  0  0  0  0
   23.9016   18.5005    5.6144 H   0  0  0  0  0  0
   23.2897   16.4327    6.8030 H   0  0  0  0  0  0
  1  6  1  0  0  0
  1  2  2  0  0  0
  1 24  1  0  0  0
  2  3  1  0  0  0
  2 25  1  0  0  0
  3  4  2  0  0  0
  3 26  1  0  0  0
  4  5  1  0  0  0
  4  7  1  0  0  0
  5  6  2  0  0  0
  5 27  1  0  0  0
  6 28  1  0  0  0
  7  8  1  0  0  0
  7 29  1  0  0  0
  7 30  1  0  0  0
  8  9  1  0  0  0
  9 13  1  0  0  0
  9 10  2  0  0  0
 10 11  1  0  0  0
 11 12  2  0  0  0
 12 13  1  0  0  0
 12 14  1  0  0  0
 14 15  1  0  0  0
 14 31  1  0  0  0
 15 16  2  0  0  0
 15 17  1  0  0  0
 17 22  1  0  0  0
 17 18  2  0  0  0
 18 19  1  0  0  0
 18 32  1  0  0  0
 19 20  2  0  0  0
 19 33  1  0  0  0
 20 21  1  0  0  0
 20 34  1  0  0  0
 21 22  2  0  0  0
 21 35  1  0  0  0
 22 23  1  0  0  0
M  END
> <s_m_entry_id>
6572

> <s_m_entry_name>
ligand_docking-pose.83

> <s_m_Source_Path>
/home/csk/Desktop/cluster/DUD-E-result/abl1

> <s_m_Source_File>
ligand_docking-pose.sdf

> <i_m_Source_File_Index>
83

> <i_lp_mmshare_version>
53161

> <r_lp_tautomer_probability>
1

> <s_lp_Force_Field>
OPLS_2005

> <r_lp_Energy>
17.214257

> <b_lp_Chiralities_Consistent>
1

> <s_lp_Variant>
436558-1

> <s_i_glide_gridfile>
glide-grid_2hzi

> <i_i_glide_lignum>
79

> <i_i_glide_rotatable_bonds>
6

> <r_i_docking_score>
-8.09677573723054

> <r_i_glide_ligand_efficiency>
-0.352033727705676

> <r_i_glide_ligand_efficiency_sa>
-1.00113709296988

> <r_i_glide_ligand_efficiency_ln>
-1.95787379076563

> <r_i_glide_gscore>
-8.09677573723054

> <r_i_glide_lipo>
-4.2734078998386

> <r_i_glide_hbond>
0

> <r_i_glide_metal>
0

> <r_i_glide_rewards>
-1.61868837894289

> <r_i_glide_evdw>
-50.5177383422852

> <r_i_glide_ecoul>
-3.72205424308777

> <r_i_glide_erotb>
0.879515595128375

> <r_i_glide_esite>
0

> <r_i_glide_emodel>
-76.7789540454645

> <r_i_glide_energy>
-54.2397925853729

> <r_i_glide_einternal>
5.88521432876587

> <i_i_glide_confnum>
3

> <i_i_glide_posenum>
311

> <r_i_glide_eff_state_penalty>
0

> <i_f3d_flags>
0

> <s_user_duplicate_titles>
436558

> <s_m_subgroup_title>
dock_pv

> <s_m_subgroupid>
dock_pv1

> <b_m_subgroup_collapsed>
0

$$$$
455211
                    3D
 Schrodinger Suite 2021-1.
 44 46  0  0  1  0            999 V2000
   10.4859   13.6364    5.3858 C   0  0  0  0  0  0
   11.9819   13.8864    5.6139 C   0  0  0  0  0  0
   12.5080   15.0808    4.8030 C   0  0  0  0  0  0
   13.8644   15.4958    5.1729 N   0  0  0  0  0  0
   14.9836   14.9376    4.5759 C   0  0  0  0  0  0
   16.2835   15.4120    4.8031 C   0  0  0  0  0  0
   16.9662   16.4132    5.5611 C   0  0  0  0  0  0
   18.2480   16.4142    5.2795 N   0  0  0  0  0  0
   18.4719   15.3924    4.4173 N   0  0  0  0  0  0
   17.2970   14.7628    4.0642 C   0  0  0  0  0  0
   17.1178   13.7456    3.2033 N   0  0  0  0  0  0
   15.8130   13.3901    3.0890 C   0  0  0  0  0  0
   14.7667   13.9321    3.7172 N   0  0  0  0  0  0
   15.3640   12.1087    2.0030 S   0  0  0  0  0  0
   13.5373   12.0330    2.0047 C   0  0  0  0  0  0
   19.8007   15.0793    3.9046 C   0  0  0  0  0  0
   20.9735   15.2439    4.9093 C   0  0  1  0  0  0
   21.6092   16.6269    5.0275 C   0  0  0  0  0  0
   22.5910   16.8181    6.0028 C   0  0  0  0  0  0
   23.3062   18.0068    6.0619 C   0  0  0  0  0  0
   23.0371   19.0052    5.1416 C   0  0  0  0  0  0
   22.0590   18.8365    4.1729 C   0  0  0  0  0  0
   21.3276   17.6595    4.1238 C   0  0  0  0  0  0
   20.4876   14.5009    6.6967 Br  0  0  0  0  0  0
   10.1232   12.8327    6.0247 H   0  0  0  0  0  0
   10.2820   13.3592    4.3508 H   0  0  0  0  0  0
    9.8939   14.5220    5.6186 H   0  0  0  0  0  0
   12.1631   14.0328    6.6792 H   0  0  0  0  0  0
   12.5548   12.9966    5.3488 H   0  0  0  0  0  0
   12.4453   14.8328    3.7435 H   0  0  0  0  0  0
   11.8493   15.9447    4.8917 H   0  0  0  0  0  0
   13.9911   16.0376    6.0176 H   0  0  0  0  0  0
   16.5477   17.1320    6.2500 H   0  0  0  0  0  0
   13.1738   11.3700    1.2178 H   0  0  0  0  0  0
   13.1885   11.6337    2.9568 H   0  0  0  0  0  0
   13.0791   13.0093    1.8633 H   0  0  0  0  0  0
   19.7632   14.0359    3.6014 H   0  0  0  0  0  0
   19.9472   15.6285    2.9752 H   0  0  0  0  0  0
   21.7780   14.5988    4.5556 H   0  0  0  0  0  0
   22.8457   16.0310    6.6968 H   0  0  0  0  0  0
   24.0799   18.1418    6.8041 H   0  0  0  0  0  0
   23.6017   19.9259    5.1739 H   0  0  0  0  0  0
   21.8685   19.6286    3.4665 H   0  0  0  0  0  0
   20.5793   17.5697    3.3540 H   0  0  0  0  0  0
  1  2  1  0  0  0
  1 25  1  0  0  0
  1 26  1  0  0  0
  1 27  1  0  0  0
  2  3  1  0  0  0
  2 28  1  0  0  0
  2 29  1  0  0  0
  3  4  1  0  0  0
  3 30  1  0  0  0
  3 31  1  0  0  0
  4  5  1  0  0  0
  4 32  1  0  0  0
  5 13  1  0  0  0
  5  6  2  0  0  0
  6 10  1  0  0  0
  6  7  1  0  0  0
  7  8  2  0  0  0
  7 33  1  0  0  0
  8  9  1  0  0  0
  9 10  1  0  0  0
  9 16  1  0  0  0
 10 11  2  0  0  0
 11 12  1  0  0  0
 12 13  2  0  0  0
 12 14  1  0  0  0
 14 15  1  0  0  0
 15 34  1  0  0  0
 15 35  1  0  0  0
 15 36  1  0  0  0
 16 17  1  0  0  0
 16 37  1  0  0  0
 16 38  1  0  0  0
 17 18  1  0  0  0
 17 24  1  0  0  0
 17 39  1  0  0  0
 18 23  1  0  0  0
 18 19  2  0  0  0
 19 20  1  0  0  0
 19 40  1  0  0  0
 20 21  2  0  0  0
 20 41  1  0  0  0
 21 22  1  0  0  0
 21 42  1  0  0  0
 22 23  2  0  0  0
 22 43  1  0  0  0
 23 44  1  0  0  0
M  END
> <s_m_entry_id>
6575

> <s_m_entry_name>
ligand_docking-pose.86

> <s_m_Source_Path>
/home/csk/Desktop/cluster/DUD-E-result/abl1

> <s_m_Source_File>
ligand_docking-pose.sdf

> <i_m_Source_File_Index>
86

> <i_lp_mmshare_version>
53161

> <r_lp_tautomer_probability>
1

> <s_lp_Force_Field>
OPLS_2005

> <r_lp_Energy>
5.661907

> <b_lp_Chiralities_Consistent>
1

> <s_lp_Variant>
455211-1

> <s_i_glide_gridfile>
glide-grid_2hzi

> <i_i_glide_lignum>
302

> <i_i_glide_rotatable_bonds>
7

> <r_i_docking_score>
-8.0805712253739

> <r_i_glide_ligand_efficiency>
-0.336690467723913

> <r_i_glide_ligand_efficiency_sa>
-0.971183363774002

> <r_i_glide_ligand_efficiency_ln>
-1.9340514874843

> <r_i_glide_gscore>
-8.0805712253739

> <r_i_glide_lipo>
-3.8830131020211

> <r_i_glide_hbond>
0

> <r_i_glide_metal>
0

> <r_i_glide_rewards>
-2.13673315283314

> <r_i_glide_evdw>
-36.0969734191895

> <r_i_glide_ecoul>
-5.67572641372681

> <r_i_glide_erotb>
0.595382662498835

> <r_i_glide_esite>
0

> <r_i_glide_emodel>
-52.2340615987058

> <r_i_glide_energy>
-41.7726998329163

> <r_i_glide_einternal>
11.6693239212036

> <i_i_glide_confnum>
9

> <i_i_glide_posenum>
231

> <r_i_glide_eff_state_penalty>
0

> <i_f3d_flags>
0

> <s_user_duplicate_titles>
455211

> <s_m_subgroup_title>
dock_pv

> <s_m_subgroupid>
dock_pv1

> <b_m_subgroup_collapsed>
0

$$$$
454781
                    3D
 Schrodinger Suite 2021-1.
 47 49  0  0  1  0            999 V2000
   10.6372   12.0270    2.6525 C   0  0  0  0  0  0
   12.1540   12.2346    2.8263 C   0  0  0  0  0  0
   12.5993   13.3911    3.6363 N   0  0  0  0  0  0
   11.8589   13.7390    4.8649 C   0  0  0  0  0  0
   10.6535   14.6643    4.6542 C   0  0  0  0  0  0
   13.9988   13.6668    3.6539 C   0  0  0  0  0  0
   14.5597   14.8135    4.2611 C   0  0  0  0  0  0
   14.1527   16.0332    4.8000 C   0  0  0  0  0  0
   15.1744   16.7460    5.2031 N   0  0  0  0  0  0
   16.3050   16.0457    5.0224 N   0  0  0  0  0  0
   15.9687   14.9065    4.3351 C   0  0  0  0  0  0
   16.8006   14.0714    3.7848 N   0  0  0  0  0  0
   16.1763   13.0810    3.1480 C   0  0  0  0  0  0
   14.8565   12.8135    3.0341 N   0  0  0  0  0  0
   17.2491   12.0330    2.4030 S   0  0  0  0  0  0
   18.8328   12.1473    3.2060 C   0  0  0  0  0  0
   17.5908   16.7923    5.1342 C   0  0  0  0  0  0
   18.8816   15.9321    5.0401 C   0  0  1  0  0  0
   20.2321   16.6575    5.0937 C   0  0  0  0  0  0
   21.3369   16.0284    5.6971 C   0  0  0  0  0  0
   22.5392   16.6958    5.8451 C   0  0  0  0  0  0
   22.6636   17.9747    5.3318 C   0  0  0  0  0  0
   21.6266   18.5726    4.6296 C   0  0  0  0  0  0
   20.4007   17.9227    4.5209 C   0  0  0  0  0  0
   24.1120   18.8330    5.6030 Cl  0  0  0  0  0  0
   18.7716   14.8327    6.4032 Cl  0  0  0  0  0  0
   10.4503   11.1095    2.0924 H   0  0  0  0  0  0
   10.1172   11.9235    3.6030 H   0  0  0  0  0  0
   10.1635   12.8333    2.0971 H   0  0  0  0  0  0
   12.5963   12.3137    1.8320 H   0  0  0  0  0  0
   12.5826   11.3248    3.2488 H   0  0  0  0  0  0
   11.5116   12.8330    5.3498 H   0  0  0  0  0  0
   12.5069   14.1777    5.6228 H   0  0  0  0  0  0
   10.1393   14.8331    5.6005 H   0  0  0  0  0  0
   10.9643   15.6332    4.2817 H   0  0  0  0  0  0
    9.9211   14.2576    3.9600 H   0  0  0  0  0  0
   13.1465   16.4215    4.8030 H   0  0  0  0  0  0
   19.3639   11.2116    3.0635 H   0  0  0  0  0  0
   19.3951   12.9874    2.8030 H   0  0  0  0  0  0
   18.6650   12.2718    4.2758 H   0  0  0  0  0  0
   17.5752   17.3450    6.0757 H   0  0  0  0  0  0
   17.6052   17.5389    4.3485 H   0  0  0  0  0  0
   18.9085   15.3415    4.1259 H   0  0  0  0  0  0
   21.2819   15.0263    6.0943 H   0  0  0  0  0  0
   23.3641   16.2270    6.3646 H   0  0  0  0  0  0
   21.7640   19.5589    4.2107 H   0  0  0  0  0  0
   19.5943   18.4178    4.0023 H   0  0  0  0  0  0
  1  2  1  0  0  0
  1 27  1  0  0  0
  1 28  1  0  0  0
  1 29  1  0  0  0
  2  3  1  0  0  0
  2 30  1  0  0  0
  2 31  1  0  0  0
  3  4  1  0  0  0
  3  6  1  0  0  0
  4  5  1  0  0  0
  4 32  1  0  0  0
  4 33  1  0  0  0
  5 34  1  0  0  0
  5 35  1  0  0  0
  5 36  1  0  0  0
  6 14  1  0  0  0
  6  7  2  0  0  0
  7 11  1  0  0  0
  7  8  1  0  0  0
  8  9  2  0  0  0
  8 37  1  0  0  0
  9 10  1  0  0  0
 10 11  1  0  0  0
 10 17  1  0  0  0
 11 12  2  0  0  0
 12 13  1  0  0  0
 13 14  2  0  0  0
 13 15  1  0  0  0
 15 16  1  0  0  0
 16 38  1  0  0  0
 16 39  1  0  0  0
 16 40  1  0  0  0
 17 18  1  0  0  0
 17 41  1  0  0  0
 17 42  1  0  0  0
 18 19  1  0  0  0
 18 26  1  0  0  0
 18 43  1  0  0  0
 19 24  1  0  0  0
 19 20  2  0  0  0
 20 21  1  0  0  0
 20 44  1  0  0  0
 21 22  2  0  0  0
 21 45  1  0  0  0
 22 23  1  0  0  0
 22 25  1  0  0  0
 23 24  2  0  0  0
 23 46  1  0  0  0
 24 47  1  0  0  0
M  END
> <s_m_entry_id>
6576

> <s_m_entry_name>
ligand_docking-pose.87

> <s_m_Source_Path>
/home/csk/Desktop/cluster/DUD-E-result/abl1

> <s_m_Source_File>
ligand_docking-pose.sdf

> <i_m_Source_File_Index>
87

> <i_lp_mmshare_version>
53161

> <r_lp_tautomer_probability>
1

> <s_lp_Force_Field>
OPLS_2005

> <r_lp_Energy>
8.774758

> <b_lp_Chiralities_Consistent>
1

> <s_lp_Variant>
454781-1

> <s_i_glide_gridfile>
glide-grid_2hzi

> <i_i_glide_lignum>
331

> <i_i_glide_rotatable_bonds>
7

> <r_i_docking_score>
-8.07137708459873

> <r_i_glide_ligand_efficiency>
-0.310437580176874

> <r_i_glide_ligand_efficiency_sa>
-0.919670109761097

> <r_i_glide_ligand_efficiency_ln>
-1.89553642396964

> <r_i_glide_gscore>
-8.07137708459873

> <r_i_glide_lipo>
-4.26090303946143

> <r_i_glide_hbond>
0

> <r_i_glide_metal>
0

> <r_i_glide_rewards>
-2.75815876046911

> <r_i_glide_evdw>
-25.0420627593994

> <r_i_glide_ecoul>
-1.78758156299591

> <r_i_glide_erotb>
0.467925087751168

> <r_i_glide_esite>
0

> <r_i_glide_emodel>
-28.3365502608191

> <r_i_glide_energy>
-26.8296443223953

> <r_i_glide_einternal>
16.9500827789307

> <i_i_glide_confnum>
16

> <i_i_glide_posenum>
4

> <r_i_glide_eff_state_penalty>
0

> <i_f3d_flags>
0

> <s_user_duplicate_titles>
454781

> <s_m_subgroup_title>
dock_pv

> <s_m_subgroupid>
dock_pv1

> <b_m_subgroup_collapsed>
0

$$$$
489661
                    3D
 Schrodinger Suite 2021-1.
 36 38  0  0  1  0            999 V2000
   23.9841   18.5927    5.8540 C   0  0  0  0  0  0
   23.0972   17.6306    6.4019 O   0  0  0  0  0  0
   22.0673   17.1364    5.6328 C   0  0  0  0  0  0
   21.4013   16.0274    6.1496 C   0  0  0  0  0  0
   20.3539   15.4398    5.4471 C   0  0  0  0  0  0
   19.9555   15.9769    4.2215 C   0  0  0  0  0  0
   20.6086   17.0980    3.7029 C   0  0  0  0  0  0
   21.6660   17.6747    4.4011 C   0  0  0  0  0  0
   18.8433   15.3053    3.4263 C   0  0  0  0  0  0
   17.4826   15.3123    4.1042 C   0  0  0  0  0  0
   17.0118   15.9839    5.2399 C   0  0  0  0  0  0
   15.7587   15.7925    5.6018 N   0  0  0  0  0  0
   15.1406   14.9732    4.7945 C   0  0  0  0  0  0
   16.1362   14.3869    3.4878 S   0  0  0  0  0  0
   13.8105   14.6273    5.0231 N   0  0  0  0  0  0
   12.9916   13.8528    4.2774 C   0  0  0  0  0  0
   13.2796   13.3272    3.2028 O   0  0  0  0  0  0
   11.6635   13.7496    4.8286 C   0  0  0  0  0  0
   11.2905   13.6330    6.1691 C   0  0  0  0  0  0
    9.9053   13.6259    6.3562 C   0  0  0  0  0  0
    9.2120   13.6184    5.1565 C   0  0  0  0  0  0
   10.2698   13.6424    3.7877 S   0  0  0  0  0  0
   24.7197   18.8328    6.6199 H   0  0  0  0  0  0
   24.5342   18.1959    4.9981 H   0  0  0  0  0  0
   23.4777   19.5154    5.5719 H   0  0  0  0  0  0
   21.7162   15.6084    7.0928 H   0  0  0  0  0  0
   19.8612   14.5649    5.8471 H   0  0  0  0  0  0
   20.3153   17.5106    2.7482 H   0  0  0  0  0  0
   22.1619   18.5328    3.9746 H   0  0  0  0  0  0
   19.1545   14.2798    3.2293 H   0  0  0  0  0  0
   18.7810   15.7750    2.4456 H   0  0  0  0  0  0
   17.6185   16.6479    5.8393 H   0  0  0  0  0  0
   13.4123   15.0265    5.8586 H   0  0  0  0  0  0
   11.9893   13.6156    6.9956 H   0  0  0  0  0  0
    9.4279   13.5972    7.3266 H   0  0  0  0  0  0
    8.1443   13.5825    5.0156 H   0  0  0  0  0  0
  1  2  1  0  0  0
  1 23  1  0  0  0
  1 24  1  0  0  0
  1 25  1  0  0  0
  2  3  1  0  0  0
  3  8  1  0  0  0
  3  4  2  0  0  0
  4  5  1  0  0  0
  4 26  1  0  0  0
  5  6  2  0  0  0
  5 27  1  0  0  0
  6  7  1  0  0  0
  6  9  1  0  0  0
  7  8  2  0  0  0
  7 28  1  0  0  0
  8 29  1  0  0  0
  9 10  1  0  0  0
  9 30  1  0  0  0
  9 31  1  0  0  0
 10 14  1  0  0  0
 10 11  2  0  0  0
 11 12  1  0  0  0
 11 32  1  0  0  0
 12 13  2  0  0  0
 13 14  1  0  0  0
 13 15  1  0  0  0
 15 16  1  0  0  0
 15 33  1  0  0  0
 16 17  2  0  0  0
 16 18  1  0  0  0
 18 22  1  0  0  0
 18 19  2  0  0  0
 19 20  1  0  0  0
 19 34  1  0  0  0
 20 21  2  0  0  0
 20 35  1  0  0  0
 21 22  1  0  0  0
 21 36  1  0  0  0
M  END
> <s_m_entry_id>
6577

> <s_m_entry_name>
ligand_docking-pose.88

> <s_m_Source_Path>
/home/csk/Desktop/cluster/DUD-E-result/abl1

> <s_m_Source_File>
ligand_docking-pose.sdf

> <i_m_Source_File_Index>
88

> <i_lp_mmshare_version>
53161

> <r_lp_tautomer_probability>
0.999000488399163

> <s_lp_Force_Field>
OPLS_2005

> <r_lp_Energy>
13.939233

> <b_lp_Chiralities_Consistent>
1

> <s_lp_Variant>
489661-1

> <s_i_glide_gridfile>
glide-grid_2hzi

> <i_i_glide_lignum>
475

> <i_i_glide_rotatable_bonds>
6

> <r_i_docking_score>
-8.06754904928282

> <r_i_glide_ligand_efficiency>
-0.366706774967401

> <r_i_glide_ligand_efficiency_sa>
-1.02752680521774

> <r_i_glide_ligand_efficiency_ln>
-1.97200325864627

> <r_i_glide_gscore>
-8.06754904928282

> <r_i_glide_lipo>
-4.44172448227885

> <r_i_glide_hbond>
0

> <r_i_glide_metal>
0

> <r_i_glide_rewards>
-2.20871534869903

> <r_i_glide_evdw>
-46.4918212890625

> <r_i_glide_ecoul>
0.307778090238571

> <r_i_glide_erotb>
0.861315132612397

> <r_i_glide_esite>
0

> <r_i_glide_emodel>
-62.3521347522163

> <r_i_glide_energy>
-46.1840431988239

> <r_i_glide_einternal>
6.92524194717407

> <i_i_glide_confnum>
28

> <i_i_glide_posenum>
293

> <r_i_glide_eff_state_penalty>
0

> <i_f3d_flags>
0

> <s_user_duplicate_titles>
489661

> <s_m_subgroup_title>
dock_pv

> <s_m_subgroupid>
dock_pv1

> <b_m_subgroup_collapsed>
0

$$$$
67781
                    3D
 Schrodinger Suite 2021-1.
 35 37  0  0  1  0            999 V2000
   11.4454   14.6538    4.8030 C   0  0  0  0  0  0
   12.1979   13.7285    3.8832 C   0  0  0  0  0  0
   13.5786   13.6601    3.6123 C   0  0  0  0  0  0
   13.8085   12.4330    2.4030 S   0  0  0  0  0  0
   12.0977   12.1461    2.4087 C   0  0  0  0  0  0
   11.4250   12.8926    3.2223 N   0  0  0  0  0  0
   11.5011   11.2330    1.6030 N   0  0  0  0  0  0
   14.7457   14.4154    4.1677 C   0  0  0  0  0  0
   14.6508   14.9673    5.4406 C   0  0  0  0  0  0
   15.7640   15.6330    5.9437 C   0  0  0  0  0  0
   16.9082   15.7643    5.2331 N   0  0  0  0  0  0
   16.9342   15.1816    4.0046 C   0  0  0  0  0  0
   15.8990   14.4993    3.4402 N   0  0  0  0  0  0
   18.0825   15.3320    3.2191 N   0  0  0  0  0  0
   19.2604   16.0417    3.4907 C   0  0  0  0  0  0
   19.7723   16.9136    2.5286 C   0  0  0  0  0  0
   20.9375   17.6330    2.7827 C   0  0  0  0  0  0
   21.5925   17.4951    4.0031 C   0  0  0  0  0  0
   21.1144   16.5977    4.9699 C   0  0  0  0  0  0
   19.9415   15.8779    4.6991 C   0  0  0  0  0  0
   21.8433   16.3986    6.2406 N   0  3  0  0  0  0
   22.8918   17.0140    6.4030 O   0  5  0  0  0  0
   21.3640   15.6330    7.0749 O   0  0  0  0  0  0
   11.9023   15.6433    4.8149 H   0  0  0  0  0  0
   10.4070   14.8105    4.5055 H   0  0  0  0  0  0
   11.4283   14.2577    5.8174 H   0  0  0  0  0  0
   10.5014   11.0924    1.6243 H   0  0  0  0  0  0
   12.0452   10.4387    1.2863 H   0  0  0  0  0  0
   13.7640   14.8330    6.0295 H   0  0  0  0  0  0
   15.7640   16.0372    6.9437 H   0  0  0  0  0  0
   18.0437   14.8679    2.3248 H   0  0  0  0  0  0
   19.2766   17.0430    1.5804 H   0  0  0  0  0  0
   21.3425   18.2947    2.0300 H   0  0  0  0  0  0
   22.4959   18.0637    4.1766 H   0  0  0  0  0  0
   19.5542   15.1779    5.4257 H   0  0  0  0  0  0
  1  2  1  0  0  0
  1 24  1  0  0  0
  1 25  1  0  0  0
  1 26  1  0  0  0
  2  6  1  0  0  0
  2  3  2  0  0  0
  3  4  1  0  0  0
  3  8  1  0  0  0
  4  5  1  0  0  0
  5  6  2  0  0  0
  5  7  1  0  0  0
  7 27  1  0  0  0
  7 28  1  0  0  0
  8 13  1  0  0  0
  8  9  2  0  0  0
  9 10  1  0  0  0
  9 29  1  0  0  0
 10 11  2  0  0  0
 10 30  1  0  0  0
 11 12  1  0  0  0
 12 13  2  0  0  0
 12 14  1  0  0  0
 14 15  1  0  0  0
 14 31  1  0  0  0
 15 20  1  0  0  0
 15 16  2  0  0  0
 16 17  1  0  0  0
 16 32  1  0  0  0
 17 18  2  0  0  0
 17 33  1  0  0  0
 18 19  1  0  0  0
 18 34  1  0  0  0
 19 20  2  0  0  0
 19 21  1  0  0  0
 20 35  1  0  0  0
 21 22  1  0  0  0
 21 23  2  0  0  0
M  CHG  2  21   1  22  -1
M  END
> <s_m_entry_id>
6578

> <s_m_entry_name>
ligand_docking-pose.89

> <s_m_Source_Path>
/home/csk/Desktop/cluster/DUD-E-result/abl1

> <s_m_Source_File>
ligand_docking-pose.sdf

> <i_m_Source_File_Index>
89

> <i_lp_mmshare_version>
53161

> <r_lp_tautomer_probability>
0.999999987636

> <s_lp_Force_Field>
OPLS_2005

> <r_lp_Energy>
6.396055

> <b_lp_Chiralities_Consistent>
1

> <s_lp_Variant>
67781-1

> <s_i_glide_gridfile>
glide-grid_2hzi

> <i_i_glide_lignum>
281

> <i_i_glide_rotatable_bonds>
4

> <r_i_docking_score>
-7.98299543793017

> <r_i_glide_ligand_efficiency>
-0.347086758170877

> <r_i_glide_ligand_efficiency_sa>
-0.987068569674233

> <r_i_glide_ligand_efficiency_ln>
-1.93036068269209

> <r_i_glide_gscore>
-7.98299543793017

> <r_i_glide_lipo>
-3.26073319631348

> <r_i_glide_hbond>
-0.217222484171673

> <r_i_glide_metal>
0

> <r_i_glide_rewards>
-2.41718356447622

> <r_i_glide_evdw>
-39.7764129638672

> <r_i_glide_ecoul>
-4.00557804107666

> <r_i_glide_erotb>
0.522578286235038

> <r_i_glide_esite>
-0.0207771248489721

> <r_i_glide_emodel>
-62.7320634027819

> <r_i_glide_energy>
-43.7819910049438

> <r_i_glide_einternal>
2.78719353675842

> <i_i_glide_confnum>
13

> <i_i_glide_posenum>
351

> <r_i_glide_eff_state_penalty>
0

> <i_f3d_flags>
0

> <s_user_duplicate_titles>
67781

> <s_m_subgroup_title>
dock_pv

> <s_m_subgroupid>
dock_pv1

> <b_m_subgroup_collapsed>
0

$$$$
454703
                    3D
 Schrodinger Suite 2021-1.
 48 51  0  0  1  0            999 V2000
   19.9076   18.8334    6.0943 C   0  0  0  0  0  0
   18.1641   18.5754    6.4030 S   0  0  0  0  0  0
   17.7108   17.2124    5.4085 C   0  0  0  0  0  0
   18.5921   17.0884    4.4312 N   0  0  0  0  0  0
   18.5459   16.0571    3.6101 C   0  0  0  0  0  0
   17.5082   15.1383    3.7285 C   0  0  0  0  0  0
   17.0924   13.9189    3.1421 C   0  0  0  0  0  0
   15.8804   13.6380    3.5187 N   0  0  0  0  0  0
   15.4751   14.5826    4.3978 N   0  0  0  0  0  0
   16.5158   15.4495    4.6973 C   0  0  0  0  0  0
   16.5903   16.4542    5.6032 N   0  0  0  0  0  0
   14.1195   14.5612    4.9389 C   0  0  0  0  0  0
   13.0075   13.9210    4.0396 C   0  0  2  0  0  0
   11.6124   14.0014    4.6733 C   0  0  0  0  0  0
   11.4273   13.6330    6.0062 C   0  0  0  0  0  0
   10.1590   13.6312    6.5755 C   0  0  0  0  0  0
    9.0686   14.0303    5.8152 C   0  0  0  0  0  0
    9.2310   14.4080    4.4880 C   0  0  0  0  0  0
   10.4993   14.3882    3.9164 C   0  0  0  0  0  0
    7.8436   14.0509    6.3726 F   0  0  0  0  0  0
   13.3622   12.2199    3.6028 Cl  0  0  0  0  0  0
   19.5409   16.0331    2.6425 N   0  0  0  0  0  0
   20.4858   17.1319    2.4704 C   0  0  0  0  0  0
   21.4569   17.3456    3.6519 C   0  0  0  0  0  0
   21.6335   16.4192    4.7011 C   0  0  0  0  0  0
   22.5271   16.6784    5.7366 C   0  0  0  0  0  0
   23.1725   17.9089    5.7883 C   0  0  0  0  0  0
   22.9640   18.8569    4.8016 C   0  0  0  0  0  0
   22.1615   18.5513    3.7035 C   0  0  0  0  0  0
   24.0138   18.1979    6.8022 F   0  0  0  0  0  0
   20.2699   19.7185    6.5938 H   0  0  0  0  0  0
   20.4911   17.9851    6.4050 H   0  0  0  0  0  0
   20.0423   18.8958    5.0289 H   0  0  0  0  0  0
   17.6043   13.3158    2.4020 H   0  0  0  0  0  0
   13.8481   15.5891    5.1816 H   0  0  0  0  0  0
   14.1912   14.0364    5.8741 H   0  0  0  0  0  0
   12.9751   14.4560    3.0942 H   0  0  0  0  0  0
   12.2490   13.3023    6.6153 H   0  0  0  0  0  0
   10.0178   13.3356    7.6036 H   0  0  0  0  0  0
    8.3766   14.6976    3.8993 H   0  0  0  0  0  0
   10.5840   14.6530    2.8743 H   0  0  0  0  0  0
   19.6109   15.2516    2.0002 H   0  0  0  0  0  0
   20.9673   16.9915    1.5083 H   0  0  0  0  0  0
   19.8946   18.0386    2.3517 H   0  0  0  0  0  0
   21.1125   15.4760    4.6859 H   0  0  0  0  0  0
   22.7034   15.9437    6.5078 H   0  0  0  0  0  0
   23.4704   19.8098    4.8543 H   0  0  0  0  0  0
   22.0543   19.2642    2.9020 H   0  0  0  0  0  0
  1  2  1  0  0  0
  1 31  1  0  0  0
  1 32  1  0  0  0
  1 33  1  0  0  0
  2  3  1  0  0  0
  3 11  1  0  0  0
  3  4  2  0  0  0
  4  5  1  0  0  0
  5  6  2  0  0  0
  5 22  1  0  0  0
  6 10  1  0  0  0
  6  7  1  0  0  0
  7  8  2  0  0  0
  7 34  1  0  0  0
  8  9  1  0  0  0
  9 10  1  0  0  0
  9 12  1  0  0  0
 10 11  2  0  0  0
 12 13  1  0  0  0
 12 35  1  0  0  0
 12 36  1  0  0  0
 13 14  1  0  0  0
 13 21  1  0  0  0
 13 37  1  0  0  0
 14 19  1  0  0  0
 14 15  2  0  0  0
 15 16  1  0  0  0
 15 38  1  0  0  0
 16 17  2  0  0  0
 16 39  1  0  0  0
 17 18  1  0  0  0
 17 20  1  0  0  0
 18 19  2  0  0  0
 18 40  1  0  0  0
 19 41  1  0  0  0
 22 23  1  0  0  0
 22 42  1  0  0  0
 23 24  1  0  0  0
 23 43  1  0  0  0
 23 44  1  0  0  0
 24 29  1  0  0  0
 24 25  2  0  0  0
 25 26  1  0  0  0
 25 45  1  0  0  0
 26 27  2  0  0  0
 26 46  1  0  0  0
 27 28  1  0  0  0
 27 30  1  0  0  0
 28 29  2  0  0  0
 28 47  1  0  0  0
 29 48  1  0  0  0
M  END
> <s_m_entry_id>
6579

> <s_m_entry_name>
ligand_docking-pose.90

> <s_m_Source_Path>
/home/csk/Desktop/cluster/DUD-E-result/abl1

> <s_m_Source_File>
ligand_docking-pose.sdf

> <i_m_Source_File_Index>
90

> <i_lp_mmshare_version>
53161

> <r_lp_tautomer_probability>
1

> <s_lp_Force_Field>
OPLS_2005

> <r_lp_Energy>
9.422552

> <b_lp_Chiralities_Consistent>
1

> <s_lp_Variant>
454703-2

> <s_i_glide_gridfile>
glide-grid_2hzi

> <i_i_glide_lignum>
551

> <i_i_glide_rotatable_bonds>
7

> <r_i_docking_score>
-7.96333125129422

> <r_i_glide_ligand_efficiency>
-0.265444375043141

> <r_i_glide_ligand_efficiency_sa>
-0.824797389721554

> <r_i_glide_ligand_efficiency_ln>
-1.80935562773756

> <r_i_glide_gscore>
-7.96333125129422

> <r_i_glide_lipo>
-4.78533766370969

> <r_i_glide_hbond>
-0.198112470070771

> <r_i_glide_metal>
0

> <r_i_glide_rewards>
-2.16575847718778

> <r_i_glide_evdw>
-21.0932350158691

> <r_i_glide_ecoul>
-2.17252850532532

> <r_i_glide_erotb>
0.603861509638512

> <r_i_glide_esite>
-0.0374431233722459

> <r_i_glide_emodel>
-33.0380421750671

> <r_i_glide_energy>
-23.2657635211945

> <r_i_glide_einternal>
9.94720363616943

> <i_i_glide_confnum>
1

> <i_i_glide_posenum>
209

> <r_i_glide_eff_state_penalty>
0

> <i_f3d_flags>
0

> <s_user_duplicate_titles>
454703

> <s_m_subgroup_title>
dock_pv

> <s_m_subgroupid>
dock_pv1

> <b_m_subgroup_collapsed>
0

$$$$
454784
                    3D
 Schrodinger Suite 2021-1.
 48 50  0  0  1  0            999 V2000
   10.0063   13.2442    5.6595 C   0  0  0  0  0  0
   11.4531   13.7564    5.6563 C   0  0  0  0  0  0
   11.6601   14.9119    4.6522 C   0  0  0  0  0  0
   12.9397   15.6330    4.8030 N   0  0  0  0  0  0
   14.1562   15.0866    4.4207 C   0  0  0  0  0  0
   15.4614   15.5160    4.7772 C   0  0  0  0  0  0
   16.1645   16.4537    5.6030 C   0  0  0  0  0  0
   17.4623   16.4329    5.3705 N   0  0  0  0  0  0
   17.6949   15.4503    4.4713 N   0  0  0  0  0  0
   16.5081   14.8450    4.1027 C   0  0  0  0  0  0
   16.3475   13.8523    3.2296 N   0  0  0  0  0  0
   15.0447   13.4963    3.0425 C   0  0  0  0  0  0
   13.9931   14.0651    3.6030 N   0  0  0  0  0  0
   14.6845   12.4978    2.1385 N   0  0  0  0  0  0
   15.7640   11.7505    1.6030 C   0  0  0  0  0  0
   13.2963   12.0328    2.0029 C   0  0  0  0  0  0
   19.0234   15.2000    3.8827 C   0  0  0  0  0  0
   20.2539   15.2179    4.8400 C   0  0  1  0  0  0
   21.0651   16.5126    5.0083 C   0  0  0  0  0  0
   20.8908   17.6275    4.1748 C   0  0  0  0  0  0
   21.7653   18.7094    4.2628 C   0  0  0  0  0  0
   22.7887   18.7073    5.2018 C   0  0  0  0  0  0
   22.9639   17.6175    6.0420 C   0  0  0  0  0  0
   22.1134   16.5220    5.9395 C   0  0  0  0  0  0
   19.8486   14.4415    6.4030 Cl  0  0  0  0  0  0
    9.8668   12.4630    6.4052 H   0  0  0  0  0  0
    9.7279   12.8329    4.6882 H   0  0  0  0  0  0
    9.3035   14.0433    5.8987 H   0  0  0  0  0  0
   11.7282   14.0330    6.6724 H   0  0  0  0  0  0
   12.1394   12.9453    5.4095 H   0  0  0  0  0  0
   11.5372   14.5026    3.6472 H   0  0  0  0  0  0
   10.8529   15.6329    4.7495 H   0  0  0  0  0  0
   13.0055   16.2291    5.6166 H   0  0  0  0  0  0
   15.7641   17.1667    6.3041 H   0  0  0  0  0  0
   16.5101   12.4330    1.2030 H   0  0  0  0  0  0
   16.2488   11.2330    2.4261 H   0  0  0  0  0  0
   15.3640   11.1169    0.8150 H   0  0  0  0  0  0
   12.9687   11.5751    2.9368 H   0  0  0  0  0  0
   12.6087   12.8502    1.7994 H   0  0  0  0  0  0
   13.1782   11.2899    1.2103 H   0  0  0  0  0  0
   18.9815   14.1987    3.4504 H   0  0  0  0  0  0
   19.1447   15.8453    3.0154 H   0  0  0  0  0  0
   20.9916   14.5602    4.3778 H   0  0  0  0  0  0
   20.1141   17.6661    3.4288 H   0  0  0  0  0  0
   21.6684   19.5564    3.6030 H   0  0  0  0  0  0
   23.4556   19.5554    5.2703 H   0  0  0  0  0  0
   23.7648   17.6132    6.7669 H   0  0  0  0  0  0
   22.2974   15.6661    6.5728 H   0  0  0  0  0  0
  1  2  1  0  0  0
  1 26  1  0  0  0
  1 27  1  0  0  0
  1 28  1  0  0  0
  2  3  1  0  0  0
  2 29  1  0  0  0
  2 30  1  0  0  0
  3  4  1  0  0  0
  3 31  1  0  0  0
  3 32  1  0  0  0
  4  5  1  0  0  0
  4 33  1  0  0  0
  5 13  1  0  0  0
  5  6  2  0  0  0
  6 10  1  0  0  0
  6  7  1  0  0  0
  7  8  2  0  0  0
  7 34  1  0  0  0
  8  9  1  0  0  0
  9 10  1  0  0  0
  9 17  1  0  0  0
 10 11  2  0  0  0
 11 12  1  0  0  0
 12 13  2  0  0  0
 12 14  1  0  0  0
 14 15  1  0  0  0
 14 16  1  0  0  0
 15 35  1  0  0  0
 15 36  1  0  0  0
 15 37  1  0  0  0
 16 38  1  0  0  0
 16 39  1  0  0  0
 16 40  1  0  0  0
 17 18  1  0  0  0
 17 41  1  0  0  0
 17 42  1  0  0  0
 18 19  1  0  0  0
 18 25  1  0  0  0
 18 43  1  0  0  0
 19 24  1  0  0  0
 19 20  2  0  0  0
 20 21  1  0  0  0
 20 44  1  0  0  0
 21 22  2  0  0  0
 21 45  1  0  0  0
 22 23  1  0  0  0
 22 46  1  0  0  0
 23 24  2  0  0  0
 23 47  1  0  0  0
 24 48  1  0  0  0
M  END
> <s_m_entry_id>
6580

> <s_m_entry_name>
ligand_docking-pose.91

> <s_m_Source_Path>
/home/csk/Desktop/cluster/DUD-E-result/abl1

> <s_m_Source_File>
ligand_docking-pose.sdf

> <i_m_Source_File_Index>
91

> <i_lp_mmshare_version>
53161

> <r_lp_tautomer_probability>
0.99999558864179

> <s_lp_Force_Field>
OPLS_2005

> <r_lp_Energy>
4.43287

> <b_lp_Chiralities_Consistent>
1

> <s_lp_Variant>
454784-1

> <s_i_glide_gridfile>
glide-grid_2hzi

> <i_i_glide_lignum>
300

> <i_i_glide_rotatable_bonds>
7

> <r_i_docking_score>
-7.93452218876815

> <r_i_glide_ligand_efficiency>
-0.317380887550726

> <r_i_glide_ligand_efficiency_sa>
-0.928027343972331

> <r_i_glide_ligand_efficiency_ln>
-1.88071953718051

> <r_i_glide_gscore>
-7.93452218876815

> <r_i_glide_lipo>
-4.07670832865948

> <r_i_glide_hbond>
0

> <r_i_glide_metal>
0

> <r_i_glide_rewards>
-2.72340229118255

> <r_i_glide_evdw>
-31.8225688934326

> <r_i_glide_ecoul>
-1.91454005241394

> <r_i_glide_erotb>
0.743897883607596

> <r_i_glide_esite>
0

> <r_i_glide_emodel>
-38.0897803052873

> <r_i_glide_energy>
-33.7371089458466

> <r_i_glide_einternal>
14.1579961776733

> <i_i_glide_confnum>
60

> <i_i_glide_posenum>
59

> <r_i_glide_eff_state_penalty>
0

> <i_f3d_flags>
0

> <s_user_duplicate_titles>
454784

> <s_m_subgroup_title>
dock_pv

> <s_m_subgroupid>
dock_pv1

> <b_m_subgroup_collapsed>
0

$$$$
436662
                    3D
 Schrodinger Suite 2021-1.
 39 41  0  0  1  0            999 V2000
    8.5281   14.6673    2.9577 C   0  0  0  0  0  0
    9.5121   14.7927    3.9667 O   0  0  0  0  0  0
   10.6304   13.9908    3.8592 C   0  0  0  0  0  0
   10.7616   12.8449    3.0536 C   0  0  0  0  0  0
   12.0133   12.2562    2.8645 C   0  0  0  0  0  0
   13.0954   12.7276    3.6135 C   0  0  0  0  0  0
   12.9594   13.8139    4.4734 C   0  0  0  0  0  0
   11.7297   14.4388    4.5842 C   0  0  0  0  0  0
   14.3988   11.9729    3.5932 C   0  0  0  0  0  0
   15.4139   12.4437    2.1657 S   0  0  0  0  0  0
   16.4378   13.5703    3.0147 C   0  0  0  0  0  0
   16.0066   14.6971    3.5200 N   0  0  0  0  0  0
   17.0174   15.4472    4.0986 N   0  0  0  0  0  0
   18.1851   14.8628    3.9747 C   0  0  0  0  0  0
   18.1607   13.2987    3.2044 S   0  0  0  0  0  0
   19.3663   15.4060    4.3998 N   0  0  0  0  0  0
   19.8157   16.6193    4.0207 C   0  0  0  0  0  0
   19.2702   17.3139    3.1521 O   0  0  0  0  0  0
   21.0662   17.0932    4.7191 C   0  0  0  0  0  0
   21.6585   16.3282    5.7284 C   0  0  0  0  0  0
   22.7842   16.8051    6.3796 C   0  0  0  0  0  0
   23.3312   18.0200    6.0383 C   0  0  0  0  0  0
   22.7545   18.8134    5.0505 C   0  0  0  0  0  0
   21.6277   18.3350    4.3800 C   0  0  0  0  0  0
   24.4359   18.4409    6.6970 F   0  0  0  0  0  0
    7.7414   15.3915    3.1223 H   0  0  0  0  0  0
    8.9773   14.8936    2.0050 H   0  0  0  0  0  0
    8.0953   13.6701    2.9166 H   0  0  0  0  0  0
    9.9067   12.4420    2.5084 H   0  0  0  0  0  0
   12.1339   11.4102    2.1928 H   0  0  0  0  0  0
   13.7922   14.1904    5.0594 H   0  0  0  0  0  0
   11.6105   15.3165    5.1928 H   0  0  0  0  0  0
   14.1631   10.9092    3.6015 H   0  0  0  0  0  0
   14.9643   12.1634    4.5074 H   0  0  0  0  0  0
   19.9510   14.8395    5.0051 H   0  0  0  0  0  0
   21.2752   15.3722    6.0383 H   0  0  0  0  0  0
   23.2447   16.1936    7.1537 H   0  0  0  0  0  0
   23.1691   19.7801    4.7956 H   0  0  0  0  0  0
   21.1854   18.9448    3.6057 H   0  0  0  0  0  0
  1  2  1  0  0  0
  1 26  1  0  0  0
  1 27  1  0  0  0
  1 28  1  0  0  0
  2  3  1  0  0  0
  3  8  1  0  0  0
  3  4  2  0  0  0
  4  5  1  0  0  0
  4 29  1  0  0  0
  5  6  2  0  0  0
  5 30  1  0  0  0
  6  7  1  0  0  0
  6  9  1  0  0  0
  7  8  2  0  0  0
  7 31  1  0  0  0
  8 32  1  0  0  0
  9 10  1  0  0  0
  9 33  1  0  0  0
  9 34  1  0  0  0
 10 11  1  0  0  0
 11 15  1  0  0  0
 11 12  2  0  0  0
 12 13  1  0  0  0
 13 14  2  0  0  0
 14 15  1  0  0  0
 14 16  1  0  0  0
 16 17  1  0  0  0
 16 35  1  0  0  0
 17 18  2  0  0  0
 17 19  1  0  0  0
 19 24  1  0  0  0
 19 20  2  0  0  0
 20 21  1  0  0  0
 20 36  1  0  0  0
 21 22  2  0  0  0
 21 37  1  0  0  0
 22 23  1  0  0  0
 22 25  1  0  0  0
 23 24  2  0  0  0
 23 38  1  0  0  0
 24 39  1  0  0  0
M  END
> <s_m_entry_id>
6582

> <s_m_entry_name>
ligand_docking-pose.93

> <s_m_Source_Path>
/home/csk/Desktop/cluster/DUD-E-result/abl1

> <s_m_Source_File>
ligand_docking-pose.sdf

> <i_m_Source_File_Index>
93

> <i_lp_mmshare_version>
53161

> <r_lp_tautomer_probability>
1

> <s_lp_Force_Field>
OPLS_2005

> <r_lp_Energy>
19.599706

> <b_lp_Chiralities_Consistent>
1

> <s_lp_Variant>
436662-1

> <s_i_glide_gridfile>
glide-grid_2hzi

> <i_i_glide_lignum>
483

> <i_i_glide_rotatable_bonds>
7

> <r_i_docking_score>
-7.91423965173336

> <r_i_glide_ligand_efficiency>
-0.316569586069334

> <r_i_glide_ligand_efficiency_sa>
-0.925655084052248

> <r_i_glide_ligand_efficiency_ln>
-1.87591196808467

> <r_i_glide_gscore>
-7.91423965173336

> <r_i_glide_lipo>
-4.23518803199661

> <r_i_glide_hbond>
-0.118623489061516

> <r_i_glide_metal>
0

> <r_i_glide_rewards>
-1.65413857775487

> <r_i_glide_evdw>
-40.4655456542969

> <r_i_glide_ecoul>
-4.71024084091187

> <r_i_glide_erotb>
0.823523855931259

> <r_i_glide_esite>
0

> <r_i_glide_emodel>
-47.2896499504475

> <r_i_glide_energy>
-45.1757864952087

> <r_i_glide_einternal>
13.1148881912231

> <i_i_glide_confnum>
4

> <i_i_glide_posenum>
252

> <r_i_glide_eff_state_penalty>
0

> <i_f3d_flags>
0

> <s_user_duplicate_titles>
436662

> <s_m_subgroup_title>
dock_pv

> <s_m_subgroupid>
dock_pv1

> <b_m_subgroup_collapsed>
0

$$$$
442335
                    3D
 Schrodinger Suite 2021-1.
 44 47  0  0  1  0            999 V2000
   22.9755   18.7701    5.1410 C   0  0  0  0  0  0
   22.1694   18.6653    4.0047 C   0  0  0  0  0  0
   21.3705   17.5373    3.8173 C   0  0  0  0  0  0
   21.4083   16.5172    4.7750 C   0  0  0  0  0  0
   22.1035   16.6795    5.9521 C   0  0  0  0  0  0
   22.9438   17.7773    6.1202 C   0  0  0  0  0  0
   21.7644   15.5592    7.2029 Cl  0  0  0  0  0  0
   20.4339   17.4547    2.6125 C   0  0  0  0  0  0
   19.3828   16.4521    2.7615 N   0  0  0  0  0  0
   18.4923   16.4441    3.8465 C   0  0  0  0  0  0
   17.5170   15.4515    3.8983 C   0  0  0  0  0  0
   17.1439   14.2728    3.2029 C   0  0  0  0  0  0
   15.9817   13.8472    3.6043 N   0  0  0  0  0  0
   15.6105   14.6366    4.6335 N   0  0  0  0  0  0
   16.5761   15.5673    4.9320 C   0  0  0  0  0  0
   16.6206   16.4311    5.9505 N   0  0  0  0  0  0
   17.6828   17.2658    5.8653 C   0  0  0  0  0  0
   18.5638   17.3773    4.8400 N   0  0  0  0  0  0
   14.3907   14.3793    5.3635 C   0  0  0  0  0  0
   13.0971   14.9205    4.7399 C   0  0  2  0  0  0
   12.2621   13.9279    3.9049 C   0  0  0  0  0  0
   10.8624   13.9486    4.0030 C   0  0  0  0  0  0
   10.0843   13.0145    3.3119 C   0  0  0  0  0  0
   10.6985   12.0513    2.5095 C   0  0  0  0  0  0
   12.0841   12.0319    2.4021 C   0  0  0  0  0  0
   12.8580   12.9540    3.0950 C   0  0  0  0  0  0
    9.7511   10.9260    1.6073 Cl  0  0  0  0  0  0
   13.3900   16.5248    4.0032 Cl  0  0  0  0  0  0
   23.6059   19.6347    5.2776 H   0  0  0  0  0  0
   22.1688   19.4625    3.2757 H   0  0  0  0  0  0
   20.8142   15.6228    4.6649 H   0  0  0  0  0  0
   23.5243   17.8864    7.0240 H   0  0  0  0  0  0
   20.9970   17.2534    1.7025 H   0  0  0  0  0  0
   19.9408   18.4131    2.4769 H   0  0  0  0  0  0
   19.2987   15.7420    2.0479 H   0  0  0  0  0  0
   17.6673   13.7783    2.4025 H   0  0  0  0  0  0
   17.7684   17.9999    6.6533 H   0  0  0  0  0  0
   14.5091   14.8309    6.3557 H   0  0  0  0  0  0
   14.3208   13.3063    5.4366 H   0  0  0  0  0  0
   12.4747   15.1205    5.6013 H   0  0  0  0  0  0
   10.3715   14.6827    4.6256 H   0  0  0  0  0  0
    9.0074   13.0373    3.3969 H   0  0  0  0  0  0
   12.5631   11.2949    1.7728 H   0  0  0  0  0  0
   13.9199   12.8773    2.9760 H   0  0  0  0  0  0
  1  6  1  0  0  0
  1  2  2  0  0  0
  1 29  1  0  0  0
  2  3  1  0  0  0
  2 30  1  0  0  0
  3  4  2  0  0  0
  3  8  1  0  0  0
  4  5  1  0  0  0
  4 31  1  0  0  0
  5  6  2  0  0  0
  5  7  1  0  0  0
  6 32  1  0  0  0
  8  9  1  0  0  0
  8 33  1  0  0  0
  8 34  1  0  0  0
  9 10  1  0  0  0
  9 35  1  0  0  0
 10 18  1  0  0  0
 10 11  2  0  0  0
 11 15  1  0  0  0
 11 12  1  0  0  0
 12 13  2  0  0  0
 12 36  1  0  0  0
 13 14  1  0  0  0
 14 15  1  0  0  0
 14 19  1  0  0  0
 15 16  2  0  0  0
 16 17  1  0  0  0
 17 18  2  0  0  0
 17 37  1  0  0  0
 19 20  1  0  0  0
 19 38  1  0  0  0
 19 39  1  0  0  0
 20 21  1  0  0  0
 20 28  1  0  0  0
 20 40  1  0  0  0
 21 26  1  0  0  0
 21 22  2  0  0  0
 22 23  1  0  0  0
 22 41  1  0  0  0
 23 24  2  0  0  0
 23 42  1  0  0  0
 24 25  1  0  0  0
 24 27  1  0  0  0
 25 26  2  0  0  0
 25 43  1  0  0  0
 26 44  1  0  0  0
M  END
> <s_m_entry_id>
6583

> <s_m_entry_name>
ligand_docking-pose.94

> <s_m_Source_Path>
/home/csk/Desktop/cluster/DUD-E-result/abl1

> <s_m_Source_File>
ligand_docking-pose.sdf

> <i_m_Source_File_Index>
94

> <i_lp_mmshare_version>
53161

> <r_lp_tautomer_probability>
1

> <s_lp_Force_Field>
OPLS_2005

> <r_lp_Energy>
10.177352

> <b_lp_Chiralities_Consistent>
1

> <s_lp_Variant>
442335-2

> <s_i_glide_gridfile>
glide-grid_2hzi

> <i_i_glide_lignum>
41

> <i_i_glide_rotatable_bonds>
6

> <r_i_docking_score>
-7.89917877925271

> <r_i_glide_ligand_efficiency>
-0.282113527830454

> <r_i_glide_ligand_efficiency_sa>
-0.856662826475369

> <r_i_glide_ligand_efficiency_ln>
-1.82336239221847

> <r_i_glide_gscore>
-7.89917877925271

> <r_i_glide_lipo>
-4.36733607712432

> <r_i_glide_hbond>
0

> <r_i_glide_metal>
0

> <r_i_glide_rewards>
-1.88179037177553

> <r_i_glide_evdw>
-38.5543937683105

> <r_i_glide_ecoul>
-2.36917352676392

> <r_i_glide_erotb>
0.63765882434084

> <r_i_glide_esite>
-0.00461543726357863

> <r_i_glide_emodel>
-49.492072228219

> <r_i_glide_energy>
-40.9235672950745

> <r_i_glide_einternal>
5.21618413925171

> <i_i_glide_confnum>
29

> <i_i_glide_posenum>
184

> <r_i_glide_eff_state_penalty>
0

> <i_f3d_flags>
0

> <s_user_duplicate_titles>
442335

> <s_m_subgroup_title>
dock_pv

> <s_m_subgroupid>
dock_pv1

> <b_m_subgroup_collapsed>
0

$$$$
436608
                    3D
 Schrodinger Suite 2021-1.
 35 37  0  0  1  0            999 V2000
   22.1649   18.6790    4.4017 C   0  0  0  0  0  0
   23.0331   18.1746    5.3633 C   0  0  0  0  0  0
   22.6889   17.0258    6.0728 C   0  0  0  0  0  0
   21.4744   16.3828    5.8483 C   0  0  0  0  0  0
   20.5972   16.8906    4.8749 C   0  0  0  0  0  0
   20.9538   18.0348    4.1545 C   0  0  0  0  0  0
   19.2577   16.2766    4.6272 C   0  0  0  0  0  0
   18.2356   16.8591    4.9844 O   0  0  0  0  0  0
   19.3350   15.0995    3.9816 N   0  0  0  0  0  0
   18.2980   14.2673    3.6051 C   0  0  0  0  0  0
   18.5383   13.0645    3.1546 N   0  0  0  0  0  0
   17.3717   12.3910    2.8048 N   0  0  0  0  0  0
   16.2801   13.0847    3.0207 C   0  0  0  0  0  0
   16.6048   14.6910    3.6041 S   0  0  0  0  0  0
   14.6656   12.4331    2.7683 S   0  0  0  0  0  0
   13.6112   13.6391    3.6510 C   0  0  0  0  0  0
   12.1181   13.3174    3.6502 C   0  0  0  0  0  0
   11.5525   12.3553    2.8008 C   0  0  0  0  0  0
   10.1787   12.1239    2.8032 C   0  0  0  0  0  0
    9.3563   12.8342    3.6729 C   0  0  0  0  0  0
    9.9074   13.7752    4.5417 C   0  0  0  0  0  0
   11.2798   14.0266    4.5208 C   0  0  0  0  0  0
    9.1124   14.4326    5.4115 F   0  0  0  0  0  0
   21.0979   14.9854    6.8028 Cl  0  0  0  0  0  0
   22.4325   19.5691    3.8500 H   0  0  0  0  0  0
   23.9735   18.6694    5.5597 H   0  0  0  0  0  0
   23.3655   16.6326    6.8123 H   0  0  0  0  0  0
   20.2858   18.4327    3.4075 H   0  0  0  0  0  0
   20.2609   14.7710    3.7486 H   0  0  0  0  0  0
   13.9570   13.7039    4.6834 H   0  0  0  0  0  0
   13.7370   14.6256    3.2033 H   0  0  0  0  0  0
   12.1567   11.7807    2.1130 H   0  0  0  0  0  0
    9.7546   11.3763    2.1457 H   0  0  0  0  0  0
    8.2944   12.6373    3.6894 H   0  0  0  0  0  0
   11.6845   14.7610    5.2014 H   0  0  0  0  0  0
  1  6  1  0  0  0
  1  2  2  0  0  0
  1 25  1  0  0  0
  2  3  1  0  0  0
  2 26  1  0  0  0
  3  4  2  0  0  0
  3 27  1  0  0  0
  4  5  1  0  0  0
  4 24  1  0  0  0
  5  6  2  0  0  0
  5  7  1  0  0  0
  6 28  1  0  0  0
  7  8  2  0  0  0
  7  9  1  0  0  0
  9 10  1  0  0  0
  9 29  1  0  0  0
 10 14  1  0  0  0
 10 11  2  0  0  0
 11 12  1  0  0  0
 12 13  2  0  0  0
 13 14  1  0  0  0
 13 15  1  0  0  0
 15 16  1  0  0  0
 16 17  1  0  0  0
 16 30  1  0  0  0
 16 31  1  0  0  0
 17 22  1  0  0  0
 17 18  2  0  0  0
 18 19  1  0  0  0
 18 32  1  0  0  0
 19 20  2  0  0  0
 19 33  1  0  0  0
 20 21  1  0  0  0
 20 34  1  0  0  0
 21 22  2  0  0  0
 21 23  1  0  0  0
 22 35  1  0  0  0
M  END
> <s_m_entry_id>
6584

> <s_m_entry_name>
ligand_docking-pose.95

> <s_m_Source_Path>
/home/csk/Desktop/cluster/DUD-E-result/abl1

> <s_m_Source_File>
ligand_docking-pose.sdf

> <i_m_Source_File_Index>
95

> <i_lp_mmshare_version>
53161

> <r_lp_tautomer_probability>
1

> <s_lp_Force_Field>
OPLS_2005

> <r_lp_Energy>
17.171729

> <b_lp_Chiralities_Consistent>
1

> <s_lp_Variant>
436608-1

> <s_i_glide_gridfile>
glide-grid_2hzi

> <i_i_glide_lignum>
77

> <i_i_glide_rotatable_bonds>
6

> <r_i_docking_score>
-7.89628114225873

> <r_i_glide_ligand_efficiency>
-0.32901171426078

> <r_i_glide_ligand_efficiency_sa>
-0.949034006032068

> <r_i_glide_ligand_efficiency_ln>
-1.88994241407395

> <r_i_glide_gscore>
-7.89628114225873

> <r_i_glide_lipo>
-4.23323929359033

> <r_i_glide_hbond>
0

> <r_i_glide_metal>
0

> <r_i_glide_rewards>
-1.35848802994222

> <r_i_glide_evdw>
-51.8406295776367

> <r_i_glide_ecoul>
-3.45980858802795

> <r_i_glide_erotb>
0.806448948359858

> <r_i_glide_esite>
0

> <r_i_glide_emodel>
-74.7657440099269

> <r_i_glide_energy>
-55.3004381656647

> <r_i_glide_einternal>
8.7398681640625

> <i_i_glide_confnum>
2

> <i_i_glide_posenum>
172

> <r_i_glide_eff_state_penalty>
0

> <i_f3d_flags>
0

> <s_user_duplicate_titles>
436608

> <s_m_subgroup_title>
dock_pv

> <s_m_subgroupid>
dock_pv1

> <b_m_subgroup_collapsed>
0

$$$$
455212
                    3D
 Schrodinger Suite 2021-1.
 47 49  0  0  1  0            999 V2000
    9.9703   13.2332    4.0349 C   0  0  0  0  0  0
   10.5694   13.6057    5.4021 C   0  0  0  0  0  0
   12.0977   13.8061    5.3892 C   0  0  0  0  0  0
   12.5470   14.9050    4.4116 C   0  0  0  0  0  0
   13.7639   15.6067    4.8028 N   0  0  0  0  0  0
   15.0429   15.1306    4.5179 C   0  0  0  0  0  0
   16.1568   15.6331    5.1946 C   0  0  0  0  0  0
   16.4517   16.5993    6.1718 C   0  0  0  0  0  0
   17.7241   16.6713    6.4030 N   0  0  0  0  0  0
   18.3128   15.6747    5.7340 N   0  0  0  0  0  0
   17.4068   15.0472    4.8954 C   0  0  0  0  0  0
   17.6116   14.0792    4.0030 N   0  0  0  0  0  0
   16.4546   13.6734    3.4239 C   0  0  0  0  0  0
   15.2036   14.1494    3.6184 N   0  0  0  0  0  0
   16.5572   12.2885    2.4039 S   0  0  0  0  0  0
   14.8383   11.9494    1.9424 C   0  0  0  0  0  0
   19.7476   15.5069    5.8794 C   0  0  0  0  0  0
   20.5383   16.8244    5.6472 C   0  0  2  0  0  0
   20.5253   17.3451    4.2218 C   0  0  0  0  0  0
   21.6479   18.0194    3.7461 C   0  0  0  0  0  0
   21.7197   18.3149    2.4023 C   0  0  0  0  0  0
   20.6955   17.9151    1.5544 C   0  0  0  0  0  0
   19.5124   17.4152    2.0305 C   0  0  0  0  0  0
   19.4182   17.1689    3.3773 C   0  0  0  0  0  0
   22.3754   16.4332    6.3060 Br  0  0  0  0  0  0
    8.9082   13.0034    4.1267 H   0  0  0  0  0  0
   10.4589   12.3598    3.6023 H   0  0  0  0  0  0
   10.0665   14.0505    3.3199 H   0  0  0  0  0  0
   10.0853   14.5121    5.7682 H   0  0  0  0  0  0
   10.3195   12.8333    6.1291 H   0  0  0  0  0  0
   12.4267   14.0329    6.4037 H   0  0  0  0  0  0
   12.5979   12.8727    5.1311 H   0  0  0  0  0  0
   12.6117   14.4863    3.4046 H   0  0  0  0  0  0
   11.7809   15.6808    4.4127 H   0  0  0  0  0  0
   13.6980   16.1795    5.6324 H   0  0  0  0  0  0
   15.7648   17.2284    6.6883 H   0  0  0  0  0  0
   14.8059   11.1682    1.2030 H   0  0  0  0  0  0
   14.2588   11.6356    2.8109 H   0  0  0  0  0  0
   14.3671   12.8315    1.5114 H   0  0  0  0  0  0
   19.9197   15.1352    6.8897 H   0  0  0  0  0  0
   20.0865   14.7288    5.1948 H   0  0  0  0  0  0
   20.1867   17.6702    6.2299 H   0  0  0  0  0  0
   22.4815   18.2780    4.3821 H   0  0  0  0  0  0
   22.5533   18.8288    1.9961 H   0  0  0  0  0  0
   20.7727   18.0330    0.4886 H   0  0  0  0  0  0
   18.6877   17.2322    1.3606 H   0  0  0  0  0  0
   18.4598   16.8298    3.6887 H   0  0  0  0  0  0
  1  2  1  0  0  0
  1 26  1  0  0  0
  1 27  1  0  0  0
  1 28  1  0  0  0
  2  3  1  0  0  0
  2 29  1  0  0  0
  2 30  1  0  0  0
  3  4  1  0  0  0
  3 31  1  0  0  0
  3 32  1  0  0  0
  4  5  1  0  0  0
  4 33  1  0  0  0
  4 34  1  0  0  0
  5  6  1  0  0  0
  5 35  1  0  0  0
  6 14  1  0  0  0
  6  7  2  0  0  0
  7 11  1  0  0  0
  7  8  1  0  0  0
  8  9  2  0  0  0
  8 36  1  0  0  0
  9 10  1  0  0  0
 10 11  1  0  0  0
 10 17  1  0  0  0
 11 12  2  0  0  0
 12 13  1  0  0  0
 13 14  2  0  0  0
 13 15  1  0  0  0
 15 16  1  0  0  0
 16 37  1  0  0  0
 16 38  1  0  0  0
 16 39  1  0  0  0
 17 18  1  0  0  0
 17 40  1  0  0  0
 17 41  1  0  0  0
 18 19  1  0  0  0
 18 25  1  0  0  0
 18 42  1  0  0  0
 19 24  1  0  0  0
 19 20  2  0  0  0
 20 21  1  0  0  0
 20 43  1  0  0  0
 21 22  2  0  0  0
 21 44  1  0  0  0
 22 23  1  0  0  0
 22 45  1  0  0  0
 23 24  2  0  0  0
 23 46  1  0  0  0
 24 47  1  0  0  0
M  END
> <s_m_entry_id>
6585

> <s_m_entry_name>
ligand_docking-pose.96

> <s_m_Source_Path>
/home/csk/Desktop/cluster/DUD-E-result/abl1

> <s_m_Source_File>
ligand_docking-pose.sdf

> <i_m_Source_File_Index>
96

> <i_lp_mmshare_version>
53161

> <r_lp_tautomer_probability>
1

> <s_lp_Force_Field>
OPLS_2005

> <r_lp_Energy>
7.280985

> <b_lp_Chiralities_Consistent>
1

> <s_lp_Variant>
455212-2

> <s_i_glide_gridfile>
glide-grid_2hzi

> <i_i_glide_lignum>
287

> <i_i_glide_rotatable_bonds>
8

> <r_i_docking_score>
-7.88930273616313

> <r_i_glide_ligand_efficiency>
-0.315572109446525

> <r_i_glide_ligand_efficiency_sa>
-0.922738444716831

> <r_i_glide_ligand_efficiency_ln>
-1.87000117179547

> <r_i_glide_gscore>
-7.88930273616313

> <r_i_glide_lipo>
-4.78894091358331

> <r_i_glide_hbond>
0

> <r_i_glide_metal>
0

> <r_i_glide_rewards>
-2.1148523831806

> <r_i_glide_evdw>
-29.8607177734375

> <r_i_glide_ecoul>
-1.09651756286621

> <r_i_glide_erotb>
0.672004083702588

> <r_i_glide_esite>
0

> <r_i_glide_emodel>
-29.977998762652

> <r_i_glide_energy>
-30.9572353363037

> <r_i_glide_einternal>
9.73901176452637

> <i_i_glide_confnum>
56

> <i_i_glide_posenum>
227

> <r_i_glide_eff_state_penalty>
0

> <i_f3d_flags>
0

> <s_user_duplicate_titles>
455212

> <s_m_subgroup_title>
dock_pv

> <s_m_subgroupid>
dock_pv1

> <b_m_subgroup_collapsed>
0

$$$$
402626
                    3D
 Schrodinger Suite 2021-1.
 45 48  0  0  1  0            999 V2000
   14.9791   11.6688    1.9412 C   0  0  0  0  0  0
   16.6374   12.2167    2.4034 S   0  0  0  0  0  0
   16.3945   13.6575    3.3205 C   0  0  0  0  0  0
   15.1249   14.0433    3.5405 N   0  0  0  0  0  0
   14.8535   14.9643    4.4883 C   0  0  0  0  0  0
   15.9709   15.6152    5.1095 C   0  0  0  0  0  0
   16.3372   16.5923    6.0853 C   0  0  0  0  0  0
   17.6274   16.7070    6.2476 N   0  0  0  0  0  0
   18.1939   15.7870    5.4644 N   0  0  0  0  0  0
   17.2491   15.1236    4.7290 C   0  0  0  0  0  0
   17.5071   14.1477    3.8739 N   0  0  0  0  0  0
   19.6246   15.5336    5.5111 C   0  0  0  0  0  0
   20.4140   15.9828    4.2390 C   0  0  2  0  0  0
   21.4717   17.0354    4.5785 C   0  0  0  0  0  0
   22.3732   16.7932    5.6195 C   0  0  0  0  0  0
   23.3397   17.7400    5.9469 C   0  0  0  0  0  0
   23.4069   18.9070    5.2073 C   0  0  0  0  0  0
   22.5120   19.1714    4.1881 C   0  0  0  0  0  0
   21.5541   18.2299    3.8570 C   0  0  0  0  0  0
   19.3739   16.4378    2.8339 Cl  0  0  0  0  0  0
   13.4717   15.1120    4.8068 N   0  0  0  0  0  0
   12.3194   14.3575    4.3978 C   0  0  0  0  0  0
   12.4141   13.1151    3.7555 C   0  0  0  0  0  0
   11.3225   12.4499    3.2021 C   0  0  0  0  0  0
   10.0629   12.9986    3.3366 C   0  0  0  0  0  0
    9.8930   14.1713    4.0604 C   0  0  0  0  0  0
   11.0139   14.8313    4.6147 C   0  0  0  0  0  0
    8.1087   14.8315    4.2399 Br  0  0  0  0  0  0
   14.9626   10.9199    1.1611 H   0  0  0  0  0  0
   14.5330   11.2342    2.8260 H   0  0  0  0  0  0
   14.3628   12.4983    1.5996 H   0  0  0  0  0  0
   15.7640   17.2282    6.7100 H   0  0  0  0  0  0
   19.7532   14.4607    5.6643 H   0  0  0  0  0  0
   20.0132   15.9983    6.4151 H   0  0  0  0  0  0
   20.9646   15.1118    3.8800 H   0  0  0  0  0  0
   22.3396   15.8714    6.1827 H   0  0  0  0  0  0
   24.0240   17.5761    6.7616 H   0  0  0  0  0  0
   24.1643   19.6322    5.4488 H   0  0  0  0  0  0
   22.5741   20.0990    3.6364 H   0  0  0  0  0  0
   20.9017   18.4334    3.0269 H   0  0  0  0  0  0
   13.2878   15.8593    5.4589 H   0  0  0  0  0  0
   13.3381   12.5960    3.7249 H   0  0  0  0  0  0
   11.4539   11.5008    2.7016 H   0  0  0  0  0  0
    9.2071   12.4944    2.9183 H   0  0  0  0  0  0
   10.8819   15.7238    5.2038 H   0  0  0  0  0  0
  1  2  1  0  0  0
  1 29  1  0  0  0
  1 30  1  0  0  0
  1 31  1  0  0  0
  2  3  1  0  0  0
  3 11  1  0  0  0
  3  4  2  0  0  0
  4  5  1  0  0  0
  5  6  2  0  0  0
  5 21  1  0  0  0
  6 10  1  0  0  0
  6  7  1  0  0  0
  7  8  2  0  0  0
  7 32  1  0  0  0
  8  9  1  0  0  0
  9 10  1  0  0  0
  9 12  1  0  0  0
 10 11  2  0  0  0
 12 13  1  0  0  0
 12 33  1  0  0  0
 12 34  1  0  0  0
 13 14  1  0  0  0
 13 20  1  0  0  0
 13 35  1  0  0  0
 14 19  1  0  0  0
 14 15  2  0  0  0
 15 16  1  0  0  0
 15 36  1  0  0  0
 16 17  2  0  0  0
 16 37  1  0  0  0
 17 18  1  0  0  0
 17 38  1  0  0  0
 18 19  2  0  0  0
 18 39  1  0  0  0
 19 40  1  0  0  0
 21 22  1  0  0  0
 21 41  1  0  0  0
 22 27  1  0  0  0
 22 23  2  0  0  0
 23 24  1  0  0  0
 23 42  1  0  0  0
 24 25  2  0  0  0
 24 43  1  0  0  0
 25 26  1  0  0  0
 25 44  1  0  0  0
 26 27  2  0  0  0
 26 28  1  0  0  0
 27 45  1  0  0  0
M  END
> <s_m_entry_id>
6586

> <s_m_entry_name>
ligand_docking-pose.97

> <s_m_Source_Path>
/home/csk/Desktop/cluster/DUD-E-result/abl1

> <s_m_Source_File>
ligand_docking-pose.sdf

> <i_m_Source_File_Index>
97

> <i_lp_mmshare_version>
53161

> <r_lp_tautomer_probability>
1

> <s_lp_Force_Field>
OPLS_2005

> <r_lp_Energy>
13.363188

> <b_lp_Chiralities_Consistent>
1

> <s_lp_Variant>
402626-2

> <s_i_glide_gridfile>
glide-grid_2hzi

> <i_i_glide_lignum>
517

> <i_i_glide_rotatable_bonds>
6

> <r_i_docking_score>
-7.87793358873758

> <r_i_glide_ligand_efficiency>
-0.281354771026342

> <r_i_glide_ligand_efficiency_sa>
-0.854358793934227

> <r_i_glide_ligand_efficiency_ln>
-1.81845837846168

> <r_i_glide_gscore>
-7.87793358873758

> <r_i_glide_lipo>
-4.2577141439289

> <r_i_glide_hbond>
0

> <r_i_glide_metal>
0

> <r_i_glide_rewards>
-1.89967880876118

> <r_i_glide_evdw>
-33.8627853393555

> <r_i_glide_ecoul>
-3.17500042915344

> <r_i_glide_erotb>
0.448848695293294

> <r_i_glide_esite>
0

> <r_i_glide_emodel>
-40.6794923851463

> <r_i_glide_energy>
-37.0377857685089

> <r_i_glide_einternal>
12.4492921829224

> <i_i_glide_confnum>
39

> <i_i_glide_posenum>
60

> <r_i_glide_eff_state_penalty>
0

> <i_f3d_flags>
0

> <s_user_duplicate_titles>
402626

> <s_m_subgroup_title>
dock_pv

> <s_m_subgroupid>
dock_pv1

> <b_m_subgroup_collapsed>
0

$$$$
454778
                    3D
 Schrodinger Suite 2021-1.
 45 48  0  0  1  0            999 V2000
   14.9639   11.6330    1.6796 C   0  0  0  0  0  0
   16.5677   12.0330    2.4030 S   0  0  0  0  0  0
   16.2232   13.4368    3.3292 C   0  0  0  0  0  0
   14.9271   13.7047    3.5893 N   0  0  0  0  0  0
   14.6077   14.6351    4.5082 C   0  0  0  0  0  0
   15.6856   15.3144    5.1479 C   0  0  0  0  0  0
   15.9911   16.2819    6.1530 C   0  0  0  0  0  0
   17.2695   16.4675    6.3361 N   0  0  0  0  0  0
   17.8871   15.6330    5.4991 N   0  0  0  0  0  0
   16.9880   14.9363    4.7407 C   0  0  0  0  0  0
   17.3060   14.0196    3.8467 N   0  0  0  0  0  0
   19.3229   15.4745    5.5353 C   0  0  0  0  0  0
   20.0495   15.8707    4.2111 C   0  0  2  0  0  0
   21.1544   16.8712    4.4955 C   0  0  0  0  0  0
   22.0481   16.6298    5.5473 C   0  0  0  0  0  0
   23.0228   17.5657    5.8467 C   0  0  0  0  0  0
   23.1283   18.6979    5.0557 C   0  0  0  0  0  0
   22.2489   18.9542    4.0222 C   0  0  0  0  0  0
   21.2719   18.0330    3.7291 C   0  0  0  0  0  0
   24.1640   19.5243    5.2030 F   0  0  0  0  0  0
   18.9640   16.4330    2.8819 Cl  0  0  0  0  0  0
   13.2270   14.7924    4.7951 N   0  0  0  0  0  0
   12.0601   14.1119    4.3194 C   0  0  0  0  0  0
   10.8080   14.4330    4.8637 C   0  0  0  0  0  0
    9.6320   13.8006    4.4569 C   0  0  0  0  0  0
    9.6740   12.8212    3.4711 C   0  0  0  0  0  0
   10.8912   12.4806    2.8934 C   0  0  0  0  0  0
   12.0557   13.1349    3.3043 C   0  0  0  0  0  0
   10.9460   11.5454    1.9197 F   0  0  0  0  0  0
   14.9640   10.8330    0.9456 H   0  0  0  0  0  0
   14.3295   11.3306    2.5082 H   0  0  0  0  0  0
   14.5408   12.5174    1.2048 H   0  0  0  0  0  0
   15.3640   16.8330    6.8023 H   0  0  0  0  0  0
   19.5262   14.4289    5.7702 H   0  0  0  0  0  0
   19.6872   16.0330    6.3980 H   0  0  0  0  0  0
   20.5340   14.9802    3.8064 H   0  0  0  0  0  0
   21.9958   15.7238    6.1340 H   0  0  0  0  0  0
   23.7341   17.3867    6.6403 H   0  0  0  0  0  0
   22.3695   19.8420    3.4227 H   0  0  0  0  0  0
   20.6329   18.2535    2.8916 H   0  0  0  0  0  0
   13.0495   15.4699    5.5198 H   0  0  0  0  0  0
   10.6955   15.2011    5.6030 H   0  0  0  0  0  0
    8.6873   14.0704    4.9064 H   0  0  0  0  0  0
    8.7698   12.3206    3.1554 H   0  0  0  0  0  0
   12.9341   12.8601    2.7709 H   0  0  0  0  0  0
  1  2  1  0  0  0
  1 30  1  0  0  0
  1 31  1  0  0  0
  1 32  1  0  0  0
  2  3  1  0  0  0
  3 11  1  0  0  0
  3  4  2  0  0  0
  4  5  1  0  0  0
  5  6  2  0  0  0
  5 22  1  0  0  0
  6 10  1  0  0  0
  6  7  1  0  0  0
  7  8  2  0  0  0
  7 33  1  0  0  0
  8  9  1  0  0  0
  9 10  1  0  0  0
  9 12  1  0  0  0
 10 11  2  0  0  0
 12 13  1  0  0  0
 12 34  1  0  0  0
 12 35  1  0  0  0
 13 14  1  0  0  0
 13 21  1  0  0  0
 13 36  1  0  0  0
 14 19  1  0  0  0
 14 15  2  0  0  0
 15 16  1  0  0  0
 15 37  1  0  0  0
 16 17  2  0  0  0
 16 38  1  0  0  0
 17 18  1  0  0  0
 17 20  1  0  0  0
 18 19  2  0  0  0
 18 39  1  0  0  0
 19 40  1  0  0  0
 22 23  1  0  0  0
 22 41  1  0  0  0
 23 28  1  0  0  0
 23 24  2  0  0  0
 24 25  1  0  0  0
 24 42  1  0  0  0
 25 26  2  0  0  0
 25 43  1  0  0  0
 26 27  1  0  0  0
 26 44  1  0  0  0
 27 28  2  0  0  0
 27 29  1  0  0  0
 28 45  1  0  0  0
M  END
> <s_m_entry_id>
6588

> <s_m_entry_name>
ligand_docking-pose.99

> <s_m_Source_Path>
/home/csk/Desktop/cluster/DUD-E-result/abl1

> <s_m_Source_File>
ligand_docking-pose.sdf

> <i_m_Source_File_Index>
99

> <i_lp_mmshare_version>
53161

> <r_lp_tautomer_probability>
1

> <s_lp_Force_Field>
OPLS_2005

> <r_lp_Energy>
12.998166

> <b_lp_Chiralities_Consistent>
1

> <s_lp_Variant>
454778-2

> <s_i_glide_gridfile>
glide-grid_2hzi

> <i_i_glide_lignum>
545

> <i_i_glide_rotatable_bonds>
6

> <r_i_docking_score>
-7.82265127448393

> <r_i_glide_ligand_efficiency>
-0.26974659567186

> <r_i_glide_ligand_efficiency_sa>
-0.828747003623919

> <r_i_glide_ligand_efficiency_ln>
-1.79118877653593

> <r_i_glide_gscore>
-7.82265127448393

> <r_i_glide_lipo>
-4.20857800071689

> <r_i_glide_hbond>
0

> <r_i_glide_metal>
0

> <r_i_glide_rewards>
-2.37290963528684

> <r_i_glide_evdw>
-26.9989395141602

> <r_i_glide_ecoul>
-2.64900708198547

> <r_i_glide_erotb>
0.533262483725381

> <r_i_glide_esite>
-0.0271280841997554

> <r_i_glide_emodel>
-26.5120655915222

> <r_i_glide_energy>
-29.6479465961456

> <r_i_glide_einternal>
13.0328578948975

> <i_i_glide_confnum>
43

> <i_i_glide_posenum>
107

> <r_i_glide_eff_state_penalty>
0

> <i_f3d_flags>
0

> <s_user_duplicate_titles>
454778

> <s_m_subgroup_title>
dock_pv

> <s_m_subgroupid>
dock_pv1

> <b_m_subgroup_collapsed>
0

$$$$
489659
                    3D
 Schrodinger Suite 2021-1.
 35 37  0  0  1  0            999 V2000
   11.6118   15.1677    4.8030 C   0  0  0  0  0  0
   12.6898   14.4329    4.3315 C   0  0  0  0  0  0
   12.3048   13.3559    3.5456 C   0  0  0  0  0  0
   10.5428   13.2298    3.6030 S   0  0  0  0  0  0
   10.3976   14.5327    4.6822 C   0  0  0  0  0  0
   13.0114   12.4416    2.6548 C   0  0  0  0  0  0
   12.3163   11.6654    2.0030 O   0  0  0  0  0  0
   14.3533   12.3140    2.4612 N   0  0  0  0  0  0
   15.5704   12.8625    2.8832 C   0  0  0  0  0  0
   16.6602   12.1717    2.6771 N   0  0  0  0  0  0
   17.7321   12.7310    3.2030 C   0  0  0  0  0  0
   17.5638   13.9150    3.9216 C   0  0  0  0  0  0
   15.9145   14.4115    3.5891 S   0  0  0  0  0  0
   18.4859   14.4990    4.9880 C   0  0  0  0  0  0
   18.9910   15.9307    4.9389 C   0  0  0  0  0  0
   20.3684   16.1202    4.7740 C   0  0  0  0  0  0
   20.9746   17.3190    5.1622 C   0  0  0  0  0  0
   20.1772   18.3674    5.6028 C   0  0  0  0  0  0
   18.7953   18.2382    5.6324 C   0  0  0  0  0  0
   18.1983   17.0089    5.3670 C   0  0  0  0  0  0
   16.5239   16.8330    5.7630 Cl  0  0  0  0  0  0
   22.4884   17.4340    5.2264 C   0  0  0  0  0  0
   22.9640   17.6330    4.0029 F   0  0  0  0  0  0
   22.9087   18.4330    6.0029 F   0  0  0  0  0  0
   22.9640   16.3003    5.7270 F   0  0  0  0  0  0
   11.7380   16.1559    5.2030 H   0  0  0  0  0  0
   13.6685   14.8140    4.4985 H   0  0  0  0  0  0
    9.4196   14.8335    5.0216 H   0  0  0  0  0  0
   14.4964   11.4501    1.9566 H   0  0  0  0  0  0
   18.6557   12.1697    3.1661 H   0  0  0  0  0  0
   18.0172   14.4331    5.9613 H   0  0  0  0  0  0
   19.3440   13.8492    5.1300 H   0  0  0  0  0  0
   20.9920   15.2856    4.4824 H   0  0  0  0  0  0
   20.6427   19.2493    6.0028 H   0  0  0  0  0  0
   18.1958   19.0531    6.0111 H   0  0  0  0  0  0
  1  5  2  0  0  0
  1  2  1  0  0  0
  1 26  1  0  0  0
  2  3  2  0  0  0
  2 27  1  0  0  0
  3  4  1  0  0  0
  3  6  1  0  0  0
  4  5  1  0  0  0
  5 28  1  0  0  0
  6  7  2  0  0  0
  6  8  1  0  0  0
  8  9  1  0  0  0
  8 29  1  0  0  0
  9 13  1  0  0  0
  9 10  2  0  0  0
 10 11  1  0  0  0
 11 12  2  0  0  0
 11 30  1  0  0  0
 12 13  1  0  0  0
 12 14  1  0  0  0
 14 15  1  0  0  0
 14 31  1  0  0  0
 14 32  1  0  0  0
 15 20  1  0  0  0
 15 16  2  0  0  0
 16 17  1  0  0  0
 16 33  1  0  0  0
 17 18  2  0  0  0
 17 22  1  0  0  0
 18 19  1  0  0  0
 18 34  1  0  0  0
 19 20  2  0  0  0
 19 35  1  0  0  0
 20 21  1  0  0  0
 22 23  1  0  0  0
 22 24  1  0  0  0
 22 25  1  0  0  0
M  END
> <s_m_entry_id>
6589

> <s_m_entry_name>
ligand_docking-pose.100

> <s_m_Source_Path>
/home/csk/Desktop/cluster/DUD-E-result/abl1

> <s_m_Source_File>
ligand_docking-pose.sdf

> <i_m_Source_File_Index>
100

> <i_lp_mmshare_version>
53161

> <r_lp_tautomer_probability>
0.999000488399163

> <s_lp_Force_Field>
OPLS_2005

> <r_lp_Energy>
11.911358

> <b_lp_Chiralities_Consistent>
1

> <s_lp_Variant>
489659-1

> <s_i_glide_gridfile>
glide-grid_2hzi

> <i_i_glide_lignum>
127

> <i_i_glide_rotatable_bonds>
6

> <r_i_docking_score>
-7.77696796100551

> <r_i_glide_ligand_efficiency>
-0.31107871844022

> <r_i_glide_ligand_efficiency_sa>
-0.909599689723767

> <r_i_glide_ligand_efficiency_ln>
-1.84337446368156

> <r_i_glide_gscore>
-7.77696796100551

> <r_i_glide_lipo>
-4.51066177826416

> <r_i_glide_hbond>
-0.451991647683286

> <r_i_glide_metal>
0

> <r_i_glide_rewards>
-2.20523750040884

> <r_i_glide_evdw>
-31.6322574615479

> <r_i_glide_ecoul>
2.45198559761047

> <r_i_glide_erotb>
0.604737998786597

> <r_i_glide_esite>
0

> <r_i_glide_emodel>
-32.7946133446567

> <r_i_glide_energy>
-29.1802718639374

> <r_i_glide_einternal>
16.7131862640381

> <i_i_glide_confnum>
16

> <i_i_glide_posenum>
180

> <r_i_glide_eff_state_penalty>
0

> <i_f3d_flags>
0

> <s_user_duplicate_titles>
489659

> <s_m_subgroup_title>
dock_pv

> <s_m_subgroupid>
dock_pv1

> <b_m_subgroup_collapsed>
0

$$$$
436559
                    3D
 Schrodinger Suite 2021-1.
 35 37  0  0  1  0            999 V2000
   22.1641   18.7112    4.3687 C   0  0  0  0  0  0
   23.0446   18.2321    5.3335 C   0  0  0  0  0  0
   22.7234   17.0864    6.0573 C   0  0  0  0  0  0
   21.5181   16.4205    5.8439 C   0  0  0  0  0  0
   20.6255   16.9066    4.8723 C   0  0  0  0  0  0
   20.9608   18.0463    4.1374 C   0  0  0  0  0  0
   19.2833   16.2870    4.6542 C   0  0  0  0  0  0
   18.2660   16.8671    5.0373 O   0  0  0  0  0  0
   19.3447   15.1139    3.9993 N   0  0  0  0  0  0
   18.2990   14.2801    3.6440 C   0  0  0  0  0  0
   18.5340   13.0963    3.1451 N   0  0  0  0  0  0
   17.3683   12.4229    2.8031 N   0  0  0  0  0  0
   16.2762   13.0946    3.0713 C   0  0  0  0  0  0
   16.6008   14.6766    3.7307 S   0  0  0  0  0  0
   14.6659   12.4330    2.8028 S   0  0  0  0  0  0
   13.6068   13.6438    3.6700 C   0  0  0  0  0  0
   12.1185   13.3083    3.6881 C   0  0  0  0  0  0
   11.5357   12.3902    2.8030 C   0  0  0  0  0  0
   10.1587   12.1736    2.8031 C   0  0  0  0  0  0
    9.3550   12.8327    3.7302 C   0  0  0  0  0  0
    9.9285   13.7040    4.6552 C   0  0  0  0  0  0
   11.2982   13.9615    4.6144 C   0  0  0  0  0  0
    8.9493   14.4330    5.8714 Cl  0  0  0  0  0  0
   21.1683   15.0197    6.8034 Cl  0  0  0  0  0  0
   22.4126   19.6001    3.8065 H   0  0  0  0  0  0
   23.9731   18.7496    5.5232 H   0  0  0  0  0  0
   23.4108   16.7185    6.8030 H   0  0  0  0  0  0
   20.2818   18.4328    3.3931 H   0  0  0  0  0  0
   20.2625   14.7951    3.7250 H   0  0  0  0  0  0
   13.9590   13.7283    4.6986 H   0  0  0  0  0  0
   13.7233   14.6217    3.2031 H   0  0  0  0  0  0
   12.1298   11.8536    2.0771 H   0  0  0  0  0  0
    9.7209   11.4685    2.1113 H   0  0  0  0  0  0
    8.2943   12.6292    3.7614 H   0  0  0  0  0  0
   11.7309   14.6603    5.3139 H   0  0  0  0  0  0
  1  6  1  0  0  0
  1  2  2  0  0  0
  1 25  1  0  0  0
  2  3  1  0  0  0
  2 26  1  0  0  0
  3  4  2  0  0  0
  3 27  1  0  0  0
  4  5  1  0  0  0
  4 24  1  0  0  0
  5  6  2  0  0  0
  5  7  1  0  0  0
  6 28  1  0  0  0
  7  8  2  0  0  0
  7  9  1  0  0  0
  9 10  1  0  0  0
  9 29  1  0  0  0
 10 14  1  0  0  0
 10 11  2  0  0  0
 11 12  1  0  0  0
 12 13  2  0  0  0
 13 14  1  0  0  0
 13 15  1  0  0  0
 15 16  1  0  0  0
 16 17  1  0  0  0
 16 30  1  0  0  0
 16 31  1  0  0  0
 17 22  1  0  0  0
 17 18  2  0  0  0
 18 19  1  0  0  0
 18 32  1  0  0  0
 19 20  2  0  0  0
 19 33  1  0  0  0
 20 21  1  0  0  0
 20 34  1  0  0  0
 21 22  2  0  0  0
 21 23  1  0  0  0
 22 35  1  0  0  0
M  END
> <s_m_entry_id>
6590

> <s_m_entry_name>
ligand_docking-pose.101

> <s_m_Source_Path>
/home/csk/Desktop/cluster/DUD-E-result/abl1

> <s_m_Source_File>
ligand_docking-pose.sdf

> <i_m_Source_File_Index>
101

> <i_lp_mmshare_version>
53161

> <r_lp_tautomer_probability>
1

> <s_lp_Force_Field>
OPLS_2005

> <r_lp_Energy>
17.321621

> <b_lp_Chiralities_Consistent>
1

> <s_lp_Variant>
436559-1

> <s_i_glide_gridfile>
glide-grid_2hzi

> <i_i_glide_lignum>
75

> <i_i_glide_rotatable_bonds>
6

> <r_i_docking_score>
-7.7731000667347

> <r_i_glide_ligand_efficiency>
-0.323879169447279

> <r_i_glide_ligand_efficiency_sa>
-0.93422918494404

> <r_i_glide_ligand_efficiency_ln>
-1.86045953028981

> <r_i_glide_gscore>
-7.7731000667347

> <r_i_glide_lipo>
-4.23420920060699

> <r_i_glide_hbond>
0

> <r_i_glide_metal>
0

> <r_i_glide_rewards>
-1.18198865408932

> <r_i_glide_evdw>
-52.0124855041504

> <r_i_glide_ecoul>
-3.35745668411255

> <r_i_glide_erotb>
0.74734056578601

> <r_i_glide_esite>
0

> <r_i_glide_emodel>
-76.9939784532327

> <r_i_glide_energy>
-55.3699421882629

> <r_i_glide_einternal>
8.63797855377197

> <i_i_glide_confnum>
18

> <i_i_glide_posenum>
136

> <r_i_glide_eff_state_penalty>
0

> <i_f3d_flags>
0

> <s_user_duplicate_titles>
436559

> <s_m_subgroup_title>
dock_pv

> <s_m_subgroupid>
dock_pv1

> <b_m_subgroup_collapsed>
0

$$$$
489662
                    3D
 Schrodinger Suite 2021-1.
 35 37  0  0  1  0            999 V2000
    9.3910   11.2376    1.5987 C   0  0  0  0  0  0
   10.3834   12.0349    2.4221 C   0  0  0  0  0  0
   11.7386   11.7075    2.4072 C   0  0  0  0  0  0
   12.6407   12.4365    3.1849 C   0  0  0  0  0  0
   12.2129   13.5576    3.9101 C   0  0  0  0  0  0
   10.8471   13.8645    3.9335 C   0  0  0  0  0  0
    9.9355   13.1027    3.2034 C   0  0  0  0  0  0
   13.1664   14.4273    4.7438 C   0  0  0  0  0  0
   14.6197   14.6050    4.3021 C   0  0  0  0  0  0
   15.3665   14.1160    3.2208 C   0  0  0  0  0  0
   16.6414   14.4301    3.1419 N   0  0  0  0  0  0
   17.0101   15.1984    4.1215 C   0  0  0  0  0  0
   15.7192   15.6326    5.2053 S   0  0  0  0  0  0
   18.2841   15.7388    4.1802 N   0  0  0  0  0  0
   19.0370   15.8434    5.2961 C   0  0  0  0  0  0
   18.7016   15.4175    6.4028 O   0  0  0  0  0  0
   20.3111   16.5091    5.1256 C   0  0  0  0  0  0
   21.3962   16.4619    6.0034 C   0  0  0  0  0  0
   22.4494   17.3073    5.6363 C   0  0  0  0  0  0
   22.1790   18.0313    4.4854 C   0  0  0  0  0  0
   20.6274   17.6330    3.8203 S   0  0  0  0  0  0
    8.6088   10.8343    2.2408 H   0  0  0  0  0  0
    8.9083   11.8814    0.8639 H   0  0  0  0  0  0
    9.8643   10.4084    1.0736 H   0  0  0  0  0  0
   12.0852   10.8665    1.8246 H   0  0  0  0  0  0
   13.6646   12.1020    3.2170 H   0  0  0  0  0  0
   10.4864   14.6969    4.5192 H   0  0  0  0  0  0
    8.8847   13.3522    3.2306 H   0  0  0  0  0  0
   13.1349   14.0315    5.7586 H   0  0  0  0  0  0
   12.7212   15.4198    4.8243 H   0  0  0  0  0  0
   14.9807   13.4995    2.4259 H   0  0  0  0  0  0
   18.7522   15.8978    3.3001 H   0  0  0  0  0  0
   21.4213   15.8432    6.8899 H   0  0  0  0  0  0
   23.3662   17.3972    6.2027 H   0  0  0  0  0  0
   22.8129   18.7600    4.0012 H   0  0  0  0  0  0
  1  2  1  0  0  0
  1 22  1  0  0  0
  1 23  1  0  0  0
  1 24  1  0  0  0
  2  7  1  0  0  0
  2  3  2  0  0  0
  3  4  1  0  0  0
  3 25  1  0  0  0
  4  5  2  0  0  0
  4 26  1  0  0  0
  5  6  1  0  0  0
  5  8  1  0  0  0
  6  7  2  0  0  0
  6 27  1  0  0  0
  7 28  1  0  0  0
  8  9  1  0  0  0
  8 29  1  0  0  0
  8 30  1  0  0  0
  9 13  1  0  0  0
  9 10  2  0  0  0
 10 11  1  0  0  0
 10 31  1  0  0  0
 11 12  2  0  0  0
 12 13  1  0  0  0
 12 14  1  0  0  0
 14 15  1  0  0  0
 14 32  1  0  0  0
 15 16  2  0  0  0
 15 17  1  0  0  0
 17 21  1  0  0  0
 17 18  2  0  0  0
 18 19  1  0  0  0
 18 33  1  0  0  0
 19 20  2  0  0  0
 19 34  1  0  0  0
 20 21  1  0  0  0
 20 35  1  0  0  0
M  END
> <s_m_entry_id>
6591

> <s_m_entry_name>
ligand_docking-pose.102

> <s_m_Source_Path>
/home/csk/Desktop/cluster/DUD-E-result/abl1

> <s_m_Source_File>
ligand_docking-pose.sdf

> <i_m_Source_File_Index>
102

> <i_lp_mmshare_version>
53161

> <r_lp_tautomer_probability>
0.999000488399163

> <s_lp_Force_Field>
OPLS_2005

> <r_lp_Energy>
10.293727

> <b_lp_Chiralities_Consistent>
1

> <s_lp_Variant>
489662-1

> <s_i_glide_gridfile>
glide-grid_2hzi

> <i_i_glide_lignum>
160

> <i_i_glide_rotatable_bonds>
5

> <r_i_docking_score>
-7.77070234434593

> <r_i_glide_ligand_efficiency>
-0.370033444968854

> <r_i_glide_ligand_efficiency_sa>
-1.02089421635812

> <r_i_glide_ligand_efficiency_ln>
-1.92129045245695

> <r_i_glide_gscore>
-7.77070234434593

> <r_i_glide_lipo>
-3.99593825347402

> <r_i_glide_hbond>
0

> <r_i_glide_metal>
0

> <r_i_glide_rewards>
-2.12481680685246

> <r_i_glide_evdw>
-43.5873908996582

> <r_i_glide_ecoul>
-2.73776173591614

> <r_i_glide_erotb>
0.940086521350872

> <r_i_glide_esite>
0

> <r_i_glide_emodel>
-61.1885714628477

> <r_i_glide_energy>
-46.3251526355743

> <r_i_glide_einternal>
5.60488605499268

> <i_i_glide_confnum>
30

> <i_i_glide_posenum>
147

> <r_i_glide_eff_state_penalty>
0

> <i_f3d_flags>
0

> <s_user_duplicate_titles>
489662

> <s_m_subgroup_title>
dock_pv

> <s_m_subgroupid>
dock_pv1

> <b_m_subgroup_collapsed>
0

$$$$
489667
                    3D
 Schrodinger Suite 2021-1.
 31 33  0  0  1  0            999 V2000
   10.2399   13.2351    3.7136 C   0  0  0  0  0  0
   11.2250   13.8953    4.4419 C   0  0  0  0  0  0
   12.5681   13.6103    4.2066 C   0  0  0  0  0  0
   12.9409   12.6984    3.2050 C   0  0  0  0  0  0
   11.9348   12.0330    2.4912 C   0  0  0  0  0  0
   10.5895   12.2902    2.7543 C   0  0  0  0  0  0
   14.4051   12.3121    2.9183 C   0  0  0  0  0  0
   15.5427   13.2986    3.2053 C   0  0  0  0  0  0
   15.3752   14.5256    3.6437 N   0  0  0  0  0  0
   16.5514   15.2042    3.9118 N   0  0  0  0  0  0
   17.6117   14.4999    3.6102 C   0  0  0  0  0  0
   17.2445   12.9110    2.9934 S   0  0  0  0  0  0
   18.9064   14.9845    3.7125 N   0  0  0  0  0  0
   19.4040   15.4714    4.8726 C   0  0  0  0  0  0
   18.9374   15.2200    5.9878 O   0  0  0  0  0  0
   20.5710   16.3057    4.7219 C   0  0  0  0  0  0
   20.8397   17.2312    3.7066 C   0  0  0  0  0  0
   21.9731   18.0134    3.9604 C   0  0  0  0  0  0
   22.5819   17.6964    5.1656 C   0  0  0  0  0  0
   21.7517   16.4266    6.0029 S   0  0  0  0  0  0
    9.1972   13.4372    3.9109 H   0  0  0  0  0  0
   10.9474   14.6057    5.2058 H   0  0  0  0  0  0
   13.2969   14.0943    4.8356 H   0  0  0  0  0  0
   12.1890   11.2925    1.7453 H   0  0  0  0  0  0
    9.8223   11.7593    2.2088 H   0  0  0  0  0  0
   14.4717   12.0022    1.8744 H   0  0  0  0  0  0
   14.5644   11.3947    3.4823 H   0  0  0  0  0  0
   19.4909   14.9856    2.8869 H   0  0  0  0  0  0
   20.2233   17.3588    2.8282 H   0  0  0  0  0  0
   22.3296   18.7847    3.2927 H   0  0  0  0  0  0
   23.4631   18.1463    5.6011 H   0  0  0  0  0  0
  1  6  1  0  0  0
  1  2  2  0  0  0
  1 21  1  0  0  0
  2  3  1  0  0  0
  2 22  1  0  0  0
  3  4  2  0  0  0
  3 23  1  0  0  0
  4  5  1  0  0  0
  4  7  1  0  0  0
  5  6  2  0  0  0
  5 24  1  0  0  0
  6 25  1  0  0  0
  7  8  1  0  0  0
  7 26  1  0  0  0
  7 27  1  0  0  0
  8 12  1  0  0  0
  8  9  2  0  0  0
  9 10  1  0  0  0
 10 11  2  0  0  0
 11 12  1  0  0  0
 11 13  1  0  0  0
 13 14  1  0  0  0
 13 28  1  0  0  0
 14 15  2  0  0  0
 14 16  1  0  0  0
 16 20  1  0  0  0
 16 17  2  0  0  0
 17 18  1  0  0  0
 17 29  1  0  0  0
 18 19  2  0  0  0
 18 30  1  0  0  0
 19 20  1  0  0  0
 19 31  1  0  0  0
M  END
> <s_m_entry_id>
6592

> <s_m_entry_name>
ligand_docking-pose.103

> <s_m_Source_Path>
/home/csk/Desktop/cluster/DUD-E-result/abl1

> <s_m_Source_File>
ligand_docking-pose.sdf

> <i_m_Source_File_Index>
103

> <i_lp_mmshare_version>
53161

> <r_lp_tautomer_probability>
1

> <s_lp_Force_Field>
OPLS_2005

> <r_lp_Energy>
10.782709

> <b_lp_Chiralities_Consistent>
1

> <s_lp_Variant>
489667-1

> <s_i_glide_gridfile>
glide-grid_2hzi

> <i_i_glide_lignum>
29

> <i_i_glide_rotatable_bonds>
5

> <r_i_docking_score>
-7.7562333621536

> <r_i_glide_ligand_efficiency>
-0.38781166810768

> <r_i_glide_ligand_efficiency_sa>
-1.05268282278136

> <r_i_glide_ligand_efficiency_ln>
-1.94112939284965

> <r_i_glide_gscore>
-7.7562333621536

> <r_i_glide_lipo>
-3.70189984997314

> <r_i_glide_hbond>
-0.130063996929295

> <r_i_glide_metal>
0

> <r_i_glide_rewards>
-2.12792687045427

> <r_i_glide_evdw>
-43.6893997192383

> <r_i_glide_ecoul>
-4.16324758529663

> <r_i_glide_erotb>
1.01261447895951

> <r_i_glide_esite>
0

> <r_i_glide_emodel>
-64.6105594793648

> <r_i_glide_energy>
-47.8526473045349

> <r_i_glide_einternal>
8.87450790405273

> <i_i_glide_confnum>
39

> <i_i_glide_posenum>
398

> <r_i_glide_eff_state_penalty>
0

> <i_f3d_flags>
0

> <s_user_duplicate_titles>
489667

> <s_m_subgroup_title>
dock_pv

> <s_m_subgroupid>
dock_pv1

> <b_m_subgroup_collapsed>
0

$$$$
454780
                    3D
 Schrodinger Suite 2021-1.
 47 49  0  0  1  0            999 V2000
    9.4304   12.8327    3.9999 C   0  0  0  0  0  0
    9.8393   13.3217    5.4024 C   0  0  0  0  0  0
   11.3168   13.7435    5.5201 C   0  0  0  0  0  0
   11.6971   14.8584    4.5270 C   0  0  0  0  0  0
   12.9810   15.5129    4.8030 N   0  0  0  0  0  0
   14.1892   14.9501    4.4029 C   0  0  0  0  0  0
   15.4535   15.4228    4.7975 C   0  0  0  0  0  0
   16.0629   16.4328    5.6047 C   0  0  0  0  0  0
   17.3696   16.3247    5.6093 N   0  0  0  0  0  0
   17.6695   15.2911    4.7974 N   0  0  0  0  0  0
   16.5494   14.7293    4.2427 C   0  0  0  0  0  0
   16.4970   13.7006    3.3882 N   0  0  0  0  0  0
   15.2280   13.3313    3.1237 C   0  0  0  0  0  0
   14.1043   13.8834    3.6030 N   0  0  0  0  0  0
   14.9582   12.0344    2.0043 S   0  0  0  0  0  0
   13.1249   11.9029    1.9781 C   0  0  0  0  0  0
   19.0291   14.8498    4.6033 C   0  0  0  0  0  0
   19.9168   15.8483    3.8139 C   0  0  2  0  0  0
   20.9344   16.6134    4.6540 C   0  0  0  0  0  0
   21.6347   15.9092    5.6372 C   0  0  0  0  0  0
   22.6511   16.5244    6.3329 C   0  0  0  0  0  0
   23.0328   17.8124    6.0096 C   0  0  0  0  0  0
   22.3421   18.5457    5.0511 C   0  0  0  0  0  0
   21.2820   17.9438    4.3763 C   0  0  0  0  0  0
   24.4237   18.4330    6.8027 Cl  0  0  0  0  0  0
   18.9806   16.8474    2.6438 Cl  0  0  0  0  0  0
    8.4282   12.4053    4.0179 H   0  0  0  0  0  0
   10.1022   12.0650    3.6117 H   0  0  0  0  0  0
    9.4202   13.6507    3.2794 H   0  0  0  0  0  0
    9.2009   14.1608    5.6828 H   0  0  0  0  0  0
    9.6279   12.5485    6.1414 H   0  0  0  0  0  0
   11.5157   14.0330    6.5507 H   0  0  0  0  0  0
   11.9774   12.8916    5.3568 H   0  0  0  0  0  0
   11.6654   14.4330    3.5220 H   0  0  0  0  0  0
   10.9333   15.6330    4.5187 H   0  0  0  0  0  0
   13.0245   16.1141    5.6141 H   0  0  0  0  0  0
   15.5896   17.2100    6.1753 H   0  0  0  0  0  0
   12.7770   11.2330    1.2030 H   0  0  0  0  0  0
   12.7503   11.5455    2.9377 H   0  0  0  0  0  0
   12.6571   12.8591    1.7665 H   0  0  0  0  0  0
   19.4068   14.5752    5.5854 H   0  0  0  0  0  0
   18.9859   13.9135    4.0464 H   0  0  0  0  0  0
   20.5637   15.2332    3.2030 H   0  0  0  0  0  0
   21.4528   14.8665    5.8454 H   0  0  0  0  0  0
   23.2111   15.9869    7.0786 H   0  0  0  0  0  0
   22.6451   19.5561    4.8152 H   0  0  0  0  0  0
   20.7780   18.4995    3.6031 H   0  0  0  0  0  0
  1  2  1  0  0  0
  1 27  1  0  0  0
  1 28  1  0  0  0
  1 29  1  0  0  0
  2  3  1  0  0  0
  2 30  1  0  0  0
  2 31  1  0  0  0
  3  4  1  0  0  0
  3 32  1  0  0  0
  3 33  1  0  0  0
  4  5  1  0  0  0
  4 34  1  0  0  0
  4 35  1  0  0  0
  5  6  1  0  0  0
  5 36  1  0  0  0
  6 14  1  0  0  0
  6  7  2  0  0  0
  7 11  1  0  0  0
  7  8  1  0  0  0
  8  9  2  0  0  0
  8 37  1  0  0  0
  9 10  1  0  0  0
 10 11  1  0  0  0
 10 17  1  0  0  0
 11 12  2  0  0  0
 12 13  1  0  0  0
 13 14  2  0  0  0
 13 15  1  0  0  0
 15 16  1  0  0  0
 16 38  1  0  0  0
 16 39  1  0  0  0
 16 40  1  0  0  0
 17 18  1  0  0  0
 17 41  1  0  0  0
 17 42  1  0  0  0
 18 19  1  0  0  0
 18 26  1  0  0  0
 18 43  1  0  0  0
 19 24  1  0  0  0
 19 20  2  0  0  0
 20 21  1  0  0  0
 20 44  1  0  0  0
 21 22  2  0  0  0
 21 45  1  0  0  0
 22 23  1  0  0  0
 22 25  1  0  0  0
 23 24  2  0  0  0
 23 46  1  0  0  0
 24 47  1  0  0  0
M  END
> <s_m_entry_id>
6593

> <s_m_entry_name>
ligand_docking-pose.104

> <s_m_Source_Path>
/home/csk/Desktop/cluster/DUD-E-result/abl1

> <s_m_Source_File>
ligand_docking-pose.sdf

> <i_m_Source_File_Index>
104

> <i_lp_mmshare_version>
53161

> <r_lp_tautomer_probability>
1

> <s_lp_Force_Field>
OPLS_2005

> <r_lp_Energy>
6.097778

> <b_lp_Chiralities_Consistent>
1

> <s_lp_Variant>
454780-2

> <s_i_glide_gridfile>
glide-grid_2hzi

> <i_i_glide_lignum>
289

> <i_i_glide_rotatable_bonds>
8

> <r_i_docking_score>
-7.73455977771041

> <r_i_glide_ligand_efficiency>
-0.297483068373477

> <r_i_glide_ligand_efficiency_sa>
-0.881292419517076

> <r_i_glide_ligand_efficiency_ln>
-1.81643598463464

> <r_i_glide_gscore>
-7.73455977771041

> <r_i_glide_lipo>
-3.92078529680999

> <r_i_glide_hbond>
0

> <r_i_glide_metal>
0

> <r_i_glide_rewards>
-2.25633050470856

> <r_i_glide_evdw>
-34.9578742980957

> <r_i_glide_ecoul>
-3.40958595275879

> <r_i_glide_erotb>
0.701887631626751

> <r_i_glide_esite>
0

> <r_i_glide_emodel>
-40.1467397798906

> <r_i_glide_energy>
-38.3674602508545

> <r_i_glide_einternal>
12.5671253204346

> <i_i_glide_confnum>
62

> <i_i_glide_posenum>
51

> <r_i_glide_eff_state_penalty>
0

> <i_f3d_flags>
0

> <s_user_duplicate_titles>
454780

> <s_m_subgroup_title>
dock_pv

> <s_m_subgroupid>
dock_pv1

> <b_m_subgroup_collapsed>
0

$$$$
436853
                    3D
 Schrodinger Suite 2021-1.
 37 39  0  0  1  0            999 V2000
    9.9690   13.0707    3.6281 C   0  0  0  0  0  0
    9.0200   13.1981    4.6411 C   0  0  0  0  0  0
    9.4322   13.4623    5.9495 C   0  0  0  0  0  0
   10.7847   13.6348    6.2308 C   0  0  0  0  0  0
   11.7192   13.6258    5.2037 C   0  0  0  0  0  0
   11.3250   13.2550    3.9145 C   0  0  0  0  0  0
   12.3489   13.0122    2.8098 C   0  0  0  0  0  0
   13.8024   12.0345    3.3232 S   0  0  0  0  0  0
   14.9903   13.3252    3.4476 C   0  0  0  0  0  0
   14.8247   14.4057    4.1690 N   0  0  0  0  0  0
   15.9802   15.1532    4.3179 N   0  0  0  0  0  0
   16.9977   14.6098    3.6980 C   0  0  0  0  0  0
   16.6117   13.1536    2.8144 S   0  0  0  0  0  0
   18.2632   15.1604    3.7440 N   0  0  0  0  0  0
   19.1062   14.9576    4.7786 C   0  0  0  0  0  0
   18.9633   14.0450    5.6015 O   0  0  0  0  0  0
   20.3097   15.8691    4.8750 C   0  0  0  0  0  0
   20.3604   17.1114    4.2143 C   0  0  0  0  0  0
   21.4331   17.9691    4.4124 C   0  0  0  0  0  0
   22.4420   17.6189    5.3105 C   0  0  0  0  0  0
   22.4096   16.3961    5.9685 C   0  0  0  0  0  0
   21.3620   15.5166    5.7336 C   0  0  0  0  0  0
   23.7596   18.6973    5.5984 Cl  0  0  0  0  0  0
    8.4721   13.5148    7.0588 N   0  3  0  0  0  0
    8.3205   14.6038    7.5990 O   0  5  0  0  0  0
    7.9271   12.4681    7.3895 O   0  0  0  0  0  0
    9.6541   12.7822    2.6365 H   0  0  0  0  0  0
    7.9813   13.0157    4.4047 H   0  0  0  0  0  0
   11.1103   13.8371    7.2432 H   0  0  0  0  0  0
   12.7568   13.7909    5.4548 H   0  0  0  0  0  0
   12.6152   13.9824    2.4049 H   0  0  0  0  0  0
   11.9096   12.4352    1.9972 H   0  0  0  0  0  0
   18.5894   15.6594    2.9340 H   0  0  0  0  0  0
   19.5590   17.4344    3.5697 H   0  0  0  0  0  0
   21.4549   18.9240    3.9174 H   0  0  0  0  0  0
   23.2092   16.1170    6.6519 H   0  0  0  0  0  0
   21.3568   14.5678    6.2499 H   0  0  0  0  0  0
  1  6  1  0  0  0
  1  2  2  0  0  0
  1 27  1  0  0  0
  2  3  1  0  0  0
  2 28  1  0  0  0
  3  4  2  0  0  0
  3 24  1  0  0  0
  4  5  1  0  0  0
  4 29  1  0  0  0
  5  6  2  0  0  0
  5 30  1  0  0  0
  6  7  1  0  0  0
  7  8  1  0  0  0
  7 31  1  0  0  0
  7 32  1  0  0  0
  8  9  1  0  0  0
  9 13  1  0  0  0
  9 10  2  0  0  0
 10 11  1  0  0  0
 11 12  2  0  0  0
 12 13  1  0  0  0
 12 14  1  0  0  0
 14 15  1  0  0  0
 14 33  1  0  0  0
 15 16  2  0  0  0
 15 17  1  0  0  0
 17 22  1  0  0  0
 17 18  2  0  0  0
 18 19  1  0  0  0
 18 34  1  0  0  0
 19 20  2  0  0  0
 19 35  1  0  0  0
 20 21  1  0  0  0
 20 23  1  0  0  0
 21 22  2  0  0  0
 21 36  1  0  0  0
 22 37  1  0  0  0
 24 25  1  0  0  0
 24 26  2  0  0  0
M  CHG  2  24   1  25  -1
M  END
> <s_m_entry_id>
6594

> <s_m_entry_name>
ligand_docking-pose.105

> <s_m_Source_Path>
/home/csk/Desktop/cluster/DUD-E-result/abl1

> <s_m_Source_File>
ligand_docking-pose.sdf

> <i_m_Source_File_Index>
105

> <i_lp_mmshare_version>
53161

> <r_lp_tautomer_probability>
1

> <s_lp_Force_Field>
OPLS_2005

> <r_lp_Energy>
15.946014

> <b_lp_Chiralities_Consistent>
1

> <s_lp_Variant>
436853-1

> <s_i_glide_gridfile>
glide-grid_2hzi

> <i_i_glide_lignum>
83

> <i_i_glide_rotatable_bonds>
7

> <r_i_docking_score>
-7.72420224496297

> <r_i_glide_ligand_efficiency>
-0.297084701729345

> <r_i_glide_ligand_efficiency_sa>
-0.880112259901331

> <r_i_glide_ligand_efficiency_ln>
-1.81400355205474

> <r_i_glide_gscore>
-7.72420224496297

> <r_i_glide_lipo>
-4.34260021158332

> <r_i_glide_hbond>
0

> <r_i_glide_metal>
0

> <r_i_glide_rewards>
-1.36024892425224

> <r_i_glide_evdw>
-45.0880584716797

> <r_i_glide_ecoul>
-3.19834303855896

> <r_i_glide_erotb>
0.712801270240408

> <r_i_glide_esite>
0

> <r_i_glide_emodel>
-51.5118815525448

> <r_i_glide_energy>
-48.2864015102386

> <r_i_glide_einternal>
16.8373336791992

> <i_i_glide_confnum>
14

> <i_i_glide_posenum>
242

> <r_i_glide_eff_state_penalty>
0

> <i_f3d_flags>
0

> <s_user_duplicate_titles>
436853

> <s_m_subgroup_title>
dock_pv

> <s_m_subgroupid>
dock_pv1

> <b_m_subgroup_collapsed>
0

$$$$
402632
                    3D
 Schrodinger Suite 2021-1.
 45 48  0  0  1  0            999 V2000
   14.6427   11.6330    1.6833 C   0  0  0  0  0  0
   16.2163   12.4104    2.0030 S   0  0  0  0  0  0
   15.9525   13.5895    3.1761 C   0  0  0  0  0  0
   14.6818   13.8339    3.5261 N   0  0  0  0  0  0
   14.4361   14.6995    4.5189 C   0  0  0  0  0  0
   15.5608   15.3415    5.1225 C   0  0  0  0  0  0
   15.9445   16.2719    6.1306 C   0  0  0  0  0  0
   17.2339   16.4083    6.2741 N   0  0  0  0  0  0
   17.7880   15.5873    5.3834 N   0  0  0  0  0  0
   16.8331   14.9639    4.6282 C   0  0  0  0  0  0
   17.0799   14.0977    3.6689 N   0  0  0  0  0  0
   19.2097   15.3248    5.4036 C   0  0  0  0  0  0
   19.9879   15.8050    4.1395 C   0  0  2  0  0  0
   21.1012   16.7585    4.5343 C   0  0  0  0  0  0
   21.2643   17.9920    3.8949 C   0  0  0  0  0  0
   22.2868   18.8332    4.2789 C   0  0  0  0  0  0
   23.1342   18.4440    5.2994 C   0  0  0  0  0  0
   22.9639   17.2466    5.9753 C   0  0  0  0  0  0
   21.9694   16.3804    5.5653 C   0  0  0  0  0  0
   24.1640   19.2329    5.6030 F   0  0  0  0  0  0
   18.9642   16.4603    2.8114 Cl  0  0  0  0  0  0
   13.0750   14.8356    4.8820 N   0  0  0  0  0  0
   11.8750   14.2052    4.4250 C   0  0  0  0  0  0
   10.6355   14.6353    4.9185 C   0  0  0  0  0  0
    9.4289   14.0440    4.5397 C   0  0  0  0  0  0
    9.4226   13.0201    3.6027 C   0  0  0  0  0  0
   10.6273   12.5856    3.0685 C   0  0  0  0  0  0
   11.8290   13.1557    3.4934 C   0  0  0  0  0  0
   10.6397   11.2330    1.7316 Br  0  0  0  0  0  0
   14.7493   10.8331    0.9479 H   0  0  0  0  0  0
   14.2928   11.2330    2.6355 H   0  0  0  0  0  0
   13.9335   12.3689    1.3174 H   0  0  0  0  0  0
   15.3640   16.8328    6.8031 H   0  0  0  0  0  0
   19.3345   14.2479    5.5260 H   0  0  0  0  0  0
   19.6011   15.7548    6.3270 H   0  0  0  0  0  0
   20.4777   14.9369    3.6945 H   0  0  0  0  0  0
   20.6301   18.3167    3.0877 H   0  0  0  0  0  0
   22.4454   19.7751    3.7752 H   0  0  0  0  0  0
   23.6399   16.9722    6.7723 H   0  0  0  0  0  0
   21.8791   15.4218    6.0559 H   0  0  0  0  0  0
   12.9399   15.5005    5.6281 H   0  0  0  0  0  0
   10.5640   15.4558    5.6030 H   0  0  0  0  0  0
    8.4980   14.3970    4.9581 H   0  0  0  0  0  0
    8.4936   12.5685    3.2866 H   0  0  0  0  0  0
   12.7055   12.7307    3.0619 H   0  0  0  0  0  0
  1  2  1  0  0  0
  1 30  1  0  0  0
  1 31  1  0  0  0
  1 32  1  0  0  0
  2  3  1  0  0  0
  3 11  1  0  0  0
  3  4  2  0  0  0
  4  5  1  0  0  0
  5  6  2  0  0  0
  5 22  1  0  0  0
  6 10  1  0  0  0
  6  7  1  0  0  0
  7  8  2  0  0  0
  7 33  1  0  0  0
  8  9  1  0  0  0
  9 10  1  0  0  0
  9 12  1  0  0  0
 10 11  2  0  0  0
 12 13  1  0  0  0
 12 34  1  0  0  0
 12 35  1  0  0  0
 13 14  1  0  0  0
 13 21  1  0  0  0
 13 36  1  0  0  0
 14 19  1  0  0  0
 14 15  2  0  0  0
 15 16  1  0  0  0
 15 37  1  0  0  0
 16 17  2  0  0  0
 16 38  1  0  0  0
 17 18  1  0  0  0
 17 20  1  0  0  0
 18 19  2  0  0  0
 18 39  1  0  0  0
 19 40  1  0  0  0
 22 23  1  0  0  0
 22 41  1  0  0  0
 23 28  1  0  0  0
 23 24  2  0  0  0
 24 25  1  0  0  0
 24 42  1  0  0  0
 25 26  2  0  0  0
 25 43  1  0  0  0
 26 27  1  0  0  0
 26 44  1  0  0  0
 27 28  2  0  0  0
 27 29  1  0  0  0
 28 45  1  0  0  0
M  END
> <s_m_entry_id>
6595

> <s_m_entry_name>
ligand_docking-pose.106

> <s_m_Source_Path>
/home/csk/Desktop/cluster/DUD-E-result/abl1

> <s_m_Source_File>
ligand_docking-pose.sdf

> <i_m_Source_File_Index>
106

> <i_lp_mmshare_version>
53161

> <r_lp_tautomer_probability>
1

> <s_lp_Force_Field>
OPLS_2005

> <r_lp_Energy>
12.923055

> <b_lp_Chiralities_Consistent>
1

> <s_lp_Variant>
402632-2

> <s_i_glide_gridfile>
glide-grid_2hzi

> <i_i_glide_lignum>
543

> <i_i_glide_rotatable_bonds>
6

> <r_i_docking_score>
-7.7149975878383

> <r_i_glide_ligand_efficiency>
-0.266034399580631

> <r_i_glide_ligand_efficiency_sa>
-0.817341961125394

> <r_i_glide_ligand_efficiency_ln>
-1.76653881215603

> <r_i_glide_gscore>
-7.7149975878383

> <r_i_glide_lipo>
-4.5054285070681

> <r_i_glide_hbond>
0

> <r_i_glide_metal>
0

> <r_i_glide_rewards>
-1.72906299058316

> <r_i_glide_evdw>
-30.3640098571777

> <r_i_glide_ecoul>
-2.46879100799561

> <r_i_glide_erotb>
0.419338006578474

> <r_i_glide_esite>
-0.011324952707288

> <r_i_glide_emodel>
-29.0323603698041

> <r_i_glide_energy>
-32.8328008651733

> <r_i_glide_einternal>
12.6018333435059

> <i_i_glide_confnum>
35

> <i_i_glide_posenum>
306

> <r_i_glide_eff_state_penalty>
0

> <i_f3d_flags>
0

> <s_user_duplicate_titles>
402632

> <s_m_subgroup_title>
dock_pv

> <s_m_subgroupid>
dock_pv1

> <b_m_subgroup_collapsed>
0

$$$$
489586
                    3D
 Schrodinger Suite 2021-1.
 32 34  0  0  1  0            999 V2000
   14.0819   12.1275    2.8778 C   0  0  0  0  0  0
   12.6930   12.0446    2.8032 C   0  0  0  0  0  0
   11.9140   13.0127    3.4262 C   0  0  0  0  0  0
   12.5198   14.0683    4.1016 C   0  0  0  0  0  0
   13.9176   14.1959    4.1322 C   0  0  0  0  0  0
   14.6904   13.1869    3.5426 C   0  0  0  0  0  0
   14.5119   15.4637    4.7560 C   0  0  0  0  0  0
   15.9937   15.5620    5.0995 C   0  0  0  0  0  0
   16.5710   16.0289    6.2850 C   0  0  0  0  0  0
   17.8835   16.0578    6.3650 N   0  0  0  0  0  0
   18.4392   15.7068    5.2319 C   0  0  0  0  0  0
   17.3300   15.2325    4.0026 S   0  0  0  0  0  0
   19.7616   15.9067    4.8831 N   0  0  0  0  0  0
   20.7834   15.9647    5.7619 C   0  0  0  0  0  0
   20.8396   15.3019    6.8022 O   0  0  0  0  0  0
   21.7868   16.9612    5.4566 C   0  0  0  0  0  0
   22.9610   17.1976    6.1649 C   0  0  0  0  0  0
   23.5981   18.3902    5.8129 C   0  0  0  0  0  0
   22.9410   19.0654    4.8030 C   0  0  0  0  0  0
   21.5557   18.2010    4.2398 S   0  0  0  0  0  0
   11.7323   14.9854    4.7090 F   0  0  0  0  0  0
   14.6932   11.3726    2.4092 H   0  0  0  0  0  0
   12.2188   11.2332    2.2711 H   0  0  0  0  0  0
   10.8369   12.9429    3.3908 H   0  0  0  0  0  0
   15.7640   13.1959    3.5640 H   0  0  0  0  0  0
   13.9527   15.6322    5.6717 H   0  0  0  0  0  0
   14.2374   16.2936    4.1023 H   0  0  0  0  0  0
   16.0031   16.3385    7.1511 H   0  0  0  0  0  0
   19.9377   16.2022    3.9340 H   0  0  0  0  0  0
   23.3195   16.5529    6.9538 H   0  0  0  0  0  0
   24.4973   18.7477    6.2925 H   0  0  0  0  0  0
   23.2123   20.0181    4.3711 H   0  0  0  0  0  0
  1  6  1  0  0  0
  1  2  2  0  0  0
  1 22  1  0  0  0
  2  3  1  0  0  0
  2 23  1  0  0  0
  3  4  2  0  0  0
  3 24  1  0  0  0
  4  5  1  0  0  0
  4 21  1  0  0  0
  5  6  2  0  0  0
  5  7  1  0  0  0
  6 25  1  0  0  0
  7  8  1  0  0  0
  7 26  1  0  0  0
  7 27  1  0  0  0
  8 12  1  0  0  0
  8  9  2  0  0  0
  9 10  1  0  0  0
  9 28  1  0  0  0
 10 11  2  0  0  0
 11 12  1  0  0  0
 11 13  1  0  0  0
 13 14  1  0  0  0
 13 29  1  0  0  0
 14 15  2  0  0  0
 14 16  1  0  0  0
 16 20  1  0  0  0
 16 17  2  0  0  0
 17 18  1  0  0  0
 17 30  1  0  0  0
 18 19  2  0  0  0
 18 31  1  0  0  0
 19 20  1  0  0  0
 19 32  1  0  0  0
M  END
> <s_m_entry_id>
6596

> <s_m_entry_name>
ligand_docking-pose.107

> <s_m_Source_Path>
/home/csk/Desktop/cluster/DUD-E-result/abl1

> <s_m_Source_File>
ligand_docking-pose.sdf

> <i_m_Source_File_Index>
107

> <i_lp_mmshare_version>
53161

> <r_lp_tautomer_probability>
0.999000488399163

> <s_lp_Force_Field>
OPLS_2005

> <r_lp_Energy>
10.333452

> <b_lp_Chiralities_Consistent>
1

> <s_lp_Variant>
489586-1

> <s_i_glide_gridfile>
glide-grid_2hzi

> <i_i_glide_lignum>
26

> <i_i_glide_rotatable_bonds>
5

> <r_i_docking_score>
-7.71190415694973

> <r_i_glide_ligand_efficiency>
-0.367233531283321

> <r_i_glide_ligand_efficiency_sa>
-1.01316946680716

> <r_i_glide_ligand_efficiency_ln>
-1.90675271943617

> <r_i_glide_gscore>
-7.71190415694973

> <r_i_glide_lipo>
-4.18437907992115

> <r_i_glide_hbond>
-0.00407887788845556

> <r_i_glide_metal>
0

> <r_i_glide_rewards>
-1.81203461241769

> <r_i_glide_evdw>
-39.7791175842285

> <r_i_glide_ecoul>
-4.28028535842896

> <r_i_glide_erotb>
0.919587096253329

> <r_i_glide_esite>
0

> <r_i_glide_emodel>
-52.9046898662822

> <r_i_glide_energy>
-44.0594029426575

> <r_i_glide_einternal>
16.331485748291

> <i_i_glide_confnum>
9

> <i_i_glide_posenum>
253

> <r_i_glide_eff_state_penalty>
0

> <i_f3d_flags>
0

> <s_user_duplicate_titles>
489586

> <s_m_subgroup_title>
dock_pv

> <s_m_subgroupid>
dock_pv1

> <b_m_subgroup_collapsed>
0

$$$$
454709
                    3D
 Schrodinger Suite 2021-1.
 51 54  0  0  1  0            999 V2000
   14.9177   11.6331    1.8070 C   0  0  0  0  0  0
   16.5516   12.0334    2.4029 S   0  0  0  0  0  0
   16.2769   13.4395    3.3342 C   0  0  0  0  0  0
   15.0264   13.6673    3.8120 N   0  0  0  0  0  0
   14.8705   14.7309    4.6306 C   0  0  0  0  0  0
   15.9803   15.5296    4.9564 C   0  0  0  0  0  0
   16.3396   16.6495    5.7562 C   0  0  0  0  0  0
   17.5941   16.9692    5.6017 N   0  0  0  0  0  0
   18.1337   16.0502    4.7751 N   0  0  0  0  0  0
   17.1967   15.1561    4.3605 C   0  0  0  0  0  0
   17.4003   14.1338    3.5556 N   0  0  0  0  0  0
   19.5144   16.1201    4.3569 C   0  0  0  0  0  0
   20.4219   16.3276    5.5800 C   0  0  2  0  0  0
   21.6081   17.2383    5.3694 C   0  0  0  0  0  0
   21.5300   18.3107    4.4714 C   0  0  0  0  0  0
   22.5641   19.2181    4.3848 C   0  0  0  0  0  0
   23.6662   19.0546    5.2049 C   0  0  0  0  0  0
   23.7315   18.0382    6.1386 C   0  0  0  0  0  0
   22.7157   17.1036    6.2001 C   0  0  0  0  0  0
   20.8053   14.5617    6.4043 Br  0  0  0  0  0  0
   13.6249   14.9882    5.2029 N   0  0  0  0  0  0
   12.5670   13.9892    5.3637 C   0  0  0  0  0  0
   11.2696   14.3018    4.5829 C   0  0  0  0  0  0
   10.7931   13.2329    3.6029 C   0  0  0  0  0  0
    9.4237   13.0586    3.3831 C   0  0  0  0  0  0
    8.9774   12.1094    2.4642 C   0  0  0  0  0  0
    9.8927   11.3332    1.7629 C   0  0  0  0  0  0
   11.2572   11.4934    1.9734 C   0  0  0  0  0  0
   11.7023   12.4445    2.8835 C   0  0  0  0  0  0
   14.9638   10.8574    1.0492 H   0  0  0  0  0  0
   14.3626   11.2586    2.6660 H   0  0  0  0  0  0
   14.4206   12.5099    1.3948 H   0  0  0  0  0  0
   15.7347   17.2312    6.4131 H   0  0  0  0  0  0
   19.5400   16.8928    3.5988 H   0  0  0  0  0  0
   19.8001   15.2062    3.8315 H   0  0  0  0  0  0
   19.8986   16.8378    6.3704 H   0  0  0  0  0  0
   20.6688   18.5099    3.8610 H   0  0  0  0  0  0
   22.5155   20.0471    3.6960 H   0  0  0  0  0  0
   24.4714   19.7602    5.2018 H   0  0  0  0  0  0
   24.5641   17.9903    6.8227 H   0  0  0  0  0  0
   22.7834   16.3166    6.9337 H   0  0  0  0  0  0
   13.5402   15.8265    5.7586 H   0  0  0  0  0  0
   12.9459   12.9897    5.1688 H   0  0  0  0  0  0
   12.3206   13.9294    6.4245 H   0  0  0  0  0  0
   10.4766   14.4732    5.3159 H   0  0  0  0  0  0
   11.3596   15.2323    4.0282 H   0  0  0  0  0  0
    8.7006   13.6500    3.9234 H   0  0  0  0  0  0
    7.9224   11.9658    2.3017 H   0  0  0  0  0  0
    9.5453   10.5892    1.0610 H   0  0  0  0  0  0
   11.9611   10.8852    1.4269 H   0  0  0  0  0  0
   12.7548   12.5942    3.0275 H   0  0  0  0  0  0
  1  2  1  0  0  0
  1 30  1  0  0  0
  1 31  1  0  0  0
  1 32  1  0  0  0
  2  3  1  0  0  0
  3 11  1  0  0  0
  3  4  2  0  0  0
  4  5  1  0  0  0
  5  6  2  0  0  0
  5 21  1  0  0  0
  6 10  1  0  0  0
  6  7  1  0  0  0
  7  8  2  0  0  0
  7 33  1  0  0  0
  8  9  1  0  0  0
  9 10  1  0  0  0
  9 12  1  0  0  0
 10 11  2  0  0  0
 12 13  1  0  0  0
 12 34  1  0  0  0
 12 35  1  0  0  0
 13 14  1  0  0  0
 13 20  1  0  0  0
 13 36  1  0  0  0
 14 19  1  0  0  0
 14 15  2  0  0  0
 15 16  1  0  0  0
 15 37  1  0  0  0
 16 17  2  0  0  0
 16 38  1  0  0  0
 17 18  1  0  0  0
 17 39  1  0  0  0
 18 19  2  0  0  0
 18 40  1  0  0  0
 19 41  1  0  0  0
 21 22  1  0  0  0
 21 42  1  0  0  0
 22 23  1  0  0  0
 22 43  1  0  0  0
 22 44  1  0  0  0
 23 24  1  0  0  0
 23 45  1  0  0  0
 23 46  1  0  0  0
 24 29  1  0  0  0
 24 25  2  0  0  0
 25 26  1  0  0  0
 25 47  1  0  0  0
 26 27  2  0  0  0
 26 48  1  0  0  0
 27 28  1  0  0  0
 27 49  1  0  0  0
 28 29  2  0  0  0
 28 50  1  0  0  0
 29 51  1  0  0  0
M  END
> <s_m_entry_id>
6597

> <s_m_entry_name>
ligand_docking-pose.108

> <s_m_Source_Path>
/home/csk/Desktop/cluster/DUD-E-result/abl1

> <s_m_Source_File>
ligand_docking-pose.sdf

> <i_m_Source_File_Index>
108

> <i_lp_mmshare_version>
53161

> <r_lp_tautomer_probability>
1

> <s_lp_Force_Field>
OPLS_2005

> <r_lp_Energy>
8.596189

> <b_lp_Chiralities_Consistent>
1

> <s_lp_Variant>
454709-2

> <s_i_glide_gridfile>
glide-grid_2hzi

> <i_i_glide_lignum>
509

> <i_i_glide_rotatable_bonds>
8

> <r_i_docking_score>
-7.68694701304324

> <r_i_glide_ligand_efficiency>
-0.265067138380802

> <r_i_glide_ligand_efficiency_sa>
-0.81437022826966

> <r_i_glide_ligand_efficiency_ln>
-1.76011594182917

> <r_i_glide_gscore>
-7.68694701304324

> <r_i_glide_lipo>
-4.39107517742555

> <r_i_glide_hbond>
0

> <r_i_glide_metal>
0

> <r_i_glide_rewards>
-1.84426563227511

> <r_i_glide_evdw>
-29.3900318145752

> <r_i_glide_ecoul>
-3.56141209602356

> <r_i_glide_erotb>
0.552107201789705

> <r_i_glide_esite>
0

> <r_i_glide_emodel>
-19.4768770633687

> <r_i_glide_energy>
-32.9514439105988

> <r_i_glide_einternal>
28.6443939208984

> <i_i_glide_confnum>
19

> <i_i_glide_posenum>
204

> <r_i_glide_eff_state_penalty>
0

> <i_f3d_flags>
0

> <s_user_duplicate_titles>
454709

> <s_m_subgroup_title>
dock_pv

> <s_m_subgroupid>
dock_pv1

> <b_m_subgroup_collapsed>
0

$$$$
436657
                    3D
 Schrodinger Suite 2021-1.
 35 37  0  0  1  0            999 V2000
   22.0972   18.5948    4.4851 C   0  0  0  0  0  0
   22.9639   18.0324    5.4172 C   0  0  0  0  0  0
   22.5991   16.8658    6.0857 C   0  0  0  0  0  0
   21.3685   16.2561    5.8455 C   0  0  0  0  0  0
   20.4999   16.8088    4.8837 C   0  0  0  0  0  0
   20.8692   17.9884    4.2253 C   0  0  0  0  0  0
   19.1643   16.1984    4.5768 C   0  0  0  0  0  0
   18.1253   16.8180    4.8099 O   0  0  0  0  0  0
   19.2637   14.9841    4.0047 N   0  0  0  0  0  0
   18.2536   14.1284    3.6049 C   0  0  0  0  0  0
   18.5455   12.9190    3.2032 N   0  0  0  0  0  0
   17.4368   12.2164    2.7720 N   0  0  0  0  0  0
   16.3510   12.9396    2.7711 C   0  0  0  0  0  0
   16.5541   14.5184    3.4728 S   0  0  0  0  0  0
   14.8658   12.4330    2.0108 S   0  0  0  0  0  0
   13.9521   12.0782    3.5305 C   0  0  0  0  0  0
   12.5649   12.6862    3.5074 C   0  0  0  0  0  0
   11.5487   12.0340    2.8022 C   0  0  0  0  0  0
   10.2432   12.5142    2.8539 C   0  0  0  0  0  0
    9.9661   13.6580    3.6028 C   0  0  0  0  0  0
   10.9744   14.3124    4.3091 C   0  0  0  0  0  0
   12.2790   13.8286    4.2596 C   0  0  0  0  0  0
    8.1984   14.3534    3.6340 Br  0  0  0  0  0  0
   20.9642   14.8432    6.7705 Cl  0  0  0  0  0  0
   22.3757   19.5023    3.9684 H   0  0  0  0  0  0
   23.9153   18.5009    5.6233 H   0  0  0  0  0  0
   23.2823   16.4351    6.8037 H   0  0  0  0  0  0
   20.2043   18.4312    3.4995 H   0  0  0  0  0  0
   20.1999   14.6455    3.8376 H   0  0  0  0  0  0
   13.8619   10.9979    3.6263 H   0  0  0  0  0  0
   14.5026   12.4217    4.4033 H   0  0  0  0  0  0
   11.7655   11.1386    2.2349 H   0  0  0  0  0  0
    9.4560   12.0044    2.3175 H   0  0  0  0  0  0
   10.7476   15.1968    4.8850 H   0  0  0  0  0  0
   13.0575   14.3280    4.8185 H   0  0  0  0  0  0
  1  6  1  0  0  0
  1  2  2  0  0  0
  1 25  1  0  0  0
  2  3  1  0  0  0
  2 26  1  0  0  0
  3  4  2  0  0  0
  3 27  1  0  0  0
  4  5  1  0  0  0
  4 24  1  0  0  0
  5  6  2  0  0  0
  5  7  1  0  0  0
  6 28  1  0  0  0
  7  8  2  0  0  0
  7  9  1  0  0  0
  9 10  1  0  0  0
  9 29  1  0  0  0
 10 14  1  0  0  0
 10 11  2  0  0  0
 11 12  1  0  0  0
 12 13  2  0  0  0
 13 14  1  0  0  0
 13 15  1  0  0  0
 15 16  1  0  0  0
 16 17  1  0  0  0
 16 30  1  0  0  0
 16 31  1  0  0  0
 17 22  1  0  0  0
 17 18  2  0  0  0
 18 19  1  0  0  0
 18 32  1  0  0  0
 19 20  2  0  0  0
 19 33  1  0  0  0
 20 21  1  0  0  0
 20 23  1  0  0  0
 21 22  2  0  0  0
 21 34  1  0  0  0
 22 35  1  0  0  0
M  END
> <s_m_entry_id>
6598

> <s_m_entry_name>
ligand_docking-pose.109

> <s_m_Source_Path>
/home/csk/Desktop/cluster/DUD-E-result/abl1

> <s_m_Source_File>
ligand_docking-pose.sdf

> <i_m_Source_File_Index>
109

> <i_lp_mmshare_version>
53161

> <r_lp_tautomer_probability>
1

> <s_lp_Force_Field>
OPLS_2005

> <r_lp_Energy>
16.148936

> <b_lp_Chiralities_Consistent>
1

> <s_lp_Variant>
436657-1

> <s_i_glide_gridfile>
glide-grid_2hzi

> <i_i_glide_lignum>
74

> <i_i_glide_rotatable_bonds>
6

> <r_i_docking_score>
-7.61928264115066

> <r_i_glide_ligand_efficiency>
-0.317470110047944

> <r_i_glide_ligand_efficiency_sa>
-0.915742258634094

> <r_i_glide_ligand_efficiency_ln>
-1.82364396212581

> <r_i_glide_gscore>
-7.61928264115066

> <r_i_glide_lipo>
-4.21707443016338

> <r_i_glide_hbond>
0

> <r_i_glide_metal>
0

> <r_i_glide_rewards>
-0.970131181715701

> <r_i_glide_evdw>
-47.6799125671387

> <r_i_glide_ecoul>
-4.43210887908936

> <r_i_glide_erotb>
0.616734930948756

> <r_i_glide_esite>
0

> <r_i_glide_emodel>
-69.8856159545207

> <r_i_glide_energy>
-52.112021446228

> <r_i_glide_einternal>
5.89827251434326

> <i_i_glide_confnum>
90

> <i_i_glide_posenum>
59

> <r_i_glide_eff_state_penalty>
0

> <i_f3d_flags>
0

> <s_user_duplicate_titles>
436657

> <s_m_subgroup_title>
dock_pv

> <s_m_subgroupid>
dock_pv1

> <b_m_subgroup_collapsed>
0

$$$$
436659
                    3D
 Schrodinger Suite 2021-1.
 37 39  0  0  1  0            999 V2000
   11.5814   12.0720    2.7838 C   0  0  0  0  0  0
   10.2971   12.5944    2.8044 C   0  0  0  0  0  0
   10.0048   13.7084    3.5893 C   0  0  0  0  0  0
   11.0006   14.2768    4.4010 C   0  0  0  0  0  0
   12.2852   13.7508    4.3932 C   0  0  0  0  0  0
   12.5793   12.6640    3.5695 C   0  0  0  0  0  0
   13.9650   12.0423    3.5713 C   0  0  0  0  0  0
   14.8599   12.4608    2.0607 S   0  0  0  0  0  0
   16.3608   12.9203    2.8166 C   0  0  0  0  0  0
   17.4239   12.1612    2.8006 N   0  0  0  0  0  0
   18.5516   12.8322    3.2277 N   0  0  0  0  0  0
   18.3119   14.0602    3.6096 C   0  0  0  0  0  0
   16.6166   14.4820    3.5378 S   0  0  0  0  0  0
   19.3327   14.8722    4.0929 N   0  0  0  0  0  0
   19.3991   16.2046    4.0906 C   0  0  0  0  0  0
   18.5644   16.9552    3.5938 O   0  0  0  0  0  0
   20.6603   16.7845    4.7023 C   0  0  0  0  0  0
   21.4123   16.0682    5.6366 C   0  0  0  0  0  0
   22.5652   16.6252    6.1764 C   0  0  0  0  0  0
   22.9631   17.8987    5.7976 C   0  0  0  0  0  0
   22.2375   18.6243    4.8729 C   0  0  0  0  0  0
   21.0835   18.0617    4.3233 C   0  0  0  0  0  0
   24.0785   18.4326    6.3421 F   0  0  0  0  0  0
    8.6585   14.3067    3.5304 N   0  3  0  0  0  0
    8.1020   14.3223    2.4304 O   0  5  0  0  0  0
    8.1864   14.8327    4.5535 O   0  0  0  0  0  0
   11.7986   11.2077    2.1771 H   0  0  0  0  0  0
    9.5271   12.1431    2.1983 H   0  0  0  0  0  0
   10.7767   15.1215    5.0321 H   0  0  0  0  0  0
   13.0378   14.1748    5.0365 H   0  0  0  0  0  0
   13.8994   10.9579    3.6169 H   0  0  0  0  0  0
   14.5443   12.3782    4.4167 H   0  0  0  0  0  0
   20.2033   14.3952    4.2956 H   0  0  0  0  0  0
   21.1191   15.0800    5.9629 H   0  0  0  0  0  0
   23.1469   16.0585    6.8887 H   0  0  0  0  0  0
   22.5612   19.6121    4.5841 H   0  0  0  0  0  0
   20.5228   18.6366    3.6083 H   0  0  0  0  0  0
  1  6  1  0  0  0
  1  2  2  0  0  0
  1 27  1  0  0  0
  2  3  1  0  0  0
  2 28  1  0  0  0
  3  4  2  0  0  0
  3 24  1  0  0  0
  4  5  1  0  0  0
  4 29  1  0  0  0
  5  6  2  0  0  0
  5 30  1  0  0  0
  6  7  1  0  0  0
  7  8  1  0  0  0
  7 31  1  0  0  0
  7 32  1  0  0  0
  8  9  1  0  0  0
  9 13  1  0  0  0
  9 10  2  0  0  0
 10 11  1  0  0  0
 11 12  2  0  0  0
 12 13  1  0  0  0
 12 14  1  0  0  0
 14 15  1  0  0  0
 14 33  1  0  0  0
 15 16  2  0  0  0
 15 17  1  0  0  0
 17 22  1  0  0  0
 17 18  2  0  0  0
 18 19  1  0  0  0
 18 34  1  0  0  0
 19 20  2  0  0  0
 19 35  1  0  0  0
 20 21  1  0  0  0
 20 23  1  0  0  0
 21 22  2  0  0  0
 21 36  1  0  0  0
 22 37  1  0  0  0
 24 25  1  0  0  0
 24 26  2  0  0  0
M  CHG  2  24   1  25  -1
M  END
> <s_m_entry_id>
6599

> <s_m_entry_name>
ligand_docking-pose.110

> <s_m_Source_Path>
/home/csk/Desktop/cluster/DUD-E-result/abl1

> <s_m_Source_File>
ligand_docking-pose.sdf

> <i_m_Source_File_Index>
110

> <i_lp_mmshare_version>
53161

> <r_lp_tautomer_probability>
1

> <s_lp_Force_Field>
OPLS_2005

> <r_lp_Energy>
18.610193

> <b_lp_Chiralities_Consistent>
1

> <s_lp_Variant>
436659-1

> <s_i_glide_gridfile>
glide-grid_2hzi

> <i_i_glide_lignum>
87

> <i_i_glide_rotatable_bonds>
7

> <r_i_docking_score>
-7.60784826611653

> <r_i_glide_ligand_efficiency>
-0.29260954869679

> <r_i_glide_ligand_efficiency_sa>
-0.866854636651263

> <r_i_glide_ligand_efficiency_ln>
-1.7866782019112

> <r_i_glide_gscore>
-7.60784826611653

> <r_i_glide_lipo>
-4.12284184006357

> <r_i_glide_hbond>
0

> <r_i_glide_metal>
0

> <r_i_glide_rewards>
-1.7986059831805

> <r_i_glide_evdw>
-45.3254661560059

> <r_i_glide_ecoul>
-0.963730216026306

> <r_i_glide_erotb>
0.767766584161912

> <r_i_glide_esite>
-0.0433341868301387

> <r_i_glide_emodel>
-58.6185464745801

> <r_i_glide_energy>
-46.2891963720322

> <r_i_glide_einternal>
6.42998170852661

> <i_i_glide_confnum>
49

> <i_i_glide_posenum>
97

> <r_i_glide_eff_state_penalty>
0

> <i_f3d_flags>
0

> <s_user_duplicate_titles>
436659

> <s_m_subgroup_title>
dock_pv

> <s_m_subgroupid>
dock_pv1

> <b_m_subgroup_collapsed>
0

$$$$
489657
                    3D
 Schrodinger Suite 2021-1.
 32 34  0  0  1  0            999 V2000
   22.0561   18.1480    4.0622 C   0  0  0  0  0  0
   20.7861   17.5678    3.9869 C   0  0  0  0  0  0
   20.5610   16.6012    4.9766 C   0  0  0  0  0  0
   21.9585   16.4328    6.0032 S   0  0  0  0  0  0
   22.8109   17.6464    5.1104 C   0  0  0  0  0  0
   19.3479   15.8732    5.2673 C   0  0  0  0  0  0
   19.1259   15.3803    6.3772 O   0  0  0  0  0  0
   18.5347   15.7510    4.2004 N   0  0  0  0  0  0
   17.2532   15.2332    4.2141 C   0  0  0  0  0  0
   16.7844   14.5672    3.2029 N   0  0  0  0  0  0
   15.4955   14.3397    3.3228 C   0  0  0  0  0  0
   14.8442   14.7978    4.4768 C   0  0  0  0  0  0
   16.0611   15.6333    5.4164 S   0  0  0  0  0  0
   13.4024   14.7322    4.9642 C   0  0  0  0  0  0
   12.3856   13.8764    4.2077 C   0  0  0  0  0  0
   12.7529   12.7532    3.4575 C   0  0  0  0  0  0
   11.7945   12.0517    2.7312 C   0  0  0  0  0  0
   10.4559   12.4334    2.8030 C   0  0  0  0  0  0
   10.0693   13.5040    3.6047 C   0  0  0  0  0  0
   11.0325   14.2241    4.3050 C   0  0  0  0  0  0
    9.2767   11.6270    1.8408 Cl  0  0  0  0  0  0
   22.4052   18.9151    3.3861 H   0  0  0  0  0  0
   20.0545   17.8576    3.2468 H   0  0  0  0  0  0
   23.8138   17.9246    5.3996 H   0  0  0  0  0  0
   18.9426   15.9135    3.2928 H   0  0  0  0  0  0
   15.0214   13.8234    2.5037 H   0  0  0  0  0  0
   13.3661   14.4195    6.0060 H   0  0  0  0  0  0
   13.0176   15.7515    4.9771 H   0  0  0  0  0  0
   13.7702   12.3988    3.4285 H   0  0  0  0  0  0
   12.0936   11.2211    2.1113 H   0  0  0  0  0  0
    9.0292   13.7908    3.6644 H   0  0  0  0  0  0
   10.7254   15.0693    4.9040 H   0  0  0  0  0  0
  1  5  2  0  0  0
  1  2  1  0  0  0
  1 22  1  0  0  0
  2  3  2  0  0  0
  2 23  1  0  0  0
  3  4  1  0  0  0
  3  6  1  0  0  0
  4  5  1  0  0  0
  5 24  1  0  0  0
  6  7  2  0  0  0
  6  8  1  0  0  0
  8  9  1  0  0  0
  8 25  1  0  0  0
  9 13  1  0  0  0
  9 10  2  0  0  0
 10 11  1  0  0  0
 11 12  2  0  0  0
 11 26  1  0  0  0
 12 13  1  0  0  0
 12 14  1  0  0  0
 14 15  1  0  0  0
 14 27  1  0  0  0
 14 28  1  0  0  0
 15 20  1  0  0  0
 15 16  2  0  0  0
 16 17  1  0  0  0
 16 29  1  0  0  0
 17 18  2  0  0  0
 17 30  1  0  0  0
 18 19  1  0  0  0
 18 21  1  0  0  0
 19 20  2  0  0  0
 19 31  1  0  0  0
 20 32  1  0  0  0
M  END
> <s_m_entry_id>
6600

> <s_m_entry_name>
ligand_docking-pose.111

> <s_m_Source_Path>
/home/csk/Desktop/cluster/DUD-E-result/abl1

> <s_m_Source_File>
ligand_docking-pose.sdf

> <i_m_Source_File_Index>
111

> <i_lp_mmshare_version>
53161

> <r_lp_tautomer_probability>
0.999000488399163

> <s_lp_Force_Field>
OPLS_2005

> <r_lp_Energy>
10.341427

> <b_lp_Chiralities_Consistent>
1

> <s_lp_Variant>
489657-1

> <s_i_glide_gridfile>
glide-grid_2hzi

> <i_i_glide_lignum>
126

> <i_i_glide_rotatable_bonds>
5

> <r_i_docking_score>
-7.5689481909371

> <r_i_glide_ligand_efficiency>
-0.360426104330338

> <r_i_glide_ligand_efficiency_sa>
-0.994388292026688

> <r_i_glide_ligand_efficiency_ln>
-1.87140714570927

> <r_i_glide_gscore>
-7.5689481909371

> <r_i_glide_lipo>
-4.08508860160604

> <r_i_glide_hbond>
0

> <r_i_glide_metal>
0

> <r_i_glide_rewards>
-1.9181922896191

> <r_i_glide_evdw>
-44.033390045166

> <r_i_glide_ecoul>
-1.3687310218811

> <r_i_glide_erotb>
0.841311855828505

> <r_i_glide_esite>
0

> <r_i_glide_emodel>
-63.479891291762

> <r_i_glide_energy>
-45.4021210670471

> <r_i_glide_einternal>
6.33299112319946

> <i_i_glide_confnum>
20

> <i_i_glide_posenum>
161

> <r_i_glide_eff_state_penalty>
0

> <i_f3d_flags>
0

> <s_user_duplicate_titles>
489657

> <s_m_subgroup_title>
dock_pv

> <s_m_subgroupid>
dock_pv1

> <b_m_subgroup_collapsed>
0

$$$$
436660
                    3D
 Schrodinger Suite 2021-1.
 35 37  0  0  1  0            999 V2000
   22.9637   17.3254    6.3560 C   0  0  0  0  0  0
   21.9060   16.4488    6.1156 C   0  0  0  0  0  0
   21.0466   16.6710    5.0359 C   0  0  0  0  0  0
   21.2689   17.7609    4.1896 C   0  0  0  0  0  0
   22.3327   18.6267    4.4331 C   0  0  0  0  0  0
   23.1735   18.4196    5.5218 C   0  0  0  0  0  0
   22.5631   19.6613    3.6034 F   0  0  0  0  0  0
   19.8880   15.7311    4.7746 C   0  0  0  0  0  0
   18.3690   16.3209    5.5937 S   0  0  0  0  0  0
   17.1790   15.3277    4.7575 C   0  0  0  0  0  0
   17.4429   14.4663    3.8015 N   0  0  0  0  0  0
   16.3221   13.8072    3.3277 N   0  0  0  0  0  0
   15.2299   14.1805    3.9402 C   0  0  0  0  0  0
   15.4851   15.4080    5.1636 S   0  0  0  0  0  0
   14.0280   13.5941    3.6005 N   0  0  0  0  0  0
   12.7791   13.9055    4.0007 C   0  0  0  0  0  0
   12.5017   14.8022    4.7974 O   0  0  0  0  0  0
   11.6813   13.0903    3.3490 C   0  0  0  0  0  0
   10.3373   13.4049    3.6033 C   0  0  0  0  0  0
    9.3150   12.7043    2.9678 C   0  0  0  0  0  0
    9.6230   11.6758    2.0809 C   0  0  0  0  0  0
   10.9462   11.3261    1.8423 C   0  0  0  0  0  0
   11.9689   12.0328    2.4646 C   0  0  0  0  0  0
    8.3613   10.8275    1.2680 Cl  0  0  0  0  0  0
   23.6344   17.1566    7.1853 H   0  0  0  0  0  0
   21.7577   15.6034    6.7716 H   0  0  0  0  0  0
   20.6241   17.9379    3.3410 H   0  0  0  0  0  0
   23.9915   19.0994    5.7088 H   0  0  0  0  0  0
   20.1238   14.7325    5.1432 H   0  0  0  0  0  0
   19.7433   15.6434    3.6963 H   0  0  0  0  0  0
   14.1021   12.8568    2.9190 H   0  0  0  0  0  0
   10.0736   14.2040    4.2820 H   0  0  0  0  0  0
    8.2858   12.9617    3.1612 H   0  0  0  0  0  0
   11.1822   10.5098    1.1742 H   0  0  0  0  0  0
   12.9775   11.7198    2.2378 H   0  0  0  0  0  0
  1  6  1  0  0  0
  1  2  2  0  0  0
  1 25  1  0  0  0
  2  3  1  0  0  0
  2 26  1  0  0  0
  3  4  2  0  0  0
  3  8  1  0  0  0
  4  5  1  0  0  0
  4 27  1  0  0  0
  5  6  2  0  0  0
  5  7  1  0  0  0
  6 28  1  0  0  0
  8  9  1  0  0  0
  8 29  1  0  0  0
  8 30  1  0  0  0
  9 10  1  0  0  0
 10 14  1  0  0  0
 10 11  2  0  0  0
 11 12  1  0  0  0
 12 13  2  0  0  0
 13 14  1  0  0  0
 13 15  1  0  0  0
 15 16  1  0  0  0
 15 31  1  0  0  0
 16 17  2  0  0  0
 16 18  1  0  0  0
 18 23  1  0  0  0
 18 19  2  0  0  0
 19 20  1  0  0  0
 19 32  1  0  0  0
 20 21  2  0  0  0
 20 33  1  0  0  0
 21 22  1  0  0  0
 21 24  1  0  0  0
 22 23  2  0  0  0
 22 34  1  0  0  0
 23 35  1  0  0  0
M  END
> <s_m_entry_id>
6601

> <s_m_entry_name>
ligand_docking-pose.112

> <s_m_Source_Path>
/home/csk/Desktop/cluster/DUD-E-result/abl1

> <s_m_Source_File>
ligand_docking-pose.sdf

> <i_m_Source_File_Index>
112

> <i_lp_mmshare_version>
53161

> <r_lp_tautomer_probability>
1

> <s_lp_Force_Field>
OPLS_2005

> <r_lp_Energy>
15.559353

> <b_lp_Chiralities_Consistent>
1

> <s_lp_Variant>
436660-1

> <s_i_glide_gridfile>
glide-grid_2hzi

> <i_i_glide_lignum>
92

> <i_i_glide_rotatable_bonds>
6

> <r_i_docking_score>
-7.55002163429026

> <r_i_glide_ligand_efficiency>
-0.314584234762094

> <r_i_glide_ligand_efficiency_sa>
-0.907417953860956

> <r_i_glide_ligand_efficiency_ln>
-1.80706662500361

> <r_i_glide_gscore>
-7.55002163429026

> <r_i_glide_lipo>
-3.79287151336843

> <r_i_glide_hbond>
0

> <r_i_glide_metal>
0

> <r_i_glide_rewards>
-1.8974834872924

> <r_i_glide_evdw>
-43.1774711608887

> <r_i_glide_ecoul>
-3.3816134929657

> <r_i_glide_erotb>
0.806448948359858

> <r_i_glide_esite>
0

> <r_i_glide_emodel>
-64.438635363707

> <r_i_glide_energy>
-46.5590846538544

> <r_i_glide_einternal>
1.42700111865997

> <i_i_glide_confnum>
37

> <i_i_glide_posenum>
289

> <r_i_glide_eff_state_penalty>
0

> <i_f3d_flags>
0

> <s_user_duplicate_titles>
436660

> <s_m_subgroup_title>
dock_pv

> <s_m_subgroupid>
dock_pv1

> <b_m_subgroup_collapsed>
0

$$$$
402582
                    3D
 Schrodinger Suite 2021-1.
 51 54  0  0  1  0            999 V2000
   15.0292   11.9608    1.9923 C   0  0  0  0  0  0
   16.7436   12.3434    2.4097 S   0  0  0  0  0  0
   16.6096   13.6375    3.5359 C   0  0  0  0  0  0
   15.3489   14.0540    3.7721 N   0  0  0  0  0  0
   15.1598   14.9949    4.7122 C   0  0  0  0  0  0
   16.2668   15.5855    5.3188 C   0  0  0  0  0  0
   16.5545   16.6096    6.2481 C   0  0  0  0  0  0
   17.8343   16.7454    6.3951 N   0  0  0  0  0  0
   18.4131   15.6829    5.8397 N   0  0  0  0  0  0
   17.5194   15.0132    5.0276 C   0  0  0  0  0  0
   17.7518   14.0340    4.1457 N   0  0  0  0  0  0
   19.8402   15.4315    6.0359 C   0  0  0  0  0  0
   20.7514   16.6292    5.6590 C   0  0  2  0  0  0
   20.6850   17.1602    4.2307 C   0  0  0  0  0  0
   21.7247   17.9700    3.7651 C   0  0  0  0  0  0
   21.7629   18.3181    2.4223 C   0  0  0  0  0  0
   20.7691   17.8904    1.5747 C   0  0  0  0  0  0
   19.6748   17.2196    2.0290 C   0  0  0  0  0  0
   19.6556   16.8374    3.3441 C   0  0  0  0  0  0
   22.4132   16.0985    6.0322 Cl  0  0  0  0  0  0
   13.8617   15.3455    5.0530 N   0  0  0  0  0  0
   12.7143   14.9172    4.2742 C   0  0  0  0  0  0
   12.1259   13.5843    4.6656 C   0  0  0  0  0  0
   11.1294   13.1280    3.6092 C   0  0  0  0  0  0
   11.4382   12.0342    2.8020 C   0  0  0  0  0  0
   10.4896   11.5359    1.9120 C   0  0  0  0  0  0
    9.2393   12.1534    1.8132 C   0  0  0  0  0  0
    8.9471   13.2596    2.6142 C   0  0  0  0  0  0
    9.8820   13.7430    3.5179 C   0  0  0  0  0  0
    7.4165   14.0373    2.4917 Cl  0  0  0  0  0  0
   14.9733   11.2328    1.1948 H   0  0  0  0  0  0
   14.5278   11.5525    2.8617 H   0  0  0  0  0  0
   14.4890   12.8314    1.6433 H   0  0  0  0  0  0
   15.8428   17.2257    6.7508 H   0  0  0  0  0  0
   20.1026   14.5241    5.4798 H   0  0  0  0  0  0
   19.9708   15.1816    7.0919 H   0  0  0  0  0  0
   20.5533   17.4768    6.3270 H   0  0  0  0  0  0
   22.5389   18.2722    4.4087 H   0  0  0  0  0  0
   22.5624   18.8636    2.0049 H   0  0  0  0  0  0
   20.8216   18.0353    0.5070 H   0  0  0  0  0  0
   18.9051   16.9039    1.3519 H   0  0  0  0  0  0
   18.7944   16.2708    3.5729 H   0  0  0  0  0  0
   13.7094   15.8272    5.9291 H   0  0  0  0  0  0
   11.9706   15.7009    4.4052 H   0  0  0  0  0  0
   12.9911   14.8344    3.2144 H   0  0  0  0  0  0
   12.9264   12.8461    4.7415 H   0  0  0  0  0  0
   11.6488   13.6324    5.6402 H   0  0  0  0  0  0
   12.3796   11.5277    2.8827 H   0  0  0  0  0  0
   10.7167   10.6661    1.3123 H   0  0  0  0  0  0
    8.5067   11.7659    1.1302 H   0  0  0  0  0  0
    9.6501   14.5806    4.1520 H   0  0  0  0  0  0
  1  2  1  0  0  0
  1 31  1  0  0  0
  1 32  1  0  0  0
  1 33  1  0  0  0
  2  3  1  0  0  0
  3 11  1  0  0  0
  3  4  2  0  0  0
  4  5  1  0  0  0
  5  6  2  0  0  0
  5 21  1  0  0  0
  6 10  1  0  0  0
  6  7  1  0  0  0
  7  8  2  0  0  0
  7 34  1  0  0  0
  8  9  1  0  0  0
  9 10  1  0  0  0
  9 12  1  0  0  0
 10 11  2  0  0  0
 12 13  1  0  0  0
 12 35  1  0  0  0
 12 36  1  0  0  0
 13 14  1  0  0  0
 13 20  1  0  0  0
 13 37  1  0  0  0
 14 19  1  0  0  0
 14 15  2  0  0  0
 15 16  1  0  0  0
 15 38  1  0  0  0
 16 17  2  0  0  0
 16 39  1  0  0  0
 17 18  1  0  0  0
 17 40  1  0  0  0
 18 19  2  0  0  0
 18 41  1  0  0  0
 19 42  1  0  0  0
 21 22  1  0  0  0
 21 43  1  0  0  0
 22 23  1  0  0  0
 22 44  1  0  0  0
 22 45  1  0  0  0
 23 24  1  0  0  0
 23 46  1  0  0  0
 23 47  1  0  0  0
 24 29  1  0  0  0
 24 25  2  0  0  0
 25 26  1  0  0  0
 25 48  1  0  0  0
 26 27  2  0  0  0
 26 49  1  0  0  0
 27 28  1  0  0  0
 27 50  1  0  0  0
 28 29  2  0  0  0
 28 30  1  0  0  0
 29 51  1  0  0  0
M  END
> <s_m_entry_id>
6602

> <s_m_entry_name>
ligand_docking-pose.113

> <s_m_Source_Path>
/home/csk/Desktop/cluster/DUD-E-result/abl1

> <s_m_Source_File>
ligand_docking-pose.sdf

> <i_m_Source_File_Index>
113

> <i_lp_mmshare_version>
53161

> <r_lp_tautomer_probability>
1

> <s_lp_Force_Field>
OPLS_2005

> <r_lp_Energy>
8.544639

> <b_lp_Chiralities_Consistent>
1

> <s_lp_Variant>
402582-2

> <s_i_glide_gridfile>
glide-grid_2hzi

> <i_i_glide_lignum>
537

> <i_i_glide_rotatable_bonds>
8

> <r_i_docking_score>
-7.54932373049745

> <r_i_glide_ligand_efficiency>
-0.251644124349915

> <r_i_glide_ligand_efficiency_sa>
-0.781916802225866

> <r_i_glide_ligand_efficiency_ln>
-1.71528860803929

> <r_i_glide_gscore>
-7.54932373049745

> <r_i_glide_lipo>
-4.8252696892557

> <r_i_glide_hbond>
0

> <r_i_glide_metal>
0

> <r_i_glide_rewards>
-1.75872316197732

> <r_i_glide_evdw>
-29.7264022827148

> <r_i_glide_ecoul>
-0.3551966547966

> <r_i_glide_erotb>
0.574268733090812

> <r_i_glide_esite>
0

> <r_i_glide_emodel>
-27.4947414706381

> <r_i_glide_energy>
-30.0815989375114

> <r_i_glide_einternal>
12.2622394561768

> <i_i_glide_confnum>
37

> <i_i_glide_posenum>
184

> <r_i_glide_eff_state_penalty>
0

> <i_f3d_flags>
0

> <s_user_duplicate_titles>
402582

> <s_m_subgroup_title>
dock_pv

> <s_m_subgroupid>
dock_pv1

> <b_m_subgroup_collapsed>
0

$$$$
425386
                    3D
 Schrodinger Suite 2021-1.
 39 41  0  0  1  0            999 V2000
   18.2903   16.9333    4.5879 C   0  0  0  0  0  0
   17.4169   15.9813    5.4590 C   0  0  0  0  0  0
   18.4101   15.2382    6.4030 C   0  0  0  0  0  0
   16.5640   16.8330    6.4012 C   0  0  0  0  0  0
   16.5684   15.0451    4.6513 N   0  0  0  0  0  0
   15.0875   15.2728    4.4709 C   0  0  0  0  0  0
   14.3743   14.0305    4.0390 N   0  0  0  0  0  0
   15.0995   13.0807    3.3124 C   0  0  0  0  0  0
   16.4251   13.1601    3.1905 C   0  0  0  0  0  0
   17.2097   14.1420    3.7968 C   0  0  0  0  0  0
   18.4290   14.0041    3.5155 N   0  0  0  0  0  0
   18.5640   12.9787    2.8030 N   0  0  0  0  0  0
   17.4509   12.4330    2.5884 C   0  0  0  0  0  0
   14.4131   12.0330    2.7671 N   0  0  0  0  0  0
   12.9845   13.8741    4.3170 C   0  0  0  0  0  0
   12.4902   14.0330    5.6042 C   0  0  0  0  0  0
   11.1513   13.7734    5.9127 C   0  0  0  0  0  0
   10.2533   13.4702    4.9010 C   0  0  0  0  0  0
   10.7137   13.3247    3.6012 C   0  0  0  0  0  0
   12.0683   13.5095    3.3259 C   0  0  0  0  0  0
    8.5849   13.2332    5.2662 Cl  0  0  0  0  0  0
   17.7640   17.3751    3.7511 H   0  0  0  0  0  0
   18.6994   17.7566    5.1748 H   0  0  0  0  0  0
   19.1508   16.4202    4.1586 H   0  0  0  0  0  0
   17.8873   14.8330    7.2635 H   0  0  0  0  0  0
   18.9604   14.4210    5.9427 H   0  0  0  0  0  0
   19.1620   15.9149    6.8030 H   0  0  0  0  0  0
   15.9782   16.2218    7.0896 H   0  0  0  0  0  0
   17.1747   17.5047    7.0057 H   0  0  0  0  0  0
   15.8741   17.4596    5.8373 H   0  0  0  0  0  0
   14.6253   15.6475    5.3817 H   0  0  0  0  0  0
   14.9270   16.0311    3.7061 H   0  0  0  0  0  0
   17.3468   11.5306    2.0030 H   0  0  0  0  0  0
   14.8732   11.3055    2.2452 H   0  0  0  0  0  0
   13.4405   11.8808    2.9881 H   0  0  0  0  0  0
   13.1483   14.3411    6.4011 H   0  0  0  0  0  0
   10.8054   13.8748    6.9319 H   0  0  0  0  0  0
   10.0307   13.0517    2.8096 H   0  0  0  0  0  0
   12.4272   13.3621    2.3264 H   0  0  0  0  0  0
  1  2  1  0  0  0
  1 22  1  0  0  0
  1 23  1  0  0  0
  1 24  1  0  0  0
  2  3  1  0  0  0
  2  4  1  0  0  0
  2  5  1  0  0  0
  3 25  1  0  0  0
  3 26  1  0  0  0
  3 27  1  0  0  0
  4 28  1  0  0  0
  4 29  1  0  0  0
  4 30  1  0  0  0
  5 10  1  0  0  0
  5  6  1  0  0  0
  6  7  1  0  0  0
  6 31  1  0  0  0
  6 32  1  0  0  0
  7  8  1  0  0  0
  7 15  1  0  0  0
  8  9  2  0  0  0
  8 14  1  0  0  0
  9 13  1  0  0  0
  9 10  1  0  0  0
 10 11  2  0  0  0
 11 12  1  0  0  0
 12 13  2  0  0  0
 13 33  1  0  0  0
 14 34  1  0  0  0
 14 35  1  0  0  0
 15 20  1  0  0  0
 15 16  2  0  0  0
 16 17  1  0  0  0
 16 36  1  0  0  0
 17 18  2  0  0  0
 17 37  1  0  0  0
 18 19  1  0  0  0
 18 21  1  0  0  0
 19 20  2  0  0  0
 19 38  1  0  0  0
 20 39  1  0  0  0
M  END
> <s_m_entry_id>
6603

> <s_m_entry_name>
ligand_docking-pose.114

> <s_m_Source_Path>
/home/csk/Desktop/cluster/DUD-E-result/abl1

> <s_m_Source_File>
ligand_docking-pose.sdf

> <i_m_Source_File_Index>
114

> <i_lp_mmshare_version>
53161

> <r_lp_tautomer_probability>
1

> <s_lp_Force_Field>
OPLS_2005

> <r_lp_Energy>
67.811423

> <b_lp_Chiralities_Consistent>
1

> <s_lp_Variant>
425386-1

> <s_i_glide_gridfile>
glide-grid_2hzi

> <i_i_glide_lignum>
285

> <i_i_glide_rotatable_bonds>
2

> <r_i_docking_score>
-7.54442547081959

> <r_i_glide_ligand_efficiency>
-0.359258355753314

> <r_i_glide_ligand_efficiency_sa>
-0.991166562248871

> <r_i_glide_ligand_efficiency_ln>
-1.86534395271304

> <r_i_glide_gscore>
-7.54442547081959

> <r_i_glide_lipo>
-3.23259509282419

> <r_i_glide_hbond>
-0.0523590463006755

> <r_i_glide_metal>
0

> <r_i_glide_rewards>
-3.44280351667545

> <r_i_glide_evdw>
-23.1941032409668

> <r_i_glide_ecoul>
0.955398559570312

> <r_i_glide_erotb>
0.199727563093517

> <r_i_glide_esite>
0

> <r_i_glide_emodel>
-20.9443203831067

> <r_i_glide_energy>
-22.2387046813965

> <r_i_glide_einternal>
7.01357698440552

> <i_i_glide_confnum>
3

> <i_i_glide_posenum>
310

> <r_i_glide_eff_state_penalty>
0

> <i_f3d_flags>
0

> <s_user_duplicate_titles>
425386

> <s_m_subgroup_title>
dock_pv

> <s_m_subgroupid>
dock_pv1

> <b_m_subgroup_collapsed>
0

$$$$
290729
                    3D
 Schrodinger Suite 2021-1.
 40 43  0  0  1  0            999 V2000
   20.9640   17.8101    2.8477 C   0  0  0  0  0  0
   20.7193   18.4330    4.1064 O   0  0  0  0  0  0
   19.5478   18.1644    4.7869 C   0  0  0  0  0  0
   19.3306   18.8330    5.9913 C   0  0  0  0  0  0
   18.1640   18.6227    6.6994 C   0  0  0  0  0  0
   17.3640   17.5143    6.3925 C   0  0  0  0  0  0
   17.5340   16.8330    5.1902 C   0  0  0  0  0  0
   18.5640   17.2720    4.3445 C   0  0  0  0  0  0
   16.6861   15.6646    4.7552 C   0  0  0  0  0  0
   15.3085   15.4755    4.8032 C   0  0  0  0  0  0
   14.8926   14.3143    4.1486 N   0  0  0  0  0  0
   16.0535   13.7134    3.6613 C   0  0  0  0  0  0
   17.1678   14.5203    4.0506 C   0  0  0  0  0  0
   18.4281   14.0321    3.6820 C   0  0  0  0  0  0
   18.5640   12.8555    3.0479 N   0  0  0  0  0  0
   17.4414   12.1736    2.7628 C   0  0  0  0  0  0
   16.1652   12.5444    3.0065 N   0  0  0  0  0  0
   19.5992   14.7148    3.9775 N   0  0  0  0  0  0
   13.5361   13.8826    3.9703 C   0  0  0  0  0  0
   12.5273   14.3960    4.7961 C   0  0  0  0  0  0
   11.1960   14.0334    4.6048 C   0  0  0  0  0  0
   10.8628   13.1269    3.6030 C   0  0  0  0  0  0
   11.8562   12.5342    2.8264 C   0  0  0  0  0  0
   13.1806   12.9205    3.0028 C   0  0  0  0  0  0
   21.9043   18.1820    2.4406 H   0  0  0  0  0  0
   21.0529   16.7299    2.9463 H   0  0  0  0  0  0
   20.1832   18.0330    2.1191 H   0  0  0  0  0  0
   20.0496   19.5281    6.4030 H   0  0  0  0  0  0
   17.9802   19.1854    7.6030 H   0  0  0  0  0  0
   16.5598   17.2330    7.0550 H   0  0  0  0  0  0
   18.6329   16.8535    3.3528 H   0  0  0  0  0  0
   14.5725   16.1430    5.2234 H   0  0  0  0  0  0
   17.6065   11.2330    2.2647 H   0  0  0  0  0  0
   19.5563   15.5893    4.4803 H   0  0  0  0  0  0
   20.4596   14.3681    3.5721 H   0  0  0  0  0  0
   12.7624   15.0814    5.5920 H   0  0  0  0  0  0
   10.4243   14.4502    5.2353 H   0  0  0  0  0  0
    9.8308   12.8418    3.4570 H   0  0  0  0  0  0
   11.5993   11.8035    2.0722 H   0  0  0  0  0  0
   13.8913   12.4722    2.3301 H   0  0  0  0  0  0
  1  2  1  0  0  0
  1 25  1  0  0  0
  1 26  1  0  0  0
  1 27  1  0  0  0
  2  3  1  0  0  0
  3  8  1  0  0  0
  3  4  2  0  0  0
  4  5  1  0  0  0
  4 28  1  0  0  0
  5  6  2  0  0  0
  5 29  1  0  0  0
  6  7  1  0  0  0
  6 30  1  0  0  0
  7  8  2  0  0  0
  7  9  1  0  0  0
  8 31  1  0  0  0
  9 13  1  0  0  0
  9 10  2  0  0  0
 10 11  1  0  0  0
 10 32  1  0  0  0
 11 12  1  0  0  0
 11 19  1  0  0  0
 12 17  1  0  0  0
 12 13  2  0  0  0
 13 14  1  0  0  0
 14 15  2  0  0  0
 14 18  1  0  0  0
 15 16  1  0  0  0
 16 17  2  0  0  0
 16 33  1  0  0  0
 18 34  1  0  0  0
 18 35  1  0  0  0
 19 24  1  0  0  0
 19 20  2  0  0  0
 20 21  1  0  0  0
 20 36  1  0  0  0
 21 22  2  0  0  0
 21 37  1  0  0  0
 22 23  1  0  0  0
 22 38  1  0  0  0
 23 24  2  0  0  0
 23 39  1  0  0  0
 24 40  1  0  0  0
M  END
> <s_m_entry_id>
6604

> <s_m_entry_name>
ligand_docking-pose.115

> <s_m_Source_Path>
/home/csk/Desktop/cluster/DUD-E-result/abl1

> <s_m_Source_File>
ligand_docking-pose.sdf

> <i_m_Source_File_Index>
115

> <i_lp_mmshare_version>
53161

> <r_lp_tautomer_probability>
1

> <s_lp_Force_Field>
OPLS_2005

> <r_lp_Energy>
20.471227

> <b_lp_Chiralities_Consistent>
1

> <s_lp_Variant>
290729-1

> <s_i_glide_gridfile>
glide-grid_2hzi

> <i_i_glide_lignum>
466

> <i_i_glide_rotatable_bonds>
3

> <r_i_docking_score>
-7.52473828595293

> <r_i_glide_ligand_efficiency>
-0.313530761914705

> <r_i_glide_ligand_efficiency_sa>
-0.904379212341221

> <r_i_glide_ligand_efficiency_ln>
-1.80101515956923

> <r_i_glide_gscore>
-7.52473828595293

> <r_i_glide_lipo>
-3.82294522265855

> <r_i_glide_hbond>
-0.141573396734274

> <r_i_glide_metal>
0

> <r_i_glide_rewards>
-3.01233799290303

> <r_i_glide_evdw>
-13.0028514862061

> <r_i_glide_ecoul>
-1.69061386585236

> <r_i_glide_erotb>
0.372009364332938

> <r_i_glide_esite>
-0.0161563838018482

> <r_i_glide_emodel>
-13.3687937294127

> <r_i_glide_energy>
-14.6934653520584

> <r_i_glide_einternal>
2.70842289924622

> <i_i_glide_confnum>
11

> <i_i_glide_posenum>
76

> <r_i_glide_eff_state_penalty>
0

> <i_f3d_flags>
0

> <s_user_duplicate_titles>
290729

> <s_m_subgroup_title>
dock_pv

> <s_m_subgroupid>
dock_pv1

> <b_m_subgroup_collapsed>
0

$$$$
454705
                    3D
 Schrodinger Suite 2021-1.
 51 54  0  0  1  0            999 V2000
   17.7798   17.7107    6.0337 C   0  0  0  0  0  0
   16.1779   16.8334    6.0029 S   0  0  0  0  0  0
   16.2390   15.6328    4.8160 C   0  0  0  0  0  0
   17.4748   15.3502    4.4253 N   0  0  0  0  0  0
   17.6541   14.2704    3.6631 C   0  0  0  0  0  0
   16.5490   13.5423    3.2030 C   0  0  0  0  0  0
   16.2307   12.4081    2.4146 C   0  0  0  0  0  0
   14.9293   12.2751    2.2729 N   0  0  0  0  0  0
   14.3595   13.2541    3.0132 N   0  0  0  0  0  0
   15.3016   14.0156    3.6396 C   0  0  0  0  0  0
   15.0871   15.0400    4.4641 N   0  0  0  0  0  0
   12.9393   13.5987    2.9900 C   0  0  0  0  0  0
   12.0623   12.5995    3.6474 C   0  0  1  0  0  0
   11.0017   13.2346    4.5529 C   0  0  0  0  0  0
    9.7795   13.6731    4.0388 C   0  0  0  0  0  0
    8.7764   14.0784    4.9101 C   0  0  0  0  0  0
    8.9914   14.0511    6.2864 C   0  0  0  0  0  0
   10.2061   13.6335    6.8024 C   0  0  0  0  0  0
   11.2176   13.2403    5.9378 C   0  0  0  0  0  0
    8.0302   14.4747    7.1312 F   0  0  0  0  0  0
   11.3514   11.5214    2.4009 Cl  0  0  0  0  0  0
   18.9639   13.9021    3.4341 N   0  0  0  0  0  0
   20.0808   14.8306    3.7435 C   0  0  0  0  0  0
   20.3492   15.2596    5.2061 C   0  0  0  0  0  0
   21.2246   16.5131    5.2576 C   0  0  0  0  0  0
   22.3197   16.5425    6.1213 C   0  0  0  0  0  0
   23.1829   17.6331    6.1140 C   0  0  0  0  0  0
   22.9788   18.6802    5.2192 C   0  0  0  0  0  0
   21.8874   18.6684    4.3634 C   0  0  0  0  0  0
   20.9941   17.6017    4.4003 C   0  0  0  0  0  0
   17.7647   18.5849    6.6805 H   0  0  0  0  0  0
   18.5465   17.0581    6.4035 H   0  0  0  0  0  0
   18.0858   18.0172    5.0370 H   0  0  0  0  0  0
   16.9399   11.7447    1.9532 H   0  0  0  0  0  0
   12.5811   13.6329    1.9983 H   0  0  0  0  0  0
   12.8047   14.5884    3.4221 H   0  0  0  0  0  0
   12.7432   12.0298    4.2685 H   0  0  0  0  0  0
    9.5887   13.6576    2.9766 H   0  0  0  0  0  0
    7.8390   14.4255    4.5206 H   0  0  0  0  0  0
   10.3751   13.6288    7.8685 H   0  0  0  0  0  0
   12.1552   12.8996    6.3538 H   0  0  0  0  0  0
   19.0668   13.4054    2.5624 H   0  0  0  0  0  0
   21.0247   14.3199    3.6025 H   0  0  0  0  0  0
   20.0252   15.6705    3.0497 H   0  0  0  0  0  0
   19.4639   15.3599    5.8133 H   0  0  0  0  0  0
   20.8704   14.4402    5.6990 H   0  0  0  0  0  0
   22.5226   15.7160    6.7895 H   0  0  0  0  0  0
   24.0261   17.6529    6.7898 H   0  0  0  0  0  0
   23.6602   19.5195    5.1958 H   0  0  0  0  0  0
   21.7438   19.4838    3.6707 H   0  0  0  0  0  0
   20.1523   17.6180    3.7256 H   0  0  0  0  0  0
  1  2  1  0  0  0
  1 31  1  0  0  0
  1 32  1  0  0  0
  1 33  1  0  0  0
  2  3  1  0  0  0
  3 11  1  0  0  0
  3  4  2  0  0  0
  4  5  1  0  0  0
  5  6  2  0  0  0
  5 22  1  0  0  0
  6 10  1  0  0  0
  6  7  1  0  0  0
  7  8  2  0  0  0
  7 34  1  0  0  0
  8  9  1  0  0  0
  9 10  1  0  0  0
  9 12  1  0  0  0
 10 11  2  0  0  0
 12 13  1  0  0  0
 12 35  1  0  0  0
 12 36  1  0  0  0
 13 14  1  0  0  0
 13 21  1  0  0  0
 13 37  1  0  0  0
 14 19  1  0  0  0
 14 15  2  0  0  0
 15 16  1  0  0  0
 15 38  1  0  0  0
 16 17  2  0  0  0
 16 39  1  0  0  0
 17 18  1  0  0  0
 17 20  1  0  0  0
 18 19  2  0  0  0
 18 40  1  0  0  0
 19 41  1  0  0  0
 22 23  1  0  0  0
 22 42  1  0  0  0
 23 24  1  0  0  0
 23 43  1  0  0  0
 23 44  1  0  0  0
 24 25  1  0  0  0
 24 45  1  0  0  0
 24 46  1  0  0  0
 25 30  1  0  0  0
 25 26  2  0  0  0
 26 27  1  0  0  0
 26 47  1  0  0  0
 27 28  2  0  0  0
 27 48  1  0  0  0
 28 29  1  0  0  0
 28 49  1  0  0  0
 29 30  2  0  0  0
 29 50  1  0  0  0
 30 51  1  0  0  0
M  END
> <s_m_entry_id>
6605

> <s_m_entry_name>
ligand_docking-pose.116

> <s_m_Source_Path>
/home/csk/Desktop/cluster/DUD-E-result/abl1

> <s_m_Source_File>
ligand_docking-pose.sdf

> <i_m_Source_File_Index>
116

> <i_lp_mmshare_version>
53161

> <r_lp_tautomer_probability>
1

> <s_lp_Force_Field>
OPLS_2005

> <r_lp_Energy>
7.673479

> <b_lp_Chiralities_Consistent>
1

> <s_lp_Variant>
454705-1

> <s_i_glide_gridfile>
glide-grid_2hzi

> <i_i_glide_lignum>
552

> <i_i_glide_rotatable_bonds>
8

> <r_i_docking_score>
-7.48926575141966

> <r_i_glide_ligand_efficiency>
-0.249642191713989

> <r_i_glide_ligand_efficiency_sa>
-0.775696332071838

> <r_i_glide_ligand_efficiency_ln>
-1.70164278080872

> <r_i_glide_gscore>
-7.48926575141966

> <r_i_glide_lipo>
-4.88040284719159

> <r_i_glide_hbond>
-0.00873191561180573

> <r_i_glide_metal>
0

> <r_i_glide_rewards>
-1.98494438024413

> <r_i_glide_evdw>
-26.3479194641113

> <r_i_glide_ecoul>
0.589836716651917

> <r_i_glide_erotb>
0.613733857335645

> <r_i_glide_esite>
0

> <r_i_glide_emodel>
-40.1834297417516

> <r_i_glide_energy>
-25.7580827474594

> <r_i_glide_einternal>
13.9333696365356

> <i_i_glide_confnum>
8

> <i_i_glide_posenum>
142

> <r_i_glide_eff_state_penalty>
0

> <i_f3d_flags>
0

> <s_user_duplicate_titles>
454705

> <s_m_subgroup_title>
dock_pv

> <s_m_subgroupid>
dock_pv1

> <b_m_subgroup_collapsed>
0

$$$$
2866
                    3D
 Schrodinger Suite 2021-1.
 36 38  0  0  1  0            999 V2000
   20.5806   17.1173    0.8030 C   0  0  0  0  0  0
   21.0131   17.6330    2.0346 O   0  0  0  0  0  0
   20.2699   17.3502    3.1491 C   0  0  0  0  0  0
   19.1847   16.4640    3.1607 C   0  0  0  0  0  0
   18.3302   16.4004    4.2751 C   0  0  0  0  0  0
   18.5981   17.2660    5.3679 C   0  0  0  0  0  0
   19.7779   18.0328    5.3979 C   0  0  0  0  0  0
   20.6398   18.0330    4.3020 C   0  0  0  0  0  0
   21.8386   18.7174    4.2643 O   0  0  0  0  0  0
   22.4168   19.1434    5.4848 C   0  0  0  0  0  0
   17.7415   17.3711    6.4030 N   0  0  0  0  0  0
   16.6783   16.5417    6.4120 C   0  0  0  0  0  0
   16.3649   15.6342    5.4820 N   0  0  0  0  0  0
   17.1673   15.5825    4.3980 C   0  0  0  0  0  0
   16.7763   14.7072    3.3774 N   0  0  0  0  0  0
   15.5945   13.9695    3.2189 C   0  0  0  0  0  0
   15.6560   12.8337    2.4185 C   0  0  0  0  0  0
   14.5102   12.0819    2.1989 C   0  0  0  0  0  0
   13.2992   12.4330    2.7966 C   0  0  0  0  0  0
   13.2269   13.5640    3.6030 C   0  0  0  0  0  0
   14.3656   14.3416    3.7922 C   0  0  0  0  0  0
   11.7298   14.0258    4.3274 Cl  0  0  0  0  0  0
   21.3640   17.2330    0.0596 H   0  0  0  0  0  0
   19.6990   17.6525    0.4668 H   0  0  0  0  0  0
   20.3635   16.0529    0.8030 H   0  0  0  0  0  0
   18.9640   15.8415    2.3162 H   0  0  0  0  0  0
   19.9774   18.6306    6.2724 H   0  0  0  0  0  0
   23.3662   19.6330    5.2701 H   0  0  0  0  0  0
   21.7640   19.8438    6.0030 H   0  0  0  0  0  0
   22.6225   18.2974    6.1425 H   0  0  0  0  0  0
   16.0269   16.5867    7.2691 H   0  0  0  0  0  0
   17.4926   14.5177    2.6944 H   0  0  0  0  0  0
   16.5873   12.5345    1.9601 H   0  0  0  0  0  0
   14.5640   11.2330    1.5401 H   0  0  0  0  0  0
   12.4209   11.8284    2.6195 H   0  0  0  0  0  0
   14.2627   15.2418    4.3754 H   0  0  0  0  0  0
  1  2  1  0  0  0
  1 23  1  0  0  0
  1 24  1  0  0  0
  1 25  1  0  0  0
  2  3  1  0  0  0
  3  8  1  0  0  0
  3  4  2  0  0  0
  4  5  1  0  0  0
  4 26  1  0  0  0
  5 14  2  0  0  0
  5  6  1  0  0  0
  6  7  1  0  0  0
  6 11  2  0  0  0
  7  8  2  0  0  0
  7 27  1  0  0  0
  8  9  1  0  0  0
  9 10  1  0  0  0
 10 28  1  0  0  0
 10 29  1  0  0  0
 10 30  1  0  0  0
 11 12  1  0  0  0
 12 13  2  0  0  0
 12 31  1  0  0  0
 13 14  1  0  0  0
 14 15  1  0  0  0
 15 16  1  0  0  0
 15 32  1  0  0  0
 16 21  1  0  0  0
 16 17  2  0  0  0
 17 18  1  0  0  0
 17 33  1  0  0  0
 18 19  2  0  0  0
 18 34  1  0  0  0
 19 20  1  0  0  0
 19 35  1  0  0  0
 20 21  2  0  0  0
 20 22  1  0  0  0
 21 36  1  0  0  0
M  END
> <s_m_entry_id>
6606

> <s_m_entry_name>
ligand_docking-pose.117

> <s_m_Source_Path>
/home/csk/Desktop/cluster/DUD-E-result/abl1

> <s_m_Source_File>
ligand_docking-pose.sdf

> <i_m_Source_File_Index>
117

> <i_lp_mmshare_version>
53161

> <r_lp_tautomer_probability>
0.999978000241998

> <s_lp_Force_Field>
OPLS_2005

> <r_lp_Energy>
20.278021

> <b_lp_Chiralities_Consistent>
1

> <s_lp_Variant>
2866-1

> <s_i_glide_gridfile>
glide-grid_2hzi

> <i_i_glide_lignum>
450

> <i_i_glide_rotatable_bonds>
4

> <r_i_docking_score>
-7.46574532931684

> <r_i_glide_ligand_efficiency>
-0.339352060423493

> <r_i_glide_ligand_efficiency_sa>
-0.950877819265836

> <r_i_glide_ligand_efficiency_ln>
-1.82490047816254

> <r_i_glide_gscore>
-7.46574532931684

> <r_i_glide_lipo>
-3.76836215787927

> <r_i_glide_hbond>
0

> <r_i_glide_metal>
0

> <r_i_glide_rewards>
-2.04129171945711

> <r_i_glide_evdw>
-31.8725814819336

> <r_i_glide_ecoul>
-2.9048125743866

> <r_i_glide_erotb>
0.373259508274203

> <r_i_glide_esite>
0

> <r_i_glide_emodel>
-46.6193173409404

> <r_i_glide_energy>
-34.7773940563202

> <r_i_glide_einternal>
5.33723115921021

> <i_i_glide_confnum>
1

> <i_i_glide_posenum>
69

> <r_i_glide_eff_state_penalty>
0

> <i_f3d_flags>
0

> <s_user_duplicate_titles>
2866

> <s_m_subgroup_title>
dock_pv

> <s_m_subgroupid>
dock_pv1

> <b_m_subgroup_collapsed>
0

$$$$
436605
                    3D
 Schrodinger Suite 2021-1.
 35 37  0  0  1  0            999 V2000
   23.0355   18.8103    5.2028 C   0  0  0  0  0  0
   22.1593   18.8337    4.1222 C   0  0  0  0  0  0
   21.2042   17.8332    3.9808 C   0  0  0  0  0  0
   21.1343   16.8035    4.9212 C   0  0  0  0  0  0
   22.0413   16.7567    5.9829 C   0  0  0  0  0  0
   22.9925   17.7619    6.1168 C   0  0  0  0  0  0
   20.0647   15.7369    4.7849 C   0  0  0  0  0  0
   18.5236   16.2763    5.6017 S   0  0  0  0  0  0
   17.3277   15.3104    4.7362 C   0  0  0  0  0  0
   17.5814   14.4506    3.7779 N   0  0  0  0  0  0
   16.4509   13.8068    3.3015 N   0  0  0  0  0  0
   15.3615   14.1914    3.9125 C   0  0  0  0  0  0
   15.6337   15.4161    5.1351 S   0  0  0  0  0  0
   14.1498   13.6137    3.5828 N   0  0  0  0  0  0
   12.9086   13.9323    4.0031 C   0  0  0  0  0  0
   12.6528   14.8324    4.8029 O   0  0  0  0  0  0
   11.7867   13.1326    3.3697 C   0  0  0  0  0  0
   12.0378   12.0330    2.5266 C   0  0  0  0  0  0
   10.9913   11.3363    1.9310 C   0  0  0  0  0  0
    9.6789   11.7342    2.1586 C   0  0  0  0  0  0
    9.4058   12.8087    2.9996 C   0  0  0  0  0  0
   10.4530   13.5026    3.6039 C   0  0  0  0  0  0
    8.3873   10.8846    1.3915 Cl  0  0  0  0  0  0
   23.7597   19.6093    5.3190 H   0  0  0  0  0  0
   22.2122   19.6352    3.4011 H   0  0  0  0  0  0
   20.5159   17.8645    3.1470 H   0  0  0  0  0  0
   22.0075   15.9516    6.7034 H   0  0  0  0  0  0
   23.6942   17.7301    6.9373 H   0  0  0  0  0  0
   20.4019   14.8125    5.2503 H   0  0  0  0  0  0
   19.9143   15.5214    3.7247 H   0  0  0  0  0  0
   14.2081   12.8781    2.8951 H   0  0  0  0  0  0
   13.0381   11.6808    2.3177 H   0  0  0  0  0  0
   11.1984   10.4893    1.2923 H   0  0  0  0  0  0
    8.3856   13.1056    3.1868 H   0  0  0  0  0  0
   10.2177   14.3392    4.2463 H   0  0  0  0  0  0
  1  6  1  0  0  0
  1  2  2  0  0  0
  1 24  1  0  0  0
  2  3  1  0  0  0
  2 25  1  0  0  0
  3  4  2  0  0  0
  3 26  1  0  0  0
  4  5  1  0  0  0
  4  7  1  0  0  0
  5  6  2  0  0  0
  5 27  1  0  0  0
  6 28  1  0  0  0
  7  8  1  0  0  0
  7 29  1  0  0  0
  7 30  1  0  0  0
  8  9  1  0  0  0
  9 13  1  0  0  0
  9 10  2  0  0  0
 10 11  1  0  0  0
 11 12  2  0  0  0
 12 13  1  0  0  0
 12 14  1  0  0  0
 14 15  1  0  0  0
 14 31  1  0  0  0
 15 16  2  0  0  0
 15 17  1  0  0  0
 17 22  1  0  0  0
 17 18  2  0  0  0
 18 19  1  0  0  0
 18 32  1  0  0  0
 19 20  2  0  0  0
 19 33  1  0  0  0
 20 21  1  0  0  0
 20 23  1  0  0  0
 21 22  2  0  0  0
 21 34  1  0  0  0
 22 35  1  0  0  0
M  END
> <s_m_entry_id>
6608

> <s_m_entry_name>
ligand_docking-pose.119

> <s_m_Source_Path>
/home/csk/Desktop/cluster/DUD-E-result/abl1

> <s_m_Source_File>
ligand_docking-pose.sdf

> <i_m_Source_File_Index>
119

> <i_lp_mmshare_version>
53161

> <r_lp_tautomer_probability>
1

> <s_lp_Force_Field>
OPLS_2005

> <r_lp_Energy>
14.953978

> <b_lp_Chiralities_Consistent>
1

> <s_lp_Variant>
436605-1

> <s_i_glide_gridfile>
glide-grid_2hzi

> <i_i_glide_lignum>
80

> <i_i_glide_rotatable_bonds>
6

> <r_i_docking_score>
-7.38123337941409

> <r_i_glide_ligand_efficiency>
-0.320923190409308

> <r_i_glide_ligand_efficiency_sa>
-0.912662863319766

> <r_i_glide_ligand_efficiency_ln>
-1.78484916046623

> <r_i_glide_gscore>
-7.38123337941409

> <r_i_glide_lipo>
-3.68567842414661

> <r_i_glide_hbond>
0

> <r_i_glide_metal>
0

> <r_i_glide_rewards>
-1.84473791356266

> <r_i_glide_evdw>
-44.719596862793

> <r_i_glide_ecoul>
-3.29568529129028

> <r_i_glide_erotb>
0.879515595128375

> <r_i_glide_esite>
0

> <r_i_glide_emodel>
-66.4722398074587

> <r_i_glide_energy>
-48.0152821540833

> <r_i_glide_einternal>
1.34868168830872

> <i_i_glide_confnum>
85

> <i_i_glide_posenum>
337

> <r_i_glide_eff_state_penalty>
0

> <i_f3d_flags>
0

> <s_user_duplicate_titles>
436605

> <s_m_subgroup_title>
dock_pv

> <s_m_subgroupid>
dock_pv1

> <b_m_subgroup_collapsed>
0

$$$$
583165
                    3D
 Schrodinger Suite 2021-1.
 41 44  0  0  1  0            999 V2000
   14.6437   12.1823    1.9951 C   0  0  0  0  0  0
   14.1343   13.0763    3.0403 N   0  0  0  0  0  0
   15.0886   13.9620    3.6408 C   0  0  0  0  0  0
   14.6370   14.8111    4.6487 C   0  0  0  0  0  0
   13.2363   14.7323    5.0150 C   0  0  0  0  0  0
   12.3414   13.9032    4.4331 C   0  0  0  0  0  0
   12.7866   12.9939    3.3591 C   0  0  0  0  0  0
   11.9958   12.2348    2.7989 O   0  0  0  0  0  0
   10.9462   13.7925    5.0128 C   0  0  0  0  0  0
   10.7425   13.4213    6.3556 C   0  0  0  0  0  0
    9.4796   13.2325    6.9032 C   0  0  0  0  0  0
    8.3529   13.4382    6.1376 C   0  0  0  0  0  0
    8.4985   13.8638    4.8304 C   0  0  0  0  0  0
    9.7655   14.0774    4.3032 C   0  0  0  0  0  0
    9.7709   14.8332    2.7995 Cl  0  0  0  0  0  0
   12.0581   13.2324    7.4035 Cl  0  0  0  0  0  0
   15.5594   15.6332    5.2880 C   0  0  0  0  0  0
   16.8650   15.6387    4.9368 N   0  0  0  0  0  0
   17.2378   14.8233    3.9218 C   0  0  0  0  0  0
   16.4063   13.9773    3.2435 N   0  0  0  0  0  0
   18.5734   14.8825    3.5026 N   0  0  0  0  0  0
   19.6070   15.6900    3.9989 C   0  0  0  0  0  0
   20.2304   15.3751    5.2087 C   0  0  0  0  0  0
   21.2753   16.1645    5.6779 C   0  0  0  0  0  0
   21.6947   17.2682    4.9291 C   0  0  0  0  0  0
   21.0639   17.5920    3.7278 C   0  0  0  0  0  0
   20.0181   16.8001    3.2580 C   0  0  0  0  0  0
   23.3013   18.4324    5.5956 I   0  0  0  0  0  0
   15.1431   12.7615    1.2145 H   0  0  0  0  0  0
   15.3574   11.4779    2.4220 H   0  0  0  0  0  0
   13.8601   11.6049    1.5095 H   0  0  0  0  0  0
   12.9639   15.2309    5.9115 H   0  0  0  0  0  0
    9.3697   12.9130    7.9323 H   0  0  0  0  0  0
    7.3834   13.2629    6.5603 H   0  0  0  0  0  0
    7.6325   14.0812    4.2285 H   0  0  0  0  0  0
   15.2735   16.2905    6.0972 H   0  0  0  0  0  0
   18.8061   14.3208    2.6955 H   0  0  0  0  0  0
   19.9123   14.5124    5.7787 H   0  0  0  0  0  0
   21.7743   15.9243    6.6086 H   0  0  0  0  0  0
   21.3957   18.4442    3.1539 H   0  0  0  0  0  0
   19.5402   17.0383    2.3189 H   0  0  0  0  0  0
  1  2  1  0  0  0
  1 29  1  0  0  0
  1 30  1  0  0  0
  1 31  1  0  0  0
  2  7  1  0  0  0
  2  3  1  0  0  0
  3 20  2  0  0  0
  3  4  1  0  0  0
  4  5  1  0  0  0
  4 17  2  0  0  0
  5  6  2  0  0  0
  5 32  1  0  0  0
  6  7  1  0  0  0
  6  9  1  0  0  0
  7  8  2  0  0  0
  9 14  1  0  0  0
  9 10  2  0  0  0
 10 11  1  0  0  0
 10 16  1  0  0  0
 11 12  2  0  0  0
 11 33  1  0  0  0
 12 13  1  0  0  0
 12 34  1  0  0  0
 13 14  2  0  0  0
 13 35  1  0  0  0
 14 15  1  0  0  0
 17 18  1  0  0  0
 17 36  1  0  0  0
 18 19  2  0  0  0
 19 20  1  0  0  0
 19 21  1  0  0  0
 21 22  1  0  0  0
 21 37  1  0  0  0
 22 27  1  0  0  0
 22 23  2  0  0  0
 23 24  1  0  0  0
 23 38  1  0  0  0
 24 25  2  0  0  0
 24 39  1  0  0  0
 25 26  1  0  0  0
 25 28  1  0  0  0
 26 27  2  0  0  0
 26 40  1  0  0  0
 27 41  1  0  0  0
M  END
> <s_m_entry_id>
6610

> <s_m_entry_name>
ligand_docking-pose.121

> <s_m_Source_Path>
/home/csk/Desktop/cluster/DUD-E-result/abl1

> <s_m_Source_File>
ligand_docking-pose.sdf

> <i_m_Source_File_Index>
121

> <i_lp_mmshare_version>
53161

> <r_lp_tautomer_probability>
1

> <s_lp_Force_Field>
OPLS_2005

> <r_lp_Energy>
26.046827

> <b_lp_Chiralities_Consistent>
1

> <s_lp_Variant>
583165-1

> <s_i_glide_gridfile>
glide-grid_2hzi

> <i_i_glide_lignum>
354

> <i_i_glide_rotatable_bonds>
3

> <r_i_docking_score>
-7.32565452793449

> <r_i_glide_ligand_efficiency>
-0.261630518854803

> <r_i_glide_ligand_efficiency_sa>
-0.794464347378164

> <r_i_glide_ligand_efficiency_ln>
-1.69097615561049

> <r_i_glide_gscore>
-7.32565452793449

> <r_i_glide_lipo>
-4.1415286392107

> <r_i_glide_hbond>
0

> <r_i_glide_metal>
0

> <r_i_glide_rewards>
-1.65907750559988

> <r_i_glide_evdw>
-36.5977020263672

> <r_i_glide_ecoul>
0.529198944568634

> <r_i_glide_erotb>
0.225456876509158

> <r_i_glide_esite>
0

> <r_i_glide_emodel>
-54.1033989394838

> <r_i_glide_energy>
-36.0685030817986

> <r_i_glide_einternal>
6.98130464553833

> <i_i_glide_confnum>
7

> <i_i_glide_posenum>
63

> <r_i_glide_eff_state_penalty>
0

> <i_f3d_flags>
0

> <s_user_duplicate_titles>
583165

> <s_m_subgroup_title>
dock_pv

> <s_m_subgroupid>
dock_pv1

> <b_m_subgroup_collapsed>
0

$$$$
489584
                    3D
 Schrodinger Suite 2021-1.
 35 37  0  0  1  0            999 V2000
   13.9466   12.4150    3.0038 C   0  0  0  0  0  0
   14.7549   13.2362    3.7824 C   0  0  0  0  0  0
   14.2016   14.2752    4.5406 C   0  0  0  0  0  0
   12.8068   14.4115    4.5601 C   0  0  0  0  0  0
   11.9781   13.5535    3.8256 C   0  0  0  0  0  0
   12.5645   12.5662    3.0259 C   0  0  0  0  0  0
   10.4585   13.6748    3.9375 C   0  0  0  0  0  0
    9.8209   12.6988    3.2886 F   0  0  0  0  0  0
   10.0963   13.6331    5.2208 F   0  0  0  0  0  0
   10.0562   14.8327    3.4229 F   0  0  0  0  0  0
   15.0371   15.2123    5.4276 C   0  0  0  0  0  0
   16.4530   15.6330    5.0431 C   0  0  0  0  0  0
   17.2763   16.5440    5.7141 C   0  0  0  0  0  0
   18.3704   16.9618    5.1111 N   0  0  0  0  0  0
   18.5179   16.3710    3.9530 C   0  0  0  0  0  0
   17.3412   15.1730    3.6031 S   0  0  0  0  0  0
   19.3769   16.7291    2.9294 N   0  0  0  0  0  0
   20.5562   17.3717    3.0182 C   0  0  0  0  0  0
   20.9669   18.0113    2.0525 O   0  0  0  0  0  0
   21.3085   17.2935    4.2513 C   0  0  0  0  0  0
   21.4162   16.2122    5.1307 C   0  0  0  0  0  0
   22.3365   16.4333    6.1534 C   0  0  0  0  0  0
   22.9643   17.6636    6.0482 C   0  0  0  0  0  0
   22.3988   18.5745    4.6963 S   0  0  0  0  0  0
   14.3869   11.6325    2.4047 H   0  0  0  0  0  0
   15.8109   13.0309    3.7931 H   0  0  0  0  0  0
   12.3570   15.1764    5.1764 H   0  0  0  0  0  0
   11.9582   11.8882    2.4410 H   0  0  0  0  0  0
   15.0181   14.8343    6.4461 H   0  0  0  0  0  0
   14.4743   16.1403    5.5015 H   0  0  0  0  0  0
   17.0182   17.0021    6.6585 H   0  0  0  0  0  0
   19.1305   16.4072    2.0061 H   0  0  0  0  0  0
   20.8684   15.2871    5.0216 H   0  0  0  0  0  0
   22.5610   15.7095    6.9224 H   0  0  0  0  0  0
   23.7285   18.0710    6.6954 H   0  0  0  0  0  0
  1  6  1  0  0  0
  1  2  2  0  0  0
  1 25  1  0  0  0
  2  3  1  0  0  0
  2 26  1  0  0  0
  3  4  2  0  0  0
  3 11  1  0  0  0
  4  5  1  0  0  0
  4 27  1  0  0  0
  5  6  2  0  0  0
  5  7  1  0  0  0
  6 28  1  0  0  0
  7  8  1  0  0  0
  7  9  1  0  0  0
  7 10  1  0  0  0
 11 12  1  0  0  0
 11 29  1  0  0  0
 11 30  1  0  0  0
 12 16  1  0  0  0
 12 13  2  0  0  0
 13 14  1  0  0  0
 13 31  1  0  0  0
 14 15  2  0  0  0
 15 16  1  0  0  0
 15 17  1  0  0  0
 17 18  1  0  0  0
 17 32  1  0  0  0
 18 19  2  0  0  0
 18 20  1  0  0  0
 20 24  1  0  0  0
 20 21  2  0  0  0
 21 22  1  0  0  0
 21 33  1  0  0  0
 22 23  2  0  0  0
 22 34  1  0  0  0
 23 24  1  0  0  0
 23 35  1  0  0  0
M  END
> <s_m_entry_id>
6612

> <s_m_entry_name>
ligand_docking-pose.123

> <s_m_Source_Path>
/home/csk/Desktop/cluster/DUD-E-result/abl1

> <s_m_Source_File>
ligand_docking-pose.sdf

> <i_m_Source_File_Index>
123

> <i_lp_mmshare_version>
53161

> <r_lp_tautomer_probability>
0.999000488399163

> <s_lp_Force_Field>
OPLS_2005

> <r_lp_Energy>
11.038387

> <b_lp_Chiralities_Consistent>
1

> <s_lp_Variant>
489584-1

> <s_i_glide_gridfile>
glide-grid_2hzi

> <i_i_glide_lignum>
35

> <i_i_glide_rotatable_bonds>
6

> <r_i_docking_score>
-7.22773032602202

> <r_i_glide_ligand_efficiency>
-0.301155430250917

> <r_i_glide_ligand_efficiency_sa>
-0.868682578830016

> <r_i_glide_ligand_efficiency_ln>
-1.72992752595054

> <r_i_glide_gscore>
-7.22773032602202

> <r_i_glide_lipo>
-4.93940135018482

> <r_i_glide_hbond>
0

> <r_i_glide_metal>
0

> <r_i_glide_rewards>
-0.366346327774061

> <r_i_glide_evdw>
-46.5253715515137

> <r_i_glide_ecoul>
-1.98702812194824

> <r_i_glide_erotb>
0.709908925802645

> <r_i_glide_esite>
-0.00756877799785598

> <r_i_glide_emodel>
-55.309783589557

> <r_i_glide_energy>
-48.5123996734619

> <r_i_glide_einternal>
11.9002532958984

> <i_i_glide_confnum>
11

> <i_i_glide_posenum>
103

> <r_i_glide_eff_state_penalty>
0

> <i_f3d_flags>
0

> <s_user_duplicate_titles>
489584

> <s_m_subgroup_title>
dock_pv

> <s_m_subgroupid>
dock_pv1

> <b_m_subgroup_collapsed>
0

$$$$
436851
                    3D
 Schrodinger Suite 2021-1.
 35 37  0  0  1  0            999 V2000
   20.8924   18.1874    4.0046 C   0  0  0  0  0  0
   22.1235   18.8302    4.0858 C   0  0  0  0  0  0
   22.9882   18.5129    5.1255 C   0  0  0  0  0  0
   22.6588   17.5396    6.0565 C   0  0  0  0  0  0
   21.4131   16.9288    6.0018 C   0  0  0  0  0  0
   20.5167   17.2655    4.9805 C   0  0  0  0  0  0
   19.1400   16.6297    4.9237 C   0  0  0  0  0  0
   19.3233   14.8330    4.9764 S   0  0  0  0  0  0
   17.9286   14.2827    4.0703 C   0  0  0  0  0  0
   17.9660   13.2850    3.2162 N   0  0  0  0  0  0
   16.7050   12.8731    2.8034 N   0  0  0  0  0  0
   15.7490   13.5595    3.3778 C   0  0  0  0  0  0
   16.3211   14.8544    4.4013 S   0  0  0  0  0  0
   14.4243   13.2247    3.1679 N   0  0  0  0  0  0
   13.3275   13.6522    3.8309 C   0  0  0  0  0  0
   13.3399   14.4479    4.7724 O   0  0  0  0  0  0
   12.0145   13.0926    3.3291 C   0  0  0  0  0  0
   10.8018   13.6308    3.7943 C   0  0  0  0  0  0
    9.5854   13.1234    3.3400 C   0  0  0  0  0  0
    9.5704   12.0753    2.4203 C   0  0  0  0  0  0
   10.7598   11.5234    1.9572 C   0  0  0  0  0  0
   11.9745   12.0330    2.4030 C   0  0  0  0  0  0
    8.0751   11.4559    1.8373 Cl  0  0  0  0  0  0
   24.1633   19.1567    5.2311 F   0  0  0  0  0  0
   20.2149   18.4305    3.2033 H   0  0  0  0  0  0
   22.4062   19.5773    3.3602 H   0  0  0  0  0  0
   23.3638   17.2877    6.8322 H   0  0  0  0  0  0
   21.1486   16.1965    6.7488 H   0  0  0  0  0  0
   18.6058   16.9255    4.0188 H   0  0  0  0  0  0
   18.5492   16.9629    5.7782 H   0  0  0  0  0  0
   14.2731   12.5058    2.4818 H   0  0  0  0  0  0
   10.7899   14.4441    4.5061 H   0  0  0  0  0  0
    8.6601   13.5429    3.7007 H   0  0  0  0  0  0
   10.7393   10.7052    1.2500 H   0  0  0  0  0  0
   12.8753   11.5974    2.0022 H   0  0  0  0  0  0
  1  6  1  0  0  0
  1  2  2  0  0  0
  1 25  1  0  0  0
  2  3  1  0  0  0
  2 26  1  0  0  0
  3  4  2  0  0  0
  3 24  1  0  0  0
  4  5  1  0  0  0
  4 27  1  0  0  0
  5  6  2  0  0  0
  5 28  1  0  0  0
  6  7  1  0  0  0
  7  8  1  0  0  0
  7 29  1  0  0  0
  7 30  1  0  0  0
  8  9  1  0  0  0
  9 13  1  0  0  0
  9 10  2  0  0  0
 10 11  1  0  0  0
 11 12  2  0  0  0
 12 13  1  0  0  0
 12 14  1  0  0  0
 14 15  1  0  0  0
 14 31  1  0  0  0
 15 16  2  0  0  0
 15 17  1  0  0  0
 17 22  1  0  0  0
 17 18  2  0  0  0
 18 19  1  0  0  0
 18 32  1  0  0  0
 19 20  2  0  0  0
 19 33  1  0  0  0
 20 21  1  0  0  0
 20 23  1  0  0  0
 21 22  2  0  0  0
 21 34  1  0  0  0
 22 35  1  0  0  0
M  END
> <s_m_entry_id>
6614

> <s_m_entry_name>
ligand_docking-pose.125

> <s_m_Source_Path>
/home/csk/Desktop/cluster/DUD-E-result/abl1

> <s_m_Source_File>
ligand_docking-pose.sdf

> <i_m_Source_File_Index>
125

> <i_lp_mmshare_version>
53161

> <r_lp_tautomer_probability>
1

> <s_lp_Force_Field>
OPLS_2005

> <r_lp_Energy>
14.120736

> <b_lp_Chiralities_Consistent>
1

> <s_lp_Variant>
436851-1

> <s_i_glide_gridfile>
glide-grid_2hzi

> <i_i_glide_lignum>
82

> <i_i_glide_rotatable_bonds>
6

> <r_i_docking_score>
-7.12976465116399

> <r_i_glide_ligand_efficiency>
-0.297073527131833

> <r_i_glide_ligand_efficiency_sa>
-0.856908332803417

> <r_i_glide_ligand_efficiency_ln>
-1.70647984460512

> <r_i_glide_gscore>
-7.12976465116399

> <r_i_glide_lipo>
-3.73700743662766

> <r_i_glide_hbond>
0

> <r_i_glide_metal>
0

> <r_i_glide_rewards>
-1.78630745267023

> <r_i_glide_evdw>
-42.908088684082

> <r_i_glide_ecoul>
-1.7386634349823

> <r_i_glide_erotb>
0.806448948359858

> <r_i_glide_esite>
-0.00669476077451788

> <r_i_glide_emodel>
-60.4701286879547

> <r_i_glide_energy>
-44.6467521190643

> <r_i_glide_einternal>
8.22014141082764

> <i_i_glide_confnum>
57

> <i_i_glide_posenum>
198

> <r_i_glide_eff_state_penalty>
0

> <i_f3d_flags>
0

> <s_user_duplicate_titles>
436851

> <s_m_subgroup_title>
dock_pv

> <s_m_subgroupid>
dock_pv1

> <b_m_subgroup_collapsed>
0

$$$$
489583
                    3D
 Schrodinger Suite 2021-1.
 32 34  0  0  1  0            999 V2000
    9.7467   12.9388    3.6025 C   0  0  0  0  0  0
   10.3298   13.9111    4.4110 C   0  0  0  0  0  0
   11.7137   14.0676    4.4103 C   0  0  0  0  0  0
   12.5178   13.2620    3.6030 C   0  0  0  0  0  0
   11.9209   12.2774    2.8023 C   0  0  0  0  0  0
   10.5365   12.1175    2.8028 C   0  0  0  0  0  0
   13.8742   13.5039    3.6564 O   0  0  0  0  0  0
   14.7611   12.7362    2.8474 C   0  0  0  0  0  0
   16.1769   13.2314    3.0563 C   0  0  0  0  0  0
   17.2237   12.4630    2.8604 N   0  0  0  0  0  0
   18.4262   13.0689    3.2028 N   0  0  0  0  0  0
   18.2805   14.3075    3.5985 C   0  0  0  0  0  0
   16.6130   14.8316    3.6171 S   0  0  0  0  0  0
   19.3619   15.0525    4.0490 N   0  0  0  0  0  0
   19.4948   16.3971    4.0462 C   0  0  0  0  0  0
   18.6640   17.1907    3.6025 O   0  0  0  0  0  0
   20.7307   16.8859    4.6206 C   0  0  0  0  0  0
   21.3337   18.1196    4.3673 C   0  0  0  0  0  0
   22.4759   18.3565    5.1400 C   0  0  0  0  0  0
   22.7569   17.3087    6.0030 C   0  0  0  0  0  0
   21.5975   16.0283    5.8776 S   0  0  0  0  0  0
    8.6742   12.8044    3.6092 H   0  0  0  0  0  0
    9.7129   14.5342    5.0425 H   0  0  0  0  0  0
   12.1707   14.8220    5.0342 H   0  0  0  0  0  0
   12.5124   11.6303    2.1729 H   0  0  0  0  0  0
   10.0797   11.3509    2.1931 H   0  0  0  0  0  0
   14.4996   12.8340    1.7929 H   0  0  0  0  0  0
   14.6928   11.6812    3.1228 H   0  0  0  0  0  0
   20.1936   14.5241    4.2611 H   0  0  0  0  0  0
   20.9626   18.8327    3.6468 H   0  0  0  0  0  0
   23.0684   19.2590    5.0754 H   0  0  0  0  0  0
   23.5708   17.2345    6.7100 H   0  0  0  0  0  0
  1  6  1  0  0  0
  1  2  2  0  0  0
  1 22  1  0  0  0
  2  3  1  0  0  0
  2 23  1  0  0  0
  3  4  2  0  0  0
  3 24  1  0  0  0
  4  5  1  0  0  0
  4  7  1  0  0  0
  5  6  2  0  0  0
  5 25  1  0  0  0
  6 26  1  0  0  0
  7  8  1  0  0  0
  8  9  1  0  0  0
  8 27  1  0  0  0
  8 28  1  0  0  0
  9 13  1  0  0  0
  9 10  2  0  0  0
 10 11  1  0  0  0
 11 12  2  0  0  0
 12 13  1  0  0  0
 12 14  1  0  0  0
 14 15  1  0  0  0
 14 29  1  0  0  0
 15 16  2  0  0  0
 15 17  1  0  0  0
 17 21  1  0  0  0
 17 18  2  0  0  0
 18 19  1  0  0  0
 18 30  1  0  0  0
 19 20  2  0  0  0
 19 31  1  0  0  0
 20 21  1  0  0  0
 20 32  1  0  0  0
M  END
> <s_m_entry_id>
6616

> <s_m_entry_name>
ligand_docking-pose.127

> <s_m_Source_Path>
/home/csk/Desktop/cluster/DUD-E-result/abl1

> <s_m_Source_File>
ligand_docking-pose.sdf

> <i_m_Source_File_Index>
127

> <i_lp_mmshare_version>
53161

> <r_lp_tautomer_probability>
1

> <s_lp_Force_Field>
OPLS_2005

> <r_lp_Energy>
14.874792

> <b_lp_Chiralities_Consistent>
1

> <s_lp_Variant>
489583-1

> <s_i_glide_gridfile>
glide-grid_2hzi

> <i_i_glide_lignum>
117

> <i_i_glide_rotatable_bonds>
6

> <r_i_docking_score>
-7.10521207318932

> <r_i_glide_ligand_efficiency>
-0.338343432056634

> <r_i_glide_ligand_efficiency_sa>
-0.933463873673494

> <r_i_glide_ligand_efficiency_ln>
-1.75674932766319

> <r_i_glide_gscore>
-7.10521207318932

> <r_i_glide_lipo>
-3.65976764506949

> <r_i_glide_hbond>
0

> <r_i_glide_metal>
0

> <r_i_glide_rewards>
-1.77023647273655

> <r_i_glide_evdw>
-47.399169921875

> <r_i_glide_ecoul>
-2.76600933074951

> <r_i_glide_erotb>
1.1096519403229

> <r_i_glide_esite>
0

> <r_i_glide_emodel>
-69.9499504351189

> <r_i_glide_energy>
-50.1651792526245

> <r_i_glide_einternal>
4.15046453475952

> <i_i_glide_confnum>
57

> <i_i_glide_posenum>
216

> <r_i_glide_eff_state_penalty>
0

> <i_f3d_flags>
0

> <s_user_duplicate_titles>
489583

> <s_m_subgroup_title>
dock_pv

> <s_m_subgroupid>
dock_pv1

> <b_m_subgroup_collapsed>
0

$$$$
436899
                    3D
 Schrodinger Suite 2021-1.
 35 37  0  0  1  0            999 V2000
   21.2964   15.5935    6.2320 C   0  0  0  0  0  0
   22.4117   16.4337    6.1796 C   0  0  0  0  0  0
   22.3153   17.6270    5.4839 C   0  0  0  0  0  0
   21.1833   17.9646    4.7458 C   0  0  0  0  0  0
   20.0798   17.1250    4.7860 C   0  0  0  0  0  0
   20.1160   15.9679    5.5792 C   0  0  0  0  0  0
   18.8726   15.0938    5.7404 C   0  0  0  0  0  0
   17.3238   16.0610    5.8629 S   0  0  0  0  0  0
   16.3380   15.1840    4.6944 C   0  0  0  0  0  0
   16.7753   14.4407    3.7056 N   0  0  0  0  0  0
   15.7839   13.6901    3.0955 N   0  0  0  0  0  0
   14.6064   13.9204    3.6234 C   0  0  0  0  0  0
   14.6145   15.1783    4.8326 S   0  0  0  0  0  0
   13.4860   13.2246    3.2043 N   0  0  0  0  0  0
   12.2294   13.2883    3.6972 C   0  0  0  0  0  0
   11.8981   13.9627    4.6668 O   0  0  0  0  0  0
   11.1809   12.4972    2.9421 C   0  0  0  0  0  0
    9.8334   12.8127    3.1586 C   0  0  0  0  0  0
    8.8441   12.1837    2.4186 C   0  0  0  0  0  0
    9.1798   11.2187    1.4833 C   0  0  0  0  0  0
   10.5034   10.8481    1.2991 C   0  0  0  0  0  0
   11.5025   11.5086    2.0045 C   0  0  0  0  0  0
    8.2149   10.6247    0.7502 F   0  0  0  0  0  0
   23.7637   18.8431    5.5920 Br  0  0  0  0  0  0
   21.3494   14.6809    6.8024 H   0  0  0  0  0  0
   23.3086   16.1752    6.7105 H   0  0  0  0  0  0
   21.1486   18.8738    4.1663 H   0  0  0  0  0  0
   19.1971   17.3914    4.2389 H   0  0  0  0  0  0
   18.9466   14.5190    6.6549 H   0  0  0  0  0  0
   18.8869   14.3613    4.9448 H   0  0  0  0  0  0
   13.6596   12.5677    2.4519 H   0  0  0  0  0  0
    9.5460   13.5685    3.8779 H   0  0  0  0  0  0
    7.8135   12.4510    2.5790 H   0  0  0  0  0  0
   10.7583   10.0769    0.5841 H   0  0  0  0  0  0
   12.5249   11.2245    1.8014 H   0  0  0  0  0  0
  1  6  1  0  0  0
  1  2  2  0  0  0
  1 25  1  0  0  0
  2  3  1  0  0  0
  2 26  1  0  0  0
  3  4  2  0  0  0
  3 24  1  0  0  0
  4  5  1  0  0  0
  4 27  1  0  0  0
  5  6  2  0  0  0
  5 28  1  0  0  0
  6  7  1  0  0  0
  7  8  1  0  0  0
  7 29  1  0  0  0
  7 30  1  0  0  0
  8  9  1  0  0  0
  9 13  1  0  0  0
  9 10  2  0  0  0
 10 11  1  0  0  0
 11 12  2  0  0  0
 12 13  1  0  0  0
 12 14  1  0  0  0
 14 15  1  0  0  0
 14 31  1  0  0  0
 15 16  2  0  0  0
 15 17  1  0  0  0
 17 22  1  0  0  0
 17 18  2  0  0  0
 18 19  1  0  0  0
 18 32  1  0  0  0
 19 20  2  0  0  0
 19 33  1  0  0  0
 20 21  1  0  0  0
 20 23  1  0  0  0
 21 22  2  0  0  0
 21 34  1  0  0  0
 22 35  1  0  0  0
M  END
> <s_m_entry_id>
6617

> <s_m_entry_name>
ligand_docking-pose.128

> <s_m_Source_Path>
/home/csk/Desktop/cluster/DUD-E-result/abl1

> <s_m_Source_File>
ligand_docking-pose.sdf

> <i_m_Source_File_Index>
128

> <i_lp_mmshare_version>
53161

> <r_lp_tautomer_probability>
1

> <s_lp_Force_Field>
OPLS_2005

> <r_lp_Energy>
14.212332

> <b_lp_Chiralities_Consistent>
1

> <s_lp_Variant>
436899-1

> <s_i_glide_gridfile>
glide-grid_2hzi

> <i_i_glide_lignum>
85

> <i_i_glide_rotatable_bonds>
6

> <r_i_docking_score>
-7.04148577876826

> <r_i_glide_ligand_efficiency>
-0.293395240782011

> <r_i_glide_ligand_efficiency_sa>
-0.84629831899966

> <r_i_glide_ligand_efficiency_ln>
-1.68535065958733

> <r_i_glide_gscore>
-7.04148577876826

> <r_i_glide_lipo>
-3.57117156881027

> <r_i_glide_hbond>
0

> <r_i_glide_metal>
0

> <r_i_glide_rewards>
-1.41840115500942

> <r_i_glide_evdw>
-44.0254058837891

> <r_i_glide_ecoul>
-3.4093279838562

> <r_i_glide_erotb>
0.660756436819317

> <r_i_glide_esite>
0

> <r_i_glide_emodel>
-56.4593834950719

> <r_i_glide_energy>
-47.4347338676453

> <r_i_glide_einternal>
5.69273996353149

> <i_i_glide_confnum>
45

> <i_i_glide_posenum>
252

> <r_i_glide_eff_state_penalty>
0

> <i_f3d_flags>
0

> <s_user_duplicate_titles>
436899

> <s_m_subgroup_title>
dock_pv

> <s_m_subgroupid>
dock_pv1

> <b_m_subgroup_collapsed>
0

$$$$
436192
                    3D
 Schrodinger Suite 2021-1.
 35 37  0  0  1  0            999 V2000
   11.4209   14.4800    4.5632 C   0  0  0  0  0  0
   12.5719   14.0022    3.9427 C   0  0  0  0  0  0
   12.4928   12.9358    3.0417 C   0  0  0  0  0  0
   11.2471   12.3393    2.8061 C   0  0  0  0  0  0
   10.0954   12.8300    3.4237 C   0  0  0  0  0  0
   10.1814   13.9004    4.3083 C   0  0  0  0  0  0
    8.5658   12.1051    3.0938 Cl  0  0  0  0  0  0
   13.7017   12.4910    2.2297 C   0  0  0  0  0  0
   15.1211   12.0330    3.2108 S   0  0  0  0  0  0
   16.2273   13.3614    3.1307 C   0  0  0  0  0  0
   15.8815   14.6068    3.2886 N   0  0  0  0  0  0
   16.9641   15.3984    3.6032 N   0  0  0  0  0  0
   18.0998   14.7538    3.6038 C   0  0  0  0  0  0
   17.9459   13.0790    3.2029 S   0  0  0  0  0  0
   19.3152   15.2809    3.9843 N   0  0  0  0  0  0
   19.6312   16.5925    3.9115 C   0  0  0  0  0  0
   18.9693   17.4302    3.2927 O   0  0  0  0  0  0
   20.8961   17.0079    4.6161 C   0  0  0  0  0  0
   21.4835   16.2032    5.6027 C   0  0  0  0  0  0
   22.6040   16.6558    6.2819 C   0  0  0  0  0  0
   23.1472   17.9006    5.9813 C   0  0  0  0  0  0
   22.5742   18.7119    5.0142 C   0  0  0  0  0  0
   21.4536   18.2602    4.3355 C   0  0  0  0  0  0
   24.5588   18.4330    6.8000 Cl  0  0  0  0  0  0
   11.4900   15.3396    5.2033 H   0  0  0  0  0  0
   13.5094   14.4963    4.1389 H   0  0  0  0  0  0
   11.1596   11.5135    2.1133 H   0  0  0  0  0  0
    9.2917   14.2843    4.7864 H   0  0  0  0  0  0
   14.0499   13.2330    1.5396 H   0  0  0  0  0  0
   13.4355   11.6348    1.6204 H   0  0  0  0  0  0
   20.0512   14.6311    4.2118 H   0  0  0  0  0  0
   21.0814   15.2369    5.8708 H   0  0  0  0  0  0
   23.0681   16.0376    7.0352 H   0  0  0  0  0  0
   22.9928   19.6849    4.7985 H   0  0  0  0  0  0
   21.0036   18.9013    3.6031 H   0  0  0  0  0  0
  1  6  1  0  0  0
  1  2  2  0  0  0
  1 25  1  0  0  0
  2  3  1  0  0  0
  2 26  1  0  0  0
  3  4  2  0  0  0
  3  8  1  0  0  0
  4  5  1  0  0  0
  4 27  1  0  0  0
  5  6  2  0  0  0
  5  7  1  0  0  0
  6 28  1  0  0  0
  8  9  1  0  0  0
  8 29  1  0  0  0
  8 30  1  0  0  0
  9 10  1  0  0  0
 10 14  1  0  0  0
 10 11  2  0  0  0
 11 12  1  0  0  0
 12 13  2  0  0  0
 13 14  1  0  0  0
 13 15  1  0  0  0
 15 16  1  0  0  0
 15 31  1  0  0  0
 16 17  2  0  0  0
 16 18  1  0  0  0
 18 23  1  0  0  0
 18 19  2  0  0  0
 19 20  1  0  0  0
 19 32  1  0  0  0
 20 21  2  0  0  0
 20 33  1  0  0  0
 21 22  1  0  0  0
 21 24  1  0  0  0
 22 23  2  0  0  0
 22 34  1  0  0  0
 23 35  1  0  0  0
M  END
> <s_m_entry_id>
6618

> <s_m_entry_name>
ligand_docking-pose.129

> <s_m_Source_Path>
/home/csk/Desktop/cluster/DUD-E-result/abl1

> <s_m_Source_File>
ligand_docking-pose.sdf

> <i_m_Source_File_Index>
129

> <i_lp_mmshare_version>
53161

> <r_lp_tautomer_probability>
1

> <s_lp_Force_Field>
OPLS_2005

> <r_lp_Energy>
15.373587

> <b_lp_Chiralities_Consistent>
1

> <s_lp_Variant>
436192-1

> <s_i_glide_gridfile>
glide-grid_2hzi

> <i_i_glide_lignum>
44

> <i_i_glide_rotatable_bonds>
6

> <r_i_docking_score>
-6.8828994635442

> <r_i_glide_ligand_efficiency>
-0.286787477647675

> <r_i_glide_ligand_efficiency_sa>
-0.827238231937473

> <r_i_glide_ligand_efficiency_ln>
-1.64739367730238

> <r_i_glide_gscore>
-6.8828994635442

> <r_i_glide_lipo>
-4.15085412380951

> <r_i_glide_hbond>
0

> <r_i_glide_metal>
0

> <r_i_glide_rewards>
-1.27495373393752

> <r_i_glide_evdw>
-38.9449043273926

> <r_i_glide_ecoul>
-1.71457970142365

> <r_i_glide_erotb>
0.74734056578601

> <r_i_glide_esite>
0

> <r_i_glide_emodel>
-45.3390241751306

> <r_i_glide_energy>
-40.6594840288162

> <r_i_glide_einternal>
7.41417741775513

> <i_i_glide_confnum>
32

> <i_i_glide_posenum>
128

> <r_i_glide_eff_state_penalty>
0

> <i_f3d_flags>
0

> <s_user_duplicate_titles>
436192

> <s_m_subgroup_title>
dock_pv

> <s_m_subgroupid>
dock_pv1

> <b_m_subgroup_collapsed>
0

$$$$
