CHEMBL3474_lig28
                    3D
 Schrodinger Suite 2021-1.
 60 62  0  0  1  0            999 V2000
  -39.9624   62.3955   34.9946 N   0  0  0  0  0  0
  -38.6283   62.6634   33.1776 C   0  0  0  0  0  0
  -40.3033   63.6160   34.4416 C   0  0  0  0  0  0
  -39.5499   63.7592   33.2496 C   0  0  0  0  0  0
  -38.9459   61.8268   34.2386 C   0  0  0  0  0  0
  -37.7654   70.1758   31.5870 P   0  0  0  0  0  0
  -41.2149   64.5898   34.8622 C   0  0  0  0  0  0
  -39.7997   64.8593   32.4222 C   0  0  0  0  0  0
  -37.5535   62.4450   32.1115 C   0  0  0  0  0  0
  -40.7377   65.8238   32.8076 C   0  0  0  0  0  0
  -40.6591   61.8131   36.1521 C   0  0  0  0  0  0
  -41.3905   65.7067   34.0434 C   0  0  0  0  0  0
  -36.6565   63.6610   31.8428 C   0  0  0  0  0  0
  -37.6388   71.3079   32.5390 O   0  0  0  0  0  0
  -36.5386   64.5859   32.6426 O   0  0  0  0  0  0
  -36.4150   69.2978   31.4430 O   0  0  0  0  0  0
  -38.0595   70.6246   30.0610 O   0  0  0  0  0  0
  -36.0148   63.6979   30.6884 N   0  0  0  0  0  0
  -38.3355   60.4815   34.5603 C   0  0  0  0  0  0
  -39.0650   68.9224   31.8908 C   0  0  0  0  0  0
  -42.1241   61.4670   35.8944 C   0  0  0  0  0  0
  -41.0764   66.8982   32.0089 O   0  0  0  0  0  0
  -39.0665   67.7633   30.8735 C   0  0  0  0  0  0
  -42.3096   66.8144   34.5381 C   0  0  0  0  0  0
  -40.4539   67.1051   30.7404 C   0  0  0  0  0  0
  -42.5224   60.8768   34.6892 C   0  0  0  0  0  0
  -43.0756   61.7471   36.8799 C   0  0  0  0  0  0
  -38.9524   59.3705   33.7081 C   0  0  0  0  0  0
  -43.8655   60.5922   34.4649 C   0  0  0  0  0  0
  -44.4193   61.4655   36.6538 C   0  0  0  0  0  0
  -44.8081   60.8979   35.4438 C   0  0  0  0  0  0
  -41.7627   64.4856   35.7879 H   0  0  0  0  0  0
  -39.2572   64.9389   31.4948 H   0  0  0  0  0  0
  -36.8953   61.6174   32.3738 H   0  0  0  0  0  0
  -38.0154   62.1552   31.1679 H   0  0  0  0  0  0
  -40.6027   62.5539   36.9515 H   0  0  0  0  0  0
  -40.1512   60.9252   36.5210 H   0  0  0  0  0  0
  -35.7129   69.8224   30.9663 H   0  0  0  0  0  0
  -38.0604   71.5915   29.9105 H   0  0  0  0  0  0
  -35.5525   64.5829   30.4467 H   0  0  0  0  0  0
  -36.2349   63.0386   29.9569 H   0  0  0  0  0  0
  -37.2632   60.5138   34.3671 H   0  0  0  0  0  0
  -38.4155   60.2171   35.6091 H   0  0  0  0  0  0
  -40.0147   69.4527   31.8738 H   0  0  0  0  0  0
  -38.9590   68.5175   32.8968 H   0  0  0  0  0  0
  -38.3180   67.0248   31.1618 H   0  0  0  0  0  0
  -38.7654   68.1173   29.8860 H   0  0  0  0  0  0
  -43.2089   66.8768   33.9303 H   0  0  0  0  0  0
  -42.6013   66.6782   35.5805 H   0  0  0  0  0  0
  -41.7995   67.7760   34.4685 H   0  0  0  0  0  0
  -40.4174   66.1952   30.1401 H   0  0  0  0  0  0
  -41.1109   67.7792   30.1932 H   0  0  0  0  0  0
  -41.7995   60.6519   33.9191 H   0  0  0  0  0  0
  -42.7802   62.1923   37.8192 H   0  0  0  0  0  0
  -38.4124   58.4363   33.8431 H   0  0  0  0  0  0
  -39.9948   59.2028   33.9774 H   0  0  0  0  0  0
  -38.9180   59.6165   32.6455 H   0  0  0  0  0  0
  -44.1788   60.1438   33.5325 H   0  0  0  0  0  0
  -45.1562   61.6885   37.4114 H   0  0  0  0  0  0
  -45.8509   60.6783   35.2636 H   0  0  0  0  0  0
  1  3  1  0  0  0
  1  5  1  0  0  0
  1 11  1  0  0  0
  2  5  2  0  0  0
  2  9  1  0  0  0
  2  4  1  0  0  0
  3  4  1  0  0  0
  3  7  2  0  0  0
  4  8  2  0  0  0
  5 19  1  0  0  0
  6 20  1  0  0  0
  6 14  2  0  0  0
  6 16  1  0  0  0
  6 17  1  0  0  0
  7 12  1  0  0  0
  7 32  1  0  0  0
  8 10  1  0  0  0
  8 33  1  0  0  0
  9 13  1  0  0  0
  9 34  1  0  0  0
  9 35  1  0  0  0
 10 12  2  0  0  0
 10 22  1  0  0  0
 11 21  1  0  0  0
 11 36  1  0  0  0
 11 37  1  0  0  0
 12 24  1  0  0  0
 13 15  2  0  0  0
 13 18  1  0  0  0
 16 38  1  0  0  0
 17 39  1  0  0  0
 18 40  1  0  0  0
 18 41  1  0  0  0
 19 28  1  0  0  0
 19 42  1  0  0  0
 19 43  1  0  0  0
 20 23  1  0  0  0
 20 44  1  0  0  0
 20 45  1  0  0  0
 21 26  2  0  0  0
 21 27  1  0  0  0
 22 25  1  0  0  0
 23 25  1  0  0  0
 23 46  1  0  0  0
 23 47  1  0  0  0
 24 48  1  0  0  0
 24 49  1  0  0  0
 24 50  1  0  0  0
 25 51  1  0  0  0
 25 52  1  0  0  0
 26 29  1  0  0  0
 26 53  1  0  0  0
 27 30  2  0  0  0
 27 54  1  0  0  0
 28 55  1  0  0  0
 28 56  1  0  0  0
 28 57  1  0  0  0
 29 31  2  0  0  0
 29 58  1  0  0  0
 30 31  1  0  0  0
 30 59  1  0  0  0
 31 60  1  0  0  0
M  END
> <s_m_entry_id>
68066

> <s_m_entry_name>
dock_pv.2

> <s_m_Source_Path>
/home/csk/Desktop/cluster/DUD-E-result/pa2ga

> <s_m_Source_File>
dock_pv.maegz

> <i_m_Source_File_Index>
2

> <chembl_id>
CHEMBL359304

> <chembl_pref_name>
None

> <i_lp_mmshare_version>
53161

> <i_f3d_flags>
0

> <r_lp_tautomer_probability>
1

> <s_lp_Force_Field>
OPLS_2005

> <r_lp_Energy>
-2.246155

> <b_lp_Chiralities_Consistent>
1

> <s_lp_Variant>
CHEMBL3474_lig28-1

> <s_i_glide_gridfile>
glide-grid_1kvo

> <i_i_glide_lignum>
68

> <i_i_glide_rotatable_bonds>
12

> <r_i_docking_score>
-10.4305477584086

> <r_i_glide_ligand_efficiency>
-0.33646928252931

> <r_i_glide_ligand_efficiency_sa>
-1.0569780930517

> <r_i_glide_ligand_efficiency_ln>
-2.35240817742047

> <r_i_glide_gscore>
-10.4305477584086

> <r_i_glide_lipo>
-3.95214858795469

> <r_i_glide_hbond>
-0.850786054923331

> <r_i_glide_metal>
0

> <r_i_glide_rewards>
-0.639973898303586

> <r_i_glide_evdw>
-40.3452186584473

> <r_i_glide_ecoul>
-24.2311153411865

> <r_i_glide_erotb>
0.809946788441016

> <r_i_glide_esite>
-0.145657771567663

> <r_i_glide_emodel>
-108.617861004803

> <r_i_glide_energy>
-64.5763339996338

> <r_i_glide_einternal>
5.58980941772461

> <i_i_glide_confnum>
326

> <i_i_glide_posenum>
179

> <r_i_glide_eff_state_penalty>
0

> <s_user_duplicate_titles>
CHEMBL3474_lig28,247165

> <s_m_subgroup_title>
dock_pv

> <s_m_subgroupid>
dock_pv

> <b_m_subgroup_collapsed>
1

$$$$
CHEMBL3474_lig86
                    3D
 Schrodinger Suite 2021-1.
 58 61  0  0  1  0            999 V2000
  -40.1062   62.6949   34.8354 N   0  0  0  0  0  0
  -39.1498   61.9862   34.1197 C   0  0  0  0  0  0
  -38.6890   62.7660   33.0687 C   0  0  0  0  0  0
  -39.5146   63.9358   33.0594 C   0  0  0  0  0  0
  -40.3713   63.8925   34.1857 C   0  0  0  0  0  0
  -37.6628   70.0640   31.4567 P   0  0  0  0  0  0
  -38.7192   60.5862   34.5199 C   0  0  0  0  0  0
  -39.6313   59.3988   34.3216 C   0  0  0  0  0  0
  -38.4200   59.5766   33.4445 C   0  0  0  0  0  0
  -37.5650   62.4494   32.0841 C   0  0  0  0  0  0
  -40.7696   62.2502   36.0699 C   0  0  0  0  0  0
  -41.2579   64.9392   34.4817 C   0  0  0  0  0  0
  -36.6111   63.6278   31.8229 C   0  0  0  0  0  0
  -39.5880   65.0304   32.1979 C   0  0  0  0  0  0
  -36.8159   68.8984   31.8422 O   0  0  0  0  0  0
  -36.4229   64.5239   32.6427 O   0  0  0  0  0  0
  -37.2141   70.8044   30.0983 O   0  0  0  0  0  0
  -37.6230   71.2812   32.5256 O   0  0  0  0  0  0
  -40.4617   66.0878   32.4741 C   0  0  0  0  0  0
  -36.0184   63.6904   30.6441 N   0  0  0  0  0  0
  -41.2731   66.0299   33.6065 C   0  0  0  0  0  0
  -39.4619   69.8764   31.1263 C   0  0  0  0  0  0
  -42.2255   61.8224   35.9484 C   0  0  0  0  0  0
  -39.7225   68.7930   30.0583 C   0  0  0  0  0  0
  -40.5619   67.2041   31.6721 O   0  0  0  0  0  0
  -39.6184   67.3654   30.6056 C   0  0  0  0  0  0
  -43.0705   61.9833   37.0578 C   0  0  0  0  0  0
  -42.7088   61.2345   34.7756 C   0  0  0  0  0  0
  -44.0231   60.7838   34.7298 C   0  0  0  0  0  0
  -44.3927   61.5528   37.0072 C   0  0  0  0  0  0
  -44.8607   60.9505   35.8416 C   0  0  0  0  0  0
  -38.0789   60.5582   35.4004 H   0  0  0  0  0  0
  -39.6147   58.5893   35.0465 H   0  0  0  0  0  0
  -40.6099   59.5175   33.8607 H   0  0  0  0  0  0
  -38.5849   59.8409   32.4002 H   0  0  0  0  0  0
  -37.5758   58.9091   33.5702 H   0  0  0  0  0  0
  -36.9513   61.6184   32.4335 H   0  0  0  0  0  0
  -38.0033   62.1181   31.1391 H   0  0  0  0  0  0
  -40.6929   63.0699   36.7891 H   0  0  0  0  0  0
  -40.2114   61.4299   36.5178 H   0  0  0  0  0  0
  -41.8875   64.9171   35.3625 H   0  0  0  0  0  0
  -38.9698   65.0208   31.3174 H   0  0  0  0  0  0
  -36.2300   70.8975   30.0263 H   0  0  0  0  0  0
  -38.0074   72.1156   32.1893 H   0  0  0  0  0  0
  -35.5421   64.5755   30.4156 H   0  0  0  0  0  0
  -36.3153   63.0835   29.8915 H   0  0  0  0  0  0
  -41.9319   66.8593   33.8158 H   0  0  0  0  0  0
  -39.8504   70.8354   30.7746 H   0  0  0  0  0  0
  -39.9864   69.6465   32.0533 H   0  0  0  0  0  0
  -39.0329   68.9161   29.2227 H   0  0  0  0  0  0
  -40.7019   68.9157   29.6075 H   0  0  0  0  0  0
  -38.5891   67.1905   30.9325 H   0  0  0  0  0  0
  -39.8557   66.6412   29.8259 H   0  0  0  0  0  0
  -42.7039   62.4292   37.9737 H   0  0  0  0  0  0
  -42.0692   61.1310   33.9055 H   0  0  0  0  0  0
  -44.4098   60.3240   33.8241 H   0  0  0  0  0  0
  -45.0483   61.6780   37.8587 H   0  0  0  0  0  0
  -45.8882   60.6188   35.7809 H   0  0  0  0  0  0
  1  2  1  0  0  0
  1  5  1  0  0  0
  1 11  1  0  0  0
  2  3  2  0  0  0
  2  7  1  0  0  0
  3 10  1  0  0  0
  3  4  1  0  0  0
  4  5  1  0  0  0
  4 14  2  0  0  0
  5 12  2  0  0  0
  6 22  1  0  0  0
  6 15  2  0  0  0
  6 17  1  0  0  0
  6 18  1  0  0  0
  7  8  1  0  0  0
  7  9  1  0  0  0
  7 32  1  0  0  0
  8  9  1  0  0  0
  8 33  1  0  0  0
  8 34  1  0  0  0
  9 35  1  0  0  0
  9 36  1  0  0  0
 10 13  1  0  0  0
 10 37  1  0  0  0
 10 38  1  0  0  0
 11 23  1  0  0  0
 11 39  1  0  0  0
 11 40  1  0  0  0
 12 21  1  0  0  0
 12 41  1  0  0  0
 13 16  2  0  0  0
 13 20  1  0  0  0
 14 19  1  0  0  0
 14 42  1  0  0  0
 17 43  1  0  0  0
 18 44  1  0  0  0
 19 21  2  0  0  0
 19 25  1  0  0  0
 20 45  1  0  0  0
 20 46  1  0  0  0
 21 47  1  0  0  0
 22 24  1  0  0  0
 22 48  1  0  0  0
 22 49  1  0  0  0
 23 27  1  0  0  0
 23 28  2  0  0  0
 24 26  1  0  0  0
 24 50  1  0  0  0
 24 51  1  0  0  0
 25 26  1  0  0  0
 26 52  1  0  0  0
 26 53  1  0  0  0
 27 30  2  0  0  0
 27 54  1  0  0  0
 28 29  1  0  0  0
 28 55  1  0  0  0
 29 31  2  0  0  0
 29 56  1  0  0  0
 30 31  1  0  0  0
 30 57  1  0  0  0
 31 58  1  0  0  0
M  END
> <s_m_entry_id>
68067

> <s_m_entry_name>
dock_pv.3

> <s_m_Source_Path>
/home/csk/Desktop/cluster/DUD-E-result/pa2ga

> <s_m_Source_File>
dock_pv.maegz

> <i_m_Source_File_Index>
3

> <chembl_id>
CHEMBL356306

> <chembl_pref_name>
None

> <i_lp_mmshare_version>
53161

> <i_f3d_flags>
0

> <r_lp_tautomer_probability>
1

> <s_lp_Force_Field>
OPLS_2005

> <r_lp_Energy>
7.055582

> <b_lp_Chiralities_Consistent>
1

> <s_lp_Variant>
CHEMBL3474_lig86-1

> <s_i_glide_gridfile>
glide-grid_1kvo

> <i_i_glide_lignum>
126

> <i_i_glide_rotatable_bonds>
12

> <r_i_docking_score>
-9.98633461850112

> <r_i_glide_ligand_efficiency>
-0.322139826403262

> <r_i_glide_ligand_efficiency_sa>
-1.01196381686957

> <r_i_glide_ligand_efficiency_ln>
-2.25222450087352

> <r_i_glide_gscore>
-9.98633461850112

> <r_i_glide_lipo>
-3.98617624957115

> <r_i_glide_hbond>
-0.597066045324996

> <r_i_glide_metal>
0

> <r_i_glide_rewards>
-0.75827337466186

> <r_i_glide_evdw>
-39.8289070129395

> <r_i_glide_ecoul>
-22.8804607391357

> <r_i_glide_erotb>
0.918743402408959

> <r_i_glide_esite>
-0.140047889834745

> <r_i_glide_emodel>
-104.966205148443

> <r_i_glide_energy>
-62.7093677520752

> <r_i_glide_einternal>
6.63086891174316

> <i_i_glide_confnum>
40

> <i_i_glide_posenum>
11

> <r_i_glide_eff_state_penalty>
0

> <s_user_duplicate_titles>
CHEMBL3474_lig86,246977

> <s_m_subgroup_title>
dock_pv

> <s_m_subgroupid>
dock_pv

> <b_m_subgroup_collapsed>
1

$$$$
CHEMBL3474_lig79
                    3D
 Schrodinger Suite 2021-1.
 57 59  0  0  1  0            999 V2000
  -40.0694   62.6061   34.9339 N   0  0  0  0  0  0
  -38.6479   62.6135   33.1752 C   0  0  0  0  0  0
  -39.0758   61.8899   34.2756 C   0  0  0  0  0  0
  -39.4695   63.7809   33.1084 C   0  0  0  0  0  0
  -40.3229   63.7826   34.2416 C   0  0  0  0  0  0
  -37.9128   69.9274   31.3866 P   0  0  0  0  0  0
  -37.5516   62.2364   32.1893 C   0  0  0  0  0  0
  -40.8191   62.1847   36.1235 C   0  0  0  0  0  0
  -41.2158   64.8389   34.4845 C   0  0  0  0  0  0
  -36.6005   63.3829   31.8235 C   0  0  0  0  0  0
  -39.5412   64.8386   32.1958 C   0  0  0  0  0  0
  -37.2154   68.7402   32.2430 O   0  0  0  0  0  0
  -36.8150   71.1090   31.4430 O   0  0  0  0  0  0
  -39.2612   70.3212   31.8723 O   0  0  0  0  0  0
  -36.4153   64.3571   32.5519 O   0  0  0  0  0  0
  -40.3896   65.9077   32.4512 C   0  0  0  0  0  0
  -36.0145   63.2980   30.6431 N   0  0  0  0  0  0
  -37.6970   69.3079   29.6779 C   0  0  0  0  0  0
  -41.2125   65.9019   33.5763 C   0  0  0  0  0  0
  -38.5701   60.5273   34.7174 C   0  0  0  0  0  0
  -40.4143   67.2926   31.3524 S   0  0  0  0  0  0
  -42.2497   61.7272   35.8601 C   0  0  0  0  0  0
  -38.8149   68.3455   29.2437 C   0  0  0  0  0  0
  -39.0553   67.1190   30.1461 C   0  0  0  0  0  0
  -42.5972   61.0782   34.6688 C   0  0  0  0  0  0
  -43.2169   61.9391   36.8467 C   0  0  0  0  0  0
  -39.0859   59.4087   33.8059 C   0  0  0  0  0  0
  -43.9085   60.6651   34.4605 C   0  0  0  0  0  0
  -44.5288   61.5271   36.6374 C   0  0  0  0  0  0
  -44.8671   60.8977   35.4432 C   0  0  0  0  0  0
  -36.9393   61.4157   32.5618 H   0  0  0  0  0  0
  -38.0147   61.8657   31.2739 H   0  0  0  0  0  0
  -40.8299   63.0369   36.8054 H   0  0  0  0  0  0
  -40.3015   61.3881   36.6491 H   0  0  0  0  0  0
  -41.8730   64.8454   35.3423 H   0  0  0  0  0  0
  -38.9167   64.8210   31.3184 H   0  0  0  0  0  0
  -35.4251   64.0604   30.3283 H   0  0  0  0  0  0
  -36.3102   62.5979   29.9790 H   0  0  0  0  0  0
  -36.7199   68.8350   29.5784 H   0  0  0  0  0  0
  -37.6885   70.1669   29.0059 H   0  0  0  0  0  0
  -41.8729   66.7386   33.7532 H   0  0  0  0  0  0
  -37.4818   60.5297   34.6564 H   0  0  0  0  0  0
  -38.7912   60.2789   35.7525 H   0  0  0  0  0  0
  -38.5784   67.9921   28.2431 H   0  0  0  0  0  0
  -39.7365   68.9191   29.1478 H   0  0  0  0  0  0
  -38.1290   66.8269   30.6419 H   0  0  0  0  0  0
  -39.3323   66.2745   29.5136 H   0  0  0  0  0  0
  -41.8599   60.8952   33.9009 H   0  0  0  0  0  0
  -42.9563   62.4249   37.7762 H   0  0  0  0  0  0
  -38.5045   58.4980   33.9446 H   0  0  0  0  0  0
  -40.1346   59.1892   34.0077 H   0  0  0  0  0  0
  -39.0001   59.6766   32.7518 H   0  0  0  0  0  0
  -44.1845   60.1675   33.5415 H   0  0  0  0  0  0
  -45.2792   61.6934   37.3972 H   0  0  0  0  0  0
  -45.8849   60.5749   35.2766 H   0  0  0  0  0  0
  -35.9262   70.8979   31.0437 H   0  0  0  0  0  0
  -37.8608   68.2650   32.8074 H   0  0  0  0  0  0
  1  3  1  0  0  0
  1  5  1  0  0  0
  1  8  1  0  0  0
  2  3  2  0  0  0
  2  7  1  0  0  0
  2  4  1  0  0  0
  3 20  1  0  0  0
  4  5  1  0  0  0
  4 11  2  0  0  0
  5  9  2  0  0  0
  6 18  1  0  0  0
  6 12  1  0  0  0
  6 13  1  0  0  0
  6 14  2  0  0  0
  7 10  1  0  0  0
  7 31  1  0  0  0
  7 32  1  0  0  0
  8 22  1  0  0  0
  8 33  1  0  0  0
  8 34  1  0  0  0
  9 19  1  0  0  0
  9 35  1  0  0  0
 10 15  2  0  0  0
 10 17  1  0  0  0
 11 16  1  0  0  0
 11 36  1  0  0  0
 12 57  1  0  0  0
 13 56  1  0  0  0
 16 19  2  0  0  0
 16 21  1  0  0  0
 17 37  1  0  0  0
 17 38  1  0  0  0
 18 23  1  0  0  0
 18 39  1  0  0  0
 18 40  1  0  0  0
 19 41  1  0  0  0
 20 27  1  0  0  0
 20 42  1  0  0  0
 20 43  1  0  0  0
 21 24  1  0  0  0
 22 25  1  0  0  0
 22 26  2  0  0  0
 23 24  1  0  0  0
 23 44  1  0  0  0
 23 45  1  0  0  0
 24 46  1  0  0  0
 24 47  1  0  0  0
 25 28  2  0  0  0
 25 48  1  0  0  0
 26 29  1  0  0  0
 26 49  1  0  0  0
 27 50  1  0  0  0
 27 51  1  0  0  0
 27 52  1  0  0  0
 28 30  1  0  0  0
 28 53  1  0  0  0
 29 30  2  0  0  0
 29 54  1  0  0  0
 30 55  1  0  0  0
M  END
> <s_m_entry_id>
68068

> <s_m_entry_name>
dock_pv.4

> <s_m_Source_Path>
/home/csk/Desktop/cluster/DUD-E-result/pa2ga

> <s_m_Source_File>
dock_pv.maegz

> <i_m_Source_File_Index>
4

> <chembl_id>
CHEMBL355966

> <chembl_pref_name>
None

> <i_lp_mmshare_version>
53161

> <i_f3d_flags>
0

> <r_lp_tautomer_probability>
1

> <s_lp_Force_Field>
OPLS_2005

> <r_lp_Energy>
1.100864

> <b_lp_Chiralities_Consistent>
1

> <s_lp_Variant>
CHEMBL3474_lig79-1

> <s_i_glide_gridfile>
glide-grid_1kvo

> <i_i_glide_lignum>
119

> <i_i_glide_rotatable_bonds>
12

> <r_i_docking_score>
-9.79809806956145

> <r_i_glide_ligand_efficiency>
-0.326603268985382

> <r_i_glide_ligand_efficiency_sa>
-1.01483229279162

> <r_i_glide_ligand_efficiency_ln>
-2.22623464023354

> <r_i_glide_gscore>
-9.79809806956145

> <r_i_glide_lipo>
-4.00532950671074

> <r_i_glide_hbond>
-0.414671703503663

> <r_i_glide_metal>
0

> <r_i_glide_rewards>
-0.611864611533893

> <r_i_glide_evdw>
-46.4792137145996

> <r_i_glide_ecoul>
-21.3593502044678

> <r_i_glide_erotb>
0.803236596884942

> <r_i_glide_esite>
-0.0416056282979498

> <r_i_glide_emodel>
-109.114313047863

> <r_i_glide_energy>
-67.8385639190674

> <r_i_glide_einternal>
7.33084964752197

> <i_i_glide_confnum>
388

> <i_i_glide_posenum>
112

> <r_i_glide_eff_state_penalty>
0

> <s_user_duplicate_titles>
CHEMBL3474_lig79,246337

> <s_m_subgroup_title>
dock_pv

> <s_m_subgroupid>
dock_pv

> <b_m_subgroup_collapsed>
1

$$$$
CHEMBL3474_lig80
                    3D
 Schrodinger Suite 2021-1.
 51 53  0  0  1  0            999 V2000
  -39.8421   61.4990   34.8955 N   0  0  0  0  0  0
  -38.3931   61.9602   33.1971 C   0  0  0  0  0  0
  -38.7269   61.0741   34.2063 C   0  0  0  0  0  0
  -39.4070   62.9779   33.2542 C   0  0  0  0  0  0
  -40.2210   62.7368   34.3965 C   0  0  0  0  0  0
  -37.7434   69.0114   30.7983 P   0  0  0  0  0  0
  -37.2442   61.8582   32.1982 C   0  0  0  0  0  0
  -40.5106   60.7515   35.9629 C   0  0  0  0  0  0
  -41.2206   63.6389   34.7900 C   0  0  0  0  0  0
  -36.5460   63.1878   31.8506 C   0  0  0  0  0  0
  -39.6920   64.0859   32.4504 C   0  0  0  0  0  0
  -37.7852   70.0663   31.8435 O   0  0  0  0  0  0
  -36.4879   64.1265   32.6424 O   0  0  0  0  0  0
  -37.2150   67.5812   31.3377 O   0  0  0  0  0  0
  -36.7164   69.2982   29.5902 O   0  0  0  0  0  0
  -40.6951   64.9877   32.8247 C   0  0  0  0  0  0
  -36.0150   63.2984   30.6430 N   0  0  0  0  0  0
  -41.4217   64.7613   33.9888 C   0  0  0  0  0  0
  -39.2553   68.5845   29.8490 C   0  0  0  0  0  0
  -42.0280   60.7267   35.8044 C   0  0  0  0  0  0
  -40.3613   67.9732   30.7245 C   0  0  0  0  0  0
  -41.0158   66.1180   32.1010 O   0  0  0  0  0  0
  -40.1782   66.4827   31.0096 C   0  0  0  0  0  0
  -42.8419   61.2980   36.7878 C   0  0  0  0  0  0
  -42.6004   60.2091   34.6400 C   0  0  0  0  0  0
  -43.9749   60.2884   34.4537 C   0  0  0  0  0  0
  -44.2202   61.3525   36.6135 C   0  0  0  0  0  0
  -44.7801   60.8523   35.4430 C   0  0  0  0  0  0
  -38.2590   60.1405   34.4810 H   0  0  0  0  0  0
  -36.4813   61.1686   32.5576 H   0  0  0  0  0  0
  -37.6230   61.4226   31.2723 H   0  0  0  0  0  0
  -40.2278   61.1862   36.9197 H   0  0  0  0  0  0
  -40.1476   59.7212   35.9516 H   0  0  0  0  0  0
  -41.8325   63.4776   35.6634 H   0  0  0  0  0  0
  -39.1163   64.2240   31.5504 H   0  0  0  0  0  0
  -37.0964   66.9165   30.6238 H   0  0  0  0  0  0
  -35.9343   69.8595   29.8430 H   0  0  0  0  0  0
  -35.5700   64.1712   30.3717 H   0  0  0  0  0  0
  -36.2105   62.6044   29.9372 H   0  0  0  0  0  0
  -42.1909   65.4681   34.2633 H   0  0  0  0  0  0
  -38.9796   67.9078   29.0405 H   0  0  0  0  0  0
  -39.6124   69.5027   29.3817 H   0  0  0  0  0  0
  -41.3188   68.0961   30.2244 H   0  0  0  0  0  0
  -40.4153   68.5185   31.6681 H   0  0  0  0  0  0
  -39.1369   66.3071   31.2574 H   0  0  0  0  0  0
  -40.4125   65.8808   30.1303 H   0  0  0  0  0  0
  -42.4076   61.7162   37.6845 H   0  0  0  0  0  0
  -41.9784   59.7809   33.8669 H   0  0  0  0  0  0
  -44.4147   59.9071   33.5436 H   0  0  0  0  0  0
  -44.8486   61.7920   37.3739 H   0  0  0  0  0  0
  -45.8495   60.8983   35.2954 H   0  0  0  0  0  0
  1  3  1  0  0  0
  1  5  1  0  0  0
  1  8  1  0  0  0
  2  3  2  0  0  0
  2  7  1  0  0  0
  2  4  1  0  0  0
  3 29  1  0  0  0
  4  5  1  0  0  0
  4 11  2  0  0  0
  5  9  2  0  0  0
  6 19  1  0  0  0
  6 12  2  0  0  0
  6 14  1  0  0  0
  6 15  1  0  0  0
  7 10  1  0  0  0
  7 30  1  0  0  0
  7 31  1  0  0  0
  8 20  1  0  0  0
  8 32  1  0  0  0
  8 33  1  0  0  0
  9 18  1  0  0  0
  9 34  1  0  0  0
 10 13  2  0  0  0
 10 17  1  0  0  0
 11 16  1  0  0  0
 11 35  1  0  0  0
 14 36  1  0  0  0
 15 37  1  0  0  0
 16 18  2  0  0  0
 16 22  1  0  0  0
 17 38  1  0  0  0
 17 39  1  0  0  0
 18 40  1  0  0  0
 19 21  1  0  0  0
 19 41  1  0  0  0
 19 42  1  0  0  0
 20 24  2  0  0  0
 20 25  1  0  0  0
 21 23  1  0  0  0
 21 43  1  0  0  0
 21 44  1  0  0  0
 22 23  1  0  0  0
 23 45  1  0  0  0
 23 46  1  0  0  0
 24 27  1  0  0  0
 24 47  1  0  0  0
 25 26  2  0  0  0
 25 48  1  0  0  0
 26 28  1  0  0  0
 26 49  1  0  0  0
 27 28  2  0  0  0
 27 50  1  0  0  0
 28 51  1  0  0  0
M  END
> <s_m_entry_id>
68069

> <s_m_entry_name>
dock_pv.5

> <s_m_Source_Path>
/home/csk/Desktop/cluster/DUD-E-result/pa2ga

> <s_m_Source_File>
dock_pv.maegz

> <i_m_Source_File_Index>
5

> <chembl_id>
CHEMBL148924

> <chembl_pref_name>
None

> <i_lp_mmshare_version>
53161

> <i_f3d_flags>
0

> <r_lp_tautomer_probability>
1

> <s_lp_Force_Field>
OPLS_2005

> <r_lp_Energy>
-0.816181

> <b_lp_Chiralities_Consistent>
1

> <s_lp_Variant>
CHEMBL3474_lig80-1

> <s_i_glide_gridfile>
glide-grid_1kvo

> <i_i_glide_lignum>
120

> <i_i_glide_rotatable_bonds>
11

> <r_i_docking_score>
-9.66297064516706

> <r_i_glide_ligand_efficiency>
-0.345106094470252

> <r_i_glide_ligand_efficiency_sa>
-1.04794535943146

> <r_i_glide_ligand_efficiency_ln>
-2.23049734205098

> <r_i_glide_gscore>
-9.66297064516706

> <r_i_glide_lipo>
-3.92169715453443

> <r_i_glide_hbond>
-0.427737600990918

> <r_i_glide_metal>
0

> <r_i_glide_rewards>
-1.20775345842143

> <r_i_glide_evdw>
-38.745304107666

> <r_i_glide_ecoul>
-20.5830783843994

> <r_i_glide_erotb>
0.969584864275882

> <r_i_glide_esite>
-0.05064033245296

> <r_i_glide_emodel>
-99.3281200476692

> <r_i_glide_energy>
-59.3283824920654

> <r_i_glide_einternal>
5.62520408630371

> <i_i_glide_confnum>
9

> <i_i_glide_posenum>
359

> <r_i_glide_eff_state_penalty>
0

> <s_user_duplicate_titles>
CHEMBL3474_lig80,247082

> <s_m_subgroup_title>
dock_pv

> <s_m_subgroupid>
dock_pv

> <b_m_subgroup_collapsed>
1

$$$$
CHEMBL3474_lig18
                    3D
 Schrodinger Suite 2021-1.
 56 59  0  0  1  0            999 V2000
  -40.0451   62.5676   34.8906 N   0  0  0  0  0  0
  -38.6687   62.7049   33.0989 C   0  0  0  0  0  0
  -39.0873   61.8947   34.1462 C   0  0  0  0  0  0
  -39.5177   63.8632   33.1245 C   0  0  0  0  0  0
  -40.3327   63.7805   34.2835 C   0  0  0  0  0  0
  -39.0440   70.0965   28.8977 N   0  0  0  0  0  0
  -38.4886   70.8910   27.8901 N   0  0  2  0  0  0
  -37.3801   71.5941   28.4184 N   0  0  2  0  0  0
  -38.2471   70.0760   29.8859 C   0  0  0  0  0  0
  -37.2151   71.0205   29.7027 N   0  0  0  0  0  0
  -37.5659   62.4236   32.0838 C   0  0  0  0  0  0
  -40.7300   62.0565   36.0833 C   0  0  0  0  0  0
  -41.2283   64.8022   34.6274 C   0  0  0  0  0  0
  -36.6113   63.6016   31.8241 C   0  0  0  0  0  0
  -39.6473   64.9767   32.2826 C   0  0  0  0  0  0
  -36.4184   64.4984   32.6428 O   0  0  0  0  0  0
  -40.5278   66.0125   32.6177 C   0  0  0  0  0  0
  -36.0151   63.6299   30.6431 N   0  0  0  0  0  0
  -41.2882   65.9106   33.7809 C   0  0  0  0  0  0
  -38.6294   60.4997   34.5231 C   0  0  0  0  0  0
  -42.1728   61.6254   35.8479 C   0  0  0  0  0  0
  -38.2989   69.1899   31.1243 C   0  0  0  0  0  0
  -40.7032   67.1542   31.8545 O   0  0  0  0  0  0
  -40.0116   67.2974   30.6110 C   0  0  0  0  0  0
  -43.1484   61.9680   36.7883 C   0  0  0  0  0  0
  -42.5234   60.8842   34.7136 C   0  0  0  0  0  0
  -38.5284   67.6946   30.7961 C   0  0  0  0  0  0
  -44.4735   61.5958   36.5859 C   0  0  0  0  0  0
  -43.8475   60.5106   34.5115 C   0  0  0  0  0  0
  -44.8159   60.8756   35.4449 C   0  0  0  0  0  0
  -39.1766   71.5497   27.5436 H   0  0  0  0  0  0
  -37.7221   72.5227   28.6253 H   0  0  0  0  0  0
  -36.2173   70.8965   29.9101 H   0  0  0  0  0  0
  -36.9499   61.5802   32.3946 H   0  0  0  0  0  0
  -38.0147   62.1274   31.1344 H   0  0  0  0  0  0
  -40.7015   62.8550   36.8264 H   0  0  0  0  0  0
  -40.1734   61.2234   36.5140 H   0  0  0  0  0  0
  -41.8513   64.7433   35.5080 H   0  0  0  0  0  0
  -39.0456   65.0198   31.3903 H   0  0  0  0  0  0
  -35.4355   64.4268   30.3895 H   0  0  0  0  0  0
  -36.3130   62.9975   29.9147 H   0  0  0  0  0  0
  -41.9683   66.7141   34.0260 H   0  0  0  0  0  0
  -38.0009   60.0473   33.7562 H   0  0  0  0  0  0
  -38.0497   60.5035   35.4425 H   0  0  0  0  0  0
  -39.4680   59.8190   34.6720 H   0  0  0  0  0  0
  -39.0682   69.5509   31.8070 H   0  0  0  0  0  0
  -37.3584   69.2957   31.6642 H   0  0  0  0  0  0
  -40.1022   66.3881   30.0146 H   0  0  0  0  0  0
  -40.5336   68.0618   30.0370 H   0  0  0  0  0  0
  -42.8879   62.5303   37.6729 H   0  0  0  0  0  0
  -41.7766   60.6038   33.9844 H   0  0  0  0  0  0
  -38.0811   67.0919   31.5857 H   0  0  0  0  0  0
  -37.9732   67.4182   29.8964 H   0  0  0  0  0  0
  -45.2321   61.8659   37.3062 H   0  0  0  0  0  0
  -44.1271   59.9487   33.6313 H   0  0  0  0  0  0
  -45.8454   60.5901   35.2801 H   0  0  0  0  0  0
  1  3  1  0  0  0
  1  5  1  0  0  0
  1 12  1  0  0  0
  2  3  2  0  0  0
  2 11  1  0  0  0
  2  4  1  0  0  0
  3 20  1  0  0  0
  4  5  1  0  0  0
  4 15  2  0  0  0
  5 13  2  0  0  0
  6  9  2  0  0  0
  6  7  1  0  0  0
  7  8  1  0  0  0
  7 31  1  0  0  0
  8 10  1  0  0  0
  8 32  1  0  0  0
  9 22  1  0  0  0
  9 10  1  0  0  0
 10 33  1  0  0  0
 11 14  1  0  0  0
 11 34  1  0  0  0
 11 35  1  0  0  0
 12 21  1  0  0  0
 12 36  1  0  0  0
 12 37  1  0  0  0
 13 19  1  0  0  0
 13 38  1  0  0  0
 14 16  2  0  0  0
 14 18  1  0  0  0
 15 17  1  0  0  0
 15 39  1  0  0  0
 17 19  2  0  0  0
 17 23  1  0  0  0
 18 40  1  0  0  0
 18 41  1  0  0  0
 19 42  1  0  0  0
 20 43  1  0  0  0
 20 44  1  0  0  0
 20 45  1  0  0  0
 21 25  1  0  0  0
 21 26  2  0  0  0
 22 27  1  0  0  0
 22 46  1  0  0  0
 22 47  1  0  0  0
 23 24  1  0  0  0
 24 27  1  0  0  0
 24 48  1  0  0  0
 24 49  1  0  0  0
 25 28  2  0  0  0
 25 50  1  0  0  0
 26 29  1  0  0  0
 26 51  1  0  0  0
 27 52  1  0  0  0
 27 53  1  0  0  0
 28 30  1  0  0  0
 28 54  1  0  0  0
 29 30  2  0  0  0
 29 55  1  0  0  0
 30 56  1  0  0  0
M  END
> <s_m_entry_id>
68070

> <s_m_entry_name>
dock_pv.6

> <s_m_Source_Path>
/home/csk/Desktop/cluster/DUD-E-result/pa2ga

> <s_m_Source_File>
dock_pv.maegz

> <i_m_Source_File_Index>
6

> <chembl_id>
CHEMBL150373

> <chembl_pref_name>
None

> <i_lp_mmshare_version>
53161

> <i_f3d_flags>
0

> <r_lp_tautomer_probability>
1

> <s_lp_Force_Field>
OPLS_2005

> <r_lp_Energy>
28.29989

> <b_lp_Chiralities_Consistent>
1

> <s_lp_Variant>
CHEMBL3474_lig18-1

> <s_i_glide_gridfile>
glide-grid_1kvo

> <i_i_glide_lignum>
57

> <i_i_glide_rotatable_bonds>
9

> <r_i_docking_score>
-9.53843191694936

> <r_i_glide_ligand_efficiency>
-0.317947730564979

> <r_i_glide_ligand_efficiency_sa>
-0.987937522485704

> <r_i_glide_ligand_efficiency_ln>
-2.16723566107073

> <r_i_glide_gscore>
-9.53843191694936

> <r_i_glide_lipo>
-3.38045436674632

> <r_i_glide_hbond>
-0.941755203289814

> <r_i_glide_metal>
0

> <r_i_glide_rewards>
-0.924247596089803

> <r_i_glide_evdw>
-42.6602210998535

> <r_i_glide_ecoul>
-18.9651050567627

> <r_i_glide_erotb>
0.833030733150213

> <r_i_glide_esite>
-0.147228670466553

> <r_i_glide_emodel>
-97.6941178509141

> <r_i_glide_energy>
-61.6253261566162

> <r_i_glide_einternal>
4.14644718170166

> <i_i_glide_confnum>
1

> <i_i_glide_posenum>
241

> <r_i_glide_eff_state_penalty>
0

> <s_user_duplicate_titles>
CHEMBL3474_lig18

> <s_m_subgroup_title>
dock_pv

> <s_m_subgroupid>
dock_pv

> <b_m_subgroup_collapsed>
1

$$$$
CHEMBL3474_lig68
                    3D
 Schrodinger Suite 2021-1.
 51 53  0  0  1  0            999 V2000
  -40.1192   62.2509   34.9362 N   0  0  0  0  0  0
  -39.2869   61.5898   34.0470 C   0  0  0  0  0  0
  -38.8957   62.4486   33.0429 C   0  0  0  0  0  0
  -39.7105   63.6085   33.1977 C   0  0  0  0  0  0
  -40.3870   63.5201   34.4383 C   0  0  0  0  0  0
  -37.6151   69.2871   30.6456 P   0  0  0  0  0  0
  -37.8769   62.2333   31.9334 C   0  0  0  0  0  0
  -40.7279   61.6768   36.1366 C   0  0  0  0  0  0
  -41.1601   64.5877   34.9197 C   0  0  0  0  0  0
  -36.8143   63.3409   31.8298 C   0  0  0  0  0  0
  -39.8936   64.7321   32.3953 C   0  0  0  0  0  0
  -36.8150   70.1977   29.5748 O   0  0  0  0  0  0
  -38.9319   70.1766   30.9540 O   0  0  0  0  0  0
  -36.8149   68.8981   31.8421 O   0  0  0  0  0  0
  -38.8150   59.7547   34.2457 Br  0  0  0  0  0  0
  -36.7221   64.2576   32.6429 O   0  0  0  0  0  0
  -40.6120   65.8290   32.8726 C   0  0  0  0  0  0
  -36.0151   63.2980   30.7760 N   0  0  0  0  0  0
  -38.2654   67.9707   29.5628 C   0  0  0  0  0  0
  -41.2209   65.7408   34.1263 C   0  0  0  0  0  0
  -42.2118   61.3790   35.9740 C   0  0  0  0  0  0
  -38.9497   66.8567   30.3684 C   0  0  0  0  0  0
  -40.7456   67.0185   32.1758 O   0  0  0  0  0  0
  -40.4260   67.1057   30.7784 C   0  0  0  0  0  0
  -43.1100   61.7650   36.9732 C   0  0  0  0  0  0
  -42.6752   60.7287   34.8255 C   0  0  0  0  0  0
  -44.0347   60.4984   34.6637 C   0  0  0  0  0  0
  -44.4708   61.5224   36.8149 C   0  0  0  0  0  0
  -44.9265   60.8981   35.6570 C   0  0  0  0  0  0
  -37.3648   61.2774   32.0455 H   0  0  0  0  0  0
  -38.3881   62.2042   30.9724 H   0  0  0  0  0  0
  -40.5772   62.3927   36.9449 H   0  0  0  0  0  0
  -40.2013   60.7669   36.4261 H   0  0  0  0  0  0
  -41.6776   64.5361   35.8671 H   0  0  0  0  0  0
  -39.4229   64.7215   31.4328 H   0  0  0  0  0  0
  -35.3555   64.0502   30.6201 H   0  0  0  0  0  0
  -36.2014   62.6429   30.0319 H   0  0  0  0  0  0
  -37.4090   67.5458   29.0431 H   0  0  0  0  0  0
  -38.9125   68.3963   28.7977 H   0  0  0  0  0  0
  -41.7855   66.5893   34.4850 H   0  0  0  0  0  0
  -38.3390   66.6340   31.2445 H   0  0  0  0  0  0
  -38.9178   65.9579   29.7490 H   0  0  0  0  0  0
  -41.0770   66.4146   30.2432 H   0  0  0  0  0  0
  -40.7365   68.0961   30.4473 H   0  0  0  0  0  0
  -42.7600   62.2584   37.8687 H   0  0  0  0  0  0
  -41.9889   60.4166   34.0511 H   0  0  0  0  0  0
  -44.4023   60.0144   33.7703 H   0  0  0  0  0  0
  -45.1693   61.8222   37.5827 H   0  0  0  0  0  0
  -45.9835   60.7144   35.5271 H   0  0  0  0  0  0
  -38.7579   71.1335   31.0318 H   0  0  0  0  0  0
  -35.8709   70.3823   29.8430 H   0  0  0  0  0  0
  1  2  1  0  0  0
  1  5  1  0  0  0
  1  8  1  0  0  0
  2  3  2  0  0  0
  2 15  1  0  0  0
  3  7  1  0  0  0
  3  4  1  0  0  0
  4  5  1  0  0  0
  4 11  2  0  0  0
  5  9  2  0  0  0
  6 19  1  0  0  0
  6 12  1  0  0  0
  6 13  1  0  0  0
  6 14  2  0  0  0
  7 10  1  0  0  0
  7 30  1  0  0  0
  7 31  1  0  0  0
  8 21  1  0  0  0
  8 32  1  0  0  0
  8 33  1  0  0  0
  9 20  1  0  0  0
  9 34  1  0  0  0
 10 16  2  0  0  0
 10 18  1  0  0  0
 11 17  1  0  0  0
 11 35  1  0  0  0
 12 51  1  0  0  0
 13 50  1  0  0  0
 17 20  2  0  0  0
 17 23  1  0  0  0
 18 36  1  0  0  0
 18 37  1  0  0  0
 19 22  1  0  0  0
 19 38  1  0  0  0
 19 39  1  0  0  0
 20 40  1  0  0  0
 21 25  1  0  0  0
 21 26  2  0  0  0
 22 24  1  0  0  0
 22 41  1  0  0  0
 22 42  1  0  0  0
 23 24  1  0  0  0
 24 43  1  0  0  0
 24 44  1  0  0  0
 25 28  2  0  0  0
 25 45  1  0  0  0
 26 27  1  0  0  0
 26 46  1  0  0  0
 27 29  2  0  0  0
 27 47  1  0  0  0
 28 29  1  0  0  0
 28 48  1  0  0  0
 29 49  1  0  0  0
M  END
> <s_m_entry_id>
68071

> <s_m_entry_name>
dock_pv.7

> <s_m_Source_Path>
/home/csk/Desktop/cluster/DUD-E-result/pa2ga

> <s_m_Source_File>
dock_pv.maegz

> <i_m_Source_File_Index>
7

> <chembl_id>
CHEMBL358567

> <chembl_pref_name>
None

> <i_lp_mmshare_version>
53161

> <i_f3d_flags>
0

> <r_lp_tautomer_probability>
1

> <s_lp_Force_Field>
OPLS_2005

> <r_lp_Energy>
-0.401868

> <b_lp_Chiralities_Consistent>
1

> <s_lp_Variant>
CHEMBL3474_lig68-1

> <s_i_glide_gridfile>
glide-grid_1kvo

> <i_i_glide_lignum>
108

> <i_i_glide_rotatable_bonds>
11

> <r_i_docking_score>
-9.43762606894202

> <r_i_glide_ligand_efficiency>
-0.325435381687656

> <r_i_glide_ligand_efficiency_sa>
-0.999840597710228

> <r_i_glide_ligand_efficiency_ln>
-2.1609770522395

> <r_i_glide_gscore>
-9.43762606894202

> <r_i_glide_lipo>
-3.73360985068482

> <r_i_glide_hbond>
-0.382766364953715

> <r_i_glide_metal>
0

> <r_i_glide_rewards>
-0.394318135828749

> <r_i_glide_evdw>
-39.9224662780762

> <r_i_glide_ecoul>
-23.9377346038818

> <r_i_glide_erotb>
0.700612834252334

> <r_i_glide_esite>
-0.040761047240988

> <r_i_glide_emodel>
-101.679024260121

> <r_i_glide_energy>
-63.860200881958

> <r_i_glide_einternal>
9.27570247650146

> <i_i_glide_confnum>
25

> <i_i_glide_posenum>
28

> <r_i_glide_eff_state_penalty>
0

> <s_user_duplicate_titles>
CHEMBL3474_lig68,CHEMBL3474_lig15,246590

> <s_m_subgroup_title>
dock_pv

> <s_m_subgroupid>
dock_pv

> <b_m_subgroup_collapsed>
1

$$$$
CHEMBL3474_lig361 
                    3D
 Schrodinger Suite 2021-1.
 54 56  0  0  1  0            999 V2000
  -37.1777   61.4964   32.7159 C   0  0  0  0  0  0
  -37.9397   60.5771   33.4235 C   0  0  0  0  0  0
  -39.1416   60.9645   34.0002 C   0  0  0  0  0  0
  -39.5851   62.2780   33.8156 C   0  0  0  0  0  0
  -38.8391   63.2376   33.1077 C   0  0  0  0  0  0
  -37.5927   62.8272   32.5533 C   0  0  0  0  0  0
  -36.6436   63.7644   31.8427 C   0  0  0  0  0  0
  -36.0150   63.2980   30.7698 N   0  0  0  0  0  0
  -36.4156   64.8980   32.2439 O   0  0  0  0  0  0
  -39.9326   59.9467   34.8204 C   0  0  0  0  0  0
  -41.4310   60.1935   34.9067 C   0  0  0  0  0  0
  -41.9848   60.7471   36.0638 C   0  0  0  0  0  0
  -43.3552   60.9804   36.1331 C   0  0  0  0  0  0
  -44.1624   60.6598   35.0442 C   0  0  0  0  0  0
  -43.6151   60.1009   33.8914 C   0  0  0  0  0  0
  -42.2482   59.8606   33.8256 C   0  0  0  0  0  0
  -39.4124   64.6301   33.0303 C   0  0  0  0  0  0
  -40.0150   65.1988   34.1658 C   0  0  0  0  0  0
  -40.5046   66.5005   34.1563 C   0  0  0  0  0  0
  -40.4282   67.2575   32.9944 C   0  0  0  0  0  0
  -39.8921   66.7095   31.8276 C   0  0  0  0  0  0
  -39.3986   65.3961   31.8508 C   0  0  0  0  0  0
  -39.9095   67.5184   30.5302 C   0  0  0  0  0  0
  -39.3367   68.9745   30.5922 C   0  0  1  0  0  0
  -37.8161   69.0168   30.8970 C   0  0  0  0  0  0
  -37.2149   68.0981   31.4432 O   0  0  0  0  0  0
  -37.2150   70.1851   30.5391 O   0  0  0  0  0  0
  -39.7712   69.7811   29.3290 C   0  0  0  0  0  0
  -39.8425   71.3108   29.5010 C   0  0  0  0  0  0
  -36.2276   61.1675   32.3203 H   0  0  0  0  0  0
  -37.5813   59.5650   33.5363 H   0  0  0  0  0  0
  -40.5321   62.5662   34.2476 H   0  0  0  0  0  0
  -35.4057   63.9347   30.2691 H   0  0  0  0  0  0
  -36.3452   62.4590   30.3177 H   0  0  0  0  0  0
  -39.7754   58.9475   34.4107 H   0  0  0  0  0  0
  -39.5087   59.9219   35.8259 H   0  0  0  0  0  0
  -41.3549   61.0026   36.9036 H   0  0  0  0  0  0
  -43.7895   61.4100   37.0240 H   0  0  0  0  0  0
  -45.2266   60.8398   35.0931 H   0  0  0  0  0  0
  -44.2498   59.8481   33.0549 H   0  0  0  0  0  0
  -41.8234   59.4319   32.9290 H   0  0  0  0  0  0
  -40.0670   64.6422   35.0905 H   0  0  0  0  0  0
  -40.9401   66.9222   35.0504 H   0  0  0  0  0  0
  -40.8186   68.2629   33.0030 H   0  0  0  0  0  0
  -38.9943   64.9698   30.9436 H   0  0  0  0  0  0
  -40.9611   67.5496   30.2428 H   0  0  0  0  0  0
  -39.3998   66.9584   29.7429 H   0  0  0  0  0  0
  -39.8046   69.4733   31.4389 H   0  0  0  0  0  0
  -36.2458   70.1800   30.6429 H   0  0  0  0  0  0
  -40.7773   69.4769   29.0425 H   0  0  0  0  0  0
  -39.1423   69.5269   28.4738 H   0  0  0  0  0  0
  -40.3337   71.7710   28.6430 H   0  0  0  0  0  0
  -38.8583   71.7718   29.5774 H   0  0  0  0  0  0
  -40.4123   71.5908   30.3870 H   0  0  0  0  0  0
  1  2  2  0  0  0
  1  6  1  0  0  0
  1 30  1  0  0  0
  2  3  1  0  0  0
  2 31  1  0  0  0
  3  4  2  0  0  0
  3 10  1  0  0  0
  4  5  1  0  0  0
  4 32  1  0  0  0
  5  6  2  0  0  0
  5 17  1  0  0  0
  6  7  1  0  0  0
  7  8  1  0  0  0
  7  9  2  0  0  0
  8 33  1  0  0  0
  8 34  1  0  0  0
 10 11  1  0  0  0
 10 35  1  0  0  0
 10 36  1  0  0  0
 11 12  2  0  0  0
 11 16  1  0  0  0
 12 13  1  0  0  0
 12 37  1  0  0  0
 13 14  2  0  0  0
 13 38  1  0  0  0
 14 15  1  0  0  0
 14 39  1  0  0  0
 15 16  2  0  0  0
 15 40  1  0  0  0
 16 41  1  0  0  0
 17 18  2  0  0  0
 17 22  1  0  0  0
 18 19  1  0  0  0
 18 42  1  0  0  0
 19 20  2  0  0  0
 19 43  1  0  0  0
 20 21  1  0  0  0
 20 44  1  0  0  0
 21 22  2  0  0  0
 21 23  1  0  0  0
 22 45  1  0  0  0
 23 24  1  0  0  0
 23 46  1  0  0  0
 23 47  1  0  0  0
 24 25  1  0  0  0
 24 28  1  0  0  0
 24 48  1  0  0  0
 25 26  2  0  0  0
 25 27  1  0  0  0
 27 49  1  0  0  0
 28 29  1  0  0  0
 28 50  1  0  0  0
 28 51  1  0  0  0
 29 52  1  0  0  0
 29 53  1  0  0  0
 29 54  1  0  0  0
M  END
> <s_m_entry_id>
68073

> <s_m_entry_name>
dock_pv.9

> <s_m_Source_Path>
/home/csk/Desktop/cluster/DUD-E-result/pa2ga

> <s_m_Source_File>
dock_pv.maegz

> <i_m_Source_File_Index>
9

> <chembl_id>
CHEMBL4533403

> <chembl_pref_name>
None

> <i_lp_mmshare_version>
53161

> <i_f3d_flags>
0

> <r_lp_tautomer_probability>
1

> <s_lp_Force_Field>
OPLS_2005

> <r_lp_Energy>
25.453295

> <b_lp_Chiralities_Consistent>
1

> <s_lp_Variant>
CHEMBL3474_lig361 -2

> <s_i_glide_gridfile>
glide-grid_1kvo

> <i_i_glide_lignum>
458

> <i_i_glide_rotatable_bonds>
9

> <r_i_docking_score>
-9.41515774478565

> <r_i_glide_ligand_efficiency>
-0.32466061188916

> <r_i_glide_ligand_efficiency_sa>
-0.997460259424949

> <r_i_glide_ligand_efficiency_ln>
-2.15583237575523

> <r_i_glide_gscore>
-9.41515774478565

> <r_i_glide_lipo>
-4.33254007199147

> <r_i_glide_hbond>
-0.243746534286625

> <r_i_glide_metal>
0

> <r_i_glide_rewards>
-0.92737441040024

> <r_i_glide_evdw>
-49.9034614562988

> <r_i_glide_ecoul>
-13.8470668792725

> <r_i_glide_erotb>
0.778268670342949

> <r_i_glide_esite>
-0.117532293744448

> <r_i_glide_emodel>
-102.003573239586

> <r_i_glide_energy>
-63.7505283355713

> <r_i_glide_einternal>
5.36701917648315

> <i_i_glide_confnum>
10

> <i_i_glide_posenum>
150

> <r_i_glide_eff_state_penalty>
0

> <s_user_duplicate_titles>
CHEMBL3474_lig361 

> <s_m_subgroup_title>
dock_pv

> <s_m_subgroupid>
dock_pv

> <b_m_subgroup_collapsed>
1

$$$$
CHEMBL3474_lig25
                    3D
 Schrodinger Suite 2021-1.
 49 51  0  0  1  0            999 V2000
  -39.9868   62.1959   34.8767 N   0  0  0  0  0  0
  -39.0219   61.6575   34.0479 C   0  0  0  0  0  0
  -38.6248   62.5740   33.0969 C   0  0  0  0  0  0
  -40.3158   63.4571   34.4069 C   0  0  0  0  0  0
  -39.5033   63.6971   33.2636 C   0  0  0  0  0  0
  -41.2542   64.3963   34.8561 C   0  0  0  0  0  0
  -39.6763   64.8909   32.5538 C   0  0  0  0  0  0
  -41.3858   65.5760   34.1229 C   0  0  0  0  0  0
  -37.5442   62.3906   32.0347 C   0  0  0  0  0  0
  -40.6194   65.8280   32.9822 C   0  0  0  0  0  0
  -40.6299   61.5294   36.0125 C   0  0  0  0  0  0
  -36.6360   63.6086   31.8077 C   0  0  0  0  0  0
  -37.5775   69.4255   31.2424 C   0  0  0  0  0  0
  -38.4166   59.8670   34.2406 Br  0  0  0  0  0  0
  -36.5016   64.4996   32.6400 O   0  0  0  0  0  0
  -36.8152   69.2535   32.1946 O   0  0  0  0  0  0
  -36.0152   63.6980   30.6434 N   0  0  0  0  0  0
  -42.5479   66.7414   34.6492 Cl  0  0  0  0  0  0
  -42.1191   61.2797   35.8152 C   0  0  0  0  0  0
  -37.2148   69.9210   30.0311 O   0  0  0  0  0  0
  -40.8151   67.0199   32.3193 O   0  0  0  0  0  0
  -39.0515   69.0494   31.2593 C   0  0  0  0  0  0
  -40.6609   67.0694   30.9023 C   0  0  0  0  0  0
  -43.0207   61.6654   36.8112 C   0  0  0  0  0  0
  -42.5851   60.6803   34.6403 C   0  0  0  0  0  0
  -39.2980   67.6928   30.5580 C   0  0  0  0  0  0
  -44.3854   61.4732   36.6269 C   0  0  0  0  0  0
  -43.9504   60.4975   34.4526 C   0  0  0  0  0  0
  -44.8422   60.8976   35.4453 C   0  0  0  0  0  0
  -41.8716   64.2165   35.7237 H   0  0  0  0  0  0
  -39.0758   65.0712   31.6787 H   0  0  0  0  0  0
  -36.8952   61.5497   32.2810 H   0  0  0  0  0  0
  -38.0148   62.1335   31.0860 H   0  0  0  0  0  0
  -40.4711   62.1674   36.8820 H   0  0  0  0  0  0
  -40.1339   60.5840   36.2333 H   0  0  0  0  0  0
  -35.5520   64.5900   30.4292 H   0  0  0  0  0  0
  -36.2520   63.0740   29.8857 H   0  0  0  0  0  0
  -36.2562   70.0981   30.0213 H   0  0  0  0  0  0
  -39.6381   69.8460   30.8010 H   0  0  0  0  0  0
  -39.3522   69.0070   32.3071 H   0  0  0  0  0  0
  -40.7879   66.0959   30.4241 H   0  0  0  0  0  0
  -41.4568   67.6979   30.5034 H   0  0  0  0  0  0
  -42.6703   62.1217   37.7261 H   0  0  0  0  0  0
  -41.8940   60.3706   33.8693 H   0  0  0  0  0  0
  -38.5138   66.9840   30.8254 H   0  0  0  0  0  0
  -39.2168   67.8147   29.4768 H   0  0  0  0  0  0
  -45.0857   61.7728   37.3931 H   0  0  0  0  0  0
  -44.3204   60.0464   33.5430 H   0  0  0  0  0  0
  -45.9025   60.7501   35.2971 H   0  0  0  0  0  0
  1  2  1  0  0  0
  1  4  1  0  0  0
  1 11  1  0  0  0
  2  3  2  0  0  0
  2 14  1  0  0  0
  3  9  1  0  0  0
  3  5  1  0  0  0
  4  5  1  0  0  0
  4  6  2  0  0  0
  5  7  2  0  0  0
  6  8  1  0  0  0
  6 30  1  0  0  0
  7 10  1  0  0  0
  7 31  1  0  0  0
  8 10  2  0  0  0
  8 18  1  0  0  0
  9 12  1  0  0  0
  9 32  1  0  0  0
  9 33  1  0  0  0
 10 21  1  0  0  0
 11 19  1  0  0  0
 11 34  1  0  0  0
 11 35  1  0  0  0
 12 15  2  0  0  0
 12 17  1  0  0  0
 13 22  1  0  0  0
 13 16  2  0  0  0
 13 20  1  0  0  0
 17 36  1  0  0  0
 17 37  1  0  0  0
 19 24  2  0  0  0
 19 25  1  0  0  0
 20 38  1  0  0  0
 21 23  1  0  0  0
 22 26  1  0  0  0
 22 39  1  0  0  0
 22 40  1  0  0  0
 23 26  1  0  0  0
 23 41  1  0  0  0
 23 42  1  0  0  0
 24 27  1  0  0  0
 24 43  1  0  0  0
 25 28  2  0  0  0
 25 44  1  0  0  0
 26 45  1  0  0  0
 26 46  1  0  0  0
 27 29  2  0  0  0
 27 47  1  0  0  0
 28 29  1  0  0  0
 28 48  1  0  0  0
 29 49  1  0  0  0
M  END
> <s_m_entry_id>
68074

> <s_m_entry_name>
dock_pv.10

> <s_m_Source_Path>
/home/csk/Desktop/cluster/DUD-E-result/pa2ga

> <s_m_Source_File>
dock_pv.maegz

> <i_m_Source_File_Index>
10

> <chembl_id>
CHEMBL356699

> <chembl_pref_name>
None

> <i_lp_mmshare_version>
53161

> <i_f3d_flags>
0

> <r_lp_tautomer_probability>
1

> <s_lp_Force_Field>
OPLS_2005

> <r_lp_Energy>
13.366634

> <b_lp_Chiralities_Consistent>
1

> <s_lp_Variant>
CHEMBL3474_lig25-1

> <s_i_glide_gridfile>
glide-grid_1kvo

> <i_i_glide_lignum>
65

> <i_i_glide_rotatable_bonds>
10

> <r_i_docking_score>
-9.31908568792173

> <r_i_glide_ligand_efficiency>
-0.321347782342129

> <r_i_glide_ligand_efficiency_sa>
-0.987282197478399

> <r_i_glide_ligand_efficiency_ln>
-2.13383431091056

> <r_i_glide_gscore>
-9.31908568792173

> <r_i_glide_lipo>
-3.84937714606125

> <r_i_glide_hbond>
-0.663693670003378

> <r_i_glide_metal>
0

> <r_i_glide_rewards>
-0.420558158644743

> <r_i_glide_evdw>
-41.0525093078613

> <r_i_glide_ecoul>
-19.2409000396729

> <r_i_glide_erotb>
0.704690384210839

> <r_i_glide_esite>
-0.151386626079206

> <r_i_glide_emodel>
-96.4243597384495

> <r_i_glide_energy>
-60.2934093475342

> <r_i_glide_einternal>
5.08575677871704

> <i_i_glide_confnum>
57

> <i_i_glide_posenum>
304

> <r_i_glide_eff_state_penalty>
0

> <s_user_duplicate_titles>
CHEMBL3474_lig25,247690

> <s_m_subgroup_title>
dock_pv

> <s_m_subgroupid>
dock_pv

> <b_m_subgroup_collapsed>
1

$$$$
CHEMBL3474_lig34
                    3D
 Schrodinger Suite 2021-1.
 64 66  0  0  1  0            999 V2000
  -39.9447   62.5523   35.0051 N   0  0  0  0  0  0
  -38.6939   62.8518   33.1445 C   0  0  0  0  0  0
  -40.1593   63.8620   34.6084 C   0  0  0  0  0  0
  -39.4133   64.0558   33.4249 C   0  0  0  0  0  0
  -39.0059   61.9657   34.1639 C   0  0  0  0  0  0
  -40.9082   64.8977   35.1824 C   0  0  0  0  0  0
  -39.4632   65.2980   32.7937 C   0  0  0  0  0  0
  -40.8275   66.1764   34.6043 C   0  0  0  0  0  0
  -40.1316   66.3617   33.3895 C   0  0  0  0  0  0
  -37.7579   62.6347   31.9621 C   0  0  0  0  0  0
  -40.6332   61.9190   36.1359 C   0  0  0  0  0  0
  -36.6641   63.6979   31.7928 C   0  0  0  0  0  0
  -38.1540   70.2328   29.9478 C   0  0  0  0  0  0
  -36.4152   64.5483   32.6428 O   0  0  0  0  0  0
  -39.3057   70.4119   29.5608 O   0  0  0  0  0  0
  -40.0149   67.9376   32.5702 S   0  0  0  0  0  0
  -41.4918   67.3375   35.3675 C   0  0  0  0  0  0
  -36.0151   63.6882   30.6430 N   0  0  0  0  0  0
  -38.4234   60.5871   34.4145 C   0  0  0  0  0  0
  -42.0964   61.5655   35.8709 C   0  0  0  0  0  0
  -37.2150   71.2138   30.0555 O   0  0  0  0  0  0
  -37.5949   68.8776   30.4041 C   0  0  0  0  0  0
  -39.8945   67.6239   30.7726 C   0  0  0  0  0  0
  -41.0318   67.4138   36.8383 C   0  0  0  0  0  0
  -43.0243   67.2900   35.2791 C   0  0  0  0  0  0
  -43.0277   61.6980   36.9053 C   0  0  0  0  0  0
  -42.5123   61.0925   34.6198 C   0  0  0  0  0  0
  -38.4897   67.6429   30.1206 C   0  0  0  0  0  0
  -39.3656   59.4331   34.0820 C   0  0  0  0  0  0
  -43.8458   60.7572   34.4077 C   0  0  0  0  0  0
  -44.3622   61.3646   36.6926 C   0  0  0  0  0  0
  -44.7648   60.8980   35.4443 C   0  0  0  0  0  0
  -41.4649   64.7378   36.0939 H   0  0  0  0  0  0
  -38.9072   65.4389   31.8843 H   0  0  0  0  0  0
  -37.2668   61.6635   32.0016 H   0  0  0  0  0  0
  -38.3480   62.6238   31.0451 H   0  0  0  0  0  0
  -40.5823   62.6210   36.9696 H   0  0  0  0  0  0
  -40.0947   61.0282   36.4587 H   0  0  0  0  0  0
  -41.1827   68.2810   34.9223 H   0  0  0  0  0  0
  -35.3564   64.4329   30.4285 H   0  0  0  0  0  0
  -36.3474   63.1046   29.8885 H   0  0  0  0  0  0
  -37.5073   60.4507   33.8408 H   0  0  0  0  0  0
  -38.0970   60.4991   35.4430 H   0  0  0  0  0  0
  -36.3129   70.9029   30.2429 H   0  0  0  0  0  0
  -37.3847   68.9419   31.4712 H   0  0  0  0  0  0
  -36.6411   68.7286   29.8966 H   0  0  0  0  0  0
  -40.3926   66.6809   30.5448 H   0  0  0  0  0  0
  -40.5110   68.3725   30.2833 H   0  0  0  0  0  0
  -39.9533   67.2978   36.9217 H   0  0  0  0  0  0
  -41.2970   68.3724   37.2859 H   0  0  0  0  0  0
  -41.4878   66.6344   37.4499 H   0  0  0  0  0  0
  -43.3464   67.2979   34.2431 H   0  0  0  0  0  0
  -43.4300   66.3924   35.7473 H   0  0  0  0  0  0
  -43.4777   68.1525   35.7687 H   0  0  0  0  0  0
  -42.7225   62.0584   37.8772 H   0  0  0  0  0  0
  -41.8095   60.9830   33.8070 H   0  0  0  0  0  0
  -37.9427   66.7490   30.4198 H   0  0  0  0  0  0
  -38.6092   67.5348   29.0408 H   0  0  0  0  0  0
  -38.8360   58.4977   34.2400 H   0  0  0  0  0  0
  -40.2477   59.4166   34.7198 H   0  0  0  0  0  0
  -39.6941   59.4733   33.0434 H   0  0  0  0  0  0
  -44.1700   60.3914   33.4435 H   0  0  0  0  0  0
  -45.0818   61.4664   37.4919 H   0  0  0  0  0  0
  -45.8003   60.6381   35.2767 H   0  0  0  0  0  0
  1  3  1  0  0  0
  1  5  1  0  0  0
  1 11  1  0  0  0
  2  5  2  0  0  0
  2 10  1  0  0  0
  2  4  1  0  0  0
  3  4  1  0  0  0
  3  6  2  0  0  0
  4  7  2  0  0  0
  5 19  1  0  0  0
  6  8  1  0  0  0
  6 33  1  0  0  0
  7  9  1  0  0  0
  7 34  1  0  0  0
  8  9  2  0  0  0
  8 17  1  0  0  0
  9 16  1  0  0  0
 10 12  1  0  0  0
 10 35  1  0  0  0
 10 36  1  0  0  0
 11 20  1  0  0  0
 11 37  1  0  0  0
 11 38  1  0  0  0
 12 14  2  0  0  0
 12 18  1  0  0  0
 13 22  1  0  0  0
 13 15  2  0  0  0
 13 21  1  0  0  0
 16 23  1  0  0  0
 17 24  1  0  0  0
 17 25  1  0  0  0
 17 39  1  0  0  0
 18 40  1  0  0  0
 18 41  1  0  0  0
 19 29  1  0  0  0
 19 42  1  0  0  0
 19 43  1  0  0  0
 20 26  2  0  0  0
 20 27  1  0  0  0
 21 44  1  0  0  0
 22 28  1  0  0  0
 22 45  1  0  0  0
 22 46  1  0  0  0
 23 28  1  0  0  0
 23 47  1  0  0  0
 23 48  1  0  0  0
 24 49  1  0  0  0
 24 50  1  0  0  0
 24 51  1  0  0  0
 25 52  1  0  0  0
 25 53  1  0  0  0
 25 54  1  0  0  0
 26 31  1  0  0  0
 26 55  1  0  0  0
 27 30  2  0  0  0
 27 56  1  0  0  0
 28 57  1  0  0  0
 28 58  1  0  0  0
 29 59  1  0  0  0
 29 60  1  0  0  0
 29 61  1  0  0  0
 30 32  1  0  0  0
 30 62  1  0  0  0
 31 32  2  0  0  0
 31 63  1  0  0  0
 32 64  1  0  0  0
M  END
> <s_m_entry_id>
68075

> <s_m_entry_name>
dock_pv.11

> <s_m_Source_Path>
/home/csk/Desktop/cluster/DUD-E-result/pa2ga

> <s_m_Source_File>
dock_pv.maegz

> <i_m_Source_File_Index>
11

> <chembl_id>
CHEMBL149453

> <chembl_pref_name>
None

> <i_lp_mmshare_version>
53161

> <i_f3d_flags>
0

> <r_lp_tautomer_probability>
1

> <s_lp_Force_Field>
OPLS_2005

> <r_lp_Energy>
10.753084

> <b_lp_Chiralities_Consistent>
1

> <s_lp_Variant>
CHEMBL3474_lig34-1

> <s_i_glide_gridfile>
glide-grid_1kvo

> <i_i_glide_lignum>
74

> <i_i_glide_rotatable_bonds>
12

> <r_i_docking_score>
-9.31175820389235

> <r_i_glide_ligand_efficiency>
-0.290992443871636

> <r_i_glide_ligand_efficiency_sa>
-0.923843421965999

> <r_i_glide_ligand_efficiency_ln>
-2.08515649079348

> <r_i_glide_gscore>
-9.31175820389235

> <r_i_glide_lipo>
-4.03261471068657

> <r_i_glide_hbond>
-0.541924015483323

> <r_i_glide_metal>
0

> <r_i_glide_rewards>
-0.576268118408914

> <r_i_glide_evdw>
-44.8655548095703

> <r_i_glide_ecoul>
-17.3515682220459

> <r_i_glide_erotb>
0.783634226269447

> <r_i_glide_esite>
-0.0985726117975887

> <r_i_glide_emodel>
-99.3539301025069

> <r_i_glide_energy>
-62.2171230316162

> <r_i_glide_einternal>
6.4590311050415

> <i_i_glide_confnum>
147

> <i_i_glide_posenum>
276

> <r_i_glide_eff_state_penalty>
0

> <s_user_duplicate_titles>
CHEMBL3474_lig34,247177

> <s_m_subgroup_title>
dock_pv

> <s_m_subgroupid>
dock_pv

> <b_m_subgroup_collapsed>
1

$$$$
CHEMBL3474_lig365 
                    3D
 Schrodinger Suite 2021-1.
 48 50  0  0  1  0            999 V2000
  -37.1464   61.4839   32.7143 C   0  0  0  0  0  0
  -37.9106   60.5528   33.4045 C   0  0  0  0  0  0
  -39.1216   60.9254   33.9732 C   0  0  0  0  0  0
  -39.5674   62.2402   33.8050 C   0  0  0  0  0  0
  -38.8217   63.2075   33.1089 C   0  0  0  0  0  0
  -37.5706   62.8115   32.5566 C   0  0  0  0  0  0
  -36.6334   63.7601   31.8431 C   0  0  0  0  0  0
  -36.0149   63.2980   30.7625 N   0  0  0  0  0  0
  -36.4151   64.8980   32.2459 O   0  0  0  0  0  0
  -39.9215   59.8883   34.7608 C   0  0  0  0  0  0
  -41.4172   60.1485   34.8659 C   0  0  0  0  0  0
  -41.9511   60.6886   36.0383 C   0  0  0  0  0  0
  -43.3173   60.9377   36.1284 C   0  0  0  0  0  0
  -44.1414   60.6455   35.0441 C   0  0  0  0  0  0
  -43.6147   60.0973   33.8765 C   0  0  0  0  0  0
  -42.2514   59.8417   33.7898 C   0  0  0  0  0  0
  -39.4017   64.5929   33.0250 C   0  0  0  0  0  0
  -40.0149   65.1703   34.1492 C   0  0  0  0  0  0
  -40.5100   66.4707   34.1190 C   0  0  0  0  0  0
  -40.4154   67.2193   32.9516 C   0  0  0  0  0  0
  -39.8512   66.6613   31.8020 C   0  0  0  0  0  0
  -39.3738   65.3461   31.8407 C   0  0  0  0  0  0
  -39.8048   67.4521   30.4997 C   0  0  0  0  0  0
  -39.2882   68.9112   30.5919 C   0  0  0  0  0  0
  -37.7963   69.0703   30.9174 C   0  0  0  0  0  0
  -37.2150   68.4981   31.8397 O   0  0  0  0  0  0
  -37.2150   69.9672   30.0762 O   0  0  0  0  0  0
  -36.1921   61.1662   32.3202 H   0  0  0  0  0  0
  -37.5485   59.5409   33.5057 H   0  0  0  0  0  0
  -40.5189   62.5218   34.2308 H   0  0  0  0  0  0
  -35.4126   63.9370   30.2559 H   0  0  0  0  0  0
  -36.3417   62.4551   30.3158 H   0  0  0  0  0  0
  -39.7766   58.9034   34.3135 H   0  0  0  0  0  0
  -39.4929   59.8220   35.7624 H   0  0  0  0  0  0
  -41.3078   60.9223   36.8745 H   0  0  0  0  0  0
  -43.7341   61.3580   37.0322 H   0  0  0  0  0  0
  -45.2024   60.8394   35.1093 H   0  0  0  0  0  0
  -44.2644   59.8654   33.0453 H   0  0  0  0  0  0
  -41.8429   59.4198   32.8825 H   0  0  0  0  0  0
  -40.0781   64.6204   35.0766 H   0  0  0  0  0  0
  -40.9597   66.8983   35.0029 H   0  0  0  0  0  0
  -40.8075   68.2243   32.9430 H   0  0  0  0  0  0
  -38.9612   64.9115   30.9410 H   0  0  0  0  0  0
  -40.8304   67.4669   30.1297 H   0  0  0  0  0  0
  -39.2285   66.9097   29.7463 H   0  0  0  0  0  0
  -39.8389   69.4773   31.3406 H   0  0  0  0  0  0
  -39.5015   69.4045   29.6416 H   0  0  0  0  0  0
  -36.2650   70.0981   30.2431 H   0  0  0  0  0  0
  1  2  2  0  0  0
  1  6  1  0  0  0
  1 28  1  0  0  0
  2  3  1  0  0  0
  2 29  1  0  0  0
  3  4  2  0  0  0
  3 10  1  0  0  0
  4  5  1  0  0  0
  4 30  1  0  0  0
  5  6  2  0  0  0
  5 17  1  0  0  0
  6  7  1  0  0  0
  7  8  1  0  0  0
  7  9  2  0  0  0
  8 31  1  0  0  0
  8 32  1  0  0  0
 10 11  1  0  0  0
 10 33  1  0  0  0
 10 34  1  0  0  0
 11 12  2  0  0  0
 11 16  1  0  0  0
 12 13  1  0  0  0
 12 35  1  0  0  0
 13 14  2  0  0  0
 13 36  1  0  0  0
 14 15  1  0  0  0
 14 37  1  0  0  0
 15 16  2  0  0  0
 15 38  1  0  0  0
 16 39  1  0  0  0
 17 18  2  0  0  0
 17 22  1  0  0  0
 18 19  1  0  0  0
 18 40  1  0  0  0
 19 20  2  0  0  0
 19 41  1  0  0  0
 20 21  1  0  0  0
 20 42  1  0  0  0
 21 22  2  0  0  0
 21 23  1  0  0  0
 22 43  1  0  0  0
 23 24  1  0  0  0
 23 44  1  0  0  0
 23 45  1  0  0  0
 24 25  1  0  0  0
 24 46  1  0  0  0
 24 47  1  0  0  0
 25 26  2  0  0  0
 25 27  1  0  0  0
 27 48  1  0  0  0
M  END
> <s_m_entry_id>
68076

> <s_m_entry_name>
dock_pv.12

> <s_m_Source_Path>
/home/csk/Desktop/cluster/DUD-E-result/pa2ga

> <s_m_Source_File>
dock_pv.maegz

> <i_m_Source_File_Index>
12

> <chembl_id>
CHEMBL4457557

> <chembl_pref_name>
None

> <i_lp_mmshare_version>
53161

> <i_f3d_flags>
0

> <r_lp_tautomer_probability>
1

> <s_lp_Force_Field>
OPLS_2005

> <r_lp_Energy>
22.580555

> <b_lp_Chiralities_Consistent>
1

> <s_lp_Variant>
CHEMBL3474_lig365 -1

> <s_i_glide_gridfile>
glide-grid_1kvo

> <i_i_glide_lignum>
463

> <i_i_glide_rotatable_bonds>
8

> <r_i_docking_score>
-9.30118169093548

> <r_i_glide_ligand_efficiency>
-0.344488210775388

> <r_i_glide_ligand_efficiency_sa>
-1.03346463119079

> <r_i_glide_ligand_efficiency_ln>
-2.16516175568528

> <r_i_glide_gscore>
-9.30118169093548

> <r_i_glide_lipo>
-4.35996346244903

> <r_i_glide_hbond>
-0.24555518872687

> <r_i_glide_metal>
0

> <r_i_glide_rewards>
-1.10716309702601

> <r_i_glide_evdw>
-48.1531562805176

> <r_i_glide_ecoul>
-13.0222816467285

> <r_i_glide_erotb>
0.890246068944512

> <r_i_glide_esite>
-0.117745950642919

> <r_i_glide_emodel>
-97.6358377591063

> <r_i_glide_energy>
-61.1754379272461

> <r_i_glide_einternal>
5.80118274688721

> <i_i_glide_confnum>
108

> <i_i_glide_posenum>
92

> <r_i_glide_eff_state_penalty>
0

> <s_user_duplicate_titles>
CHEMBL3474_lig365 

> <s_m_subgroup_title>
dock_pv

> <s_m_subgroupid>
dock_pv

> <b_m_subgroup_collapsed>
1

$$$$
CHEMBL3474_lig54
                    3D
 Schrodinger Suite 2021-1.
 55 57  0  0  1  0            999 V2000
  -40.3642   65.7793   32.7467 C   0  0  0  0  0  0
  -41.1364   65.8255   33.9051 C   0  0  0  0  0  0
  -41.2146   64.7574   34.8012 C   0  0  0  0  0  0
  -40.4677   63.6104   34.4971 C   0  0  0  0  0  0
  -39.6781   63.5259   33.3211 C   0  0  0  0  0  0
  -39.6456   64.6176   32.4446 C   0  0  0  0  0  0
  -40.3184   62.4054   35.1656 N   0  0  0  0  0  0
  -39.5080   61.5611   34.4220 C   0  0  0  0  0  0
  -39.0489   62.2403   33.3049 C   0  0  0  0  0  0
  -41.0282   62.0483   36.3984 C   0  0  0  0  0  0
  -42.4821   61.6363   36.1907 C   0  0  0  0  0  0
  -42.8783   60.9664   35.0276 C   0  0  0  0  0  0
  -44.2060   60.6029   34.8544 C   0  0  0  0  0  0
  -45.1410   60.8979   35.8434 C   0  0  0  0  0  0
  -44.7541   61.5480   37.0121 C   0  0  0  0  0  0
  -43.4228   61.9176   37.1849 C   0  0  0  0  0  0
  -39.2323   60.1366   34.8598 C   0  0  0  0  0  0
  -38.0810   61.7568   32.2431 C   0  0  0  0  0  0
  -40.3556   66.9080   31.9517 O   0  0  0  0  0  0
  -39.4698   66.9590   30.8328 C   0  0  0  0  0  0
  -39.5344   68.3591   30.2102 C   0  0  0  0  0  0
  -39.1323   69.5032   31.1736 C   0  0  0  0  0  0
  -37.6149   69.6945   31.2888 C   0  0  0  0  0  0
  -37.2150   70.8450   30.6864 O   0  0  0  0  0  0
  -36.8541   68.8980   31.8410 O   0  0  0  0  0  0
  -36.6576   62.2667   32.5138 C   0  0  0  0  0  0
  -36.3757   63.6447   31.9083 C   0  0  0  0  0  0
  -36.0150   63.6979   30.6431 N   0  0  0  0  0  0
  -36.4152   64.6615   32.5933 O   0  0  0  0  0  0
  -41.6943   66.7257   34.1193 H   0  0  0  0  0  0
  -41.8239   64.8228   35.6908 H   0  0  0  0  0  0
  -39.0568   64.5452   31.5447 H   0  0  0  0  0  0
  -40.9840   62.9180   37.0553 H   0  0  0  0  0  0
  -40.4949   61.2529   36.9191 H   0  0  0  0  0  0
  -42.1696   60.7299   34.2480 H   0  0  0  0  0  0
  -44.5024   60.0977   33.9478 H   0  0  0  0  0  0
  -46.1737   60.6117   35.7039 H   0  0  0  0  0  0
  -45.4822   61.7663   37.7792 H   0  0  0  0  0  0
  -43.1265   62.4228   38.0935 H   0  0  0  0  0  0
  -38.5220   59.6292   34.2076 H   0  0  0  0  0  0
  -38.8142   60.0995   35.8608 H   0  0  0  0  0  0
  -40.1374   59.5280   34.8706 H   0  0  0  0  0  0
  -38.0755   60.6670   32.1923 H   0  0  0  0  0  0
  -38.4147   62.0981   31.2626 H   0  0  0  0  0  0
  -38.4442   66.7383   31.1333 H   0  0  0  0  0  0
  -39.7637   66.2149   30.0898 H   0  0  0  0  0  0
  -38.9162   68.3824   29.3097 H   0  0  0  0  0  0
  -40.5526   68.5149   29.8540 H   0  0  0  0  0  0
  -39.5657   70.4353   30.8071 H   0  0  0  0  0  0
  -39.5523   69.3529   32.1689 H   0  0  0  0  0  0
  -36.2437   70.8978   30.6430 H   0  0  0  0  0  0
  -36.4149   62.2178   33.5754 H   0  0  0  0  0  0
  -35.9577   61.5719   32.0482 H   0  0  0  0  0  0
  -35.7336   64.6006   30.2463 H   0  0  0  0  0  0
  -36.1652   62.9139   30.0284 H   0  0  0  0  0  0
  1  2  1  0  0  0
  1  6  2  0  0  0
  1 19  1  0  0  0
  2  3  2  0  0  0
  2 30  1  0  0  0
  3  4  1  0  0  0
  3 31  1  0  0  0
  4  5  2  0  0  0
  4  7  1  0  0  0
  5  6  1  0  0  0
  5  9  1  0  0  0
  6 32  1  0  0  0
  7  8  1  0  0  0
  7 10  1  0  0  0
  8  9  2  0  0  0
  8 17  1  0  0  0
  9 18  1  0  0  0
 10 11  1  0  0  0
 10 33  1  0  0  0
 10 34  1  0  0  0
 11 12  2  0  0  0
 11 16  1  0  0  0
 12 13  1  0  0  0
 12 35  1  0  0  0
 13 14  2  0  0  0
 13 36  1  0  0  0
 14 15  1  0  0  0
 14 37  1  0  0  0
 15 16  2  0  0  0
 15 38  1  0  0  0
 16 39  1  0  0  0
 17 40  1  0  0  0
 17 41  1  0  0  0
 17 42  1  0  0  0
 18 26  1  0  0  0
 18 43  1  0  0  0
 18 44  1  0  0  0
 19 20  1  0  0  0
 20 21  1  0  0  0
 20 45  1  0  0  0
 20 46  1  0  0  0
 21 22  1  0  0  0
 21 47  1  0  0  0
 21 48  1  0  0  0
 22 23  1  0  0  0
 22 49  1  0  0  0
 22 50  1  0  0  0
 23 24  1  0  0  0
 23 25  2  0  0  0
 24 51  1  0  0  0
 26 27  1  0  0  0
 26 52  1  0  0  0
 26 53  1  0  0  0
 27 28  1  0  0  0
 27 29  2  0  0  0
 28 54  1  0  0  0
 28 55  1  0  0  0
M  END
> <s_m_entry_id>
68077

> <s_m_entry_name>
dock_pv.13

> <s_m_Source_Path>
/home/csk/Desktop/cluster/DUD-E-result/pa2ga

> <s_m_Source_File>
dock_pv.maegz

> <i_m_Source_File_Index>
13

> <chembl_id>
CHEMBL2112027

> <chembl_pref_name>
None

> <i_lp_mmshare_version>
53161

> <i_f3d_flags>
0

> <r_lp_tautomer_probability>
1

> <s_lp_Force_Field>
OPLS_2005

> <r_lp_Energy>
15.189419

> <b_lp_Chiralities_Consistent>
1

> <s_lp_Variant>
CHEMBL3474_lig54-1

> <s_i_glide_gridfile>
glide-grid_1kvo

> <i_i_glide_lignum>
94

> <i_i_glide_rotatable_bonds>
11

> <r_i_docking_score>
-9.19911335075606

> <r_i_glide_ligand_efficiency>
-0.317210805198485

> <r_i_glide_ligand_efficiency_sa>
-0.974572093006769

> <r_i_glide_ligand_efficiency_ln>
-2.1063636879356

> <r_i_glide_gscore>
-9.19911335075606

> <r_i_glide_lipo>
-3.84181562102545

> <r_i_glide_hbond>
-0.420377236262199

> <r_i_glide_metal>
0

> <r_i_glide_rewards>
-0.959128639188316

> <r_i_glide_evdw>
-38.7898788452148

> <r_i_glide_ecoul>
-20.1035499572754

> <r_i_glide_erotb>
1.13049189276255

> <r_i_glide_esite>
-0.153257311190591

> <r_i_glide_emodel>
-94.6263924714809

> <r_i_glide_energy>
-58.8934288024902

> <r_i_glide_einternal>
5.76374864578247

> <i_i_glide_confnum>
175

> <i_i_glide_posenum>
173

> <r_i_glide_eff_state_penalty>
0

> <s_user_duplicate_titles>
CHEMBL3474_lig54

> <s_m_subgroup_title>
dock_pv

> <s_m_subgroupid>
dock_pv

> <b_m_subgroup_collapsed>
1

$$$$
CHEMBL3474_lig361 
                    3D
 Schrodinger Suite 2021-1.
 54 56  0  0  1  0            999 V2000
  -37.1388   61.4728   32.6845 C   0  0  0  0  0  0
  -37.9010   60.5364   33.3691 C   0  0  0  0  0  0
  -39.1085   60.9060   33.9422 C   0  0  0  0  0  0
  -39.5575   62.2194   33.7786 C   0  0  0  0  0  0
  -38.8061   63.2066   33.1083 C   0  0  0  0  0  0
  -37.5583   62.8088   32.5531 C   0  0  0  0  0  0
  -36.6246   63.7561   31.8425 C   0  0  0  0  0  0
  -36.0152   63.2994   30.7578 N   0  0  0  0  0  0
  -36.4144   64.8971   32.2436 O   0  0  0  0  0  0
  -39.9024   59.8621   34.7211 C   0  0  0  0  0  0
  -41.3918   60.1340   34.8699 C   0  0  0  0  0  0
  -42.2639   59.8075   33.8300 C   0  0  0  0  0  0
  -43.6166   60.0977   33.9465 C   0  0  0  0  0  0
  -44.0955   60.6909   35.1107 C   0  0  0  0  0  0
  -43.2367   61.0008   36.1617 C   0  0  0  0  0  0
  -41.8776   60.7198   36.0421 C   0  0  0  0  0  0
  -39.3872   64.6009   33.0771 C   0  0  0  0  0  0
  -40.0786   65.0657   34.2065 C   0  0  0  0  0  0
  -40.7230   66.2937   34.2093 C   0  0  0  0  0  0
  -40.6457   67.1136   33.0947 C   0  0  0  0  0  0
  -39.9013   66.7363   31.9733 C   0  0  0  0  0  0
  -39.3145   65.4585   31.9607 C   0  0  0  0  0  0
  -39.8160   67.6564   30.7415 C   0  0  0  0  0  0
  -39.1599   69.0793   30.8857 C   0  0  2  0  0  0
  -37.6284   69.0890   30.7291 C   0  0  0  0  0  0
  -36.8646   68.4988   31.4812 O   0  0  0  0  0  0
  -37.2155   69.9554   29.7675 O   0  0  0  0  0  0
  -39.5713   69.8817   32.1469 C   0  0  0  0  0  0
  -39.1482   71.3628   32.1735 C   0  0  0  0  0  0
  -36.1837   61.1613   32.2870 H   0  0  0  0  0  0
  -37.5399   59.5181   33.4564 H   0  0  0  0  0  0
  -40.5158   62.4808   34.1996 H   0  0  0  0  0  0
  -35.4128   63.9368   30.2472 H   0  0  0  0  0  0
  -36.3655   62.4676   30.3042 H   0  0  0  0  0  0
  -39.7860   58.8977   34.2310 H   0  0  0  0  0  0
  -39.4560   59.7453   35.7080 H   0  0  0  0  0  0
  -41.8917   59.3477   32.9237 H   0  0  0  0  0  0
  -44.2954   59.8485   33.1407 H   0  0  0  0  0  0
  -45.1503   60.9061   35.2004 H   0  0  0  0  0  0
  -43.6159   61.4565   37.0642 H   0  0  0  0  0  0
  -41.2040   60.9503   36.8540 H   0  0  0  0  0  0
  -40.1499   64.4599   35.1002 H   0  0  0  0  0  0
  -41.2859   66.6066   35.0768 H   0  0  0  0  0  0
  -41.2007   68.0355   33.1159 H   0  0  0  0  0  0
  -38.8116   65.1261   31.0633 H   0  0  0  0  0  0
  -40.8417   67.7803   30.3948 H   0  0  0  0  0  0
  -39.3382   67.1148   29.9205 H   0  0  0  0  0  0
  -39.5487   69.6453   30.0350 H   0  0  0  0  0  0
  -36.2602   70.0984   29.8437 H   0  0  0  0  0  0
  -39.2127   69.3850   33.0426 H   0  0  0  0  0  0
  -40.6430   69.8575   32.2435 H   0  0  0  0  0  0
  -39.5695   71.8751   33.0406 H   0  0  0  0  0  0
  -39.4968   71.8924   31.2869 H   0  0  0  0  0  0
  -38.0648   71.4770   32.2262 H   0  0  0  0  0  0
  1  2  2  0  0  0
  1  6  1  0  0  0
  1 30  1  0  0  0
  2  3  1  0  0  0
  2 31  1  0  0  0
  3  4  2  0  0  0
  3 10  1  0  0  0
  4  5  1  0  0  0
  4 32  1  0  0  0
  5  6  2  0  0  0
  5 17  1  0  0  0
  6  7  1  0  0  0
  7  8  1  0  0  0
  7  9  2  0  0  0
  8 33  1  0  0  0
  8 34  1  0  0  0
 10 11  1  0  0  0
 10 35  1  0  0  0
 10 36  1  0  0  0
 11 12  2  0  0  0
 11 16  1  0  0  0
 12 13  1  0  0  0
 12 37  1  0  0  0
 13 14  2  0  0  0
 13 38  1  0  0  0
 14 15  1  0  0  0
 14 39  1  0  0  0
 15 16  2  0  0  0
 15 40  1  0  0  0
 16 41  1  0  0  0
 17 18  2  0  0  0
 17 22  1  0  0  0
 18 19  1  0  0  0
 18 42  1  0  0  0
 19 20  2  0  0  0
 19 43  1  0  0  0
 20 21  1  0  0  0
 20 44  1  0  0  0
 21 22  2  0  0  0
 21 23  1  0  0  0
 22 45  1  0  0  0
 23 24  1  0  0  0
 23 46  1  0  0  0
 23 47  1  0  0  0
 24 25  1  0  0  0
 24 28  1  0  0  0
 24 48  1  0  0  0
 25 26  2  0  0  0
 25 27  1  0  0  0
 27 49  1  0  0  0
 28 29  1  0  0  0
 28 50  1  0  0  0
 28 51  1  0  0  0
 29 52  1  0  0  0
 29 53  1  0  0  0
 29 54  1  0  0  0
M  END
> <s_m_entry_id>
68078

> <s_m_entry_name>
dock_pv.14

> <s_m_Source_Path>
/home/csk/Desktop/cluster/DUD-E-result/pa2ga

> <s_m_Source_File>
dock_pv.maegz

> <i_m_Source_File_Index>
14

> <chembl_id>
CHEMBL4533403

> <chembl_pref_name>
None

> <i_lp_mmshare_version>
53161

> <i_f3d_flags>
0

> <r_lp_tautomer_probability>
1

> <s_lp_Force_Field>
OPLS_2005

> <r_lp_Energy>
26.261985

> <b_lp_Chiralities_Consistent>
1

> <s_lp_Variant>
CHEMBL3474_lig361 -1

> <s_i_glide_gridfile>
glide-grid_1kvo

> <i_i_glide_lignum>
457

> <i_i_glide_rotatable_bonds>
9

> <r_i_docking_score>
-9.17298970918014

> <r_i_glide_ligand_efficiency>
-0.316309989971729

> <r_i_glide_ligand_efficiency_sa>
-0.97180450323188

> <r_i_glide_ligand_efficiency_ln>
-2.1003820364531

> <r_i_glide_gscore>
-9.17298970918014

> <r_i_glide_lipo>
-4.37349197485783

> <r_i_glide_hbond>
-0.244210888378858

> <r_i_glide_metal>
0

> <r_i_glide_rewards>
-0.921859556890458

> <r_i_glide_evdw>
-45.7016448974609

> <r_i_glide_ecoul>
-13.4231691360474

> <r_i_glide_erotb>
0.778268670342949

> <r_i_glide_esite>
-0.113138344115789

> <r_i_glide_emodel>
-94.7938717659598

> <r_i_glide_energy>
-59.1248140335083

> <r_i_glide_einternal>
8.06056022644043

> <i_i_glide_confnum>
83

> <i_i_glide_posenum>
47

> <r_i_glide_eff_state_penalty>
0

> <s_user_duplicate_titles>
CHEMBL3474_lig361 

> <s_m_subgroup_title>
dock_pv

> <s_m_subgroupid>
dock_pv

> <b_m_subgroup_collapsed>
1

$$$$
CHEMBL3474_lig30
                    3D
 Schrodinger Suite 2021-1.
 55 57  0  0  1  0            999 V2000
  -39.9749   62.4700   35.0828 N   0  0  0  0  0  0
  -38.5756   62.7361   33.3069 C   0  0  0  0  0  0
  -38.9613   61.8797   34.3358 C   0  0  0  0  0  0
  -39.3921   63.9101   33.4437 C   0  0  0  0  0  0
  -40.2490   63.7216   34.5647 C   0  0  0  0  0  0
  -37.5208   62.4566   32.2291 C   0  0  0  0  0  0
  -40.7091   61.8944   36.2223 C   0  0  0  0  0  0
  -41.1637   64.7038   34.9760 C   0  0  0  0  0  0
  -36.6012   63.6274   31.8435 C   0  0  0  0  0  0
  -39.4755   65.1139   32.7307 C   0  0  0  0  0  0
  -37.6152   69.7669   29.5037 C   0  0  0  0  0  0
  -36.4149   64.5880   32.5864 O   0  0  0  0  0  0
  -36.9130   69.7041   28.4981 O   0  0  0  0  0  0
  -40.3574   66.0996   33.1542 C   0  0  0  0  0  0
  -36.0147   63.5705   30.6583 N   0  0  0  0  0  0
  -41.1825   65.8972   34.2548 C   0  0  0  0  0  0
  -38.4073   60.5000   34.6433 C   0  0  0  0  0  0
  -40.4150   67.6310   32.2913 S   0  0  0  0  0  0
  -42.1590   61.5235   35.9316 C   0  0  0  0  0  0
  -37.2151   70.2635   30.7076 O   0  0  0  0  0  0
  -39.0280   69.2060   29.5671 C   0  0  0  0  0  0
  -40.3281   67.2214   30.5237 C   0  0  0  0  0  0
  -43.1230   61.7247   36.9253 C   0  0  0  0  0  0
  -42.5291   60.9804   34.6958 C   0  0  0  0  0  0
  -39.0252   67.6854   29.8524 C   0  0  0  0  0  0
  -38.9054   59.4409   33.6567 C   0  0  0  0  0  0
  -43.8599   60.6558   34.4526 C   0  0  0  0  0  0
  -44.4543   61.4079   36.6796 C   0  0  0  0  0  0
  -44.8149   60.8801   35.4435 C   0  0  0  0  0  0
  -36.8723   61.6351   32.5310 H   0  0  0  0  0  0
  -38.0155   62.1137   31.3209 H   0  0  0  0  0  0
  -40.6915   62.6471   37.0124 H   0  0  0  0  0  0
  -40.2030   61.0242   36.6311 H   0  0  0  0  0  0
  -41.8214   64.5595   35.8213 H   0  0  0  0  0  0
  -38.8440   65.2885   31.8743 H   0  0  0  0  0  0
  -35.4466   64.3536   30.3432 H   0  0  0  0  0  0
  -36.3130   62.8793   29.9869 H   0  0  0  0  0  0
  -41.8633   66.6795   34.5575 H   0  0  0  0  0  0
  -37.3183   60.5431   34.5932 H   0  0  0  0  0  0
  -38.6088   60.1608   35.6533 H   0  0  0  0  0  0
  -36.2685   70.4966   30.6415 H   0  0  0  0  0  0
  -39.5362   69.4283   28.6278 H   0  0  0  0  0  0
  -39.5790   69.7469   30.3394 H   0  0  0  0  0  0
  -40.4424   66.1439   30.4049 H   0  0  0  0  0  0
  -41.1958   67.6554   30.0285 H   0  0  0  0  0  0
  -42.8429   62.1303   37.8881 H   0  0  0  0  0  0
  -41.7860   60.8178   33.9261 H   0  0  0  0  0  0
  -38.1955   67.4128   30.5097 H   0  0  0  0  0  0
  -38.8262   67.1311   28.9330 H   0  0  0  0  0  0
  -38.4146   58.4879   33.8431 H   0  0  0  0  0  0
  -39.9811   59.2939   33.7549 H   0  0  0  0  0  0
  -38.6982   59.7203   32.6218 H   0  0  0  0  0  0
  -44.1583   60.2393   33.5010 H   0  0  0  0  0  0
  -45.2022   61.5653   37.4436 H   0  0  0  0  0  0
  -45.8490   60.6330   35.2530 H   0  0  0  0  0  0
  1  3  1  0  0  0
  1  5  1  0  0  0
  1  7  1  0  0  0
  2  3  2  0  0  0
  2  6  1  0  0  0
  2  4  1  0  0  0
  3 17  1  0  0  0
  4  5  1  0  0  0
  4 10  2  0  0  0
  5  8  2  0  0  0
  6  9  1  0  0  0
  6 30  1  0  0  0
  6 31  1  0  0  0
  7 19  1  0  0  0
  7 32  1  0  0  0
  7 33  1  0  0  0
  8 16  1  0  0  0
  8 34  1  0  0  0
  9 12  2  0  0  0
  9 15  1  0  0  0
 10 14  1  0  0  0
 10 35  1  0  0  0
 11 21  1  0  0  0
 11 13  2  0  0  0
 11 20  1  0  0  0
 14 16  2  0  0  0
 14 18  1  0  0  0
 15 36  1  0  0  0
 15 37  1  0  0  0
 16 38  1  0  0  0
 17 26  1  0  0  0
 17 39  1  0  0  0
 17 40  1  0  0  0
 18 22  1  0  0  0
 19 23  1  0  0  0
 19 24  2  0  0  0
 20 41  1  0  0  0
 21 25  1  0  0  0
 21 42  1  0  0  0
 21 43  1  0  0  0
 22 25  1  0  0  0
 22 44  1  0  0  0
 22 45  1  0  0  0
 23 28  2  0  0  0
 23 46  1  0  0  0
 24 27  1  0  0  0
 24 47  1  0  0  0
 25 48  1  0  0  0
 25 49  1  0  0  0
 26 50  1  0  0  0
 26 51  1  0  0  0
 26 52  1  0  0  0
 27 29  2  0  0  0
 27 53  1  0  0  0
 28 29  1  0  0  0
 28 54  1  0  0  0
 29 55  1  0  0  0
M  END
> <s_m_entry_id>
68079

> <s_m_entry_name>
dock_pv.15

> <s_m_Source_Path>
/home/csk/Desktop/cluster/DUD-E-result/pa2ga

> <s_m_Source_File>
dock_pv.maegz

> <i_m_Source_File_Index>
15

> <chembl_id>
CHEMBL345756

> <chembl_pref_name>
None

> <i_lp_mmshare_version>
53161

> <i_f3d_flags>
0

> <r_lp_tautomer_probability>
1

> <s_lp_Force_Field>
OPLS_2005

> <r_lp_Energy>
10.692613

> <b_lp_Chiralities_Consistent>
1

> <s_lp_Variant>
CHEMBL3474_lig30-1

> <s_i_glide_gridfile>
glide-grid_1kvo

> <i_i_glide_lignum>
70

> <i_i_glide_rotatable_bonds>
11

> <r_i_docking_score>
-9.15284320612763

> <r_i_glide_ligand_efficiency>
-0.315615282969918

> <r_i_glide_ligand_efficiency_sa>
-0.969670143223691

> <r_i_glide_ligand_efficiency_ln>
-2.09576899812532

> <r_i_glide_gscore>
-9.15284320612763

> <r_i_glide_lipo>
-3.95268679894025

> <r_i_glide_hbond>
-0.477357684923082

> <r_i_glide_metal>
0

> <r_i_glide_rewards>
-0.947596521979929

> <r_i_glide_evdw>
-43.4919471740723

> <r_i_glide_ecoul>
-16.4357852935791

> <r_i_glide_erotb>
0.935168000028975

> <r_i_glide_esite>
-0.0704050475728697

> <r_i_glide_emodel>
-95.9127275290457

> <r_i_glide_energy>
-59.9277324676514

> <r_i_glide_einternal>
8.24571990966797

> <i_i_glide_confnum>
213

> <i_i_glide_posenum>
284

> <r_i_glide_eff_state_penalty>
0

> <s_user_duplicate_titles>
CHEMBL3474_lig30,247176

> <s_m_subgroup_title>
dock_pv

> <s_m_subgroupid>
dock_pv

> <b_m_subgroup_collapsed>
1

$$$$
CHEMBL3474_lig62
                    3D
 Schrodinger Suite 2021-1.
 52 54  0  0  1  0            999 V2000
  -40.2324   62.7462   35.0926 N   0  0  0  0  0  0
  -39.0432   62.9491   33.1787 C   0  0  0  0  0  0
  -39.4000   62.0671   34.2076 C   0  0  0  0  0  0
  -39.6512   64.2069   33.4920 C   0  0  0  0  0  0
  -40.4154   64.0536   34.6741 C   0  0  0  0  0  0
  -38.1913   62.7476   31.9293 C   0  0  0  0  0  0
  -40.8915   62.1696   36.2714 C   0  0  0  0  0  0
  -41.1438   65.1206   35.2245 C   0  0  0  0  0  0
  -36.8699   63.5295   31.9127 C   0  0  0  0  0  0
  -37.6155   69.5511   30.8676 C   0  0  0  0  0  0
  -39.5939   65.4632   32.8777 C   0  0  0  0  0  0
  -39.0474   69.2966   30.3780 C   0  0  0  0  0  0
  -36.6535   64.4954   32.6426 O   0  0  0  0  0  0
  -36.9049   68.7235   31.4430 O   0  0  0  0  0  0
  -40.2471   66.5440   33.4578 C   0  0  0  0  0  0
  -35.9689   63.1400   31.0290 N   0  0  0  0  0  0
  -40.0151   68.1724   32.8080 S   0  0  0  0  0  0
  -41.0233   66.3658   34.6010 C   0  0  0  0  0  0
  -39.0395   60.6080   34.5112 C   0  0  0  0  0  0
  -39.7554   68.0805   31.0039 C   0  0  0  0  0  0
  -42.3306   61.7272   36.0349 C   0  0  0  0  0  0
  -37.2149   70.8026   30.5213 O   0  0  0  0  0  0
  -43.2767   61.9149   37.0457 C   0  0  0  0  0  0
  -42.7037   61.1080   34.8360 C   0  0  0  0  0  0
  -38.2143   59.8460   33.4719 C   0  0  0  0  0  0
  -44.5921   61.5026   36.8556 C   0  0  0  0  0  0
  -44.0155   60.6930   34.6477 C   0  0  0  0  0  0
  -44.9549   60.8978   35.6557 C   0  0  0  0  0  0
  -37.9874   61.7035   31.7174 H   0  0  0  0  0  0
  -38.7517   63.0913   31.0585 H   0  0  0  0  0  0
  -40.8575   62.9223   37.0608 H   0  0  0  0  0  0
  -40.3212   61.3233   36.6511 H   0  0  0  0  0  0
  -41.7367   65.0059   36.1204 H   0  0  0  0  0  0
  -38.9752   65.5845   32.0066 H   0  0  0  0  0  0
  -39.0077   69.1779   29.2946 H   0  0  0  0  0  0
  -39.6395   70.1915   30.5708 H   0  0  0  0  0  0
  -35.1302   63.6892   30.9081 H   0  0  0  0  0  0
  -36.2012   62.4280   30.3529 H   0  0  0  0  0  0
  -41.5275   67.2180   35.0343 H   0  0  0  0  0  0
  -38.4766   60.5765   35.4432 H   0  0  0  0  0  0
  -39.9417   60.0247   34.6965 H   0  0  0  0  0  0
  -39.1766   67.1974   30.7446 H   0  0  0  0  0  0
  -40.7290   67.9332   30.5353 H   0  0  0  0  0  0
  -36.2515   70.8963   30.6428 H   0  0  0  0  0  0
  -42.9981   62.3785   37.9812 H   0  0  0  0  0  0
  -41.9882   60.9458   34.0439 H   0  0  0  0  0  0
  -38.0148   58.8398   33.8429 H   0  0  0  0  0  0
  -38.7453   59.7498   32.5244 H   0  0  0  0  0  0
  -37.2482   60.3219   33.2999 H   0  0  0  0  0  0
  -45.3262   61.6490   37.6346 H   0  0  0  0  0  0
  -44.3094   60.2174   33.7231 H   0  0  0  0  0  0
  -45.9754   60.5757   35.5044 H   0  0  0  0  0  0
  1  3  1  0  0  0
  1  5  1  0  0  0
  1  7  1  0  0  0
  2  3  2  0  0  0
  2  6  1  0  0  0
  2  4  1  0  0  0
  3 19  1  0  0  0
  4  5  1  0  0  0
  4 11  2  0  0  0
  5  8  2  0  0  0
  6  9  1  0  0  0
  6 29  1  0  0  0
  6 30  1  0  0  0
  7 21  1  0  0  0
  7 31  1  0  0  0
  7 32  1  0  0  0
  8 18  1  0  0  0
  8 33  1  0  0  0
  9 13  2  0  0  0
  9 16  1  0  0  0
 10 12  1  0  0  0
 10 14  2  0  0  0
 10 22  1  0  0  0
 11 15  1  0  0  0
 11 34  1  0  0  0
 12 20  1  0  0  0
 12 35  1  0  0  0
 12 36  1  0  0  0
 15 18  2  0  0  0
 15 17  1  0  0  0
 16 37  1  0  0  0
 16 38  1  0  0  0
 17 20  1  0  0  0
 18 39  1  0  0  0
 19 25  1  0  0  0
 19 40  1  0  0  0
 19 41  1  0  0  0
 20 42  1  0  0  0
 20 43  1  0  0  0
 21 23  1  0  0  0
 21 24  2  0  0  0
 22 44  1  0  0  0
 23 26  2  0  0  0
 23 45  1  0  0  0
 24 27  1  0  0  0
 24 46  1  0  0  0
 25 47  1  0  0  0
 25 48  1  0  0  0
 25 49  1  0  0  0
 26 28  1  0  0  0
 26 50  1  0  0  0
 27 28  2  0  0  0
 27 51  1  0  0  0
 28 52  1  0  0  0
M  END
> <s_m_entry_id>
68080

> <s_m_entry_name>
dock_pv.16

> <s_m_Source_Path>
/home/csk/Desktop/cluster/DUD-E-result/pa2ga

> <s_m_Source_File>
dock_pv.maegz

> <i_m_Source_File_Index>
16

> <chembl_id>
CHEMBL149562

> <chembl_pref_name>
None

> <i_lp_mmshare_version>
53161

> <i_f3d_flags>
0

> <r_lp_tautomer_probability>
1

> <s_lp_Force_Field>
OPLS_2005

> <r_lp_Energy>
11.92438

> <b_lp_Chiralities_Consistent>
1

> <s_lp_Variant>
CHEMBL3474_lig62-1

> <s_i_glide_gridfile>
glide-grid_1kvo

> <i_i_glide_lignum>
102

> <i_i_glide_rotatable_bonds>
10

> <r_i_docking_score>
-9.10459864113009

> <r_i_glide_ligand_efficiency>
-0.325164237183217

> <r_i_glide_ligand_efficiency_sa>
-0.987390135582192

> <r_i_glide_ligand_efficiency_ln>
-2.10160868900482

> <r_i_glide_gscore>
-9.10459864113009

> <r_i_glide_lipo>
-3.85058284971587

> <r_i_glide_hbond>
-0.304

> <r_i_glide_metal>
0

> <r_i_glide_rewards>
-0.928282173969217

> <r_i_glide_evdw>
-44.2365341186523

> <r_i_glide_ecoul>
-17.3111190795898

> <r_i_glide_erotb>
0.871153461480872

> <r_i_glide_esite>
-0.0843925110547857

> <r_i_glide_emodel>
-96.0674415026468

> <r_i_glide_energy>
-61.5476531982422

> <r_i_glide_einternal>
7.70547151565552

> <i_i_glide_confnum>
80

> <i_i_glide_posenum>
195

> <r_i_glide_eff_state_penalty>
0

> <s_user_duplicate_titles>
CHEMBL3474_lig62,246756

> <s_m_subgroup_title>
dock_pv

> <s_m_subgroupid>
dock_pv

> <b_m_subgroup_collapsed>
1

$$$$
CHEMBL3474_lig37
                    3D
 Schrodinger Suite 2021-1.
 49 51  0  0  1  0            999 V2000
  -39.8676   61.7165   34.9167 N   0  0  0  0  0  0
  -38.9499   61.3104   33.9665 C   0  0  0  0  0  0
  -38.5451   62.3755   33.1752 C   0  0  0  0  0  0
  -39.3579   63.4835   33.6093 C   0  0  0  0  0  0
  -40.1130   63.0664   34.7428 C   0  0  0  0  0  0
  -37.5133   62.3311   32.0400 C   0  0  0  0  0  0
  -40.5480   60.8662   35.8998 C   0  0  0  0  0  0
  -40.9460   63.9480   35.4461 C   0  0  0  0  0  0
  -36.6502   63.5879   31.8169 C   0  0  0  0  0  0
  -39.5106   64.8013   33.1610 C   0  0  0  0  0  0
  -37.6150   69.5298   31.0597 C   0  0  0  0  0  0
  -38.4150   59.4887   33.8358 Br  0  0  0  0  0  0
  -36.5436   64.4877   32.6430 O   0  0  0  0  0  0
  -36.8673   68.9344   31.8424 O   0  0  0  0  0  0
  -40.3178   65.6988   33.8716 C   0  0  0  0  0  0
  -36.0224   63.6980   30.6570 N   0  0  0  0  0  0
  -41.0200   65.2603   34.9875 C   0  0  0  0  0  0
  -42.0598   60.8495   35.7186 C   0  0  0  0  0  0
  -37.2150   70.1152   29.9031 O   0  0  0  0  0  0
  -40.4460   67.0320   33.5463 O   0  0  0  0  0  0
  -39.1225   69.7423   31.2477 C   0  0  0  0  0  0
  -39.6201   67.5493   32.5129 C   0  0  0  0  0  0
  -42.8911   61.3284   36.7351 C   0  0  0  0  0  0
  -42.6116   60.3954   34.5190 C   0  0  0  0  0  0
  -39.7585   69.0720   32.4833 C   0  0  0  0  0  0
  -44.2704   61.3461   36.5626 C   0  0  0  0  0  0
  -43.9891   60.4331   34.3390 C   0  0  0  0  0  0
  -44.8128   60.8978   35.3636 C   0  0  0  0  0  0
  -36.8218   61.5027   32.1971 H   0  0  0  0  0  0
  -38.0150   62.1103   31.0983 H   0  0  0  0  0  0
  -40.2907   61.2252   36.8954 H   0  0  0  0  0  0
  -40.1760   59.8441   35.8430 H   0  0  0  0  0  0
  -41.5133   63.6385   36.3106 H   0  0  0  0  0  0
  -38.9737   65.1151   32.2823 H   0  0  0  0  0  0
  -35.5801   64.6012   30.4467 H   0  0  0  0  0  0
  -36.2336   63.0668   29.8982 H   0  0  0  0  0  0
  -41.6428   65.9654   35.5189 H   0  0  0  0  0  0
  -36.2445   70.0981   29.8430 H   0  0  0  0  0  0
  -39.6250   69.3893   30.3460 H   0  0  0  0  0  0
  -39.3002   70.8175   31.2948 H   0  0  0  0  0  0
  -38.5786   67.2803   32.6928 H   0  0  0  0  0  0
  -39.9250   67.1253   31.5540 H   0  0  0  0  0  0
  -42.4729   61.6981   37.6601 H   0  0  0  0  0  0
  -41.9760   60.0312   33.7238 H   0  0  0  0  0  0
  -40.8150   69.2980   32.5074 H   0  0  0  0  0  0
  -39.3891   69.5224   33.3991 H   0  0  0  0  0  0
  -44.9141   61.7092   37.3506 H   0  0  0  0  0  0
  -44.4150   60.0853   33.4100 H   0  0  0  0  0  0
  -45.8838   60.8981   35.2220 H   0  0  0  0  0  0
  1  2  1  0  0  0
  1  5  1  0  0  0
  1  7  1  0  0  0
  2  3  2  0  0  0
  2 12  1  0  0  0
  3  6  1  0  0  0
  3  4  1  0  0  0
  4  5  1  0  0  0
  4 10  2  0  0  0
  5  8  2  0  0  0
  6  9  1  0  0  0
  6 29  1  0  0  0
  6 30  1  0  0  0
  7 18  1  0  0  0
  7 31  1  0  0  0
  7 32  1  0  0  0
  8 17  1  0  0  0
  8 33  1  0  0  0
  9 13  2  0  0  0
  9 16  1  0  0  0
 10 15  1  0  0  0
 10 34  1  0  0  0
 11 21  1  0  0  0
 11 14  2  0  0  0
 11 19  1  0  0  0
 15 17  2  0  0  0
 15 20  1  0  0  0
 16 35  1  0  0  0
 16 36  1  0  0  0
 17 37  1  0  0  0
 18 23  2  0  0  0
 18 24  1  0  0  0
 19 38  1  0  0  0
 20 22  1  0  0  0
 21 25  1  0  0  0
 21 39  1  0  0  0
 21 40  1  0  0  0
 22 25  1  0  0  0
 22 41  1  0  0  0
 22 42  1  0  0  0
 23 26  1  0  0  0
 23 43  1  0  0  0
 24 27  2  0  0  0
 24 44  1  0  0  0
 25 45  1  0  0  0
 25 46  1  0  0  0
 26 28  2  0  0  0
 26 47  1  0  0  0
 27 28  1  0  0  0
 27 48  1  0  0  0
 28 49  1  0  0  0
M  END
> <s_m_entry_id>
68081

> <s_m_entry_name>
dock_pv.17

> <s_m_Source_Path>
/home/csk/Desktop/cluster/DUD-E-result/pa2ga

> <s_m_Source_File>
dock_pv.maegz

> <i_m_Source_File_Index>
17

> <chembl_id>
CHEMBL150005

> <chembl_pref_name>
None

> <i_lp_mmshare_version>
53161

> <i_f3d_flags>
0

> <r_lp_tautomer_probability>
1

> <s_lp_Force_Field>
OPLS_2005

> <r_lp_Energy>
11.451327

> <b_lp_Chiralities_Consistent>
1

> <s_lp_Variant>
CHEMBL3474_lig37-1

> <s_i_glide_gridfile>
glide-grid_1kvo

> <i_i_glide_lignum>
77

> <i_i_glide_rotatable_bonds>
10

> <r_i_docking_score>
-9.08151962867661

> <r_i_glide_ligand_efficiency>
-0.324339986738451

> <r_i_glide_ligand_efficiency_sa>
-0.984887225774329

> <r_i_glide_ligand_efficiency_ln>
-2.09628137530131

> <r_i_glide_gscore>
-9.08151962867661

> <r_i_glide_lipo>
-3.79218086307373

> <r_i_glide_hbond>
-0.486719981245197

> <r_i_glide_metal>
0

> <r_i_glide_rewards>
-0.711413982561086

> <r_i_glide_evdw>
-39.2965850830078

> <r_i_glide_ecoul>
-18.6294994354248

> <r_i_glide_erotb>
0.807154121586975

> <r_i_glide_esite>
-0.139104753919467

> <r_i_glide_emodel>
-91.8958743801894

> <r_i_glide_energy>
-57.9260845184326

> <r_i_glide_einternal>
4.53889322280884

> <i_i_glide_confnum>
130

> <i_i_glide_posenum>
36

> <r_i_glide_eff_state_penalty>
0

> <s_user_duplicate_titles>
CHEMBL3474_lig37,247420

> <s_m_subgroup_title>
dock_pv

> <s_m_subgroupid>
dock_pv

> <b_m_subgroup_collapsed>
1

$$$$
CHEMBL3474_lig48
                    3D
 Schrodinger Suite 2021-1.
 53 55  0  0  1  0            999 V2000
  -40.2077   62.8154   34.9041 N   0  0  0  0  0  0
  -39.2195   62.1817   34.1695 C   0  0  0  0  0  0
  -38.9353   62.9199   33.0371 C   0  0  0  0  0  0
  -39.8159   64.0420   33.0581 C   0  0  0  0  0  0
  -40.5703   63.9849   34.2594 C   0  0  0  0  0  0
  -37.9026   62.6261   31.9622 C   0  0  0  0  0  0
  -40.8247   62.3217   36.1408 C   0  0  0  0  0  0
  -41.4807   64.9914   34.6023 C   0  0  0  0  0  0
  -36.8116   63.6969   31.8346 C   0  0  0  0  0  0
  -40.0183   65.1025   32.1698 C   0  0  0  0  0  0
  -38.4155   60.7024   34.6427 S   0  0  0  0  0  0
  -37.5784   69.6138   31.2006 C   0  0  0  0  0  0
  -36.6824   64.6133   32.6429 O   0  0  0  0  0  0
  -36.8150   68.8982   31.8431 O   0  0  0  0  0  0
  -40.9181   66.1177   32.5028 C   0  0  0  0  0  0
  -36.0151   63.6020   30.7830 N   0  0  0  0  0  0
  -41.6140   66.0553   33.7094 C   0  0  0  0  0  0
  -42.2669   61.8410   35.9913 C   0  0  0  0  0  0
  -37.2151   70.7778   30.6000 O   0  0  0  0  0  0
  -41.1791   67.2028   31.6937 O   0  0  0  0  0  0
  -39.0413   69.2501   30.9563 C   0  0  0  0  0  0
  -39.6868   59.5018   34.1929 C   0  0  0  0  0  0
  -40.6239   67.2975   30.3859 C   0  0  0  0  0  0
  -42.7166   61.2501   34.8022 C   0  0  0  0  0  0
  -43.1342   61.9562   37.0808 C   0  0  0  0  0  0
  -39.1790   67.8187   30.3865 C   0  0  0  0  0  0
  -44.0207   60.7768   34.7120 C   0  0  0  0  0  0
  -44.4408   61.4867   36.9880 C   0  0  0  0  0  0
  -44.8778   60.8978   35.8037 C   0  0  0  0  0  0
  -37.4051   61.6717   32.1318 H   0  0  0  0  0  0
  -38.4077   62.5375   31.0005 H   0  0  0  0  0  0
  -40.7717   63.1308   36.8712 H   0  0  0  0  0  0
  -40.2426   61.4951   36.5460 H   0  0  0  0  0  0
  -42.0565   64.9531   35.5151 H   0  0  0  0  0  0
  -39.4594   65.1209   31.2485 H   0  0  0  0  0  0
  -35.3511   64.3480   30.5923 H   0  0  0  0  0  0
  -36.2231   62.9329   30.0569 H   0  0  0  0  0  0
  -42.3025   66.8500   33.9558 H   0  0  0  0  0  0
  -36.2452   70.8943   30.6429 H   0  0  0  0  0  0
  -39.5116   69.9735   30.2876 H   0  0  0  0  0  0
  -39.5543   69.3280   31.9156 H   0  0  0  0  0  0
  -39.2445   58.5042   34.2431 H   0  0  0  0  0  0
  -40.5173   59.5362   34.8942 H   0  0  0  0  0  0
  -40.0553   59.6858   33.1841 H   0  0  0  0  0  0
  -40.6942   66.3536   29.8448 H   0  0  0  0  0  0
  -41.2550   68.0005   29.8439 H   0  0  0  0  0  0
  -42.0604   61.1497   33.9496 H   0  0  0  0  0  0
  -42.7973   62.4040   38.0063 H   0  0  0  0  0  0
  -38.5517   67.1216   30.9420 H   0  0  0  0  0  0
  -38.8039   67.8021   29.3618 H   0  0  0  0  0  0
  -44.3758   60.3182   33.7981 H   0  0  0  0  0  0
  -45.1111   61.5737   37.8292 H   0  0  0  0  0  0
  -45.8925   60.5321   35.7257 H   0  0  0  0  0  0
  1  2  1  0  0  0
  1  5  1  0  0  0
  1  7  1  0  0  0
  2  3  2  0  0  0
  2 11  1  0  0  0
  3  6  1  0  0  0
  3  4  1  0  0  0
  4  5  1  0  0  0
  4 10  2  0  0  0
  5  8  2  0  0  0
  6  9  1  0  0  0
  6 30  1  0  0  0
  6 31  1  0  0  0
  7 18  1  0  0  0
  7 32  1  0  0  0
  7 33  1  0  0  0
  8 17  1  0  0  0
  8 34  1  0  0  0
  9 13  2  0  0  0
  9 16  1  0  0  0
 10 15  1  0  0  0
 10 35  1  0  0  0
 11 22  1  0  0  0
 12 21  1  0  0  0
 12 14  2  0  0  0
 12 19  1  0  0  0
 15 17  2  0  0  0
 15 20  1  0  0  0
 16 36  1  0  0  0
 16 37  1  0  0  0
 17 38  1  0  0  0
 18 24  2  0  0  0
 18 25  1  0  0  0
 19 39  1  0  0  0
 20 23  1  0  0  0
 21 26  1  0  0  0
 21 40  1  0  0  0
 21 41  1  0  0  0
 22 42  1  0  0  0
 22 43  1  0  0  0
 22 44  1  0  0  0
 23 26  1  0  0  0
 23 45  1  0  0  0
 23 46  1  0  0  0
 24 27  1  0  0  0
 24 47  1  0  0  0
 25 28  2  0  0  0
 25 48  1  0  0  0
 26 49  1  0  0  0
 26 50  1  0  0  0
 27 29  2  0  0  0
 27 51  1  0  0  0
 28 29  1  0  0  0
 28 52  1  0  0  0
 29 53  1  0  0  0
M  END
> <s_m_entry_id>
68082

> <s_m_entry_name>
dock_pv.18

> <s_m_Source_Path>
/home/csk/Desktop/cluster/DUD-E-result/pa2ga

> <s_m_Source_File>
dock_pv.maegz

> <i_m_Source_File_Index>
18

> <chembl_id>
CHEMBL357620

> <chembl_pref_name>
None

> <i_lp_mmshare_version>
53161

> <i_f3d_flags>
0

> <r_lp_tautomer_probability>
1

> <s_lp_Force_Field>
OPLS_2005

> <r_lp_Energy>
12.617304

> <b_lp_Chiralities_Consistent>
1

> <s_lp_Variant>
CHEMBL3474_lig48-1

> <s_i_glide_gridfile>
glide-grid_1kvo

> <i_i_glide_lignum>
88

> <i_i_glide_rotatable_bonds>
11

> <r_i_docking_score>
-9.05515339197872

> <r_i_glide_ligand_efficiency>
-0.312246668688921

> <r_i_glide_ligand_efficiency_sa>
-0.959320692900555

> <r_i_glide_ligand_efficiency_ln>
-2.07340050788516

> <r_i_glide_gscore>
-9.05515339197872

> <r_i_glide_lipo>
-3.75419982333593

> <r_i_glide_hbond>
-0.437953536131898

> <r_i_glide_metal>
0

> <r_i_glide_rewards>
-0.813236872600749

> <r_i_glide_evdw>
-38.2407569885254

> <r_i_glide_ecoul>
-19.4195251464844

> <r_i_glide_erotb>
0.927112900194559

> <r_i_glide_esite>
-0.151909438705778

> <r_i_glide_emodel>
-93.3546909487316

> <r_i_glide_energy>
-57.6602821350098

> <r_i_glide_einternal>
5.59424829483032

> <i_i_glide_confnum>
83

> <i_i_glide_posenum>
292

> <r_i_glide_eff_state_penalty>
0

> <s_user_duplicate_titles>
CHEMBL3474_lig48,246744

> <s_m_subgroup_title>
dock_pv

> <s_m_subgroupid>
dock_pv

> <b_m_subgroup_collapsed>
1

$$$$
CHEMBL3474_lig360 
                    3D
 Schrodinger Suite 2021-1.
 55 58  0  0  1  0            999 V2000
  -36.9258   61.9222   33.0790 C   0  0  0  0  0  0
  -37.6150   60.9817   33.8380 C   0  0  0  0  0  0
  -38.9543   61.1767   34.1709 C   0  0  0  0  0  0
  -39.5913   62.3364   33.7219 C   0  0  0  0  0  0
  -38.9236   63.2860   32.9429 C   0  0  0  0  0  0
  -37.5661   63.0790   32.6209 C   0  0  0  0  0  0
  -36.7600   64.0681   31.8244 C   0  0  0  0  0  0
  -37.2150   64.4980   30.6591 N   0  0  0  0  0  0
  -35.7000   64.4980   32.2430 O   0  0  0  0  0  0
  -39.6952   60.1113   34.9813 C   0  0  0  0  0  0
  -41.2164   60.2355   35.0083 C   0  0  0  0  0  0
  -41.8567   60.7454   36.1406 C   0  0  0  0  0  0
  -43.2429   60.8782   36.1547 C   0  0  0  0  0  0
  -43.9830   60.5006   35.0360 C   0  0  0  0  0  0
  -43.3506   59.9891   33.9049 C   0  0  0  0  0  0
  -41.9662   59.8512   33.8931 C   0  0  0  0  0  0
  -39.7106   64.4260   32.4219 C   0  0  0  0  0  0
  -40.7451   64.1485   31.5331 C   0  0  0  0  0  0
  -41.4424   65.1781   30.9320 C   0  0  0  0  0  0
  -41.1377   66.5034   31.2259 C   0  0  0  0  0  0
  -40.1414   66.8060   32.1535 C   0  0  0  0  0  0
  -39.4224   65.7599   32.7447 C   0  0  0  0  0  0
  -39.8768   68.2625   32.5260 C   0  0  0  0  0  0
  -39.1975   69.1235   31.4264 C   0  0  2  0  0  0
  -37.7775   68.6202   31.1300 C   0  0  0  0  0  0
  -36.8150   68.8980   31.8430 O   0  0  0  0  0  0
  -37.7312   67.8127   30.0321 O   0  0  0  0  0  0
  -39.1894   70.6266   31.8213 C   0  0  0  0  0  0
  -38.5067   71.6556   30.9424 C   0  0  0  0  0  0
  -40.0150   71.6282   31.0444 C   0  0  0  0  0  0
  -35.8874   61.7343   32.8422 H   0  0  0  0  0  0
  -37.0963   60.0980   34.1630 H   0  0  0  0  0  0
  -40.6325   62.5047   33.9565 H   0  0  0  0  0  0
  -36.6021   65.1417   30.1676 H   0  0  0  0  0  0
  -37.9030   63.9772   30.1223 H   0  0  0  0  0  0
  -39.4450   59.1282   34.5798 H   0  0  0  0  0  0
  -39.3053   60.1222   36.0006 H   0  0  0  0  0  0
  -41.2815   61.0458   37.0047 H   0  0  0  0  0  0
  -43.7412   61.2739   37.0277 H   0  0  0  0  0  0
  -45.0586   60.6034   35.0429 H   0  0  0  0  0  0
  -43.9344   59.6981   33.0432 H   0  0  0  0  0  0
  -41.4760   59.4625   33.0122 H   0  0  0  0  0  0
  -40.9972   63.1295   31.2818 H   0  0  0  0  0  0
  -42.2319   64.9191   30.2430 H   0  0  0  0  0  0
  -41.6812   67.2980   30.7406 H   0  0  0  0  0  0
  -38.6299   65.9777   33.4430 H   0  0  0  0  0  0
  -39.2893   68.2854   33.4430 H   0  0  0  0  0  0
  -40.8339   68.7056   32.7964 H   0  0  0  0  0  0
  -39.7783   69.0308   30.5069 H   0  0  0  0  0  0
  -36.8534   67.4695   29.8430 H   0  0  0  0  0  0
  -39.0748   70.7766   32.8966 H   0  0  0  0  0  0
  -38.0357   71.3360   30.0115 H   0  0  0  0  0  0
  -37.9544   72.4638   31.4231 H   0  0  0  0  0  0
  -40.5179   72.4261   31.5917 H   0  0  0  0  0  0
  -40.5767   71.3064   30.1670 H   0  0  0  0  0  0
  1  2  2  0  0  0
  1  6  1  0  0  0
  1 31  1  0  0  0
  2  3  1  0  0  0
  2 32  1  0  0  0
  3  4  2  0  0  0
  3 10  1  0  0  0
  4  5  1  0  0  0
  4 33  1  0  0  0
  5  6  2  0  0  0
  5 17  1  0  0  0
  6  7  1  0  0  0
  7  8  1  0  0  0
  7  9  2  0  0  0
  8 34  1  0  0  0
  8 35  1  0  0  0
 10 11  1  0  0  0
 10 36  1  0  0  0
 10 37  1  0  0  0
 11 12  2  0  0  0
 11 16  1  0  0  0
 12 13  1  0  0  0
 12 38  1  0  0  0
 13 14  2  0  0  0
 13 39  1  0  0  0
 14 15  1  0  0  0
 14 40  1  0  0  0
 15 16  2  0  0  0
 15 41  1  0  0  0
 16 42  1  0  0  0
 17 18  2  0  0  0
 17 22  1  0  0  0
 18 19  1  0  0  0
 18 43  1  0  0  0
 19 20  2  0  0  0
 19 44  1  0  0  0
 20 21  1  0  0  0
 20 45  1  0  0  0
 21 22  2  0  0  0
 21 23  1  0  0  0
 22 46  1  0  0  0
 23 24  1  0  0  0
 23 47  1  0  0  0
 23 48  1  0  0  0
 24 25  1  0  0  0
 24 28  1  0  0  0
 24 49  1  0  0  0
 25 26  2  0  0  0
 25 27  1  0  0  0
 27 50  1  0  0  0
 28 29  1  0  0  0
 28 30  1  0  0  0
 28 51  1  0  0  0
 29 30  1  0  0  0
 29 52  1  0  0  0
 29 53  1  0  0  0
 30 54  1  0  0  0
 30 55  1  0  0  0
M  END
> <s_m_entry_id>
68083

> <s_m_entry_name>
dock_pv.19

> <s_m_Source_Path>
/home/csk/Desktop/cluster/DUD-E-result/pa2ga

> <s_m_Source_File>
dock_pv.maegz

> <i_m_Source_File_Index>
19

> <chembl_id>
CHEMBL4453126

> <chembl_pref_name>
None

> <i_lp_mmshare_version>
53161

> <i_f3d_flags>
0

> <r_lp_tautomer_probability>
1

> <s_lp_Force_Field>
OPLS_2005

> <r_lp_Energy>
33.559162

> <b_lp_Chiralities_Consistent>
1

> <s_lp_Variant>
CHEMBL3474_lig360 -1

> <s_i_glide_gridfile>
glide-grid_1kvo

> <i_i_glide_lignum>
455

> <i_i_glide_rotatable_bonds>
9

> <r_i_docking_score>
-9.03787238868597

> <r_i_glide_ligand_efficiency>
-0.301262412956199

> <r_i_glide_ligand_efficiency_sa>
-0.936092361298318

> <r_i_glide_ligand_efficiency_ln>
-2.0535030822164

> <r_i_glide_gscore>
-9.03787238868597

> <r_i_glide_lipo>
-4.83358100249672

> <r_i_glide_hbond>
-0.529182981489553

> <r_i_glide_metal>
0

> <r_i_glide_rewards>
-0.763204959052018

> <r_i_glide_evdw>
-41.0083465576172

> <r_i_glide_ecoul>
-9.81239128112793

> <r_i_glide_erotb>
0.859503895778876

> <r_i_glide_esite>
-0.249131321376508

> <r_i_glide_emodel>
-82.4510356929403

> <r_i_glide_energy>
-50.8207378387451

> <r_i_glide_einternal>
5.32192039489746

> <i_i_glide_confnum>
48

> <i_i_glide_posenum>
202

> <r_i_glide_eff_state_penalty>
0

> <s_user_duplicate_titles>
CHEMBL3474_lig360 

> <s_m_subgroup_title>
dock_pv

> <s_m_subgroupid>
dock_pv

> <b_m_subgroup_collapsed>
1

$$$$
CHEMBL3474_lig45
                    3D
 Schrodinger Suite 2021-1.
 55 57  0  0  1  0            999 V2000
  -40.0369   62.5068   34.7740 N   0  0  0  0  0  0
  -38.5940   62.5850   33.0311 C   0  0  0  0  0  0
  -39.0472   61.8165   34.0871 C   0  0  0  0  0  0
  -40.3137   63.7041   34.1124 C   0  0  0  0  0  0
  -39.4491   63.7300   32.9794 C   0  0  0  0  0  0
  -41.2174   64.7611   34.3686 C   0  0  0  0  0  0
  -37.4551   62.2833   32.0613 C   0  0  0  0  0  0
  -40.7200   62.0065   35.9782 C   0  0  0  0  0  0
  -39.5286   64.7913   32.0728 C   0  0  0  0  0  0
  -36.4557   63.4341   31.8430 C   0  0  0  0  0  0
  -41.2150   65.8122   33.4431 C   0  0  0  0  0  0
  -37.6149   69.7242   31.3278 C   0  0  0  0  0  0
  -40.4002   65.8487   32.3188 C   0  0  0  0  0  0
  -36.4226   64.4442   32.5448 O   0  0  0  0  0  0
  -36.8575   68.8980   31.8430 O   0  0  0  0  0  0
  -35.6152   63.2980   30.8334 N   0  0  0  0  0  0
  -38.5863   60.4418   34.5212 C   0  0  0  0  0  0
  -42.1593   61.5430   35.7754 C   0  0  0  0  0  0
  -37.2150   70.8665   30.7121 O   0  0  0  0  0  0
  -40.4997   66.9592   31.5069 O   0  0  0  0  0  0
  -42.1898   64.8778   35.5320 C   0  0  0  0  0  0
  -39.1327   69.5723   31.2373 C   0  0  0  0  0  0
  -39.5340   67.1531   30.4733 C   0  0  0  0  0  0
  -42.5741   60.9637   34.5700 C   0  0  0  0  0  0
  -43.0714   61.7000   36.8244 C   0  0  0  0  0  0
  -39.5539   68.6352   30.0810 C   0  0  0  0  0  0
  -43.9028   60.5864   34.4045 C   0  0  0  0  0  0
  -44.4002   61.3236   36.6566 C   0  0  0  0  0  0
  -44.8114   60.7818   35.4432 C   0  0  0  0  0  0
  -36.8796   61.4155   32.3817 H   0  0  0  0  0  0
  -37.8762   62.0208   31.0902 H   0  0  0  0  0  0
  -40.6799   62.8007   36.7234 H   0  0  0  0  0  0
  -40.1600   61.1800   36.4155 H   0  0  0  0  0  0
  -38.8918   64.7815   31.2030 H   0  0  0  0  0  0
  -41.8828   66.6468   33.5962 H   0  0  0  0  0  0
  -35.0070   64.0704   30.5886 H   0  0  0  0  0  0
  -35.7073   62.5181   30.2025 H   0  0  0  0  0  0
  -37.9492   59.9608   33.7817 H   0  0  0  0  0  0
  -38.0167   60.4981   35.4430 H   0  0  0  0  0  0
  -39.4208   59.7622   34.6897 H   0  0  0  0  0  0
  -36.2449   70.8967   30.6429 H   0  0  0  0  0  0
  -42.7052   65.8392   35.5463 H   0  0  0  0  0  0
  -42.9564   64.1088   35.4586 H   0  0  0  0  0  0
  -41.6734   64.7808   36.4855 H   0  0  0  0  0  0
  -39.5652   70.5613   31.0760 H   0  0  0  0  0  0
  -39.5199   69.2295   32.1969 H   0  0  0  0  0  0
  -38.5235   66.9005   30.7997 H   0  0  0  0  0  0
  -39.7692   66.5145   29.6219 H   0  0  0  0  0  0
  -41.8773   60.8171   33.7566 H   0  0  0  0  0  0
  -42.7573   62.1322   37.7639 H   0  0  0  0  0  0
  -38.9208   68.7895   29.2040 H   0  0  0  0  0  0
  -40.5546   68.8964   29.7501 H   0  0  0  0  0  0
  -44.2331   60.1546   33.4702 H   0  0  0  0  0  0
  -45.1098   61.4581   37.4604 H   0  0  0  0  0  0
  -45.8451   60.4981   35.3070 H   0  0  0  0  0  0
  1  3  1  0  0  0
  1  4  1  0  0  0
  1  8  1  0  0  0
  2  3  2  0  0  0
  2  7  1  0  0  0
  2  5  1  0  0  0
  3 17  1  0  0  0
  4  5  1  0  0  0
  4  6  2  0  0  0
  5  9  2  0  0  0
  6 11  1  0  0  0
  6 21  1  0  0  0
  7 10  1  0  0  0
  7 30  1  0  0  0
  7 31  1  0  0  0
  8 18  1  0  0  0
  8 32  1  0  0  0
  8 33  1  0  0  0
  9 13  1  0  0  0
  9 34  1  0  0  0
 10 14  2  0  0  0
 10 16  1  0  0  0
 11 13  2  0  0  0
 11 35  1  0  0  0
 12 22  1  0  0  0
 12 15  2  0  0  0
 12 19  1  0  0  0
 13 20  1  0  0  0
 16 36  1  0  0  0
 16 37  1  0  0  0
 17 38  1  0  0  0
 17 39  1  0  0  0
 17 40  1  0  0  0
 18 24  2  0  0  0
 18 25  1  0  0  0
 19 41  1  0  0  0
 20 23  1  0  0  0
 21 42  1  0  0  0
 21 43  1  0  0  0
 21 44  1  0  0  0
 22 26  1  0  0  0
 22 45  1  0  0  0
 22 46  1  0  0  0
 23 26  1  0  0  0
 23 47  1  0  0  0
 23 48  1  0  0  0
 24 27  1  0  0  0
 24 49  1  0  0  0
 25 28  2  0  0  0
 25 50  1  0  0  0
 26 51  1  0  0  0
 26 52  1  0  0  0
 27 29  2  0  0  0
 27 53  1  0  0  0
 28 29  1  0  0  0
 28 54  1  0  0  0
 29 55  1  0  0  0
M  END
> <s_m_entry_id>
68084

> <s_m_entry_name>
dock_pv.20

> <s_m_Source_Path>
/home/csk/Desktop/cluster/DUD-E-result/pa2ga

> <s_m_Source_File>
dock_pv.maegz

> <i_m_Source_File_Index>
20

> <chembl_id>
CHEMBL146198

> <chembl_pref_name>
None

> <i_lp_mmshare_version>
53161

> <i_f3d_flags>
0

> <r_lp_tautomer_probability>
1

> <s_lp_Force_Field>
OPLS_2005

> <r_lp_Energy>
16.424333

> <b_lp_Chiralities_Consistent>
1

> <s_lp_Variant>
CHEMBL3474_lig45-1

> <s_i_glide_gridfile>
glide-grid_1kvo

> <i_i_glide_lignum>
85

> <i_i_glide_rotatable_bonds>
10

> <r_i_docking_score>
-8.97207087488666

> <r_i_glide_ligand_efficiency>
-0.309381754306437

> <r_i_glide_ligand_efficiency_sa>
-0.950518768248977

> <r_i_glide_ligand_efficiency_ln>
-2.05437671826194

> <r_i_glide_gscore>
-8.97207087488666

> <r_i_glide_lipo>
-3.73473547179898

> <r_i_glide_hbond>
-0.433280543902386

> <r_i_glide_metal>
0

> <r_i_glide_rewards>
-0.97301632384064

> <r_i_glide_evdw>
-40.8295593261719

> <r_i_glide_ecoul>
-18.0806522369385

> <r_i_glide_erotb>
1.0048816824556

> <r_i_glide_esite>
-0.0823444159508889

> <r_i_glide_emodel>
-92.8464283416582

> <r_i_glide_energy>
-58.9102115631104

> <r_i_glide_einternal>
6.26725101470947

> <i_i_glide_confnum>
210

> <i_i_glide_posenum>
272

> <r_i_glide_eff_state_penalty>
0

> <s_user_duplicate_titles>
CHEMBL3474_lig45,246311

> <s_m_subgroup_title>
dock_pv

> <s_m_subgroupid>
dock_pv

> <b_m_subgroup_collapsed>
1

$$$$
CHEMBL3474_lig362 
                    3D
 Schrodinger Suite 2021-1.
 51 53  0  0  1  0            999 V2000
  -37.3680   61.6178   33.4430 C   0  0  0  0  0  0
  -38.1371   60.9903   34.4107 C   0  0  0  0  0  0
  -39.3738   61.4942   34.7835 C   0  0  0  0  0  0
  -39.8274   62.6612   34.1721 C   0  0  0  0  0  0
  -39.0892   63.2972   33.1657 C   0  0  0  0  0  0
  -37.8284   62.7642   32.7790 C   0  0  0  0  0  0
  -36.9630   63.2955   31.6478 C   0  0  0  0  0  0
  -37.2150   64.4978   31.1446 N   0  0  0  0  0  0
  -36.0136   62.6500   31.2189 O   0  0  0  0  0  0
  -40.2211   60.7320   35.7998 C   0  0  0  0  0  0
  -41.7182   60.7627   35.5375 C   0  0  0  0  0  0
  -42.2416   60.0992   34.4242 C   0  0  0  0  0  0
  -43.6085   60.1479   34.1729 C   0  0  0  0  0  0
  -44.4411   60.8459   35.0443 C   0  0  0  0  0  0
  -43.9288   61.4965   36.1624 C   0  0  0  0  0  0
  -42.5616   61.4564   36.4090 C   0  0  0  0  0  0
  -39.7724   64.4142   32.4765 C   0  0  0  0  0  0
  -40.8151   64.1024   31.6079 C   0  0  0  0  0  0
  -41.4595   65.1033   30.9012 C   0  0  0  0  0  0
  -41.0701   66.4306   31.0431 C   0  0  0  0  0  0
  -40.0178   66.7614   31.8949 C   0  0  0  0  0  0
  -39.3950   65.7538   32.6421 C   0  0  0  0  0  0
  -39.5419   68.2040   31.9763 C   0  0  0  0  0  0
  -38.7559   68.7456   30.7272 C   0  0  1  0  0  0
  -37.4629   69.4354   31.1670 C   0  0  0  0  0  0
  -36.6886   68.9011   31.9515 O   0  0  0  0  0  0
  -37.2151   70.6094   30.5236 O   0  0  0  0  0  0
  -38.3624   67.7030   29.6432 C   0  0  0  0  0  0
  -36.4180   61.1678   33.1879 H   0  0  0  0  0  0
  -37.7683   60.0980   34.8737 H   0  0  0  0  0  0
  -40.7994   63.0512   34.4401 H   0  0  0  0  0  0
  -36.6055   64.8498   30.4131 H   0  0  0  0  0  0
  -38.1162   64.9243   31.3026 H   0  0  0  0  0  0
  -39.9120   59.6866   35.8290 H   0  0  0  0  0  0
  -40.0150   61.1201   36.7945 H   0  0  0  0  0  0
  -41.5903   59.5630   33.7490 H   0  0  0  0  0  0
  -44.0224   59.6481   33.3090 H   0  0  0  0  0  0
  -45.5039   60.8764   34.8528 H   0  0  0  0  0  0
  -44.5867   62.0310   36.8317 H   0  0  0  0  0  0
  -42.1619   61.9685   37.2726 H   0  0  0  0  0  0
  -41.1310   63.0775   31.4766 H   0  0  0  0  0  0
  -42.2724   64.8376   30.2431 H   0  0  0  0  0  0
  -41.5684   67.1975   30.4683 H   0  0  0  0  0  0
  -38.5821   65.9981   33.3098 H   0  0  0  0  0  0
  -38.9828   68.3018   32.9087 H   0  0  0  0  0  0
  -40.4150   68.8324   32.1456 H   0  0  0  0  0  0
  -39.3874   69.4935   30.2440 H   0  0  0  0  0  0
  -36.2780   70.8548   30.6415 H   0  0  0  0  0  0
  -37.8648   68.1755   28.7942 H   0  0  0  0  0  0
  -37.6775   66.9479   30.0291 H   0  0  0  0  0  0
  -39.2150   67.1749   29.2292 H   0  0  0  0  0  0
  1  2  2  0  0  0
  1  6  1  0  0  0
  1 29  1  0  0  0
  2  3  1  0  0  0
  2 30  1  0  0  0
  3  4  2  0  0  0
  3 10  1  0  0  0
  4  5  1  0  0  0
  4 31  1  0  0  0
  5  6  2  0  0  0
  5 17  1  0  0  0
  6  7  1  0  0  0
  7  8  1  0  0  0
  7  9  2  0  0  0
  8 32  1  0  0  0
  8 33  1  0  0  0
 10 11  1  0  0  0
 10 34  1  0  0  0
 10 35  1  0  0  0
 11 12  2  0  0  0
 11 16  1  0  0  0
 12 13  1  0  0  0
 12 36  1  0  0  0
 13 14  2  0  0  0
 13 37  1  0  0  0
 14 15  1  0  0  0
 14 38  1  0  0  0
 15 16  2  0  0  0
 15 39  1  0  0  0
 16 40  1  0  0  0
 17 18  2  0  0  0
 17 22  1  0  0  0
 18 19  1  0  0  0
 18 41  1  0  0  0
 19 20  2  0  0  0
 19 42  1  0  0  0
 20 21  1  0  0  0
 20 43  1  0  0  0
 21 22  2  0  0  0
 21 23  1  0  0  0
 22 44  1  0  0  0
 23 24  1  0  0  0
 23 45  1  0  0  0
 23 46  1  0  0  0
 24 25  1  0  0  0
 24 28  1  0  0  0
 24 47  1  0  0  0
 25 26  2  0  0  0
 25 27  1  0  0  0
 27 48  1  0  0  0
 28 49  1  0  0  0
 28 50  1  0  0  0
 28 51  1  0  0  0
M  END
> <s_m_entry_id>
68085

> <s_m_entry_name>
dock_pv.21

> <s_m_Source_Path>
/home/csk/Desktop/cluster/DUD-E-result/pa2ga

> <s_m_Source_File>
dock_pv.maegz

> <i_m_Source_File_Index>
21

> <chembl_id>
CHEMBL4451830

> <chembl_pref_name>
None

> <i_lp_mmshare_version>
53161

> <i_f3d_flags>
0

> <r_lp_tautomer_probability>
1

> <s_lp_Force_Field>
OPLS_2005

> <r_lp_Energy>
25.204454

> <b_lp_Chiralities_Consistent>
1

> <s_lp_Variant>
CHEMBL3474_lig362 -2

> <s_i_glide_gridfile>
glide-grid_1kvo

> <i_i_glide_lignum>
460

> <i_i_glide_rotatable_bonds>
8

> <r_i_docking_score>
-8.95780481721734

> <r_i_glide_ligand_efficiency>
-0.319921600614905

> <r_i_glide_ligand_efficiency_sa>
-0.971470403212984

> <r_i_glide_ligand_efficiency_ln>
-2.06772436439181

> <r_i_glide_gscore>
-8.95780481721734

> <r_i_glide_lipo>
-4.7191357207558

> <r_i_glide_hbond>
-0.127709911245167

> <r_i_glide_metal>
0

> <r_i_glide_rewards>
-0.862879636363636

> <r_i_glide_evdw>
-41.6498031616211

> <r_i_glide_ecoul>
-12.158878326416

> <r_i_glide_erotb>
0.831424017377183

> <r_i_glide_esite>
-0.173181659186459

> <r_i_glide_emodel>
-78.4572763180716

> <r_i_glide_energy>
-53.8086814880371

> <r_i_glide_einternal>
10.3755970001221

> <i_i_glide_confnum>
5

> <i_i_glide_posenum>
331

> <r_i_glide_eff_state_penalty>
0

> <s_user_duplicate_titles>
CHEMBL3474_lig362 ,CHEMBL3474_lig359 

> <s_m_subgroup_title>
dock_pv

> <s_m_subgroupid>
dock_pv

> <b_m_subgroup_collapsed>
1

$$$$
CHEMBL3474_lig35
                    3D
 Schrodinger Suite 2021-1.
 57 59  0  0  1  0            999 V2000
  -39.3095   69.0904   30.9439 C   0  0  0  0  0  0
  -39.2375   67.6306   30.4466 C   0  0  0  0  0  0
  -40.6077   66.9368   30.4537 C   0  0  0  0  0  0
  -41.1861   66.9019   31.7549 O   0  0  0  0  0  0
  -40.3505   62.6085   35.1216 N   0  0  0  0  0  0
  -39.2917   61.9735   34.4794 C   0  0  0  0  0  0
  -38.8925   62.7277   33.3825 C   0  0  0  0  0  0
  -39.7813   63.8471   33.3182 C   0  0  0  0  0  0
  -39.9353   64.8942   32.3993 C   0  0  0  0  0  0
  -40.9001   65.8775   32.6293 C   0  0  0  0  0  0
  -41.6692   65.8319   33.7872 C   0  0  0  0  0  0
  -41.5971   64.7794   34.6941 C   0  0  0  0  0  0
  -40.6450   63.7828   34.4443 C   0  0  0  0  0  0
  -41.1443   62.0848   36.2496 C   0  0  0  0  0  0
  -41.4050   63.0244   37.4331 C   0  0  0  0  0  0
  -40.5569   64.0983   37.7337 C   0  0  0  0  0  0
  -40.8146   64.9089   38.8354 C   0  0  0  0  0  0
  -41.9214   64.6498   39.6391 C   0  0  0  0  0  0
  -42.7743   63.5887   39.3486 C   0  0  0  0  0  0
  -42.5149   62.7783   38.2467 C   0  0  0  0  0  0
  -38.7403   60.6245   34.9070 C   0  0  0  0  0  0
  -39.3661   59.4789   34.0972 C   0  0  0  0  0  0
  -37.7957   62.3929   32.3741 C   0  0  0  0  0  0
  -36.8165   63.5231   32.0322 C   0  0  0  0  0  0
  -36.7869   64.5883   32.6429 O   0  0  0  0  0  0
  -35.9917   63.2981   31.0224 N   0  0  0  0  0  0
  -37.6756   69.7488   31.4425 P   0  0  0  0  0  0
  -37.6158   71.0207   32.2082 O   0  0  0  0  0  0
  -37.0505   68.4980   32.2429 O   0  0  0  0  0  0
  -36.8150   69.7157   30.0758 O   0  0  0  0  0  0
  -39.7267   69.7394   30.1741 H   0  0  0  0  0  0
  -39.9629   69.1634   31.8137 H   0  0  0  0  0  0
  -38.5573   67.0372   31.0558 H   0  0  0  0  0  0
  -38.8177   67.6085   29.4391 H   0  0  0  0  0  0
  -40.5555   65.9463   29.9986 H   0  0  0  0  0  0
  -41.2984   67.5155   29.8431 H   0  0  0  0  0  0
  -39.3108   64.9155   31.5213 H   0  0  0  0  0  0
  -42.4059   66.6035   33.9526 H   0  0  0  0  0  0
  -42.2588   64.7460   35.5470 H   0  0  0  0  0  0
  -40.6951   61.1774   36.6483 H   0  0  0  0  0  0
  -42.1039   61.7850   35.8238 H   0  0  0  0  0  0
  -39.6843   64.2988   37.1303 H   0  0  0  0  0  0
  -40.1474   65.7244   39.0724 H   0  0  0  0  0  0
  -42.1181   65.2728   40.4992 H   0  0  0  0  0  0
  -43.6291   63.3932   39.9797 H   0  0  0  0  0  0
  -43.1766   61.9511   38.0327 H   0  0  0  0  0  0
  -37.6629   60.6137   34.7360 H   0  0  0  0  0  0
  -38.8394   60.4302   35.9715 H   0  0  0  0  0  0
  -38.8231   58.5450   34.2430 H   0  0  0  0  0  0
  -40.4097   59.3164   34.3736 H   0  0  0  0  0  0
  -39.3389   59.6936   33.0277 H   0  0  0  0  0  0
  -37.2045   61.5370   32.6976 H   0  0  0  0  0  0
  -38.2625   62.0894   31.4403 H   0  0  0  0  0  0
  -35.3805   64.0398   30.7019 H   0  0  0  0  0  0
  -36.0892   62.4628   30.4656 H   0  0  0  0  0  0
  -37.6163   68.1699   32.9732 H   0  0  0  0  0  0
  -35.8943   70.0981   30.1777 H   0  0  0  0  0  0
  1 27  1  0  0  0
  1  2  1  0  0  0
  1 31  1  0  0  0
  1 32  1  0  0  0
  2  3  1  0  0  0
  2 33  1  0  0  0
  2 34  1  0  0  0
  3  4  1  0  0  0
  3 35  1  0  0  0
  3 36  1  0  0  0
  4 10  1  0  0  0
  5  6  1  0  0  0
  5 13  1  0  0  0
  5 14  1  0  0  0
  6  7  2  0  0  0
  6 21  1  0  0  0
  7  8  1  0  0  0
  7 23  1  0  0  0
  8  9  1  0  0  0
  8 13  2  0  0  0
  9 10  2  0  0  0
  9 37  1  0  0  0
 10 11  1  0  0  0
 11 12  2  0  0  0
 11 38  1  0  0  0
 12 13  1  0  0  0
 12 39  1  0  0  0
 14 15  1  0  0  0
 14 40  1  0  0  0
 14 41  1  0  0  0
 15 16  1  0  0  0
 15 20  2  0  0  0
 16 17  2  0  0  0
 16 42  1  0  0  0
 17 18  1  0  0  0
 17 43  1  0  0  0
 18 19  2  0  0  0
 18 44  1  0  0  0
 19 20  1  0  0  0
 19 45  1  0  0  0
 20 46  1  0  0  0
 21 22  1  0  0  0
 21 47  1  0  0  0
 21 48  1  0  0  0
 22 49  1  0  0  0
 22 50  1  0  0  0
 22 51  1  0  0  0
 23 24  1  0  0  0
 23 52  1  0  0  0
 23 53  1  0  0  0
 24 25  2  0  0  0
 24 26  1  0  0  0
 26 54  1  0  0  0
 26 55  1  0  0  0
 27 28  2  0  0  0
 27 29  1  0  0  0
 27 30  1  0  0  0
 29 56  1  0  0  0
 30 57  1  0  0  0
M  END
> <s_m_entry_id>
68087

> <s_m_entry_name>
dock_pv.23

> <s_m_Source_Path>
/home/csk/Desktop/cluster/DUD-E-result/pa2ga

> <s_m_Source_File>
dock_pv.maegz

> <i_m_Source_File_Index>
23

> <chembl_id>
CHEMBL146186

> <chembl_pref_name>
None

> <i_lp_mmshare_version>
53161

> <i_f3d_flags>
0

> <r_lp_tautomer_probability>
1

> <s_lp_Force_Field>
OPLS_2005

> <r_lp_Energy>
-1.281765

> <b_lp_Chiralities_Consistent>
1

> <s_lp_Variant>
CHEMBL3474_lig35-1

> <s_i_glide_gridfile>
glide-grid_1kvo

> <i_i_glide_lignum>
75

> <i_i_glide_rotatable_bonds>
12

> <r_i_docking_score>
-8.95225663201686

> <r_i_glide_ligand_efficiency>
-0.298408554400562

> <r_i_glide_ligand_efficiency_sa>
-0.927224759236902

> <r_i_glide_ligand_efficiency_ln>
-2.03405024944279

> <r_i_glide_gscore>
-8.95225663201686

> <r_i_glide_lipo>
-3.09178866687908

> <r_i_glide_hbond>
-0.639278651766377

> <r_i_glide_metal>
0

> <r_i_glide_rewards>
-0.700219148854899

> <r_i_glide_evdw>
-33.8348731994629

> <r_i_glide_ecoul>
-23.9442901611328

> <r_i_glide_erotb>
0.858456430492215

> <r_i_glide_esite>
-0.0960394108656486

> <r_i_glide_emodel>
-92.7195629406881

> <r_i_glide_energy>
-57.7791633605957

> <r_i_glide_einternal>
9.72288990020752

> <i_i_glide_confnum>
345

> <i_i_glide_posenum>
28

> <r_i_glide_eff_state_penalty>
0

> <s_user_duplicate_titles>
CHEMBL3474_lig35,246591

> <s_m_subgroup_title>
dock_pv

> <s_m_subgroupid>
dock_pv

> <b_m_subgroup_collapsed>
1

$$$$
CHEMBL3474_lig85
                    3D
 Schrodinger Suite 2021-1.
 58 60  0  0  1  0            999 V2000
  -40.1023   62.5396   35.0488 N   0  0  0  0  0  0
  -38.8961   62.9149   33.1745 C   0  0  0  0  0  0
  -40.4179   63.8258   34.6449 C   0  0  0  0  0  0
  -39.6573   64.0886   33.4820 C   0  0  0  0  0  0
  -39.1498   62.0018   34.1910 C   0  0  0  0  0  0
  -41.2869   64.7803   35.1908 C   0  0  0  0  0  0
  -39.7601   65.3462   32.8800 C   0  0  0  0  0  0
  -38.0035   62.7388   31.9493 C   0  0  0  0  0  0
  -40.5758   66.3362   33.4430 C   0  0  0  0  0  0
  -40.7369   61.8753   36.1945 C   0  0  0  0  0  0
  -41.3455   66.0352   34.5749 C   0  0  0  0  0  0
  -36.8131   63.7010   31.8430 C   0  0  0  0  0  0
  -37.6147   68.7154   29.6771 C   0  0  0  0  0  0
  -36.6204   64.6159   32.6396 O   0  0  0  0  0  0
  -37.6166   69.4389   28.6877 O   0  0  0  0  0  0
  -36.0145   63.5326   30.8018 N   0  0  0  0  0  0
  -38.5162   60.6348   34.4182 C   0  0  0  0  0  0
  -42.2105   61.5298   35.9853 C   0  0  0  0  0  0
  -36.8152   68.8994   30.7680 O   0  0  0  0  0  0
  -40.6551   67.6173   32.9196 O   0  0  0  0  0  0
  -42.2428   67.0981   35.1923 C   0  0  0  0  0  0
  -38.5046   67.4793   29.8110 C   0  0  0  0  0  0
  -39.5926   68.0951   32.0957 C   0  0  0  0  0  0
  -42.6677   61.0413   34.7581 C   0  0  0  0  0  0
  -43.1098   61.7001   37.0428 C   0  0  0  0  0  0
  -39.8067   67.7218   30.6107 C   0  0  0  0  0  0
  -39.4261   59.4476   34.0902 C   0  0  0  0  0  0
  -44.4539   61.3816   36.8786 C   0  0  0  0  0  0
  -44.0119   60.7239   34.5921 C   0  0  0  0  0  0
  -44.8979   60.8961   35.6518 C   0  0  0  0  0  0
  -41.8764   64.5684   36.0711 H   0  0  0  0  0  0
  -39.1731   65.5397   31.9986 H   0  0  0  0  0  0
  -37.6243   61.7203   31.8757 H   0  0  0  0  0  0
  -38.6007   62.8981   31.0504 H   0  0  0  0  0  0
  -40.6496   62.5609   37.0400 H   0  0  0  0  0  0
  -40.1849   60.9786   36.4769 H   0  0  0  0  0  0
  -35.3020   64.2304   30.6135 H   0  0  0  0  0  0
  -36.2762   62.8889   30.0714 H   0  0  0  0  0  0
  -37.6089   60.5378   33.8225 H   0  0  0  0  0  0
  -38.1706   60.5465   35.4432 H   0  0  0  0  0  0
  -36.2437   69.6661   30.5966 H   0  0  0  0  0  0
  -41.7534   68.0732   35.1777 H   0  0  0  0  0  0
  -43.1791   67.1808   34.6404 H   0  0  0  0  0  0
  -42.4639   66.8800   36.2379 H   0  0  0  0  0  0
  -37.9265   66.6566   30.2348 H   0  0  0  0  0  0
  -38.7633   67.1535   28.8017 H   0  0  0  0  0  0
  -39.5612   69.1816   32.1898 H   0  0  0  0  0  0
  -38.6280   67.7459   32.4746 H   0  0  0  0  0  0
  -41.9926   60.9098   33.9254 H   0  0  0  0  0  0
  -42.7696   62.0760   37.9963 H   0  0  0  0  0  0
  -40.4144   66.8206   30.5407 H   0  0  0  0  0  0
  -40.4061   68.4926   30.1265 H   0  0  0  0  0  0
  -38.8909   58.5079   34.2425 H   0  0  0  0  0  0
  -40.3103   59.4144   34.7249 H   0  0  0  0  0  0
  -39.7589   59.4827   33.0523 H   0  0  0  0  0  0
  -45.1470   61.5111   37.6963 H   0  0  0  0  0  0
  -44.3705   60.3509   33.6448 H   0  0  0  0  0  0
  -45.9427   60.6532   35.5161 H   0  0  0  0  0  0
  1  3  1  0  0  0
  1  5  1  0  0  0
  1 10  1  0  0  0
  2  5  2  0  0  0
  2  8  1  0  0  0
  2  4  1  0  0  0
  3  4  1  0  0  0
  3  6  2  0  0  0
  4  7  2  0  0  0
  5 17  1  0  0  0
  6 11  1  0  0  0
  6 31  1  0  0  0
  7  9  1  0  0  0
  7 32  1  0  0  0
  8 12  1  0  0  0
  8 33  1  0  0  0
  8 34  1  0  0  0
  9 11  2  0  0  0
  9 20  1  0  0  0
 10 18  1  0  0  0
 10 35  1  0  0  0
 10 36  1  0  0  0
 11 21  1  0  0  0
 12 14  2  0  0  0
 12 16  1  0  0  0
 13 22  1  0  0  0
 13 15  2  0  0  0
 13 19  1  0  0  0
 16 37  1  0  0  0
 16 38  1  0  0  0
 17 27  1  0  0  0
 17 39  1  0  0  0
 17 40  1  0  0  0
 18 24  2  0  0  0
 18 25  1  0  0  0
 19 41  1  0  0  0
 20 23  1  0  0  0
 21 42  1  0  0  0
 21 43  1  0  0  0
 21 44  1  0  0  0
 22 26  1  0  0  0
 22 45  1  0  0  0
 22 46  1  0  0  0
 23 26  1  0  0  0
 23 47  1  0  0  0
 23 48  1  0  0  0
 24 29  1  0  0  0
 24 49  1  0  0  0
 25 28  2  0  0  0
 25 50  1  0  0  0
 26 51  1  0  0  0
 26 52  1  0  0  0
 27 53  1  0  0  0
 27 54  1  0  0  0
 27 55  1  0  0  0
 28 30  1  0  0  0
 28 56  1  0  0  0
 29 30  2  0  0  0
 29 57  1  0  0  0
 30 58  1  0  0  0
M  END
> <s_m_entry_id>
68088

> <s_m_entry_name>
dock_pv.24

> <s_m_Source_Path>
/home/csk/Desktop/cluster/DUD-E-result/pa2ga

> <s_m_Source_File>
dock_pv.maegz

> <i_m_Source_File_Index>
24

> <chembl_id>
CHEMBL358380

> <chembl_pref_name>
None

> <i_lp_mmshare_version>
53161

> <i_f3d_flags>
0

> <r_lp_tautomer_probability>
1

> <s_lp_Force_Field>
OPLS_2005

> <r_lp_Energy>
12.125499

> <b_lp_Chiralities_Consistent>
1

> <s_lp_Variant>
CHEMBL3474_lig85-1

> <s_i_glide_gridfile>
glide-grid_1kvo

> <i_i_glide_lignum>
125

> <i_i_glide_rotatable_bonds>
11

> <r_i_docking_score>
-8.91205819246662

> <r_i_glide_ligand_efficiency>
-0.297068606415554

> <r_i_glide_ligand_efficiency_sa>
-0.923061229306318

> <r_i_glide_ligand_efficiency_ln>
-2.0249167259799

> <r_i_glide_gscore>
-8.91205819246662

> <r_i_glide_lipo>
-3.89094944666303

> <r_i_glide_hbond>
-0.435523964845318

> <r_i_glide_metal>
0

> <r_i_glide_rewards>
-1.09765045870128

> <r_i_glide_evdw>
-45.8398704528809

> <r_i_glide_ecoul>
-13.7244138717651

> <r_i_glide_erotb>
0.943608828453049

> <r_i_glide_esite>
-0.0808875473012238

> <r_i_glide_emodel>
-92.6765159382815

> <r_i_glide_energy>
-59.564284324646

> <r_i_glide_einternal>
6.63862943649292

> <i_i_glide_confnum>
208

> <i_i_glide_posenum>
271

> <r_i_glide_eff_state_penalty>
0

> <s_user_duplicate_titles>
CHEMBL3474_lig85,247748

> <s_m_subgroup_title>
dock_pv

> <s_m_subgroupid>
dock_pv

> <b_m_subgroup_collapsed>
1

$$$$
CHEMBL3474_lig51
                    3D
 Schrodinger Suite 2021-1.
 58 60  0  0  1  0            999 V2000
  -39.9244   62.4207   35.0227 N   0  0  0  0  0  0
  -38.5640   62.6931   33.2251 C   0  0  0  0  0  0
  -40.2163   63.6714   34.5076 C   0  0  0  0  0  0
  -39.4096   63.8432   33.3561 C   0  0  0  0  0  0
  -38.9137   61.8418   34.2640 C   0  0  0  0  0  0
  -39.5431   65.0180   32.6125 C   0  0  0  0  0  0
  -41.1108   64.6595   34.9365 C   0  0  0  0  0  0
  -40.3820   66.0369   33.0581 C   0  0  0  0  0  0
  -37.5120   62.4548   32.1396 C   0  0  0  0  0  0
  -40.6380   61.8332   36.1670 C   0  0  0  0  0  0
  -41.1610   65.8572   34.2149 C   0  0  0  0  0  0
  -36.5912   63.6477   31.8429 C   0  0  0  0  0  0
  -37.4738   69.9208   31.6486 C   0  0  0  0  0  0
  -36.4153   64.5617   32.6430 O   0  0  0  0  0  0
  -36.8151   68.8980   31.8427 O   0  0  0  0  0  0
  -40.4149   67.5662   32.1522 S   0  0  0  0  0  0
  -36.0152   63.6979   30.6520 N   0  0  0  0  0  0
  -38.3272   60.4788   34.5692 C   0  0  0  0  0  0
  -42.0924   61.4609   35.8924 C   0  0  0  0  0  0
  -37.2156   71.1218   32.2372 O   0  0  0  0  0  0
  -42.0714   66.9530   34.7549 C   0  0  0  0  0  0
  -38.7056   70.0180   30.7375 C   0  0  0  0  0  0
  -39.2974   67.4468   30.7195 C   0  0  0  0  0  0
  -43.0531   61.6985   36.8803 C   0  0  0  0  0  0
  -42.4694   60.8725   34.6796 C   0  0  0  0  0  0
  -39.0770   68.7486   29.9285 C   0  0  0  0  0  0
  -38.9377   59.3829   33.6941 C   0  0  0  0  0  0
  -43.7994   60.5300   34.4562 C   0  0  0  0  0  0
  -44.3838   61.3628   36.6550 C   0  0  0  0  0  0
  -44.7495   60.7846   35.4430 C   0  0  0  0  0  0
  -38.9516   65.1297   31.7215 H   0  0  0  0  0  0
  -41.7217   64.5161   35.8156 H   0  0  0  0  0  0
  -36.8712   61.6079   32.3831 H   0  0  0  0  0  0
  -38.0145   62.1801   31.2109 H   0  0  0  0  0  0
  -40.6062   62.5773   36.9648 H   0  0  0  0  0  0
  -40.1186   60.9584   36.5530 H   0  0  0  0  0  0
  -35.5534   64.5820   30.4027 H   0  0  0  0  0  0
  -36.2986   63.0654   29.9175 H   0  0  0  0  0  0
  -37.2529   60.5030   34.3899 H   0  0  0  0  0  0
  -38.4151   60.1985   35.6138 H   0  0  0  0  0  0
  -37.7915   71.8145   31.9036 H   0  0  0  0  0  0
  -43.0321   66.9364   34.2434 H   0  0  0  0  0  0
  -42.2481   66.8315   35.8239 H   0  0  0  0  0  0
  -41.6244   67.9403   34.6375 H   0  0  0  0  0  0
  -38.5459   70.8372   30.0347 H   0  0  0  0  0  0
  -39.5562   70.3056   31.3563 H   0  0  0  0  0  0
  -38.3326   67.0873   31.0712 H   0  0  0  0  0  0
  -39.6761   66.6748   30.0490 H   0  0  0  0  0  0
  -42.7736   62.1430   37.8245 H   0  0  0  0  0  0
  -41.7388   60.6846   33.9070 H   0  0  0  0  0  0
  -38.3235   68.5724   29.1591 H   0  0  0  0  0  0
  -39.9972   68.9584   29.3849 H   0  0  0  0  0  0
  -38.4149   58.4405   33.8434 H   0  0  0  0  0  0
  -39.9898   59.2287   33.9326 H   0  0  0  0  0  0
  -38.8665   59.6332   32.6339 H   0  0  0  0  0  0
  -44.0978   60.0770   33.5213 H   0  0  0  0  0  0
  -45.1273   61.5481   37.4164 H   0  0  0  0  0  0
  -45.7820   60.5210   35.2640 H   0  0  0  0  0  0
  1  3  1  0  0  0
  1  5  1  0  0  0
  1 10  1  0  0  0
  2  5  2  0  0  0
  2  9  1  0  0  0
  2  4  1  0  0  0
  3  4  1  0  0  0
  3  7  2  0  0  0
  4  6  2  0  0  0
  5 18  1  0  0  0
  6  8  1  0  0  0
  6 31  1  0  0  0
  7 11  1  0  0  0
  7 32  1  0  0  0
  8 11  2  0  0  0
  8 16  1  0  0  0
  9 12  1  0  0  0
  9 33  1  0  0  0
  9 34  1  0  0  0
 10 19  1  0  0  0
 10 35  1  0  0  0
 10 36  1  0  0  0
 11 21  1  0  0  0
 12 14  2  0  0  0
 12 17  1  0  0  0
 13 22  1  0  0  0
 13 15  2  0  0  0
 13 20  1  0  0  0
 16 23  1  0  0  0
 17 37  1  0  0  0
 17 38  1  0  0  0
 18 27  1  0  0  0
 18 39  1  0  0  0
 18 40  1  0  0  0
 19 24  2  0  0  0
 19 25  1  0  0  0
 20 41  1  0  0  0
 21 42  1  0  0  0
 21 43  1  0  0  0
 21 44  1  0  0  0
 22 26  1  0  0  0
 22 45  1  0  0  0
 22 46  1  0  0  0
 23 26  1  0  0  0
 23 47  1  0  0  0
 23 48  1  0  0  0
 24 29  1  0  0  0
 24 49  1  0  0  0
 25 28  2  0  0  0
 25 50  1  0  0  0
 26 51  1  0  0  0
 26 52  1  0  0  0
 27 53  1  0  0  0
 27 54  1  0  0  0
 27 55  1  0  0  0
 28 30  1  0  0  0
 28 56  1  0  0  0
 29 30  2  0  0  0
 29 57  1  0  0  0
 30 58  1  0  0  0
M  END
> <s_m_entry_id>
68089

> <s_m_entry_name>
dock_pv.25

> <s_m_Source_Path>
/home/csk/Desktop/cluster/DUD-E-result/pa2ga

> <s_m_Source_File>
dock_pv.maegz

> <i_m_Source_File_Index>
25

> <chembl_id>
CHEMBL262564

> <chembl_pref_name>
None

> <i_lp_mmshare_version>
53161

> <i_f3d_flags>
0

> <r_lp_tautomer_probability>
1

> <s_lp_Force_Field>
OPLS_2005

> <r_lp_Energy>
11.625528

> <b_lp_Chiralities_Consistent>
1

> <s_lp_Variant>
CHEMBL3474_lig51-1

> <s_i_glide_gridfile>
glide-grid_1kvo

> <i_i_glide_lignum>
91

> <i_i_glide_rotatable_bonds>
11

> <r_i_docking_score>
-8.90103589385967

> <r_i_glide_ligand_efficiency>
-0.296701196461989

> <r_i_glide_ligand_efficiency_sa>
-0.921919601156884

> <r_i_glide_ligand_efficiency_ln>
-2.02241233963883

> <r_i_glide_gscore>
-8.90103589385967

> <r_i_glide_lipo>
-3.98431824914707

> <r_i_glide_hbond>
-0.508843406824318

> <r_i_glide_metal>
0

> <r_i_glide_rewards>
-0.774003257603398

> <r_i_glide_evdw>
-42.5957527160645

> <r_i_glide_ecoul>
-14.8383760452271

> <r_i_glide_erotb>
0.880091642517079

> <r_i_glide_esite>
-0.158418580214677

> <r_i_glide_emodel>
-91.0491683566518

> <r_i_glide_energy>
-57.4341287612915

> <r_i_glide_einternal>
4.30420351028442

> <i_i_glide_confnum>
246

> <i_i_glide_posenum>
26

> <r_i_glide_eff_state_penalty>
0

> <s_user_duplicate_titles>
CHEMBL3474_lig51,246642

> <s_m_subgroup_title>
dock_pv

> <s_m_subgroupid>
dock_pv

> <b_m_subgroup_collapsed>
1

$$$$
CHEMBL3474_lig14
                    3D
 Schrodinger Suite 2021-1.
 55 57  0  0  1  0            999 V2000
  -40.0527   62.7526   34.8320 N   0  0  0  0  0  0
  -38.6426   62.8172   33.0620 C   0  0  0  0  0  0
  -39.0412   62.0724   34.1638 C   0  0  0  0  0  0
  -39.4552   63.9974   33.0502 C   0  0  0  0  0  0
  -40.3129   63.9492   34.1789 C   0  0  0  0  0  0
  -37.5654   62.4658   32.0424 C   0  0  0  0  0  0
  -40.7813   62.2889   36.0204 C   0  0  0  0  0  0
  -41.2082   64.9904   34.4624 C   0  0  0  0  0  0
  -36.4824   63.5321   31.8426 C   0  0  0  0  0  0
  -39.5163   65.1037   32.1932 C   0  0  0  0  0  0
  -37.4232   69.9271   31.5612 C   0  0  0  0  0  0
  -36.4154   64.5631   32.5095 O   0  0  0  0  0  0
  -36.8150   68.8980   31.8428 O   0  0  0  0  0  0
  -40.3551   66.1822   32.4983 C   0  0  0  0  0  0
  -35.6154   63.2980   30.8751 N   0  0  0  0  0  0
  -41.1889   66.0996   33.6129 C   0  0  0  0  0  0
  -38.5048   60.7252   34.6243 C   0  0  0  0  0  0
  -42.2115   61.8123   35.7830 C   0  0  0  0  0  0
  -36.8151   71.1372   31.4426 O   0  0  0  0  0  0
  -40.3955   67.3524   31.7594 O   0  0  0  0  0  0
  -38.9360   69.9888   31.2889 C   0  0  0  0  0  0
  -39.4836   67.5117   30.6680 C   0  0  0  0  0  0
  -42.6006   61.2415   34.5646 C   0  0  0  0  0  0
  -43.1329   61.9120   36.8301 C   0  0  0  0  0  0
  -39.4257   68.9808   30.2111 C   0  0  0  0  0  0
  -39.3339   59.5524   34.0852 C   0  0  0  0  0  0
  -44.4367   61.4582   36.6595 C   0  0  0  0  0  0
  -43.9028   60.7830   34.3967 C   0  0  0  0  0  0
  -44.8150   60.8978   35.4431 C   0  0  0  0  0  0
  -37.0619   61.5337   32.2972 H   0  0  0  0  0  0
  -38.0203   62.2872   31.0683 H   0  0  0  0  0  0
  -40.7915   63.1204   36.7269 H   0  0  0  0  0  0
  -40.2401   61.4823   36.5107 H   0  0  0  0  0  0
  -41.8713   64.9575   35.3150 H   0  0  0  0  0  0
  -38.8747   65.1161   31.3273 H   0  0  0  0  0  0
  -34.9497   64.0213   30.6274 H   0  0  0  0  0  0
  -35.7449   62.5094   30.2611 H   0  0  0  0  0  0
  -41.8430   66.9287   33.8357 H   0  0  0  0  0  0
  -37.4788   60.5987   34.2812 H   0  0  0  0  0  0
  -38.4225   60.6617   35.7066 H   0  0  0  0  0  0
  -35.8748   70.9899   31.2294 H   0  0  0  0  0  0
  -39.1763   70.9967   30.9461 H   0  0  0  0  0  0
  -39.4747   69.8528   32.2271 H   0  0  0  0  0  0
  -38.4759   67.1942   30.9347 H   0  0  0  0  0  0
  -39.8082   66.8766   29.8431 H   0  0  0  0  0  0
  -41.9019   61.1461   33.7456 H   0  0  0  0  0  0
  -42.8419   62.3372   37.7802 H   0  0  0  0  0  0
  -38.7824   69.0465   29.3316 H   0  0  0  0  0  0
  -40.4119   69.2679   29.8434 H   0  0  0  0  0  0
  -38.8156   58.6069   34.2430 H   0  0  0  0  0  0
  -40.3042   59.4887   34.5761 H   0  0  0  0  0  0
  -39.5080   59.6512   33.0128 H   0  0  0  0  0  0
  -45.1496   61.5366   37.4676 H   0  0  0  0  0  0
  -44.2062   60.3407   33.4585 H   0  0  0  0  0  0
  -45.8264   60.5426   35.3064 H   0  0  0  0  0  0
  1  3  1  0  0  0
  1  5  1  0  0  0
  1  7  1  0  0  0
  2  3  2  0  0  0
  2  6  1  0  0  0
  2  4  1  0  0  0
  3 17  1  0  0  0
  4  5  1  0  0  0
  4 10  2  0  0  0
  5  8  2  0  0  0
  6  9  1  0  0  0
  6 30  1  0  0  0
  6 31  1  0  0  0
  7 18  1  0  0  0
  7 32  1  0  0  0
  7 33  1  0  0  0
  8 16  1  0  0  0
  8 34  1  0  0  0
  9 12  2  0  0  0
  9 15  1  0  0  0
 10 14  1  0  0  0
 10 35  1  0  0  0
 11 21  1  0  0  0
 11 13  2  0  0  0
 11 19  1  0  0  0
 14 16  2  0  0  0
 14 20  1  0  0  0
 15 36  1  0  0  0
 15 37  1  0  0  0
 16 38  1  0  0  0
 17 26  1  0  0  0
 17 39  1  0  0  0
 17 40  1  0  0  0
 18 23  1  0  0  0
 18 24  2  0  0  0
 19 41  1  0  0  0
 20 22  1  0  0  0
 21 25  1  0  0  0
 21 42  1  0  0  0
 21 43  1  0  0  0
 22 25  1  0  0  0
 22 44  1  0  0  0
 22 45  1  0  0  0
 23 28  2  0  0  0
 23 46  1  0  0  0
 24 27  1  0  0  0
 24 47  1  0  0  0
 25 48  1  0  0  0
 25 49  1  0  0  0
 26 50  1  0  0  0
 26 51  1  0  0  0
 26 52  1  0  0  0
 27 29  2  0  0  0
 27 53  1  0  0  0
 28 29  1  0  0  0
 28 54  1  0  0  0
 29 55  1  0  0  0
M  END
> <s_m_entry_id>
68090

> <s_m_entry_name>
dock_pv.26

> <s_m_Source_Path>
/home/csk/Desktop/cluster/DUD-E-result/pa2ga

> <s_m_Source_File>
dock_pv.maegz

> <i_m_Source_File_Index>
26

> <chembl_id>
CHEMBL146571

> <chembl_pref_name>
None

> <i_lp_mmshare_version>
53161

> <i_f3d_flags>
0

> <r_lp_tautomer_probability>
1

> <s_lp_Force_Field>
OPLS_2005

> <r_lp_Energy>
11.428703

> <b_lp_Chiralities_Consistent>
1

> <s_lp_Variant>
CHEMBL3474_lig14-1

> <s_i_glide_gridfile>
glide-grid_1kvo

> <i_i_glide_lignum>
53

> <i_i_glide_rotatable_bonds>
11

> <r_i_docking_score>
-8.86999350281658

> <r_i_glide_ligand_efficiency>
-0.30586184492471

> <r_i_glide_ligand_efficiency_sa>
-0.939704491442747

> <r_i_glide_ligand_efficiency_ln>
-2.03100358851671

> <r_i_glide_gscore>
-8.86999350281658

> <r_i_glide_lipo>
-3.73826058682438

> <r_i_glide_hbond>
-0.424032032652839

> <r_i_glide_metal>
0

> <r_i_glide_rewards>
-0.958150676674508

> <r_i_glide_evdw>
-40.190113067627

> <r_i_glide_ecoul>
-17.5674953460693

> <r_i_glide_erotb>
1.0048816824556

> <r_i_glide_esite>
-0.109801933828712

> <r_i_glide_emodel>
-89.9395347273462

> <r_i_glide_energy>
-57.7576084136963

> <r_i_glide_einternal>
7.26476430892944

> <i_i_glide_confnum>
125

> <i_i_glide_posenum>
393

> <r_i_glide_eff_state_penalty>
0

> <s_user_duplicate_titles>
CHEMBL3474_lig14,246808

> <s_m_subgroup_title>
dock_pv

> <s_m_subgroupid>
dock_pv

> <b_m_subgroup_collapsed>
1

$$$$
CHEMBL3474_lig100
                    3D
 Schrodinger Suite 2021-1.
 54 56  0  0  1  0            999 V2000
  -38.7494   63.0459   33.1892 C   0  0  0  0  0  0
  -40.0764   62.6388   34.9788 N   0  0  0  0  0  0
  -39.0949   62.1048   34.1641 C   0  0  0  0  0  0
  -39.5726   64.2364   33.4134 C   0  0  0  0  0  0
  -40.3719   63.9267   34.5683 C   0  0  0  0  0  0
  -37.7080   62.7809   32.1786 C   0  0  0  0  0  0
  -36.6414   63.8958   31.8430 C   0  0  0  0  0  0
  -40.7549   61.9699   36.1023 C   0  0  0  0  0  0
  -39.7823   65.5141   32.8002 C   0  0  0  0  0  0
  -37.9393   69.8815   31.4430 C   0  0  0  0  0  0
  -37.5088   61.6474   31.7294 O   0  0  0  0  0  0
  -36.4137   64.8424   32.5933 O   0  0  0  0  0  0
  -39.0370   70.0022   31.9807 O   0  0  0  0  0  0
  -36.0152   63.6979   30.6866 N   0  0  0  0  0  0
  -38.5071   60.7185   34.4280 C   0  0  0  0  0  0
  -38.9762   66.0101   31.2879 S   0  0  0  0  0  0
  -41.2823   64.8318   35.1289 C   0  0  0  0  0  0
  -42.2113   61.5963   35.8480 C   0  0  0  0  0  0
  -36.8150   70.5435   31.8428 O   0  0  0  0  0  0
  -41.3908   66.0802   34.5383 C   0  0  0  0  0  0
  -40.6630   66.4128   33.4091 C   0  0  0  0  0  0
  -37.6474   68.9406   30.2624 C   0  0  0  0  0  0
  -39.7982   67.4032   30.4523 C   0  0  0  0  0  0
  -42.6295   61.1319   34.5958 C   0  0  0  0  0  0
  -43.1302   61.6993   36.8965 C   0  0  0  0  0  0
  -39.2917   59.5920   33.7503 C   0  0  0  0  0  0
  -38.8781   68.2868   29.5758 C   0  0  0  0  0  0
  -43.9600   60.7811   34.3953 C   0  0  0  0  0  0
  -44.4617   61.3512   36.6943 C   0  0  0  0  0  0
  -44.8689   60.8977   35.4434 C   0  0  0  0  0  0
  -40.7052   62.6548   36.9505 H   0  0  0  0  0  0
  -40.2216   61.0744   36.4125 H   0  0  0  0  0  0
  -35.3863   64.4114   30.3238 H   0  0  0  0  0  0
  -36.2977   62.9273   30.0975 H   0  0  0  0  0  0
  -37.4757   60.6738   34.0786 H   0  0  0  0  0  0
  -38.4146   60.5044   35.4886 H   0  0  0  0  0  0
  -41.8760   64.5841   35.9971 H   0  0  0  0  0  0
  -36.0897   70.4980   31.1994 H   0  0  0  0  0  0
  -42.0696   66.8073   34.9609 H   0  0  0  0  0  0
  -40.8130   67.4040   33.0200 H   0  0  0  0  0  0
  -36.9738   68.1562   30.6031 H   0  0  0  0  0  0
  -37.0993   69.5065   29.5071 H   0  0  0  0  0  0
  -40.5929   66.9765   29.8431 H   0  0  0  0  0  0
  -40.3049   68.0408   31.1657 H   0  0  0  0  0  0
  -41.9332   61.0436   33.7749 H   0  0  0  0  0  0
  -42.8177   62.0486   37.8703 H   0  0  0  0  0  0
  -38.7501   58.6517   33.8431 H   0  0  0  0  0  0
  -40.2744   59.4555   34.2001 H   0  0  0  0  0  0
  -39.4314   59.7844   32.6857 H   0  0  0  0  0  0
  -38.5169   67.6745   28.7469 H   0  0  0  0  0  0
  -39.4783   69.0694   29.1085 H   0  0  0  0  0  0
  -44.2895   60.4211   33.4314 H   0  0  0  0  0  0
  -45.1738   61.4308   37.5030 H   0  0  0  0  0  0
  -45.9020   60.6241   35.2830 H   0  0  0  0  0  0
  1  3  2  0  0  0
  1  4  1  0  0  0
  1  6  1  0  0  0
  2  3  1  0  0  0
  2  8  1  0  0  0
  2  5  1  0  0  0
  3 15  1  0  0  0
  4  5  1  0  0  0
  4  9  2  0  0  0
  5 17  2  0  0  0
  6  7  1  0  0  0
  6 11  2  0  0  0
  7 12  2  0  0  0
  7 14  1  0  0  0
  8 18  1  0  0  0
  8 31  1  0  0  0
  8 32  1  0  0  0
  9 16  1  0  0  0
  9 21  1  0  0  0
 10 22  1  0  0  0
 10 13  2  0  0  0
 10 19  1  0  0  0
 14 33  1  0  0  0
 14 34  1  0  0  0
 15 26  1  0  0  0
 15 35  1  0  0  0
 15 36  1  0  0  0
 16 23  1  0  0  0
 17 20  1  0  0  0
 17 37  1  0  0  0
 18 24  1  0  0  0
 18 25  2  0  0  0
 19 38  1  0  0  0
 20 21  2  0  0  0
 20 39  1  0  0  0
 21 40  1  0  0  0
 22 27  1  0  0  0
 22 41  1  0  0  0
 22 42  1  0  0  0
 23 27  1  0  0  0
 23 43  1  0  0  0
 23 44  1  0  0  0
 24 28  2  0  0  0
 24 45  1  0  0  0
 25 29  1  0  0  0
 25 46  1  0  0  0
 26 47  1  0  0  0
 26 48  1  0  0  0
 26 49  1  0  0  0
 27 50  1  0  0  0
 27 51  1  0  0  0
 28 30  1  0  0  0
 28 52  1  0  0  0
 29 30  2  0  0  0
 29 53  1  0  0  0
 30 54  1  0  0  0
M  END
> <s_m_entry_id>
68091

> <s_m_entry_name>
dock_pv.27

> <s_m_Source_Path>
/home/csk/Desktop/cluster/DUD-E-result/pa2ga

> <s_m_Source_File>
dock_pv.maegz

> <i_m_Source_File_Index>
27

> <chembl_id>
CHEMBL146924

> <chembl_pref_name>
None

> <i_lp_mmshare_version>
53161

> <i_f3d_flags>
0

> <r_lp_tautomer_probability>
1

> <s_lp_Force_Field>
OPLS_2005

> <r_lp_Energy>
22.825986

> <b_lp_Chiralities_Consistent>
1

> <s_lp_Variant>
CHEMBL3474_lig100-1

> <s_i_glide_gridfile>
glide-grid_1kvo

> <i_i_glide_lignum>
158

> <i_i_glide_rotatable_bonds>
11

> <r_i_docking_score>
-8.86219174395023

> <r_i_glide_ligand_efficiency>
-0.295406391465008

> <r_i_glide_ligand_efficiency_sa>
-0.917896340985954

> <r_i_glide_ligand_efficiency_ln>
-2.0135865255385

> <r_i_glide_gscore>
-8.86219174395023

> <r_i_glide_lipo>
-3.60384891575335

> <r_i_glide_hbond>
-0.44297325215778

> <r_i_glide_metal>
0

> <r_i_glide_rewards>
-0.897596527359211

> <r_i_glide_evdw>
-46.6800079345703

> <r_i_glide_ecoul>
-15.2444829940796

> <r_i_glide_erotb>
0.880253172024704

> <r_i_glide_esite>
-0.177353374864138

> <r_i_glide_emodel>
-95.6702085691346

> <r_i_glide_energy>
-61.9244909286499

> <r_i_glide_einternal>
4.99795579910278

> <i_i_glide_confnum>
141

> <i_i_glide_posenum>
61

> <r_i_glide_eff_state_penalty>
0

> <s_user_duplicate_titles>
CHEMBL3474_lig100,247553

> <s_m_subgroup_title>
dock_pv

> <s_m_subgroupid>
dock_pv

> <b_m_subgroup_collapsed>
1

$$$$
CHEMBL3474_lig57
                    3D
 Schrodinger Suite 2021-1.
 66 68  0  0  1  0            999 V2000
  -40.1986   62.9960   34.7683 N   0  0  0  0  0  0
  -39.0902   63.4041   32.8423 C   0  0  0  0  0  0
  -40.4137   64.3372   34.4756 C   0  0  0  0  0  0
  -39.6866   64.6183   33.2980 C   0  0  0  0  0  0
  -39.4195   62.4227   33.7668 C   0  0  0  0  0  0
  -40.1675   70.4979   28.7972 P   0  0  0  0  0  0
  -41.1379   65.3366   35.1378 C   0  0  0  0  0  0
  -39.6670   65.9208   32.8015 C   0  0  0  0  0  0
  -41.0999   66.6422   34.6163 C   0  0  0  0  0  0
  -40.3833   66.9378   33.4373 C   0  0  0  0  0  0
  -38.2810   63.2612   31.5636 C   0  0  0  0  0  0
  -40.7665   62.3094   35.9348 C   0  0  0  0  0  0
  -36.8824   63.8821   31.6243 C   0  0  0  0  0  0
  -41.4895   70.0980   28.2430 O   0  0  0  0  0  0
  -36.6399   64.9027   32.2568 O   0  0  0  0  0  0
  -40.2481   71.5116   30.0570 O   0  0  0  0  0  0
  -39.1964   71.2977   27.7790 O   0  0  0  0  0  0
  -41.8298   67.7484   35.3996 C   0  0  0  0  0  0
  -35.9306   63.2969   30.9186 N   0  0  0  0  0  0
  -39.0266   60.9500   33.7464 C   0  0  0  0  0  0
  -39.0685   69.1633   29.4245 C   0  0  0  0  0  0
  -40.4151   68.2309   32.9339 O   0  0  0  0  0  0
  -42.1960   61.8143   35.7448 C   0  0  0  0  0  0
  -39.7446   68.2580   30.4860 C   0  0  0  0  0  0
  -39.4717   68.6896   31.9527 C   0  0  0  0  0  0
  -41.4153   67.7921   36.8845 C   0  0  0  0  0  0
  -43.3583   67.6477   35.2798 C   0  0  0  0  0  0
  -42.5211   60.9642   34.6815 C   0  0  0  0  0  0
  -43.1824   62.1936   36.6604 C   0  0  0  0  0  0
  -37.5039   60.7534   33.7830 C   0  0  0  0  0  0
  -43.8255   60.5041   34.5319 C   0  0  0  0  0  0
  -44.4882   61.7366   36.5079 C   0  0  0  0  0  0
  -44.8031   60.8970   35.4433 C   0  0  0  0  0  0
  -41.6894   65.1171   36.0393 H   0  0  0  0  0  0
  -39.0748   66.1044   31.9290 H   0  0  0  0  0  0
  -38.1848   62.2146   31.2775 H   0  0  0  0  0  0
  -38.8113   63.7395   30.7393 H   0  0  0  0  0  0
  -40.7265   63.0073   36.7721 H   0  0  0  0  0  0
  -40.1227   61.4855   36.2395 H   0  0  0  0  0  0
  -39.4631   72.0841   30.1540 H   0  0  0  0  0  0
  -39.6168   72.0141   27.2333 H   0  0  0  0  0  0
  -41.5427   68.7139   34.9809 H   0  0  0  0  0  0
  -35.0423   63.7684   30.8291 H   0  0  0  0  0  0
  -36.1592   62.5305   30.3046 H   0  0  0  0  0  0
  -39.4693   60.3688   34.5526 H   0  0  0  0  0  0
  -39.4101   60.4867   32.8366 H   0  0  0  0  0  0
  -38.1397   69.5969   29.7962 H   0  0  0  0  0  0
  -38.7975   68.5600   28.5582 H   0  0  0  0  0  0
  -39.3584   67.2585   30.3103 H   0  0  0  0  0  0
  -40.8140   68.1562   30.2989 H   0  0  0  0  0  0
  -39.5137   69.7776   32.0095 H   0  0  0  0  0  0
  -38.4558   68.4239   32.2495 H   0  0  0  0  0  0
  -40.3400   67.6982   36.9978 H   0  0  0  0  0  0
  -41.7165   68.7308   37.3502 H   0  0  0  0  0  0
  -41.8705   66.9848   37.4602 H   0  0  0  0  0  0
  -43.6756   67.6981   34.2433 H   0  0  0  0  0  0
  -43.7304   66.7120   35.6981 H   0  0  0  0  0  0
  -43.8532   68.4624   35.8085 H   0  0  0  0  0  0
  -41.7730   60.6551   33.9679 H   0  0  0  0  0  0
  -42.9429   62.8428   37.4911 H   0  0  0  0  0  0
  -37.2554   59.6980   33.8407 H   0  0  0  0  0  0
  -37.0095   61.1446   32.8963 H   0  0  0  0  0  0
  -37.0622   61.2535   34.6420 H   0  0  0  0  0  0
  -44.0800   59.8510   33.7083 H   0  0  0  0  0  0
  -45.2529   62.0316   37.2119 H   0  0  0  0  0  0
  -45.8163   60.5403   35.3219 H   0  0  0  0  0  0
  1  3  1  0  0  0
  1  5  1  0  0  0
  1 12  1  0  0  0
  2  5  2  0  0  0
  2 11  1  0  0  0
  2  4  1  0  0  0
  3  4  1  0  0  0
  3  7  2  0  0  0
  4  8  2  0  0  0
  5 20  1  0  0  0
  6 21  1  0  0  0
  6 14  2  0  0  0
  6 16  1  0  0  0
  6 17  1  0  0  0
  7  9  1  0  0  0
  7 34  1  0  0  0
  8 10  1  0  0  0
  8 35  1  0  0  0
  9 10  2  0  0  0
  9 18  1  0  0  0
 10 22  1  0  0  0
 11 13  1  0  0  0
 11 36  1  0  0  0
 11 37  1  0  0  0
 12 23  1  0  0  0
 12 38  1  0  0  0
 12 39  1  0  0  0
 13 15  2  0  0  0
 13 19  1  0  0  0
 16 40  1  0  0  0
 17 41  1  0  0  0
 18 26  1  0  0  0
 18 27  1  0  0  0
 18 42  1  0  0  0
 19 43  1  0  0  0
 19 44  1  0  0  0
 20 30  1  0  0  0
 20 45  1  0  0  0
 20 46  1  0  0  0
 21 24  1  0  0  0
 21 47  1  0  0  0
 21 48  1  0  0  0
 22 25  1  0  0  0
 23 28  2  0  0  0
 23 29  1  0  0  0
 24 25  1  0  0  0
 24 49  1  0  0  0
 24 50  1  0  0  0
 25 51  1  0  0  0
 25 52  1  0  0  0
 26 53  1  0  0  0
 26 54  1  0  0  0
 26 55  1  0  0  0
 27 56  1  0  0  0
 27 57  1  0  0  0
 27 58  1  0  0  0
 28 31  1  0  0  0
 28 59  1  0  0  0
 29 32  2  0  0  0
 29 60  1  0  0  0
 30 61  1  0  0  0
 30 62  1  0  0  0
 30 63  1  0  0  0
 31 33  2  0  0  0
 31 64  1  0  0  0
 32 33  1  0  0  0
 32 65  1  0  0  0
 33 66  1  0  0  0
M  END
> <s_m_entry_id>
68092

> <s_m_entry_name>
dock_pv.28

> <s_m_Source_Path>
/home/csk/Desktop/cluster/DUD-E-result/pa2ga

> <s_m_Source_File>
dock_pv.maegz

> <i_m_Source_File_Index>
28

> <chembl_id>
CHEMBL149075

> <chembl_pref_name>
None

> <i_lp_mmshare_version>
53161

> <i_f3d_flags>
0

> <r_lp_tautomer_probability>
1

> <s_lp_Force_Field>
OPLS_2005

> <r_lp_Energy>
6.401374

> <b_lp_Chiralities_Consistent>
1

> <s_lp_Variant>
CHEMBL3474_lig57-1

> <s_i_glide_gridfile>
glide-grid_1kvo

> <i_i_glide_lignum>
97

> <i_i_glide_rotatable_bonds>
13

> <r_i_docking_score>
-8.80950565888264

> <r_i_glide_ligand_efficiency>
-0.266954716935838

> <r_i_glide_ligand_efficiency_sa>
-0.856266418128036

> <r_i_glide_ligand_efficiency_ln>
-1.95918844535636

> <r_i_glide_gscore>
-8.80950565888264

> <r_i_glide_lipo>
-3.63379156304946

> <r_i_glide_hbond>
-0.462852128587715

> <r_i_glide_metal>
0

> <r_i_glide_rewards>
-0.393225136455636

> <r_i_glide_evdw>
-45.9261779785156

> <r_i_glide_ecoul>
-17.2933979034424

> <r_i_glide_erotb>
0.724529072014447

> <r_i_glide_esite>
-0.153847318362135

> <r_i_glide_emodel>
-98.8956698664515

> <r_i_glide_energy>
-63.219575881958

> <r_i_glide_einternal>
6.60433149337769

> <i_i_glide_confnum>
389

> <i_i_glide_posenum>
368

> <r_i_glide_eff_state_penalty>
0

> <s_user_duplicate_titles>
CHEMBL3474_lig57,247691

> <s_m_subgroup_title>
dock_pv

> <s_m_subgroupid>
dock_pv

> <b_m_subgroup_collapsed>
1

$$$$
CHEMBL3474_lig41
                    3D
 Schrodinger Suite 2021-1.
 52 54  0  0  1  0            999 V2000
  -40.0507   62.5888   34.8848 N   0  0  0  0  0  0
  -38.8223   62.9388   33.0206 C   0  0  0  0  0  0
  -39.0429   62.0739   34.0834 C   0  0  0  0  0  0
  -39.7187   64.0555   33.1869 C   0  0  0  0  0  0
  -40.4488   63.8214   34.3894 C   0  0  0  0  0  0
  -38.9421   67.7498   30.7642 C   0  0  0  0  0  0
  -37.8572   62.7185   31.8677 C   0  0  0  0  0  0
  -40.6776   61.9390   36.0437 C   0  0  0  0  0  0
  -39.9980   65.2238   32.4403 C   0  0  0  0  0  0
  -36.7131   63.7283   31.7679 C   0  0  0  0  0  0
  -39.3015   65.3692   31.2503 O   0  0  0  0  0  0
  -39.6148   68.7764   30.8928 O   0  0  0  0  0  0
  -37.6151   67.6980   30.9708 N   0  0  0  0  0  0
  -36.4675   64.5563   32.6429 O   0  0  0  0  0  0
  -39.6223   66.4375   30.3476 C   0  0  0  0  0  0
  -36.0149   63.6964   30.6436 N   0  0  0  0  0  0
  -41.3965   64.7327   34.8743 C   0  0  0  0  0  0
  -38.3398   60.7574   34.3771 C   0  0  0  0  0  0
  -36.9087   68.8223   31.4432 N   0  0  0  0  0  0
  -42.1390   61.5529   35.8262 C   0  0  0  0  0  0
  -41.6130   65.8884   34.1305 C   0  0  0  0  0  0
  -40.9428   66.1294   32.9382 C   0  0  0  0  0  0
  -42.5425   60.9245   34.6413 C   0  0  0  0  0  0
  -43.0770   61.8330   36.8235 C   0  0  0  0  0  0
  -39.0291   59.5516   33.7288 C   0  0  0  0  0  0
  -43.8822   60.5976   34.4534 C   0  0  0  0  0  0
  -44.4167   61.5061   36.6322 C   0  0  0  0  0  0
  -44.8131   60.8979   35.4444 C   0  0  0  0  0  0
  -37.4074   61.7264   31.9048 H   0  0  0  0  0  0
  -38.4134   62.7477   30.9329 H   0  0  0  0  0  0
  -40.6018   62.6393   36.8749 H   0  0  0  0  0  0
  -40.1273   61.0491   36.3385 H   0  0  0  0  0  0
  -37.0824   66.8418   30.8595 H   0  0  0  0  0  0
  -39.2660   66.1618   29.3543 H   0  0  0  0  0  0
  -40.7017   66.5630   30.2434 H   0  0  0  0  0  0
  -35.3162   64.4110   30.4609 H   0  0  0  0  0  0
  -36.3582   63.1478   29.8676 H   0  0  0  0  0  0
  -41.9482   64.5527   35.7856 H   0  0  0  0  0  0
  -37.3140   60.8018   34.0106 H   0  0  0  0  0  0
  -38.2247   60.5849   35.4435 H   0  0  0  0  0  0
  -36.6548   69.3931   30.6418 H   0  0  0  0  0  0
  -37.5749   69.3725   31.9736 H   0  0  0  0  0  0
  -42.3400   66.6087   34.4771 H   0  0  0  0  0  0
  -41.1770   67.0363   32.4036 H   0  0  0  0  0  0
  -41.8249   60.6970   33.8653 H   0  0  0  0  0  0
  -42.7743   62.3102   37.7454 H   0  0  0  0  0  0
  -38.4157   58.6579   33.8430 H   0  0  0  0  0  0
  -39.9987   59.3498   34.1843 H   0  0  0  0  0  0
  -39.1854   59.7008   32.6587 H   0  0  0  0  0  0
  -44.2032   60.1134   33.5414 H   0  0  0  0  0  0
  -45.1442   61.7241   37.4005 H   0  0  0  0  0  0
  -45.8523   60.6433   35.2909 H   0  0  0  0  0  0
  1  3  1  0  0  0
  1  5  1  0  0  0
  1  8  1  0  0  0
  2  3  2  0  0  0
  2  7  1  0  0  0
  2  4  1  0  0  0
  3 18  1  0  0  0
  4  5  1  0  0  0
  4  9  2  0  0  0
  5 17  2  0  0  0
  6 15  1  0  0  0
  6 12  2  0  0  0
  6 13  1  0  0  0
  7 10  1  0  0  0
  7 29  1  0  0  0
  7 30  1  0  0  0
  8 20  1  0  0  0
  8 31  1  0  0  0
  8 32  1  0  0  0
  9 11  1  0  0  0
  9 22  1  0  0  0
 10 14  2  0  0  0
 10 16  1  0  0  0
 11 15  1  0  0  0
 13 19  1  0  0  0
 13 33  1  0  0  0
 15 34  1  0  0  0
 15 35  1  0  0  0
 16 36  1  0  0  0
 16 37  1  0  0  0
 17 21  1  0  0  0
 17 38  1  0  0  0
 18 25  1  0  0  0
 18 39  1  0  0  0
 18 40  1  0  0  0
 19 41  1  0  0  0
 19 42  1  0  0  0
 20 23  1  0  0  0
 20 24  2  0  0  0
 21 22  2  0  0  0
 21 43  1  0  0  0
 22 44  1  0  0  0
 23 26  2  0  0  0
 23 45  1  0  0  0
 24 27  1  0  0  0
 24 46  1  0  0  0
 25 47  1  0  0  0
 25 48  1  0  0  0
 25 49  1  0  0  0
 26 28  1  0  0  0
 26 50  1  0  0  0
 27 28  2  0  0  0
 27 51  1  0  0  0
 28 52  1  0  0  0
M  END
> <s_m_entry_id>
68093

> <s_m_entry_name>
dock_pv.29

> <s_m_Source_Path>
/home/csk/Desktop/cluster/DUD-E-result/pa2ga

> <s_m_Source_File>
dock_pv.maegz

> <i_m_Source_File_Index>
29

> <chembl_id>
CHEMBL149889

> <chembl_pref_name>
None

> <i_lp_mmshare_version>
53161

> <i_f3d_flags>
0

> <r_lp_tautomer_probability>
1

> <s_lp_Force_Field>
OPLS_2005

> <r_lp_Energy>
15.339646

> <b_lp_Chiralities_Consistent>
1

> <s_lp_Variant>
CHEMBL3474_lig41-1

> <s_i_glide_gridfile>
glide-grid_1kvo

> <i_i_glide_lignum>
81

> <i_i_glide_rotatable_bonds>
9

> <r_i_docking_score>
-8.80837503461636

> <r_i_glide_ligand_efficiency>
-0.31458482266487

> <r_i_glide_ligand_efficiency_sa>
-0.955264802162559

> <r_i_glide_ligand_efficiency_ln>
-2.03323158311844

> <r_i_glide_gscore>
-8.80837503461636

> <r_i_glide_lipo>
-3.55375705685346

> <r_i_glide_hbond>
-0.667415317565477

> <r_i_glide_metal>
0

> <r_i_glide_rewards>
-1.13718508953012

> <r_i_glide_evdw>
-41.4723510742188

> <r_i_glide_ecoul>
-13.1710720062256

> <r_i_glide_erotb>
0.804250744521903

> <r_i_glide_esite>
-0.20498996054443

> <r_i_glide_emodel>
-86.3334981533479

> <r_i_glide_energy>
-54.6434230804443

> <r_i_glide_einternal>
5.80238056182861

> <i_i_glide_confnum>
113

> <i_i_glide_posenum>
398

> <r_i_glide_eff_state_penalty>
0

> <s_user_duplicate_titles>
CHEMBL3474_lig41,246788

> <s_m_subgroup_title>
dock_pv

> <s_m_subgroupid>
dock_pv

> <b_m_subgroup_collapsed>
1

$$$$
CHEMBL3474_lig367 
                    3D
 Schrodinger Suite 2021-1.
 42 44  0  0  1  0            999 V2000
  -37.0977   61.4902   32.7578 C   0  0  0  0  0  0
  -37.8722   60.5649   33.4431 C   0  0  0  0  0  0
  -39.1151   60.9256   33.9480 C   0  0  0  0  0  0
  -39.5884   62.2241   33.7171 C   0  0  0  0  0  0
  -38.8335   63.1818   33.0182 C   0  0  0  0  0  0
  -37.5495   62.7979   32.5416 C   0  0  0  0  0  0
  -36.6114   63.7512   31.8422 C   0  0  0  0  0  0
  -36.0147   63.2978   30.7494 N   0  0  0  0  0  0
  -36.4146   64.8965   32.2431 O   0  0  0  0  0  0
  -39.9063   59.8841   34.7412 C   0  0  0  0  0  0
  -41.3964   60.1516   34.8840 C   0  0  0  0  0  0
  -42.2564   59.8362   33.8319 C   0  0  0  0  0  0
  -43.6148   60.0981   33.9479 C   0  0  0  0  0  0
  -44.1124   60.6573   35.1228 C   0  0  0  0  0  0
  -43.2614   60.9564   36.1856 C   0  0  0  0  0  0
  -41.8987   60.7043   36.0641 C   0  0  0  0  0  0
  -39.4045   64.5632   32.8527 C   0  0  0  0  0  0
  -40.0275   65.2068   33.9292 C   0  0  0  0  0  0
  -40.4276   66.5373   33.8371 C   0  0  0  0  0  0
  -40.1783   67.2590   32.6742 C   0  0  0  0  0  0
  -39.5726   66.6442   31.5701 C   0  0  0  0  0  0
  -39.2745   65.2756   31.6489 C   0  0  0  0  0  0
  -39.2240   67.4634   30.3510 C   0  0  0  0  0  0
  -39.6147   68.6213   30.2195 O   0  0  0  0  0  0
  -38.4151   66.8487   29.4399 O   0  0  0  0  0  0
  -36.1179   61.1887   32.4172 H   0  0  0  0  0  0
  -37.4921   59.5663   33.5926 H   0  0  0  0  0  0
  -40.5624   62.4990   34.0947 H   0  0  0  0  0  0
  -35.4083   63.9321   30.2431 H   0  0  0  0  0  0
  -36.3287   62.4423   30.3164 H   0  0  0  0  0  0
  -39.7749   58.8991   34.2841 H   0  0  0  0  0  0
  -39.4565   59.8050   35.7319 H   0  0  0  0  0  0
  -41.8723   59.4059   32.9171 H   0  0  0  0  0  0
  -44.2841   59.8594   33.1336 H   0  0  0  0  0  0
  -45.1712   60.8548   35.2096 H   0  0  0  0  0  0
  -43.6561   61.3854   37.0951 H   0  0  0  0  0  0
  -41.2354   60.9446   36.8824 H   0  0  0  0  0  0
  -40.1672   64.6888   34.8672 H   0  0  0  0  0  0
  -40.8903   67.0220   34.6845 H   0  0  0  0  0  0
  -40.4433   68.3067   32.6484 H   0  0  0  0  0  0
  -38.8520   64.7596   30.7984 H   0  0  0  0  0  0
  -38.1496   65.9653   29.6988 H   0  0  0  0  0  0
  1  2  2  0  0  0
  1  6  1  0  0  0
  1 26  1  0  0  0
  2  3  1  0  0  0
  2 27  1  0  0  0
  3  4  2  0  0  0
  3 10  1  0  0  0
  4  5  1  0  0  0
  4 28  1  0  0  0
  5  6  2  0  0  0
  5 17  1  0  0  0
  6  7  1  0  0  0
  7  8  1  0  0  0
  7  9  2  0  0  0
  8 29  1  0  0  0
  8 30  1  0  0  0
 10 11  1  0  0  0
 10 31  1  0  0  0
 10 32  1  0  0  0
 11 12  2  0  0  0
 11 16  1  0  0  0
 12 13  1  0  0  0
 12 33  1  0  0  0
 13 14  2  0  0  0
 13 34  1  0  0  0
 14 15  1  0  0  0
 14 35  1  0  0  0
 15 16  2  0  0  0
 15 36  1  0  0  0
 16 37  1  0  0  0
 17 18  2  0  0  0
 17 22  1  0  0  0
 18 19  1  0  0  0
 18 38  1  0  0  0
 19 20  2  0  0  0
 19 39  1  0  0  0
 20 21  1  0  0  0
 20 40  1  0  0  0
 21 22  2  0  0  0
 21 23  1  0  0  0
 22 41  1  0  0  0
 23 24  2  0  0  0
 23 25  1  0  0  0
 25 42  1  0  0  0
M  END
> <s_m_entry_id>
68094

> <s_m_entry_name>
dock_pv.30

> <s_m_Source_Path>
/home/csk/Desktop/cluster/DUD-E-result/pa2ga

> <s_m_Source_File>
dock_pv.maegz

> <i_m_Source_File_Index>
30

> <chembl_id>
CHEMBL4442238

> <chembl_pref_name>
None

> <i_lp_mmshare_version>
53161

> <i_f3d_flags>
0

> <r_lp_tautomer_probability>
1

> <s_lp_Force_Field>
OPLS_2005

> <r_lp_Energy>
24.362958

> <b_lp_Chiralities_Consistent>
1

> <s_lp_Variant>
CHEMBL3474_lig367 -1

> <s_i_glide_gridfile>
glide-grid_1kvo

> <i_i_glide_lignum>
465

> <i_i_glide_rotatable_bonds>
6

> <r_i_docking_score>
-8.77165111396638

> <r_i_glide_ligand_efficiency>
-0.350866044558655

> <r_i_glide_ligand_efficiency_sa>
-1.0259385369253

> <r_i_glide_ligand_efficiency_ln>
-2.079144179182

> <r_i_glide_gscore>
-8.77165111396638

> <r_i_glide_lipo>
-4.14338389786446

> <r_i_glide_hbond>
-0.254829155227991

> <r_i_glide_metal>
0

> <r_i_glide_rewards>
-1.47930237823688

> <r_i_glide_evdw>
-47.7560806274414

> <r_i_glide_ecoul>
-7.52316808700562

> <r_i_glide_erotb>
0.68560742108782

> <r_i_glide_esite>
-0.0634638593019514

> <r_i_glide_emodel>
-83.6051302850933

> <r_i_glide_energy>
-55.279248714447

> <r_i_glide_einternal>
5.82286167144775

> <i_i_glide_confnum>
5

> <i_i_glide_posenum>
349

> <r_i_glide_eff_state_penalty>
0

> <s_user_duplicate_titles>
CHEMBL3474_lig367 

> <s_m_subgroup_title>
dock_pv

> <s_m_subgroupid>
dock_pv

> <b_m_subgroup_collapsed>
1

$$$$
CHEMBL3474_lig364 
                    3D
 Schrodinger Suite 2021-1.
 51 53  0  0  1  0            999 V2000
  -37.1513   61.5055   32.7551 C   0  0  0  0  0  0
  -37.9402   60.5945   33.4444 C   0  0  0  0  0  0
  -39.1756   60.9811   33.9514 C   0  0  0  0  0  0
  -39.6225   62.2882   33.7216 C   0  0  0  0  0  0
  -38.8504   63.2346   33.0257 C   0  0  0  0  0  0
  -37.5778   62.8239   32.5439 C   0  0  0  0  0  0
  -36.6268   63.7596   31.8427 C   0  0  0  0  0  0
  -36.0145   63.2983   30.7607 N   0  0  0  0  0  0
  -36.4149   64.8980   32.2441 O   0  0  0  0  0  0
  -39.9915   59.9590   34.7412 C   0  0  0  0  0  0
  -41.4611   60.2909   34.9388 C   0  0  0  0  0  0
  -42.3678   60.0389   33.9085 C   0  0  0  0  0  0
  -43.7103   60.3505   34.0843 C   0  0  0  0  0  0
  -44.1453   60.8957   35.2898 C   0  0  0  0  0  0
  -43.2441   61.1416   36.3232 C   0  0  0  0  0  0
  -41.8985   60.8379   36.1473 C   0  0  0  0  0  0
  -39.4165   64.6196   32.8638 C   0  0  0  0  0  0
  -40.0193   65.2600   33.9554 C   0  0  0  0  0  0
  -40.5183   66.5567   33.8534 C   0  0  0  0  0  0
  -40.4077   67.2488   32.6518 C   0  0  0  0  0  0
  -39.8210   66.6363   31.5435 C   0  0  0  0  0  0
  -39.3634   65.3170   31.6443 C   0  0  0  0  0  0
  -39.6477   67.4173   30.2506 C   0  0  0  0  0  0
  -38.5391   68.4884   30.3527 C   0  0  0  0  0  0
  -38.2136   69.2249   29.0317 C   0  0  0  0  0  0
  -39.2668   70.2287   28.5365 C   0  0  0  0  0  0
  -38.8145   70.8984   27.4415 O   0  0  0  0  0  0
  -40.3738   70.3926   29.0431 O   0  0  0  0  0  0
  -36.1778   61.1833   32.4117 H   0  0  0  0  0  0
  -37.5773   59.5900   33.5991 H   0  0  0  0  0  0
  -40.5908   62.5872   34.0967 H   0  0  0  0  0  0
  -35.4145   63.9288   30.2442 H   0  0  0  0  0  0
  -36.3387   62.4456   30.3273 H   0  0  0  0  0  0
  -39.9251   58.9917   34.2437 H   0  0  0  0  0  0
  -39.5185   59.8222   35.7147 H   0  0  0  0  0  0
  -42.0328   59.6138   32.9721 H   0  0  0  0  0  0
  -44.4145   60.1605   33.2882 H   0  0  0  0  0  0
  -45.1917   61.1262   35.4255 H   0  0  0  0  0  0
  -43.5889   61.5638   37.2559 H   0  0  0  0  0  0
  -41.1955   61.0320   36.9454 H   0  0  0  0  0  0
  -40.0951   64.7541   34.9065 H   0  0  0  0  0  0
  -40.9716   67.0304   34.7111 H   0  0  0  0  0  0
  -40.7694   68.2646   32.5855 H   0  0  0  0  0  0
  -38.9289   64.8455   30.7749 H   0  0  0  0  0  0
  -40.6033   67.8768   29.9987 H   0  0  0  0  0  0
  -39.4194   66.7210   29.4424 H   0  0  0  0  0  0
  -37.6248   67.9976   30.6922 H   0  0  0  0  0  0
  -38.7879   69.2143   31.1284 H   0  0  0  0  0  0
  -38.0108   68.5011   28.2423 H   0  0  0  0  0  0
  -37.2884   69.7877   29.1724 H   0  0  0  0  0  0
  -39.4316   71.5805   27.1412 H   0  0  0  0  0  0
  1  2  2  0  0  0
  1  6  1  0  0  0
  1 29  1  0  0  0
  2  3  1  0  0  0
  2 30  1  0  0  0
  3  4  2  0  0  0
  3 10  1  0  0  0
  4  5  1  0  0  0
  4 31  1  0  0  0
  5  6  2  0  0  0
  5 17  1  0  0  0
  6  7  1  0  0  0
  7  8  1  0  0  0
  7  9  2  0  0  0
  8 32  1  0  0  0
  8 33  1  0  0  0
 10 11  1  0  0  0
 10 34  1  0  0  0
 10 35  1  0  0  0
 11 12  2  0  0  0
 11 16  1  0  0  0
 12 13  1  0  0  0
 12 36  1  0  0  0
 13 14  2  0  0  0
 13 37  1  0  0  0
 14 15  1  0  0  0
 14 38  1  0  0  0
 15 16  2  0  0  0
 15 39  1  0  0  0
 16 40  1  0  0  0
 17 18  2  0  0  0
 17 22  1  0  0  0
 18 19  1  0  0  0
 18 41  1  0  0  0
 19 20  2  0  0  0
 19 42  1  0  0  0
 20 21  1  0  0  0
 20 43  1  0  0  0
 21 22  2  0  0  0
 21 23  1  0  0  0
 22 44  1  0  0  0
 23 24  1  0  0  0
 23 45  1  0  0  0
 23 46  1  0  0  0
 24 25  1  0  0  0
 24 47  1  0  0  0
 24 48  1  0  0  0
 25 26  1  0  0  0
 25 49  1  0  0  0
 25 50  1  0  0  0
 26 27  1  0  0  0
 26 28  2  0  0  0
 27 51  1  0  0  0
M  END
> <s_m_entry_id>
68095

> <s_m_entry_name>
dock_pv.31

> <s_m_Source_Path>
/home/csk/Desktop/cluster/DUD-E-result/pa2ga

> <s_m_Source_File>
dock_pv.maegz

> <i_m_Source_File_Index>
31

> <chembl_id>
CHEMBL4591759

> <chembl_pref_name>
None

> <i_lp_mmshare_version>
53161

> <i_f3d_flags>
0

> <r_lp_tautomer_probability>
1

> <s_lp_Force_Field>
OPLS_2005

> <r_lp_Energy>
22.118132

> <b_lp_Chiralities_Consistent>
1

> <s_lp_Variant>
CHEMBL3474_lig364 -1

> <s_i_glide_gridfile>
glide-grid_1kvo

> <i_i_glide_lignum>
462

> <i_i_glide_rotatable_bonds>
9

> <r_i_docking_score>
-8.74773079348085

> <r_i_glide_ligand_efficiency>
-0.31241895691003

> <r_i_glide_ligand_efficiency_sa>
-0.948687958104155

> <r_i_glide_ligand_efficiency_ln>
-2.01923311167207

> <r_i_glide_gscore>
-8.74773079348085

> <r_i_glide_lipo>
-4.51982593512249

> <r_i_glide_hbond>
-0.241706480279695

> <r_i_glide_metal>
0

> <r_i_glide_rewards>
-1.0414609853189

> <r_i_glide_evdw>
-50.8771629333496

> <r_i_glide_ecoul>
-8.63682079315186

> <r_i_glide_erotb>
0.969994686940046

> <r_i_glide_esite>
-0.0753508140595535

> <r_i_glide_emodel>
-94.4111047276526

> <r_i_glide_energy>
-59.5139837265015

> <r_i_glide_einternal>
5.34268951416016

> <i_i_glide_confnum>
75

> <i_i_glide_posenum>
33

> <r_i_glide_eff_state_penalty>
0

> <s_user_duplicate_titles>
CHEMBL3474_lig364 

> <s_m_subgroup_title>
dock_pv

> <s_m_subgroupid>
dock_pv

> <b_m_subgroup_collapsed>
1

$$$$
CHEMBL3474_lig362 
                    3D
 Schrodinger Suite 2021-1.
 51 53  0  0  1  0            999 V2000
  -36.8544   61.8755   33.0640 C   0  0  0  0  0  0
  -37.5571   60.9683   33.8430 C   0  0  0  0  0  0
  -38.8842   61.1965   34.1974 C   0  0  0  0  0  0
  -39.4985   62.3678   33.7506 C   0  0  0  0  0  0
  -38.8156   63.2980   32.9606 C   0  0  0  0  0  0
  -37.4648   63.0530   32.6270 C   0  0  0  0  0  0
  -36.6402   64.0306   31.8432 C   0  0  0  0  0  0
  -36.0150   63.5739   30.7678 N   0  0  0  0  0  0
  -36.4792   65.1772   32.2430 O   0  0  0  0  0  0
  -39.6351   60.1522   35.0239 C   0  0  0  0  0  0
  -41.1564   60.2734   35.0311 C   0  0  0  0  0  0
  -41.8905   59.8793   33.9090 C   0  0  0  0  0  0
  -43.2769   59.9960   33.9086 C   0  0  0  0  0  0
  -43.9269   60.4991   35.0331 C   0  0  0  0  0  0
  -43.2024   60.8910   36.1571 C   0  0  0  0  0  0
  -41.8141   60.7784   36.1557 C   0  0  0  0  0  0
  -39.6042   64.4276   32.4115 C   0  0  0  0  0  0
  -40.6334   64.1356   31.5180 C   0  0  0  0  0  0
  -41.3652   65.1537   30.9328 C   0  0  0  0  0  0
  -41.0969   66.4820   31.2400 C   0  0  0  0  0  0
  -40.1024   66.7959   32.1623 C   0  0  0  0  0  0
  -39.3588   65.7650   32.7467 C   0  0  0  0  0  0
  -39.8269   68.2562   32.4935 C   0  0  0  0  0  0
  -39.1816   69.0658   31.3346 C   0  0  2  0  0  0
  -37.8776   68.4179   30.8324 C   0  0  0  0  0  0
  -36.8150   68.4980   31.4430 O   0  0  0  0  0  0
  -38.0538   67.6980   29.6892 O   0  0  0  0  0  0
  -38.9587   70.5381   31.7438 C   0  0  0  0  0  0
  -35.8210   61.6638   32.8265 H   0  0  0  0  0  0
  -37.0401   60.0980   34.1878 H   0  0  0  0  0  0
  -40.5346   62.5568   33.9923 H   0  0  0  0  0  0
  -35.4569   64.2426   30.2430 H   0  0  0  0  0  0
  -36.3032   62.7074   30.3398 H   0  0  0  0  0  0
  -39.3827   59.1613   34.6430 H   0  0  0  0  0  0
  -39.2548   60.1837   36.0463 H   0  0  0  0  0  0
  -41.3866   59.4949   33.0340 H   0  0  0  0  0  0
  -43.8496   59.6960   33.0429 H   0  0  0  0  0  0
  -45.0040   60.5856   35.0302 H   0  0  0  0  0  0
  -43.7143   61.2810   37.0248 H   0  0  0  0  0  0
  -41.2512   61.0861   37.0252 H   0  0  0  0  0  0
  -40.8638   63.1138   31.2612 H   0  0  0  0  0  0
  -42.1539   64.8980   30.2430 H   0  0  0  0  0  0
  -41.6559   67.2681   30.7583 H   0  0  0  0  0  0
  -38.5718   66.0025   33.4430 H   0  0  0  0  0  0
  -39.2150   68.3034   33.3938 H   0  0  0  0  0  0
  -40.7799   68.7075   32.7732 H   0  0  0  0  0  0
  -39.8814   69.0810   30.4970 H   0  0  0  0  0  0
  -37.2532   67.2257   29.4430 H   0  0  0  0  0  0
  -38.5360   71.1222   30.9240 H   0  0  0  0  0  0
  -39.8968   71.0167   32.0267 H   0  0  0  0  0  0
  -38.2769   70.6269   32.5908 H   0  0  0  0  0  0
  1  2  2  0  0  0
  1  6  1  0  0  0
  1 29  1  0  0  0
  2  3  1  0  0  0
  2 30  1  0  0  0
  3  4  2  0  0  0
  3 10  1  0  0  0
  4  5  1  0  0  0
  4 31  1  0  0  0
  5  6  2  0  0  0
  5 17  1  0  0  0
  6  7  1  0  0  0
  7  8  1  0  0  0
  7  9  2  0  0  0
  8 32  1  0  0  0
  8 33  1  0  0  0
 10 11  1  0  0  0
 10 34  1  0  0  0
 10 35  1  0  0  0
 11 12  2  0  0  0
 11 16  1  0  0  0
 12 13  1  0  0  0
 12 36  1  0  0  0
 13 14  2  0  0  0
 13 37  1  0  0  0
 14 15  1  0  0  0
 14 38  1  0  0  0
 15 16  2  0  0  0
 15 39  1  0  0  0
 16 40  1  0  0  0
 17 18  2  0  0  0
 17 22  1  0  0  0
 18 19  1  0  0  0
 18 41  1  0  0  0
 19 20  2  0  0  0
 19 42  1  0  0  0
 20 21  1  0  0  0
 20 43  1  0  0  0
 21 22  2  0  0  0
 21 23  1  0  0  0
 22 44  1  0  0  0
 23 24  1  0  0  0
 23 45  1  0  0  0
 23 46  1  0  0  0
 24 25  1  0  0  0
 24 28  1  0  0  0
 24 47  1  0  0  0
 25 26  2  0  0  0
 25 27  1  0  0  0
 27 48  1  0  0  0
 28 49  1  0  0  0
 28 50  1  0  0  0
 28 51  1  0  0  0
M  END
> <s_m_entry_id>
68096

> <s_m_entry_name>
dock_pv.32

> <s_m_Source_Path>
/home/csk/Desktop/cluster/DUD-E-result/pa2ga

> <s_m_Source_File>
dock_pv.maegz

> <i_m_Source_File_Index>
32

> <chembl_id>
CHEMBL4451830

> <chembl_pref_name>
None

> <i_lp_mmshare_version>
53161

> <i_f3d_flags>
0

> <r_lp_tautomer_probability>
1

> <s_lp_Force_Field>
OPLS_2005

> <r_lp_Energy>
26.2253

> <b_lp_Chiralities_Consistent>
1

> <s_lp_Variant>
CHEMBL3474_lig362 -1

> <s_i_glide_gridfile>
glide-grid_1kvo

> <i_i_glide_lignum>
459

> <i_i_glide_rotatable_bonds>
8

> <r_i_docking_score>
-8.73494476614036

> <r_i_glide_ligand_efficiency>
-0.311962313076441

> <r_i_glide_ligand_efficiency_sa>
-0.947301318476544

> <r_i_glide_ligand_efficiency_ln>
-2.01628172114781

> <r_i_glide_gscore>
-8.73494476614036

> <r_i_glide_lipo>
-4.78286182039174

> <r_i_glide_hbond>
-0.252945165770191

> <r_i_glide_metal>
0

> <r_i_glide_rewards>
-0.936198486017394

> <r_i_glide_evdw>
-43.1645431518555

> <r_i_glide_ecoul>
-8.31085586547852

> <r_i_glide_erotb>
0.831424017377183

> <r_i_glide_esite>
-0.189507773923665

> <r_i_glide_emodel>
-80.8918577264741

> <r_i_glide_energy>
-51.475399017334

> <r_i_glide_einternal>
5.75707292556763

> <i_i_glide_confnum>
67

> <i_i_glide_posenum>
190

> <r_i_glide_eff_state_penalty>
0

> <s_user_duplicate_titles>
CHEMBL3474_lig362 ,CHEMBL3474_lig358 

> <s_m_subgroup_title>
dock_pv

> <s_m_subgroupid>
dock_pv

> <b_m_subgroup_collapsed>
1

$$$$
CHEMBL3474_lig69
                    3D
 Schrodinger Suite 2021-1.
 56 58  0  0  1  0            999 V2000
  -40.1145   62.9163   34.8814 N   0  0  0  0  0  0
  -38.7739   62.9811   33.0596 C   0  0  0  0  0  0
  -39.1351   62.2306   34.1699 C   0  0  0  0  0  0
  -39.5862   64.1563   33.0769 C   0  0  0  0  0  0
  -40.3718   64.1309   34.2566 C   0  0  0  0  0  0
  -37.9000   69.7102   31.4059 S   0  0  0  0  0  0
  -37.7467   62.6425   31.9910 C   0  0  0  0  0  0
  -40.8148   62.4371   36.0828 C   0  0  0  0  0  0
  -41.2076   65.2058   34.5953 C   0  0  0  0  0  0
  -36.6345   63.6837   31.7858 C   0  0  0  0  0  0
  -39.6964   65.2403   32.2016 C   0  0  0  0  0  0
  -39.0861   70.0663   32.1899 O   0  0  0  0  0  0
  -36.8150   68.8979   31.9666 O   0  0  0  0  0  0
  -37.2149   71.1022   30.8459 O   0  0  0  0  0  0
  -36.6692   64.8245   32.2441 O   0  0  0  0  0  0
  -38.4131   68.9973   29.7391 C   0  0  0  0  0  0
  -40.4843   66.3399   32.5450 C   0  0  0  0  0  0
  -35.6151   63.2981   31.0407 N   0  0  0  0  0  0
  -41.2096   66.3105   33.7367 C   0  0  0  0  0  0
  -38.5888   60.8753   34.5981 C   0  0  0  0  0  0
  -42.2361   61.9151   35.8750 C   0  0  0  0  0  0
  -38.8919   67.5371   29.8691 C   0  0  0  0  0  0
  -40.5640   67.4739   31.7567 O   0  0  0  0  0  0
  -40.3521   67.3492   30.3461 C   0  0  0  0  0  0
  -42.6616   61.4057   34.6425 C   0  0  0  0  0  0
  -43.1084   61.9033   36.9678 C   0  0  0  0  0  0
  -39.4611   59.7061   34.1146 C   0  0  0  0  0  0
  -43.9491   60.8978   34.5064 C   0  0  0  0  0  0
  -44.3974   61.3965   36.8305 C   0  0  0  0  0  0
  -44.8123   60.8983   35.5989 C   0  0  0  0  0  0
  -37.2770   61.6779   32.1844 H   0  0  0  0  0  0
  -38.2530   62.5274   31.0354 H   0  0  0  0  0  0
  -40.8363   63.2664   36.7924 H   0  0  0  0  0  0
  -40.2463   61.6424   36.5595 H   0  0  0  0  0  0
  -41.8106   65.2003   35.4920 H   0  0  0  0  0  0
  -39.1205   65.2269   31.2934 H   0  0  0  0  0  0
  -36.2628   70.9333   30.6422 H   0  0  0  0  0  0
  -37.5365   69.0594   29.0941 H   0  0  0  0  0  0
  -39.1752   69.6573   29.3247 H   0  0  0  0  0  0
  -34.9274   63.9877   30.7635 H   0  0  0  0  0  0
  -35.6172   62.3877   30.6085 H   0  0  0  0  0  0
  -41.8166   67.1656   33.9945 H   0  0  0  0  0  0
  -37.5869   60.7354   34.1912 H   0  0  0  0  0  0
  -38.4350   60.8168   35.6728 H   0  0  0  0  0  0
  -38.1936   66.9791   30.4925 H   0  0  0  0  0  0
  -38.8138   67.0731   28.8847 H   0  0  0  0  0  0
  -40.7287   66.3849   30.0019 H   0  0  0  0  0  0
  -40.9859   68.0882   29.8510 H   0  0  0  0  0  0
  -41.9999   61.3949   33.7885 H   0  0  0  0  0  0
  -42.7862   62.2811   37.9279 H   0  0  0  0  0  0
  -38.9385   58.7594   34.2431 H   0  0  0  0  0  0
  -40.4002   59.6483   34.6657 H   0  0  0  0  0  0
  -39.7036   59.7975   33.0545 H   0  0  0  0  0  0
  -44.2835   60.5046   33.5563 H   0  0  0  0  0  0
  -45.0713   61.3875   37.6754 H   0  0  0  0  0  0
  -45.8113   60.5020   35.4861 H   0  0  0  0  0  0
  1  3  1  0  0  0
  1  5  1  0  0  0
  1  8  1  0  0  0
  2  3  2  0  0  0
  2  7  1  0  0  0
  2  4  1  0  0  0
  3 20  1  0  0  0
  4  5  1  0  0  0
  4 11  2  0  0  0
  5  9  2  0  0  0
  6 16  1  0  0  0
  6 12  2  0  0  0
  6 13  2  0  0  0
  6 14  1  0  0  0
  7 10  1  0  0  0
  7 31  1  0  0  0
  7 32  1  0  0  0
  8 21  1  0  0  0
  8 33  1  0  0  0
  8 34  1  0  0  0
  9 19  1  0  0  0
  9 35  1  0  0  0
 10 15  2  0  0  0
 10 18  1  0  0  0
 11 17  1  0  0  0
 11 36  1  0  0  0
 14 37  1  0  0  0
 16 22  1  0  0  0
 16 38  1  0  0  0
 16 39  1  0  0  0
 17 19  2  0  0  0
 17 23  1  0  0  0
 18 40  1  0  0  0
 18 41  1  0  0  0
 19 42  1  0  0  0
 20 27  1  0  0  0
 20 43  1  0  0  0
 20 44  1  0  0  0
 21 25  1  0  0  0
 21 26  2  0  0  0
 22 24  1  0  0  0
 22 45  1  0  0  0
 22 46  1  0  0  0
 23 24  1  0  0  0
 24 47  1  0  0  0
 24 48  1  0  0  0
 25 28  2  0  0  0
 25 49  1  0  0  0
 26 29  1  0  0  0
 26 50  1  0  0  0
 27 51  1  0  0  0
 27 52  1  0  0  0
 27 53  1  0  0  0
 28 30  1  0  0  0
 28 54  1  0  0  0
 29 30  2  0  0  0
 29 55  1  0  0  0
 30 56  1  0  0  0
M  END
> <s_m_entry_id>
68098

> <s_m_entry_name>
dock_pv.34

> <s_m_Source_Path>
/home/csk/Desktop/cluster/DUD-E-result/pa2ga

> <s_m_Source_File>
dock_pv.maegz

> <i_m_Source_File_Index>
34

> <chembl_id>
CHEMBL149030

> <chembl_pref_name>
None

> <i_lp_mmshare_version>
53161

> <i_f3d_flags>
0

> <r_lp_tautomer_probability>
1

> <s_lp_Force_Field>
OPLS_2005

> <r_lp_Energy>
3.893529

> <b_lp_Chiralities_Consistent>
1

> <s_lp_Variant>
CHEMBL3474_lig69-1

> <s_i_glide_gridfile>
glide-grid_1kvo

> <i_i_glide_lignum>
109

> <i_i_glide_rotatable_bonds>
11

> <r_i_docking_score>
-8.73166537682602

> <r_i_glide_ligand_efficiency>
-0.291055512560867

> <r_i_glide_ligand_efficiency_sa>
-0.904377148640867

> <r_i_glide_ligand_efficiency_ln>
-1.9839295127292

> <r_i_glide_gscore>
-8.73166537682602

> <r_i_glide_lipo>
-3.8480034912346

> <r_i_glide_hbond>
-0.293449056428338

> <r_i_glide_metal>
0

> <r_i_glide_rewards>
-0.600145896588892

> <r_i_glide_evdw>
-47.4087829589844

> <r_i_glide_ecoul>
-15.0909090042114

> <r_i_glide_erotb>
0.858151952622225

> <r_i_glide_esite>
-0.214143386615485

> <r_i_glide_emodel>
-96.3703871764457

> <r_i_glide_energy>
-62.4996919631958

> <r_i_glide_einternal>
9.73990535736084

> <i_i_glide_confnum>
216

> <i_i_glide_posenum>
247

> <r_i_glide_eff_state_penalty>
0

> <s_user_duplicate_titles>
CHEMBL3474_lig69,247716

> <s_m_subgroup_title>
dock_pv

> <s_m_subgroupid>
dock_pv

> <b_m_subgroup_collapsed>
1

$$$$
CHEMBL3474_lig39
                    3D
 Schrodinger Suite 2021-1.
 63 65  0  0  1  0            999 V2000
  -40.0011   62.5037   35.0030 N   0  0  0  0  0  0
  -38.5800   62.6269   33.2388 C   0  0  0  0  0  0
  -38.9903   61.8466   34.3080 C   0  0  0  0  0  0
  -39.4307   63.7736   33.2380 C   0  0  0  0  0  0
  -40.2837   63.7023   34.3670 C   0  0  0  0  0  0
  -37.6502   70.0189   31.2760 P   0  0  0  0  0  0
  -37.4882   62.3151   32.2154 C   0  0  0  0  0  0
  -40.7430   62.0156   36.1740 C   0  0  0  0  0  0
  -41.2036   64.7217   34.6567 C   0  0  0  0  0  0
  -36.5818   63.5004   31.8417 C   0  0  0  0  0  0
  -39.5317   64.8668   32.3797 C   0  0  0  0  0  0
  -36.8150   68.8977   31.7969 O   0  0  0  0  0  0
  -36.4150   64.4645   32.5868 O   0  0  0  0  0  0
  -37.2255   70.6002   29.8074 O   0  0  0  0  0  0
  -37.6115   71.3355   32.2408 O   0  0  0  0  0  0
  -40.4054   65.9138   32.6754 C   0  0  0  0  0  0
  -36.0150   63.4685   30.6447 N   0  0  0  0  0  0
  -41.2264   65.8242   33.7977 C   0  0  0  0  0  0
  -38.4604   60.4775   34.6817 C   0  0  0  0  0  0
  -39.4624   69.7516   31.0637 C   0  0  0  0  0  0
  -42.1836   61.5972   35.8981 C   0  0  0  0  0  0
  -39.7802   68.5448   30.1554 C   0  0  0  0  0  0
  -40.4854   67.0529   31.9017 O   0  0  0  0  0  0
  -39.5787   67.1836   30.8046 C   0  0  0  0  0  0
  -36.9015   69.7355   28.7271 C   0  0  0  0  0  0
  -38.0889   72.5995   31.8078 C   0  0  0  0  0  0
  -43.1525   61.8262   36.8792 C   0  0  0  0  0  0
  -42.5405   60.9789   34.6939 C   0  0  0  0  0  0
  -38.9557   59.4049   33.7062 C   0  0  0  0  0  0
  -44.4756   61.4634   36.6509 C   0  0  0  0  0  0
  -43.8628   60.6141   34.4667 C   0  0  0  0  0  0
  -44.8234   60.8661   35.4434 C   0  0  0  0  0  0
  -36.8396   61.5086   32.5568 H   0  0  0  0  0  0
  -37.9609   61.9476   31.3034 H   0  0  0  0  0  0
  -40.7428   62.8291   36.9018 H   0  0  0  0  0  0
  -40.2245   61.1904   36.6534 H   0  0  0  0  0  0
  -41.8626   64.6714   35.5111 H   0  0  0  0  0  0
  -38.8989   64.8950   31.5094 H   0  0  0  0  0  0
  -35.4746   64.2737   30.3366 H   0  0  0  0  0  0
  -36.3028   62.7794   29.9660 H   0  0  0  0  0  0
  -41.9082   66.6348   34.0083 H   0  0  0  0  0  0
  -37.3715   60.5037   34.6435 H   0  0  0  0  0  0
  -38.6938   60.1695   35.6969 H   0  0  0  0  0  0
  -39.8836   70.6541   30.6221 H   0  0  0  0  0  0
  -39.9246   69.6325   32.0441 H   0  0  0  0  0  0
  -39.2137   68.5950   29.2288 H   0  0  0  0  0  0
  -40.8140   68.5665   29.8429 H   0  0  0  0  0  0
  -38.5425   67.0750   31.1268 H   0  0  0  0  0  0
  -39.7779   66.4068   30.0628 H   0  0  0  0  0  0
  -35.9721   70.0449   28.2500 H   0  0  0  0  0  0
  -36.7892   68.6972   29.0410 H   0  0  0  0  0  0
  -37.6750   69.7914   27.9618 H   0  0  0  0  0  0
  -37.2686   73.3150   31.8080 H   0  0  0  0  0  0
  -38.5195   72.5884   30.8063 H   0  0  0  0  0  0
  -38.8475   72.9637   32.4988 H   0  0  0  0  0  0
  -42.8848   62.2901   37.8178 H   0  0  0  0  0  0
  -41.8025   60.7890   33.9290 H   0  0  0  0  0  0
  -38.4171   58.4705   33.8481 H   0  0  0  0  0  0
  -40.0205   59.2179   33.8445 H   0  0  0  0  0  0
  -38.8049   59.6993   32.6667 H   0  0  0  0  0  0
  -45.2280   61.6448   37.4047 H   0  0  0  0  0  0
  -44.1461   60.1415   33.5366 H   0  0  0  0  0  0
  -45.8504   60.5822   35.2618 H   0  0  0  0  0  0
  1  3  1  0  0  0
  1  5  1  0  0  0
  1  8  1  0  0  0
  2  3  2  0  0  0
  2  7  1  0  0  0
  2  4  1  0  0  0
  3 19  1  0  0  0
  4  5  1  0  0  0
  4 11  2  0  0  0
  5  9  2  0  0  0
  6 20  1  0  0  0
  6 12  2  0  0  0
  6 14  1  0  0  0
  6 15  1  0  0  0
  7 10  1  0  0  0
  7 33  1  0  0  0
  7 34  1  0  0  0
  8 21  1  0  0  0
  8 35  1  0  0  0
  8 36  1  0  0  0
  9 18  1  0  0  0
  9 37  1  0  0  0
 10 13  2  0  0  0
 10 17  1  0  0  0
 11 16  1  0  0  0
 11 38  1  0  0  0
 14 25  1  0  0  0
 15 26  1  0  0  0
 16 18  2  0  0  0
 16 23  1  0  0  0
 17 39  1  0  0  0
 17 40  1  0  0  0
 18 41  1  0  0  0
 19 29  1  0  0  0
 19 42  1  0  0  0
 19 43  1  0  0  0
 20 22  1  0  0  0
 20 44  1  0  0  0
 20 45  1  0  0  0
 21 27  2  0  0  0
 21 28  1  0  0  0
 22 24  1  0  0  0
 22 46  1  0  0  0
 22 47  1  0  0  0
 23 24  1  0  0  0
 24 48  1  0  0  0
 24 49  1  0  0  0
 25 50  1  0  0  0
 25 51  1  0  0  0
 25 52  1  0  0  0
 26 53  1  0  0  0
 26 54  1  0  0  0
 26 55  1  0  0  0
 27 30  1  0  0  0
 27 56  1  0  0  0
 28 31  2  0  0  0
 28 57  1  0  0  0
 29 58  1  0  0  0
 29 59  1  0  0  0
 29 60  1  0  0  0
 30 32  2  0  0  0
 30 61  1  0  0  0
 31 32  1  0  0  0
 31 62  1  0  0  0
 32 63  1  0  0  0
M  END
> <s_m_entry_id>
68099

> <s_m_entry_name>
dock_pv.35

> <s_m_Source_Path>
/home/csk/Desktop/cluster/DUD-E-result/pa2ga

> <s_m_Source_File>
dock_pv.maegz

> <i_m_Source_File_Index>
35

> <chembl_id>
CHEMBL356887

> <chembl_pref_name>
None

> <i_lp_mmshare_version>
53161

> <i_f3d_flags>
0

> <r_lp_tautomer_probability>
1

> <s_lp_Force_Field>
OPLS_2005

> <r_lp_Energy>
-0.921422

> <b_lp_Chiralities_Consistent>
1

> <s_lp_Variant>
CHEMBL3474_lig39-1

> <s_i_glide_gridfile>
glide-grid_1kvo

> <i_i_glide_lignum>
79

> <i_i_glide_rotatable_bonds>
12

> <r_i_docking_score>
-8.69780580000524

> <r_i_glide_ligand_efficiency>
-0.271806431250164

> <r_i_glide_ligand_efficiency_sa>
-0.862931628799566

> <r_i_glide_ligand_efficiency_ln>
-1.94767581185271

> <r_i_glide_gscore>
-8.69780580000524

> <r_i_glide_lipo>
-3.88057038315977

> <r_i_glide_hbond>
-0.758504079373784

> <r_i_glide_metal>
0

> <r_i_glide_rewards>
-0.533993193441748

> <r_i_glide_evdw>
-46.3996696472168

> <r_i_glide_ecoul>
-12.5675048828125

> <r_i_glide_erotb>
0.765448196816133

> <r_i_glide_esite>
-0.0850771260633504

> <r_i_glide_emodel>
-94.9136428904413

> <r_i_glide_energy>
-58.9671745300293

> <r_i_glide_einternal>
5.37080001831055

> <i_i_glide_confnum>
22

> <i_i_glide_posenum>
249

> <r_i_glide_eff_state_penalty>
0

> <s_user_duplicate_titles>
CHEMBL3474_lig39,246683

> <s_m_subgroup_title>
dock_pv

> <s_m_subgroupid>
dock_pv

> <b_m_subgroup_collapsed>
1

$$$$
CHEMBL3474_lig366 
                    3D
 Schrodinger Suite 2021-1.
 45 47  0  0  1  0            999 V2000
  -37.1227   61.4963   32.7600 C   0  0  0  0  0  0
  -37.9085   60.5739   33.4374 C   0  0  0  0  0  0
  -39.1546   60.9411   33.9289 C   0  0  0  0  0  0
  -39.6120   62.2471   33.7051 C   0  0  0  0  0  0
  -38.8427   63.2035   33.0193 C   0  0  0  0  0  0
  -37.5630   62.8085   32.5425 C   0  0  0  0  0  0
  -36.6188   63.7570   31.8429 C   0  0  0  0  0  0
  -36.0151   63.2991   30.7534 N   0  0  0  0  0  0
  -36.4131   64.8980   32.2471 O   0  0  0  0  0  0
  -39.9717   59.8971   34.6911 C   0  0  0  0  0  0
  -41.4483   60.2107   34.8738 C   0  0  0  0  0  0
  -41.8973   60.7649   36.0747 C   0  0  0  0  0  0
  -43.2477   61.0552   36.2408 C   0  0  0  0  0  0
  -44.1409   60.7874   35.2061 C   0  0  0  0  0  0
  -43.6965   60.2286   34.0098 C   0  0  0  0  0  0
  -42.3495   59.9324   33.8436 C   0  0  0  0  0  0
  -39.4075   64.5883   32.8659 C   0  0  0  0  0  0
  -40.0233   65.2234   33.9536 C   0  0  0  0  0  0
  -40.4618   66.5435   33.8680 C   0  0  0  0  0  0
  -40.2686   67.2639   32.6927 C   0  0  0  0  0  0
  -39.6776   66.6508   31.5863 C   0  0  0  0  0  0
  -39.3034   65.3069   31.6643 C   0  0  0  0  0  0
  -39.3283   67.4694   30.3480 C   0  0  0  0  0  0
  -37.9941   68.2200   30.4904 C   0  0  0  0  0  0
  -37.7693   69.0199   29.4135 O   0  0  0  0  0  0
  -37.2155   68.1040   31.4415 O   0  0  0  0  0  0
  -36.1433   61.1890   32.4206 H   0  0  0  0  0  0
  -37.5385   59.5714   33.5877 H   0  0  0  0  0  0
  -40.5870   62.5297   34.0732 H   0  0  0  0  0  0
  -35.4141   63.9397   30.2473 H   0  0  0  0  0  0
  -36.3705   62.4750   30.2973 H   0  0  0  0  0  0
  -39.8863   58.9363   34.1819 H   0  0  0  0  0  0
  -39.5096   59.7384   35.6669 H   0  0  0  0  0  0
  -41.2002   60.9727   36.8741 H   0  0  0  0  0  0
  -43.5987   61.4862   37.1676 H   0  0  0  0  0  0
  -45.1912   61.0061   35.3306 H   0  0  0  0  0  0
  -44.4062   60.0190   33.2219 H   0  0  0  0  0  0
  -42.0067   59.4983   32.9148 H   0  0  0  0  0  0
  -40.1360   64.7023   34.8943 H   0  0  0  0  0  0
  -40.9156   67.0177   34.7261 H   0  0  0  0  0  0
  -40.5587   68.3026   32.6501 H   0  0  0  0  0  0
  -38.8527   64.8419   30.7989 H   0  0  0  0  0  0
  -40.1201   68.1901   30.1456 H   0  0  0  0  0  0
  -39.2503   66.8138   29.4797 H   0  0  0  0  0  0
  -36.9371   69.4934   29.4960 H   0  0  0  0  0  0
  1  2  2  0  0  0
  1  6  1  0  0  0
  1 27  1  0  0  0
  2  3  1  0  0  0
  2 28  1  0  0  0
  3  4  2  0  0  0
  3 10  1  0  0  0
  4  5  1  0  0  0
  4 29  1  0  0  0
  5  6  2  0  0  0
  5 17  1  0  0  0
  6  7  1  0  0  0
  7  8  1  0  0  0
  7  9  2  0  0  0
  8 30  1  0  0  0
  8 31  1  0  0  0
 10 11  1  0  0  0
 10 32  1  0  0  0
 10 33  1  0  0  0
 11 12  2  0  0  0
 11 16  1  0  0  0
 12 13  1  0  0  0
 12 34  1  0  0  0
 13 14  2  0  0  0
 13 35  1  0  0  0
 14 15  1  0  0  0
 14 36  1  0  0  0
 15 16  2  0  0  0
 15 37  1  0  0  0
 16 38  1  0  0  0
 17 18  2  0  0  0
 17 22  1  0  0  0
 18 19  1  0  0  0
 18 39  1  0  0  0
 19 20  2  0  0  0
 19 40  1  0  0  0
 20 21  1  0  0  0
 20 41  1  0  0  0
 21 22  2  0  0  0
 21 23  1  0  0  0
 22 42  1  0  0  0
 23 24  1  0  0  0
 23 43  1  0  0  0
 23 44  1  0  0  0
 24 25  1  0  0  0
 24 26  2  0  0  0
 25 45  1  0  0  0
M  END
> <s_m_entry_id>
68100

> <s_m_entry_name>
dock_pv.36

> <s_m_Source_Path>
/home/csk/Desktop/cluster/DUD-E-result/pa2ga

> <s_m_Source_File>
dock_pv.maegz

> <i_m_Source_File_Index>
36

> <chembl_id>
CHEMBL4468927

> <chembl_pref_name>
None

> <i_lp_mmshare_version>
53161

> <i_f3d_flags>
0

> <r_lp_tautomer_probability>
1

> <s_lp_Force_Field>
OPLS_2005

> <r_lp_Energy>
23.480157

> <b_lp_Chiralities_Consistent>
1

> <s_lp_Variant>
CHEMBL3474_lig366 -1

> <s_i_glide_gridfile>
glide-grid_1kvo

> <i_i_glide_lignum>
464

> <i_i_glide_rotatable_bonds>
7

> <r_i_docking_score>
-8.69289824050315

> <r_i_glide_ligand_efficiency>
-0.334342240019352

> <r_i_glide_ligand_efficiency_sa>
-0.990487570484142

> <r_i_glide_ligand_efficiency_ln>
-2.04149862805654

> <r_i_glide_gscore>
-8.69289824050315

> <r_i_glide_lipo>
-4.24026182979251

> <r_i_glide_hbond>
-0.259641569618296

> <r_i_glide_metal>
0

> <r_i_glide_rewards>
-1.24276849042068

> <r_i_glide_evdw>
-48.7275238037109

> <r_i_glide_ecoul>
-8.15637683868408

> <r_i_glide_erotb>
0.796312031799523

> <r_i_glide_esite>
-0.0867056664830164

> <r_i_glide_emodel>
-89.8341651444795

> <r_i_glide_energy>
-56.883900642395

> <r_i_glide_einternal>
4.27211475372314

> <i_i_glide_confnum>
82

> <i_i_glide_posenum>
312

> <r_i_glide_eff_state_penalty>
0

> <s_user_duplicate_titles>
CHEMBL3474_lig366 

> <s_m_subgroup_title>
dock_pv

> <s_m_subgroupid>
dock_pv

> <b_m_subgroup_collapsed>
1

$$$$
CHEMBL3474_lig87
                    3D
 Schrodinger Suite 2021-1.
 54 56  0  0  1  0            999 V2000
  -40.9496   65.4707   35.1088 C   0  0  0  0  0  0
  -40.8147   64.1311   35.4888 C   0  0  0  0  0  0
  -40.0766   63.2909   34.6395 C   0  0  0  0  0  0
  -39.4992   63.7823   33.4432 C   0  0  0  0  0  0
  -39.7076   65.1158   33.0782 C   0  0  0  0  0  0
  -40.4158   65.9779   33.9255 C   0  0  0  0  0  0
  -39.7731   61.9360   34.6983 N   0  0  0  0  0  0
  -38.9970   61.5864   33.6033 C   0  0  0  0  0  0
  -38.7691   62.7155   32.8313 C   0  0  0  0  0  0
  -37.9738   62.8391   31.5422 C   0  0  0  0  0  0
  -36.7199   63.7203   31.6543 C   0  0  0  0  0  0
  -36.7206   64.7992   32.2431 O   0  0  0  0  0  0
  -35.6244   63.2979   31.0430 N   0  0  0  0  0  0
  -38.5369   60.1591   33.3727 C   0  0  0  0  0  0
  -40.2984   61.0073   35.7024 C   0  0  0  0  0  0
  -41.8045   60.8416   35.6002 C   0  0  0  0  0  0
  -42.3594   60.2780   34.4488 C   0  0  0  0  0  0
  -43.7388   60.1891   34.3234 C   0  0  0  0  0  0
  -44.5567   60.6507   35.3533 C   0  0  0  0  0  0
  -44.0107   61.1947   36.5123 C   0  0  0  0  0  0
  -42.6290   61.2935   36.6365 C   0  0  0  0  0  0
  -40.6132   67.3268   33.6743 O   0  0  0  0  0  0
  -40.2146   67.8821   32.4207 C   0  0  0  0  0  0
  -39.9237   69.3883   32.5440 C   0  0  0  0  0  0
  -39.3519   70.0126   31.2449 C   0  0  0  0  0  0
  -37.5790   69.5620   31.0432 P   0  0  0  0  0  0
  -37.1197   68.2060   31.4428 O   0  0  0  0  0  0
  -37.2174   69.9540   29.5181 O   0  0  0  0  0  0
  -36.8148   70.7382   31.8430 O   0  0  0  0  0  0
  -41.5010   66.1399   35.7542 H   0  0  0  0  0  0
  -41.2598   63.7714   36.4041 H   0  0  0  0  0  0
  -39.2814   65.4392   32.1454 H   0  0  0  0  0  0
  -37.6965   61.8617   31.1475 H   0  0  0  0  0  0
  -38.6070   63.2881   30.7792 H   0  0  0  0  0  0
  -34.8415   63.9317   30.9610 H   0  0  0  0  0  0
  -35.6415   62.4398   30.5133 H   0  0  0  0  0  0
  -37.8497   60.0745   32.5320 H   0  0  0  0  0  0
  -38.0146   59.7587   34.2385 H   0  0  0  0  0  0
  -39.3740   59.4954   33.1622 H   0  0  0  0  0  0
  -40.0256   61.3832   36.6811 H   0  0  0  0  0  0
  -39.8160   60.0330   35.6239 H   0  0  0  0  0  0
  -41.7272   59.9296   33.6441 H   0  0  0  0  0  0
  -44.1778   59.7708   33.4300 H   0  0  0  0  0  0
  -45.6313   60.5821   35.2517 H   0  0  0  0  0  0
  -44.6543   61.5444   37.3067 H   0  0  0  0  0  0
  -42.2037   61.7203   37.5304 H   0  0  0  0  0  0
  -39.3110   67.4261   32.0417 H   0  0  0  0  0  0
  -40.9999   67.6961   31.6868 H   0  0  0  0  0  0
  -40.8146   69.9002   32.8858 H   0  0  0  0  0  0
  -39.2156   69.5597   33.3451 H   0  0  0  0  0  0
  -39.9045   69.6733   30.3683 H   0  0  0  0  0  0
  -39.4260   71.0989   31.2724 H   0  0  0  0  0  0
  -36.2608   70.0979   29.3640 H   0  0  0  0  0  0
  -35.9049   70.8977   31.4955 H   0  0  0  0  0  0
  1  2  2  0  0  0
  1  6  1  0  0  0
  1 30  1  0  0  0
  2  3  1  0  0  0
  2 31  1  0  0  0
  3  4  2  0  0  0
  3  7  1  0  0  0
  4  5  1  0  0  0
  4  9  1  0  0  0
  5  6  2  0  0  0
  5 32  1  0  0  0
  6 22  1  0  0  0
  7  8  1  0  0  0
  7 15  1  0  0  0
  8  9  2  0  0  0
  8 14  1  0  0  0
  9 10  1  0  0  0
 10 11  1  0  0  0
 10 33  1  0  0  0
 10 34  1  0  0  0
 11 12  2  0  0  0
 11 13  1  0  0  0
 13 35  1  0  0  0
 13 36  1  0  0  0
 14 37  1  0  0  0
 14 38  1  0  0  0
 14 39  1  0  0  0
 15 16  1  0  0  0
 15 40  1  0  0  0
 15 41  1  0  0  0
 16 17  2  0  0  0
 16 21  1  0  0  0
 17 18  1  0  0  0
 17 42  1  0  0  0
 18 19  2  0  0  0
 18 43  1  0  0  0
 19 20  1  0  0  0
 19 44  1  0  0  0
 20 21  2  0  0  0
 20 45  1  0  0  0
 21 46  1  0  0  0
 22 23  1  0  0  0
 23 24  1  0  0  0
 23 47  1  0  0  0
 23 48  1  0  0  0
 24 25  1  0  0  0
 24 49  1  0  0  0
 24 50  1  0  0  0
 25 26  1  0  0  0
 25 51  1  0  0  0
 25 52  1  0  0  0
 26 27  2  0  0  0
 26 28  1  0  0  0
 26 29  1  0  0  0
 28 53  1  0  0  0
 29 54  1  0  0  0
M  END
> <s_m_entry_id>
68101

> <s_m_entry_name>
dock_pv.37

> <s_m_Source_Path>
/home/csk/Desktop/cluster/DUD-E-result/pa2ga

> <s_m_Source_File>
dock_pv.maegz

> <i_m_Source_File_Index>
37

> <chembl_id>
CHEMBL149502

> <chembl_pref_name>
None

> <i_lp_mmshare_version>
53161

> <i_f3d_flags>
0

> <r_lp_tautomer_probability>
1

> <s_lp_Force_Field>
OPLS_2005

> <r_lp_Energy>
5.374886

> <b_lp_Chiralities_Consistent>
1

> <s_lp_Variant>
CHEMBL3474_lig87-1

> <s_i_glide_gridfile>
glide-grid_1kvo

> <i_i_glide_lignum>
127

> <i_i_glide_rotatable_bonds>
11

> <r_i_docking_score>
-8.68341852427285

> <r_i_glide_ligand_efficiency>
-0.299428224974926

> <r_i_glide_ligand_efficiency_sa>
-0.919938372643143

> <r_i_glide_ligand_efficiency_ln>
-1.98828264956343

> <r_i_glide_gscore>
-8.68341852427285

> <r_i_glide_lipo>
-3.56625034036631

> <r_i_glide_hbond>
-0.231384842718913

> <r_i_glide_metal>
0

> <r_i_glide_rewards>
-0.895947890508632

> <r_i_glide_evdw>
-40.6130867004395

> <r_i_glide_ecoul>
-18.2405834197998

> <r_i_glide_erotb>
0.91147602767466

> <r_i_glide_esite>
-0.134569630361705

> <r_i_glide_emodel>
-91.5041058059521

> <r_i_glide_energy>
-58.8536701202393

> <r_i_glide_einternal>
6.13257741928101

> <i_i_glide_confnum>
186

> <i_i_glide_posenum>
194

> <r_i_glide_eff_state_penalty>
0

> <s_user_duplicate_titles>
CHEMBL3474_lig87,247111

> <s_m_subgroup_title>
dock_pv

> <s_m_subgroupid>
dock_pv

> <b_m_subgroup_collapsed>
1

$$$$
CHEMBL3474_lig88
                    3D
 Schrodinger Suite 2021-1.
 56 59  0  0  1  0            999 V2000
  -40.0087   62.2875   34.9788 N   0  0  0  0  0  0
  -38.6433   62.4645   33.1788 C   0  0  0  0  0  0
  -39.0954   61.6156   34.1800 C   0  0  0  0  0  0
  -39.4398   63.6553   33.2877 C   0  0  0  0  0  0
  -40.2608   63.5360   34.4399 C   0  0  0  0  0  0
  -38.4149   71.2990   28.3355 C   0  0  0  0  0  0
  -37.5550   62.1868   32.1383 C   0  0  0  0  0  0
  -40.7050   61.7492   36.1516 C   0  0  0  0  0  0
  -41.1278   64.5614   34.8417 C   0  0  0  0  0  0
  -38.7093   70.7713   29.7143 C   0  0  0  0  0  0
  -36.6066   63.3620   31.8428 C   0  0  0  0  0  0
  -39.5152   64.8285   32.5301 C   0  0  0  0  0  0
  -38.8725   69.3955   29.9076 C   0  0  0  0  0  0
  -38.2587   70.5614   27.3648 O   0  0  0  0  0  0
  -36.4177   64.2773   32.6427 O   0  0  0  0  0  0
  -40.3276   65.8863   32.9526 C   0  0  0  0  0  0
  -40.3649   67.1091   32.3158 O   0  0  0  0  0  0
  -36.0149   63.3726   30.6574 N   0  0  0  0  0  0
  -41.1298   65.7299   34.0789 C   0  0  0  0  0  0
  -38.4148   72.6541   28.2430 O   0  0  0  0  0  0
  -38.7140   60.1798   34.4688 C   0  0  0  0  0  0
  -39.2039   68.8893   31.1644 C   0  0  0  0  0  0
  -42.1613   61.3888   35.8930 C   0  0  0  0  0  0
  -39.3528   67.3946   31.3487 C   0  0  0  0  0  0
  -38.8641   71.6343   30.8108 C   0  0  0  0  0  0
  -39.1851   71.1314   32.0694 C   0  0  0  0  0  0
  -39.3566   69.7612   32.2433 C   0  0  0  0  0  0
  -42.5387   60.7609   34.7003 C   0  0  0  0  0  0
  -43.1237   61.6917   36.8607 C   0  0  0  0  0  0
  -44.4596   61.3751   36.6364 C   0  0  0  0  0  0
  -43.8742   60.4571   34.4711 C   0  0  0  0  0  0
  -44.8242   60.7629   35.4421 C   0  0  0  0  0  0
  -36.9262   61.3517   32.4447 H   0  0  0  0  0  0
  -38.0136   61.8799   31.1981 H   0  0  0  0  0  0
  -40.6574   62.5168   36.9254 H   0  0  0  0  0  0
  -40.1759   60.8814   36.5464 H   0  0  0  0  0  0
  -41.7605   64.4676   35.7127 H   0  0  0  0  0  0
  -38.9135   64.9090   31.6405 H   0  0  0  0  0  0
  -38.7546   68.7124   29.0770 H   0  0  0  0  0  0
  -35.4518   64.1778   30.3966 H   0  0  0  0  0  0
  -36.3116   62.7298   29.9386 H   0  0  0  0  0  0
  -41.7648   66.5493   34.3804 H   0  0  0  0  0  0
  -38.6606   72.9002   27.3382 H   0  0  0  0  0  0
  -38.0225   59.7690   33.7360 H   0  0  0  0  0  0
  -38.2401   60.0985   35.4414 H   0  0  0  0  0  0
  -39.5837   59.5249   34.4803 H   0  0  0  0  0  0
  -38.3709   67.0376   31.6642 H   0  0  0  0  0  0
  -39.6058   66.9089   30.4046 H   0  0  0  0  0  0
  -38.7477   72.7041   30.6995 H   0  0  0  0  0  0
  -39.3102   71.8045   32.9037 H   0  0  0  0  0  0
  -39.6154   69.3778   33.2187 H   0  0  0  0  0  0
  -41.8048   60.5162   33.9462 H   0  0  0  0  0  0
  -42.8425   62.1720   37.7873 H   0  0  0  0  0  0
  -45.2072   61.6034   37.3833 H   0  0  0  0  0  0
  -44.1701   59.9762   33.5494 H   0  0  0  0  0  0
  -45.8584   60.5010   35.2673 H   0  0  0  0  0  0
  1  3  1  0  0  0
  1  5  1  0  0  0
  1  8  1  0  0  0
  2  3  2  0  0  0
  2  7  1  0  0  0
  2  4  1  0  0  0
  3 21  1  0  0  0
  4  5  1  0  0  0
  4 12  2  0  0  0
  5  9  2  0  0  0
  6 10  1  0  0  0
  6 14  2  0  0  0
  6 20  1  0  0  0
  7 11  1  0  0  0
  7 33  1  0  0  0
  7 34  1  0  0  0
  8 23  1  0  0  0
  8 35  1  0  0  0
  8 36  1  0  0  0
  9 19  1  0  0  0
  9 37  1  0  0  0
 10 13  1  0  0  0
 10 25  2  0  0  0
 11 15  2  0  0  0
 11 18  1  0  0  0
 12 16  1  0  0  0
 12 38  1  0  0  0
 13 22  2  0  0  0
 13 39  1  0  0  0
 16 19  2  0  0  0
 16 17  1  0  0  0
 17 24  1  0  0  0
 18 40  1  0  0  0
 18 41  1  0  0  0
 19 42  1  0  0  0
 20 43  1  0  0  0
 21 44  1  0  0  0
 21 45  1  0  0  0
 21 46  1  0  0  0
 22 24  1  0  0  0
 22 27  1  0  0  0
 23 28  2  0  0  0
 23 29  1  0  0  0
 24 47  1  0  0  0
 24 48  1  0  0  0
 25 26  1  0  0  0
 25 49  1  0  0  0
 26 27  2  0  0  0
 26 50  1  0  0  0
 27 51  1  0  0  0
 28 31  1  0  0  0
 28 52  1  0  0  0
 29 30  2  0  0  0
 29 53  1  0  0  0
 30 32  1  0  0  0
 30 54  1  0  0  0
 31 32  2  0  0  0
 31 55  1  0  0  0
 32 56  1  0  0  0
M  END
> <s_m_entry_id>
68102

> <s_m_entry_name>
dock_pv.38

> <s_m_Source_Path>
/home/csk/Desktop/cluster/DUD-E-result/pa2ga

> <s_m_Source_File>
dock_pv.maegz

> <i_m_Source_File_Index>
38

> <chembl_id>
CHEMBL146214

> <chembl_pref_name>
None

> <i_lp_mmshare_version>
53161

> <i_f3d_flags>
0

> <r_lp_tautomer_probability>
1

> <s_lp_Force_Field>
OPLS_2005

> <r_lp_Energy>
21.109395

> <b_lp_Chiralities_Consistent>
1

> <s_lp_Variant>
CHEMBL3474_lig88-1

> <s_i_glide_gridfile>
glide-grid_1kvo

> <i_i_glide_lignum>
128

> <i_i_glide_rotatable_bonds>
9

> <r_i_docking_score>
-8.67825534910595

> <r_i_glide_ligand_efficiency>
-0.271195479659561

> <r_i_glide_ligand_efficiency_sa>
-0.860991978406559

> <r_i_glide_ligand_efficiency_ln>
-1.94329793297119

> <r_i_glide_gscore>
-8.67825534910595

> <r_i_glide_lipo>
-3.79129480216756

> <r_i_glide_hbond>
-0.478190244735158

> <r_i_glide_metal>
0

> <r_i_glide_rewards>
-0.771405898170387

> <r_i_glide_evdw>
-45.1840209960938

> <r_i_glide_ecoul>
-13.8727712631226

> <r_i_glide_erotb>
0.757365387012312

> <r_i_glide_esite>
-0.0546130517720876

> <r_i_glide_emodel>
-90.9398445355645

> <r_i_glide_energy>
-59.0567922592163

> <r_i_glide_einternal>
6.33928966522217

> <i_i_glide_confnum>
103

> <i_i_glide_posenum>
78

> <r_i_glide_eff_state_penalty>
0

> <s_user_duplicate_titles>
CHEMBL3474_lig88

> <s_m_subgroup_title>
dock_pv

> <s_m_subgroupid>
dock_pv

> <b_m_subgroup_collapsed>
1

$$$$
CHEMBL3474_lig91
                    3D
 Schrodinger Suite 2021-1.
 49 51  0  0  1  0            999 V2000
  -39.7397   61.7164   34.9430 N   0  0  0  0  0  0
  -38.9159   61.3336   33.9001 C   0  0  0  0  0  0
  -38.6288   62.4177   33.0904 C   0  0  0  0  0  0
  -39.3874   63.5072   33.6272 C   0  0  0  0  0  0
  -40.0310   63.0667   34.8134 C   0  0  0  0  0  0
  -37.7581   62.4567   31.8414 C   0  0  0  0  0  0
  -40.3467   60.8256   35.9321 C   0  0  0  0  0  0
  -40.8148   63.9356   35.5884 C   0  0  0  0  0  0
  -36.6317   63.5046   31.8466 C   0  0  0  0  0  0
  -39.5711   64.8269   33.2103 C   0  0  0  0  0  0
  -37.6155   69.5099   31.0770 C   0  0  0  0  0  0
  -38.4151   59.6976   33.6981 Cl  0  0  0  0  0  0
  -36.6524   64.5071   32.5558 O   0  0  0  0  0  0
  -36.8657   68.8980   31.8429 O   0  0  0  0  0  0
  -40.3083   65.7198   33.9953 C   0  0  0  0  0  0
  -35.6150   63.2980   31.0302 N   0  0  0  0  0  0
  -40.9250   65.2591   35.1553 C   0  0  0  0  0  0
  -41.8424   60.7023   35.7094 C   0  0  0  0  0  0
  -37.2150   70.1151   29.9292 O   0  0  0  0  0  0
  -40.4325   67.0620   33.6912 O   0  0  0  0  0  0
  -39.1249   69.7222   31.2787 C   0  0  0  0  0  0
  -39.6472   67.5714   32.6150 C   0  0  0  0  0  0
  -42.3123   60.1226   34.5291 C   0  0  0  0  0  0
  -42.7356   61.2348   36.6429 C   0  0  0  0  0  0
  -39.7604   69.0952   32.5434 C   0  0  0  0  0  0
  -43.6764   60.0980   34.2755 C   0  0  0  0  0  0
  -44.1016   61.1904   36.3977 C   0  0  0  0  0  0
  -44.5619   60.6258   35.2136 C   0  0  0  0  0  0
  -37.3223   61.4754   31.6482 H   0  0  0  0  0  0
  -38.3842   62.6783   30.9795 H   0  0  0  0  0  0
  -40.1376   61.2102   36.9281 H   0  0  0  0  0  0
  -39.8891   59.8376   35.8885 H   0  0  0  0  0  0
  -41.3085   63.6125   36.4924 H   0  0  0  0  0  0
  -39.0994   65.1418   32.2946 H   0  0  0  0  0  0
  -34.9229   64.0251   30.9053 H   0  0  0  0  0  0
  -35.6369   62.5203   30.3895 H   0  0  0  0  0  0
  -41.5016   65.9563   35.7459 H   0  0  0  0  0  0
  -36.2446   70.0991   29.8601 H   0  0  0  0  0  0
  -39.6338   69.3433   30.3913 H   0  0  0  0  0  0
  -39.3032   70.7982   31.2947 H   0  0  0  0  0  0
  -38.6025   67.2921   32.7564 H   0  0  0  0  0  0
  -39.9921   67.1362   31.6744 H   0  0  0  0  0  0
  -41.6242   59.7219   33.7979 H   0  0  0  0  0  0
  -42.3760   61.6981   37.5500 H   0  0  0  0  0  0
  -40.8149   69.3330   32.5680 H   0  0  0  0  0  0
  -39.3801   69.5684   33.4429 H   0  0  0  0  0  0
  -44.0510   59.6668   33.3585 H   0  0  0  0  0  0
  -44.7985   61.5980   37.1153 H   0  0  0  0  0  0
  -45.6246   60.5915   35.0237 H   0  0  0  0  0  0
  1  2  1  0  0  0
  1  5  1  0  0  0
  1  7  1  0  0  0
  2  3  2  0  0  0
  2 12  1  0  0  0
  3  6  1  0  0  0
  3  4  1  0  0  0
  4  5  1  0  0  0
  4 10  2  0  0  0
  5  8  2  0  0  0
  6  9  1  0  0  0
  6 29  1  0  0  0
  6 30  1  0  0  0
  7 18  1  0  0  0
  7 31  1  0  0  0
  7 32  1  0  0  0
  8 17  1  0  0  0
  8 33  1  0  0  0
  9 13  2  0  0  0
  9 16  1  0  0  0
 10 15  1  0  0  0
 10 34  1  0  0  0
 11 21  1  0  0  0
 11 14  2  0  0  0
 11 19  1  0  0  0
 15 17  2  0  0  0
 15 20  1  0  0  0
 16 35  1  0  0  0
 16 36  1  0  0  0
 17 37  1  0  0  0
 18 23  1  0  0  0
 18 24  2  0  0  0
 19 38  1  0  0  0
 20 22  1  0  0  0
 21 25  1  0  0  0
 21 39  1  0  0  0
 21 40  1  0  0  0
 22 25  1  0  0  0
 22 41  1  0  0  0
 22 42  1  0  0  0
 23 26  2  0  0  0
 23 43  1  0  0  0
 24 27  1  0  0  0
 24 44  1  0  0  0
 25 45  1  0  0  0
 25 46  1  0  0  0
 26 28  1  0  0  0
 26 47  1  0  0  0
 27 28  2  0  0  0
 27 48  1  0  0  0
 28 49  1  0  0  0
M  END
> <s_m_entry_id>
68103

> <s_m_entry_name>
dock_pv.39

> <s_m_Source_Path>
/home/csk/Desktop/cluster/DUD-E-result/pa2ga

> <s_m_Source_File>
dock_pv.maegz

> <i_m_Source_File_Index>
39

> <chembl_id>
CHEMBL357003

> <chembl_pref_name>
None

> <i_lp_mmshare_version>
53161

> <i_f3d_flags>
0

> <r_lp_tautomer_probability>
1

> <s_lp_Force_Field>
OPLS_2005

> <r_lp_Energy>
12.17059

> <b_lp_Chiralities_Consistent>
1

> <s_lp_Variant>
CHEMBL3474_lig91-1

> <s_i_glide_gridfile>
glide-grid_1kvo

> <i_i_glide_lignum>
131

> <i_i_glide_rotatable_bonds>
10

> <r_i_docking_score>
-8.61422918475705

> <r_i_glide_ligand_efficiency>
-0.307651042312752

> <r_i_glide_ligand_efficiency_sa>
-0.934209761235296

> <r_i_glide_ligand_efficiency_ln>
-1.98841702060106

> <r_i_glide_gscore>
-8.61422918475705

> <r_i_glide_lipo>
-3.81453486467449

> <r_i_glide_hbond>
-0.331211981834383

> <r_i_glide_metal>
0

> <r_i_glide_rewards>
-1.02416323492718

> <r_i_glide_evdw>
-42.1786346435547

> <r_i_glide_ecoul>
-14.7752628326416

> <r_i_glide_erotb>
0.976239733148769

> <r_i_glide_esite>
-0.0953376793957964

> <r_i_glide_emodel>
-87.056772332045

> <r_i_glide_energy>
-56.9538974761963

> <r_i_glide_einternal>
5.47610139846802

> <i_i_glide_confnum>
235

> <i_i_glide_posenum>
139

> <r_i_glide_eff_state_penalty>
0

> <s_user_duplicate_titles>
CHEMBL3474_lig91,246745

> <s_m_subgroup_title>
dock_pv

> <s_m_subgroupid>
dock_pv

> <b_m_subgroup_collapsed>
1

$$$$
CHEMBL3474_lig336
                    3D
 Schrodinger Suite 2021-1.
 42 44  0  0  1  0            999 V2000
  -40.4625   66.7835   34.0336 C   0  0  0  0  0  0
  -40.0150   65.4655   34.0672 C   0  0  0  0  0  0
  -39.5026   64.8588   32.9133 C   0  0  0  0  0  0
  -39.4778   65.5812   31.7134 C   0  0  0  0  0  0
  -39.9260   66.9067   31.6758 C   0  0  0  0  0  0
  -40.4149   67.5027   32.8426 C   0  0  0  0  0  0
  -39.8998   67.6826   30.3634 C   0  0  0  0  0  0
  -39.2579   69.0951   30.4121 C   0  0  0  0  0  0
  -37.7894   69.1404   30.8501 C   0  0  0  0  0  0
  -37.2150   70.3253   30.5067 O   0  0  0  0  0  0
  -37.2150   68.2312   31.4430 O   0  0  0  0  0  0
  -39.0710   63.5063   32.9581 N   0  0  0  0  0  0
  -37.8237   61.6281   32.8147 C   0  0  0  0  0  0
  -37.8671   62.9771   32.4791 C   0  0  0  0  0  0
  -36.7725   63.7418   31.9186 C   0  0  0  0  0  0
  -36.0150   63.0913   31.0430 N   0  0  0  0  0  0
  -36.5214   64.8980   32.2430 O   0  0  0  0  0  0
  -39.0520   61.2839   33.4433 C   0  0  0  0  0  0
  -39.8300   62.4729   33.5094 C   0  0  0  0  0  0
  -41.1266   62.4684   34.0526 C   0  0  0  0  0  0
  -41.6344   61.2573   34.5383 C   0  0  0  0  0  0
  -40.8594   60.0982   34.4971 C   0  0  0  0  0  0
  -39.5752   60.0934   33.9598 C   0  0  0  0  0  0
  -43.0432   61.1904   35.1331 C   0  0  0  0  0  0
  -43.5193   62.3984   35.4430 F   0  0  0  0  0  0
  -43.8632   60.6288   34.2452 F   0  0  0  0  0  0
  -43.0487   60.4509   36.2433 F   0  0  0  0  0  0
  -40.8464   67.2463   34.9310 H   0  0  0  0  0  0
  -40.0548   64.9245   35.0018 H   0  0  0  0  0  0
  -39.1083   65.1148   30.8100 H   0  0  0  0  0  0
  -40.7698   68.5217   32.8316 H   0  0  0  0  0  0
  -40.9359   67.7709   30.0364 H   0  0  0  0  0  0
  -39.3986   67.0915   29.5932 H   0  0  0  0  0  0
  -39.8101   69.7458   31.0884 H   0  0  0  0  0  0
  -39.3320   69.5452   29.4209 H   0  0  0  0  0  0
  -36.2488   70.3510   30.6429 H   0  0  0  0  0  0
  -36.9927   60.9632   32.6278 H   0  0  0  0  0  0
  -35.2747   63.6017   30.5811 H   0  0  0  0  0  0
  -36.3094   62.1949   30.6874 H   0  0  0  0  0  0
  -41.7262   63.3662   34.0816 H   0  0  0  0  0  0
  -41.2705   59.1772   34.8815 H   0  0  0  0  0  0
  -38.9997   59.1805   33.9280 H   0  0  0  0  0  0
  1  2  2  0  0  0
  1  6  1  0  0  0
  1 28  1  0  0  0
  2  3  1  0  0  0
  2 29  1  0  0  0
  3  4  2  0  0  0
  3 12  1  0  0  0
  4  5  1  0  0  0
  4 30  1  0  0  0
  5  6  2  0  0  0
  5  7  1  0  0  0
  6 31  1  0  0  0
  7  8  1  0  0  0
  7 32  1  0  0  0
  7 33  1  0  0  0
  8  9  1  0  0  0
  8 34  1  0  0  0
  8 35  1  0  0  0
  9 10  1  0  0  0
  9 11  2  0  0  0
 10 36  1  0  0  0
 12 19  1  0  0  0
 12 14  1  0  0  0
 13 18  1  0  0  0
 13 14  2  0  0  0
 13 37  1  0  0  0
 14 15  1  0  0  0
 15 16  1  0  0  0
 15 17  2  0  0  0
 16 38  1  0  0  0
 16 39  1  0  0  0
 18 19  2  0  0  0
 18 23  1  0  0  0
 19 20  1  0  0  0
 20 21  2  0  0  0
 20 40  1  0  0  0
 21 22  1  0  0  0
 21 24  1  0  0  0
 22 23  2  0  0  0
 22 41  1  0  0  0
 23 42  1  0  0  0
 24 25  1  0  0  0
 24 26  1  0  0  0
 24 27  1  0  0  0
M  END
> <s_m_entry_id>
68104

> <s_m_entry_name>
dock_pv.40

> <s_m_Source_Path>
/home/csk/Desktop/cluster/DUD-E-result/pa2ga

> <s_m_Source_File>
dock_pv.maegz

> <i_m_Source_File_Index>
40

> <chembl_id>
CHEMBL4176544

> <chembl_pref_name>
None

> <i_lp_mmshare_version>
53161

> <i_f3d_flags>
0

> <r_lp_tautomer_probability>
1

> <s_lp_Force_Field>
OPLS_2005

> <r_lp_Energy>
15.236771

> <b_lp_Chiralities_Consistent>
1

> <s_lp_Variant>
CHEMBL3474_lig336-1

> <s_i_glide_gridfile>
glide-grid_1kvo

> <i_i_glide_lignum>
425

> <i_i_glide_rotatable_bonds>
7

> <r_i_docking_score>
-8.61045143680851

> <r_i_glide_ligand_efficiency>
-0.318905608770685

> <r_i_glide_ligand_efficiency_sa>
-0.956716825260996

> <r_i_glide_ligand_efficiency_ln>
-2.00437114010275

> <r_i_glide_gscore>
-8.61045143680851

> <r_i_glide_lipo>
-3.06536404368925

> <r_i_glide_hbond>
-0.200814330174001

> <r_i_glide_metal>
0

> <r_i_glide_rewards>
-1.98276246052402

> <r_i_glide_evdw>
-42.8947067260742

> <r_i_glide_ecoul>
-10.9919061660767

> <r_i_glide_erotb>
0.546702341983924

> <r_i_glide_esite>
-0.114691683189952

> <r_i_glide_emodel>
-85.3428411453753

> <r_i_glide_energy>
-53.8866128921509

> <r_i_glide_einternal>
3.03125524520874

> <i_i_glide_confnum>
14

> <i_i_glide_posenum>
217

> <r_i_glide_eff_state_penalty>
0

> <s_user_duplicate_titles>
CHEMBL3474_lig336

> <s_m_subgroup_title>
dock_pv

> <s_m_subgroupid>
dock_pv

> <b_m_subgroup_collapsed>
1

$$$$
CHEMBL3474_lig21
                    3D
 Schrodinger Suite 2021-1.
 57 59  0  0  1  0            999 V2000
  -40.2237   62.6378   34.9971 N   0  0  0  0  0  0
  -39.1626   63.0962   33.0526 C   0  0  0  0  0  0
  -39.5215   62.0798   33.9295 C   0  0  0  0  0  0
  -39.7637   64.2892   33.5526 C   0  0  0  0  0  0
  -40.4144   63.9939   34.7722 C   0  0  0  0  0  0
  -37.6147   68.9308   29.7471 P   0  0  0  0  0  0
  -40.7887   61.9220   36.1447 C   0  0  0  0  0  0
  -38.3337   63.0227   31.7737 C   0  0  0  0  0  0
  -41.0689   64.9919   35.5113 C   0  0  0  0  0  0
  -36.9751   63.7400   31.8426 C   0  0  0  0  0  0
  -39.7823   65.5949   33.0687 C   0  0  0  0  0  0
  -37.1620   69.3027   28.3851 O   0  0  0  0  0  0
  -42.2498   61.5379   35.9649 C   0  0  0  0  0  0
  -36.7789   64.7132   32.5660 O   0  0  0  0  0  0
  -36.4157   68.8980   30.8488 O   0  0  0  0  0  0
  -38.2140   67.4289   29.8319 O   0  0  0  0  0  0
  -40.3579   66.6245   33.8264 C   0  0  0  0  0  0
  -36.0153   63.2965   31.0430 N   0  0  0  0  0  0
  -43.1821   61.8484   36.9614 C   0  0  0  0  0  0
  -41.0038   66.3008   35.0184 C   0  0  0  0  0  0
  -39.2432   60.5862   33.8058 C   0  0  0  0  0  0
  -38.9160   70.0097   30.5175 C   0  0  0  0  0  0
  -44.5273   61.5267   36.7882 C   0  0  0  0  0  0
  -45.6724   61.9137   38.0169 Cl  0  0  0  0  0  0
  -39.2916   69.7256   31.9920 C   0  0  0  0  0  0
  -40.2866   67.9588   33.4537 O   0  0  0  0  0  0
  -44.0168   60.5607   34.6343 C   0  0  0  0  0  0
  -42.6746   60.8795   34.8052 C   0  0  0  0  0  0
  -39.5804   68.2463   32.2463 C   0  0  0  0  0  0
  -44.9442   60.8920   35.6207 C   0  0  0  0  0  0
  -37.7477   60.2544   33.7703 C   0  0  0  0  0  0
  -40.6935   62.5788   37.0103 H   0  0  0  0  0  0
  -40.1841   61.0485   36.3871 H   0  0  0  0  0  0
  -38.1673   61.9955   31.4592 H   0  0  0  0  0  0
  -38.8894   63.4813   30.9555 H   0  0  0  0  0  0
  -41.5742   64.7774   36.4416 H   0  0  0  0  0  0
  -39.2940   65.7780   32.1255 H   0  0  0  0  0  0
  -35.7361   69.5972   30.6430 H   0  0  0  0  0  0
  -37.6297   66.7438   29.4443 H   0  0  0  0  0  0
  -35.1506   63.8156   30.9756 H   0  0  0  0  0  0
  -36.2168   62.5736   30.3682 H   0  0  0  0  0  0
  -42.8703   62.3475   37.8669 H   0  0  0  0  0  0
  -41.4593   67.0966   35.5883 H   0  0  0  0  0  0
  -39.7032   59.9938   34.5949 H   0  0  0  0  0  0
  -39.7008   60.2115   32.8885 H   0  0  0  0  0  0
  -39.8051   69.9432   29.8894 H   0  0  0  0  0  0
  -38.5802   71.0445   30.4280 H   0  0  0  0  0  0
  -40.1593   70.3255   32.2667 H   0  0  0  0  0  0
  -38.4829   70.0564   32.6431 H   0  0  0  0  0  0
  -44.3450   60.0666   33.7313 H   0  0  0  0  0  0
  -41.9763   60.6238   34.0235 H   0  0  0  0  0  0
  -38.6020   67.7625   32.2768 H   0  0  0  0  0  0
  -40.1574   67.8357   31.4160 H   0  0  0  0  0  0
  -45.9860   60.6465   35.4786 H   0  0  0  0  0  0
  -37.6149   59.1764   33.7405 H   0  0  0  0  0  0
  -37.2402   60.6620   32.8991 H   0  0  0  0  0  0
  -37.2318   60.6421   34.6468 H   0  0  0  0  0  0
  1  3  1  0  0  0
  1  5  1  0  0  0
  1  7  1  0  0  0
  2  3  2  0  0  0
  2  8  1  0  0  0
  2  4  1  0  0  0
  3 21  1  0  0  0
  4  5  1  0  0  0
  4 11  2  0  0  0
  5  9  2  0  0  0
  6 22  1  0  0  0
  6 12  2  0  0  0
  6 15  1  0  0  0
  6 16  1  0  0  0
  7 13  1  0  0  0
  7 32  1  0  0  0
  7 33  1  0  0  0
  8 10  1  0  0  0
  8 34  1  0  0  0
  8 35  1  0  0  0
  9 20  1  0  0  0
  9 36  1  0  0  0
 10 14  2  0  0  0
 10 18  1  0  0  0
 11 17  1  0  0  0
 11 37  1  0  0  0
 13 19  1  0  0  0
 13 28  2  0  0  0
 15 38  1  0  0  0
 16 39  1  0  0  0
 17 20  2  0  0  0
 17 26  1  0  0  0
 18 40  1  0  0  0
 18 41  1  0  0  0
 19 23  2  0  0  0
 19 42  1  0  0  0
 20 43  1  0  0  0
 21 31  1  0  0  0
 21 44  1  0  0  0
 21 45  1  0  0  0
 22 25  1  0  0  0
 22 46  1  0  0  0
 22 47  1  0  0  0
 23 24  1  0  0  0
 23 30  1  0  0  0
 25 29  1  0  0  0
 25 48  1  0  0  0
 25 49  1  0  0  0
 26 29  1  0  0  0
 27 28  1  0  0  0
 27 30  2  0  0  0
 27 50  1  0  0  0
 28 51  1  0  0  0
 29 52  1  0  0  0
 29 53  1  0  0  0
 30 54  1  0  0  0
 31 55  1  0  0  0
 31 56  1  0  0  0
 31 57  1  0  0  0
M  END
> <s_m_entry_id>
68105

> <s_m_entry_name>
dock_pv.41

> <s_m_Source_Path>
/home/csk/Desktop/cluster/DUD-E-result/pa2ga

> <s_m_Source_File>
dock_pv.maegz

> <i_m_Source_File_Index>
41

> <chembl_id>
CHEMBL148601

> <chembl_pref_name>
None

> <i_lp_mmshare_version>
53161

> <i_f3d_flags>
0

> <r_lp_tautomer_probability>
1

> <s_lp_Force_Field>
OPLS_2005

> <r_lp_Energy>
3.160535

> <b_lp_Chiralities_Consistent>
1

> <s_lp_Variant>
CHEMBL3474_lig21-1

> <s_i_glide_gridfile>
glide-grid_1kvo

> <i_i_glide_lignum>
60

> <i_i_glide_rotatable_bonds>
12

> <r_i_docking_score>
-8.60491293914196

> <r_i_glide_ligand_efficiency>
-0.277577836746515

> <r_i_glide_ligand_efficiency_sa>
-0.871977644890038

> <r_i_glide_ligand_efficiency_ln>
-1.94067157668785

> <r_i_glide_gscore>
-8.60491293914196

> <r_i_glide_lipo>
-3.69364455007473

> <r_i_glide_hbond>
-0.299838657873261

> <r_i_glide_metal>
0

> <r_i_glide_rewards>
-0.467322091326388

> <r_i_glide_evdw>
-46.5116195678711

> <r_i_glide_ecoul>
-16.7099514007568

> <r_i_glide_erotb>
0.746382115341416

> <r_i_glide_esite>
-0.05841606670191

> <r_i_glide_emodel>
-96.2036022822938

> <r_i_glide_energy>
-63.2215709686279

> <r_i_glide_einternal>
6.39044952392578

> <i_i_glide_confnum>
147

> <i_i_glide_posenum>
151

> <r_i_glide_eff_state_penalty>
0

> <s_user_duplicate_titles>
CHEMBL3474_lig21,247524

> <s_m_subgroup_title>
dock_pv

> <s_m_subgroupid>
dock_pv

> <b_m_subgroup_collapsed>
1

$$$$
CHEMBL3474_lig363 
                    3D
 Schrodinger Suite 2021-1.
 46 48  0  0  1  0            999 V2000
  -37.1189   61.4913   32.7542 C   0  0  0  0  0  0
  -37.8928   60.5682   33.4438 C   0  0  0  0  0  0
  -39.1247   60.9375   33.9706 C   0  0  0  0  0  0
  -39.5901   62.2402   33.7487 C   0  0  0  0  0  0
  -38.8396   63.1916   33.0364 C   0  0  0  0  0  0
  -37.5621   62.8045   32.5476 C   0  0  0  0  0  0
  -36.6238   63.7564   31.8430 C   0  0  0  0  0  0
  -36.0150   63.2980   30.7568 N   0  0  0  0  0  0
  -36.4151   64.8979   32.2433 O   0  0  0  0  0  0
  -39.9212   59.9046   34.7706 C   0  0  0  0  0  0
  -41.4155   60.1669   34.8762 C   0  0  0  0  0  0
  -41.9412   60.7503   36.0317 C   0  0  0  0  0  0
  -43.3052   61.0134   36.1161 C   0  0  0  0  0  0
  -44.1338   60.6913   35.0440 C   0  0  0  0  0  0
  -43.6149   60.0981   33.8951 C   0  0  0  0  0  0
  -42.2552   59.8244   33.8155 C   0  0  0  0  0  0
  -39.4274   64.5612   32.8492 C   0  0  0  0  0  0
  -40.0135   65.2415   33.9260 C   0  0  0  0  0  0
  -40.4592   66.5559   33.7932 C   0  0  0  0  0  0
  -40.3197   67.2179   32.5759 C   0  0  0  0  0  0
  -39.7718   66.5491   31.4753 C   0  0  0  0  0  0
  -39.3841   65.2170   31.6107 C   0  0  0  0  0  0
  -39.5689   67.1351   30.2429 O   0  0  0  0  0  0
  -39.2488   68.5310   30.1296 C   0  0  0  0  0  0
  -37.8812   68.8813   30.7405 C   0  0  0  0  0  0
  -37.4996   70.1411   30.3900 O   0  0  0  0  0  0
  -37.2150   68.1238   31.4432 O   0  0  0  0  0  0
  -36.1470   61.1799   32.3992 H   0  0  0  0  0  0
  -37.5180   59.5659   33.5862 H   0  0  0  0  0  0
  -40.5570   62.5251   34.1357 H   0  0  0  0  0  0
  -35.4235   63.9415   30.2442 H   0  0  0  0  0  0
  -36.3404   62.4536   30.3127 H   0  0  0  0  0  0
  -39.7751   58.9102   34.3390 H   0  0  0  0  0  0
  -39.4926   59.8539   35.7731 H   0  0  0  0  0  0
  -41.2926   61.0106   36.8552 H   0  0  0  0  0  0
  -43.7170   61.4695   37.0048 H   0  0  0  0  0  0
  -45.1928   60.8975   35.1024 H   0  0  0  0  0  0
  -44.2666   59.8436   33.0724 H   0  0  0  0  0  0
  -41.8537   59.3655   32.9230 H   0  0  0  0  0  0
  -40.0870   64.7625   34.8912 H   0  0  0  0  0  0
  -40.8882   67.0669   34.6424 H   0  0  0  0  0  0
  -40.6433   68.2432   32.4976 H   0  0  0  0  0  0
  -38.9707   64.7150   30.7478 H   0  0  0  0  0  0
  -40.0150   69.1626   30.5676 H   0  0  0  0  0  0
  -39.2142   68.7623   29.0647 H   0  0  0  0  0  0
  -36.5899   70.3413   30.6427 H   0  0  0  0  0  0
  1  2  2  0  0  0
  1  6  1  0  0  0
  1 28  1  0  0  0
  2  3  1  0  0  0
  2 29  1  0  0  0
  3  4  2  0  0  0
  3 10  1  0  0  0
  4  5  1  0  0  0
  4 30  1  0  0  0
  5  6  2  0  0  0
  5 17  1  0  0  0
  6  7  1  0  0  0
  7  8  1  0  0  0
  7  9  2  0  0  0
  8 31  1  0  0  0
  8 32  1  0  0  0
 10 11  1  0  0  0
 10 33  1  0  0  0
 10 34  1  0  0  0
 11 12  2  0  0  0
 11 16  1  0  0  0
 12 13  1  0  0  0
 12 35  1  0  0  0
 13 14  2  0  0  0
 13 36  1  0  0  0
 14 15  1  0  0  0
 14 37  1  0  0  0
 15 16  2  0  0  0
 15 38  1  0  0  0
 16 39  1  0  0  0
 17 18  2  0  0  0
 17 22  1  0  0  0
 18 19  1  0  0  0
 18 40  1  0  0  0
 19 20  2  0  0  0
 19 41  1  0  0  0
 20 21  1  0  0  0
 20 42  1  0  0  0
 21 22  2  0  0  0
 21 23  1  0  0  0
 22 43  1  0  0  0
 23 24  1  0  0  0
 24 25  1  0  0  0
 24 44  1  0  0  0
 24 45  1  0  0  0
 25 26  1  0  0  0
 25 27  2  0  0  0
 26 46  1  0  0  0
M  END
> <s_m_entry_id>
68106

> <s_m_entry_name>
dock_pv.42

> <s_m_Source_Path>
/home/csk/Desktop/cluster/DUD-E-result/pa2ga

> <s_m_Source_File>
dock_pv.maegz

> <i_m_Source_File_Index>
42

> <chembl_id>
CHEMBL4469134

> <chembl_pref_name>
None

> <i_lp_mmshare_version>
53161

> <i_f3d_flags>
0

> <r_lp_tautomer_probability>
1

> <s_lp_Force_Field>
OPLS_2005

> <r_lp_Energy>
27.408648

> <b_lp_Chiralities_Consistent>
1

> <s_lp_Variant>
CHEMBL3474_lig363 -1

> <s_i_glide_gridfile>
glide-grid_1kvo

> <i_i_glide_lignum>
461

> <i_i_glide_rotatable_bonds>
8

> <r_i_docking_score>
-8.59689524408875

> <r_i_glide_ligand_efficiency>
-0.318403527558842

> <r_i_glide_ligand_efficiency_sa>
-0.955210581627121

> <r_i_glide_ligand_efficiency_ln>
-2.00121548192889

> <r_i_glide_gscore>
-8.59689524408875

> <r_i_glide_lipo>
-4.28365209356963

> <r_i_glide_hbond>
-0.245495542886663

> <r_i_glide_metal>
0

> <r_i_glide_rewards>
-0.93494239202316

> <r_i_glide_evdw>
-49.2078056335449

> <r_i_glide_ecoul>
-9.67438220977783

> <r_i_glide_erotb>
0.881600496438047

> <r_i_glide_esite>
-0.102858098903418

> <r_i_glide_emodel>
-91.0163640931002

> <r_i_glide_energy>
-58.8821878433228

> <r_i_glide_einternal>
6.95968246459961

> <i_i_glide_confnum>
88

> <i_i_glide_posenum>
355

> <r_i_glide_eff_state_penalty>
0

> <s_user_duplicate_titles>
CHEMBL3474_lig363 

> <s_m_subgroup_title>
dock_pv

> <s_m_subgroupid>
dock_pv

> <b_m_subgroup_collapsed>
1

$$$$
CHEMBL3474_lig349
                    3D
 Schrodinger Suite 2021-1.
 46 48  0  0  1  0            999 V2000
  -44.3076   60.5316   35.8031 F   0  0  0  0  0  0
  -43.3472   61.1792   35.1463 C   0  0  0  0  0  0
  -43.3703   62.4532   35.5433 F   0  0  0  0  0  0
  -40.9744   60.8511   34.7445 C   0  0  0  0  0  0
  -40.0344   59.8353   34.6420 C   0  0  0  0  0  0
  -38.8500   59.9898   33.9337 C   0  0  0  0  0  0
  -40.7266   62.1055   34.1673 C   0  0  0  0  0  0
  -39.4866   62.3087   33.5275 C   0  0  0  0  0  0
  -38.5583   61.2372   33.3795 C   0  0  0  0  0  0
  -37.4534   61.7375   32.6488 C   0  0  0  0  0  0
  -37.6766   63.0817   32.4043 C   0  0  0  0  0  0
  -38.9012   63.4550   32.9716 N   0  0  0  0  0  0
  -39.4459   64.7737   33.0643 C   0  0  0  0  0  0
  -39.3830   65.6910   32.0013 C   0  0  0  0  0  0
  -39.8845   66.9938   32.1395 C   0  0  0  0  0  0
  -40.5356   67.3417   33.3276 C   0  0  0  0  0  0
  -40.6338   66.4366   34.3766 C   0  0  0  0  0  0
  -40.0851   65.1671   34.2448 C   0  0  0  0  0  0
  -36.7041   63.9738   31.8329 C   0  0  0  0  0  0
  -36.0147   63.4827   30.8135 N   0  0  0  0  0  0
  -36.5091   65.1098   32.2430 O   0  0  0  0  0  0
  -39.8092   67.9745   30.9647 C   0  0  0  0  0  0
  -39.1657   69.3875   31.1728 C   0  0  2  0  0  0
  -37.6332   69.4175   31.1051 C   0  0  0  0  0  0
  -37.2151   70.6438   30.6945 O   0  0  0  0  0  0
  -36.8878   68.4981   31.4427 O   0  0  0  0  0  0
  -42.1112   60.5448   35.4669 O   0  0  0  0  0  0
  -43.6207   61.0880   33.8440 F   0  0  0  0  0  0
  -39.6152   70.2112   32.4009 C   0  0  0  0  0  0
  -40.2357   58.8981   35.1285 H   0  0  0  0  0  0
  -38.1543   59.1683   33.8416 H   0  0  0  0  0  0
  -41.4490   62.9003   34.2429 H   0  0  0  0  0  0
  -36.5623   61.1925   32.3746 H   0  0  0  0  0  0
  -38.9264   65.4036   31.0647 H   0  0  0  0  0  0
  -40.9967   68.3053   33.4573 H   0  0  0  0  0  0
  -41.1313   66.7194   35.2930 H   0  0  0  0  0  0
  -40.1405   64.5039   35.0952 H   0  0  0  0  0  0
  -35.4004   64.1295   30.3268 H   0  0  0  0  0  0
  -36.2997   62.6235   30.3687 H   0  0  0  0  0  0
  -40.8254   68.0974   30.5962 H   0  0  0  0  0  0
  -39.3058   67.4864   30.1262 H   0  0  0  0  0  0
  -39.4989   69.9508   30.2976 H   0  0  0  0  0  0
  -36.2407   70.6794   30.6428 H   0  0  0  0  0  0
  -39.2946   71.2516   32.3290 H   0  0  0  0  0  0
  -40.6826   70.2227   32.5269 H   0  0  0  0  0  0
  -39.2159   69.8259   33.3300 H   0  0  0  0  0  0
  1  2  1  0  0  0
  2  3  1  0  0  0
  2 27  1  0  0  0
  2 28  1  0  0  0
  4  5  2  0  0  0
  4  7  1  0  0  0
  4 27  1  0  0  0
  5  6  1  0  0  0
  5 30  1  0  0  0
  6  9  2  0  0  0
  6 31  1  0  0  0
  7  8  2  0  0  0
  7 32  1  0  0  0
  8  9  1  0  0  0
  8 12  1  0  0  0
  9 10  1  0  0  0
 10 11  2  0  0  0
 10 33  1  0  0  0
 11 12  1  0  0  0
 11 19  1  0  0  0
 12 13  1  0  0  0
 13 14  2  0  0  0
 13 18  1  0  0  0
 14 15  1  0  0  0
 14 34  1  0  0  0
 15 16  2  0  0  0
 15 22  1  0  0  0
 16 17  1  0  0  0
 16 35  1  0  0  0
 17 18  2  0  0  0
 17 36  1  0  0  0
 18 37  1  0  0  0
 19 20  1  0  0  0
 19 21  2  0  0  0
 20 38  1  0  0  0
 20 39  1  0  0  0
 22 23  1  0  0  0
 22 40  1  0  0  0
 22 41  1  0  0  0
 23 24  1  0  0  0
 23 29  1  0  0  0
 23 42  1  0  0  0
 24 25  1  0  0  0
 24 26  2  0  0  0
 25 43  1  0  0  0
 29 44  1  0  0  0
 29 45  1  0  0  0
 29 46  1  0  0  0
M  END
> <s_m_entry_id>
68107

> <s_m_entry_name>
dock_pv.43

> <s_m_Source_Path>
/home/csk/Desktop/cluster/DUD-E-result/pa2ga

> <s_m_Source_File>
dock_pv.maegz

> <i_m_Source_File_Index>
43

> <chembl_id>
CHEMBL4214052

> <chembl_pref_name>
None

> <i_lp_mmshare_version>
53161

> <i_f3d_flags>
0

> <r_lp_tautomer_probability>
1

> <s_lp_Force_Field>
OPLS_2005

> <r_lp_Energy>
16.768657

> <b_lp_Chiralities_Consistent>
1

> <s_lp_Variant>
CHEMBL3474_lig349-1

> <s_i_glide_gridfile>
glide-grid_1kvo

> <i_i_glide_lignum>
438

> <i_i_glide_rotatable_bonds>
8

> <r_i_docking_score>
-8.59183616388885

> <r_i_glide_ligand_efficiency>
-0.296270212547891

> <r_i_glide_ligand_efficiency_sa>
-0.910235957938731

> <r_i_glide_ligand_efficiency_ln>
-1.96731261136378

> <r_i_glide_gscore>
-8.59183616388885

> <r_i_glide_lipo>
-3.16170288496664

> <r_i_glide_hbond>
-0.238498488352658

> <r_i_glide_metal>
0

> <r_i_glide_rewards>
-1.63334218866495

> <r_i_glide_evdw>
-35.022216796875

> <r_i_glide_ecoul>
-14.8750534057617

> <r_i_glide_erotb>
0.595353640919532

> <r_i_glide_esite>
-0.171277392116127

> <r_i_glide_emodel>
-80.2124856747055

> <r_i_glide_energy>
-49.8972702026367

> <r_i_glide_einternal>
6.68585681915283

> <i_i_glide_confnum>
132

> <i_i_glide_posenum>
241

> <r_i_glide_eff_state_penalty>
0

> <s_user_duplicate_titles>
CHEMBL3474_lig349

> <s_m_subgroup_title>
dock_pv

> <s_m_subgroupid>
dock_pv

> <b_m_subgroup_collapsed>
1

$$$$
CHEMBL3474_lig344
                    3D
 Schrodinger Suite 2021-1.
 42 44  0  0  1  0            999 V2000
  -43.6150   59.3333   34.6460 F   0  0  0  0  0  0
  -43.6204   60.3923   35.4583 C   0  0  0  0  0  0
  -43.0675   60.0980   36.6343 F   0  0  0  0  0  0
  -41.6442   61.4049   34.4831 C   0  0  0  0  0  0
  -40.8699   60.2358   34.5477 C   0  0  0  0  0  0
  -39.5572   60.2086   34.0841 C   0  0  0  0  0  0
  -41.0999   62.5856   33.9876 C   0  0  0  0  0  0
  -39.7837   62.5651   33.5131 C   0  0  0  0  0  0
  -39.0073   61.3740   33.5375 C   0  0  0  0  0  0
  -37.7557   61.6911   32.9457 C   0  0  0  0  0  0
  -37.7955   63.0187   32.5372 C   0  0  0  0  0  0
  -39.0065   63.5760   32.9526 N   0  0  0  0  0  0
  -39.4255   64.9287   32.8334 C   0  0  0  0  0  0
  -39.3067   65.6203   31.6204 C   0  0  0  0  0  0
  -39.7331   66.9502   31.5608 C   0  0  0  0  0  0
  -40.2864   67.5947   32.6228 N   0  0  0  0  0  0
  -40.4217   66.9071   33.7823 C   0  0  0  0  0  0
  -40.0150   65.5815   33.9253 C   0  0  0  0  0  0
  -36.7042   63.7446   31.9403 C   0  0  0  0  0  0
  -36.0148   63.0595   31.0410 N   0  0  0  0  0  0
  -36.4152   64.8980   32.2429 O   0  0  0  0  0  0
  -39.6243   67.7431   30.2661 C   0  0  0  0  0  0
  -39.1142   69.1994   30.3982 C   0  0  0  0  0  0
  -37.6642   69.3618   30.8681 C   0  0  0  0  0  0
  -37.2150   70.6053   30.5510 O   0  0  0  0  0  0
  -36.9975   68.4983   31.4427 O   0  0  0  0  0  0
  -42.9661   61.5030   34.8655 O   0  0  0  0  0  0
  -44.8879   60.7370   35.6768 F   0  0  0  0  0  0
  -41.2745   59.3159   34.9420 H   0  0  0  0  0  0
  -38.9815   59.2971   34.1216 H   0  0  0  0  0  0
  -41.6996   63.4801   33.9523 H   0  0  0  0  0  0
  -36.9168   61.0224   32.8205 H   0  0  0  0  0  0
  -38.8866   65.1414   30.7469 H   0  0  0  0  0  0
  -40.8672   67.4397   34.6098 H   0  0  0  0  0  0
  -40.1448   65.0811   34.8736 H   0  0  0  0  0  0
  -35.2839   63.5404   30.5352 H   0  0  0  0  0  0
  -36.3475   62.1631   30.7214 H   0  0  0  0  0  0
  -40.6278   67.7664   29.8435 H   0  0  0  0  0  0
  -39.0113   67.2013   29.5420 H   0  0  0  0  0  0
  -39.7386   69.7628   31.0908 H   0  0  0  0  0  0
  -39.2162   69.6873   29.4272 H   0  0  0  0  0  0
  -36.2459   70.6647   30.6430 H   0  0  0  0  0  0
  1  2  1  0  0  0
  2  3  1  0  0  0
  2 27  1  0  0  0
  2 28  1  0  0  0
  4  5  2  0  0  0
  4  7  1  0  0  0
  4 27  1  0  0  0
  5  6  1  0  0  0
  5 29  1  0  0  0
  6  9  2  0  0  0
  6 30  1  0  0  0
  7  8  2  0  0  0
  7 31  1  0  0  0
  8  9  1  0  0  0
  8 12  1  0  0  0
  9 10  1  0  0  0
 10 11  2  0  0  0
 10 32  1  0  0  0
 11 12  1  0  0  0
 11 19  1  0  0  0
 12 13  1  0  0  0
 13 14  2  0  0  0
 13 18  1  0  0  0
 14 15  1  0  0  0
 14 33  1  0  0  0
 15 16  2  0  0  0
 15 22  1  0  0  0
 16 17  1  0  0  0
 17 18  2  0  0  0
 17 34  1  0  0  0
 18 35  1  0  0  0
 19 20  1  0  0  0
 19 21  2  0  0  0
 20 36  1  0  0  0
 20 37  1  0  0  0
 22 23  1  0  0  0
 22 38  1  0  0  0
 22 39  1  0  0  0
 23 24  1  0  0  0
 23 40  1  0  0  0
 23 41  1  0  0  0
 24 25  1  0  0  0
 24 26  2  0  0  0
 25 42  1  0  0  0
M  END
> <s_m_entry_id>
68108

> <s_m_entry_name>
dock_pv.44

> <s_m_Source_Path>
/home/csk/Desktop/cluster/DUD-E-result/pa2ga

> <s_m_Source_File>
dock_pv.maegz

> <i_m_Source_File_Index>
44

> <chembl_id>
CHEMBL4206163

> <chembl_pref_name>
None

> <i_lp_mmshare_version>
53161

> <i_f3d_flags>
0

> <r_lp_tautomer_probability>
1

> <s_lp_Force_Field>
OPLS_2005

> <r_lp_Energy>
7.877835

> <b_lp_Chiralities_Consistent>
1

> <s_lp_Variant>
CHEMBL3474_lig344-1

> <s_i_glide_gridfile>
glide-grid_1kvo

> <i_i_glide_lignum>
433

> <i_i_glide_rotatable_bonds>
8

> <r_i_docking_score>
-8.54494406465055

> <r_i_glide_ligand_efficiency>
-0.305176573737519

> <r_i_glide_ligand_efficiency_sa>
-0.926695817256838

> <r_i_glide_ligand_efficiency_ln>
-1.97242398058096

> <r_i_glide_gscore>
-8.54494406465055

> <r_i_glide_lipo>
-2.84517110135385

> <r_i_glide_hbond>
-0.199257304318835

> <r_i_glide_metal>
0

> <r_i_glide_rewards>
-1.82644977574101

> <r_i_glide_evdw>
-43.5051307678223

> <r_i_glide_ecoul>
-13.3990097045898

> <r_i_glide_erotb>
0.631346745180662

> <r_i_glide_esite>
-0.120304634337929

> <r_i_glide_emodel>
-87.6757121777475

> <r_i_glide_energy>
-56.9041404724121

> <r_i_glide_einternal>
8.11782169342041

> <i_i_glide_confnum>
181

> <i_i_glide_posenum>
364

> <r_i_glide_eff_state_penalty>
0

> <s_user_duplicate_titles>
CHEMBL3474_lig344

> <s_m_subgroup_title>
dock_pv

> <s_m_subgroupid>
dock_pv

> <b_m_subgroup_collapsed>
1

$$$$
CHEMBL3474_lig125
                    3D
 Schrodinger Suite 2021-1.
 50 52  0  0  1  0            999 V2000
  -38.6968   62.8758   33.0677 C   0  0  0  0  0  0
  -39.9190   62.5172   34.9179 N   0  0  0  0  0  0
  -38.9356   61.9847   34.1034 C   0  0  0  0  0  0
  -39.5793   64.0112   33.2299 C   0  0  0  0  0  0
  -40.2714   63.7769   34.4584 C   0  0  0  0  0  0
  -37.6956   62.6566   32.0332 C   0  0  0  0  0  0
  -39.8825   65.1922   32.4935 C   0  0  0  0  0  0
  -36.6178   63.7886   31.8256 C   0  0  0  0  0  0
  -40.5578   61.8612   36.0655 C   0  0  0  0  0  0
  -41.1548   64.7113   35.0100 C   0  0  0  0  0  0
  -39.4129   65.4911   31.0630 C   0  0  0  0  0  0
  -38.4447   66.6784   30.9065 C   0  0  0  0  0  0
  -40.7451   66.1226   33.0849 C   0  0  0  0  0  0
  -37.5801   61.5803   31.4412 O   0  0  0  0  0  0
  -36.4160   64.6868   32.6427 O   0  0  0  0  0  0
  -41.3494   65.9017   34.3179 C   0  0  0  0  0  0
  -37.8637   67.2434   31.8342 O   0  0  0  0  0  0
  -36.0146   63.6970   30.6465 N   0  0  0  0  0  0
  -38.2643   60.6466   34.3822 C   0  0  0  0  0  0
  -42.0220   61.4957   35.8361 C   0  0  0  0  0  0
  -38.2882   66.9981   29.5926 O   0  0  0  0  0  0
  -42.2560   66.9657   34.9082 C   0  0  0  0  0  0
  -42.4440   60.9493   34.6174 C   0  0  0  0  0  0
  -42.9487   61.7100   36.8605 C   0  0  0  0  0  0
  -39.0256   59.4606   33.7848 C   0  0  0  0  0  0
  -44.2904   61.3981   36.6636 C   0  0  0  0  0  0
  -43.7851   60.6376   34.4213 C   0  0  0  0  0  0
  -44.7020   60.8706   35.4432 C   0  0  0  0  0  0
  -40.4827   62.5554   36.9030 H   0  0  0  0  0  0
  -40.0164   60.9632   36.3565 H   0  0  0  0  0  0
  -41.6611   64.5247   35.9455 H   0  0  0  0  0  0
  -38.9772   64.6066   30.6055 H   0  0  0  0  0  0
  -40.3024   65.6987   30.4651 H   0  0  0  0  0  0
  -40.9659   67.0394   32.5577 H   0  0  0  0  0  0
  -35.3859   64.4341   30.3326 H   0  0  0  0  0  0
  -36.2948   62.9688   30.0035 H   0  0  0  0  0  0
  -37.2555   60.6453   33.9671 H   0  0  0  0  0  0
  -38.1036   60.4904   35.4429 H   0  0  0  0  0  0
  -38.7409   66.3858   29.0081 H   0  0  0  0  0  0
  -43.0944   67.1612   34.2430 H   0  0  0  0  0  0
  -42.6573   66.6742   35.8808 H   0  0  0  0  0  0
  -41.7085   67.9015   35.0319 H   0  0  0  0  0  0
  -41.7419   60.7744   33.8157 H   0  0  0  0  0  0
  -42.6347   62.1201   37.8100 H   0  0  0  0  0  0
  -38.4222   58.5549   33.8452 H   0  0  0  0  0  0
  -39.9656   59.2828   34.3078 H   0  0  0  0  0  0
  -39.2529   59.6288   32.7310 H   0  0  0  0  0  0
  -45.0086   61.5654   37.4531 H   0  0  0  0  0  0
  -44.1164   60.2175   33.4816 H   0  0  0  0  0  0
  -45.7428   60.6273   35.2872 H   0  0  0  0  0  0
  1  3  2  0  0  0
  1  4  1  0  0  0
  1  6  1  0  0  0
  2  3  1  0  0  0
  2  9  1  0  0  0
  2  5  1  0  0  0
  3 19  1  0  0  0
  4  5  1  0  0  0
  4  7  2  0  0  0
  5 10  2  0  0  0
  6  8  1  0  0  0
  6 14  2  0  0  0
  7 11  1  0  0  0
  7 13  1  0  0  0
  8 15  2  0  0  0
  8 18  1  0  0  0
  9 20  1  0  0  0
  9 29  1  0  0  0
  9 30  1  0  0  0
 10 16  1  0  0  0
 10 31  1  0  0  0
 11 12  1  0  0  0
 11 32  1  0  0  0
 11 33  1  0  0  0
 12 17  2  0  0  0
 12 21  1  0  0  0
 13 16  2  0  0  0
 13 34  1  0  0  0
 16 22  1  0  0  0
 18 35  1  0  0  0
 18 36  1  0  0  0
 19 25  1  0  0  0
 19 37  1  0  0  0
 19 38  1  0  0  0
 20 23  1  0  0  0
 20 24  2  0  0  0
 21 39  1  0  0  0
 22 40  1  0  0  0
 22 41  1  0  0  0
 22 42  1  0  0  0
 23 27  2  0  0  0
 23 43  1  0  0  0
 24 26  1  0  0  0
 24 44  1  0  0  0
 25 45  1  0  0  0
 25 46  1  0  0  0
 25 47  1  0  0  0
 26 28  2  0  0  0
 26 48  1  0  0  0
 27 28  1  0  0  0
 27 49  1  0  0  0
 28 50  1  0  0  0
M  END
> <s_m_entry_id>
68109

> <s_m_entry_name>
dock_pv.45

> <s_m_Source_Path>
/home/csk/Desktop/cluster/DUD-E-result/pa2ga

> <s_m_Source_File>
dock_pv.maegz

> <i_m_Source_File_Index>
45

> <chembl_id>
CHEMBL347748

> <chembl_pref_name>
None

> <i_lp_mmshare_version>
53161

> <i_f3d_flags>
0

> <r_lp_tautomer_probability>
1

> <s_lp_Force_Field>
OPLS_2005

> <r_lp_Energy>
20.84854

> <b_lp_Chiralities_Consistent>
1

> <s_lp_Variant>
CHEMBL3474_lig125-1

> <s_i_glide_gridfile>
glide-grid_1kvo

> <i_i_glide_lignum>
184

> <i_i_glide_rotatable_bonds>
8

> <r_i_docking_score>
-8.50858722449818

> <r_i_glide_ligand_efficiency>
-0.303878115160649

> <r_i_glide_ligand_efficiency_sa>
-0.922752932266257

> <r_i_glide_ligand_efficiency_ln>
-1.96403175439058

> <r_i_glide_gscore>
-8.50858722449818

> <r_i_glide_lipo>
-3.49379351938133

> <r_i_glide_hbond>
-0.475704851724625

> <r_i_glide_metal>
0

> <r_i_glide_rewards>
-1.27678360336807

> <r_i_glide_evdw>
-43.2688217163086

> <r_i_glide_ecoul>
-10.7814989089966

> <r_i_glide_erotb>
0.676628771348962

> <r_i_glide_esite>
-0.158268099208197

> <r_i_glide_emodel>
-82.3633371725534

> <r_i_glide_energy>
-54.0503206253052

> <r_i_glide_einternal>
5.8749566078186

> <i_i_glide_confnum>
44

> <i_i_glide_posenum>
208

> <r_i_glide_eff_state_penalty>
0

> <s_user_duplicate_titles>
CHEMBL3474_lig125,247229

> <s_m_subgroup_title>
dock_pv

> <s_m_subgroupid>
dock_pv

> <b_m_subgroup_collapsed>
1

$$$$
CHEMBL3474_lig64
                    3D
 Schrodinger Suite 2021-1.
 60 62  0  0  1  0            999 V2000
  -40.3384   63.3809   34.7320 N   0  0  0  0  0  0
  -39.2827   63.7253   32.7636 C   0  0  0  0  0  0
  -39.6607   62.7599   33.6902 C   0  0  0  0  0  0
  -39.8164   64.9761   33.2202 C   0  0  0  0  0  0
  -40.4856   64.7331   34.4494 C   0  0  0  0  0  0
  -39.8425   71.2839   29.1199 P   0  0  0  0  0  0
  -38.4578   63.5421   31.4994 C   0  0  0  0  0  0
  -40.8490   62.7182   35.9410 C   0  0  0  0  0  0
  -41.1140   65.7686   35.1556 C   0  0  0  0  0  0
  -37.0357   64.0959   31.6318 C   0  0  0  0  0  0
  -39.7687   66.2853   32.7102 C   0  0  0  0  0  0
  -40.5994   70.0980   28.6445 O   0  0  0  0  0  0
  -36.8113   65.1411   32.2430 O   0  0  0  0  0  0
  -40.8037   72.5525   29.4430 O   0  0  0  0  0  0
  -38.8149   71.8819   28.0206 O   0  0  0  0  0  0
  -40.3546   67.3349   33.4291 C   0  0  0  0  0  0
  -36.0558   63.4154   31.0433 N   0  0  0  0  0  0
  -41.0230   67.0559   34.6206 C   0  0  0  0  0  0
  -39.4263   61.2508   33.6662 C   0  0  0  0  0  0
  -38.7523   71.1668   30.6062 C   0  0  0  0  0  0
  -42.2510   62.1135   35.8654 C   0  0  0  0  0  0
  -39.4360   70.5815   31.8619 C   0  0  0  0  0  0
  -40.3079   68.6621   33.0391 O   0  0  0  0  0  0
  -39.5466   69.0442   31.8900 C   0  0  0  0  0  0
  -43.0021   62.0217   37.0412 C   0  0  0  0  0  0
  -42.7693   61.5940   34.6728 C   0  0  0  0  0  0
  -38.1130   60.7819   34.3121 C   0  0  0  0  0  0
  -36.8489   61.1085   33.5089 C   0  0  0  0  0  0
  -44.0142   60.9738   34.6633 C   0  0  0  0  0  0
  -44.2571   61.4193   37.0278 C   0  0  0  0  0  0
  -44.7578   60.8982   35.8383 C   0  0  0  0  0  0
  -38.3937   62.4940   31.2168 H   0  0  0  0  0  0
  -38.9285   64.0476   30.6556 H   0  0  0  0  0  0
  -40.8148   63.4499   36.7498 H   0  0  0  0  0  0
  -40.1501   61.9368   36.2386 H   0  0  0  0  0  0
  -41.6323   65.5945   36.0882 H   0  0  0  0  0  0
  -39.2556   66.4634   31.7790 H   0  0  0  0  0  0
  -41.2571   72.8875   28.6205 H   0  0  0  0  0  0
  -39.2571   72.3894   27.2875 H   0  0  0  0  0  0
  -35.1352   63.8271   31.0066 H   0  0  0  0  0  0
  -36.2768   62.6274   30.4544 H   0  0  0  0  0  0
  -41.4786   67.8748   35.1588 H   0  0  0  0  0  0
  -40.2390   60.7165   34.1551 H   0  0  0  0  0  0
  -39.4568   60.8806   32.6431 H   0  0  0  0  0  0
  -38.4030   72.1768   30.8179 H   0  0  0  0  0  0
  -37.8656   70.5879   30.3463 H   0  0  0  0  0  0
  -40.4151   71.0388   31.9829 H   0  0  0  0  0  0
  -38.8659   70.8882   32.7400 H   0  0  0  0  0  0
  -38.5406   68.6248   31.9370 H   0  0  0  0  0  0
  -40.0172   68.6682   30.9815 H   0  0  0  0  0  0
  -42.6119   62.4086   37.9719 H   0  0  0  0  0  0
  -42.2189   61.6586   33.7470 H   0  0  0  0  0  0
  -38.0219   61.1745   35.3249 H   0  0  0  0  0  0
  -38.1757   59.6996   34.4102 H   0  0  0  0  0  0
  -36.0142   60.4969   33.8444 H   0  0  0  0  0  0
  -36.9847   60.9083   32.4459 H   0  0  0  0  0  0
  -36.5670   62.1526   33.6302 H   0  0  0  0  0  0
  -44.4137   60.5675   33.7460 H   0  0  0  0  0  0
  -44.8368   61.3515   37.9378 H   0  0  0  0  0  0
  -45.7306   60.4288   35.8240 H   0  0  0  0  0  0
  1  3  1  0  0  0
  1  5  1  0  0  0
  1  8  1  0  0  0
  2  3  2  0  0  0
  2  7  1  0  0  0
  2  4  1  0  0  0
  3 19  1  0  0  0
  4  5  1  0  0  0
  4 11  2  0  0  0
  5  9  2  0  0  0
  6 20  1  0  0  0
  6 12  2  0  0  0
  6 14  1  0  0  0
  6 15  1  0  0  0
  7 10  1  0  0  0
  7 32  1  0  0  0
  7 33  1  0  0  0
  8 21  1  0  0  0
  8 34  1  0  0  0
  8 35  1  0  0  0
  9 18  1  0  0  0
  9 36  1  0  0  0
 10 13  2  0  0  0
 10 17  1  0  0  0
 11 16  1  0  0  0
 11 37  1  0  0  0
 14 38  1  0  0  0
 15 39  1  0  0  0
 16 18  2  0  0  0
 16 23  1  0  0  0
 17 40  1  0  0  0
 17 41  1  0  0  0
 18 42  1  0  0  0
 19 27  1  0  0  0
 19 43  1  0  0  0
 19 44  1  0  0  0
 20 22  1  0  0  0
 20 45  1  0  0  0
 20 46  1  0  0  0
 21 25  1  0  0  0
 21 26  2  0  0  0
 22 24  1  0  0  0
 22 47  1  0  0  0
 22 48  1  0  0  0
 23 24  1  0  0  0
 24 49  1  0  0  0
 24 50  1  0  0  0
 25 30  2  0  0  0
 25 51  1  0  0  0
 26 29  1  0  0  0
 26 52  1  0  0  0
 27 28  1  0  0  0
 27 53  1  0  0  0
 27 54  1  0  0  0
 28 55  1  0  0  0
 28 56  1  0  0  0
 28 57  1  0  0  0
 29 31  2  0  0  0
 29 58  1  0  0  0
 30 31  1  0  0  0
 30 59  1  0  0  0
 31 60  1  0  0  0
M  END
> <s_m_entry_id>
68110

> <s_m_entry_name>
dock_pv.46

> <s_m_Source_Path>
/home/csk/Desktop/cluster/DUD-E-result/pa2ga

> <s_m_Source_File>
dock_pv.maegz

> <i_m_Source_File_Index>
46

> <chembl_id>
CHEMBL357931

> <chembl_pref_name>
None

> <i_lp_mmshare_version>
53161

> <i_f3d_flags>
0

> <r_lp_tautomer_probability>
1

> <s_lp_Force_Field>
OPLS_2005

> <r_lp_Energy>
5.33365

> <b_lp_Chiralities_Consistent>
1

> <s_lp_Variant>
CHEMBL3474_lig64-1

> <s_i_glide_gridfile>
glide-grid_1kvo

> <i_i_glide_lignum>
104

> <i_i_glide_rotatable_bonds>
13

> <r_i_docking_score>
-8.49433604954342

> <r_i_glide_ligand_efficiency>
-0.274010840307852

> <r_i_glide_ligand_efficiency_sa>
-0.860772351303301

> <r_i_glide_ligand_efficiency_ln>
-1.91573309930869

> <r_i_glide_gscore>
-8.49433604954342

> <r_i_glide_lipo>
-3.61347484270226

> <r_i_glide_hbond>
-0.104828681862747

> <r_i_glide_metal>
0

> <r_i_glide_rewards>
-0.562794670659236

> <r_i_glide_evdw>
-41.6647644042969

> <r_i_glide_ecoul>
-19.1151084899902

> <r_i_glide_erotb>
0.911190136996142

> <r_i_glide_esite>
-0.173923497601941

> <r_i_glide_emodel>
-96.7982613998376

> <r_i_glide_energy>
-60.7798728942871

> <r_i_glide_einternal>
4.03575468063354

> <i_i_glide_confnum>
16

> <i_i_glide_posenum>
18

> <r_i_glide_eff_state_penalty>
0

> <s_user_duplicate_titles>
CHEMBL3474_lig64

> <s_m_subgroup_title>
dock_pv

> <s_m_subgroupid>
dock_pv

> <b_m_subgroup_collapsed>
1

$$$$
CHEMBL3474_lig56
                    3D
 Schrodinger Suite 2021-1.
 53 55  0  0  1  0            999 V2000
  -40.1891   62.4407   35.1326 N   0  0  0  0  0  0
  -38.8020   61.8595   33.4343 C   0  0  0  0  0  0
  -39.4344   61.4207   34.5871 C   0  0  0  0  0  0
  -39.2723   63.2094   33.2226 C   0  0  0  0  0  0
  -40.1465   63.5415   34.2993 C   0  0  0  0  0  0
  -37.8525   61.0269   32.5745 C   0  0  0  0  0  0
  -41.0182   62.3287   36.3327 C   0  0  0  0  0  0
  -40.7935   64.7820   34.3804 C   0  0  0  0  0  0
  -36.7791   61.7960   31.8003 C   0  0  0  0  0  0
  -39.0428   64.1821   32.2279 C   0  0  0  0  0  0
  -37.6284   69.8186   31.4646 C   0  0  0  0  0  0
  -36.2710   62.8185   32.2456 O   0  0  0  0  0  0
  -36.8939   68.8986   31.8400 O   0  0  0  0  0  0
  -39.6316   65.4388   32.3284 C   0  0  0  0  0  0
  -36.4124   61.3048   30.6228 N   0  0  0  0  0  0
  -40.5162   65.7053   33.3768 C   0  0  0  0  0  0
  -39.3908   60.0572   35.2320 C   0  0  0  0  0  0
  -39.2709   66.3773   31.3437 N   0  0  0  0  0  0
  -42.4449   61.8347   36.1188 C   0  0  0  0  0  0
  -37.2148   70.9176   30.7881 O   0  0  0  0  0  0
  -39.1259   69.9409   31.7763 C   0  0  0  0  0  0
  -40.0557   67.5960   31.1626 C   0  0  0  0  0  0
  -42.8354   61.2116   34.9258 C   0  0  0  0  0  0
  -43.3742   61.9807   37.1498 C   0  0  0  0  0  0
  -39.8203   68.6542   32.2650 C   0  0  0  0  0  0
  -44.1342   60.7466   34.7674 C   0  0  0  0  0  0
  -44.6800   61.5175   36.9933 C   0  0  0  0  0  0
  -45.0477   60.8976   35.8044 C   0  0  0  0  0  0
  -37.3147   60.3038   33.1845 H   0  0  0  0  0  0
  -38.4135   60.4334   31.8555 H   0  0  0  0  0  0
  -41.0508   63.3124   36.8113 H   0  0  0  0  0  0
  -40.5213   61.6790   37.0495 H   0  0  0  0  0  0
  -41.4711   65.0217   35.1784 H   0  0  0  0  0  0
  -38.3879   63.9701   31.3987 H   0  0  0  0  0  0
  -35.7305   61.8128   30.0762 H   0  0  0  0  0  0
  -36.8446   60.4754   30.2437 H   0  0  0  0  0  0
  -41.0077   66.6578   33.4449 H   0  0  0  0  0  0
  -38.8202   59.3339   34.6434 H   0  0  0  0  0  0
  -38.9584   60.0970   36.2243 H   0  0  0  0  0  0
  -40.3941   59.6197   35.3341 H   0  0  0  0  0  0
  -39.1128   65.8835   30.4747 H   0  0  0  0  0  0
  -36.2519   70.8928   30.6419 H   0  0  0  0  0  0
  -39.6426   70.3433   30.9041 H   0  0  0  0  0  0
  -39.2058   70.6961   32.5547 H   0  0  0  0  0  0
  -39.8719   68.0045   30.1701 H   0  0  0  0  0  0
  -41.1076   67.3039   31.1637 H   0  0  0  0  0  0
  -42.1389   61.0723   34.1066 H   0  0  0  0  0  0
  -43.0845   62.4497   38.0794 H   0  0  0  0  0  0
  -40.7907   68.9220   32.6825 H   0  0  0  0  0  0
  -39.2646   68.2283   33.1034 H   0  0  0  0  0  0
  -44.4251   60.2669   33.8426 H   0  0  0  0  0  0
  -45.3964   61.6301   37.7969 H   0  0  0  0  0  0
  -46.0585   60.5302   35.6766 H   0  0  0  0  0  0
  1  3  1  0  0  0
  1  5  1  0  0  0
  1  7  1  0  0  0
  2  3  2  0  0  0
  2  6  1  0  0  0
  2  4  1  0  0  0
  3 17  1  0  0  0
  4  5  1  0  0  0
  4 10  2  0  0  0
  5  8  2  0  0  0
  6  9  1  0  0  0
  6 29  1  0  0  0
  6 30  1  0  0  0
  7 19  1  0  0  0
  7 31  1  0  0  0
  7 32  1  0  0  0
  8 16  1  0  0  0
  8 33  1  0  0  0
  9 12  2  0  0  0
  9 15  1  0  0  0
 10 14  1  0  0  0
 10 34  1  0  0  0
 11 21  1  0  0  0
 11 13  2  0  0  0
 11 20  1  0  0  0
 14 16  2  0  0  0
 14 18  1  0  0  0
 15 35  1  0  0  0
 15 36  1  0  0  0
 16 37  1  0  0  0
 17 38  1  0  0  0
 17 39  1  0  0  0
 17 40  1  0  0  0
 18 22  1  0  0  0
 18 41  1  0  0  0
 19 23  1  0  0  0
 19 24  2  0  0  0
 20 42  1  0  0  0
 21 25  1  0  0  0
 21 43  1  0  0  0
 21 44  1  0  0  0
 22 25  1  0  0  0
 22 45  1  0  0  0
 22 46  1  0  0  0
 23 26  2  0  0  0
 23 47  1  0  0  0
 24 27  1  0  0  0
 24 48  1  0  0  0
 25 49  1  0  0  0
 25 50  1  0  0  0
 26 28  1  0  0  0
 26 51  1  0  0  0
 27 28  2  0  0  0
 27 52  1  0  0  0
 28 53  1  0  0  0
M  END
> <s_m_entry_id>
68111

> <s_m_entry_name>
dock_pv.47

> <s_m_Source_Path>
/home/csk/Desktop/cluster/DUD-E-result/pa2ga

> <s_m_Source_File>
dock_pv.maegz

> <i_m_Source_File_Index>
47

> <chembl_id>
CHEMBL356160

> <chembl_pref_name>
None

> <i_lp_mmshare_version>
53161

> <i_f3d_flags>
0

> <r_lp_tautomer_probability>
1

> <s_lp_Force_Field>
OPLS_2005

> <r_lp_Energy>
10.583133

> <b_lp_Chiralities_Consistent>
1

> <s_lp_Variant>
CHEMBL3474_lig56-1

> <s_i_glide_gridfile>
glide-grid_1kvo

> <i_i_glide_lignum>
96

> <i_i_glide_rotatable_bonds>
10

> <r_i_docking_score>
-8.47563443286633

> <r_i_glide_ligand_efficiency>
-0.302701229745226

> <r_i_glide_ligand_efficiency_sa>
-0.91917921499659

> <r_i_glide_ligand_efficiency_ln>
-1.95642528254594

> <r_i_glide_gscore>
-8.47563443286633

> <r_i_glide_lipo>
-3.82130719124693

> <r_i_glide_hbond>
0

> <r_i_glide_metal>
0

> <r_i_glide_rewards>
-1.51253701143239

> <r_i_glide_evdw>
-46.1239395141602

> <r_i_glide_ecoul>
-12.3619527816772

> <r_i_glide_erotb>
1.07734222173975

> <r_i_glide_esite>
-0.0586425589671708

> <r_i_glide_emodel>
-85.1482122028297

> <r_i_glide_energy>
-58.4858922958374

> <r_i_glide_einternal>
13.9998607635498

> <i_i_glide_confnum>
93

> <i_i_glide_posenum>
306

> <r_i_glide_eff_state_penalty>
0

> <s_user_duplicate_titles>
CHEMBL3474_lig56

> <s_m_subgroup_title>
dock_pv

> <s_m_subgroupid>
dock_pv

> <b_m_subgroup_collapsed>
1

$$$$
CHEMBL3474_lig357
                    3D
 Schrodinger Suite 2021-1.
 45 47  0  0  1  0            999 V2000
  -44.4630   60.4978   35.4457 F   0  0  0  0  0  0
  -43.4488   61.0909   34.8207 C   0  0  0  0  0  0
  -43.4973   62.3884   35.1235 F   0  0  0  0  0  0
  -41.0454   60.7730   34.6745 C   0  0  0  0  0  0
  -40.0705   59.7898   34.7759 C   0  0  0  0  0  0
  -38.8149   59.9257   34.1978 C   0  0  0  0  0  0
  -40.7689   61.9691   33.9954 C   0  0  0  0  0  0
  -39.4776   62.1350   33.4630 C   0  0  0  0  0  0
  -38.4852   61.1240   33.5720 C   0  0  0  0  0  0
  -37.2971   61.6222   32.9698 C   0  0  0  0  0  0
  -37.5753   62.8874   32.4855 C   0  0  0  0  0  0
  -38.9057   63.1928   32.7673 N   0  0  0  0  0  0
  -39.6371   64.3047   32.3076 C   0  0  0  0  0  0
  -39.2137   65.5457   32.6573 N   0  0  0  0  0  0
  -39.9011   66.6145   32.1730 C   0  0  0  0  0  0
  -41.0315   66.4767   31.3646 C   0  0  0  0  0  0
  -41.4597   65.1930   31.0429 C   0  0  0  0  0  0
  -40.7693   64.0898   31.5198 C   0  0  0  0  0  0
  -36.6417   63.7665   31.8416 C   0  0  0  0  0  0
  -36.0150   63.2576   30.7924 N   0  0  0  0  0  0
  -36.4148   64.8993   32.2433 O   0  0  0  0  0  0
  -39.3456   67.9858   32.5295 C   0  0  1  0  0  0
  -39.0625   68.8583   31.2641 C   0  0  0  0  0  0
  -37.6148   69.3266   31.1403 C   0  0  0  0  0  0
  -37.4502   70.2448   30.1542 O   0  0  0  0  0  0
  -36.7049   68.8996   31.8431 O   0  0  0  0  0  0
  -42.2473   60.4859   35.2899 O   0  0  0  0  0  0
  -43.6143   60.8981   33.5097 F   0  0  0  0  0  0
  -40.2353   68.7079   33.5523 C   0  0  0  0  0  0
  -40.3000   58.8982   35.3275 H   0  0  0  0  0  0
  -38.0956   59.1272   34.2429 H   0  0  0  0  0  0
  -41.5041   62.7530   33.9090 H   0  0  0  0  0  0
  -36.3417   61.1218   32.9004 H   0  0  0  0  0  0
  -41.5599   67.3371   30.9853 H   0  0  0  0  0  0
  -42.3302   65.0337   30.4254 H   0  0  0  0  0  0
  -41.1034   63.0959   31.2627 H   0  0  0  0  0  0
  -35.3958   63.8654   30.2686 H   0  0  0  0  0  0
  -36.3268   62.3867   30.3907 H   0  0  0  0  0  0
  -38.4157   67.7807   33.0587 H   0  0  0  0  0  0
  -39.7078   69.7366   31.2442 H   0  0  0  0  0  0
  -39.2768   68.3084   30.3464 H   0  0  0  0  0  0
  -36.5192   70.4979   30.1144 H   0  0  0  0  0  0
  -40.3672   68.1135   34.4580 H   0  0  0  0  0  0
  -39.8206   69.6736   33.8401 H   0  0  0  0  0  0
  -41.2155   68.8982   33.1356 H   0  0  0  0  0  0
  1  2  1  0  0  0
  2  3  1  0  0  0
  2 27  1  0  0  0
  2 28  1  0  0  0
  4  5  2  0  0  0
  4  7  1  0  0  0
  4 27  1  0  0  0
  5  6  1  0  0  0
  5 30  1  0  0  0
  6  9  2  0  0  0
  6 31  1  0  0  0
  7  8  2  0  0  0
  7 32  1  0  0  0
  8  9  1  0  0  0
  8 12  1  0  0  0
  9 10  1  0  0  0
 10 11  2  0  0  0
 10 33  1  0  0  0
 11 12  1  0  0  0
 11 19  1  0  0  0
 12 13  1  0  0  0
 13 14  2  0  0  0
 13 18  1  0  0  0
 14 15  1  0  0  0
 15 16  2  0  0  0
 15 22  1  0  0  0
 16 17  1  0  0  0
 16 34  1  0  0  0
 17 18  2  0  0  0
 17 35  1  0  0  0
 18 36  1  0  0  0
 19 20  1  0  0  0
 19 21  2  0  0  0
 20 37  1  0  0  0
 20 38  1  0  0  0
 22 23  1  0  0  0
 22 29  1  0  0  0
 22 39  1  0  0  0
 23 24  1  0  0  0
 23 40  1  0  0  0
 23 41  1  0  0  0
 24 25  1  0  0  0
 24 26  2  0  0  0
 25 42  1  0  0  0
 29 43  1  0  0  0
 29 44  1  0  0  0
 29 45  1  0  0  0
M  END
> <s_m_entry_id>
68112

> <s_m_entry_name>
dock_pv.48

> <s_m_Source_Path>
/home/csk/Desktop/cluster/DUD-E-result/pa2ga

> <s_m_Source_File>
dock_pv.maegz

> <i_m_Source_File_Index>
48

> <chembl_id>
CHEMBL4215835

> <chembl_pref_name>
None

> <i_lp_mmshare_version>
53161

> <i_f3d_flags>
0

> <r_lp_tautomer_probability>
1

> <s_lp_Force_Field>
OPLS_2005

> <r_lp_Energy>
7.058989

> <b_lp_Chiralities_Consistent>
1

> <s_lp_Variant>
CHEMBL3474_lig357-2

> <s_i_glide_gridfile>
glide-grid_1kvo

> <i_i_glide_lignum>
452

> <i_i_glide_rotatable_bonds>
8

> <r_i_docking_score>
-8.45559005475848

> <r_i_glide_ligand_efficiency>
-0.291572070853741

> <r_i_glide_ligand_efficiency_sa>
-0.895801778178537

> <r_i_glide_ligand_efficiency_ln>
-1.93611570727616

> <r_i_glide_gscore>
-8.45559005475848

> <r_i_glide_lipo>
-3.49911640840105

> <r_i_glide_hbond>
-0.223379901732083

> <r_i_glide_metal>
0

> <r_i_glide_rewards>
-1.80871353851331

> <r_i_glide_evdw>
-40.5886917114258

> <r_i_glide_ecoul>
-9.04862880706787

> <r_i_glide_erotb>
0.59275288973163

> <r_i_glide_esite>
-0.130404189212196

> <r_i_glide_emodel>
-74.0290980093946

> <r_i_glide_energy>
-49.6373205184937

> <r_i_glide_einternal>
11.8213558197021

> <i_i_glide_confnum>
153

> <i_i_glide_posenum>
392

> <r_i_glide_eff_state_penalty>
0

> <s_user_duplicate_titles>
CHEMBL3474_lig357

> <s_m_subgroup_title>
dock_pv

> <s_m_subgroupid>
dock_pv

> <b_m_subgroup_collapsed>
1

$$$$
CHEMBL3474_lig352
                    3D
 Schrodinger Suite 2021-1.
 46 48  0  0  1  0            999 V2000
  -44.2187   60.1182   35.3007 F   0  0  0  0  0  0
  -43.2380   60.7851   34.6997 C   0  0  0  0  0  0
  -43.1621   61.9835   35.2810 F   0  0  0  0  0  0
  -40.8508   60.4494   34.3391 C   0  0  0  0  0  0
  -39.8374   59.4989   34.3144 C   0  0  0  0  0  0
  -38.5669   59.7616   33.8430 C   0  0  0  0  0  0
  -40.6071   61.7401   33.8429 C   0  0  0  0  0  0
  -39.3158   62.0169   33.3599 C   0  0  0  0  0  0
  -38.2820   61.0372   33.3846 C   0  0  0  0  0  0
  -37.1041   61.6359   32.8873 C   0  0  0  0  0  0
  -37.4455   62.8977   32.4545 C   0  0  0  0  0  0
  -38.7799   63.1536   32.7657 N   0  0  0  0  0  0
  -39.5360   64.2818   32.3728 C   0  0  0  0  0  0
  -39.2003   65.5740   32.7850 C   0  0  0  0  0  0
  -39.8838   66.6900   32.2891 C   0  0  0  0  0  0
  -40.9540   66.4888   31.4144 C   0  0  0  0  0  0
  -41.3181   65.1980   31.0430 C   0  0  0  0  0  0
  -40.6233   64.0983   31.5203 C   0  0  0  0  0  0
  -36.5435   63.8142   31.8430 C   0  0  0  0  0  0
  -35.8200   63.2980   30.8587 N   0  0  0  0  0  0
  -36.4111   64.9619   32.2430 O   0  0  0  0  0  0
  -39.4556   68.0975   32.7048 C   0  0  1  0  0  0
  -39.2003   69.0740   31.5102 C   0  0  0  0  0  0
  -37.7261   69.2536   31.1108 C   0  0  0  0  0  0
  -37.5396   70.3802   30.3772 O   0  0  0  0  0  0
  -36.8156   68.4980   31.4430 O   0  0  0  0  0  0
  -42.0488   60.0220   34.8766 O   0  0  0  0  0  0
  -43.5521   60.8980   33.4086 F   0  0  0  0  0  0
  -40.4107   68.6850   33.7639 C   0  0  0  0  0  0
  -40.0150   58.4980   34.6462 H   0  0  0  0  0  0
  -37.8145   58.9897   33.8429 H   0  0  0  0  0  0
  -41.3729   62.4987   33.8221 H   0  0  0  0  0  0
  -36.1257   61.1849   32.7990 H   0  0  0  0  0  0
  -38.3812   65.7121   33.4673 H   0  0  0  0  0  0
  -41.5137   67.3241   31.0244 H   0  0  0  0  0  0
  -42.1499   65.0292   30.3766 H   0  0  0  0  0  0
  -40.9224   63.1132   31.1972 H   0  0  0  0  0  0
  -35.1986   63.9189   30.3518 H   0  0  0  0  0  0
  -36.0602   62.3974   30.4743 H   0  0  0  0  0  0
  -38.5109   67.9645   33.2257 H   0  0  0  0  0  0
  -39.5731   70.0663   31.7667 H   0  0  0  0  0  0
  -39.7569   68.7837   30.6203 H   0  0  0  0  0  0
  -36.5961   70.4981   30.2087 H   0  0  0  0  0  0
  -40.3772   68.0979   34.6832 H   0  0  0  0  0  0
  -40.1378   69.7113   34.0079 H   0  0  0  0  0  0
  -41.4461   68.7100   33.4429 H   0  0  0  0  0  0
  1  2  1  0  0  0
  2  3  1  0  0  0
  2 27  1  0  0  0
  2 28  1  0  0  0
  4  5  2  0  0  0
  4  7  1  0  0  0
  4 27  1  0  0  0
  5  6  1  0  0  0
  5 30  1  0  0  0
  6  9  2  0  0  0
  6 31  1  0  0  0
  7  8  2  0  0  0
  7 32  1  0  0  0
  8  9  1  0  0  0
  8 12  1  0  0  0
  9 10  1  0  0  0
 10 11  2  0  0  0
 10 33  1  0  0  0
 11 12  1  0  0  0
 11 19  1  0  0  0
 12 13  1  0  0  0
 13 14  2  0  0  0
 13 18  1  0  0  0
 14 15  1  0  0  0
 14 34  1  0  0  0
 15 16  2  0  0  0
 15 22  1  0  0  0
 16 17  1  0  0  0
 16 35  1  0  0  0
 17 18  2  0  0  0
 17 36  1  0  0  0
 18 37  1  0  0  0
 19 20  1  0  0  0
 19 21  2  0  0  0
 20 38  1  0  0  0
 20 39  1  0  0  0
 22 23  1  0  0  0
 22 29  1  0  0  0
 22 40  1  0  0  0
 23 24  1  0  0  0
 23 41  1  0  0  0
 23 42  1  0  0  0
 24 25  1  0  0  0
 24 26  2  0  0  0
 25 43  1  0  0  0
 29 44  1  0  0  0
 29 45  1  0  0  0
 29 46  1  0  0  0
M  END
> <s_m_entry_id>
68113

> <s_m_entry_name>
dock_pv.49

> <s_m_Source_Path>
/home/csk/Desktop/cluster/DUD-E-result/pa2ga

> <s_m_Source_File>
dock_pv.maegz

> <i_m_Source_File_Index>
49

> <chembl_id>
CHEMBL4207266

> <chembl_pref_name>
None

> <i_lp_mmshare_version>
53161

> <i_f3d_flags>
0

> <r_lp_tautomer_probability>
1

> <s_lp_Force_Field>
OPLS_2005

> <r_lp_Energy>
18.379307

> <b_lp_Chiralities_Consistent>
1

> <s_lp_Variant>
CHEMBL3474_lig352-1

> <s_i_glide_gridfile>
glide-grid_1kvo

> <i_i_glide_lignum>
443

> <i_i_glide_rotatable_bonds>
8

> <r_i_docking_score>
-8.42940843279263

> <r_i_glide_ligand_efficiency>
-0.290669256303194

> <r_i_glide_ligand_efficiency_sa>
-0.893028045847532

> <r_i_glide_ligand_efficiency_ln>
-1.93012077975463

> <r_i_glide_gscore>
-8.42940843279263

> <r_i_glide_lipo>
-3.78985521773445

> <r_i_glide_hbond>
-0.266179763521488

> <r_i_glide_metal>
0

> <r_i_glide_rewards>
-1.65616158357838

> <r_i_glide_evdw>
-37.4240570068359

> <r_i_glide_ecoul>
-8.69262599945068

> <r_i_glide_erotb>
0.595353640919532

> <r_i_glide_esite>
-0.137468758618443

> <r_i_glide_emodel>
-73.8704066172498

> <r_i_glide_energy>
-46.1166830062866

> <r_i_glide_einternal>
8.47564697265625

> <i_i_glide_confnum>
21

> <i_i_glide_posenum>
21

> <r_i_glide_eff_state_penalty>
0

> <s_user_duplicate_titles>
CHEMBL3474_lig352

> <s_m_subgroup_title>
dock_pv

> <s_m_subgroupid>
dock_pv

> <b_m_subgroup_collapsed>
1

$$$$
CHEMBL3474_lig343
                    3D
 Schrodinger Suite 2021-1.
 42 44  0  0  1  0            999 V2000
  -44.7771   60.7131   35.8691 F   0  0  0  0  0  0
  -43.5371   60.3687   35.5243 C   0  0  0  0  0  0
  -43.6150   59.2984   34.7339 F   0  0  0  0  0  0
  -41.6433   61.4020   34.4246 C   0  0  0  0  0  0
  -40.8588   60.2388   34.4132 C   0  0  0  0  0  0
  -39.5508   60.2456   33.9346 C   0  0  0  0  0  0
  -41.1202   62.6092   33.9773 C   0  0  0  0  0  0
  -39.8121   62.6233   33.4799 C   0  0  0  0  0  0
  -39.0179   61.4436   33.4428 C   0  0  0  0  0  0
  -37.7767   61.8096   32.8543 C   0  0  0  0  0  0
  -37.8414   63.1526   32.5018 C   0  0  0  0  0  0
  -39.0562   63.6697   32.9596 N   0  0  0  0  0  0
  -39.5147   65.0124   32.8896 C   0  0  0  0  0  0
  -39.4462   65.7437   31.6982 C   0  0  0  0  0  0
  -39.8499   67.0831   31.7070 C   0  0  0  0  0  0
  -40.3391   67.6389   32.8953 C   0  0  0  0  0  0
  -40.4148   66.8360   34.0314 C   0  0  0  0  0  0
  -40.0149   65.5425   34.0411 N   0  0  0  0  0  0
  -36.7695   63.9307   31.9297 C   0  0  0  0  0  0
  -36.0148   63.2977   31.0427 N   0  0  0  0  0  0
  -36.5491   65.0935   32.2430 O   0  0  0  0  0  0
  -39.7872   67.8999   30.4245 C   0  0  0  0  0  0
  -39.1924   69.3243   30.5464 C   0  0  0  0  0  0
  -37.7067   69.4029   30.9191 C   0  0  0  0  0  0
  -37.2149   70.6263   30.5852 O   0  0  0  0  0  0
  -37.0514   68.4986   31.4424 O   0  0  0  0  0  0
  -42.9560   61.4679   34.8410 O   0  0  0  0  0  0
  -42.8605   60.0985   36.6410 F   0  0  0  0  0  0
  -41.2521   59.2983   34.7625 H   0  0  0  0  0  0
  -38.9684   59.3369   33.9188 H   0  0  0  0  0  0
  -41.7231   63.5021   34.0054 H   0  0  0  0  0  0
  -36.9282   61.1621   32.6891 H   0  0  0  0  0  0
  -39.0660   65.2875   30.7945 H   0  0  0  0  0  0
  -40.6616   68.6662   32.9465 H   0  0  0  0  0  0
  -40.8025   67.2250   34.9607 H   0  0  0  0  0  0
  -35.3084   63.8362   30.5552 H   0  0  0  0  0  0
  -36.2876   62.3914   30.6967 H   0  0  0  0  0  0
  -40.8101   67.9700   30.0568 H   0  0  0  0  0  0
  -39.2344   67.3499   29.6585 H   0  0  0  0  0  0
  -39.7394   69.9175   31.2764 H   0  0  0  0  0  0
  -39.3258   69.8262   29.5862 H   0  0  0  0  0  0
  -36.2412   70.6533   30.6429 H   0  0  0  0  0  0
  1  2  1  0  0  0
  2  3  1  0  0  0
  2 27  1  0  0  0
  2 28  1  0  0  0
  4  5  2  0  0  0
  4  7  1  0  0  0
  4 27  1  0  0  0
  5  6  1  0  0  0
  5 29  1  0  0  0
  6  9  2  0  0  0
  6 30  1  0  0  0
  7  8  2  0  0  0
  7 31  1  0  0  0
  8  9  1  0  0  0
  8 12  1  0  0  0
  9 10  1  0  0  0
 10 11  2  0  0  0
 10 32  1  0  0  0
 11 12  1  0  0  0
 11 19  1  0  0  0
 12 13  1  0  0  0
 13 14  2  0  0  0
 13 18  1  0  0  0
 14 15  1  0  0  0
 14 33  1  0  0  0
 15 16  2  0  0  0
 15 22  1  0  0  0
 16 17  1  0  0  0
 16 34  1  0  0  0
 17 18  2  0  0  0
 17 35  1  0  0  0
 19 20  1  0  0  0
 19 21  2  0  0  0
 20 36  1  0  0  0
 20 37  1  0  0  0
 22 23  1  0  0  0
 22 38  1  0  0  0
 22 39  1  0  0  0
 23 24  1  0  0  0
 23 40  1  0  0  0
 23 41  1  0  0  0
 24 25  1  0  0  0
 24 26  2  0  0  0
 25 42  1  0  0  0
M  END
> <s_m_entry_id>
68114

> <s_m_entry_name>
dock_pv.50

> <s_m_Source_Path>
/home/csk/Desktop/cluster/DUD-E-result/pa2ga

> <s_m_Source_File>
dock_pv.maegz

> <i_m_Source_File_Index>
50

> <chembl_id>
CHEMBL4213094

> <chembl_pref_name>
None

> <i_lp_mmshare_version>
53161

> <i_f3d_flags>
0

> <r_lp_tautomer_probability>
1

> <s_lp_Force_Field>
OPLS_2005

> <r_lp_Energy>
10.567007

> <b_lp_Chiralities_Consistent>
1

> <s_lp_Variant>
CHEMBL3474_lig343-1

> <s_i_glide_gridfile>
glide-grid_1kvo

> <i_i_glide_lignum>
432

> <i_i_glide_rotatable_bonds>
8

> <r_i_docking_score>
-8.40251408964477

> <r_i_glide_ligand_efficiency>
-0.300089788915885

> <r_i_glide_ligand_efficiency_sa>
-0.911249342582315

> <r_i_glide_ligand_efficiency_ln>
-1.93954696042384

> <r_i_glide_gscore>
-8.40251408964477

> <r_i_glide_lipo>
-2.76466229954541

> <r_i_glide_hbond>
-0.150613676471151

> <r_i_glide_metal>
0

> <r_i_glide_rewards>
-1.8644943032786

> <r_i_glide_evdw>
-41.7655448913574

> <r_i_glide_ecoul>
-13.4885578155518

> <r_i_glide_erotb>
0.631346745180662

> <r_i_glide_esite>
-0.142529638629636

> <r_i_glide_emodel>
-85.2935671870769

> <r_i_glide_energy>
-55.2541027069092

> <r_i_glide_einternal>
7.23536586761475

> <i_i_glide_confnum>
151

> <i_i_glide_posenum>
393

> <r_i_glide_eff_state_penalty>
0

> <s_user_duplicate_titles>
CHEMBL3474_lig343

> <s_m_subgroup_title>
dock_pv

> <s_m_subgroupid>
dock_pv

> <b_m_subgroup_collapsed>
1

$$$$
CHEMBL3474_lig98
                    3D
 Schrodinger Suite 2021-1.
 54 56  0  0  1  0            999 V2000
  -38.5347   62.8619   33.3433 C   0  0  0  0  0  0
  -40.1011   62.7685   34.9792 N   0  0  0  0  0  0
  -39.0821   62.0582   34.3510 C   0  0  0  0  0  0
  -39.3701   64.0350   33.2488 C   0  0  0  0  0  0
  -40.3001   63.9737   34.3237 C   0  0  0  0  0  0
  -37.3369   62.5406   32.5445 C   0  0  0  0  0  0
  -36.5566   63.6985   31.7890 C   0  0  0  0  0  0
  -40.9010   62.3377   36.1373 C   0  0  0  0  0  0
  -41.2109   65.0112   34.5733 C   0  0  0  0  0  0
  -39.4378   65.1328   32.3731 C   0  0  0  0  0  0
  -37.8208   70.1046   31.5724 C   0  0  0  0  0  0
  -36.8461   61.4113   32.5106 O   0  0  0  0  0  0
  -36.4180   64.8335   32.2431 O   0  0  0  0  0  0
  -38.8509   70.1209   32.2423 O   0  0  0  0  0  0
  -36.0151   63.2978   30.6454 N   0  0  0  0  0  0
  -38.6565   60.6647   34.8147 C   0  0  0  0  0  0
  -40.3122   66.1956   32.6298 C   0  0  0  0  0  0
  -41.1690   66.1178   33.7245 C   0  0  0  0  0  0
  -42.3172   61.8503   35.8518 C   0  0  0  0  0  0
  -36.8152   71.0233   31.6797 O   0  0  0  0  0  0
  -40.3903   67.3436   31.8558 O   0  0  0  0  0  0
  -37.4981   69.0128   30.5427 C   0  0  0  0  0  0
  -39.6319   67.4644   30.6452 C   0  0  0  0  0  0
  -42.6546   61.2494   34.6337 C   0  0  0  0  0  0
  -43.2770   61.9635   36.8633 C   0  0  0  0  0  0
  -39.3190   59.5460   34.0011 C   0  0  0  0  0  0
  -38.0999   67.6164   30.8521 C   0  0  0  0  0  0
  -44.5686   61.4902   36.6573 C   0  0  0  0  0  0
  -43.9432   60.7645   34.4335 C   0  0  0  0  0  0
  -44.8929   60.8905   35.4433 C   0  0  0  0  0  0
  -40.9532   63.1928   36.8119 H   0  0  0  0  0  0
  -40.3995   61.5596   36.7011 H   0  0  0  0  0  0
  -41.9107   64.9721   35.3958 H   0  0  0  0  0  0
  -38.7995   65.1604   31.5071 H   0  0  0  0  0  0
  -35.5016   63.9723   30.0916 H   0  0  0  0  0  0
  -36.1690   62.3589   30.3077 H   0  0  0  0  0  0
  -37.5794   60.5483   34.7105 H   0  0  0  0  0  0
  -38.8158   60.4890   35.8738 H   0  0  0  0  0  0
  -41.8460   66.9381   33.9110 H   0  0  0  0  0  0
  -36.0925   70.8968   31.0433 H   0  0  0  0  0  0
  -36.4151   68.8980   30.4868 H   0  0  0  0  0  0
  -37.8113   69.3544   29.5543 H   0  0  0  0  0  0
  -39.8523   66.6132   29.9988 H   0  0  0  0  0  0
  -40.0193   68.3297   30.1078 H   0  0  0  0  0  0
  -41.9263   61.1452   33.8428 H   0  0  0  0  0  0
  -43.0266   62.4152   37.8131 H   0  0  0  0  0  0
  -38.8688   58.5824   34.2413 H   0  0  0  0  0  0
  -40.3864   59.4710   34.2101 H   0  0  0  0  0  0
  -39.1938   59.7023   32.9286 H   0  0  0  0  0  0
  -37.8253   67.3116   31.8637 H   0  0  0  0  0  0
  -37.6148   66.8903   30.1965 H   0  0  0  0  0  0
  -45.3132   61.5812   37.4352 H   0  0  0  0  0  0
  -44.2111   60.2926   33.4978 H   0  0  0  0  0  0
  -45.8920   60.5115   35.2849 H   0  0  0  0  0  0
  1  3  2  0  0  0
  1  4  1  0  0  0
  1  6  1  0  0  0
  2  3  1  0  0  0
  2  8  1  0  0  0
  2  5  1  0  0  0
  3 16  1  0  0  0
  4  5  1  0  0  0
  4 10  2  0  0  0
  5  9  2  0  0  0
  6  7  1  0  0  0
  6 12  2  0  0  0
  7 13  2  0  0  0
  7 15  1  0  0  0
  8 19  1  0  0  0
  8 31  1  0  0  0
  8 32  1  0  0  0
  9 18  1  0  0  0
  9 33  1  0  0  0
 10 17  1  0  0  0
 10 34  1  0  0  0
 11 22  1  0  0  0
 11 14  2  0  0  0
 11 20  1  0  0  0
 15 35  1  0  0  0
 15 36  1  0  0  0
 16 26  1  0  0  0
 16 37  1  0  0  0
 16 38  1  0  0  0
 17 18  2  0  0  0
 17 21  1  0  0  0
 18 39  1  0  0  0
 19 24  1  0  0  0
 19 25  2  0  0  0
 20 40  1  0  0  0
 21 23  1  0  0  0
 22 27  1  0  0  0
 22 41  1  0  0  0
 22 42  1  0  0  0
 23 27  1  0  0  0
 23 43  1  0  0  0
 23 44  1  0  0  0
 24 29  2  0  0  0
 24 45  1  0  0  0
 25 28  1  0  0  0
 25 46  1  0  0  0
 26 47  1  0  0  0
 26 48  1  0  0  0
 26 49  1  0  0  0
 27 50  1  0  0  0
 27 51  1  0  0  0
 28 30  2  0  0  0
 28 52  1  0  0  0
 29 30  1  0  0  0
 29 53  1  0  0  0
 30 54  1  0  0  0
M  END
> <s_m_entry_id>
68115

> <s_m_entry_name>
dock_pv.51

> <s_m_Source_Path>
/home/csk/Desktop/cluster/DUD-E-result/pa2ga

> <s_m_Source_File>
dock_pv.maegz

> <i_m_Source_File_Index>
51

> <chembl_id>
CHEMBL148807

> <chembl_pref_name>
None

> <i_lp_mmshare_version>
53161

> <i_f3d_flags>
0

> <r_lp_tautomer_probability>
1

> <s_lp_Force_Field>
OPLS_2005

> <r_lp_Energy>
22.94656

> <b_lp_Chiralities_Consistent>
1

> <s_lp_Variant>
CHEMBL3474_lig98-1

> <s_i_glide_gridfile>
glide-grid_1kvo

> <i_i_glide_lignum>
156

> <i_i_glide_rotatable_bonds>
11

> <r_i_docking_score>
-8.39283938755314

> <r_i_glide_ligand_efficiency>
-0.279761312918438

> <r_i_glide_ligand_efficiency_sa>
-0.869283444422965

> <r_i_glide_ligand_efficiency_ln>
-1.90694455616156

> <r_i_glide_gscore>
-8.39283938755314

> <r_i_glide_lipo>
-3.427624737254

> <r_i_glide_hbond>
-0.258755315621148

> <r_i_glide_metal>
0

> <r_i_glide_rewards>
-0.960353701537265

> <r_i_glide_evdw>
-48.0914573669434

> <r_i_glide_ecoul>
-14.5490732192993

> <r_i_glide_erotb>
0.943788229134787

> <r_i_glide_esite>
-0.102960011033449

> <r_i_glide_emodel>
-93.1404974023789

> <r_i_glide_energy>
-62.6405305862427

> <r_i_glide_einternal>
8.3994312286377

> <i_i_glide_confnum>
155

> <i_i_glide_posenum>
97

> <r_i_glide_eff_state_penalty>
0

> <s_user_duplicate_titles>
CHEMBL3474_lig98,247733

> <s_m_subgroup_title>
dock_pv

> <s_m_subgroupid>
dock_pv

> <b_m_subgroup_collapsed>
1

$$$$
CHEMBL3474_lig177
                    3D
 Schrodinger Suite 2021-1.
 59 62  0  0  1  0            999 V2000
  -40.0015   65.4216   32.0913 N   0  0  0  0  0  0
  -39.6157   67.6572   32.0758 C   0  0  0  0  0  0
  -39.4099   66.4570   31.3831 C   0  0  0  0  0  0
  -40.4156   67.3274   33.2210 C   0  0  0  0  0  0
  -40.6301   65.9234   33.2180 C   0  0  0  0  0  0
  -39.9928   64.0076   31.7146 C   0  0  0  0  0  0
  -39.1959   69.0847   31.7296 C   0  0  0  0  0  0
  -41.3856   65.2914   34.2153 C   0  0  0  0  0  0
  -37.8601   69.2064   30.9936 C   0  0  0  0  0  0
  -40.9943   68.0986   34.2430 C   0  0  0  0  0  0
  -38.9718   63.1450   32.4423 C   0  0  0  0  0  0
  -36.8148   68.8976   31.5775 O   0  0  0  0  0  0
  -37.9432   69.6193   29.7131 N   0  0  0  0  0  0
  -38.8880   60.6562   35.2070 O   0  0  0  0  0  0
  -41.7838   67.4793   35.2213 C   0  0  0  0  0  0
  -39.3701   62.4082   33.5577 C   0  0  0  0  0  0
  -41.9437   66.0985   35.2025 C   0  0  0  0  0  0
  -38.7039   66.1783   30.0611 C   0  0  0  0  0  0
  -38.5199   61.4641   34.1470 C   0  0  0  0  0  0
  -36.8150   69.6980   28.8997 N   0  0  0  0  0  0
  -40.0148   61.0111   36.0230 C   0  0  0  0  0  0
  -41.3646   60.6774   35.4125 C   0  0  0  0  0  0
  -42.4541   68.1519   36.2222 O   0  0  0  0  0  0
  -36.8156   62.0538   32.5243 C   0  0  0  0  0  0
  -37.6781   62.9813   31.9394 C   0  0  0  0  0  0
  -37.2438   61.2871   33.6092 C   0  0  0  0  0  0
  -41.4781   59.8969   34.2581 C   0  0  0  0  0  0
  -42.5019   61.2207   36.0156 C   0  0  0  0  0  0
  -42.5708   69.5686   36.1608 C   0  0  0  0  0  0
  -43.7513   61.0139   35.4487 C   0  0  0  0  0  0
  -42.7282   59.6983   33.6861 C   0  0  0  0  0  0
  -43.8489   60.2642   34.2831 C   0  0  0  0  0  0
  -40.9951   63.6094   31.8842 H   0  0  0  0  0  0
  -39.8517   63.9007   30.6433 H   0  0  0  0  0  0
  -39.9874   69.5747   31.1621 H   0  0  0  0  0  0
  -39.1002   69.6862   32.6338 H   0  0  0  0  0  0
  -41.5789   64.2314   34.2157 H   0  0  0  0  0  0
  -40.8497   69.1664   34.2479 H   0  0  0  0  0  0
  -38.7881   69.9740   29.2871 H   0  0  0  0  0  0
  -40.3769   62.5211   33.9165 H   0  0  0  0  0  0
  -42.5538   65.6394   35.9675 H   0  0  0  0  0  0
  -38.4999   67.0704   29.4784 H   0  0  0  0  0  0
  -37.7506   65.6700   30.2042 H   0  0  0  0  0  0
  -39.3006   65.5615   29.3909 H   0  0  0  0  0  0
  -36.0654   70.0994   29.4622 H   0  0  0  0  0  0
  -36.5456   68.7572   28.6486 H   0  0  0  0  0  0
  -39.9363   60.4978   36.9803 H   0  0  0  0  0  0
  -40.0149   62.0795   36.2424 H   0  0  0  0  0  0
  -35.8279   61.9027   32.1133 H   0  0  0  0  0  0
  -37.3586   63.5261   31.0622 H   0  0  0  0  0  0
  -36.5882   60.5391   34.0335 H   0  0  0  0  0  0
  -40.6044   59.4689   33.7880 H   0  0  0  0  0  0
  -42.4180   61.8195   36.9115 H   0  0  0  0  0  0
  -43.2510   69.9035   36.9441 H   0  0  0  0  0  0
  -42.9824   69.8997   35.2062 H   0  0  0  0  0  0
  -41.6157   70.0619   36.3292 H   0  0  0  0  0  0
  -44.6358   61.4372   35.9012 H   0  0  0  0  0  0
  -42.8287   59.1174   32.7808 H   0  0  0  0  0  0
  -44.8148   60.1119   33.8428 H   0  0  0  0  0  0
  1  3  1  0  0  0
  1  5  1  0  0  0
  1  6  1  0  0  0
  2  3  2  0  0  0
  2  7  1  0  0  0
  2  4  1  0  0  0
  3 18  1  0  0  0
  4  5  1  0  0  0
  4 10  2  0  0  0
  5  8  2  0  0  0
  6 11  1  0  0  0
  6 33  1  0  0  0
  6 34  1  0  0  0
  7  9  1  0  0  0
  7 35  1  0  0  0
  7 36  1  0  0  0
  8 17  1  0  0  0
  8 37  1  0  0  0
  9 12  2  0  0  0
  9 13  1  0  0  0
 10 15  1  0  0  0
 10 38  1  0  0  0
 11 16  2  0  0  0
 11 25  1  0  0  0
 13 20  1  0  0  0
 13 39  1  0  0  0
 14 19  1  0  0  0
 14 21  1  0  0  0
 15 17  2  0  0  0
 15 23  1  0  0  0
 16 19  1  0  0  0
 16 40  1  0  0  0
 17 41  1  0  0  0
 18 42  1  0  0  0
 18 43  1  0  0  0
 18 44  1  0  0  0
 19 26  2  0  0  0
 20 45  1  0  0  0
 20 46  1  0  0  0
 21 22  1  0  0  0
 21 47  1  0  0  0
 21 48  1  0  0  0
 22 27  1  0  0  0
 22 28  2  0  0  0
 23 29  1  0  0  0
 24 25  2  0  0  0
 24 26  1  0  0  0
 24 49  1  0  0  0
 25 50  1  0  0  0
 26 51  1  0  0  0
 27 31  2  0  0  0
 27 52  1  0  0  0
 28 30  1  0  0  0
 28 53  1  0  0  0
 29 54  1  0  0  0
 29 55  1  0  0  0
 29 56  1  0  0  0
 30 32  2  0  0  0
 30 57  1  0  0  0
 31 32  1  0  0  0
 31 58  1  0  0  0
 32 59  1  0  0  0
M  END
> <s_m_entry_id>
68116

> <s_m_entry_name>
dock_pv.52

> <s_m_Source_Path>
/home/csk/Desktop/cluster/DUD-E-result/pa2ga

> <s_m_Source_File>
dock_pv.maegz

> <i_m_Source_File_Index>
52

> <chembl_id>
CHEMBL422127

> <chembl_pref_name>
None

> <i_lp_mmshare_version>
53161

> <i_f3d_flags>
0

> <r_lp_tautomer_probability>
1

> <s_lp_Force_Field>
OPLS_2005

> <r_lp_Energy>
25.208674

> <b_lp_Chiralities_Consistent>
1

> <s_lp_Variant>
CHEMBL3474_lig177-1

> <s_i_glide_gridfile>
glide-grid_1kvo

> <i_i_glide_lignum>
239

> <i_i_glide_rotatable_bonds>
9

> <r_i_docking_score>
-8.39192581042637

> <r_i_glide_ligand_efficiency>
-0.262247681575824

> <r_i_glide_ligand_efficiency_sa>
-0.832584490257529

> <r_i_glide_ligand_efficiency_ln>
-1.87918094421239

> <r_i_glide_gscore>
-8.39192581042637

> <r_i_glide_lipo>
-4.60760803884871

> <r_i_glide_hbond>
-0.32

> <r_i_glide_metal>
0

> <r_i_glide_rewards>
-0.678060581723526

> <r_i_glide_evdw>
-51.2238159179688

> <r_i_glide_ecoul>
-6.20271158218384

> <r_i_glide_erotb>
0.754075909876183

> <r_i_glide_esite>
-0.0487355665042972

> <r_i_glide_emodel>
-85.548187860241

> <r_i_glide_energy>
-57.4265275001526

> <r_i_glide_einternal>
10.8707866668701

> <i_i_glide_confnum>
8

> <i_i_glide_posenum>
162

> <r_i_glide_eff_state_penalty>
0

> <s_user_duplicate_titles>
CHEMBL3474_lig177,246375

> <s_m_subgroup_title>
dock_pv

> <s_m_subgroupid>
dock_pv

> <b_m_subgroup_collapsed>
1

$$$$
CHEMBL3474_lig345
                    3D
 Schrodinger Suite 2021-1.
 42 44  0  0  1  0            999 V2000
  -43.9219   61.1812   36.9161 F   0  0  0  0  0  0
  -43.0042   61.7247   36.1179 C   0  0  0  0  0  0
  -42.4067   62.7068   36.7966 F   0  0  0  0  0  0
  -40.9841   60.9671   34.9785 C   0  0  0  0  0  0
  -40.1369   59.8873   34.7692 C   0  0  0  0  0  0
  -38.9873   59.9865   34.0003 C   0  0  0  0  0  0
  -40.6897   62.2201   34.4110 C   0  0  0  0  0  0
  -39.4920   62.3548   33.6793 C   0  0  0  0  0  0
  -38.6475   61.2261   33.4585 C   0  0  0  0  0  0
  -37.5529   61.6632   32.6789 C   0  0  0  0  0  0
  -37.7057   63.0170   32.4423 C   0  0  0  0  0  0
  -38.8926   63.4593   33.0520 N   0  0  0  0  0  0
  -39.3976   64.7995   33.0795 C   0  0  0  0  0  0
  -39.2628   65.5440   31.9441 N   0  0  0  0  0  0
  -39.6738   66.8406   31.9475 C   0  0  0  0  0  0
  -40.2776   67.4254   33.0649 C   0  0  0  0  0  0
  -40.4521   66.6518   34.2123 C   0  0  0  0  0  0
  -40.0152   65.3264   34.2258 C   0  0  0  0  0  0
  -36.6885   63.8474   31.8406 C   0  0  0  0  0  0
  -36.0150   63.2982   30.8376 N   0  0  0  0  0  0
  -36.4153   64.9688   32.2441 O   0  0  0  0  0  0
  -39.5236   67.5828   30.6195 C   0  0  0  0  0  0
  -39.0761   69.0725   30.6755 C   0  0  0  0  0  0
  -37.5888   69.3220   30.9600 C   0  0  0  0  0  0
  -37.2150   70.5784   30.5924 O   0  0  0  0  0  0
  -36.8154   68.4980   31.4430 O   0  0  0  0  0  0
  -42.0879   60.6943   35.7635 O   0  0  0  0  0  0
  -43.6324   62.2033   35.0441 F   0  0  0  0  0  0
  -40.3806   58.9422   35.2239 H   0  0  0  0  0  0
  -38.3562   59.1245   33.8429 H   0  0  0  0  0  0
  -41.3597   63.0532   34.5421 H   0  0  0  0  0  0
  -36.7127   61.0640   32.3609 H   0  0  0  0  0  0
  -40.6239   68.4468   33.0501 H   0  0  0  0  0  0
  -40.9151   67.0782   35.0902 H   0  0  0  0  0  0
  -40.1123   64.7494   35.1332 H   0  0  0  0  0  0
  -35.3398   63.8792   30.3552 H   0  0  0  0  0  0
  -36.3644   62.4629   30.3946 H   0  0  0  0  0  0
  -40.5044   67.5288   30.1478 H   0  0  0  0  0  0
  -38.8535   67.0301   29.9551 H   0  0  0  0  0  0
  -39.6517   69.6345   31.4081 H   0  0  0  0  0  0
  -39.2985   69.5245   29.7079 H   0  0  0  0  0  0
  -36.2423   70.6726   30.6422 H   0  0  0  0  0  0
  1  2  1  0  0  0
  2  3  1  0  0  0
  2 27  1  0  0  0
  2 28  1  0  0  0
  4  5  2  0  0  0
  4  7  1  0  0  0
  4 27  1  0  0  0
  5  6  1  0  0  0
  5 29  1  0  0  0
  6  9  2  0  0  0
  6 30  1  0  0  0
  7  8  2  0  0  0
  7 31  1  0  0  0
  8  9  1  0  0  0
  8 12  1  0  0  0
  9 10  1  0  0  0
 10 11  2  0  0  0
 10 32  1  0  0  0
 11 12  1  0  0  0
 11 19  1  0  0  0
 12 13  1  0  0  0
 13 14  2  0  0  0
 13 18  1  0  0  0
 14 15  1  0  0  0
 15 16  2  0  0  0
 15 22  1  0  0  0
 16 17  1  0  0  0
 16 33  1  0  0  0
 17 18  2  0  0  0
 17 34  1  0  0  0
 18 35  1  0  0  0
 19 20  1  0  0  0
 19 21  2  0  0  0
 20 36  1  0  0  0
 20 37  1  0  0  0
 22 23  1  0  0  0
 22 38  1  0  0  0
 22 39  1  0  0  0
 23 24  1  0  0  0
 23 40  1  0  0  0
 23 41  1  0  0  0
 24 25  1  0  0  0
 24 26  2  0  0  0
 25 42  1  0  0  0
M  END
> <s_m_entry_id>
68117

> <s_m_entry_name>
dock_pv.53

> <s_m_Source_Path>
/home/csk/Desktop/cluster/DUD-E-result/pa2ga

> <s_m_Source_File>
dock_pv.maegz

> <i_m_Source_File_Index>
53

> <chembl_id>
CHEMBL4217510

> <chembl_pref_name>
None

> <i_lp_mmshare_version>
53161

> <i_f3d_flags>
0

> <r_lp_tautomer_probability>
1

> <s_lp_Force_Field>
OPLS_2005

> <r_lp_Energy>
8.194662

> <b_lp_Chiralities_Consistent>
1

> <s_lp_Variant>
CHEMBL3474_lig345-1

> <s_i_glide_gridfile>
glide-grid_1kvo

> <i_i_glide_lignum>
434

> <i_i_glide_rotatable_bonds>
8

> <r_i_docking_score>
-8.37429881011063

> <r_i_glide_ligand_efficiency>
-0.299082100361094

> <r_i_glide_ligand_efficiency_sa>
-0.90818940663315

> <r_i_glide_ligand_efficiency_ln>
-1.93303404547075

> <r_i_glide_gscore>
-8.37429881011063

> <r_i_glide_lipo>
-2.89444374864367

> <r_i_glide_hbond>
-0.205424312311216

> <r_i_glide_metal>
0

> <r_i_glide_rewards>
-1.80652439443252

> <r_i_glide_evdw>
-38.6102752685547

> <r_i_glide_ecoul>
-13.5216646194458

> <r_i_glide_erotb>
0.631346745180662

> <r_i_glide_esite>
-0.140489643559277

> <r_i_glide_emodel>
-80.7132364704877

> <r_i_glide_energy>
-52.1319398880005

> <r_i_glide_einternal>
7.29505205154419

> <i_i_glide_confnum>
78

> <i_i_glide_posenum>
396

> <r_i_glide_eff_state_penalty>
0

> <s_user_duplicate_titles>
CHEMBL3474_lig345

> <s_m_subgroup_title>
dock_pv

> <s_m_subgroupid>
dock_pv

> <b_m_subgroup_collapsed>
1

$$$$
CHEMBL3474_lig338
                    3D
 Schrodinger Suite 2021-1.
 46 49  0  0  1  0            999 V2000
  -40.4218   66.8512   33.9841 C   0  0  0  0  0  0
  -40.0151   65.5203   34.0298 C   0  0  0  0  0  0
  -39.4560   64.9079   32.9003 C   0  0  0  0  0  0
  -39.3570   65.6381   31.7086 C   0  0  0  0  0  0
  -39.7552   66.9782   31.6595 C   0  0  0  0  0  0
  -40.2883   67.5790   32.8049 C   0  0  0  0  0  0
  -39.6509   67.7465   30.3469 C   0  0  0  0  0  0
  -39.1177   69.1986   30.4311 C   0  0  0  0  0  0
  -37.6603   69.3619   30.8788 C   0  0  0  0  0  0
  -37.2150   70.6051   30.5557 O   0  0  0  0  0  0
  -36.9837   68.4999   31.4417 O   0  0  0  0  0  0
  -39.0450   63.5471   32.9564 N   0  0  0  0  0  0
  -37.8153   61.6518   32.8258 C   0  0  0  0  0  0
  -37.8432   63.0016   32.4927 C   0  0  0  0  0  0
  -36.7414   63.7460   31.9252 C   0  0  0  0  0  0
  -36.0150   63.0757   31.0429 N   0  0  0  0  0  0
  -36.4607   64.8980   32.2430 O   0  0  0  0  0  0
  -39.0485   61.3216   33.4487 C   0  0  0  0  0  0
  -39.8137   62.5210   33.5087 C   0  0  0  0  0  0
  -41.1103   62.5303   34.0474 C   0  0  0  0  0  0
  -41.6227   61.3319   34.5470 C   0  0  0  0  0  0
  -40.8662   60.1594   34.5096 C   0  0  0  0  0  0
  -39.5848   60.1361   33.9668 C   0  0  0  0  0  0
  -43.0324   61.3336   35.1265 C   0  0  0  0  0  0
  -44.0160   60.2213   34.8581 C   0  0  0  0  0  0
  -43.4625   60.4250   36.2545 C   0  0  0  0  0  0
  -40.8393   67.3178   34.8643 H   0  0  0  0  0  0
  -40.1138   64.9772   34.9588 H   0  0  0  0  0  0
  -38.9628   65.1665   30.8184 H   0  0  0  0  0  0
  -40.6156   68.6067   32.7885 H   0  0  0  0  0  0
  -40.6572   67.7690   29.9298 H   0  0  0  0  0  0
  -39.0487   67.1850   29.6286 H   0  0  0  0  0  0
  -39.7291   69.8015   31.0998 H   0  0  0  0  0  0
  -39.2161   69.6513   29.4430 H   0  0  0  0  0  0
  -36.2454   70.6659   30.6429 H   0  0  0  0  0  0
  -36.9911   60.9776   32.6425 H   0  0  0  0  0  0
  -35.2718   63.5692   30.5679 H   0  0  0  0  0  0
  -36.3347   62.1848   30.6955 H   0  0  0  0  0  0
  -41.7063   63.4300   34.0712 H   0  0  0  0  0  0
  -41.2821   59.2450   34.9004 H   0  0  0  0  0  0
  -39.0198   59.2166   33.9379 H   0  0  0  0  0  0
  -43.4730   62.3316   35.1599 H   0  0  0  0  0  0
  -45.0491   60.4982   34.6440 H   0  0  0  0  0  0
  -43.6872   59.3653   34.2672 H   0  0  0  0  0  0
  -42.7490   59.7045   36.6551 H   0  0  0  0  0  0
  -44.1107   60.8352   37.0296 H   0  0  0  0  0  0
  1  2  2  0  0  0
  1  6  1  0  0  0
  1 27  1  0  0  0
  2  3  1  0  0  0
  2 28  1  0  0  0
  3  4  2  0  0  0
  3 12  1  0  0  0
  4  5  1  0  0  0
  4 29  1  0  0  0
  5  6  2  0  0  0
  5  7  1  0  0  0
  6 30  1  0  0  0
  7  8  1  0  0  0
  7 31  1  0  0  0
  7 32  1  0  0  0
  8  9  1  0  0  0
  8 33  1  0  0  0
  8 34  1  0  0  0
  9 10  1  0  0  0
  9 11  2  0  0  0
 10 35  1  0  0  0
 12 19  1  0  0  0
 12 14  1  0  0  0
 13 18  1  0  0  0
 13 14  2  0  0  0
 13 36  1  0  0  0
 14 15  1  0  0  0
 15 16  1  0  0  0
 15 17  2  0  0  0
 16 37  1  0  0  0
 16 38  1  0  0  0
 18 19  2  0  0  0
 18 23  1  0  0  0
 19 20  1  0  0  0
 20 21  2  0  0  0
 20 39  1  0  0  0
 21 22  1  0  0  0
 21 24  1  0  0  0
 22 23  2  0  0  0
 22 40  1  0  0  0
 23 41  1  0  0  0
 24 25  1  0  0  0
 24 26  1  0  0  0
 24 42  1  0  0  0
 25 26  1  0  0  0
 25 43  1  0  0  0
 25 44  1  0  0  0
 26 45  1  0  0  0
 26 46  1  0  0  0
M  END
> <s_m_entry_id>
68118

> <s_m_entry_name>
dock_pv.54

> <s_m_Source_Path>
/home/csk/Desktop/cluster/DUD-E-result/pa2ga

> <s_m_Source_File>
dock_pv.maegz

> <i_m_Source_File_Index>
54

> <chembl_id>
CHEMBL4173359

> <chembl_pref_name>
None

> <i_lp_mmshare_version>
53161

> <i_f3d_flags>
0

> <r_lp_tautomer_probability>
1

> <s_lp_Force_Field>
OPLS_2005

> <r_lp_Energy>
21.230376

> <b_lp_Chiralities_Consistent>
1

> <s_lp_Variant>
CHEMBL3474_lig338-1

> <s_i_glide_gridfile>
glide-grid_1kvo

> <i_i_glide_lignum>
427

> <i_i_glide_rotatable_bonds>
7

> <r_i_docking_score>
-8.35007562794109

> <r_i_glide_ligand_efficiency>
-0.321156754920811

> <r_i_glide_ligand_efficiency_sa>
-0.951425622762093

> <r_i_glide_ligand_efficiency_ln>
-1.96098786238908

> <r_i_glide_gscore>
-8.35007562794109

> <r_i_glide_lipo>
-3.44801352411017

> <r_i_glide_hbond>
-0.200479590314254

> <r_i_glide_metal>
0

> <r_i_glide_rewards>
-1.27635970893944

> <r_i_glide_evdw>
-42.5680122375488

> <r_i_glide_ecoul>
-13.0736713409424

> <r_i_glide_erotb>
0.78415730469543

> <r_i_glide_esite>
-0.119928796253856

> <r_i_glide_emodel>
-86.7840890206346

> <r_i_glide_energy>
-55.6416835784912

> <r_i_glide_einternal>
5.81015014648438

> <i_i_glide_confnum>
201

> <i_i_glide_posenum>
312

> <r_i_glide_eff_state_penalty>
0

> <s_user_duplicate_titles>
CHEMBL3474_lig338

> <s_m_subgroup_title>
dock_pv

> <s_m_subgroupid>
dock_pv

> <b_m_subgroup_collapsed>
1

$$$$
CHEMBL3474_lig89
                    3D
 Schrodinger Suite 2021-1.
 50 52  0  0  1  0            999 V2000
  -40.0983   62.7791   34.9129 N   0  0  0  0  0  0
  -38.8333   63.0306   33.0530 C   0  0  0  0  0  0
  -39.1100   62.1992   34.1298 C   0  0  0  0  0  0
  -39.6809   64.1886   33.1880 C   0  0  0  0  0  0
  -40.4501   64.0071   34.3735 C   0  0  0  0  0  0
  -37.8607   62.7471   31.9154 C   0  0  0  0  0  0
  -40.7436   62.1922   36.0976 C   0  0  0  0  0  0
  -39.8799   65.3595   32.4234 C   0  0  0  0  0  0
  -36.6977   63.7346   31.7799 C   0  0  0  0  0  0
  -38.4092   67.7441   30.7622 C   0  0  0  0  0  0
  -39.1358   65.4441   31.2607 O   0  0  0  0  0  0
  -36.4170   64.5590   32.6430 O   0  0  0  0  0  0
  -37.6151   67.6973   31.7011 O   0  0  0  0  0  0
  -39.2868   66.5441   30.3581 C   0  0  0  0  0  0
  -36.0229   63.6967   30.6432 N   0  0  0  0  0  0
  -38.5231   68.8483   30.0249 N   0  0  0  0  0  0
  -41.3794   64.9619   34.8105 C   0  0  0  0  0  0
  -38.4849   60.8494   34.4468 C   0  0  0  0  0  0
  -42.1908   61.7412   35.9104 C   0  0  0  0  0  0
  -41.5227   66.1157   34.0436 C   0  0  0  0  0  0
  -40.7948   66.3169   32.8765 C   0  0  0  0  0  0
  -42.6599   61.2769   34.6752 C   0  0  0  0  0  0
  -43.0499   61.7687   37.0129 C   0  0  0  0  0  0
  -39.2151   59.6933   33.7539 C   0  0  0  0  0  0
  -43.9801   60.8566   34.5458 C   0  0  0  0  0  0
  -44.3699   61.3487   36.8831 C   0  0  0  0  0  0
  -44.8286   60.8974   35.6489 C   0  0  0  0  0  0
  -37.4305   61.7490   31.9897 H   0  0  0  0  0  0
  -38.4150   62.7556   30.9791 H   0  0  0  0  0  0
  -40.7066   62.9524   36.8800 H   0  0  0  0  0  0
  -40.1741   61.3441   36.4707 H   0  0  0  0  0  0
  -38.9467   66.1871   29.3853 H   0  0  0  0  0  0
  -40.3316   66.8325   30.2370 H   0  0  0  0  0  0
  -35.3290   64.4142   30.4505 H   0  0  0  0  0  0
  -36.4186   63.1870   29.8652 H   0  0  0  0  0  0
  -37.9476   69.6481   30.2423 H   0  0  0  0  0  0
  -39.1220   68.8731   29.2144 H   0  0  0  0  0  0
  -41.9667   64.8179   35.7060 H   0  0  0  0  0  0
  -37.4451   60.8443   34.1179 H   0  0  0  0  0  0
  -38.4185   60.6556   35.5135 H   0  0  0  0  0  0
  -42.2264   66.8724   34.3604 H   0  0  0  0  0  0
  -40.9549   67.2312   32.3277 H   0  0  0  0  0  0
  -42.0104   61.2420   33.8134 H   0  0  0  0  0  0
  -42.6971   62.1135   37.9746 H   0  0  0  0  0  0
  -38.6666   58.7616   33.8828 H   0  0  0  0  0  0
  -40.2176   59.5517   34.1583 H   0  0  0  0  0  0
  -39.3104   59.8663   32.6816 H   0  0  0  0  0  0
  -44.3488   60.4994   33.5948 H   0  0  0  0  0  0
  -45.0343   61.3727   37.7353 H   0  0  0  0  0  0
  -45.8531   60.5699   35.5437 H   0  0  0  0  0  0
  1  3  1  0  0  0
  1  5  1  0  0  0
  1  7  1  0  0  0
  2  3  2  0  0  0
  2  6  1  0  0  0
  2  4  1  0  0  0
  3 18  1  0  0  0
  4  5  1  0  0  0
  4  8  2  0  0  0
  5 17  2  0  0  0
  6  9  1  0  0  0
  6 28  1  0  0  0
  6 29  1  0  0  0
  7 19  1  0  0  0
  7 30  1  0  0  0
  7 31  1  0  0  0
  8 11  1  0  0  0
  8 21  1  0  0  0
  9 12  2  0  0  0
  9 15  1  0  0  0
 10 14  1  0  0  0
 10 13  2  0  0  0
 10 16  1  0  0  0
 11 14  1  0  0  0
 14 32  1  0  0  0
 14 33  1  0  0  0
 15 34  1  0  0  0
 15 35  1  0  0  0
 16 36  1  0  0  0
 16 37  1  0  0  0
 17 20  1  0  0  0
 17 38  1  0  0  0
 18 24  1  0  0  0
 18 39  1  0  0  0
 18 40  1  0  0  0
 19 22  1  0  0  0
 19 23  2  0  0  0
 20 21  2  0  0  0
 20 41  1  0  0  0
 21 42  1  0  0  0
 22 25  2  0  0  0
 22 43  1  0  0  0
 23 26  1  0  0  0
 23 44  1  0  0  0
 24 45  1  0  0  0
 24 46  1  0  0  0
 24 47  1  0  0  0
 25 27  1  0  0  0
 25 48  1  0  0  0
 26 27  2  0  0  0
 26 49  1  0  0  0
 27 50  1  0  0  0
M  END
> <s_m_entry_id>
68119

> <s_m_entry_name>
dock_pv.55

> <s_m_Source_Path>
/home/csk/Desktop/cluster/DUD-E-result/pa2ga

> <s_m_Source_File>
dock_pv.maegz

> <i_m_Source_File_Index>
55

> <chembl_id>
CHEMBL423947

> <chembl_pref_name>
None

> <i_lp_mmshare_version>
53161

> <i_f3d_flags>
0

> <r_lp_tautomer_probability>
1

> <s_lp_Force_Field>
OPLS_2005

> <r_lp_Energy>
11.456588

> <b_lp_Chiralities_Consistent>
1

> <s_lp_Variant>
CHEMBL3474_lig89-1

> <s_i_glide_gridfile>
glide-grid_1kvo

> <i_i_glide_lignum>
129

> <i_i_glide_rotatable_bonds>
8

> <r_i_docking_score>
-8.33676590680873

> <r_i_glide_ligand_efficiency>
-0.308769107659583

> <r_i_glide_ligand_efficiency_sa>
-0.926307321961095

> <r_i_glide_ligand_efficiency_ln>
-1.9406616607774

> <r_i_glide_gscore>
-8.33676590680873

> <r_i_glide_lipo>
-3.53841813425828

> <r_i_glide_hbond>
-0.63021975267323

> <r_i_glide_metal>
0

> <r_i_glide_rewards>
-1.14737565562487

> <r_i_glide_evdw>
-41.0655059814453

> <r_i_glide_ecoul>
-10.3857011795044

> <r_i_glide_erotb>
0.720255876387455

> <r_i_glide_esite>
-0.129877764641875

> <r_i_glide_emodel>
-80.5116398940139

> <r_i_glide_energy>
-51.4512071609497

> <r_i_glide_einternal>
6.28163576126099

> <i_i_glide_confnum>
35

> <i_i_glide_posenum>
245

> <r_i_glide_eff_state_penalty>
0

> <s_user_duplicate_titles>
CHEMBL3474_lig89,247747

> <s_m_subgroup_title>
dock_pv

> <s_m_subgroupid>
dock_pv

> <b_m_subgroup_collapsed>
1

$$$$
CHEMBL3474_lig50
                    3D
 Schrodinger Suite 2021-1.
 44 47  0  0  1  0            999 V2000
  -40.2338   62.9752   34.9223 N   0  0  0  0  0  0
  -39.3231   62.2376   34.1779 C   0  0  0  0  0  0
  -38.8846   63.0037   33.1014 C   0  0  0  0  0  0
  -39.6171   64.2386   33.1568 C   0  0  0  0  0  0
  -40.4423   64.2022   34.3151 C   0  0  0  0  0  0
  -38.9034   60.8430   34.6176 C   0  0  0  0  0  0
  -39.8801   59.6897   34.5930 C   0  0  0  0  0  0
  -38.7043   59.7054   33.6445 C   0  0  0  0  0  0
  -37.8473   62.6327   32.0467 C   0  0  0  0  0  0
  -40.9226   62.5283   36.1416 C   0  0  0  0  0  0
  -41.2615   65.2828   34.6738 C   0  0  0  0  0  0
  -36.7240   63.6597   31.8427 C   0  0  0  0  0  0
  -39.6364   65.3861   32.3457 C   0  0  0  0  0  0
  -36.4935   64.5622   32.6430 O   0  0  0  0  0  0
  -40.4262   66.4677   32.7165 C   0  0  0  0  0  0
  -36.0150   63.5498   30.7301 N   0  0  0  0  0  0
  -41.2181   66.4141   33.8583 C   0  0  0  0  0  0
  -42.3421   61.9950   35.9682 C   0  0  0  0  0  0
  -40.4147   67.5973   31.9459 O   0  0  0  0  0  0
  -43.1718   61.9334   37.0911 C   0  0  0  0  0  0
  -42.8040   61.5133   34.7386 C   0  0  0  0  0  0
  -44.0672   60.9434   34.6432 C   0  0  0  0  0  0
  -44.4495   61.3917   36.9900 C   0  0  0  0  0  0
  -44.8906   60.8983   35.7657 C   0  0  0  0  0  0
  -38.1959   60.8591   35.4431 H   0  0  0  0  0  0
  -39.8860   59.0100   35.4425 H   0  0  0  0  0  0
  -40.8685   59.7979   34.1546 H   0  0  0  0  0  0
  -38.8898   59.8662   32.5825 H   0  0  0  0  0  0
  -37.8945   59.0037   33.8294 H   0  0  0  0  0  0
  -37.3669   61.6823   32.2760 H   0  0  0  0  0  0
  -38.3484   62.4982   31.0876 H   0  0  0  0  0  0
  -40.3400   61.7505   36.6314 H   0  0  0  0  0  0
  -40.9364   63.3723   36.8330 H   0  0  0  0  0  0
  -41.8907   65.2572   35.5521 H   0  0  0  0  0  0
  -39.0230   65.4327   31.4588 H   0  0  0  0  0  0
  -35.3409   64.2744   30.4993 H   0  0  0  0  0  0
  -36.3158   62.9118   30.0075 H   0  0  0  0  0  0
  -41.8206   67.2709   34.1216 H   0  0  0  0  0  0
  -39.8646   67.4959   31.1666 H   0  0  0  0  0  0
  -42.8243   62.2942   38.0487 H   0  0  0  0  0  0
  -42.1874   61.5613   33.8538 H   0  0  0  0  0  0
  -44.4153   60.5550   33.6970 H   0  0  0  0  0  0
  -45.0903   61.3452   37.8585 H   0  0  0  0  0  0
  -45.8802   60.4727   35.6836 H   0  0  0  0  0  0
  1  2  1  0  0  0
  1  5  1  0  0  0
  1 10  1  0  0  0
  2  3  2  0  0  0
  2  6  1  0  0  0
  3  9  1  0  0  0
  3  4  1  0  0  0
  4  5  1  0  0  0
  4 13  2  0  0  0
  5 11  2  0  0  0
  6  7  1  0  0  0
  6  8  1  0  0  0
  6 25  1  0  0  0
  7  8  1  0  0  0
  7 26  1  0  0  0
  7 27  1  0  0  0
  8 28  1  0  0  0
  8 29  1  0  0  0
  9 12  1  0  0  0
  9 30  1  0  0  0
  9 31  1  0  0  0
 10 18  1  0  0  0
 10 32  1  0  0  0
 10 33  1  0  0  0
 11 17  1  0  0  0
 11 34  1  0  0  0
 12 14  2  0  0  0
 12 16  1  0  0  0
 13 15  1  0  0  0
 13 35  1  0  0  0
 15 17  2  0  0  0
 15 19  1  0  0  0
 16 36  1  0  0  0
 16 37  1  0  0  0
 17 38  1  0  0  0
 18 20  1  0  0  0
 18 21  2  0  0  0
 19 39  1  0  0  0
 20 23  2  0  0  0
 20 40  1  0  0  0
 21 22  1  0  0  0
 21 41  1  0  0  0
 22 24  2  0  0  0
 22 42  1  0  0  0
 23 24  1  0  0  0
 23 43  1  0  0  0
 24 44  1  0  0  0
M  END
> <s_m_entry_id>
68120

> <s_m_entry_name>
dock_pv.56

> <s_m_Source_Path>
/home/csk/Desktop/cluster/DUD-E-result/pa2ga

> <s_m_Source_File>
dock_pv.maegz

> <i_m_Source_File_Index>
56

> <chembl_id>
CHEMBL146267

> <chembl_pref_name>
None

> <i_lp_mmshare_version>
53161

> <i_f3d_flags>
0

> <r_lp_tautomer_probability>
1

> <s_lp_Force_Field>
OPLS_2005

> <r_lp_Energy>
13.526872

> <b_lp_Chiralities_Consistent>
1

> <s_lp_Variant>
CHEMBL3474_lig50-1

> <s_i_glide_gridfile>
glide-grid_1kvo

> <i_i_glide_lignum>
90

> <i_i_glide_rotatable_bonds>
6

> <r_i_docking_score>
-8.33300501435757

> <r_i_glide_ligand_efficiency>
-0.347208542264899

> <r_i_glide_ligand_efficiency_sa>
-1.00152274071626

> <r_i_glide_ligand_efficiency_ln>
-1.99447047661988

> <r_i_glide_gscore>
-8.33300501435757

> <r_i_glide_lipo>
-3.80699892767083

> <r_i_glide_hbond>
-0.500543633276183

> <r_i_glide_metal>
0

> <r_i_glide_rewards>
-1.55673299599997

> <r_i_glide_evdw>
-34.7125816345215

> <r_i_glide_ecoul>
-9.23754215240479

> <r_i_glide_erotb>
0.727623454062136

> <r_i_glide_esite>
-0.0750925068859205

> <r_i_glide_emodel>
-68.2676844580431

> <r_i_glide_energy>
-43.9501237869263

> <r_i_glide_einternal>
0.97015917301178

> <i_i_glide_confnum>
7

> <i_i_glide_posenum>
214

> <r_i_glide_eff_state_penalty>
0

> <s_user_duplicate_titles>
CHEMBL3474_lig50,246748

> <s_m_subgroup_title>
dock_pv

> <s_m_subgroupid>
dock_pv

> <b_m_subgroup_collapsed>
1

$$$$
CHEMBL3474_lig337
                    3D
 Schrodinger Suite 2021-1.
 45 47  0  0  1  0            999 V2000
  -40.4123   66.8072   34.0424 C   0  0  0  0  0  0
  -40.0151   65.4718   34.0778 C   0  0  0  0  0  0
  -39.4524   64.8645   32.9462 C   0  0  0  0  0  0
  -39.3442   65.6018   31.7612 C   0  0  0  0  0  0
  -39.7285   66.9462   31.7235 C   0  0  0  0  0  0
  -40.2636   67.5443   32.8705 C   0  0  0  0  0  0
  -39.6082   67.7154   30.4148 C   0  0  0  0  0  0
  -39.0860   69.1670   30.5113 C   0  0  0  0  0  0
  -37.6156   69.3520   30.9113 C   0  0  0  0  0  0
  -37.2151   70.6086   30.5783 O   0  0  0  0  0  0
  -36.8869   68.4998   31.4348 O   0  0  0  0  0  0
  -39.0284   63.5071   32.9998 N   0  0  0  0  0  0
  -37.7640   61.6354   32.8825 C   0  0  0  0  0  0
  -37.8186   62.9794   32.5316 C   0  0  0  0  0  0
  -36.7352   63.7389   31.9403 C   0  0  0  0  0  0
  -36.0153   63.0799   31.0424 N   0  0  0  0  0  0
  -36.4637   64.8973   32.2434 O   0  0  0  0  0  0
  -38.9905   61.2900   33.5113 C   0  0  0  0  0  0
  -39.7829   62.4735   33.5595 C   0  0  0  0  0  0
  -41.0837   62.4605   34.0955 C   0  0  0  0  0  0
  -41.5687   61.2532   34.6032 C   0  0  0  0  0  0
  -40.7845   60.1033   34.5876 C   0  0  0  0  0  0
  -39.5019   60.0999   34.0473 C   0  0  0  0  0  0
  -42.9783   61.1858   35.1718 C   0  0  0  0  0  0
  -43.9800   60.5339   34.2055 C   0  0  0  0  0  0
  -40.8308   67.2702   34.9241 H   0  0  0  0  0  0
  -40.1284   64.9201   34.9997 H   0  0  0  0  0  0
  -38.9482   65.1351   30.8681 H   0  0  0  0  0  0
  -40.5795   68.5767   32.8639 H   0  0  0  0  0  0
  -40.6080   67.7351   29.9833 H   0  0  0  0  0  0
  -38.9924   67.1567   29.7045 H   0  0  0  0  0  0
  -39.6918   69.7551   31.2017 H   0  0  0  0  0  0
  -39.2168   69.6303   29.5314 H   0  0  0  0  0  0
  -36.2428   70.6942   30.6428 H   0  0  0  0  0  0
  -36.9267   60.9755   32.7048 H   0  0  0  0  0  0
  -35.2916   63.5840   30.5486 H   0  0  0  0  0  0
  -36.3243   62.1793   30.7124 H   0  0  0  0  0  0
  -41.7056   63.3418   34.1053 H   0  0  0  0  0  0
  -41.1890   59.1876   34.9885 H   0  0  0  0  0  0
  -38.9163   59.1927   34.0342 H   0  0  0  0  0  0
  -42.9512   60.6347   36.1113 H   0  0  0  0  0  0
  -43.3169   62.1872   35.4433 H   0  0  0  0  0  0
  -44.9781   60.5011   34.6443 H   0  0  0  0  0  0
  -44.0463   61.0895   33.2686 H   0  0  0  0  0  0
  -43.6938   59.5084   33.9658 H   0  0  0  0  0  0
  1  2  2  0  0  0
  1  6  1  0  0  0
  1 26  1  0  0  0
  2  3  1  0  0  0
  2 27  1  0  0  0
  3  4  2  0  0  0
  3 12  1  0  0  0
  4  5  1  0  0  0
  4 28  1  0  0  0
  5  6  2  0  0  0
  5  7  1  0  0  0
  6 29  1  0  0  0
  7  8  1  0  0  0
  7 30  1  0  0  0
  7 31  1  0  0  0
  8  9  1  0  0  0
  8 32  1  0  0  0
  8 33  1  0  0  0
  9 10  1  0  0  0
  9 11  2  0  0  0
 10 34  1  0  0  0
 12 19  1  0  0  0
 12 14  1  0  0  0
 13 18  1  0  0  0
 13 14  2  0  0  0
 13 35  1  0  0  0
 14 15  1  0  0  0
 15 16  1  0  0  0
 15 17  2  0  0  0
 16 36  1  0  0  0
 16 37  1  0  0  0
 18 19  2  0  0  0
 18 23  1  0  0  0
 19 20  1  0  0  0
 20 21  2  0  0  0
 20 38  1  0  0  0
 21 22  1  0  0  0
 21 24  1  0  0  0
 22 23  2  0  0  0
 22 39  1  0  0  0
 23 40  1  0  0  0
 24 25  1  0  0  0
 24 41  1  0  0  0
 24 42  1  0  0  0
 25 43  1  0  0  0
 25 44  1  0  0  0
 25 45  1  0  0  0
M  END
> <s_m_entry_id>
68121

> <s_m_entry_name>
dock_pv.57

> <s_m_Source_Path>
/home/csk/Desktop/cluster/DUD-E-result/pa2ga

> <s_m_Source_File>
dock_pv.maegz

> <i_m_Source_File_Index>
57

> <chembl_id>
CHEMBL4175643

> <chembl_pref_name>
None

> <i_lp_mmshare_version>
53161

> <i_f3d_flags>
0

> <r_lp_tautomer_probability>
1

> <s_lp_Force_Field>
OPLS_2005

> <r_lp_Energy>
14.766187

> <b_lp_Chiralities_Consistent>
1

> <s_lp_Variant>
CHEMBL3474_lig337-1

> <s_i_glide_gridfile>
glide-grid_1kvo

> <i_i_glide_lignum>
426

> <i_i_glide_rotatable_bonds>
7

> <r_i_docking_score>
-8.3287117653178

> <r_i_glide_ligand_efficiency>
-0.333148470612712

> <r_i_glide_ligand_efficiency_sa>
-0.974132036484854

> <r_i_glide_ligand_efficiency_ln>
-1.97415427973114

> <r_i_glide_gscore>
-8.3287117653178

> <r_i_glide_lipo>
-3.30789578867438

> <r_i_glide_hbond>
-0.200953191576399

> <r_i_glide_metal>
0

> <r_i_glide_rewards>
-1.35751856907046

> <r_i_glide_evdw>
-41.5048828125

> <r_i_glide_ecoul>
-12.8781795501709

> <r_i_glide_erotb>
0.667607200031254

> <r_i_glide_esite>
-0.122980342877177

> <r_i_glide_emodel>
-85.2462275229354

> <r_i_glide_energy>
-54.3830623626709

> <r_i_glide_einternal>
4.91957998275757

> <i_i_glide_confnum>
72

> <i_i_glide_posenum>
322

> <r_i_glide_eff_state_penalty>
0

> <s_user_duplicate_titles>
CHEMBL3474_lig337

> <s_m_subgroup_title>
dock_pv

> <s_m_subgroupid>
dock_pv

> <b_m_subgroup_collapsed>
1

$$$$
CHEMBL3474_lig72
                    3D
 Schrodinger Suite 2021-1.
 54 56  0  0  1  0            999 V2000
  -40.1301   62.8373   34.7173 N   0  0  0  0  0  0
  -39.1309   62.1221   34.0726 C   0  0  0  0  0  0
  -38.7284   62.8033   32.9421 C   0  0  0  0  0  0
  -39.5703   63.9499   32.8425 C   0  0  0  0  0  0
  -40.4136   63.9772   33.9831 C   0  0  0  0  0  0
  -37.6071   62.4365   31.9817 C   0  0  0  0  0  0
  -40.8036   62.4630   35.9681 C   0  0  0  0  0  0
  -41.3100   65.0296   34.2072 C   0  0  0  0  0  0
  -36.5235   63.5140   31.8350 C   0  0  0  0  0  0
  -39.6551   64.9798   31.9024 C   0  0  0  0  0  0
  -38.4302   60.6220   34.6429 S   0  0  0  0  0  0
  -37.7443   69.8831   31.4516 C   0  0  0  0  0  0
  -36.4940   64.5389   32.5119 O   0  0  0  0  0  0
  -37.0775   68.9083   31.8152 O   0  0  0  0  0  0
  -40.5055   66.0627   32.1368 C   0  0  0  0  0  0
  -35.6151   63.2981   30.9010 N   0  0  0  0  0  0
  -37.2151   71.0982   31.3752 N   0  0  0  0  0  0
  -41.3149   66.0660   33.2725 C   0  0  0  0  0  0
  -42.2361   61.9469   35.8453 C   0  0  0  0  0  0
  -40.5756   67.1535   31.2944 O   0  0  0  0  0  0
  -39.2290   69.7741   31.0838 C   0  0  0  0  0  0
  -39.8486   59.5197   34.4258 C   0  0  0  0  0  0
  -39.5363   67.3368   30.3269 C   0  0  0  0  0  0
  -43.0460   61.9468   36.9850 C   0  0  0  0  0  0
  -42.7298   61.4225   34.6443 C   0  0  0  0  0  0
  -39.5083   68.8115   29.9059 C   0  0  0  0  0  0
  -44.0151   60.8958   34.5906 C   0  0  0  0  0  0
  -44.3354   61.4259   36.9288 C   0  0  0  0  0  0
  -44.8132   60.8988   35.7319 C   0  0  0  0  0  0
  -37.1091   61.5152   32.2837 H   0  0  0  0  0  0
  -38.0158   62.2378   30.9925 H   0  0  0  0  0  0
  -40.2235   61.6959   36.4776 H   0  0  0  0  0  0
  -40.7847   63.3405   36.6168 H   0  0  0  0  0  0
  -41.9569   65.0567   35.0725 H   0  0  0  0  0  0
  -39.0259   64.9352   31.0268 H   0  0  0  0  0  0
  -34.9604   64.0351   30.6677 H   0  0  0  0  0  0
  -35.6966   62.4949   30.2966 H   0  0  0  0  0  0
  -36.2087   71.1856   31.4457 H   0  0  0  0  0  0
  -37.7654   71.8872   31.0700 H   0  0  0  0  0  0
  -41.9771   66.8980   33.4431 H   0  0  0  0  0  0
  -39.7953   69.4958   31.9735 H   0  0  0  0  0  0
  -39.5948   70.7631   30.8001 H   0  0  0  0  0  0
  -39.5347   58.4984   34.6263 H   0  0  0  0  0  0
  -40.6332   59.7452   35.1434 H   0  0  0  0  0  0
  -40.2520   59.5820   33.4146 H   0  0  0  0  0  0
  -39.6971   66.6864   29.4666 H   0  0  0  0  0  0
  -38.5561   67.0787   30.7315 H   0  0  0  0  0  0
  -42.6748   62.3410   37.9201 H   0  0  0  0  0  0
  -42.1219   61.4069   33.7512 H   0  0  0  0  0  0
  -40.4618   69.0672   29.4454 H   0  0  0  0  0  0
  -38.7690   68.9520   29.1146 H   0  0  0  0  0  0
  -44.3977   60.4856   33.6657 H   0  0  0  0  0  0
  -44.9611   61.4265   37.8097 H   0  0  0  0  0  0
  -45.8153   60.4971   35.6838 H   0  0  0  0  0  0
  1  2  1  0  0  0
  1  5  1  0  0  0
  1  7  1  0  0  0
  2  3  2  0  0  0
  2 11  1  0  0  0
  3  6  1  0  0  0
  3  4  1  0  0  0
  4  5  1  0  0  0
  4 10  2  0  0  0
  5  8  2  0  0  0
  6  9  1  0  0  0
  6 30  1  0  0  0
  6 31  1  0  0  0
  7 19  1  0  0  0
  7 32  1  0  0  0
  7 33  1  0  0  0
  8 18  1  0  0  0
  8 34  1  0  0  0
  9 13  2  0  0  0
  9 16  1  0  0  0
 10 15  1  0  0  0
 10 35  1  0  0  0
 11 22  1  0  0  0
 12 21  1  0  0  0
 12 14  2  0  0  0
 12 17  1  0  0  0
 15 18  2  0  0  0
 15 20  1  0  0  0
 16 36  1  0  0  0
 16 37  1  0  0  0
 17 38  1  0  0  0
 17 39  1  0  0  0
 18 40  1  0  0  0
 19 24  2  0  0  0
 19 25  1  0  0  0
 20 23  1  0  0  0
 21 26  1  0  0  0
 21 41  1  0  0  0
 21 42  1  0  0  0
 22 43  1  0  0  0
 22 44  1  0  0  0
 22 45  1  0  0  0
 23 26  1  0  0  0
 23 46  1  0  0  0
 23 47  1  0  0  0
 24 28  1  0  0  0
 24 48  1  0  0  0
 25 27  2  0  0  0
 25 49  1  0  0  0
 26 50  1  0  0  0
 26 51  1  0  0  0
 27 29  1  0  0  0
 27 52  1  0  0  0
 28 29  2  0  0  0
 28 53  1  0  0  0
 29 54  1  0  0  0
M  END
> <s_m_entry_id>
68122

> <s_m_entry_name>
dock_pv.58

> <s_m_Source_Path>
/home/csk/Desktop/cluster/DUD-E-result/pa2ga

> <s_m_Source_File>
dock_pv.maegz

> <i_m_Source_File_Index>
58

> <chembl_id>
CHEMBL150059

> <chembl_pref_name>
None

> <i_lp_mmshare_version>
53161

> <i_f3d_flags>
0

> <r_lp_tautomer_probability>
1

> <s_lp_Force_Field>
OPLS_2005

> <r_lp_Energy>
7.673279

> <b_lp_Chiralities_Consistent>
1

> <s_lp_Variant>
CHEMBL3474_lig72-1

> <s_i_glide_gridfile>
glide-grid_1kvo

> <i_i_glide_lignum>
112

> <i_i_glide_rotatable_bonds>
10

> <r_i_docking_score>
-8.31560256999594

> <r_i_glide_ligand_efficiency>
-0.286744916206757

> <r_i_glide_ligand_efficiency_sa>
-0.880971229753067

> <r_i_glide_ligand_efficiency_ln>
-1.90406212304187

> <r_i_glide_gscore>
-8.31560256999594

> <r_i_glide_lipo>
-3.74828425282319

> <r_i_glide_hbond>
-0.623265589499601

> <r_i_glide_metal>
0

> <r_i_glide_rewards>
-0.814668421360929

> <r_i_glide_evdw>
-42.8462562561035

> <r_i_glide_ecoul>
-11.0221080780029

> <r_i_glide_erotb>
0.814730521922789

> <r_i_glide_esite>
-0.148485803729392

> <r_i_glide_emodel>
-84.0773111738089

> <r_i_glide_energy>
-53.8683643341064

> <r_i_glide_einternal>
5.60250663757324

> <i_i_glide_confnum>
93

> <i_i_glide_posenum>
364

> <r_i_glide_eff_state_penalty>
0

> <s_user_duplicate_titles>
CHEMBL3474_lig72,247125

> <s_m_subgroup_title>
dock_pv

> <s_m_subgroupid>
dock_pv

> <b_m_subgroup_collapsed>
1

$$$$
CHEMBL3474_lig103
                    3D
 Schrodinger Suite 2021-1.
 49 51  0  0  1  0            999 V2000
  -38.6810   62.8926   33.2296 C   0  0  0  0  0  0
  -40.0699   62.4702   34.9727 N   0  0  0  0  0  0
  -39.0513   61.9463   34.1902 C   0  0  0  0  0  0
  -39.5330   64.0579   33.4221 C   0  0  0  0  0  0
  -40.3759   63.7497   34.5410 C   0  0  0  0  0  0
  -37.6048   62.6744   32.2439 C   0  0  0  0  0  0
  -36.6284   63.8653   31.8742 C   0  0  0  0  0  0
  -40.7630   61.8044   36.0873 C   0  0  0  0  0  0
  -39.7211   65.3175   32.7892 C   0  0  0  0  0  0
  -38.4162   67.1504   29.8580 C   0  0  0  0  0  0
  -37.3129   61.5468   31.8311 O   0  0  0  0  0  0
  -38.9848   65.5773   31.6511 O   0  0  0  0  0  0
  -36.4147   64.8093   32.6343 O   0  0  0  0  0  0
  -38.2624   68.2854   29.4203 O   0  0  0  0  0  0
  -36.0152   63.6980   30.7039 N   0  0  0  0  0  0
  -38.5897   66.9300   31.3669 C   0  0  0  0  0  0
  -38.4593   60.5686   34.4660 C   0  0  0  0  0  0
  -38.4017   66.0982   29.0434 N   0  0  0  0  0  0
  -41.3274   64.6496   35.0408 C   0  0  0  0  0  0
  -42.2337   61.4828   35.8395 C   0  0  0  0  0  0
  -41.4661   65.8676   34.3897 C   0  0  0  0  0  0
  -40.6975   66.1914   33.2838 C   0  0  0  0  0  0
  -42.6621   60.9645   34.6119 C   0  0  0  0  0  0
  -43.1574   61.6946   36.8673 C   0  0  0  0  0  0
  -39.2050   59.4435   33.7445 C   0  0  0  0  0  0
  -44.5030   61.4057   36.6688 C   0  0  0  0  0  0
  -44.0086   60.6717   34.4151 C   0  0  0  0  0  0
  -44.9200   60.8979   35.4431 C   0  0  0  0  0  0
  -40.6837   62.4735   36.9451 H   0  0  0  0  0  0
  -40.2578   60.8880   36.3785 H   0  0  0  0  0  0
  -35.4136   64.4312   30.3349 H   0  0  0  0  0  0
  -36.2599   62.9073   30.1237 H   0  0  0  0  0  0
  -39.2378   67.7162   31.7493 H   0  0  0  0  0  0
  -37.6143   67.0662   31.8297 H   0  0  0  0  0  0
  -37.4137   60.5382   34.1582 H   0  0  0  0  0  0
  -38.4146   60.3471   35.5260 H   0  0  0  0  0  0
  -38.2796   66.2300   28.0516 H   0  0  0  0  0  0
  -38.4394   65.1550   29.4079 H   0  0  0  0  0  0
  -41.9544   64.4097   35.8860 H   0  0  0  0  0  0
  -42.2110   66.5697   34.7377 H   0  0  0  0  0  0
  -40.9096   67.1289   32.7977 H   0  0  0  0  0  0
  -41.9602   60.7927   33.8092 H   0  0  0  0  0  0
  -42.8380   62.0882   37.8223 H   0  0  0  0  0  0
  -38.6616   58.5035   33.8433 H   0  0  0  0  0  0
  -40.2049   59.2962   34.1544 H   0  0  0  0  0  0
  -39.3041   59.6595   32.6790 H   0  0  0  0  0  0
  -45.2183   61.5746   37.4601 H   0  0  0  0  0  0
  -44.3451   60.2715   33.4704 H   0  0  0  0  0  0
  -45.9629   60.6703   35.2845 H   0  0  0  0  0  0
  1  3  2  0  0  0
  1  4  1  0  0  0
  1  6  1  0  0  0
  2  3  1  0  0  0
  2  8  1  0  0  0
  2  5  1  0  0  0
  3 17  1  0  0  0
  4  5  1  0  0  0
  4  9  2  0  0  0
  5 19  2  0  0  0
  6  7  1  0  0  0
  6 11  2  0  0  0
  7 13  2  0  0  0
  7 15  1  0  0  0
  8 20  1  0  0  0
  8 29  1  0  0  0
  8 30  1  0  0  0
  9 12  1  0  0  0
  9 22  1  0  0  0
 10 16  1  0  0  0
 10 14  2  0  0  0
 10 18  1  0  0  0
 12 16  1  0  0  0
 15 31  1  0  0  0
 15 32  1  0  0  0
 16 33  1  0  0  0
 16 34  1  0  0  0
 17 25  1  0  0  0
 17 35  1  0  0  0
 17 36  1  0  0  0
 18 37  1  0  0  0
 18 38  1  0  0  0
 19 21  1  0  0  0
 19 39  1  0  0  0
 20 23  2  0  0  0
 20 24  1  0  0  0
 21 22  2  0  0  0
 21 40  1  0  0  0
 22 41  1  0  0  0
 23 27  1  0  0  0
 23 42  1  0  0  0
 24 26  2  0  0  0
 24 43  1  0  0  0
 25 44  1  0  0  0
 25 45  1  0  0  0
 25 46  1  0  0  0
 26 28  1  0  0  0
 26 47  1  0  0  0
 27 28  2  0  0  0
 27 48  1  0  0  0
 28 49  1  0  0  0
M  END
> <s_m_entry_id>
68123

> <s_m_entry_name>
dock_pv.59

> <s_m_Source_Path>
/home/csk/Desktop/cluster/DUD-E-result/pa2ga

> <s_m_Source_File>
dock_pv.maegz

> <i_m_Source_File_Index>
59

> <chembl_id>
CHEMBL149434

> <chembl_pref_name>
None

> <i_lp_mmshare_version>
53161

> <i_f3d_flags>
0

> <r_lp_tautomer_probability>
1

> <s_lp_Force_Field>
OPLS_2005

> <r_lp_Energy>
18.964891

> <b_lp_Chiralities_Consistent>
1

> <s_lp_Variant>
CHEMBL3474_lig103-1

> <s_i_glide_gridfile>
glide-grid_1kvo

> <i_i_glide_lignum>
161

> <i_i_glide_rotatable_bonds>
8

> <r_i_docking_score>
-8.30626875436769

> <r_i_glide_ligand_efficiency>
-0.296652455513132

> <r_i_glide_ligand_efficiency_sa>
-0.900811573890448

> <r_i_glide_ligand_efficiency_ln>
-1.91733071115605

> <r_i_glide_gscore>
-8.30626875436769

> <r_i_glide_lipo>
-3.34454949879161

> <r_i_glide_hbond>
-0.545979499113318

> <r_i_glide_metal>
0

> <r_i_glide_rewards>
-1.2203334640353

> <r_i_glide_evdw>
-44.4891204833984

> <r_i_glide_ecoul>
-9.68996429443359

> <r_i_glide_erotb>
0.673475792758097

> <r_i_glide_esite>
-0.1909314168506

> <r_i_glide_emodel>
-83.2623551524879

> <r_i_glide_energy>
-54.179084777832

> <r_i_glide_einternal>
10.9960136413574

> <i_i_glide_confnum>
36

> <i_i_glide_posenum>
376

> <r_i_glide_eff_state_penalty>
0

> <s_user_duplicate_titles>
CHEMBL3474_lig103,248501

> <s_m_subgroup_title>
dock_pv

> <s_m_subgroupid>
dock_pv

> <b_m_subgroup_collapsed>
1

$$$$
CHEMBL3474_lig22
                    3D
 Schrodinger Suite 2021-1.
 49 51  0  0  1  0            999 V2000
  -40.0811   62.6917   34.8192 N   0  0  0  0  0  0
  -38.6973   62.7339   33.0327 C   0  0  0  0  0  0
  -39.1391   61.9675   34.1013 C   0  0  0  0  0  0
  -39.5188   63.9087   33.0138 C   0  0  0  0  0  0
  -40.3196   63.9017   34.1828 C   0  0  0  0  0  0
  -37.5757   62.4271   32.0447 C   0  0  0  0  0  0
  -40.7784   62.2352   36.0268 C   0  0  0  0  0  0
  -41.1509   64.9840   34.5055 C   0  0  0  0  0  0
  -36.6169   63.6107   31.8130 C   0  0  0  0  0  0
  -37.6151   68.7659   30.9186 C   0  0  0  0  0  0
  -39.6089   64.9924   32.1314 C   0  0  0  0  0  0
  -38.1907   67.4126   30.5131 C   0  0  0  0  0  0
  -36.4448   64.4977   32.6430 O   0  0  0  0  0  0
  -36.8151   68.8980   31.8430 O   0  0  0  0  0  0
  -40.3651   66.1161   32.4762 C   0  0  0  0  0  0
  -36.0150   63.6980   30.6430 N   0  0  0  0  0  0
  -41.1217   66.0887   33.6480 C   0  0  0  0  0  0
  -38.6993   60.5823   34.5339 C   0  0  0  0  0  0
  -42.2068   61.7537   35.7990 C   0  0  0  0  0  0
  -39.7393   67.3429   30.4519 C   0  0  0  0  0  0
  -37.9973   69.7635   30.0785 O   0  0  0  0  0  0
  -40.4031   67.2776   31.7216 O   0  0  0  0  0  0
  -42.5454   61.0122   34.6602 C   0  0  0  0  0  0
  -43.1787   62.0304   36.7652 C   0  0  0  0  0  0
  -44.4855   61.5885   36.5859 C   0  0  0  0  0  0
  -43.8519   60.5711   34.4816 C   0  0  0  0  0  0
  -44.8151   60.8658   35.4432 C   0  0  0  0  0  0
  -36.9731   61.5806   32.3717 H   0  0  0  0  0  0
  -38.0128   62.1356   31.0882 H   0  0  0  0  0  0
  -40.7765   63.0695   36.7303 H   0  0  0  0  0  0
  -40.2142   61.4333   36.5027 H   0  0  0  0  0  0
  -41.7671   64.9868   35.3934 H   0  0  0  0  0  0
  -39.0403   64.9565   31.2181 H   0  0  0  0  0  0
  -37.7764   66.6627   31.1822 H   0  0  0  0  0  0
  -37.7841   67.1780   29.5283 H   0  0  0  0  0  0
  -35.5326   64.5795   30.4308 H   0  0  0  0  0  0
  -36.2687   63.0794   29.8860 H   0  0  0  0  0  0
  -41.7188   66.9532   33.8969 H   0  0  0  0  0  0
  -38.0894   60.0877   33.7786 H   0  0  0  0  0  0
  -38.1052   60.6240   35.4430 H   0  0  0  0  0  0
  -39.5437   59.9207   34.7265 H   0  0  0  0  0  0
  -40.0495   66.4919   29.8431 H   0  0  0  0  0  0
  -40.1330   68.2196   29.9368 H   0  0  0  0  0  0
  -37.5237   70.5733   30.2825 H   0  0  0  0  0  0
  -41.8030   60.7759   33.9116 H   0  0  0  0  0  0
  -42.9261   62.5870   37.6564 H   0  0  0  0  0  0
  -45.2389   61.8026   37.3301 H   0  0  0  0  0  0
  -44.1200   60.0058   33.6008 H   0  0  0  0  0  0
  -45.8286   60.5188   35.3010 H   0  0  0  0  0  0
  1  3  1  0  0  0
  1  5  1  0  0  0
  1  7  1  0  0  0
  2  3  2  0  0  0
  2  6  1  0  0  0
  2  4  1  0  0  0
  3 18  1  0  0  0
  4  5  1  0  0  0
  4 11  2  0  0  0
  5  8  2  0  0  0
  6  9  1  0  0  0
  6 28  1  0  0  0
  6 29  1  0  0  0
  7 19  1  0  0  0
  7 30  1  0  0  0
  7 31  1  0  0  0
  8 17  1  0  0  0
  8 32  1  0  0  0
  9 13  2  0  0  0
  9 16  1  0  0  0
 10 12  1  0  0  0
 10 14  2  0  0  0
 10 21  1  0  0  0
 11 15  1  0  0  0
 11 33  1  0  0  0
 12 20  1  0  0  0
 12 34  1  0  0  0
 12 35  1  0  0  0
 15 17  2  0  0  0
 15 22  1  0  0  0
 16 36  1  0  0  0
 16 37  1  0  0  0
 17 38  1  0  0  0
 18 39  1  0  0  0
 18 40  1  0  0  0
 18 41  1  0  0  0
 19 23  1  0  0  0
 19 24  2  0  0  0
 20 22  1  0  0  0
 20 42  1  0  0  0
 20 43  1  0  0  0
 21 44  1  0  0  0
 23 26  2  0  0  0
 23 45  1  0  0  0
 24 25  1  0  0  0
 24 46  1  0  0  0
 25 27  2  0  0  0
 25 47  1  0  0  0
 26 27  1  0  0  0
 26 48  1  0  0  0
 27 49  1  0  0  0
M  END
> <s_m_entry_id>
68124

> <s_m_entry_name>
dock_pv.60

> <s_m_Source_Path>
/home/csk/Desktop/cluster/DUD-E-result/pa2ga

> <s_m_Source_File>
dock_pv.maegz

> <i_m_Source_File_Index>
60

> <chembl_id>
CHEMBL359388

> <chembl_pref_name>
None

> <i_lp_mmshare_version>
53161

> <i_f3d_flags>
0

> <r_lp_tautomer_probability>
1

> <s_lp_Force_Field>
OPLS_2005

> <r_lp_Energy>
12.26994

> <b_lp_Chiralities_Consistent>
1

> <s_lp_Variant>
CHEMBL3474_lig22-1

> <s_i_glide_gridfile>
glide-grid_1kvo

> <i_i_glide_lignum>
61

> <i_i_glide_rotatable_bonds>
9

> <r_i_docking_score>
-8.27766388351788

> <r_i_glide_ligand_efficiency>
-0.306580143833995

> <r_i_glide_ligand_efficiency_sa>
-0.919740430491548

> <r_i_glide_ligand_efficiency_ln>
-1.92690368412829

> <r_i_glide_gscore>
-8.27766388351788

> <r_i_glide_lipo>
-3.31720739171145

> <r_i_glide_hbond>
-0.534263559051494

> <r_i_glide_metal>
0

> <r_i_glide_rewards>
-1.14961632026028

> <r_i_glide_evdw>
-40.5527267456055

> <r_i_glide_ecoul>
-13.9690141677856

> <r_i_glide_erotb>
1.00352489099988

> <r_i_glide_esite>
-0.157113041046411

> <r_i_glide_emodel>
-83.2312798160035

> <r_i_glide_energy>
-54.5217409133911

> <r_i_glide_einternal>
7.70367097854614

> <i_i_glide_confnum>
76

> <i_i_glide_posenum>
313

> <r_i_glide_eff_state_penalty>
0

> <s_user_duplicate_titles>
CHEMBL3474_lig22,246592

> <s_m_subgroup_title>
dock_pv

> <s_m_subgroupid>
dock_pv

> <b_m_subgroup_collapsed>
1

$$$$
CHEMBL3474_lig42
                    3D
 Schrodinger Suite 2021-1.
 55 57  0  0  1  0            999 V2000
  -40.1365   62.2346   35.2428 N   0  0  0  0  0  0
  -38.9742   62.7587   33.3624 C   0  0  0  0  0  0
  -39.2747   61.7460   34.2696 C   0  0  0  0  0  0
  -39.6822   63.9173   33.8273 C   0  0  0  0  0  0
  -40.4152   63.5654   34.9889 C   0  0  0  0  0  0
  -38.1383   62.6650   32.0798 C   0  0  0  0  0  0
  -40.7712   61.4606   36.3167 C   0  0  0  0  0  0
  -41.2421   64.4858   35.6505 C   0  0  0  0  0  0
  -36.9248   63.6026   31.9596 C   0  0  0  0  0  0
  -39.7746   65.2278   33.3563 C   0  0  0  0  0  0
  -37.4754   68.8989   30.3014 C   0  0  0  0  0  0
  -36.7986   64.6129   32.6430 O   0  0  0  0  0  0
  -36.9280   68.4980   31.3312 O   0  0  0  0  0  0
  -40.5934   66.1640   33.9961 C   0  0  0  0  0  0
  -36.0151   63.2977   31.0430 N   0  0  0  0  0  0
  -41.3139   65.7759   35.1225 C   0  0  0  0  0  0
  -38.8167   60.3024   34.2910 C   0  0  0  0  0  0
  -42.2557   61.2303   36.0774 C   0  0  0  0  0  0
  -37.2150   70.0928   29.7164 O   0  0  0  0  0  0
  -40.7304   67.4759   33.5766 O   0  0  0  0  0  0
  -38.4807   68.1029   29.4682 C   0  0  0  0  0  0
  -39.9294   67.9569   32.4931 C   0  0  0  0  0  0
  -42.6860   60.6513   34.8811 C   0  0  0  0  0  0
  -43.1874   61.6305   37.0411 C   0  0  0  0  0  0
  -39.1900   66.9446   30.1962 C   0  0  0  0  0  0
  -40.3511   67.3766   31.1197 C   0  0  0  0  0  0
  -44.5477   61.4577   36.8076 C   0  0  0  0  0  0
  -44.0450   60.4982   34.6412 C   0  0  0  0  0  0
  -44.9686   60.8980   35.6047 C   0  0  0  0  0  0
  -37.7941   61.6449   31.9152 H   0  0  0  0  0  0
  -38.7750   62.8981   31.2259 H   0  0  0  0  0  0
  -40.6379   62.0184   37.2427 H   0  0  0  0  0  0
  -40.2607   60.5084   36.4611 H   0  0  0  0  0  0
  -41.8130   64.2166   36.5280 H   0  0  0  0  0  0
  -39.1999   65.4858   32.4910 H   0  0  0  0  0  0
  -35.2655   63.9507   30.8529 H   0  0  0  0  0  0
  -36.1805   62.5365   30.4020 H   0  0  0  0  0  0
  -41.9480   66.5037   35.6068 H   0  0  0  0  0  0
  -38.1395   60.0533   33.4748 H   0  0  0  0  0  0
  -38.2838   60.0980   35.2156 H   0  0  0  0  0  0
  -39.6520   59.6039   34.2321 H   0  0  0  0  0  0
  -36.4573   70.4985   30.1554 H   0  0  0  0  0  0
  -37.9098   67.6824   28.6418 H   0  0  0  0  0  0
  -39.2102   68.7802   29.0238 H   0  0  0  0  0  0
  -40.0055   69.0442   32.4727 H   0  0  0  0  0  0
  -38.8841   67.7483   32.7228 H   0  0  0  0  0  0
  -41.9748   60.3461   34.1268 H   0  0  0  0  0  0
  -42.8634   62.0792   37.9702 H   0  0  0  0  0  0
  -38.4547   66.3290   30.7157 H   0  0  0  0  0  0
  -39.6062   66.2756   29.4430 H   0  0  0  0  0  0
  -41.0012   66.5155   31.2730 H   0  0  0  0  0  0
  -40.9717   68.0972   30.5901 H   0  0  0  0  0  0
  -45.2703   61.7624   37.5500 H   0  0  0  0  0  0
  -44.3901   60.0705   33.7101 H   0  0  0  0  0  0
  -46.0245   60.7664   35.4158 H   0  0  0  0  0  0
  1  3  1  0  0  0
  1  5  1  0  0  0
  1  7  1  0  0  0
  2  3  2  0  0  0
  2  6  1  0  0  0
  2  4  1  0  0  0
  3 17  1  0  0  0
  4  5  1  0  0  0
  4 10  2  0  0  0
  5  8  2  0  0  0
  6  9  1  0  0  0
  6 30  1  0  0  0
  6 31  1  0  0  0
  7 18  1  0  0  0
  7 32  1  0  0  0
  7 33  1  0  0  0
  8 16  1  0  0  0
  8 34  1  0  0  0
  9 12  2  0  0  0
  9 15  1  0  0  0
 10 14  1  0  0  0
 10 35  1  0  0  0
 11 21  1  0  0  0
 11 13  2  0  0  0
 11 19  1  0  0  0
 14 16  2  0  0  0
 14 20  1  0  0  0
 15 36  1  0  0  0
 15 37  1  0  0  0
 16 38  1  0  0  0
 17 39  1  0  0  0
 17 40  1  0  0  0
 17 41  1  0  0  0
 18 23  1  0  0  0
 18 24  2  0  0  0
 19 42  1  0  0  0
 20 22  1  0  0  0
 21 25  1  0  0  0
 21 43  1  0  0  0
 21 44  1  0  0  0
 22 26  1  0  0  0
 22 45  1  0  0  0
 22 46  1  0  0  0
 23 28  2  0  0  0
 23 47  1  0  0  0
 24 27  1  0  0  0
 24 48  1  0  0  0
 25 26  1  0  0  0
 25 49  1  0  0  0
 25 50  1  0  0  0
 26 51  1  0  0  0
 26 52  1  0  0  0
 27 29  2  0  0  0
 27 53  1  0  0  0
 28 29  1  0  0  0
 28 54  1  0  0  0
 29 55  1  0  0  0
M  END
> <s_m_entry_id>
68125

> <s_m_entry_name>
dock_pv.61

> <s_m_Source_Path>
/home/csk/Desktop/cluster/DUD-E-result/pa2ga

> <s_m_Source_File>
dock_pv.maegz

> <i_m_Source_File_Index>
61

> <chembl_id>
CHEMBL148773

> <chembl_pref_name>
None

> <i_lp_mmshare_version>
53161

> <i_f3d_flags>
0

> <r_lp_tautomer_probability>
1

> <s_lp_Force_Field>
OPLS_2005

> <r_lp_Energy>
14.088787

> <b_lp_Chiralities_Consistent>
1

> <s_lp_Variant>
CHEMBL3474_lig42-1

> <s_i_glide_gridfile>
glide-grid_1kvo

> <i_i_glide_lignum>
82

> <i_i_glide_rotatable_bonds>
11

> <r_i_docking_score>
-8.2734048638909

> <r_i_glide_ligand_efficiency>
-0.28528982289279

> <r_i_glide_ligand_efficiency_sa>
-0.876500722086641

> <r_i_glide_ligand_efficiency_ln>
-1.89439991838531

> <r_i_glide_gscore>
-8.2734048638909

> <r_i_glide_lipo>
-3.81362170851601

> <r_i_glide_hbond>
-0.323695972176418

> <r_i_glide_metal>
0

> <r_i_glide_rewards>
-0.970305635278182

> <r_i_glide_evdw>
-44.2680397033691

> <r_i_glide_ecoul>
-13.5623073577881

> <r_i_glide_erotb>
1.13049189276255

> <r_i_glide_esite>
-0.0485253518461684

> <r_i_glide_emodel>
-88.9085573150711

> <r_i_glide_energy>
-57.8303470611572

> <r_i_glide_einternal>
6.05381202697754

> <i_i_glide_confnum>
258

> <i_i_glide_posenum>
194

> <r_i_glide_eff_state_penalty>
0

> <s_user_duplicate_titles>
CHEMBL3474_lig42

> <s_m_subgroup_title>
dock_pv

> <s_m_subgroupid>
dock_pv

> <b_m_subgroup_collapsed>
1

$$$$
CHEMBL3474_lig150
                    3D
 Schrodinger Suite 2021-1.
 55 58  0  0  1  0            999 V2000
  -40.0220   65.5005   31.8963 N   0  0  0  0  0  0
  -39.6012   67.6976   31.5649 C   0  0  0  0  0  0
  -39.4381   66.4272   31.0387 C   0  0  0  0  0  0
  -40.3093   67.5497   32.8012 C   0  0  0  0  0  0
  -40.5903   66.1682   32.9700 C   0  0  0  0  0  0
  -40.0982   64.0476   31.7052 C   0  0  0  0  0  0
  -38.9392   63.2273   32.2841 C   0  0  0  0  0  0
  -39.1975   69.0099   30.9208 C   0  0  0  0  0  0
  -39.0866   62.3632   33.3948 C   0  0  0  0  0  0
  -41.3478   65.7029   34.0514 C   0  0  0  0  0  0
  -37.8954   69.6221   31.4462 C   0  0  0  0  0  0
  -40.7748   68.4604   33.7631 C   0  0  0  0  0  0
  -36.9552   68.9135   31.8420 O   0  0  0  0  0  0
  -40.3458   62.2132   34.1628 C   0  0  0  0  0  0
  -37.8984   70.9673   31.4114 N   0  0  0  0  0  0
  -41.5484   68.0116   34.8297 C   0  0  0  0  0  0
  -41.8192   66.6446   34.9631 C   0  0  0  0  0  0
  -38.7819   66.0589   29.7191 C   0  0  0  0  0  0
  -36.8130   71.7144   31.8430 N   0  0  0  0  0  0
  -42.0151   68.9859   35.6899 O   0  0  0  0  0  0
  -37.7179   63.2450   31.6000 C   0  0  0  0  0  0
  -38.0062   61.5619   33.7824 C   0  0  0  0  0  0
  -40.4393   62.7346   35.4547 C   0  0  0  0  0  0
  -41.4167   61.4842   33.6359 C   0  0  0  0  0  0
  -42.8096   68.6068   36.8082 C   0  0  0  0  0  0
  -36.6682   62.4177   31.9774 C   0  0  0  0  0  0
  -36.8152   61.5708   33.0658 C   0  0  0  0  0  0
  -42.5734   61.2888   34.3860 C   0  0  0  0  0  0
  -41.5967   62.5487   36.2071 C   0  0  0  0  0  0
  -42.6602   61.8269   35.6688 C   0  0  0  0  0  0
  -41.0541   63.7070   32.0995 H   0  0  0  0  0  0
  -40.1799   63.8429   30.6431 H   0  0  0  0  0  0
  -39.0777   68.9110   29.8435 H   0  0  0  0  0  0
  -40.0128   69.7246   31.0424 H   0  0  0  0  0  0
  -41.6047   64.6629   34.1632 H   0  0  0  0  0  0
  -40.5716   69.5155   33.6622 H   0  0  0  0  0  0
  -38.7154   71.5135   31.1736 H   0  0  0  0  0  0
  -42.4209   66.2830   35.7835 H   0  0  0  0  0  0
  -38.7386   66.9048   29.0372 H   0  0  0  0  0  0
  -37.7485   65.7374   29.8355 H   0  0  0  0  0  0
  -39.3272   65.2975   29.1695 H   0  0  0  0  0  0
  -35.9894   71.2532   31.4570 H   0  0  0  0  0  0
  -36.8300   72.5778   31.3160 H   0  0  0  0  0  0
  -37.5861   63.8501   30.7206 H   0  0  0  0  0  0
  -38.1031   60.8960   34.6285 H   0  0  0  0  0  0
  -39.6144   63.2939   35.8713 H   0  0  0  0  0  0
  -41.3492   61.0625   32.6445 H   0  0  0  0  0  0
  -43.0725   69.4949   37.3820 H   0  0  0  0  0  0
  -42.2716   67.9314   37.4736 H   0  0  0  0  0  0
  -43.7398   68.1324   36.4919 H   0  0  0  0  0  0
  -35.7461   62.4258   31.4141 H   0  0  0  0  0  0
  -36.0105   60.9181   33.3645 H   0  0  0  0  0  0
  -43.3987   60.7244   33.9760 H   0  0  0  0  0  0
  -41.6685   62.9591   37.2043 H   0  0  0  0  0  0
  -43.5575   61.6794   36.2525 H   0  0  0  0  0  0
  1  3  1  0  0  0
  1  5  1  0  0  0
  1  6  1  0  0  0
  2  3  2  0  0  0
  2  8  1  0  0  0
  2  4  1  0  0  0
  3 18  1  0  0  0
  4  5  1  0  0  0
  4 12  2  0  0  0
  5 10  2  0  0  0
  6  7  1  0  0  0
  6 31  1  0  0  0
  6 32  1  0  0  0
  7  9  2  0  0  0
  7 21  1  0  0  0
  8 11  1  0  0  0
  8 33  1  0  0  0
  8 34  1  0  0  0
  9 14  1  0  0  0
  9 22  1  0  0  0
 10 17  1  0  0  0
 10 35  1  0  0  0
 11 13  2  0  0  0
 11 15  1  0  0  0
 12 16  1  0  0  0
 12 36  1  0  0  0
 14 23  1  0  0  0
 14 24  2  0  0  0
 15 19  1  0  0  0
 15 37  1  0  0  0
 16 17  2  0  0  0
 16 20  1  0  0  0
 17 38  1  0  0  0
 18 39  1  0  0  0
 18 40  1  0  0  0
 18 41  1  0  0  0
 19 42  1  0  0  0
 19 43  1  0  0  0
 20 25  1  0  0  0
 21 26  2  0  0  0
 21 44  1  0  0  0
 22 27  2  0  0  0
 22 45  1  0  0  0
 23 29  2  0  0  0
 23 46  1  0  0  0
 24 28  1  0  0  0
 24 47  1  0  0  0
 25 48  1  0  0  0
 25 49  1  0  0  0
 25 50  1  0  0  0
 26 27  1  0  0  0
 26 51  1  0  0  0
 27 52  1  0  0  0
 28 30  2  0  0  0
 28 53  1  0  0  0
 29 30  1  0  0  0
 29 54  1  0  0  0
 30 55  1  0  0  0
M  END
> <s_m_entry_id>
68126

> <s_m_entry_name>
dock_pv.62

> <s_m_Source_Path>
/home/csk/Desktop/cluster/DUD-E-result/pa2ga

> <s_m_Source_File>
dock_pv.maegz

> <i_m_Source_File_Index>
62

> <chembl_id>
CHEMBL356859

> <chembl_pref_name>
None

> <i_lp_mmshare_version>
53161

> <i_f3d_flags>
0

> <r_lp_tautomer_probability>
1

> <s_lp_Force_Field>
OPLS_2005

> <r_lp_Energy>
23.84235

> <b_lp_Chiralities_Consistent>
1

> <s_lp_Variant>
CHEMBL3474_lig150-1

> <s_i_glide_gridfile>
glide-grid_1kvo

> <i_i_glide_lignum>
211

> <i_i_glide_rotatable_bonds>
7

> <r_i_docking_score>
-8.2545053611616

> <r_i_glide_ligand_efficiency>
-0.275150178705387

> <r_i_glide_ligand_efficiency_sa>
-0.8549555783231

> <r_i_glide_ligand_efficiency_ln>
-1.87551355809546

> <r_i_glide_gscore>
-8.2545053611616

> <r_i_glide_lipo>
-3.6290500485065

> <r_i_glide_hbond>
-0.510186050000304

> <r_i_glide_metal>
0

> <r_i_glide_rewards>
-1.01398503705144

> <r_i_glide_evdw>
-44.2213363647461

> <r_i_glide_ecoul>
-9.45536327362061

> <r_i_glide_erotb>
0.613922226571267

> <r_i_glide_esite>
-0.0858351428942308

> <r_i_glide_emodel>
-75.8074799262532

> <r_i_glide_energy>
-53.6766996383667

> <r_i_glide_einternal>
9.18449687957764

> <i_i_glide_confnum>
5

> <i_i_glide_posenum>
10

> <r_i_glide_eff_state_penalty>
0

> <s_user_duplicate_titles>
CHEMBL3474_lig150,246314

> <s_m_subgroup_title>
dock_pv

> <s_m_subgroupid>
dock_pv

> <b_m_subgroup_collapsed>
1

$$$$
CHEMBL3474_lig360 
                    3D
 Schrodinger Suite 2021-1.
 55 58  0  0  1  0            999 V2000
  -36.9013   61.8323   33.1047 C   0  0  0  0  0  0
  -37.6279   60.9549   33.8856 C   0  0  0  0  0  0
  -38.9568   61.2012   34.2172 C   0  0  0  0  0  0
  -39.5471   62.3753   33.7472 C   0  0  0  0  0  0
  -38.8383   63.2824   32.9515 C   0  0  0  0  0  0
  -37.4881   63.0054   32.6371 C   0  0  0  0  0  0
  -36.6272   63.9364   31.8430 C   0  0  0  0  0  0
  -36.0150   63.4243   30.7824 N   0  0  0  0  0  0
  -36.4150   65.0747   32.2430 O   0  0  0  0  0  0
  -39.7308   60.1732   35.0424 C   0  0  0  0  0  0
  -41.2494   60.3214   35.0431 C   0  0  0  0  0  0
  -41.9866   59.9481   33.9156 C   0  0  0  0  0  0
  -43.3711   60.0889   33.9122 C   0  0  0  0  0  0
  -44.0150   60.5925   35.0401 C   0  0  0  0  0  0
  -43.2875   60.9610   36.1698 C   0  0  0  0  0  0
  -41.9015   60.8274   36.1702 C   0  0  0  0  0  0
  -39.5984   64.4194   32.3797 C   0  0  0  0  0  0
  -40.6629   64.1351   31.5256 C   0  0  0  0  0  0
  -41.3645   65.1576   30.9119 C   0  0  0  0  0  0
  -41.0250   66.4865   31.1463 C   0  0  0  0  0  0
  -39.9738   66.7932   32.0108 C   0  0  0  0  0  0
  -39.2810   65.7569   32.6434 C   0  0  0  0  0  0
  -39.5351   68.2404   32.1970 C   0  0  0  0  0  0
  -38.2843   68.6530   31.3591 C   0  0  1  0  0  0
  -38.4008   68.2598   29.8656 C   0  0  0  0  0  0
  -38.8150   69.0092   28.9866 O   0  0  0  0  0  0
  -38.0150   66.9728   29.6487 O   0  0  0  0  0  0
  -37.8624   70.1452   31.5174 C   0  0  0  0  0  0
  -38.8075   71.2587   31.1199 C   0  0  0  0  0  0
  -38.4417   71.0630   32.5754 C   0  0  0  0  0  0
  -35.8683   61.5975   32.8876 H   0  0  0  0  0  0
  -37.1122   60.0980   34.2430 H   0  0  0  0  0  0
  -40.5829   62.5834   33.9740 H   0  0  0  0  0  0
  -35.4147   64.0377   30.2430 H   0  0  0  0  0  0
  -36.3416   62.5590   30.3807 H   0  0  0  0  0  0
  -39.4959   59.1773   34.6635 H   0  0  0  0  0  0
  -39.3537   60.1985   36.0662 H   0  0  0  0  0  0
  -41.4865   59.5608   33.0396 H   0  0  0  0  0  0
  -43.9461   59.8027   33.0431 H   0  0  0  0  0  0
  -45.0906   60.6958   35.0365 H   0  0  0  0  0  0
  -43.7954   61.3507   37.0399 H   0  0  0  0  0  0
  -41.3358   61.1199   37.0429 H   0  0  0  0  0  0
  -40.9424   63.1135   31.3185 H   0  0  0  0  0  0
  -42.1725   64.8980   30.2433 H   0  0  0  0  0  0
  -41.5644   67.2717   30.6379 H   0  0  0  0  0  0
  -38.4684   65.9908   33.3127 H   0  0  0  0  0  0
  -39.3306   68.3688   33.2598 H   0  0  0  0  0  0
  -40.3780   68.8975   31.9828 H   0  0  0  0  0  0
  -37.4564   68.0719   31.7611 H   0  0  0  0  0  0
  -38.1121   66.7218   28.7278 H   0  0  0  0  0  0
  -36.8184   70.2973   31.2327 H   0  0  0  0  0  0
  -39.8083   70.9984   30.7751 H   0  0  0  0  0  0
  -38.3961   72.1077   30.5723 H   0  0  0  0  0  0
  -37.7881   71.7999   33.0430 H   0  0  0  0  0  0
  -39.2150   70.7089   33.2566 H   0  0  0  0  0  0
  1  2  2  0  0  0
  1  6  1  0  0  0
  1 31  1  0  0  0
  2  3  1  0  0  0
  2 32  1  0  0  0
  3  4  2  0  0  0
  3 10  1  0  0  0
  4  5  1  0  0  0
  4 33  1  0  0  0
  5  6  2  0  0  0
  5 17  1  0  0  0
  6  7  1  0  0  0
  7  8  1  0  0  0
  7  9  2  0  0  0
  8 34  1  0  0  0
  8 35  1  0  0  0
 10 11  1  0  0  0
 10 36  1  0  0  0
 10 37  1  0  0  0
 11 12  2  0  0  0
 11 16  1  0  0  0
 12 13  1  0  0  0
 12 38  1  0  0  0
 13 14  2  0  0  0
 13 39  1  0  0  0
 14 15  1  0  0  0
 14 40  1  0  0  0
 15 16  2  0  0  0
 15 41  1  0  0  0
 16 42  1  0  0  0
 17 18  2  0  0  0
 17 22  1  0  0  0
 18 19  1  0  0  0
 18 43  1  0  0  0
 19 20  2  0  0  0
 19 44  1  0  0  0
 20 21  1  0  0  0
 20 45  1  0  0  0
 21 22  2  0  0  0
 21 23  1  0  0  0
 22 46  1  0  0  0
 23 24  1  0  0  0
 23 47  1  0  0  0
 23 48  1  0  0  0
 24 25  1  0  0  0
 24 28  1  0  0  0
 24 49  1  0  0  0
 25 26  2  0  0  0
 25 27  1  0  0  0
 27 50  1  0  0  0
 28 29  1  0  0  0
 28 30  1  0  0  0
 28 51  1  0  0  0
 29 30  1  0  0  0
 29 52  1  0  0  0
 29 53  1  0  0  0
 30 54  1  0  0  0
 30 55  1  0  0  0
M  END
> <s_m_entry_id>
68127

> <s_m_entry_name>
dock_pv.63

> <s_m_Source_Path>
/home/csk/Desktop/cluster/DUD-E-result/pa2ga

> <s_m_Source_File>
dock_pv.maegz

> <i_m_Source_File_Index>
63

> <chembl_id>
CHEMBL4453126

> <chembl_pref_name>
None

> <i_lp_mmshare_version>
53161

> <i_f3d_flags>
0

> <r_lp_tautomer_probability>
1

> <s_lp_Force_Field>
OPLS_2005

> <r_lp_Energy>
33.985657

> <b_lp_Chiralities_Consistent>
1

> <s_lp_Variant>
CHEMBL3474_lig360 -2

> <s_i_glide_gridfile>
glide-grid_1kvo

> <i_i_glide_lignum>
456

> <i_i_glide_rotatable_bonds>
9

> <r_i_docking_score>
-8.25069440826572

> <r_i_glide_ligand_efficiency>
-0.275023146942191

> <r_i_glide_ligand_efficiency_sa>
-0.854560861099656

> <r_i_glide_ligand_efficiency_ln>
-1.87464766807386

> <r_i_glide_gscore>
-8.25069440826572

> <r_i_glide_lipo>
-4.61870814666251

> <r_i_glide_hbond>
-0.227671283037892

> <r_i_glide_metal>
0

> <r_i_glide_rewards>
-0.99842176312751

> <r_i_glide_evdw>
-48.6560897827148

> <r_i_glide_ecoul>
-4.87788248062134

> <r_i_glide_erotb>
0.859503895778876

> <r_i_glide_esite>
-0.100910249987733

> <r_i_glide_emodel>
-74.4021561622534

> <r_i_glide_energy>
-53.5339722633362

> <r_i_glide_einternal>
9.88492965698242

> <i_i_glide_confnum>
142

> <i_i_glide_posenum>
256

> <r_i_glide_eff_state_penalty>
0

> <s_user_duplicate_titles>
CHEMBL3474_lig360 

> <s_m_subgroup_title>
dock_pv

> <s_m_subgroupid>
dock_pv

> <b_m_subgroup_collapsed>
1

$$$$
CHEMBL3474_lig65
                    3D
 Schrodinger Suite 2021-1.
 50 52  0  0  1  0            999 V2000
  -40.0334   62.7253   34.9075 N   0  0  0  0  0  0
  -38.7742   62.9469   33.0429 C   0  0  0  0  0  0
  -40.3513   63.9635   34.3736 C   0  0  0  0  0  0
  -39.6291   64.1109   33.1483 C   0  0  0  0  0  0
  -39.0550   62.1292   34.1294 C   0  0  0  0  0  0
  -39.8652   65.2634   32.3480 C   0  0  0  0  0  0
  -41.2239   64.9493   34.8495 C   0  0  0  0  0  0
  -37.7512   62.6382   31.9594 C   0  0  0  0  0  0
  -40.7073   62.1461   36.0795 C   0  0  0  0  0  0
  -36.6600   63.6988   31.7937 C   0  0  0  0  0  0
  -40.6738   66.2707   32.8902 C   0  0  0  0  0  0
  -41.3317   66.1152   34.1015 C   0  0  0  0  0  0
  -36.4154   64.5489   32.6430 O   0  0  0  0  0  0
  -38.4149   66.5737   30.5844 C   0  0  0  0  0  0
  -37.8966   67.4697   31.4430 C   0  0  0  0  0  0
  -36.0150   63.6974   30.6430 N   0  0  0  0  0  0
  -38.4268   60.7837   34.4692 C   0  0  0  0  0  0
  -42.1486   61.7029   35.8358 C   0  0  0  0  0  0
  -39.3762   65.4317   30.8993 C   0  0  0  0  0  0
  -40.8149   67.4562   32.2240 O   0  0  0  0  0  0
  -42.5401   61.1529   34.6087 C   0  0  0  0  0  0
  -43.0819   61.8292   36.8685 C   0  0  0  0  0  0
  -39.0932   59.6226   33.7221 C   0  0  0  0  0  0
  -43.8576   60.7508   34.4140 C   0  0  0  0  0  0
  -44.4002   61.4289   36.6731 C   0  0  0  0  0  0
  -44.7826   60.8975   35.4445 C   0  0  0  0  0  0
  -41.7714   64.8337   35.7741 H   0  0  0  0  0  0
  -37.2403   61.6936   32.1403 H   0  0  0  0  0  0
  -38.2605   62.4969   31.0087 H   0  0  0  0  0  0
  -40.1515   61.2986   36.4734 H   0  0  0  0  0  0
  -40.6903   62.9075   36.8611 H   0  0  0  0  0  0
  -41.9614   66.9149   34.4641 H   0  0  0  0  0  0
  -38.1316   66.6477   29.5427 H   0  0  0  0  0  0
  -38.1238   67.4487   32.4996 H   0  0  0  0  0  0
  -37.2329   68.2443   31.0857 H   0  0  0  0  0  0
  -35.3632   64.4481   30.4282 H   0  0  0  0  0  0
  -36.3489   63.1163   29.8875 H   0  0  0  0  0  0
  -37.3692   60.7997   34.2043 H   0  0  0  0  0  0
  -38.4151   60.5737   35.5346 H   0  0  0  0  0  0
  -40.2596   65.5806   30.2757 H   0  0  0  0  0  0
  -38.9521   64.5097   30.5187 H   0  0  0  0  0  0
  -40.2208   67.4789   31.4682 H   0  0  0  0  0  0
  -41.8318   61.0387   33.8010 H   0  0  0  0  0  0
  -42.7903   62.2382   37.8249 H   0  0  0  0  0  0
  -38.5199   58.7041   33.8463 H   0  0  0  0  0  0
  -40.1036   59.4415   34.0881 H   0  0  0  0  0  0
  -39.1571   59.8189   32.6512 H   0  0  0  0  0  0
  -44.1647   60.3292   33.4674 H   0  0  0  0  0  0
  -45.1219   61.5286   37.4710 H   0  0  0  0  0  0
  -45.8051   60.5843   35.2896 H   0  0  0  0  0  0
  1  3  1  0  0  0
  1  5  1  0  0  0
  1  9  1  0  0  0
  2  5  2  0  0  0
  2  8  1  0  0  0
  2  4  1  0  0  0
  3  4  1  0  0  0
  3  7  2  0  0  0
  4  6  2  0  0  0
  5 17  1  0  0  0
  6 19  1  0  0  0
  6 11  1  0  0  0
  7 12  1  0  0  0
  7 27  1  0  0  0
  8 10  1  0  0  0
  8 28  1  0  0  0
  8 29  1  0  0  0
  9 18  1  0  0  0
  9 30  1  0  0  0
  9 31  1  0  0  0
 10 13  2  0  0  0
 10 16  1  0  0  0
 11 12  2  0  0  0
 11 20  1  0  0  0
 12 32  1  0  0  0
 14 19  1  0  0  0
 14 15  2  0  0  0
 14 33  1  0  0  0
 15 34  1  0  0  0
 15 35  1  0  0  0
 16 36  1  0  0  0
 16 37  1  0  0  0
 17 23  1  0  0  0
 17 38  1  0  0  0
 17 39  1  0  0  0
 18 21  2  0  0  0
 18 22  1  0  0  0
 19 40  1  0  0  0
 19 41  1  0  0  0
 20 42  1  0  0  0
 21 24  1  0  0  0
 21 43  1  0  0  0
 22 25  2  0  0  0
 22 44  1  0  0  0
 23 45  1  0  0  0
 23 46  1  0  0  0
 23 47  1  0  0  0
 24 26  2  0  0  0
 24 48  1  0  0  0
 25 26  1  0  0  0
 25 49  1  0  0  0
 26 50  1  0  0  0
M  END
> <s_m_entry_id>
68128

> <s_m_entry_name>
dock_pv.64

> <s_m_Source_Path>
/home/csk/Desktop/cluster/DUD-E-result/pa2ga

> <s_m_Source_File>
dock_pv.maegz

> <i_m_Source_File_Index>
64

> <chembl_id>
CHEMBL356607

> <chembl_pref_name>
None

> <i_lp_mmshare_version>
53161

> <i_f3d_flags>
0

> <r_lp_tautomer_probability>
1

> <s_lp_Force_Field>
OPLS_2005

> <r_lp_Energy>
13.511777

> <b_lp_Chiralities_Consistent>
1

> <s_lp_Variant>
CHEMBL3474_lig65-1

> <s_i_glide_gridfile>
glide-grid_1kvo

> <i_i_glide_lignum>
105

> <i_i_glide_rotatable_bonds>
8

> <r_i_docking_score>
-8.24798710972563

> <r_i_glide_ligand_efficiency>
-0.317230273450986

> <r_i_glide_ligand_efficiency_sa>
-0.939793436857695

> <r_i_glide_ligand_efficiency_ln>
-1.93701270886593

> <r_i_glide_gscore>
-8.24798710972563

> <r_i_glide_lipo>
-3.51049654068339

> <r_i_glide_hbond>
-0.577000559036718

> <r_i_glide_metal>
0

> <r_i_glide_rewards>
-1.27325427602668

> <r_i_glide_evdw>
-38.3790855407715

> <r_i_glide_ecoul>
-11.015453338623

> <r_i_glide_erotb>
0.783985111336564

> <r_i_glide_esite>
-0.0999485674833794

> <r_i_glide_emodel>
-74.9583160720848

> <r_i_glide_energy>
-49.3945388793945

> <r_i_glide_einternal>
4.74792432785034

> <i_i_glide_confnum>
17

> <i_i_glide_posenum>
386

> <r_i_glide_eff_state_penalty>
0

> <s_user_duplicate_titles>
CHEMBL3474_lig65,247523

> <s_m_subgroup_title>
dock_pv

> <s_m_subgroupid>
dock_pv

> <b_m_subgroup_collapsed>
1

$$$$
CHEMBL3474_lig58
                    3D
 Schrodinger Suite 2021-1.
 59 62  0  0  1  0            999 V2000
  -40.0123   62.1239   35.1894 N   0  0  0  0  0  0
  -38.8078   62.7390   33.3721 C   0  0  0  0  0  0
  -38.9883   61.7578   34.3224 C   0  0  0  0  0  0
  -39.6269   63.8261   33.7896 C   0  0  0  0  0  0
  -40.4037   63.4187   34.9013 C   0  0  0  0  0  0
  -38.4151   66.7158   29.7801 C   0  0  0  0  0  0
  -37.9845   62.6593   32.0908 C   0  0  0  0  0  0
  -40.6560   61.2863   36.2077 C   0  0  0  0  0  0
  -38.5201   67.9023   30.7117 C   0  0  0  0  0  0
  -41.3685   64.2619   35.4765 C   0  0  0  0  0  0
  -36.7898   63.6065   31.9677 C   0  0  0  0  0  0
  -39.8090   65.1017   33.2838 C   0  0  0  0  0  0
  -39.5903   68.1183   31.6134 C   0  0  0  0  0  0
  -38.0150   66.8530   28.6414 O   0  0  0  0  0  0
  -36.6758   64.6266   32.6406 O   0  0  0  0  0  0
  -40.8154   67.2118   31.7286 C   0  0  0  0  0  0
  -41.2136   67.0547   33.1008 O   0  0  0  0  0  0
  -40.8517   65.8965   33.7455 C   0  0  0  0  0  0
  -35.8933   63.2981   31.0432 N   0  0  0  0  0  0
  -41.5884   65.4924   34.8547 C   0  0  0  0  0  0
  -38.2532   60.4514   34.4292 C   0  0  0  0  0  0
  -38.7192   65.4908   30.2698 O   0  0  0  0  0  0
  -42.1513   61.0984   35.9514 C   0  0  0  0  0  0
  -37.5457   68.9057   30.5811 C   0  0  0  0  0  0
  -39.6155   69.2942   32.3760 C   0  0  0  0  0  0
  -42.6000   60.6063   34.7204 C   0  0  0  0  0  0
  -43.0786   61.4730   36.9299 C   0  0  0  0  0  0
  -39.0262   59.2711   33.8645 C   0  0  0  0  0  0
  -37.6036   70.0767   31.3313 C   0  0  0  0  0  0
  -38.6400   70.2736   32.2326 C   0  0  0  0  0  0
  -43.9633   60.5002   34.4687 C   0  0  0  0  0  0
  -44.4421   61.3673   36.6779 C   0  0  0  0  0  0
  -44.8758   60.8886   35.4457 C   0  0  0  0  0  0
  -37.6379   61.6388   31.9204 H   0  0  0  0  0  0
  -38.6321   62.8922   31.2449 H   0  0  0  0  0  0
  -40.4908   61.7619   37.1735 H   0  0  0  0  0  0
  -40.1775   60.3095   36.2583 H   0  0  0  0  0  0
  -41.9632   63.9612   36.3259 H   0  0  0  0  0  0
  -39.1712   65.4352   32.4961 H   0  0  0  0  0  0
  -40.7538   66.2652   31.2003 H   0  0  0  0  0  0
  -41.6141   67.6980   31.1845 H   0  0  0  0  0  0
  -35.1524   63.9539   30.8339 H   0  0  0  0  0  0
  -36.0471   62.5108   30.4317 H   0  0  0  0  0  0
  -42.3757   66.1343   35.2229 H   0  0  0  0  0  0
  -37.2831   60.5059   33.9328 H   0  0  0  0  0  0
  -38.0160   60.2580   35.4619 H   0  0  0  0  0  0
  -38.5089   64.8210   29.6064 H   0  0  0  0  0  0
  -36.7380   68.8006   29.8670 H   0  0  0  0  0  0
  -40.4247   69.4720   33.0689 H   0  0  0  0  0  0
  -41.9033   60.3336   33.9432 H   0  0  0  0  0  0
  -42.7481   61.8646   37.8804 H   0  0  0  0  0  0
  -38.5444   58.3549   34.2076 H   0  0  0  0  0  0
  -40.0501   59.2280   34.2273 H   0  0  0  0  0  0
  -39.0537   59.2986   32.7729 H   0  0  0  0  0  0
  -36.8466   70.8371   31.1961 H   0  0  0  0  0  0
  -38.6950   71.1856   32.8084 H   0  0  0  0  0  0
  -44.3149   60.1285   33.5164 H   0  0  0  0  0  0
  -45.1596   61.6619   37.4303 H   0  0  0  0  0  0
  -45.9348   60.8091   35.2451 H   0  0  0  0  0  0
  1  3  1  0  0  0
  1  5  1  0  0  0
  1  8  1  0  0  0
  2  3  2  0  0  0
  2  7  1  0  0  0
  2  4  1  0  0  0
  3 21  1  0  0  0
  4  5  1  0  0  0
  4 12  2  0  0  0
  5 10  2  0  0  0
  6  9  1  0  0  0
  6 14  2  0  0  0
  6 22  1  0  0  0
  7 11  1  0  0  0
  7 34  1  0  0  0
  7 35  1  0  0  0
  8 23  1  0  0  0
  8 36  1  0  0  0
  8 37  1  0  0  0
  9 13  2  0  0  0
  9 24  1  0  0  0
 10 20  1  0  0  0
 10 38  1  0  0  0
 11 15  2  0  0  0
 11 19  1  0  0  0
 12 18  1  0  0  0
 12 39  1  0  0  0
 13 16  1  0  0  0
 13 25  1  0  0  0
 16 17  1  0  0  0
 16 40  1  0  0  0
 16 41  1  0  0  0
 17 18  1  0  0  0
 18 20  2  0  0  0
 19 42  1  0  0  0
 19 43  1  0  0  0
 20 44  1  0  0  0
 21 28  1  0  0  0
 21 45  1  0  0  0
 21 46  1  0  0  0
 22 47  1  0  0  0
 23 26  1  0  0  0
 23 27  2  0  0  0
 24 29  2  0  0  0
 24 48  1  0  0  0
 25 30  2  0  0  0
 25 49  1  0  0  0
 26 31  2  0  0  0
 26 50  1  0  0  0
 27 32  1  0  0  0
 27 51  1  0  0  0
 28 52  1  0  0  0
 28 53  1  0  0  0
 28 54  1  0  0  0
 29 30  1  0  0  0
 29 55  1  0  0  0
 30 56  1  0  0  0
 31 33  1  0  0  0
 31 57  1  0  0  0
 32 33  2  0  0  0
 32 58  1  0  0  0
 33 59  1  0  0  0
M  END
> <s_m_entry_id>
68129

> <s_m_entry_name>
dock_pv.65

> <s_m_Source_Path>
/home/csk/Desktop/cluster/DUD-E-result/pa2ga

> <s_m_Source_File>
dock_pv.maegz

> <i_m_Source_File_Index>
65

> <chembl_id>
CHEMBL342549

> <chembl_pref_name>
None

> <i_lp_mmshare_version>
53161

> <i_f3d_flags>
0

> <r_lp_tautomer_probability>
1

> <s_lp_Force_Field>
OPLS_2005

> <r_lp_Energy>
25.829716

> <b_lp_Chiralities_Consistent>
1

> <s_lp_Variant>
CHEMBL3474_lig58-1

> <s_i_glide_gridfile>
glide-grid_1kvo

> <i_i_glide_lignum>
98

> <i_i_glide_rotatable_bonds>
10

> <r_i_docking_score>
-8.23820842913588

> <r_i_glide_ligand_efficiency>
-0.249642679670784

> <r_i_glide_ligand_efficiency_sa>
-0.80073746434293

> <r_i_glide_ligand_efficiency_ln>
-1.83213489947943

> <r_i_glide_gscore>
-8.23820842913588

> <r_i_glide_lipo>
-3.74792066530294

> <r_i_glide_hbond>
-0.324629745071392

> <r_i_glide_metal>
0

> <r_i_glide_rewards>
-0.762208988554102

> <r_i_glide_evdw>
-48.0484466552734

> <r_i_glide_ecoul>
-10.8956098556519

> <r_i_glide_erotb>
0.714397307429151

> <r_i_glide_esite>
-0.0810825265251431

> <r_i_glide_emodel>
-80.898157850183

> <r_i_glide_energy>
-58.9440565109253

> <r_i_glide_einternal>
11.6562881469727

> <i_i_glide_confnum>
79

> <i_i_glide_posenum>
143

> <r_i_glide_eff_state_penalty>
0

> <s_user_duplicate_titles>
CHEMBL3474_lig58,246807

> <s_m_subgroup_title>
dock_pv

> <s_m_subgroupid>
dock_pv

> <b_m_subgroup_collapsed>
1

$$$$
CHEMBL3474_lig346
                    3D
 Schrodinger Suite 2021-1.
 40 42  0  0  1  0            999 V2000
  -39.3508   65.0294   32.5284 C   0  0  0  0  0  0
  -39.2585   65.6308   31.2868 C   0  0  0  0  0  0
  -39.6374   66.9303   31.4994 N   0  0  0  0  0  0
  -40.0169   67.1619   32.7700 N   0  0  0  0  0  0
  -39.8300   66.0197   33.3935 C   0  0  0  0  0  0
  -43.3255   60.4970   36.6659 F   0  0  0  0  0  0
  -43.8282   61.0266   35.5515 C   0  0  0  0  0  0
  -45.0308   61.5164   35.8454 F   0  0  0  0  0  0
  -41.7389   61.8747   34.6335 C   0  0  0  0  0  0
  -41.0476   60.6595   34.7572 C   0  0  0  0  0  0
  -39.7511   60.5058   34.2655 C   0  0  0  0  0  0
  -41.1358   62.9699   34.0195 C   0  0  0  0  0  0
  -39.8407   62.8169   33.5113 C   0  0  0  0  0  0
  -39.1323   61.5886   33.6261 C   0  0  0  0  0  0
  -37.8585   61.7900   33.0183 C   0  0  0  0  0  0
  -37.8214   63.0908   32.5288 C   0  0  0  0  0  0
  -39.0274   63.7194   32.8392 N   0  0  0  0  0  0
  -36.6884   63.7529   31.9342 C   0  0  0  0  0  0
  -36.0149   63.0360   31.0426 N   0  0  0  0  0  0
  -36.3653   64.8979   32.2429 O   0  0  0  0  0  0
  -43.0244   62.1038   35.0853 O   0  0  0  0  0  0
  -43.9882   60.0974   34.6089 F   0  0  0  0  0  0
  -39.7620   67.9766   30.4906 C   0  0  0  0  0  0
  -39.1964   69.3545   30.9245 C   0  0  0  0  0  0
  -37.6701   69.4239   31.0590 C   0  0  0  0  0  0
  -37.2150   70.6529   30.7012 O   0  0  0  0  0  0
  -36.9534   68.4993   31.4424 O   0  0  0  0  0  0
  -38.9427   65.2788   30.3146 H   0  0  0  0  0  0
  -40.0305   65.9086   34.4489 H   0  0  0  0  0  0
  -41.5068   59.8086   35.2358 H   0  0  0  0  0  0
  -39.2335   59.5634   34.3713 H   0  0  0  0  0  0
  -41.6658   63.9061   33.9314 H   0  0  0  0  0  0
  -37.0530   61.0728   32.9565 H   0  0  0  0  0  0
  -35.2601   63.4861   30.5435 H   0  0  0  0  0  0
  -36.3739   62.1476   30.7276 H   0  0  0  0  0  0
  -40.8192   68.0565   30.2417 H   0  0  0  0  0  0
  -39.2579   67.6359   29.5827 H   0  0  0  0  0  0
  -39.6319   69.6767   31.8704 H   0  0  0  0  0  0
  -39.5160   70.0950   30.1891 H   0  0  0  0  0  0
  -36.2423   70.6628   30.6430 H   0  0  0  0  0  0
  1  2  2  0  0  0
  1  5  1  0  0  0
  1 17  1  0  0  0
  2  3  1  0  0  0
  2 28  1  0  0  0
  3  4  1  0  0  0
  3 23  1  0  0  0
  4  5  2  0  0  0
  5 29  1  0  0  0
  6  7  1  0  0  0
  7  8  1  0  0  0
  7 21  1  0  0  0
  7 22  1  0  0  0
  9 10  2  0  0  0
  9 12  1  0  0  0
  9 21  1  0  0  0
 10 11  1  0  0  0
 10 30  1  0  0  0
 11 14  2  0  0  0
 11 31  1  0  0  0
 12 13  2  0  0  0
 12 32  1  0  0  0
 13 14  1  0  0  0
 13 17  1  0  0  0
 14 15  1  0  0  0
 15 16  2  0  0  0
 15 33  1  0  0  0
 16 17  1  0  0  0
 16 18  1  0  0  0
 18 19  1  0  0  0
 18 20  2  0  0  0
 19 34  1  0  0  0
 19 35  1  0  0  0
 23 24  1  0  0  0
 23 36  1  0  0  0
 23 37  1  0  0  0
 24 25  1  0  0  0
 24 38  1  0  0  0
 24 39  1  0  0  0
 25 26  1  0  0  0
 25 27  2  0  0  0
 26 40  1  0  0  0
M  END
> <s_m_entry_id>
68130

> <s_m_entry_name>
dock_pv.66

> <s_m_Source_Path>
/home/csk/Desktop/cluster/DUD-E-result/pa2ga

> <s_m_Source_File>
dock_pv.maegz

> <i_m_Source_File_Index>
66

> <chembl_id>
CHEMBL4204365

> <chembl_pref_name>
None

> <i_lp_mmshare_version>
53161

> <i_f3d_flags>
0

> <r_lp_tautomer_probability>
1

> <s_lp_Force_Field>
OPLS_2005

> <r_lp_Energy>
15.93517

> <b_lp_Chiralities_Consistent>
1

> <s_lp_Variant>
CHEMBL3474_lig346-1

> <s_i_glide_gridfile>
glide-grid_1kvo

> <i_i_glide_lignum>
435

> <i_i_glide_rotatable_bonds>
8

> <r_i_docking_score>
-8.22345319127661

> <r_i_glide_ligand_efficiency>
-0.304572340417652

> <r_i_glide_ligand_efficiency_sa>
-0.913717020249136

> <r_i_glide_ligand_efficiency_ln>
-1.91428432870764

> <r_i_glide_gscore>
-8.22345319127661

> <r_i_glide_lipo>
-2.3618898753827

> <r_i_glide_hbond>
-0.197139752792168

> <r_i_glide_metal>
0

> <r_i_glide_rewards>
-2.0759717622744

> <r_i_glide_evdw>
-42.6527900695801

> <r_i_glide_ecoul>
-13.3047113418579

> <r_i_glide_erotb>
0.6643955096788

> <r_i_glide_esite>
-0.12450110574845

> <r_i_glide_emodel>
-84.557284507267

> <r_i_glide_energy>
-55.957501411438

> <r_i_glide_einternal>
10.2364778518677

> <i_i_glide_confnum>
105

> <i_i_glide_posenum>
340

> <r_i_glide_eff_state_penalty>
0

> <s_user_duplicate_titles>
CHEMBL3474_lig346

> <s_m_subgroup_title>
dock_pv

> <s_m_subgroupid>
dock_pv

> <b_m_subgroup_collapsed>
1

$$$$
CHEMBL3474_lig212
                    3D
 Schrodinger Suite 2021-1.
 52 55  0  0  1  0            999 V2000
  -38.6298   62.6614   33.1407 C   0  0  0  0  0  0
  -40.0193   62.4112   34.9003 N   0  0  0  0  0  0
  -39.4531   63.8497   33.2404 C   0  0  0  0  0  0
  -39.1348   61.7482   34.0613 C   0  0  0  0  0  0
  -40.2341   63.7049   34.4304 C   0  0  0  0  0  0
  -37.4872   62.4249   32.2414 C   0  0  0  0  0  0
  -39.6360   65.0146   32.4535 C   0  0  0  0  0  0
  -40.6752   61.8121   36.0732 C   0  0  0  0  0  0
  -41.0449   64.7544   34.9078 C   0  0  0  0  0  0
  -36.5823   63.6622   31.8364 C   0  0  0  0  0  0
  -41.1014   65.9274   34.1534 C   0  0  0  0  0  0
  -42.1531   61.4625   35.9074 C   0  0  0  0  0  0
  -40.4531   66.0411   32.9328 C   0  0  0  0  0  0
  -39.0223   65.0083   31.2143 O   0  0  0  0  0  0
  -38.3122   67.2509   30.4928 C   0  0  0  0  0  0
  -37.0998   61.2981   31.9236 O   0  0  0  0  0  0
  -42.6554   60.8707   34.7380 C   0  0  0  0  0  0
  -36.4150   64.6367   32.5672 O   0  0  0  0  0  0
  -37.6155   67.4099   31.4954 O   0  0  0  0  0  0
  -36.0156   63.5265   30.6431 N   0  0  0  0  0  0
  -39.2377   66.0456   30.2520 C   0  0  0  0  0  0
  -38.7770   60.2857   34.2941 C   0  0  0  0  0  0
  -41.8438   60.5629   33.7024 F   0  0  0  0  0  0
  -38.3420   68.1149   29.4379 O   0  0  0  0  0  0
  -41.9743   64.8575   36.1001 C   0  0  0  0  0  0
  -42.0443   66.9177   34.7998 C   0  0  0  0  0  0
  -43.0318   61.7351   36.9637 C   0  0  0  0  0  0
  -42.2668   66.3510   36.1995 C   0  0  0  0  0  0
  -44.0147   60.5914   34.6257 C   0  0  0  0  0  0
  -44.3924   61.4585   36.8455 C   0  0  0  0  0  0
  -44.8852   60.8954   35.6716 C   0  0  0  0  0  0
  -40.5555   62.5184   36.8932 H   0  0  0  0  0  0
  -40.1338   60.9240   36.3991 H   0  0  0  0  0  0
  -40.5874   66.9420   32.3565 H   0  0  0  0  0  0
  -35.4790   64.2988   30.2531 H   0  0  0  0  0  0
  -36.2355   62.7229   30.0728 H   0  0  0  0  0  0
  -39.0054   65.6181   29.2765 H   0  0  0  0  0  0
  -40.2836   66.3530   30.2189 H   0  0  0  0  0  0
  -38.3904   59.7961   33.4022 H   0  0  0  0  0  0
  -38.0171   60.1881   35.0643 H   0  0  0  0  0  0
  -39.6314   59.6804   34.5953 H   0  0  0  0  0  0
  -38.8452   67.7838   28.6924 H   0  0  0  0  0  0
  -42.8958   64.3049   35.9162 H   0  0  0  0  0  0
  -41.5462   64.4945   37.0336 H   0  0  0  0  0  0
  -41.6475   67.9331   34.8394 H   0  0  0  0  0  0
  -42.9892   66.9473   34.2572 H   0  0  0  0  0  0
  -42.6650   62.1751   37.8801 H   0  0  0  0  0  0
  -41.5589   66.8115   36.8916 H   0  0  0  0  0  0
  -43.2669   66.5574   36.5838 H   0  0  0  0  0  0
  -44.3974   60.1405   33.7213 H   0  0  0  0  0  0
  -45.0633   61.6817   37.6625 H   0  0  0  0  0  0
  -45.9393   60.6790   35.5738 H   0  0  0  0  0  0
  1  3  1  0  0  0
  1  4  2  0  0  0
  1  6  1  0  0  0
  2  4  1  0  0  0
  2  8  1  0  0  0
  2  5  1  0  0  0
  3  5  1  0  0  0
  3  7  2  0  0  0
  4 22  1  0  0  0
  5  9  2  0  0  0
  6 10  1  0  0  0
  6 16  2  0  0  0
  7 13  1  0  0  0
  7 14  1  0  0  0
  8 12  1  0  0  0
  8 32  1  0  0  0
  8 33  1  0  0  0
  9 25  1  0  0  0
  9 11  1  0  0  0
 10 18  2  0  0  0
 10 20  1  0  0  0
 11 13  2  0  0  0
 11 26  1  0  0  0
 12 17  2  0  0  0
 12 27  1  0  0  0
 13 34  1  0  0  0
 14 21  1  0  0  0
 15 21  1  0  0  0
 15 19  2  0  0  0
 15 24  1  0  0  0
 17 23  1  0  0  0
 17 29  1  0  0  0
 20 35  1  0  0  0
 20 36  1  0  0  0
 21 37  1  0  0  0
 21 38  1  0  0  0
 22 39  1  0  0  0
 22 40  1  0  0  0
 22 41  1  0  0  0
 24 42  1  0  0  0
 25 28  1  0  0  0
 25 43  1  0  0  0
 25 44  1  0  0  0
 26 28  1  0  0  0
 26 45  1  0  0  0
 26 46  1  0  0  0
 27 30  2  0  0  0
 27 47  1  0  0  0
 28 48  1  0  0  0
 28 49  1  0  0  0
 29 31  2  0  0  0
 29 50  1  0  0  0
 30 31  1  0  0  0
 30 51  1  0  0  0
 31 52  1  0  0  0
M  END
> <s_m_entry_id>
68131

> <s_m_entry_name>
dock_pv.67

> <s_m_Source_Path>
/home/csk/Desktop/cluster/DUD-E-result/pa2ga

> <s_m_Source_File>
dock_pv.maegz

> <i_m_Source_File_Index>
67

> <chembl_id>
CHEMBL179118

> <chembl_pref_name>
None

> <i_lp_mmshare_version>
53161

> <i_f3d_flags>
0

> <r_lp_tautomer_probability>
1

> <s_lp_Force_Field>
OPLS_2005

> <r_lp_Energy>
55.864818

> <b_lp_Chiralities_Consistent>
1

> <s_lp_Variant>
CHEMBL3474_lig212-1

> <s_i_glide_gridfile>
glide-grid_1kvo

> <i_i_glide_lignum>
274

> <i_i_glide_rotatable_bonds>
8

> <r_i_docking_score>
-8.21863303149365

> <r_i_glide_ligand_efficiency>
-0.265117194564311

> <r_i_glide_ligand_efficiency_sa>
-0.832834024667298

> <r_i_glide_ligand_efficiency_ln>
-1.85355361945569

> <r_i_glide_gscore>
-8.21863303149365

> <r_i_glide_lipo>
-3.35815018391409

> <r_i_glide_hbond>
-0.448038304028912

> <r_i_glide_metal>
0

> <r_i_glide_rewards>
-1.39481753914172

> <r_i_glide_evdw>
-47.0699806213379

> <r_i_glide_ecoul>
-8.15194606781006

> <r_i_glide_erotb>
0.660448876420079

> <r_i_glide_esite>
-0.101784939590605

> <r_i_glide_emodel>
-81.1202463535359

> <r_i_glide_energy>
-55.2219266891479

> <r_i_glide_einternal>
9.01095676422119

> <i_i_glide_confnum>
41

> <i_i_glide_posenum>
197

> <r_i_glide_eff_state_penalty>
0

> <s_user_duplicate_titles>
CHEMBL3474_lig212,299361

> <s_m_subgroup_title>
dock_pv

> <s_m_subgroupid>
dock_pv

> <b_m_subgroup_collapsed>
1

$$$$
CHEMBL3474_lig44
                    3D
 Schrodinger Suite 2021-1.
 50 52  0  0  1  0            999 V2000
  -40.0958   62.5225   34.9105 N   0  0  0  0  0  0
  -38.8882   62.3482   33.0107 C   0  0  0  0  0  0
  -39.3640   61.6546   34.1130 C   0  0  0  0  0  0
  -39.3164   63.7019   33.1555 C   0  0  0  0  0  0
  -40.1017   63.7859   34.3355 C   0  0  0  0  0  0
  -38.0637   61.8327   31.8431 C   0  0  0  0  0  0
  -40.8139   62.1524   36.1367 C   0  0  0  0  0  0
  -40.6940   64.9938   34.7335 C   0  0  0  0  0  0
  -36.5986   62.1477   32.0059 C   0  0  0  0  0  0
  -37.6035   69.7295   31.3946 C   0  0  0  0  0  0
  -39.1003   64.8536   32.3886 C   0  0  0  0  0  0
  -39.1367   69.6420   31.4822 C   0  0  0  0  0  0
  -36.0151   61.7215   32.9889 O   0  0  0  0  0  0
  -36.8151   68.8981   31.8430 O   0  0  0  0  0  0
  -39.6310   66.0666   32.8070 C   0  0  0  0  0  0
  -36.0151   62.9050   31.0776 N   0  0  0  0  0  0
  -39.2954   67.1852   32.0316 N   0  0  0  0  0  0
  -40.4255   66.1247   33.9578 C   0  0  0  0  0  0
  -39.1745   60.1964   34.4883 C   0  0  0  0  0  0
  -39.7268   68.5311   32.3827 C   0  0  0  0  0  0
  -42.2666   61.7290   35.9488 C   0  0  0  0  0  0
  -37.2150   70.8581   30.7442 O   0  0  0  0  0  0
  -43.1649   61.9127   37.0038 C   0  0  0  0  0  0
  -42.6982   61.1170   34.7659 C   0  0  0  0  0  0
  -44.0160   60.6996   34.6407 C   0  0  0  0  0  0
  -44.4878   61.5005   36.8754 C   0  0  0  0  0  0
  -44.9068   60.8979   35.6921 C   0  0  0  0  0  0
  -38.1447   60.7512   31.7290 H   0  0  0  0  0  0
  -38.4149   62.2700   30.9083 H   0  0  0  0  0  0
  -40.7697   63.0092   36.8112 H   0  0  0  0  0  0
  -40.2803   61.3459   36.6404 H   0  0  0  0  0  0
  -41.3038   65.0658   35.6223 H   0  0  0  0  0  0
  -38.4937   64.7997   31.4964 H   0  0  0  0  0  0
  -39.5114   69.5159   30.4665 H   0  0  0  0  0  0
  -39.5087   70.6066   31.8304 H   0  0  0  0  0  0
  -35.0418   63.1462   31.1618 H   0  0  0  0  0  0
  -36.5416   63.2265   30.2752 H   0  0  0  0  0  0
  -39.1042   67.0039   31.0561 H   0  0  0  0  0  0
  -40.8500   67.0644   34.2760 H   0  0  0  0  0  0
  -38.5769   59.6534   33.7568 H   0  0  0  0  0  0
  -38.6600   60.0982   35.4427 H   0  0  0  0  0  0
  -40.1215   59.6642   34.5774 H   0  0  0  0  0  0
  -40.8153   68.5566   32.3405 H   0  0  0  0  0  0
  -39.4857   68.7157   33.4302 H   0  0  0  0  0  0
  -36.2448   70.8861   30.6429 H   0  0  0  0  0  0
  -42.8408   62.3692   37.9284 H   0  0  0  0  0  0
  -42.0231   60.9525   33.9405 H   0  0  0  0  0  0
  -44.3524   60.2268   33.7288 H   0  0  0  0  0  0
  -45.1831   61.6409   37.6909 H   0  0  0  0  0  0
  -45.9324   60.5720   35.5887 H   0  0  0  0  0  0
  1  3  1  0  0  0
  1  5  1  0  0  0
  1  7  1  0  0  0
  2  3  2  0  0  0
  2  6  1  0  0  0
  2  4  1  0  0  0
  3 19  1  0  0  0
  4  5  1  0  0  0
  4 11  2  0  0  0
  5  8  2  0  0  0
  6  9  1  0  0  0
  6 28  1  0  0  0
  6 29  1  0  0  0
  7 21  1  0  0  0
  7 30  1  0  0  0
  7 31  1  0  0  0
  8 18  1  0  0  0
  8 32  1  0  0  0
  9 13  2  0  0  0
  9 16  1  0  0  0
 10 12  1  0  0  0
 10 14  2  0  0  0
 10 22  1  0  0  0
 11 15  1  0  0  0
 11 33  1  0  0  0
 12 20  1  0  0  0
 12 34  1  0  0  0
 12 35  1  0  0  0
 15 18  2  0  0  0
 15 17  1  0  0  0
 16 36  1  0  0  0
 16 37  1  0  0  0
 17 20  1  0  0  0
 17 38  1  0  0  0
 18 39  1  0  0  0
 19 40  1  0  0  0
 19 41  1  0  0  0
 19 42  1  0  0  0
 20 43  1  0  0  0
 20 44  1  0  0  0
 21 23  1  0  0  0
 21 24  2  0  0  0
 22 45  1  0  0  0
 23 26  2  0  0  0
 23 46  1  0  0  0
 24 25  1  0  0  0
 24 47  1  0  0  0
 25 27  2  0  0  0
 25 48  1  0  0  0
 26 27  1  0  0  0
 26 49  1  0  0  0
 27 50  1  0  0  0
M  END
> <s_m_entry_id>
68132

> <s_m_entry_name>
dock_pv.68

> <s_m_Source_Path>
/home/csk/Desktop/cluster/DUD-E-result/pa2ga

> <s_m_Source_File>
dock_pv.maegz

> <i_m_Source_File_Index>
68

> <chembl_id>
CHEMBL149654

> <chembl_pref_name>
None

> <i_lp_mmshare_version>
53161

> <i_f3d_flags>
0

> <r_lp_tautomer_probability>
1

> <s_lp_Force_Field>
OPLS_2005

> <r_lp_Energy>
10.320436

> <b_lp_Chiralities_Consistent>
1

> <s_lp_Variant>
CHEMBL3474_lig44-1

> <s_i_glide_gridfile>
glide-grid_1kvo

> <i_i_glide_lignum>
84

> <i_i_glide_rotatable_bonds>
9

> <r_i_docking_score>
-8.2171191165381

> <r_i_glide_ligand_efficiency>
-0.304337745056967

> <r_i_glide_ligand_efficiency_sa>
-0.913013234167853

> <r_i_glide_ligand_efficiency_ln>
-1.91280986053389

> <r_i_glide_gscore>
-8.2171191165381

> <r_i_glide_lipo>
-3.2947995547543

> <r_i_glide_hbond>
-0.103196759527349

> <r_i_glide_metal>
0

> <r_i_glide_rewards>
-1.61403854321664

> <r_i_glide_evdw>
-39.2398223876953

> <r_i_glide_ecoul>
-14.6032047271729

> <r_i_glide_erotb>
1.00835822694244

> <r_i_glide_esite>
-0.060970657521557

> <r_i_glide_emodel>
-85.742132590082

> <r_i_glide_energy>
-53.8430271148682

> <r_i_glide_einternal>
2.89584517478943

> <i_i_glide_confnum>
61

> <i_i_glide_posenum>
385

> <r_i_glide_eff_state_penalty>
0

> <s_user_duplicate_titles>
CHEMBL3474_lig44

> <s_m_subgroup_title>
dock_pv

> <s_m_subgroupid>
dock_pv

> <b_m_subgroup_collapsed>
1

$$$$
CHEMBL3474_lig340
                    3D
 Schrodinger Suite 2021-1.
 43 45  0  0  1  0            999 V2000
  -40.5044   66.6248   34.1905 C   0  0  0  0  0  0
  -40.0725   65.3000   34.1731 C   0  0  0  0  0  0
  -39.5685   64.7366   32.9943 C   0  0  0  0  0  0
  -39.5779   65.4957   31.8158 C   0  0  0  0  0  0
  -39.9988   66.8292   31.8305 C   0  0  0  0  0  0
  -40.4508   67.3912   33.0280 C   0  0  0  0  0  0
  -39.9875   67.6431   30.5398 C   0  0  0  0  0  0
  -39.3074   69.0391   30.6019 C   0  0  0  0  0  0
  -37.8053   69.0339   30.9145 C   0  0  0  0  0  0
  -37.2150   70.2049   30.5479 O   0  0  0  0  0  0
  -37.2150   68.0979   31.4431 O   0  0  0  0  0  0
  -39.0534   63.4111   32.9963 N   0  0  0  0  0  0
  -37.6592   61.6466   32.7480 C   0  0  0  0  0  0
  -37.8257   62.9948   32.4667 C   0  0  0  0  0  0
  -36.8146   63.8612   31.9006 C   0  0  0  0  0  0
  -36.0150   63.2969   31.0065 N   0  0  0  0  0  0
  -36.6573   65.0272   32.2430 O   0  0  0  0  0  0
  -38.8087   61.1951   33.4464 C   0  0  0  0  0  0
  -39.6872   62.3093   33.5783 C   0  0  0  0  0  0
  -40.9388   62.1791   34.2092 C   0  0  0  0  0  0
  -41.2779   60.9258   34.7462 C   0  0  0  0  0  0
  -40.3970   59.8552   34.6432 C   0  0  0  0  0  0
  -39.1778   59.9604   33.9853 C   0  0  0  0  0  0
  -42.4544   60.6692   35.4204 O   0  0  0  0  0  0
  -43.5900   61.4901   35.1722 C   0  0  0  0  0  0
  -44.6834   60.8372   35.5603 F   0  0  0  0  0  0
  -43.5144   62.6399   35.8436 F   0  0  0  0  0  0
  -40.8707   67.0603   35.1088 H   0  0  0  0  0  0
  -40.0956   64.7307   35.0913 H   0  0  0  0  0  0
  -39.2231   65.0599   30.8914 H   0  0  0  0  0  0
  -40.7878   68.4159   33.0594 H   0  0  0  0  0  0
  -41.0298   67.7589   30.2429 H   0  0  0  0  0  0
  -39.5258   67.0600   29.7403 H   0  0  0  0  0  0
  -39.7869   69.6670   31.3513 H   0  0  0  0  0  0
  -39.4528   69.5380   29.6422 H   0  0  0  0  0  0
  -36.2439   70.2060   30.6429 H   0  0  0  0  0  0
  -36.7863   61.0588   32.5049 H   0  0  0  0  0  0
  -35.3348   63.8874   30.5436 H   0  0  0  0  0  0
  -36.2411   62.3919   30.6239 H   0  0  0  0  0  0
  -41.6060   63.0221   34.2951 H   0  0  0  0  0  0
  -40.6741   58.9104   35.0799 H   0  0  0  0  0  0
  -38.5227   59.1057   33.9023 H   0  0  0  0  0  0
  -43.7289   61.6978   34.1111 H   0  0  0  0  0  0
  1  2  2  0  0  0
  1  6  1  0  0  0
  1 28  1  0  0  0
  2  3  1  0  0  0
  2 29  1  0  0  0
  3  4  2  0  0  0
  3 12  1  0  0  0
  4  5  1  0  0  0
  4 30  1  0  0  0
  5  6  2  0  0  0
  5  7  1  0  0  0
  6 31  1  0  0  0
  7  8  1  0  0  0
  7 32  1  0  0  0
  7 33  1  0  0  0
  8  9  1  0  0  0
  8 34  1  0  0  0
  8 35  1  0  0  0
  9 10  1  0  0  0
  9 11  2  0  0  0
 10 36  1  0  0  0
 12 19  1  0  0  0
 12 14  1  0  0  0
 13 18  1  0  0  0
 13 14  2  0  0  0
 13 37  1  0  0  0
 14 15  1  0  0  0
 15 16  1  0  0  0
 15 17  2  0  0  0
 16 38  1  0  0  0
 16 39  1  0  0  0
 18 19  2  0  0  0
 18 23  1  0  0  0
 19 20  1  0  0  0
 20 21  2  0  0  0
 20 40  1  0  0  0
 21 22  1  0  0  0
 21 24  1  0  0  0
 22 23  2  0  0  0
 22 41  1  0  0  0
 23 42  1  0  0  0
 24 25  1  0  0  0
 25 26  1  0  0  0
 25 27  1  0  0  0
 25 43  1  0  0  0
M  END
> <s_m_entry_id>
68133

> <s_m_entry_name>
dock_pv.69

> <s_m_Source_Path>
/home/csk/Desktop/cluster/DUD-E-result/pa2ga

> <s_m_Source_File>
dock_pv.maegz

> <i_m_Source_File_Index>
69

> <chembl_id>
CHEMBL4160483

> <chembl_pref_name>
None

> <i_lp_mmshare_version>
53161

> <i_f3d_flags>
0

> <r_lp_tautomer_probability>
1

> <s_lp_Force_Field>
OPLS_2005

> <r_lp_Energy>
13.400106

> <b_lp_Chiralities_Consistent>
1

> <s_lp_Variant>
CHEMBL3474_lig340-1

> <s_i_glide_gridfile>
glide-grid_1kvo

> <i_i_glide_lignum>
429

> <i_i_glide_rotatable_bonds>
8

> <r_i_docking_score>
-8.21042573876419

> <r_i_glide_ligand_efficiency>
-0.304089842176451

> <r_i_glide_ligand_efficiency_sa>
-0.912269525527124

> <r_i_glide_ligand_efficiency_ln>
-1.91125175253708

> <r_i_glide_gscore>
-8.21042573876419

> <r_i_glide_lipo>
-3.11079265695403

> <r_i_glide_hbond>
-0.180850851505726

> <r_i_glide_metal>
0

> <r_i_glide_rewards>
-1.59298374162285

> <r_i_glide_evdw>
-41.7676582336426

> <r_i_glide_ecoul>
-11.9547452926636

> <r_i_glide_erotb>
0.689896516175891

> <r_i_glide_esite>
-0.134100299275813

> <r_i_glide_emodel>
-84.3445586078376

> <r_i_glide_energy>
-53.7224035263062

> <r_i_glide_einternal>
4.1043643951416

> <i_i_glide_confnum>
68

> <i_i_glide_posenum>
268

> <r_i_glide_eff_state_penalty>
0

> <s_user_duplicate_titles>
CHEMBL3474_lig340

> <s_m_subgroup_title>
dock_pv

> <s_m_subgroupid>
dock_pv

> <b_m_subgroup_collapsed>
1

$$$$
CHEMBL3474_lig350
                    3D
 Schrodinger Suite 2021-1.
 47 49  0  0  1  0            999 V2000
  -44.8378   60.7253   35.7483 F   0  0  0  0  0  0
  -43.5814   60.3729   35.4820 C   0  0  0  0  0  0
  -43.6125   59.2973   34.6932 F   0  0  0  0  0  0
  -41.6408   61.3732   34.4235 C   0  0  0  0  0  0
  -40.8592   60.2095   34.4798 C   0  0  0  0  0  0
  -39.5560   60.1823   33.9873 C   0  0  0  0  0  0
  -41.1111   62.5526   33.9143 C   0  0  0  0  0  0
  -39.7923   62.5437   33.4435 C   0  0  0  0  0  0
  -39.0144   61.3539   33.4432 C   0  0  0  0  0  0
  -37.7737   61.6805   32.8327 C   0  0  0  0  0  0
  -37.8099   63.0223   32.4676 C   0  0  0  0  0  0
  -39.0094   63.5733   32.9238 N   0  0  0  0  0  0
  -39.4265   64.9344   32.9061 C   0  0  0  0  0  0
  -39.3346   65.7165   31.7459 C   0  0  0  0  0  0
  -39.8127   67.0349   31.7401 C   0  0  0  0  0  0
  -40.3994   67.5573   32.8984 C   0  0  0  0  0  0
  -40.4929   66.7884   34.0530 C   0  0  0  0  0  0
  -40.0148   65.4833   34.0536 C   0  0  0  0  0  0
  -36.7129   63.7607   31.8989 C   0  0  0  0  0  0
  -36.0149   63.1034   30.9854 N   0  0  0  0  0  0
  -36.4152   64.8980   32.2433 O   0  0  0  0  0  0
  -39.7716   67.8648   30.4585 C   0  0  0  0  0  0
  -39.0287   69.2268   30.5170 C   0  0  2  0  0  0
  -37.5068   69.0821   30.7489 C   0  0  0  0  0  0
  -36.8155   69.2980   29.5981 O   0  0  0  0  0  0
  -36.9696   68.8979   31.8431 O   0  0  0  0  0  0
  -42.9545   61.4686   34.8339 O   0  0  0  0  0  0
  -42.9805   60.1030   36.6396 F   0  0  0  0  0  0
  -39.6147   70.0600   31.5265 O   0  0  0  0  0  0
  -39.3012   71.4496   31.4595 C   0  0  0  0  0  0
  -41.2553   59.2977   34.8965 H   0  0  0  0  0  0
  -38.9809   59.2685   34.0139 H   0  0  0  0  0  0
  -41.7239   63.4404   33.8819 H   0  0  0  0  0  0
  -36.9403   61.0110   32.6770 H   0  0  0  0  0  0
  -38.9128   65.2954   30.8426 H   0  0  0  0  0  0
  -40.8032   68.5552   32.9140 H   0  0  0  0  0  0
  -40.9464   67.1999   34.9429 H   0  0  0  0  0  0
  -40.1016   64.9017   34.9613 H   0  0  0  0  0  0
  -35.2753   63.5957   30.5023 H   0  0  0  0  0  0
  -36.3562   62.2246   30.6271 H   0  0  0  0  0  0
  -40.8074   68.0483   30.1763 H   0  0  0  0  0  0
  -39.3588   67.2643   29.6454 H   0  0  0  0  0  0
  -39.1920   69.7045   29.5462 H   0  0  0  0  0  0
  -35.9036   69.5527   29.8065 H   0  0  0  0  0  0
  -39.8334   71.9759   32.2517 H   0  0  0  0  0  0
  -39.6103   71.8789   30.5057 H   0  0  0  0  0  0
  -38.2363   71.6366   31.6011 H   0  0  0  0  0  0
  1  2  1  0  0  0
  2  3  1  0  0  0
  2 27  1  0  0  0
  2 28  1  0  0  0
  4  5  2  0  0  0
  4  7  1  0  0  0
  4 27  1  0  0  0
  5  6  1  0  0  0
  5 31  1  0  0  0
  6  9  2  0  0  0
  6 32  1  0  0  0
  7  8  2  0  0  0
  7 33  1  0  0  0
  8  9  1  0  0  0
  8 12  1  0  0  0
  9 10  1  0  0  0
 10 11  2  0  0  0
 10 34  1  0  0  0
 11 12  1  0  0  0
 11 19  1  0  0  0
 12 13  1  0  0  0
 13 14  2  0  0  0
 13 18  1  0  0  0
 14 15  1  0  0  0
 14 35  1  0  0  0
 15 16  2  0  0  0
 15 22  1  0  0  0
 16 17  1  0  0  0
 16 36  1  0  0  0
 17 18  2  0  0  0
 17 37  1  0  0  0
 18 38  1  0  0  0
 19 20  1  0  0  0
 19 21  2  0  0  0
 20 39  1  0  0  0
 20 40  1  0  0  0
 22 23  1  0  0  0
 22 41  1  0  0  0
 22 42  1  0  0  0
 23 24  1  0  0  0
 23 29  1  0  0  0
 23 43  1  0  0  0
 24 25  1  0  0  0
 24 26  2  0  0  0
 25 44  1  0  0  0
 29 30  1  0  0  0
 30 45  1  0  0  0
 30 46  1  0  0  0
 30 47  1  0  0  0
M  END
> <s_m_entry_id>
68134

> <s_m_entry_name>
dock_pv.70

> <s_m_Source_Path>
/home/csk/Desktop/cluster/DUD-E-result/pa2ga

> <s_m_Source_File>
dock_pv.maegz

> <i_m_Source_File_Index>
70

> <chembl_id>
CHEMBL4204172

> <chembl_pref_name>
None

> <i_lp_mmshare_version>
53161

> <i_f3d_flags>
0

> <r_lp_tautomer_probability>
1

> <s_lp_Force_Field>
OPLS_2005

> <r_lp_Energy>
16.910102

> <b_lp_Chiralities_Consistent>
1

> <s_lp_Variant>
CHEMBL3474_lig350-1

> <s_i_glide_gridfile>
glide-grid_1kvo

> <i_i_glide_lignum>
440

> <i_i_glide_rotatable_bonds>
9

> <r_i_docking_score>
-8.19607141878622

> <r_i_glide_ligand_efficiency>
-0.273202380626207

> <r_i_glide_ligand_efficiency_sa>
-0.848903316823301

> <r_i_glide_ligand_efficiency_ln>
-1.86223672969897

> <r_i_glide_gscore>
-8.19607141878622

> <r_i_glide_lipo>
-2.99769293668599

> <r_i_glide_hbond>
-0.199428983273587

> <r_i_glide_metal>
0

> <r_i_glide_rewards>
-1.66093654515436

> <r_i_glide_evdw>
-44.992618560791

> <r_i_glide_ecoul>
-10.1302280426025

> <r_i_glide_erotb>
0.55525625166263

> <r_i_glide_esite>
-0.124104070904989

> <r_i_glide_emodel>
-82.8277483619452

> <r_i_glide_energy>
-55.1228466033936

> <r_i_glide_einternal>
9.32894420623779

> <i_i_glide_confnum>
48

> <i_i_glide_posenum>
297

> <r_i_glide_eff_state_penalty>
0

> <s_user_duplicate_titles>
CHEMBL3474_lig350

> <s_m_subgroup_title>
dock_pv

> <s_m_subgroupid>
dock_pv

> <b_m_subgroup_collapsed>
1

$$$$
CHEMBL3474_lig339
                    3D
 Schrodinger Suite 2021-1.
 40 42  0  0  1  0            999 V2000
  -40.4311   66.7783   34.1422 C   0  0  0  0  0  0
  -40.0151   65.4489   34.1339 C   0  0  0  0  0  0
  -39.4608   64.8825   32.9797 C   0  0  0  0  0  0
  -39.3714   65.6587   31.8152 C   0  0  0  0  0  0
  -39.7849   66.9961   31.8189 C   0  0  0  0  0  0
  -40.3161   67.5499   32.9890 C   0  0  0  0  0  0
  -39.7286   67.8103   30.5309 C   0  0  0  0  0  0
  -39.1664   69.2524   30.6365 C   0  0  0  0  0  0
  -37.6686   69.3802   30.9463 C   0  0  0  0  0  0
  -37.2150   70.6126   30.5943 O   0  0  0  0  0  0
  -36.9684   68.4979   31.4432 O   0  0  0  0  0  0
  -39.0476   63.5206   32.9889 N   0  0  0  0  0  0
  -37.8059   61.6363   32.8244 C   0  0  0  0  0  0
  -37.8469   62.9883   32.5027 C   0  0  0  0  0  0
  -36.7531   63.7432   31.9271 C   0  0  0  0  0  0
  -36.0148   63.0826   31.0431 N   0  0  0  0  0  0
  -36.4841   64.8979   32.2440 O   0  0  0  0  0  0
  -39.0355   61.2871   33.4429 C   0  0  0  0  0  0
  -39.8147   62.4782   33.5157 C   0  0  0  0  0  0
  -41.1193   62.4610   34.0415 C   0  0  0  0  0  0
  -41.6218   61.2395   34.5005 C   0  0  0  0  0  0
  -40.8514   60.0797   34.4556 C   0  0  0  0  0  0
  -39.5605   60.0878   33.9356 C   0  0  0  0  0  0
  -42.9774   61.1684   35.0290 C   0  0  0  0  0  0
  -44.0547   61.1104   35.4479 N   0  0  0  0  0  0
  -40.8488   67.2071   35.0424 H   0  0  0  0  0  0
  -40.1060   64.8717   35.0428 H   0  0  0  0  0  0
  -38.9827   65.2232   30.9033 H   0  0  0  0  0  0
  -40.6617   68.5711   33.0108 H   0  0  0  0  0  0
  -39.1818   67.2610   29.7610 H   0  0  0  0  0  0
  -40.7576   67.8619   30.1777 H   0  0  0  0  0  0
  -39.3517   69.7547   29.6852 H   0  0  0  0  0  0
  -39.7034   69.8287   31.3894 H   0  0  0  0  0  0
  -36.2413   70.6571   30.6428 H   0  0  0  0  0  0
  -36.9780   60.9696   32.6299 H   0  0  0  0  0  0
  -35.2760   63.5866   30.5708 H   0  0  0  0  0  0
  -36.3204   62.1890   30.6885 H   0  0  0  0  0  0
  -41.7252   63.3549   34.0783 H   0  0  0  0  0  0
  -41.2629   59.1504   34.8178 H   0  0  0  0  0  0
  -38.9827   59.1768   33.8933 H   0  0  0  0  0  0
  1  2  2  0  0  0
  1  6  1  0  0  0
  1 26  1  0  0  0
  2  3  1  0  0  0
  2 27  1  0  0  0
  3  4  2  0  0  0
  3 12  1  0  0  0
  4  5  1  0  0  0
  4 28  1  0  0  0
  5  6  2  0  0  0
  5  7  1  0  0  0
  6 29  1  0  0  0
  7  8  1  0  0  0
  7 30  1  0  0  0
  7 31  1  0  0  0
  8  9  1  0  0  0
  8 32  1  0  0  0
  8 33  1  0  0  0
  9 10  1  0  0  0
  9 11  2  0  0  0
 10 34  1  0  0  0
 12 19  1  0  0  0
 12 14  1  0  0  0
 13 18  1  0  0  0
 13 14  2  0  0  0
 13 35  1  0  0  0
 14 15  1  0  0  0
 15 16  1  0  0  0
 15 17  2  0  0  0
 16 36  1  0  0  0
 16 37  1  0  0  0
 18 19  2  0  0  0
 18 23  1  0  0  0
 19 20  1  0  0  0
 20 21  2  0  0  0
 20 38  1  0  0  0
 21 22  1  0  0  0
 21 24  1  0  0  0
 22 23  2  0  0  0
 22 39  1  0  0  0
 23 40  1  0  0  0
 24 25  3  0  0  0
M  END
> <s_m_entry_id>
68135

> <s_m_entry_name>
dock_pv.71

> <s_m_Source_Path>
/home/csk/Desktop/cluster/DUD-E-result/pa2ga

> <s_m_Source_File>
dock_pv.maegz

> <i_m_Source_File_Index>
71

> <chembl_id>
CHEMBL4174522

> <chembl_pref_name>
None

> <i_lp_mmshare_version>
53161

> <i_f3d_flags>
0

> <r_lp_tautomer_probability>
1

> <s_lp_Force_Field>
OPLS_2005

> <r_lp_Energy>
13.641533

> <b_lp_Chiralities_Consistent>
1

> <s_lp_Variant>
CHEMBL3474_lig339-1

> <s_i_glide_gridfile>
glide-grid_1kvo

> <i_i_glide_lignum>
428

> <i_i_glide_rotatable_bonds>
6

> <r_i_docking_score>
-8.1795053585047

> <r_i_glide_ligand_efficiency>
-0.327180214340188

> <r_i_glide_ligand_efficiency_sa>
-0.956680749296518

> <r_i_glide_ligand_efficiency_ln>
-1.93878788996124

> <r_i_glide_gscore>
-8.1795053585047

> <r_i_glide_lipo>
-2.79060208036297

> <r_i_glide_hbond>
-0.201340737135421

> <r_i_glide_metal>
0

> <r_i_glide_rewards>
-1.7469072046347

> <r_i_glide_evdw>
-42.2981071472168

> <r_i_glide_ecoul>
-12.5590124130249

> <r_i_glide_erotb>
0.678435011397704

> <r_i_glide_esite>
-0.120333128454734

> <r_i_glide_emodel>
-85.128316696

> <r_i_glide_energy>
-54.8571195602417

> <r_i_glide_einternal>
4.43243312835693

> <i_i_glide_confnum>
106

> <i_i_glide_posenum>
241

> <r_i_glide_eff_state_penalty>
0

> <s_user_duplicate_titles>
CHEMBL3474_lig339

> <s_m_subgroup_title>
dock_pv

> <s_m_subgroupid>
dock_pv

> <b_m_subgroup_collapsed>
1

$$$$
CHEMBL3474_lig184
                    3D
 Schrodinger Suite 2021-1.
 46 48  0  0  1  0            999 V2000
  -40.0672   62.6280   34.9568 N   0  0  0  0  0  0
  -38.7967   62.9104   33.1041 C   0  0  0  0  0  0
  -39.0600   62.0712   34.1803 C   0  0  0  0  0  0
  -39.6938   64.0334   33.2198 C   0  0  0  0  0  0
  -40.4532   63.8410   34.4092 C   0  0  0  0  0  0
  -37.8044   62.6526   31.9760 C   0  0  0  0  0  0
  -40.7148   62.0299   36.1344 C   0  0  0  0  0  0
  -36.6964   63.6980   31.8028 C   0  0  0  0  0  0
  -39.9440   65.1826   32.4384 C   0  0  0  0  0  0
  -36.4531   64.5596   32.6429 O   0  0  0  0  0  0
  -36.0152   63.6507   30.6671 N   0  0  0  0  0  0
  -41.4112   64.7693   34.8403 C   0  0  0  0  0  0
  -38.3996   60.7390   34.5033 C   0  0  0  0  0  0
  -42.1682   61.6183   35.9199 C   0  0  0  0  0  0
  -39.2125   65.2863   31.2724 O   0  0  0  0  0  0
  -41.6115   65.9000   34.0531 C   0  0  0  0  0  0
  -40.9007   66.1056   32.8762 C   0  0  0  0  0  0
  -43.0984   61.8417   36.9401 C   0  0  0  0  0  0
  -42.5741   61.0143   34.7233 C   0  0  0  0  0  0
  -39.4090   66.4082   30.4220 C   0  0  0  0  0  0
  -39.0071   59.5739   33.7124 C   0  0  0  0  0  0
  -43.9060   60.6536   34.5452 C   0  0  0  0  0  0
  -44.4306   61.4829   36.7598 C   0  0  0  0  0  0
  -44.8276   60.8975   35.5607 C   0  0  0  0  0  0
  -37.3160   61.6835   32.0839 H   0  0  0  0  0  0
  -38.3585   62.5964   31.0421 H   0  0  0  0  0  0
  -40.6618   62.7760   36.9294 H   0  0  0  0  0  0
  -40.1641   61.1649   36.4935 H   0  0  0  0  0  0
  -35.3510   64.3893   30.4544 H   0  0  0  0  0  0
  -36.3528   63.0672   29.9156 H   0  0  0  0  0  0
  -41.9889   64.6173   35.7401 H   0  0  0  0  0  0
  -37.3378   60.7981   34.2608 H   0  0  0  0  0  0
  -38.4152   60.5011   35.5620 H   0  0  0  0  0  0
  -42.3465   66.6318   34.3572 H   0  0  0  0  0  0
  -41.1138   66.9930   32.3011 H   0  0  0  0  0  0
  -42.7946   62.2959   37.8726 H   0  0  0  0  0  0
  -41.8664   60.8302   33.9283 H   0  0  0  0  0  0
  -38.7716   66.3117   29.5430 H   0  0  0  0  0  0
  -40.4411   66.4699   30.0758 H   0  0  0  0  0  0
  -39.1452   67.3405   30.9233 H   0  0  0  0  0  0
  -38.4164   58.6662   33.8441 H   0  0  0  0  0  0
  -40.0291   59.3612   34.0294 H   0  0  0  0  0  0
  -39.0289   59.7886   32.6426 H   0  0  0  0  0  0
  -44.2288   60.1912   33.6233 H   0  0  0  0  0  0
  -45.1537   61.6563   37.5438 H   0  0  0  0  0  0
  -45.8609   60.6169   35.4150 H   0  0  0  0  0  0
  1  3  1  0  0  0
  1  5  1  0  0  0
  1  7  1  0  0  0
  2  3  2  0  0  0
  2  6  1  0  0  0
  2  4  1  0  0  0
  3 13  1  0  0  0
  4  5  1  0  0  0
  4  9  2  0  0  0
  5 12  2  0  0  0
  6  8  1  0  0  0
  6 25  1  0  0  0
  6 26  1  0  0  0
  7 14  1  0  0  0
  7 27  1  0  0  0
  7 28  1  0  0  0
  8 10  2  0  0  0
  8 11  1  0  0  0
  9 15  1  0  0  0
  9 17  1  0  0  0
 11 29  1  0  0  0
 11 30  1  0  0  0
 12 16  1  0  0  0
 12 31  1  0  0  0
 13 21  1  0  0  0
 13 32  1  0  0  0
 13 33  1  0  0  0
 14 18  1  0  0  0
 14 19  2  0  0  0
 15 20  1  0  0  0
 16 17  2  0  0  0
 16 34  1  0  0  0
 17 35  1  0  0  0
 18 23  2  0  0  0
 18 36  1  0  0  0
 19 22  1  0  0  0
 19 37  1  0  0  0
 20 38  1  0  0  0
 20 39  1  0  0  0
 20 40  1  0  0  0
 21 41  1  0  0  0
 21 42  1  0  0  0
 21 43  1  0  0  0
 22 24  2  0  0  0
 22 44  1  0  0  0
 23 24  1  0  0  0
 23 45  1  0  0  0
 24 46  1  0  0  0
M  END
> <s_m_entry_id>
68136

> <s_m_entry_name>
dock_pv.72

> <s_m_Source_Path>
/home/csk/Desktop/cluster/DUD-E-result/pa2ga

> <s_m_Source_File>
dock_pv.maegz

> <i_m_Source_File_Index>
72

> <chembl_id>
CHEMBL356438

> <chembl_pref_name>
None

> <i_lp_mmshare_version>
53161

> <i_f3d_flags>
0

> <r_lp_tautomer_probability>
1

> <s_lp_Force_Field>
OPLS_2005

> <r_lp_Energy>
13.040585

> <b_lp_Chiralities_Consistent>
1

> <s_lp_Variant>
CHEMBL3474_lig184-1

> <s_i_glide_gridfile>
glide-grid_1kvo

> <i_i_glide_lignum>
246

> <i_i_glide_rotatable_bonds>
6

> <r_i_docking_score>
-8.1742604160711

> <r_i_glide_ligand_efficiency>
-0.340594184002963

> <r_i_glide_ligand_efficiency_sa>
-0.982443630014197

> <r_i_glide_ligand_efficiency_ln>
-1.95647560993496

> <r_i_glide_gscore>
-8.1742604160711

> <r_i_glide_lipo>
-3.54717288045008

> <r_i_glide_hbond>
-0.563601211660257

> <r_i_glide_metal>
0

> <r_i_glide_rewards>
-1.45161726652142

> <r_i_glide_evdw>
-36.1198844909668

> <r_i_glide_ecoul>
-8.3411340713501

> <r_i_glide_erotb>
0.53971725916846

> <r_i_glide_esite>
-0.0944219813569494

> <r_i_glide_emodel>
-68.8955318451835

> <r_i_glide_energy>
-44.4610185623169

> <r_i_glide_einternal>
2.17710185050964

> <i_i_glide_confnum>
2

> <i_i_glide_posenum>
356

> <r_i_glide_eff_state_penalty>
0

> <s_user_duplicate_titles>
CHEMBL3474_lig184

> <s_m_subgroup_title>
dock_pv

> <s_m_subgroupid>
dock_pv

> <b_m_subgroup_collapsed>
1

$$$$
CHEMBL3474_lig347
                    3D
 Schrodinger Suite 2021-1.
 40 42  0  0  1  0            999 V2000
  -39.5382   64.7958   32.3185 C   0  0  0  0  0  0
  -39.0971   65.9855   32.6732 N   0  0  0  0  0  0
  -39.8744   66.8514   32.0029 N   0  0  0  0  0  0
  -40.8119   66.2243   31.2250 C   0  0  0  0  0  0
  -40.6039   64.8722   31.4114 C   0  0  0  0  0  0
  -43.1539   60.0984   36.6425 F   0  0  0  0  0  0
  -43.6367   60.5273   35.4772 C   0  0  0  0  0  0
  -44.9067   60.8798   35.6647 F   0  0  0  0  0  0
  -41.6225   61.5639   34.5914 C   0  0  0  0  0  0
  -40.8299   60.4190   34.7607 C   0  0  0  0  0  0
  -39.5221   60.3608   34.2894 C   0  0  0  0  0  0
  -41.1053   62.6898   33.9540 C   0  0  0  0  0  0
  -39.7953   62.6330   33.4669 C   0  0  0  0  0  0
  -38.9867   61.4758   33.6377 C   0  0  0  0  0  0
  -37.7236   61.7688   33.0557 C   0  0  0  0  0  0
  -37.7924   63.0477   32.5186 C   0  0  0  0  0  0
  -39.0517   63.5828   32.7801 N   0  0  0  0  0  0
  -36.7062   63.7588   31.9107 C   0  0  0  0  0  0
  -36.0149   63.0613   31.0241 N   0  0  0  0  0  0
  -36.3973   64.8980   32.2434 O   0  0  0  0  0  0
  -42.9301   61.6790   35.0200 O   0  0  0  0  0  0
  -43.6151   59.5474   34.5700 F   0  0  0  0  0  0
  -39.7067   68.2907   32.1844 C   0  0  0  0  0  0
  -39.1266   68.9926   30.9267 C   0  0  0  0  0  0
  -37.6098   69.2282   30.9339 C   0  0  0  0  0  0
  -37.2150   69.8889   29.8139 O   0  0  0  0  0  0
  -36.8461   68.8979   31.8430 O   0  0  0  0  0  0
  -41.5234   66.7875   30.6430 H   0  0  0  0  0  0
  -41.1547   64.0553   30.9658 H   0  0  0  0  0  0
  -41.2157   59.5479   35.2636 H   0  0  0  0  0  0
  -38.9355   59.4644   34.4116 H   0  0  0  0  0  0
  -41.7051   63.5789   33.8450 H   0  0  0  0  0  0
  -36.8550   61.1255   33.0328 H   0  0  0  0  0  0
  -35.2595   63.5245   30.5376 H   0  0  0  0  0  0
  -36.3716   62.1812   30.6848 H   0  0  0  0  0  0
  -39.0936   68.4704   33.0639 H   0  0  0  0  0  0
  -40.6843   68.6991   32.4386 H   0  0  0  0  0  0
  -39.6064   69.9665   30.8116 H   0  0  0  0  0  0
  -39.3729   68.4342   30.0213 H   0  0  0  0  0  0
  -36.2681   70.0985   29.8657 H   0  0  0  0  0  0
  1  2  2  0  0  0
  1  5  1  0  0  0
  1 17  1  0  0  0
  2  3  1  0  0  0
  3  4  1  0  0  0
  3 23  1  0  0  0
  4  5  2  0  0  0
  4 28  1  0  0  0
  5 29  1  0  0  0
  6  7  1  0  0  0
  7  8  1  0  0  0
  7 21  1  0  0  0
  7 22  1  0  0  0
  9 10  2  0  0  0
  9 12  1  0  0  0
  9 21  1  0  0  0
 10 11  1  0  0  0
 10 30  1  0  0  0
 11 14  2  0  0  0
 11 31  1  0  0  0
 12 13  2  0  0  0
 12 32  1  0  0  0
 13 14  1  0  0  0
 13 17  1  0  0  0
 14 15  1  0  0  0
 15 16  2  0  0  0
 15 33  1  0  0  0
 16 17  1  0  0  0
 16 18  1  0  0  0
 18 19  1  0  0  0
 18 20  2  0  0  0
 19 34  1  0  0  0
 19 35  1  0  0  0
 23 24  1  0  0  0
 23 36  1  0  0  0
 23 37  1  0  0  0
 24 25  1  0  0  0
 24 38  1  0  0  0
 24 39  1  0  0  0
 25 26  1  0  0  0
 25 27  2  0  0  0
 26 40  1  0  0  0
M  END
> <s_m_entry_id>
68137

> <s_m_entry_name>
dock_pv.73

> <s_m_Source_Path>
/home/csk/Desktop/cluster/DUD-E-result/pa2ga

> <s_m_Source_File>
dock_pv.maegz

> <i_m_Source_File_Index>
73

> <chembl_id>
CHEMBL4213633

> <chembl_pref_name>
None

> <i_lp_mmshare_version>
53161

> <i_f3d_flags>
0

> <r_lp_tautomer_probability>
1

> <s_lp_Force_Field>
OPLS_2005

> <r_lp_Energy>
13.383873

> <b_lp_Chiralities_Consistent>
1

> <s_lp_Variant>
CHEMBL3474_lig347-1

> <s_i_glide_gridfile>
glide-grid_1kvo

> <i_i_glide_lignum>
436

> <i_i_glide_rotatable_bonds>
8

> <r_i_docking_score>
-8.17127380995802

> <r_i_glide_ligand_efficiency>
-0.302639770739186

> <r_i_glide_ligand_efficiency_sa>
-0.907919311220107

> <r_i_glide_ligand_efficiency_ln>
-1.902137828981

> <r_i_glide_gscore>
-8.17127380995802

> <r_i_glide_lipo>
-2.70969150537201

> <r_i_glide_hbond>
-0.198826329562608

> <r_i_glide_metal>
0

> <r_i_glide_rewards>
-2.19798873088304

> <r_i_glide_evdw>
-45.3813400268555

> <r_i_glide_ecoul>
-8.877685546875

> <r_i_glide_erotb>
0.6643955096788

> <r_i_glide_esite>
-0.128442920445142

> <r_i_glide_emodel>
-78.7473122105923

> <r_i_glide_energy>
-54.2590255737305

> <r_i_glide_einternal>
13.3755731582642

> <i_i_glide_confnum>
104

> <i_i_glide_posenum>
374

> <r_i_glide_eff_state_penalty>
0

> <s_user_duplicate_titles>
CHEMBL3474_lig347

> <s_m_subgroup_title>
dock_pv

> <s_m_subgroupid>
dock_pv

> <b_m_subgroup_collapsed>
1

$$$$
CHEMBL3474_lig350
                    3D
 Schrodinger Suite 2021-1.
 47 49  0  0  1  0            999 V2000
  -42.1777   62.3824   37.0719 F   0  0  0  0  0  0
  -43.0224   61.7231   36.2725 C   0  0  0  0  0  0
  -43.6303   62.5697   35.4403 F   0  0  0  0  0  0
  -41.2088   60.9340   34.8657 C   0  0  0  0  0  0
  -40.3596   59.8494   34.6864 C   0  0  0  0  0  0
  -39.1613   59.9493   33.9922 C   0  0  0  0  0  0
  -40.8785   62.1881   34.3298 C   0  0  0  0  0  0
  -39.6504   62.3125   33.6536 C   0  0  0  0  0  0
  -38.7896   61.1918   33.4754 C   0  0  0  0  0  0
  -37.6511   61.6442   32.7628 C   0  0  0  0  0  0
  -37.8157   62.9963   32.4980 C   0  0  0  0  0  0
  -39.0301   63.4122   33.0566 N   0  0  0  0  0  0
  -39.5478   64.7352   33.0640 C   0  0  0  0  0  0
  -39.5641   65.4943   31.8866 C   0  0  0  0  0  0
  -39.9814   66.8271   31.9072 C   0  0  0  0  0  0
  -40.4537   67.3793   33.1030 C   0  0  0  0  0  0
  -40.5067   66.6100   34.2637 C   0  0  0  0  0  0
  -40.0565   65.2913   34.2430 C   0  0  0  0  0  0
  -36.8100   63.8648   31.9254 C   0  0  0  0  0  0
  -36.0109   63.2948   31.0384 N   0  0  0  0  0  0
  -36.6652   65.0392   32.2432 O   0  0  0  0  0  0
  -39.9511   67.6401   30.6182 C   0  0  0  0  0  0
  -39.3694   69.0739   30.7128 C   0  0  1  0  0  0
  -37.8305   69.1353   30.9465 C   0  0  0  0  0  0
  -37.2149   70.0005   30.0946 O   0  0  0  0  0  0
  -37.2335   68.5017   31.8248 O   0  0  0  0  0  0
  -42.3686   60.6716   35.5661 O   0  0  0  0  0  0
  -43.9545   61.1599   37.0390 F   0  0  0  0  0  0
  -39.7566   69.6941   29.4746 O   0  0  0  0  0  0
  -39.9683   71.1075   29.4876 C   0  0  0  0  0  0
  -40.6447   58.9042   35.1110 H   0  0  0  0  0  0
  -38.5269   59.0836   33.8609 H   0  0  0  0  0  0
  -41.5397   63.0327   34.4351 H   0  0  0  0  0  0
  -36.7884   61.0536   32.4926 H   0  0  0  0  0  0
  -39.2137   65.0630   30.9587 H   0  0  0  0  0  0
  -40.8029   68.3998   33.1435 H   0  0  0  0  0  0
  -40.8798   67.0403   35.1839 H   0  0  0  0  0  0
  -40.0651   64.7187   35.1586 H   0  0  0  0  0  0
  -35.3327   63.8780   30.5624 H   0  0  0  0  0  0
  -36.2334   62.3803   30.6753 H   0  0  0  0  0  0
  -40.9821   67.6948   30.2697 H   0  0  0  0  0  0
  -39.4142   67.0917   29.8417 H   0  0  0  0  0  0
  -39.8477   69.6114   31.5315 H   0  0  0  0  0  0
  -36.2585   70.0983   30.2417 H   0  0  0  0  0  0
  -40.2654   71.4326   28.4889 H   0  0  0  0  0  0
  -39.0748   71.6702   29.7600 H   0  0  0  0  0  0
  -40.7703   71.3853   30.1763 H   0  0  0  0  0  0
  1  2  1  0  0  0
  2  3  1  0  0  0
  2 27  1  0  0  0
  2 28  1  0  0  0
  4  5  2  0  0  0
  4  7  1  0  0  0
  4 27  1  0  0  0
  5  6  1  0  0  0
  5 31  1  0  0  0
  6  9  2  0  0  0
  6 32  1  0  0  0
  7  8  2  0  0  0
  7 33  1  0  0  0
  8  9  1  0  0  0
  8 12  1  0  0  0
  9 10  1  0  0  0
 10 11  2  0  0  0
 10 34  1  0  0  0
 11 12  1  0  0  0
 11 19  1  0  0  0
 12 13  1  0  0  0
 13 14  2  0  0  0
 13 18  1  0  0  0
 14 15  1  0  0  0
 14 35  1  0  0  0
 15 16  2  0  0  0
 15 22  1  0  0  0
 16 17  1  0  0  0
 16 36  1  0  0  0
 17 18  2  0  0  0
 17 37  1  0  0  0
 18 38  1  0  0  0
 19 20  1  0  0  0
 19 21  2  0  0  0
 20 39  1  0  0  0
 20 40  1  0  0  0
 22 23  1  0  0  0
 22 41  1  0  0  0
 22 42  1  0  0  0
 23 24  1  0  0  0
 23 29  1  0  0  0
 23 43  1  0  0  0
 24 25  1  0  0  0
 24 26  2  0  0  0
 25 44  1  0  0  0
 29 30  1  0  0  0
 30 45  1  0  0  0
 30 46  1  0  0  0
 30 47  1  0  0  0
M  END
> <s_m_entry_id>
68138

> <s_m_entry_name>
dock_pv.74

> <s_m_Source_Path>
/home/csk/Desktop/cluster/DUD-E-result/pa2ga

> <s_m_Source_File>
dock_pv.maegz

> <i_m_Source_File_Index>
74

> <chembl_id>
CHEMBL4204172

> <chembl_pref_name>
None

> <i_lp_mmshare_version>
53161

> <i_f3d_flags>
0

> <r_lp_tautomer_probability>
1

> <s_lp_Force_Field>
OPLS_2005

> <r_lp_Energy>
17.032226

> <b_lp_Chiralities_Consistent>
1

> <s_lp_Variant>
CHEMBL3474_lig350-2

> <s_i_glide_gridfile>
glide-grid_1kvo

> <i_i_glide_lignum>
441

> <i_i_glide_rotatable_bonds>
9

> <r_i_docking_score>
-8.16819391306971

> <r_i_glide_ligand_efficiency>
-0.272273130435657

> <r_i_glide_ligand_efficiency_sa>
-0.846015920428333

> <r_i_glide_ligand_efficiency_ln>
-1.85590265665043

> <r_i_glide_gscore>
-8.16819391306971

> <r_i_glide_lipo>
-3.07102874219287

> <r_i_glide_hbond>
-0.173349997640332

> <r_i_glide_metal>
0

> <r_i_glide_rewards>
-1.36167349710566

> <r_i_glide_evdw>
-44.6701278686523

> <r_i_glide_ecoul>
-11.6708927154541

> <r_i_glide_erotb>
0.55525625166263

> <r_i_glide_esite>
-0.133257627042752

> <r_i_glide_emodel>
-82.2510261348515

> <r_i_glide_energy>
-56.3410205841064

> <r_i_glide_einternal>
12.5351791381836

> <i_i_glide_confnum>
138

> <i_i_glide_posenum>
242

> <r_i_glide_eff_state_penalty>
0

> <s_user_duplicate_titles>
CHEMBL3474_lig350

> <s_m_subgroup_title>
dock_pv

> <s_m_subgroupid>
dock_pv

> <b_m_subgroup_collapsed>
1

$$$$
CHEMBL3474_lig211
                    3D
 Schrodinger Suite 2021-1.
 55 58  0  0  1  0            999 V2000
  -38.6703   62.9062   33.1833 C   0  0  0  0  0  0
  -40.0685   62.6239   34.9425 N   0  0  0  0  0  0
  -39.4331   64.1345   33.3629 C   0  0  0  0  0  0
  -39.1595   61.9856   34.1112 C   0  0  0  0  0  0
  -40.2349   63.9446   34.5362 C   0  0  0  0  0  0
  -37.5674   62.6476   32.2358 C   0  0  0  0  0  0
  -39.5447   65.3738   32.6745 C   0  0  0  0  0  0
  -40.7797   61.9820   36.0622 C   0  0  0  0  0  0
  -41.0000   64.9918   35.0870 C   0  0  0  0  0  0
  -36.6023   63.8418   31.8421 C   0  0  0  0  0  0
  -40.9967   66.2193   34.4269 C   0  0  0  0  0  0
  -42.2358   61.5904   35.8083 C   0  0  0  0  0  0
  -40.2872   66.4092   33.2487 C   0  0  0  0  0  0
  -38.9083   65.4606   31.4509 O   0  0  0  0  0  0
  -38.1125   67.6425   30.5827 C   0  0  0  0  0  0
  -37.2590   61.5141   31.8569 O   0  0  0  0  0  0
  -42.6761   61.0658   34.5807 C   0  0  0  0  0  0
  -36.4108   64.8087   32.5773 O   0  0  0  0  0  0
  -37.2259   67.7049   31.4427 O   0  0  0  0  0  0
  -36.0151   63.6904   30.6581 N   0  0  0  0  0  0
  -39.1785   66.5347   30.5440 C   0  0  0  0  0  0
  -38.7938   60.5249   34.3605 C   0  0  0  0  0  0
  -41.8251   60.8842   33.5457 F   0  0  0  0  0  0
  -38.2748   68.5094   29.5618 O   0  0  0  0  0  0
  -41.8092   65.0785   36.3648 C   0  0  0  0  0  0
  -41.7707   67.2473   35.2249 C   0  0  0  0  0  0
  -43.1585   61.7375   36.8530 C   0  0  0  0  0  0
  -42.5176   66.4271   36.2738 C   0  0  0  0  0  0
  -44.0146   60.7223   34.4077 C   0  0  0  0  0  0
  -37.3568   69.5761   29.3576 C   0  0  0  0  0  0
  -44.4986   61.4008   36.6703 C   0  0  0  0  0  0
  -44.9278   60.8981   35.4452 C   0  0  0  0  0  0
  -40.7236   62.6657   36.9093 H   0  0  0  0  0  0
  -40.2425   61.0951   36.3933 H   0  0  0  0  0  0
  -40.3213   67.3770   32.7757 H   0  0  0  0  0  0
  -35.4429   64.4423   30.2766 H   0  0  0  0  0  0
  -36.2706   62.9061   30.0744 H   0  0  0  0  0  0
  -39.1882   66.1084   29.5389 H   0  0  0  0  0  0
  -40.1674   66.9607   30.7080 H   0  0  0  0  0  0
  -38.0253   60.1341   33.6955 H   0  0  0  0  0  0
  -38.4131   60.3750   35.3700 H   0  0  0  0  0  0
  -39.6560   59.8667   34.2441 H   0  0  0  0  0  0
  -42.5431   64.2833   36.4679 H   0  0  0  0  0  0
  -41.1613   65.0445   37.2426 H   0  0  0  0  0  0
  -41.0879   67.9427   35.7143 H   0  0  0  0  0  0
  -42.4732   67.8342   34.6356 H   0  0  0  0  0  0
  -42.8415   62.1269   37.8103 H   0  0  0  0  0  0
  -42.5690   66.9340   37.2402 H   0  0  0  0  0  0
  -43.5507   66.2744   35.9481 H   0  0  0  0  0  0
  -44.3483   60.3200   33.4614 H   0  0  0  0  0  0
  -37.7032   70.2154   28.5431 H   0  0  0  0  0  0
  -37.2574   70.1965   30.2508 H   0  0  0  0  0  0
  -36.3731   69.1918   29.0867 H   0  0  0  0  0  0
  -45.2040   61.5261   37.4795 H   0  0  0  0  0  0
  -45.9658   60.6358   35.2994 H   0  0  0  0  0  0
  1  3  1  0  0  0
  1  4  2  0  0  0
  1  6  1  0  0  0
  2  4  1  0  0  0
  2  8  1  0  0  0
  2  5  1  0  0  0
  3  5  1  0  0  0
  3  7  2  0  0  0
  4 22  1  0  0  0
  5  9  2  0  0  0
  6 10  1  0  0  0
  6 16  2  0  0  0
  7 13  1  0  0  0
  7 14  1  0  0  0
  8 12  1  0  0  0
  8 33  1  0  0  0
  8 34  1  0  0  0
  9 25  1  0  0  0
  9 11  1  0  0  0
 10 18  2  0  0  0
 10 20  1  0  0  0
 11 13  2  0  0  0
 11 26  1  0  0  0
 12 17  2  0  0  0
 12 27  1  0  0  0
 13 35  1  0  0  0
 14 21  1  0  0  0
 15 21  1  0  0  0
 15 19  2  0  0  0
 15 24  1  0  0  0
 17 23  1  0  0  0
 17 29  1  0  0  0
 20 36  1  0  0  0
 20 37  1  0  0  0
 21 38  1  0  0  0
 21 39  1  0  0  0
 22 40  1  0  0  0
 22 41  1  0  0  0
 22 42  1  0  0  0
 24 30  1  0  0  0
 25 28  1  0  0  0
 25 43  1  0  0  0
 25 44  1  0  0  0
 26 28  1  0  0  0
 26 45  1  0  0  0
 26 46  1  0  0  0
 27 31  2  0  0  0
 27 47  1  0  0  0
 28 48  1  0  0  0
 28 49  1  0  0  0
 29 32  2  0  0  0
 29 50  1  0  0  0
 30 51  1  0  0  0
 30 52  1  0  0  0
 30 53  1  0  0  0
 31 32  1  0  0  0
 31 54  1  0  0  0
 32 55  1  0  0  0
M  END
> <s_m_entry_id>
68139

> <s_m_entry_name>
dock_pv.75

> <s_m_Source_Path>
/home/csk/Desktop/cluster/DUD-E-result/pa2ga

> <s_m_Source_File>
dock_pv.maegz

> <i_m_Source_File_Index>
75

> <chembl_id>
CHEMBL433767

> <chembl_pref_name>
None

> <i_lp_mmshare_version>
53161

> <i_f3d_flags>
0

> <r_lp_tautomer_probability>
1

> <s_lp_Force_Field>
OPLS_2005

> <r_lp_Energy>
55.534095

> <b_lp_Chiralities_Consistent>
1

> <s_lp_Variant>
CHEMBL3474_lig211-1

> <s_i_glide_gridfile>
glide-grid_1kvo

> <i_i_glide_lignum>
273

> <i_i_glide_rotatable_bonds>
8

> <r_i_docking_score>
-8.16550817765795

> <r_i_glide_ligand_efficiency>
-0.255172130551811

> <r_i_glide_ligand_efficiency_sa>
-0.810121016005934

> <r_i_glide_ligand_efficiency_ln>
-1.82847986432397

> <r_i_glide_gscore>
-8.16550817765795

> <r_i_glide_lipo>
-3.36037054733993

> <r_i_glide_hbond>
-0.435666546162108

> <r_i_glide_metal>
0

> <r_i_glide_rewards>
-1.10911544867283

> <r_i_glide_evdw>
-44.1952247619629

> <r_i_glide_ecoul>
-10.0908994674683

> <r_i_glide_erotb>
0.622665885695575

> <r_i_glide_esite>
-0.159625362960267

> <r_i_glide_emodel>
-85.0586217214242

> <r_i_glide_energy>
-54.2861242294312

> <r_i_glide_einternal>
5.10983753204346

> <i_i_glide_confnum>
34

> <i_i_glide_posenum>
311

> <r_i_glide_eff_state_penalty>
0

> <s_user_duplicate_titles>
CHEMBL3474_lig211,299343

> <s_m_subgroup_title>
dock_pv

> <s_m_subgroupid>
dock_pv

> <b_m_subgroup_collapsed>
1

$$$$
CHEMBL3474_lig32
                    3D
 Schrodinger Suite 2021-1.
 64 67  0  0  1  0            999 V2000
  -40.8708   65.3144   33.7284 N   0  0  0  0  0  0
  -39.3207   64.8663   32.1428 C   0  0  0  0  0  0
  -40.1992   64.3055   33.0550 C   0  0  0  0  0  0
  -39.4253   66.2836   32.2853 C   0  0  0  0  0  0
  -40.3892   66.5448   33.2986 C   0  0  0  0  0  0
  -41.9204   65.1132   34.7376 C   0  0  0  0  0  0
  -39.6679   72.4408   29.7740 P   0  0  0  0  0  0
  -41.4472   64.9392   36.1865 C   0  0  0  0  0  0
  -38.4040   64.1533   31.1687 C   0  0  0  0  0  0
  -41.6222   63.7366   36.9165 C   0  0  0  0  0  0
  -40.7053   67.8553   33.6796 C   0  0  0  0  0  0
  -36.9811   63.9701   31.6967 C   0  0  0  0  0  0
  -38.7785   67.3558   31.6510 C   0  0  0  0  0  0
  -39.3419   72.4647   31.2242 O   0  0  0  0  0  0
  -36.3902   64.8980   32.2430 O   0  0  0  0  0  0
  -42.1920   62.4876   36.3368 C   0  0  0  0  0  0
  -39.4876   73.8608   29.0230 O   0  0  0  0  0  0
  -41.2150   72.0980   29.4430 O   0  0  0  0  0  0
  -39.0598   68.6643   32.0572 C   0  0  0  0  0  0
  -36.4088   62.7815   31.5213 N   0  0  0  0  0  0
  -40.0150   68.8873   33.0430 C   0  0  0  0  0  0
  -38.7532   71.3150   28.6307 C   0  0  0  0  0  0
  -40.4500   62.8417   33.3466 C   0  0  0  0  0  0
  -38.5533   69.8676   29.1389 C   0  0  0  0  0  0
  -38.4117   69.7871   31.5855 O   0  0  0  0  0  0
  -40.8613   66.0449   36.8187 C   0  0  0  0  0  0
  -41.2150   63.6980   38.2566 C   0  0  0  0  0  0
  -37.6467   69.7465   30.3834 C   0  0  0  0  0  0
  -43.5250   62.4266   35.9161 C   0  0  0  0  0  0
  -41.3977   61.3382   36.2430 C   0  0  0  0  0  0
  -40.4597   65.9812   38.1499 C   0  0  0  0  0  0
  -40.6435   64.8082   38.8720 C   0  0  0  0  0  0
  -41.9025   60.1698   35.6816 C   0  0  0  0  0  0
  -44.0379   61.2532   35.3667 C   0  0  0  0  0  0
  -43.2199   60.1340   35.2369 C   0  0  0  0  0  0
  -42.5433   64.2900   34.4053 H   0  0  0  0  0  0
  -42.5887   65.9745   34.7033 H   0  0  0  0  0  0
  -38.8150   63.1840   30.8926 H   0  0  0  0  0  0
  -38.3305   64.7229   30.2430 H   0  0  0  0  0  0
  -41.4421   68.0737   34.4383 H   0  0  0  0  0  0
  -38.0533   67.1401   30.8836 H   0  0  0  0  0  0
  -39.6944   73.8325   28.0593 H   0  0  0  0  0  0
  -41.5217   72.4025   28.5400 H   0  0  0  0  0  0
  -35.4672   62.6256   31.8430 H   0  0  0  0  0  0
  -36.8835   62.0688   30.9879 H   0  0  0  0  0  0
  -40.2154   69.9077   33.3381 H   0  0  0  0  0  0
  -37.7819   71.7623   28.4188 H   0  0  0  0  0  0
  -39.2833   71.2980   27.6781 H   0  0  0  0  0  0
  -39.9437   62.1838   32.6430 H   0  0  0  0  0  0
  -40.0645   62.5822   34.3298 H   0  0  0  0  0  0
  -41.5060   62.5740   33.3145 H   0  0  0  0  0  0
  -38.0972   69.2914   28.3323 H   0  0  0  0  0  0
  -39.5184   69.3944   29.3238 H   0  0  0  0  0  0
  -40.7211   66.9713   36.2851 H   0  0  0  0  0  0
  -41.3395   62.7918   38.8331 H   0  0  0  0  0  0
  -36.9597   70.5921   30.4164 H   0  0  0  0  0  0
  -36.9980   68.8728   30.3290 H   0  0  0  0  0  0
  -44.1625   63.2929   36.0154 H   0  0  0  0  0  0
  -40.3747   61.3545   36.5877 H   0  0  0  0  0  0
  -40.0142   66.8417   38.6266 H   0  0  0  0  0  0
  -40.3298   64.7529   39.9047 H   0  0  0  0  0  0
  -41.2718   59.2980   35.5964 H   0  0  0  0  0  0
  -45.0672   61.2085   35.0430 H   0  0  0  0  0  0
  -43.6150   59.2285   34.8000 H   0  0  0  0  0  0
  1  3  1  0  0  0
  1  5  1  0  0  0
  1  6  1  0  0  0
  2  3  2  0  0  0
  2  9  1  0  0  0
  2  4  1  0  0  0
  3 23  1  0  0  0
  4  5  1  0  0  0
  4 13  2  0  0  0
  5 11  2  0  0  0
  6  8  1  0  0  0
  6 36  1  0  0  0
  6 37  1  0  0  0
  7 22  1  0  0  0
  7 14  2  0  0  0
  7 17  1  0  0  0
  7 18  1  0  0  0
  8 10  1  0  0  0
  8 26  2  0  0  0
  9 12  1  0  0  0
  9 38  1  0  0  0
  9 39  1  0  0  0
 10 16  1  0  0  0
 10 27  2  0  0  0
 11 21  1  0  0  0
 11 40  1  0  0  0
 12 15  2  0  0  0
 12 20  1  0  0  0
 13 19  1  0  0  0
 13 41  1  0  0  0
 16 29  2  0  0  0
 16 30  1  0  0  0
 17 42  1  0  0  0
 18 43  1  0  0  0
 19 21  2  0  0  0
 19 25  1  0  0  0
 20 44  1  0  0  0
 20 45  1  0  0  0
 21 46  1  0  0  0
 22 24  1  0  0  0
 22 47  1  0  0  0
 22 48  1  0  0  0
 23 49  1  0  0  0
 23 50  1  0  0  0
 23 51  1  0  0  0
 24 28  1  0  0  0
 24 52  1  0  0  0
 24 53  1  0  0  0
 25 28  1  0  0  0
 26 31  1  0  0  0
 26 54  1  0  0  0
 27 32  1  0  0  0
 27 55  1  0  0  0
 28 56  1  0  0  0
 28 57  1  0  0  0
 29 34  1  0  0  0
 29 58  1  0  0  0
 30 33  2  0  0  0
 30 59  1  0  0  0
 31 32  2  0  0  0
 31 60  1  0  0  0
 32 61  1  0  0  0
 33 35  1  0  0  0
 33 62  1  0  0  0
 34 35  2  0  0  0
 34 63  1  0  0  0
 35 64  1  0  0  0
M  END
> <s_m_entry_id>
68140

> <s_m_entry_name>
dock_pv.76

> <s_m_Source_Path>
/home/csk/Desktop/cluster/DUD-E-result/pa2ga

> <s_m_Source_File>
dock_pv.maegz

> <i_m_Source_File_Index>
76

> <chembl_id>
CHEMBL423205

> <chembl_pref_name>
None

> <i_lp_mmshare_version>
53161

> <i_f3d_flags>
0

> <r_lp_tautomer_probability>
1

> <s_lp_Force_Field>
OPLS_2005

> <r_lp_Energy>
16.075584

> <b_lp_Chiralities_Consistent>
1

> <s_lp_Variant>
CHEMBL3474_lig32-1

> <s_i_glide_gridfile>
glide-grid_1kvo

> <i_i_glide_lignum>
72

> <i_i_glide_rotatable_bonds>
12

> <r_i_docking_score>
-8.1371470052917

> <r_i_glide_ligand_efficiency>
-0.232489914436906

> <r_i_glide_ligand_efficiency_sa>
-0.760489925671922

> <r_i_glide_ligand_efficiency_ln>
-1.78628436190915

> <r_i_glide_gscore>
-8.1371470052917

> <r_i_glide_lipo>
-3.32421513345291

> <r_i_glide_hbond>
-0.188078080135504

> <r_i_glide_metal>
0

> <r_i_glide_rewards>
-0.233080471812848

> <r_i_glide_evdw>
-46.6967544555664

> <r_i_glide_ecoul>
-17.7701549530029

> <r_i_glide_erotb>
0.755629045178863

> <r_i_glide_esite>
-0.147041399340548

> <r_i_glide_emodel>
-101.00899415824

> <r_i_glide_energy>
-64.4669094085693

> <r_i_glide_einternal>
5.21164894104004

> <i_i_glide_confnum>
15

> <i_i_glide_posenum>
349

> <r_i_glide_eff_state_penalty>
0

> <s_user_duplicate_titles>
CHEMBL3474_lig32,246704

> <s_m_subgroup_title>
dock_pv

> <s_m_subgroupid>
dock_pv

> <b_m_subgroup_collapsed>
1

$$$$
CHEMBL3474_lig52
                    3D
 Schrodinger Suite 2021-1.
 55 57  0  0  1  0            999 V2000
  -39.9858   62.6825   34.9118 N   0  0  0  0  0  0
  -38.7171   62.9598   33.0617 C   0  0  0  0  0  0
  -39.1121   62.0586   34.0323 C   0  0  0  0  0  0
  -40.2050   64.0000   34.5041 C   0  0  0  0  0  0
  -39.4040   64.1837   33.3357 C   0  0  0  0  0  0
  -40.9857   65.0554   35.0332 C   0  0  0  0  0  0
  -37.7703   62.7215   31.8993 C   0  0  0  0  0  0
  -40.6011   62.0194   36.0701 C   0  0  0  0  0  0
  -39.3879   65.4300   32.6963 C   0  0  0  0  0  0
  -36.5416   63.6385   31.8395 C   0  0  0  0  0  0
  -40.8950   66.2849   34.3684 C   0  0  0  0  0  0
  -39.0456   70.4275   28.6427 C   0  0  0  0  0  0
  -40.1132   66.4801   33.2370 C   0  0  0  0  0  0
  -36.4174   64.6609   32.5095 O   0  0  0  0  0  0
  -39.8468   70.9193   29.4345 O   0  0  0  0  0  0
  -35.6150   63.2981   30.9641 N   0  0  0  0  0  0
  -40.0152   68.0990   32.5351 S   0  0  0  0  0  0
  -38.7026   60.6071   34.2077 C   0  0  0  0  0  0
  -42.0676   61.6299   35.8928 C   0  0  0  0  0  0
  -38.8143   70.8979   27.3848 O   0  0  0  0  0  0
  -41.8928   65.0029   36.2533 C   0  0  0  0  0  0
  -38.1765   69.1930   28.9416 C   0  0  0  0  0  0
  -39.6001   67.9908   30.7657 C   0  0  0  0  0  0
  -42.5375   61.1464   34.6668 C   0  0  0  0  0  0
  -42.9397   61.7288   36.9814 C   0  0  0  0  0  0
  -38.2582   68.6564   30.3918 C   0  0  0  0  0  0
  -43.8739   60.7847   34.5265 C   0  0  0  0  0  0
  -44.2756   61.3639   36.8407 C   0  0  0  0  0  0
  -44.7370   60.8982   35.6124 C   0  0  0  0  0  0
  -37.4204   61.6901   31.8776 H   0  0  0  0  0  0
  -38.3212   62.8640   30.9714 H   0  0  0  0  0  0
  -40.4441   62.6734   36.9267 H   0  0  0  0  0  0
  -40.0494   61.1142   36.3209 H   0  0  0  0  0  0
  -38.7688   65.5755   31.8274 H   0  0  0  0  0  0
  -41.4491   67.1307   34.7499 H   0  0  0  0  0  0
  -34.8587   63.9448   30.7760 H   0  0  0  0  0  0
  -35.7702   62.5188   30.3442 H   0  0  0  0  0  0
  -38.1878   60.2067   33.3331 H   0  0  0  0  0  0
  -38.0224   60.4966   35.0523 H   0  0  0  0  0  0
  -39.5581   59.9503   34.3761 H   0  0  0  0  0  0
  -39.3144   71.7058   27.1901 H   0  0  0  0  0  0
  -42.3392   65.9719   36.4817 H   0  0  0  0  0  0
  -42.7162   64.3128   36.0782 H   0  0  0  0  0  0
  -41.3404   64.6920   37.1398 H   0  0  0  0  0  0
  -37.1442   69.4760   28.7306 H   0  0  0  0  0  0
  -38.4264   68.3981   28.2431 H   0  0  0  0  0  0
  -39.6528   66.9683   30.3920 H   0  0  0  0  0  0
  -40.4138   68.5002   30.2569 H   0  0  0  0  0  0
  -41.8742   61.0488   33.8195 H   0  0  0  0  0  0
  -42.5874   62.0941   37.9349 H   0  0  0  0  0  0
  -38.0296   69.4674   31.0866 H   0  0  0  0  0  0
  -37.4669   67.9198   30.5318 H   0  0  0  0  0  0
  -44.2429   60.4149   33.5803 H   0  0  0  0  0  0
  -44.9520   61.4417   37.6797 H   0  0  0  0  0  0
  -45.7736   60.6143   35.5004 H   0  0  0  0  0  0
  1  3  1  0  0  0
  1  4  1  0  0  0
  1  8  1  0  0  0
  2  3  2  0  0  0
  2  7  1  0  0  0
  2  5  1  0  0  0
  3 18  1  0  0  0
  4  5  1  0  0  0
  4  6  2  0  0  0
  5  9  2  0  0  0
  6 11  1  0  0  0
  6 21  1  0  0  0
  7 10  1  0  0  0
  7 30  1  0  0  0
  7 31  1  0  0  0
  8 19  1  0  0  0
  8 32  1  0  0  0
  8 33  1  0  0  0
  9 13  1  0  0  0
  9 34  1  0  0  0
 10 14  2  0  0  0
 10 16  1  0  0  0
 11 13  2  0  0  0
 11 35  1  0  0  0
 12 22  1  0  0  0
 12 15  2  0  0  0
 12 20  1  0  0  0
 13 17  1  0  0  0
 16 36  1  0  0  0
 16 37  1  0  0  0
 17 23  1  0  0  0
 18 38  1  0  0  0
 18 39  1  0  0  0
 18 40  1  0  0  0
 19 24  2  0  0  0
 19 25  1  0  0  0
 20 41  1  0  0  0
 21 42  1  0  0  0
 21 43  1  0  0  0
 21 44  1  0  0  0
 22 26  1  0  0  0
 22 45  1  0  0  0
 22 46  1  0  0  0
 23 26  1  0  0  0
 23 47  1  0  0  0
 23 48  1  0  0  0
 24 27  1  0  0  0
 24 49  1  0  0  0
 25 28  2  0  0  0
 25 50  1  0  0  0
 26 51  1  0  0  0
 26 52  1  0  0  0
 27 29  2  0  0  0
 27 53  1  0  0  0
 28 29  1  0  0  0
 28 54  1  0  0  0
 29 55  1  0  0  0
M  END
> <s_m_entry_id>
68141

> <s_m_entry_name>
dock_pv.77

> <s_m_Source_Path>
/home/csk/Desktop/cluster/DUD-E-result/pa2ga

> <s_m_Source_File>
dock_pv.maegz

> <i_m_Source_File_Index>
77

> <chembl_id>
CHEMBL356724

> <chembl_pref_name>
None

> <i_lp_mmshare_version>
53161

> <i_f3d_flags>
0

> <r_lp_tautomer_probability>
1

> <s_lp_Force_Field>
OPLS_2005

> <r_lp_Energy>
9.370005

> <b_lp_Chiralities_Consistent>
1

> <s_lp_Variant>
CHEMBL3474_lig52-1

> <s_i_glide_gridfile>
glide-grid_1kvo

> <i_i_glide_lignum>
92

> <i_i_glide_rotatable_bonds>
10

> <r_i_docking_score>
-8.12313271802649

> <r_i_glide_ligand_efficiency>
-0.280108024759534

> <r_i_glide_ligand_efficiency_sa>
-0.860580596512402

> <r_i_glide_ligand_efficiency_ln>
-1.8599914075552

> <r_i_glide_gscore>
-8.12313271802649

> <r_i_glide_lipo>
-3.87188529348608

> <r_i_glide_hbond>
-0.370634957177016

> <r_i_glide_metal>
0

> <r_i_glide_rewards>
-0.857209498437329

> <r_i_glide_evdw>
-45.8715019226074

> <r_i_glide_ecoul>
-10.6097640991211

> <r_i_glide_erotb>
0.935168000028975

> <r_i_glide_esite>
-0.0735312579565035

> <r_i_glide_emodel>
-88.2383434503774

> <r_i_glide_energy>
-56.4812660217285

> <r_i_glide_einternal>
3.65296506881714

> <i_i_glide_confnum>
169

> <i_i_glide_posenum>
247

> <r_i_glide_eff_state_penalty>
0

> <s_user_duplicate_titles>
CHEMBL3474_lig52,246310

> <s_m_subgroup_title>
dock_pv

> <s_m_subgroupid>
dock_pv

> <b_m_subgroup_collapsed>
1

$$$$
CHEMBL3474_lig73
                    3D
 Schrodinger Suite 2021-1.
 51 53  0  0  1  0            999 V2000
  -40.0242   62.5173   34.8624 N   0  0  0  0  0  0
  -38.6561   62.6353   33.0601 C   0  0  0  0  0  0
  -39.0673   61.8390   34.1217 C   0  0  0  0  0  0
  -39.4989   63.7938   33.0860 C   0  0  0  0  0  0
  -40.3031   63.7294   34.2530 C   0  0  0  0  0  0
  -37.5617   62.3514   32.0340 C   0  0  0  0  0  0
  -40.7079   62.0167   36.0627 C   0  0  0  0  0  0
  -41.1828   64.7643   34.5988 C   0  0  0  0  0  0
  -36.5282   63.4764   31.8430 C   0  0  0  0  0  0
  -39.6280   64.8979   32.2371 C   0  0  0  0  0  0
  -37.7388   68.8757   31.1310 C   0  0  0  0  0  0
  -36.5130   64.4990   32.5281 O   0  0  0  0  0  0
  -38.4684   69.8625   31.1081 O   0  0  0  0  0  0
  -35.6354   63.3007   30.8838 N   0  0  0  0  0  0
  -41.2305   65.8736   33.7510 C   0  0  0  0  0  0
  -40.4695   65.9562   32.5853 C   0  0  0  0  0  0
  -38.5941   60.4581   34.5206 C   0  0  0  0  0  0
  -42.1590   61.6074   35.8357 C   0  0  0  0  0  0
  -36.4173   68.8983   31.4428 O   0  0  0  0  0  0
  -38.1703   67.4563   30.7590 C   0  0  0  0  0  0
  -39.6802   67.2919   30.4648 C   0  0  0  0  0  0
  -40.5855   67.2108   31.7156 C   0  0  0  0  0  0
  -42.5212   60.8497   34.7177 C   0  0  0  0  0  0
  -43.1309   61.9881   36.7665 C   0  0  0  0  0  0
  -44.4613   61.6351   36.5695 C   0  0  0  0  0  0
  -43.8528   60.4988   34.5213 C   0  0  0  0  0  0
  -44.8155   60.8975   35.4433 C   0  0  0  0  0  0
  -37.0112   61.4465   32.2884 H   0  0  0  0  0  0
  -38.0156   62.1541   31.0620 H   0  0  0  0  0  0
  -40.6620   62.8157   36.8060 H   0  0  0  0  0  0
  -40.1606   61.1772   36.4899 H   0  0  0  0  0  0
  -41.7992   64.7158   35.4835 H   0  0  0  0  0  0
  -39.0405   64.9242   31.3340 H   0  0  0  0  0  0
  -35.0077   64.0578   30.6445 H   0  0  0  0  0  0
  -35.7160   62.5138   30.2613 H   0  0  0  0  0  0
  -41.8937   66.6859   34.0096 H   0  0  0  0  0  0
  -37.9583   59.9964   33.7656 H   0  0  0  0  0  0
  -38.0151   60.4985   35.4404 H   0  0  0  0  0  0
  -39.4235   59.7683   34.6861 H   0  0  0  0  0  0
  -36.0929   69.8061   31.3427 H   0  0  0  0  0  0
  -37.8358   66.7685   31.5329 H   0  0  0  0  0  0
  -37.6174   67.1980   29.8542 H   0  0  0  0  0  0
  -39.8367   66.4051   29.8473 H   0  0  0  0  0  0
  -40.0186   68.1196   29.8431 H   0  0  0  0  0  0
  -41.6147   67.2644   31.3754 H   0  0  0  0  0  0
  -40.4224   68.0869   32.3433 H   0  0  0  0  0  0
  -41.7792   60.5430   33.9949 H   0  0  0  0  0  0
  -42.8618   62.5623   37.6411 H   0  0  0  0  0  0
  -45.2150   61.9305   37.2843 H   0  0  0  0  0  0
  -44.1380   59.9209   33.6537 H   0  0  0  0  0  0
  -45.8493   60.6282   35.2821 H   0  0  0  0  0  0
  1  3  1  0  0  0
  1  5  1  0  0  0
  1  7  1  0  0  0
  2  3  2  0  0  0
  2  6  1  0  0  0
  2  4  1  0  0  0
  3 17  1  0  0  0
  4  5  1  0  0  0
  4 10  2  0  0  0
  5  8  2  0  0  0
  6  9  1  0  0  0
  6 28  1  0  0  0
  6 29  1  0  0  0
  7 18  1  0  0  0
  7 30  1  0  0  0
  7 31  1  0  0  0
  8 15  1  0  0  0
  8 32  1  0  0  0
  9 12  2  0  0  0
  9 14  1  0  0  0
 10 16  1  0  0  0
 10 33  1  0  0  0
 11 20  1  0  0  0
 11 13  2  0  0  0
 11 19  1  0  0  0
 14 34  1  0  0  0
 14 35  1  0  0  0
 15 16  2  0  0  0
 15 36  1  0  0  0
 16 22  1  0  0  0
 17 37  1  0  0  0
 17 38  1  0  0  0
 17 39  1  0  0  0
 18 23  1  0  0  0
 18 24  2  0  0  0
 19 40  1  0  0  0
 20 21  1  0  0  0
 20 41  1  0  0  0
 20 42  1  0  0  0
 21 22  1  0  0  0
 21 43  1  0  0  0
 21 44  1  0  0  0
 22 45  1  0  0  0
 22 46  1  0  0  0
 23 26  2  0  0  0
 23 47  1  0  0  0
 24 25  1  0  0  0
 24 48  1  0  0  0
 25 27  2  0  0  0
 25 49  1  0  0  0
 26 27  1  0  0  0
 26 50  1  0  0  0
 27 51  1  0  0  0
M  END
> <s_m_entry_id>
68142

> <s_m_entry_name>
dock_pv.78

> <s_m_Source_Path>
/home/csk/Desktop/cluster/DUD-E-result/pa2ga

> <s_m_Source_File>
dock_pv.maegz

> <i_m_Source_File_Index>
78

> <chembl_id>
CHEMBL149880

> <chembl_pref_name>
None

> <i_lp_mmshare_version>
53161

> <i_f3d_flags>
0

> <r_lp_tautomer_probability>
1

> <s_lp_Force_Field>
OPLS_2005

> <r_lp_Energy>
8.696326

> <b_lp_Chiralities_Consistent>
1

> <s_lp_Variant>
CHEMBL3474_lig73-1

> <s_i_glide_gridfile>
glide-grid_1kvo

> <i_i_glide_lignum>
113

> <i_i_glide_rotatable_bonds>
9

> <r_i_docking_score>
-8.12047465031446

> <r_i_glide_ligand_efficiency>
-0.300758320382017

> <r_i_glide_ligand_efficiency_sa>
-0.902274960154801

> <r_i_glide_ligand_efficiency_ln>
-1.89031262210558

> <r_i_glide_gscore>
-8.12047465031446

> <r_i_glide_lipo>
-3.52375793411074

> <r_i_glide_hbond>
-0.418703085191882

> <r_i_glide_metal>
0

> <r_i_glide_rewards>
-1.18152424226224

> <r_i_glide_evdw>
-39.4951095581055

> <r_i_glide_ecoul>
-12.9202919006348

> <r_i_glide_erotb>
1.01324311026387

> <r_i_glide_esite>
-0.0969332360129791

> <r_i_glide_emodel>
-79.3566375849933

> <r_i_glide_energy>
-52.4154014587402

> <r_i_glide_einternal>
7.66672706604004

> <i_i_glide_confnum>
85

> <i_i_glide_posenum>
396

> <r_i_glide_eff_state_penalty>
0

> <s_user_duplicate_titles>
CHEMBL3474_lig73,247244

> <s_m_subgroup_title>
dock_pv

> <s_m_subgroupid>
dock_pv

> <b_m_subgroup_collapsed>
1

$$$$
CHEMBL3474_lig157
                    3D
 Schrodinger Suite 2021-1.
 43 45  0  0  1  0            999 V2000
  -40.0600   62.5946   34.9312 N   0  0  0  0  0  0
  -38.7024   62.7599   33.1181 C   0  0  0  0  0  0
  -39.1142   61.9361   34.1620 C   0  0  0  0  0  0
  -39.5344   63.9331   33.1912 C   0  0  0  0  0  0
  -40.3501   63.8155   34.3492 C   0  0  0  0  0  0
  -40.7396   62.0662   36.1230 C   0  0  0  0  0  0
  -37.6207   62.4726   32.0727 C   0  0  0  0  0  0
  -41.2522   64.8194   34.7249 C   0  0  0  0  0  0
  -36.6286   63.6186   31.8150 C   0  0  0  0  0  0
  -39.6556   65.0823   32.3936 C   0  0  0  0  0  0
  -42.1842   61.6365   35.8924 C   0  0  0  0  0  0
  -36.4165   64.5062   32.6341 O   0  0  0  0  0  0
  -40.5478   66.0964   32.7629 C   0  0  0  0  0  0
  -36.0147   63.6432   30.6439 N   0  0  0  0  0  0
  -43.1701   61.9837   36.8228 C   0  0  0  0  0  0
  -41.3178   65.9483   33.9120 C   0  0  0  0  0  0
  -38.6666   60.5295   34.5190 C   0  0  0  0  0  0
  -44.4949   61.6041   36.6186 C   0  0  0  0  0  0
  -45.7050   62.0386   37.7675 Cl  0  0  0  0  0  0
  -40.7195   67.2696   32.0524 O   0  0  0  0  0  0
  -43.8635   60.5025   34.5650 C   0  0  0  0  0  0
  -42.5386   60.8801   34.7674 C   0  0  0  0  0  0
  -44.8414   60.8732   35.4854 C   0  0  0  0  0  0
  -39.9128   67.5078   30.9042 C   0  0  0  0  0  0
  -40.1794   61.2291   36.5428 H   0  0  0  0  0  0
  -40.7089   62.8545   36.8763 H   0  0  0  0  0  0
  -37.0204   61.6063   32.3499 H   0  0  0  0  0  0
  -38.0833   62.2112   31.1210 H   0  0  0  0  0  0
  -41.8725   64.7270   35.6044 H   0  0  0  0  0  0
  -39.0521   65.1673   31.5055 H   0  0  0  0  0  0
  -35.4124   64.4311   30.4114 H   0  0  0  0  0  0
  -36.3292   63.0398   29.8977 H   0  0  0  0  0  0
  -42.9137   62.5530   37.7054 H   0  0  0  0  0  0
  -42.0011   66.7388   34.1830 H   0  0  0  0  0  0
  -38.0537   60.0731   33.7425 H   0  0  0  0  0  0
  -38.0870   60.5159   35.4403 H   0  0  0  0  0  0
  -39.5153   59.8618   34.6669 H   0  0  0  0  0  0
  -44.1382   59.9264   33.6930 H   0  0  0  0  0  0
  -41.7930   60.5899   34.0424 H   0  0  0  0  0  0
  -45.8684   60.5801   35.3237 H   0  0  0  0  0  0
  -40.1322   68.4972   30.5017 H   0  0  0  0  0  0
  -40.1089   66.7723   30.1223 H   0  0  0  0  0  0
  -38.8519   67.4847   31.1583 H   0  0  0  0  0  0
  1  3  1  0  0  0
  1  5  1  0  0  0
  1  6  1  0  0  0
  2  3  2  0  0  0
  2  7  1  0  0  0
  2  4  1  0  0  0
  3 17  1  0  0  0
  4  5  1  0  0  0
  4 10  2  0  0  0
  5  8  2  0  0  0
  6 11  1  0  0  0
  6 25  1  0  0  0
  6 26  1  0  0  0
  7  9  1  0  0  0
  7 27  1  0  0  0
  7 28  1  0  0  0
  8 16  1  0  0  0
  8 29  1  0  0  0
  9 12  2  0  0  0
  9 14  1  0  0  0
 10 13  1  0  0  0
 10 30  1  0  0  0
 11 15  2  0  0  0
 11 22  1  0  0  0
 13 16  2  0  0  0
 13 20  1  0  0  0
 14 31  1  0  0  0
 14 32  1  0  0  0
 15 18  1  0  0  0
 15 33  1  0  0  0
 16 34  1  0  0  0
 17 35  1  0  0  0
 17 36  1  0  0  0
 17 37  1  0  0  0
 18 19  1  0  0  0
 18 23  2  0  0  0
 20 24  1  0  0  0
 21 22  2  0  0  0
 21 23  1  0  0  0
 21 38  1  0  0  0
 22 39  1  0  0  0
 23 40  1  0  0  0
 24 41  1  0  0  0
 24 42  1  0  0  0
 24 43  1  0  0  0
M  END
> <s_m_entry_id>
68143

> <s_m_entry_name>
dock_pv.79

> <s_m_Source_Path>
/home/csk/Desktop/cluster/DUD-E-result/pa2ga

> <s_m_Source_File>
dock_pv.maegz

> <i_m_Source_File_Index>
79

> <chembl_id>
CHEMBL358908

> <chembl_pref_name>
None

> <i_lp_mmshare_version>
53161

> <i_f3d_flags>
0

> <r_lp_tautomer_probability>
1

> <s_lp_Force_Field>
OPLS_2005

> <r_lp_Energy>
11.826619

> <b_lp_Chiralities_Consistent>
1

> <s_lp_Variant>
CHEMBL3474_lig157-1

> <s_i_glide_gridfile>
glide-grid_1kvo

> <i_i_glide_lignum>
218

> <i_i_glide_rotatable_bonds>
5

> <r_i_docking_score>
-8.10018399174065

> <r_i_glide_ligand_efficiency>
-0.337507666322527

> <r_i_glide_ligand_efficiency_sa>
-0.973540572426921

> <r_i_glide_ligand_efficiency_ln>
-1.93874572244706

> <r_i_glide_gscore>
-8.10018399174065

> <r_i_glide_lipo>
-3.42891375352329

> <r_i_glide_hbond>
-0.558844000725651

> <r_i_glide_metal>
0

> <r_i_glide_rewards>
-1.31626890595973

> <r_i_glide_evdw>
-33.895866394043

> <r_i_glide_ecoul>
-10.0458316802979

> <r_i_glide_erotb>
0.484167990303542

> <r_i_glide_esite>
-0.0786572500886953

> <r_i_glide_emodel>
-68.5000982672808

> <r_i_glide_energy>
-43.9416980743408

> <r_i_glide_einternal>
1.26497066020966

> <i_i_glide_confnum>
4

> <i_i_glide_posenum>
58

> <r_i_glide_eff_state_penalty>
0

> <s_user_duplicate_titles>
CHEMBL3474_lig157,246986

> <s_m_subgroup_title>
dock_pv

> <s_m_subgroupid>
dock_pv

> <b_m_subgroup_collapsed>
1

$$$$
CHEMBL3474_lig341
                    3D
 Schrodinger Suite 2021-1.
 43 45  0  0  1  0            999 V2000
  -40.4508   66.7955   34.1821 C   0  0  0  0  0  0
  -40.0151   65.4732   34.2151 C   0  0  0  0  0  0
  -39.5242   64.8557   33.0561 C   0  0  0  0  0  0
  -39.5536   65.5632   31.8468 C   0  0  0  0  0  0
  -39.9770   66.8953   31.8112 C   0  0  0  0  0  0
  -40.4151   67.5094   32.9875 C   0  0  0  0  0  0
  -39.9699   67.6591   30.4920 C   0  0  0  0  0  0
  -39.2854   69.0529   30.5073 C   0  0  0  0  0  0
  -37.7978   69.0629   30.8825 C   0  0  0  0  0  0
  -37.2150   70.2403   30.5272 O   0  0  0  0  0  0
  -37.2150   68.1384   31.4430 O   0  0  0  0  0  0
  -39.0217   63.5236   33.1022 N   0  0  0  0  0  0
  -37.6820   61.7148   32.8598 C   0  0  0  0  0  0
  -37.8229   63.0589   32.5430 C   0  0  0  0  0  0
  -36.8046   63.8873   31.9284 C   0  0  0  0  0  0
  -36.0153   63.2894   31.0429 N   0  0  0  0  0  0
  -36.6244   65.0577   32.2430 O   0  0  0  0  0  0
  -38.7996   61.3244   33.6456 C   0  0  0  0  0  0
  -39.6357   62.4692   33.7841 C   0  0  0  0  0  0
  -40.8390   62.4088   34.5113 C   0  0  0  0  0  0
  -41.1582   61.2067   35.1611 C   0  0  0  0  0  0
  -40.3316   60.0985   35.0289 C   0  0  0  0  0  0
  -39.1711   60.1255   34.2628 C   0  0  0  0  0  0
  -42.2765   61.0228   35.9507 O   0  0  0  0  0  0
  -42.9620   62.1484   36.4962 C   0  0  0  0  0  0
  -43.8619   61.6833   37.3604 F   0  0  0  0  0  0
  -42.1350   62.9531   37.1689 F   0  0  0  0  0  0
  -43.6154   62.8292   35.5534 F   0  0  0  0  0  0
  -40.8013   67.2712   35.0863 H   0  0  0  0  0  0
  -40.0158   64.9518   35.1610 H   0  0  0  0  0  0
  -39.2129   65.0882   30.9367 H   0  0  0  0  0  0
  -40.7496   68.5354   32.9795 H   0  0  0  0  0  0
  -41.0129   67.7696   30.1955 H   0  0  0  0  0  0
  -39.5110   67.0472   29.7123 H   0  0  0  0  0  0
  -39.7912   69.7201   31.2035 H   0  0  0  0  0  0
  -39.3887   69.5020   29.5185 H   0  0  0  0  0  0
  -36.2461   70.2532   30.6427 H   0  0  0  0  0  0
  -36.8372   61.0945   32.5970 H   0  0  0  0  0  0
  -35.3275   63.8598   30.5664 H   0  0  0  0  0  0
  -36.2570   62.3813   30.6781 H   0  0  0  0  0  0
  -41.4842   63.2684   34.5842 H   0  0  0  0  0  0
  -40.6020   59.1971   35.5525 H   0  0  0  0  0  0
  -38.5525   59.2457   34.1742 H   0  0  0  0  0  0
  1  2  2  0  0  0
  1  6  1  0  0  0
  1 29  1  0  0  0
  2  3  1  0  0  0
  2 30  1  0  0  0
  3  4  2  0  0  0
  3 12  1  0  0  0
  4  5  1  0  0  0
  4 31  1  0  0  0
  5  6  2  0  0  0
  5  7  1  0  0  0
  6 32  1  0  0  0
  7  8  1  0  0  0
  7 33  1  0  0  0
  7 34  1  0  0  0
  8  9  1  0  0  0
  8 35  1  0  0  0
  8 36  1  0  0  0
  9 10  1  0  0  0
  9 11  2  0  0  0
 10 37  1  0  0  0
 12 19  1  0  0  0
 12 14  1  0  0  0
 13 18  1  0  0  0
 13 14  2  0  0  0
 13 38  1  0  0  0
 14 15  1  0  0  0
 15 16  1  0  0  0
 15 17  2  0  0  0
 16 39  1  0  0  0
 16 40  1  0  0  0
 18 19  2  0  0  0
 18 23  1  0  0  0
 19 20  1  0  0  0
 20 21  2  0  0  0
 20 41  1  0  0  0
 21 22  1  0  0  0
 21 24  1  0  0  0
 22 23  2  0  0  0
 22 42  1  0  0  0
 23 43  1  0  0  0
 24 25  1  0  0  0
 25 26  1  0  0  0
 25 27  1  0  0  0
 25 28  1  0  0  0
M  END
> <s_m_entry_id>
68144

> <s_m_entry_name>
dock_pv.80

> <s_m_Source_Path>
/home/csk/Desktop/cluster/DUD-E-result/pa2ga

> <s_m_Source_File>
dock_pv.maegz

> <i_m_Source_File_Index>
80

> <chembl_id>
CHEMBL4171084

> <chembl_pref_name>
None

> <i_lp_mmshare_version>
53161

> <i_f3d_flags>
0

> <r_lp_tautomer_probability>
1

> <s_lp_Force_Field>
OPLS_2005

> <r_lp_Energy>
14.18594

> <b_lp_Chiralities_Consistent>
1

> <s_lp_Variant>
CHEMBL3474_lig341-1

> <s_i_glide_gridfile>
glide-grid_1kvo

> <i_i_glide_lignum>
430

> <i_i_glide_rotatable_bonds>
8

> <r_i_docking_score>
-8.08454278618021

> <r_i_glide_ligand_efficiency>
-0.288733670935008

> <r_i_glide_ligand_efficiency_sa>
-0.876765479996566

> <r_i_glide_ligand_efficiency_ln>
-1.86614984754107

> <r_i_glide_gscore>
-8.08454278618021

> <r_i_glide_lipo>
-3.03811418104115

> <r_i_glide_hbond>
-0.164625815958736

> <r_i_glide_metal>
0

> <r_i_glide_rewards>
-1.51714822832521

> <r_i_glide_evdw>
-41.5426902770996

> <r_i_glide_ecoul>
-11.8883943557739

> <r_i_glide_erotb>
0.634207008545812

> <r_i_glide_esite>
-0.138467902179859

> <r_i_glide_emodel>
-82.5121784394645

> <r_i_glide_energy>
-53.4310846328735

> <r_i_glide_einternal>
3.91314268112183

> <i_i_glide_confnum>
91

> <i_i_glide_posenum>
317

> <r_i_glide_eff_state_penalty>
0

> <s_user_duplicate_titles>
CHEMBL3474_lig341

> <s_m_subgroup_title>
dock_pv

> <s_m_subgroupid>
dock_pv

> <b_m_subgroup_collapsed>
1

$$$$
CHEMBL3474_lig36
                    3D
 Schrodinger Suite 2021-1.
 64 66  0  0  1  0            999 V2000
  -41.4855   63.4177   34.2310 N   0  0  0  0  0  0
  -41.6814   65.1102   35.7085 C   0  0  0  0  0  0
  -41.1954   64.5640   33.5222 C   0  0  0  0  0  0
  -41.2849   65.6647   34.4216 C   0  0  0  0  0  0
  -41.7861   63.7348   35.5388 C   0  0  0  0  0  0
  -39.5112   70.8087   28.4716 P   0  0  0  0  0  0
  -40.9686   66.9598   33.9227 C   0  0  0  0  0  0
  -40.8134   64.7051   32.1848 C   0  0  0  0  0  0
  -41.8589   65.8142   37.0507 C   0  0  0  0  0  0
  -41.3198   62.0729   33.6914 C   0  0  0  0  0  0
  -40.5448   65.8059   37.8353 C   0  0  0  0  0  0
  -39.6179   72.3735   28.8581 O   0  0  0  0  0  0
  -38.8177   70.8983   27.0148 O   0  0  0  0  0  0
  -40.8188   70.0984   28.4773 O   0  0  0  0  0  0
  -40.4544   67.0780   32.6131 C   0  0  0  0  0  0
  -40.4259   65.9662   31.7669 C   0  0  0  0  0  0
  -39.6126   66.4968   37.4567 O   0  0  0  0  0  0
  -42.5723   68.6133   35.0437 C   0  0  0  0  0  0
  -43.0225   69.8748   35.1257 C   0  0  0  0  0  0
  -40.4174   65.0062   38.8951 N   0  0  0  0  0  0
  -38.1311   70.2274   29.5341 C   0  0  0  0  0  0
  -42.0974   62.6625   36.5779 C   0  0  0  0  0  0
  -39.8874   61.5535   33.7401 C   0  0  0  0  0  0
  -41.1296   68.2307   34.7559 C   0  0  0  0  0  0
  -40.0132   68.3243   32.2003 O   0  0  0  0  0  0
  -38.6310   69.8354   30.9382 C   0  0  0  0  0  0
  -39.3090   68.4562   30.9714 C   0  0  0  0  0  0
  -39.7029   60.1747   33.7986 C   0  0  0  0  0  0
  -38.7706   62.4058   33.6902 C   0  0  0  0  0  0
  -43.4996   62.0367   36.4313 C   0  0  0  0  0  0
  -38.4165   59.6607   33.8178 C   0  0  0  0  0  0
  -37.4851   61.8742   33.7005 C   0  0  0  0  0  0
  -37.3145   60.4995   33.7709 C   0  0  0  0  0  0
  -40.7524   63.8647   31.5074 H   0  0  0  0  0  0
  -42.1922   66.8442   36.9639 H   0  0  0  0  0  0
  -42.6343   65.3271   37.6446 H   0  0  0  0  0  0
  -41.9930   61.3953   34.2136 H   0  0  0  0  0  0
  -41.6455   62.0721   32.6516 H   0  0  0  0  0  0
  -40.0915   66.0563   30.7440 H   0  0  0  0  0  0
  -43.2705   67.8054   35.2063 H   0  0  0  0  0  0
  -44.0621   70.0703   35.3428 H   0  0  0  0  0  0
  -42.3669   70.7225   34.9826 H   0  0  0  0  0  0
  -39.5089   64.9287   39.3308 H   0  0  0  0  0  0
  -41.1923   64.4554   39.2352 H   0  0  0  0  0  0
  -37.6335   69.3855   29.0508 H   0  0  0  0  0  0
  -37.3959   71.0303   29.5998 H   0  0  0  0  0  0
  -41.3262   61.8858   36.5881 H   0  0  0  0  0  0
  -42.0464   63.0999   37.5745 H   0  0  0  0  0  0
  -40.6031   68.0971   35.6968 H   0  0  0  0  0  0
  -40.6633   69.0846   34.2557 H   0  0  0  0  0  0
  -37.7924   69.8233   31.6358 H   0  0  0  0  0  0
  -39.3124   70.6033   31.3082 H   0  0  0  0  0  0
  -40.0128   68.3303   30.1466 H   0  0  0  0  0  0
  -38.5404   67.6873   30.8671 H   0  0  0  0  0  0
  -40.5430   59.4964   33.8196 H   0  0  0  0  0  0
  -38.8695   63.4766   33.6444 H   0  0  0  0  0  0
  -43.9215   61.8175   37.4143 H   0  0  0  0  0  0
  -44.2067   62.6923   35.9077 H   0  0  0  0  0  0
  -43.4639   61.0875   35.8850 H   0  0  0  0  0  0
  -38.2807   58.5926   33.8490 H   0  0  0  0  0  0
  -36.6180   62.5091   33.6707 H   0  0  0  0  0  0
  -36.3147   60.0929   33.8331 H   0  0  0  0  0  0
  -39.2354   71.5882   26.4525 H   0  0  0  0  0  0
  -40.0192   72.9026   28.1294 H   0  0  0  0  0  0
  1  3  1  0  0  0
  1  5  1  0  0  0
  1 10  1  0  0  0
  2  5  2  0  0  0
  2  9  1  0  0  0
  2  4  1  0  0  0
  3  4  1  0  0  0
  3  8  2  0  0  0
  4  7  2  0  0  0
  5 22  1  0  0  0
  6 21  1  0  0  0
  6 12  1  0  0  0
  6 13  1  0  0  0
  6 14  2  0  0  0
  7 24  1  0  0  0
  7 15  1  0  0  0
  8 16  1  0  0  0
  8 34  1  0  0  0
  9 11  1  0  0  0
  9 35  1  0  0  0
  9 36  1  0  0  0
 10 23  1  0  0  0
 10 37  1  0  0  0
 10 38  1  0  0  0
 11 17  2  0  0  0
 11 20  1  0  0  0
 12 64  1  0  0  0
 13 63  1  0  0  0
 15 16  2  0  0  0
 15 25  1  0  0  0
 16 39  1  0  0  0
 18 24  1  0  0  0
 18 19  2  0  0  0
 18 40  1  0  0  0
 19 41  1  0  0  0
 19 42  1  0  0  0
 20 43  1  0  0  0
 20 44  1  0  0  0
 21 26  1  0  0  0
 21 45  1  0  0  0
 21 46  1  0  0  0
 22 30  1  0  0  0
 22 47  1  0  0  0
 22 48  1  0  0  0
 23 28  2  0  0  0
 23 29  1  0  0  0
 24 49  1  0  0  0
 24 50  1  0  0  0
 25 27  1  0  0  0
 26 27  1  0  0  0
 26 51  1  0  0  0
 26 52  1  0  0  0
 27 53  1  0  0  0
 27 54  1  0  0  0
 28 31  1  0  0  0
 28 55  1  0  0  0
 29 32  2  0  0  0
 29 56  1  0  0  0
 30 57  1  0  0  0
 30 58  1  0  0  0
 30 59  1  0  0  0
 31 33  2  0  0  0
 31 60  1  0  0  0
 32 33  1  0  0  0
 32 61  1  0  0  0
 33 62  1  0  0  0
M  END
> <s_m_entry_id>
68145

> <s_m_entry_name>
dock_pv.81

> <s_m_Source_Path>
/home/csk/Desktop/cluster/DUD-E-result/pa2ga

> <s_m_Source_File>
dock_pv.maegz

> <i_m_Source_File_Index>
81

> <chembl_id>
CHEMBL149330

> <chembl_pref_name>
None

> <i_lp_mmshare_version>
53161

> <i_f3d_flags>
0

> <r_lp_tautomer_probability>
1

> <s_lp_Force_Field>
OPLS_2005

> <r_lp_Energy>
7.547174

> <b_lp_Chiralities_Consistent>
1

> <s_lp_Variant>
CHEMBL3474_lig36-1

> <s_i_glide_gridfile>
glide-grid_1kvo

> <i_i_glide_lignum>
76

> <i_i_glide_rotatable_bonds>
14

> <r_i_docking_score>
-8.07411504391544

> <r_i_glide_ligand_efficiency>
-0.244670152845922

> <r_i_glide_ligand_efficiency_sa>
-0.78478791386395

> <r_i_glide_ligand_efficiency_ln>
-1.79564138023648

> <r_i_glide_gscore>
-8.07411504391544

> <r_i_glide_lipo>
-3.62271006494246

> <r_i_glide_hbond>
-0.451187880499752

> <r_i_glide_metal>
0

> <r_i_glide_rewards>
-0.632085947520198

> <r_i_glide_evdw>
-38.9561424255371

> <r_i_glide_ecoul>
-15.0178537368774

> <r_i_glide_erotb>
0.912755615079309

> <r_i_glide_esite>
-0.080401584223868

> <r_i_glide_emodel>
-74.8272094358579

> <r_i_glide_energy>
-53.9739961624146

> <r_i_glide_einternal>
15.7877283096313

> <i_i_glide_confnum>
554

> <i_i_glide_posenum>
358

> <r_i_glide_eff_state_penalty>
0

> <s_user_duplicate_titles>
CHEMBL3474_lig36,246686

> <s_m_subgroup_title>
dock_pv

> <s_m_subgroupid>
dock_pv

> <b_m_subgroup_collapsed>
1

$$$$
CHEMBL3474_lig136
                    3D
 Schrodinger Suite 2021-1.
 45 47  0  0  1  0            999 V2000
  -38.5959   62.6720   33.0875 C   0  0  0  0  0  0
  -39.9891   62.3383   34.8292 N   0  0  0  0  0  0
  -38.9770   61.7697   34.0722 C   0  0  0  0  0  0
  -39.4923   63.8082   33.1750 C   0  0  0  0  0  0
  -40.3031   63.5938   34.3297 C   0  0  0  0  0  0
  -42.1425   61.4311   35.8516 C   0  0  0  0  0  0
  -37.4773   62.4818   32.1568 C   0  0  0  0  0  0
  -40.6396   61.7201   35.9918 C   0  0  0  0  0  0
  -36.5770   63.7417   31.8429 C   0  0  0  0  0  0
  -39.7251   64.9758   32.4055 C   0  0  0  0  0  0
  -43.0336   61.8297   36.8710 C   0  0  0  0  0  0
  -42.6657   60.7419   34.7353 C   0  0  0  0  0  0
  -38.3453   67.3101   30.5388 C   0  0  0  0  0  0
  -37.1037   61.3764   31.7582 O   0  0  0  0  0  0
  -39.0346   65.0519   31.2113 O   0  0  0  0  0  0
  -36.4164   64.6634   32.6429 O   0  0  0  0  0  0
  -37.6160   67.4315   31.5222 O   0  0  0  0  0  0
  -36.0149   63.6947   30.6442 N   0  0  0  0  0  0
  -39.2574   66.1005   30.2645 C   0  0  0  0  0  0
  -38.4142   60.4077   34.4333 C   0  0  0  0  0  0
  -41.2360   64.5414   34.7776 C   0  0  0  0  0  0
  -41.6932   60.1252   33.4454 Cl  0  0  0  0  0  0
  -42.5047   62.6497   38.3022 Cl  0  0  0  0  0  0
  -38.4210   68.2178   29.5252 O   0  0  0  0  0  0
  -41.3726   65.7090   34.0302 C   0  0  0  0  0  0
  -44.8982   60.8985   35.6510 C   0  0  0  0  0  0
  -40.6476   65.9227   32.8637 C   0  0  0  0  0  0
  -44.0299   60.4973   34.6426 C   0  0  0  0  0  0
  -44.3971   61.5614   36.7637 C   0  0  0  0  0  0
  -40.4449   62.4072   36.8107 H   0  0  0  0  0  0
  -40.1442   60.7911   36.2727 H   0  0  0  0  0  0
  -35.4714   64.4847   30.3004 H   0  0  0  0  0  0
  -36.2474   62.9356   30.0187 H   0  0  0  0  0  0
  -39.0007   65.6948   29.2870 H   0  0  0  0  0  0
  -40.3042   66.3971   30.2167 H   0  0  0  0  0  0
  -37.5955   60.0835   33.7931 H   0  0  0  0  0  0
  -38.0170   60.4317   35.4428 H   0  0  0  0  0  0
  -39.1619   59.6154   34.3980 H   0  0  0  0  0  0
  -41.8369   64.3806   35.6605 H   0  0  0  0  0  0
  -38.9512   67.9132   28.7875 H   0  0  0  0  0  0
  -42.0825   66.4584   34.3500 H   0  0  0  0  0  0
  -45.9565   60.6891   35.5672 H   0  0  0  0  0  0
  -40.8216   66.8354   32.3151 H   0  0  0  0  0  0
  -44.4147   59.9756   33.7780 H   0  0  0  0  0  0
  -45.0709   61.8691   37.5497 H   0  0  0  0  0  0
  1  3  2  0  0  0
  1  4  1  0  0  0
  1  7  1  0  0  0
  2  3  1  0  0  0
  2  8  1  0  0  0
  2  5  1  0  0  0
  3 20  1  0  0  0
  4  5  1  0  0  0
  4 10  2  0  0  0
  5 21  2  0  0  0
  6  8  1  0  0  0
  6 11  2  0  0  0
  6 12  1  0  0  0
  7  9  1  0  0  0
  7 14  2  0  0  0
  8 30  1  0  0  0
  8 31  1  0  0  0
  9 16  2  0  0  0
  9 18  1  0  0  0
 10 15  1  0  0  0
 10 27  1  0  0  0
 11 23  1  0  0  0
 11 29  1  0  0  0
 12 22  1  0  0  0
 12 28  2  0  0  0
 13 19  1  0  0  0
 13 17  2  0  0  0
 13 24  1  0  0  0
 15 19  1  0  0  0
 18 32  1  0  0  0
 18 33  1  0  0  0
 19 34  1  0  0  0
 19 35  1  0  0  0
 20 36  1  0  0  0
 20 37  1  0  0  0
 20 38  1  0  0  0
 21 25  1  0  0  0
 21 39  1  0  0  0
 24 40  1  0  0  0
 25 27  2  0  0  0
 25 41  1  0  0  0
 26 28  1  0  0  0
 26 29  2  0  0  0
 26 42  1  0  0  0
 27 43  1  0  0  0
 28 44  1  0  0  0
 29 45  1  0  0  0
M  END
> <s_m_entry_id>
68146

> <s_m_entry_name>
dock_pv.82

> <s_m_Source_Path>
/home/csk/Desktop/cluster/DUD-E-result/pa2ga

> <s_m_Source_File>
dock_pv.maegz

> <i_m_Source_File_Index>
82

> <chembl_id>
CHEMBL345488

> <chembl_pref_name>
None

> <i_lp_mmshare_version>
53161

> <i_f3d_flags>
0

> <r_lp_tautomer_probability>
1

> <s_lp_Force_Field>
OPLS_2005

> <r_lp_Energy>
23.874325

> <b_lp_Chiralities_Consistent>
1

> <s_lp_Variant>
CHEMBL3474_lig136-1

> <s_i_glide_gridfile>
glide-grid_1kvo

> <i_i_glide_lignum>
197

> <i_i_glide_rotatable_bonds>
8

> <r_i_docking_score>
-8.06304433455301

> <r_i_glide_ligand_efficiency>
-0.278036011536311

> <r_i_glide_ligand_efficiency_sa>
-0.854214715430793

> <r_i_glide_ligand_efficiency_ln>
-1.84623269144971

> <r_i_glide_gscore>
-8.06304433455301

> <r_i_glide_lipo>
-3.53401497950818

> <r_i_glide_hbond>
-0.462926834814967

> <r_i_glide_metal>
0

> <r_i_glide_rewards>
-0.930975726856303

> <r_i_glide_evdw>
-46.1574058532715

> <r_i_glide_ecoul>
-8.81856441497803

> <r_i_glide_erotb>
0.630971152669181

> <r_i_glide_esite>
-0.135442991132459

> <r_i_glide_emodel>
-82.943438107004

> <r_i_glide_energy>
-54.9759702682495

> <r_i_glide_einternal>
7.76482963562012

> <i_i_glide_confnum>
20

> <i_i_glide_posenum>
391

> <r_i_glide_eff_state_penalty>
0

> <s_user_duplicate_titles>
CHEMBL3474_lig136,247845

> <s_m_subgroup_title>
dock_pv

> <s_m_subgroupid>
dock_pv

> <b_m_subgroup_collapsed>
1

$$$$
CHEMBL3474_lig106
                    3D
 Schrodinger Suite 2021-1.
 49 52  0  0  1  0            999 V2000
  -38.6861   62.9727   33.1326 C   0  0  0  0  0  0
  -39.1967   62.1204   34.1154 C   0  0  0  0  0  0
  -40.1316   62.8176   34.8624 N   0  0  0  0  0  0
  -39.5311   64.1568   33.1297 C   0  0  0  0  0  0
  -40.3761   64.0468   34.2783 C   0  0  0  0  0  0
  -37.4992   62.6866   32.3009 C   0  0  0  0  0  0
  -38.7791   60.7146   34.5203 C   0  0  0  0  0  0
  -36.5962   63.8929   31.8247 C   0  0  0  0  0  0
  -39.7615   59.5717   34.6007 C   0  0  0  0  0  0
  -38.7195   59.5927   33.5115 C   0  0  0  0  0  0
  -40.8197   62.3290   36.0682 C   0  0  0  0  0  0
  -39.6934   65.2964   32.3004 C   0  0  0  0  0  0
  -38.3337   67.5666   30.4539 C   0  0  0  0  0  0
  -37.0574   61.5511   32.1179 O   0  0  0  0  0  0
  -38.9843   65.2889   31.1147 O   0  0  0  0  0  0
  -36.4148   64.8975   32.5067 O   0  0  0  0  0  0
  -37.6139   67.6975   31.4433 O   0  0  0  0  0  0
  -36.0154   63.6932   30.6446 N   0  0  0  0  0  0
  -39.1616   66.3112   30.1279 C   0  0  0  0  0  0
  -41.2696   65.0598   34.6576 C   0  0  0  0  0  0
  -42.2586   61.8534   35.8828 C   0  0  0  0  0  0
  -38.4868   68.5170   29.4899 O   0  0  0  0  0  0
  -41.3358   66.1912   33.8525 C   0  0  0  0  0  0
  -40.5830   66.3049   32.6908 C   0  0  0  0  0  0
  -42.7247   61.3951   34.6440 C   0  0  0  0  0  0
  -43.1065   61.8301   36.9944 C   0  0  0  0  0  0
  -44.4086   61.3573   36.8711 C   0  0  0  0  0  0
  -44.0151   60.8980   34.5257 C   0  0  0  0  0  0
  -44.8566   60.8978   35.6340 C   0  0  0  0  0  0
  -38.0149   60.7113   35.2920 H   0  0  0  0  0  0
  -39.6485   58.8983   35.4439 H   0  0  0  0  0  0
  -40.7998   59.6880   34.3042 H   0  0  0  0  0  0
  -39.0283   59.7925   32.4852 H   0  0  0  0  0  0
  -37.8792   58.9055   33.5656 H   0  0  0  0  0  0
  -40.8066   63.1425   36.7957 H   0  0  0  0  0  0
  -40.2482   61.5180   36.5187 H   0  0  0  0  0  0
  -35.4543   64.4432   30.2436 H   0  0  0  0  0  0
  -36.2396   62.8764   30.0974 H   0  0  0  0  0  0
  -38.8103   65.9027   29.1807 H   0  0  0  0  0  0
  -40.2156   66.5552   29.9897 H   0  0  0  0  0  0
  -41.8945   64.9693   35.5345 H   0  0  0  0  0  0
  -37.9438   69.2886   29.6735 H   0  0  0  0  0  0
  -42.0146   66.9858   34.1249 H   0  0  0  0  0  0
  -40.7127   67.1921   32.0916 H   0  0  0  0  0  0
  -42.0892   61.4097   33.7692 H   0  0  0  0  0  0
  -42.7541   62.1711   37.9580 H   0  0  0  0  0  0
  -45.0647   61.3389   37.7298 H   0  0  0  0  0  0
  -44.3738   60.5299   33.5749 H   0  0  0  0  0  0
  -45.8651   60.5214   35.5381 H   0  0  0  0  0  0
  1  2  2  0  0  0
  1  4  1  0  0  0
  1  6  1  0  0  0
  2  3  1  0  0  0
  2  7  1  0  0  0
  3 11  1  0  0  0
  3  5  1  0  0  0
  4  5  1  0  0  0
  4 12  2  0  0  0
  5 20  2  0  0  0
  6  8  1  0  0  0
  6 14  2  0  0  0
  7  9  1  0  0  0
  7 10  1  0  0  0
  7 30  1  0  0  0
  8 16  2  0  0  0
  8 18  1  0  0  0
  9 10  1  0  0  0
  9 31  1  0  0  0
  9 32  1  0  0  0
 10 33  1  0  0  0
 10 34  1  0  0  0
 11 21  1  0  0  0
 11 35  1  0  0  0
 11 36  1  0  0  0
 12 15  1  0  0  0
 12 24  1  0  0  0
 13 19  1  0  0  0
 13 17  2  0  0  0
 13 22  1  0  0  0
 15 19  1  0  0  0
 18 37  1  0  0  0
 18 38  1  0  0  0
 19 39  1  0  0  0
 19 40  1  0  0  0
 20 23  1  0  0  0
 20 41  1  0  0  0
 21 25  2  0  0  0
 21 26  1  0  0  0
 22 42  1  0  0  0
 23 24  2  0  0  0
 23 43  1  0  0  0
 24 44  1  0  0  0
 25 28  1  0  0  0
 25 45  1  0  0  0
 26 27  2  0  0  0
 26 46  1  0  0  0
 27 29  1  0  0  0
 27 47  1  0  0  0
 28 29  2  0  0  0
 28 48  1  0  0  0
 29 49  1  0  0  0
M  END
> <s_m_entry_id>
68147

> <s_m_entry_name>
dock_pv.83

> <s_m_Source_Path>
/home/csk/Desktop/cluster/DUD-E-result/pa2ga

> <s_m_Source_File>
dock_pv.maegz

> <i_m_Source_File_Index>
83

> <chembl_id>
CHEMBL358163

> <chembl_pref_name>
None

> <i_lp_mmshare_version>
53161

> <i_f3d_flags>
0

> <r_lp_tautomer_probability>
1

> <s_lp_Force_Field>
OPLS_2005

> <r_lp_Energy>
28.45684

> <b_lp_Chiralities_Consistent>
1

> <s_lp_Variant>
CHEMBL3474_lig106-1

> <s_i_glide_gridfile>
glide-grid_1kvo

> <i_i_glide_lignum>
164

> <i_i_glide_rotatable_bonds>
9

> <r_i_docking_score>
-8.06230403556861

> <r_i_glide_ligand_efficiency>
-0.278010483985125

> <r_i_glide_ligand_efficiency_sa>
-0.854136286705854

> <r_i_glide_ligand_efficiency_ln>
-1.84606318175464

> <r_i_glide_gscore>
-8.06230403556861

> <r_i_glide_lipo>
-3.65066170517842

> <r_i_glide_hbond>
-0.412443156935932

> <r_i_glide_metal>
0

> <r_i_glide_rewards>
-1.20911849519397

> <r_i_glide_evdw>
-45.057689666748

> <r_i_glide_ecoul>
-8.52031326293945

> <r_i_glide_erotb>
0.887580869667843

> <r_i_glide_esite>
-0.146730075149806

> <r_i_glide_emodel>
-81.5025534301807

> <r_i_glide_energy>
-53.5780029296875

> <r_i_glide_einternal>
7.91876125335693

> <i_i_glide_confnum>
24

> <i_i_glide_posenum>
133

> <r_i_glide_eff_state_penalty>
0

> <s_user_duplicate_titles>
CHEMBL3474_lig106,248333

> <s_m_subgroup_title>
dock_pv

> <s_m_subgroupid>
dock_pv

> <b_m_subgroup_collapsed>
1

$$$$
CHEMBL3474_lig270
                    3D
 Schrodinger Suite 2021-1.
 59 61  0  0  1  0            999 V2000
  -36.4132   62.6246   31.7742 C   0  0  0  0  0  0
  -41.5074   68.0108   35.0305 C   0  0  0  0  0  0
  -41.6323   66.6360   35.1972 C   0  0  0  0  0  0
  -41.1200   65.7141   34.2821 C   0  0  0  0  0  0
  -40.8152   68.5073   33.9193 C   0  0  0  0  0  0
  -40.2891   67.6227   32.9660 C   0  0  0  0  0  0
  -40.4601   66.2259   33.1550 C   0  0  0  0  0  0
  -39.9050   65.5996   32.0466 N   0  0  0  0  0  0
  -39.3955   66.5597   31.1796 C   0  0  0  0  0  0
  -39.5722   67.8141   31.7441 C   0  0  0  0  0  0
  -38.7658   66.2260   29.8379 C   0  0  0  0  0  0
  -39.1471   69.1501   31.1566 C   0  0  0  0  0  0
  -37.6298   69.3069   31.0024 C   0  0  0  0  0  0
  -36.8250   68.8979   31.8430 O   0  0  0  0  0  0
  -37.2150   69.9328   29.9116 N   0  0  0  0  0  0
  -42.0928   68.8104   35.9911 O   0  0  0  0  0  0
  -42.1883   70.2185   35.7762 C   0  0  0  0  0  0
  -39.8966   64.1525   31.8315 C   0  0  0  0  0  0
  -38.6424   63.4098   32.3026 C   0  0  0  0  0  0
  -37.4967   63.4488   31.5022 C   0  0  0  0  0  0
  -36.4552   61.7723   32.8686 C   0  0  0  0  0  0
  -37.5573   61.7768   33.7217 C   0  0  0  0  0  0
  -38.6671   62.6008   33.4532 C   0  0  0  0  0  0
  -39.8116   62.6598   34.2245 O   0  0  0  0  0  0
  -39.9393   61.9684   35.4648 C   0  0  0  0  0  0
  -41.2527   61.1941   35.4633 C   0  0  0  0  0  0
  -41.3655   60.1886   34.3007 C   0  0  0  0  0  0
  -42.7640   59.5718   34.1855 C   0  0  0  0  0  0
  -43.8790   60.6114   33.9967 C   0  0  0  0  0  0
  -35.5564   62.6331   31.1192 H   0  0  0  0  0  0
  -42.1734   66.2841   36.0654 H   0  0  0  0  0  0
  -41.2647   64.6553   34.4322 H   0  0  0  0  0  0
  -40.6905   69.5674   33.7841 H   0  0  0  0  0  0
  -38.9678   67.0071   29.1052 H   0  0  0  0  0  0
  -37.6817   66.1585   29.9029 H   0  0  0  0  0  0
  -39.1308   65.3015   29.3916 H   0  0  0  0  0  0
  -39.6382   69.2843   30.1914 H   0  0  0  0  0  0
  -39.4873   69.9874   31.7608 H   0  0  0  0  0  0
  -36.2123   70.1029   29.8463 H   0  0  0  0  0  0
  -37.8414   70.2682   29.1952 H   0  0  0  0  0  0
  -42.6956   70.6731   36.6276 H   0  0  0  0  0  0
  -42.7736   70.4383   34.8837 H   0  0  0  0  0  0
  -41.2155   70.7070   35.6827 H   0  0  0  0  0  0
  -40.7858   63.7305   32.2973 H   0  0  0  0  0  0
  -40.0739   63.9438   30.7770 H   0  0  0  0  0  0
  -37.4545   64.0762   30.6314 H   0  0  0  0  0  0
  -35.6184   61.1191   33.0559 H   0  0  0  0  0  0
  -37.5134   61.1101   34.5673 H   0  0  0  0  0  0
  -39.1329   61.2950   35.7374 H   0  0  0  0  0  0
  -40.0135   62.7290   36.2430 H   0  0  0  0  0  0
  -41.3803   60.6744   36.4139 H   0  0  0  0  0  0
  -42.0537   61.9286   35.4148 H   0  0  0  0  0  0
  -41.1204   60.6817   33.3573 H   0  0  0  0  0  0
  -40.6266   59.3924   34.4215 H   0  0  0  0  0  0
  -42.7867   58.8956   33.3310 H   0  0  0  0  0  0
  -42.9715   58.9574   35.0609 H   0  0  0  0  0  0
  -44.8151   60.0987   33.8426 H   0  0  0  0  0  0
  -44.0240   61.2477   34.8703 H   0  0  0  0  0  0
  -43.7078   61.2530   33.1294 H   0  0  0  0  0  0
  1 20  1  0  0  0
  1 21  2  0  0  0
  1 30  1  0  0  0
  2  3  2  0  0  0
  2 16  1  0  0  0
  2  5  1  0  0  0
  3  4  1  0  0  0
  3 31  1  0  0  0
  4  7  2  0  0  0
  4 32  1  0  0  0
  5  6  2  0  0  0
  5 33  1  0  0  0
  6 10  1  0  0  0
  6  7  1  0  0  0
  7  8  1  0  0  0
  8 18  1  0  0  0
  8  9  1  0  0  0
  9 10  2  0  0  0
  9 11  1  0  0  0
 10 12  1  0  0  0
 11 34  1  0  0  0
 11 35  1  0  0  0
 11 36  1  0  0  0
 12 13  1  0  0  0
 12 37  1  0  0  0
 12 38  1  0  0  0
 13 15  1  0  0  0
 13 14  2  0  0  0
 15 39  1  0  0  0
 15 40  1  0  0  0
 16 17  1  0  0  0
 17 41  1  0  0  0
 17 42  1  0  0  0
 17 43  1  0  0  0
 18 19  1  0  0  0
 18 44  1  0  0  0
 18 45  1  0  0  0
 19 20  2  0  0  0
 19 23  1  0  0  0
 20 46  1  0  0  0
 21 22  1  0  0  0
 21 47  1  0  0  0
 22 23  2  0  0  0
 22 48  1  0  0  0
 23 24  1  0  0  0
 24 25  1  0  0  0
 25 26  1  0  0  0
 25 49  1  0  0  0
 25 50  1  0  0  0
 26 27  1  0  0  0
 26 51  1  0  0  0
 26 52  1  0  0  0
 27 28  1  0  0  0
 27 53  1  0  0  0
 27 54  1  0  0  0
 28 29  1  0  0  0
 28 55  1  0  0  0
 28 56  1  0  0  0
 29 57  1  0  0  0
 29 58  1  0  0  0
 29 59  1  0  0  0
M  END
> <s_m_entry_id>
68148

> <s_m_entry_name>
dock_pv.84

> <s_m_Source_Path>
/home/csk/Desktop/cluster/DUD-E-result/pa2ga

> <s_m_Source_File>
dock_pv.maegz

> <i_m_Source_File_Index>
84

> <chembl_id>
CHEMBL519834

> <chembl_pref_name>
None

> <i_lp_mmshare_version>
53161

> <i_f3d_flags>
0

> <r_lp_tautomer_probability>
1

> <s_lp_Force_Field>
OPLS_2005

> <r_lp_Energy>
13.813033

> <b_lp_Chiralities_Consistent>
1

> <s_lp_Variant>
CHEMBL3474_lig270-1

> <s_i_glide_gridfile>
glide-grid_1kvo

> <i_i_glide_lignum>
351

> <i_i_glide_rotatable_bonds>
10

> <r_i_docking_score>
-8.05044393100888

> <r_i_glide_ligand_efficiency>
-0.277601514862375

> <r_i_glide_ligand_efficiency_sa>
-0.852879803990256

> <r_i_glide_ligand_efficiency_ln>
-1.84334751855677

> <r_i_glide_gscore>
-8.05044393100888

> <r_i_glide_lipo>
-3.84454391274088

> <r_i_glide_hbond>
-0.32

> <r_i_glide_metal>
0

> <r_i_glide_rewards>
-1.03544974265745

> <r_i_glide_evdw>
-41.9601402282715

> <r_i_glide_ecoul>
-10.2172708511353

> <r_i_glide_erotb>
0.879098944852476

> <r_i_glide_esite>
-0.0989515813791695

> <r_i_glide_emodel>
-77.9700842986302

> <r_i_glide_energy>
-52.1774110794067

> <r_i_glide_einternal>
7.0601053237915

> <i_i_glide_confnum>
87

> <i_i_glide_posenum>
118

> <r_i_glide_eff_state_penalty>
0

> <s_user_duplicate_titles>
CHEMBL3474_lig270,508522

> <s_m_subgroup_title>
dock_pv

> <s_m_subgroupid>
dock_pv

> <b_m_subgroup_collapsed>
1

$$$$
CHEMBL3474_lig151
                    3D
 Schrodinger Suite 2021-1.
 40 42  0  0  1  0            999 V2000
  -40.0307   62.4455   34.8807 N   0  0  0  0  0  0
  -39.0942   61.8794   34.0360 C   0  0  0  0  0  0
  -38.7415   62.7677   33.0415 C   0  0  0  0  0  0
  -40.3474   63.7106   34.4054 C   0  0  0  0  0  0
  -39.5615   63.9242   33.2418 C   0  0  0  0  0  0
  -41.2435   64.6807   34.8729 C   0  0  0  0  0  0
  -39.6981   65.1258   32.5382 C   0  0  0  0  0  0
  -41.3417   65.8712   34.1493 C   0  0  0  0  0  0
  -37.7371   62.5567   31.9232 C   0  0  0  0  0  0
  -40.5884   66.1067   32.9912 C   0  0  0  0  0  0
  -40.6535   61.8009   36.0367 C   0  0  0  0  0  0
  -36.6850   63.6615   31.7814 C   0  0  0  0  0  0
  -38.4643   60.0986   34.2649 Br  0  0  0  0  0  0
  -36.4843   64.5124   32.6416 O   0  0  0  0  0  0
  -36.0150   63.6854   30.6436 N   0  0  0  0  0  0
  -42.4400   67.0748   34.7282 Cl  0  0  0  0  0  0
  -42.1244   61.4632   35.8313 C   0  0  0  0  0  0
  -40.7589   67.3135   32.3403 O   0  0  0  0  0  0
  -42.5363   60.7746   34.6837 C   0  0  0  0  0  0
  -43.0650   61.8455   36.7935 C   0  0  0  0  0  0
  -40.1380   67.5205   31.0717 C   0  0  0  0  0  0
  -44.4151   61.5620   36.5981 C   0  0  0  0  0  0
  -43.8848   60.4979   34.4883 C   0  0  0  0  0  0
  -44.8152   60.8975   35.4432 C   0  0  0  0  0  0
  -41.8419   64.5202   35.7570 H   0  0  0  0  0  0
  -39.1054   65.2768   31.6507 H   0  0  0  0  0  0
  -37.2103   61.6087   32.0374 H   0  0  0  0  0  0
  -38.2777   62.4965   30.9795 H   0  0  0  0  0  0
  -40.1107   60.8937   36.3045 H   0  0  0  0  0  0
  -40.5389   62.4834   36.8791 H   0  0  0  0  0  0
  -35.3796   64.4536   30.4441 H   0  0  0  0  0  0
  -36.3192   63.0999   29.8777 H   0  0  0  0  0  0
  -41.8152   60.4694   33.9389 H   0  0  0  0  0  0
  -42.7554   62.3657   37.6885 H   0  0  0  0  0  0
  -40.4144   68.4980   30.6839 H   0  0  0  0  0  0
  -40.4540   66.7751   30.3407 H   0  0  0  0  0  0
  -39.0477   67.5050   31.1506 H   0  0  0  0  0  0
  -45.1417   61.8595   37.3383 H   0  0  0  0  0  0
  -44.2091   59.9773   33.5978 H   0  0  0  0  0  0
  -45.8620   60.6803   35.2874 H   0  0  0  0  0  0
  1  2  1  0  0  0
  1  4  1  0  0  0
  1 11  1  0  0  0
  2  3  2  0  0  0
  2 13  1  0  0  0
  3  9  1  0  0  0
  3  5  1  0  0  0
  4  5  1  0  0  0
  4  6  2  0  0  0
  5  7  2  0  0  0
  6  8  1  0  0  0
  6 25  1  0  0  0
  7 10  1  0  0  0
  7 26  1  0  0  0
  8 10  2  0  0  0
  8 16  1  0  0  0
  9 12  1  0  0  0
  9 27  1  0  0  0
  9 28  1  0  0  0
 10 18  1  0  0  0
 11 17  1  0  0  0
 11 29  1  0  0  0
 11 30  1  0  0  0
 12 14  2  0  0  0
 12 15  1  0  0  0
 15 31  1  0  0  0
 15 32  1  0  0  0
 17 19  1  0  0  0
 17 20  2  0  0  0
 18 21  1  0  0  0
 19 23  2  0  0  0
 19 33  1  0  0  0
 20 22  1  0  0  0
 20 34  1  0  0  0
 21 35  1  0  0  0
 21 36  1  0  0  0
 21 37  1  0  0  0
 22 24  2  0  0  0
 22 38  1  0  0  0
 23 24  1  0  0  0
 23 39  1  0  0  0
 24 40  1  0  0  0
M  END
> <s_m_entry_id>
68149

> <s_m_entry_name>
dock_pv.85

> <s_m_Source_Path>
/home/csk/Desktop/cluster/DUD-E-result/pa2ga

> <s_m_Source_File>
dock_pv.maegz

> <i_m_Source_File_Index>
85

> <chembl_id>
CHEMBL359416

> <chembl_pref_name>
None

> <i_lp_mmshare_version>
53161

> <i_f3d_flags>
0

> <r_lp_tautomer_probability>
1

> <s_lp_Force_Field>
OPLS_2005

> <r_lp_Energy>
10.824199

> <b_lp_Chiralities_Consistent>
1

> <s_lp_Variant>
CHEMBL3474_lig151-1

> <s_i_glide_gridfile>
glide-grid_1kvo

> <i_i_glide_lignum>
212

> <i_i_glide_rotatable_bonds>
5

> <r_i_docking_score>
-8.02613097779004

> <r_i_glide_ligand_efficiency>
-0.334422124074585

> <r_i_glide_ligand_efficiency_sa>
-0.964640328473829

> <r_i_glide_ligand_efficiency_ln>
-1.92102143813729

> <r_i_glide_gscore>
-8.02613097779004

> <r_i_glide_lipo>
-3.48293641078665

> <r_i_glide_hbond>
-0.565842517098033

> <r_i_glide_metal>
0

> <r_i_glide_rewards>
-0.889519306957077

> <r_i_glide_evdw>
-34.912712097168

> <r_i_glide_ecoul>
-10.6997423171997

> <r_i_glide_erotb>
0.355108833007224

> <r_i_glide_esite>
-0.0923446235171421

> <r_i_glide_emodel>
-69.048233890366

> <r_i_glide_energy>
-45.6124544143677

> <r_i_glide_einternal>
2.38353538513184

> <i_i_glide_confnum>
2

> <i_i_glide_posenum>
336

> <r_i_glide_eff_state_penalty>
0

> <s_user_duplicate_titles>
CHEMBL3474_lig151,247060

> <s_m_subgroup_title>
dock_pv

> <s_m_subgroupid>
dock_pv

> <b_m_subgroup_collapsed>
1

$$$$
CHEMBL3474_lig274
                    3D
 Schrodinger Suite 2021-1.
 32 34  0  0  1  0            999 V2000
  -37.3907   64.4150   31.9338 C   0  0  0  0  0  0
  -36.4225   63.4400   31.7101 C   0  0  0  0  0  0
  -36.5921   62.1627   32.2426 C   0  0  0  0  0  0
  -38.5371   64.1130   32.6607 C   0  0  0  0  0  0
  -38.7054   62.8353   33.1882 C   0  0  0  0  0  0
  -37.7203   61.8475   33.0070 C   0  0  0  0  0  0
  -37.8942   60.4895   33.6607 C   0  0  0  0  0  0
  -39.3754   60.2013   33.9206 C   0  0  0  0  0  0
  -40.0297   61.4229   34.6058 C   0  0  1  0  0  0
  -39.9282   62.5939   33.7861 O   0  0  0  0  0  0
  -41.4978   61.1972   34.9582 C   0  0  0  0  0  0
  -42.3889   60.7381   33.9821 C   0  0  0  0  0  0
  -43.7370   60.5838   34.2821 C   0  0  0  0  0  0
  -44.1995   60.8980   35.5571 C   0  0  0  0  0  0
  -43.3194   61.3402   36.5416 C   0  0  0  0  0  0
  -41.9670   61.4910   36.2428 C   0  0  0  0  0  0
  -45.5311   60.7748   35.8431 O   0  0  0  0  0  0
  -37.2161   65.6757   31.4430 O   0  0  0  0  0  0
  -35.5408   63.6671   31.1271 H   0  0  0  0  0  0
  -35.8311   61.4152   32.0741 H   0  0  0  0  0  0
  -39.3047   64.8595   32.7993 H   0  0  0  0  0  0
  -37.4578   59.6982   33.0534 H   0  0  0  0  0  0
  -37.3561   60.4981   34.6092 H   0  0  0  0  0  0
  -39.5058   59.2996   34.5207 H   0  0  0  0  0  0
  -39.8596   60.0018   32.9644 H   0  0  0  0  0  0
  -39.4989   61.6215   35.5394 H   0  0  0  0  0  0
  -42.0457   60.5160   32.9839 H   0  0  0  0  0  0
  -44.4150   60.2353   33.5173 H   0  0  0  0  0  0
  -43.6868   61.5766   37.5296 H   0  0  0  0  0  0
  -41.2933   61.8500   37.0074 H   0  0  0  0  0  0
  -46.0425   60.4873   35.0825 H   0  0  0  0  0  0
  -36.5796   65.6980   30.7012 H   0  0  0  0  0  0
  1  2  2  0  0  0
  1  4  1  0  0  0
  1 18  1  0  0  0
  2  3  1  0  0  0
  2 19  1  0  0  0
  3  6  2  0  0  0
  3 20  1  0  0  0
  4  5  2  0  0  0
  4 21  1  0  0  0
  5  6  1  0  0  0
  5 10  1  0  0  0
  6  7  1  0  0  0
  7  8  1  0  0  0
  7 22  1  0  0  0
  7 23  1  0  0  0
  8  9  1  0  0  0
  8 24  1  0  0  0
  8 25  1  0  0  0
  9 10  1  0  0  0
  9 11  1  0  0  0
  9 26  1  0  0  0
 11 12  2  0  0  0
 11 16  1  0  0  0
 12 13  1  0  0  0
 12 27  1  0  0  0
 13 14  2  0  0  0
 13 28  1  0  0  0
 14 15  1  0  0  0
 14 17  1  0  0  0
 15 16  2  0  0  0
 15 29  1  0  0  0
 16 30  1  0  0  0
 17 31  1  0  0  0
 18 32  1  0  0  0
M  END
> <s_m_entry_id>
68150

> <s_m_entry_name>
dock_pv.86

> <s_m_Source_Path>
/home/csk/Desktop/cluster/DUD-E-result/pa2ga

> <s_m_Source_File>
dock_pv.maegz

> <i_m_Source_File_Index>
86

> <chembl_id>
CHEMBL508033

> <chembl_pref_name>
None

> <i_lp_mmshare_version>
53161

> <i_f3d_flags>
0

> <r_lp_tautomer_probability>
0.999999999997365

> <s_lp_Force_Field>
OPLS_2005

> <r_lp_Energy>
15.025536

> <b_lp_Chiralities_Consistent>
1

> <s_lp_Variant>
CHEMBL3474_lig274-2

> <s_i_glide_gridfile>
glide-grid_1kvo

> <i_i_glide_lignum>
359

> <i_i_glide_rotatable_bonds>
3

> <r_i_docking_score>
-8.01389238136915

> <r_i_glide_ligand_efficiency>
-0.445216243409397

> <r_i_glide_ligand_efficiency_sa>
-1.16679663735303

> <r_i_glide_ligand_efficiency_ln>
-2.05992971368446

> <r_i_glide_gscore>
-8.01389238136915

> <r_i_glide_lipo>
-3.35482283891023

> <r_i_glide_hbond>
-0.220740540551365

> <r_i_glide_metal>
0

> <r_i_glide_rewards>
-1.88783690398816

> <r_i_glide_evdw>
-31.401346206665

> <r_i_glide_ecoul>
-8.50589561462402

> <r_i_glide_erotb>
0.295459554607463

> <r_i_glide_esite>
0

> <r_i_glide_emodel>
-59.9551153411841

> <r_i_glide_energy>
-39.9072418212891

> <r_i_glide_einternal>
1.10217010974884

> <i_i_glide_confnum>
1

> <i_i_glide_posenum>
59

> <r_i_glide_eff_state_penalty>
0

> <s_user_duplicate_titles>
CHEMBL3474_lig274

> <s_m_subgroup_title>
dock_pv

> <s_m_subgroupid>
dock_pv

> <b_m_subgroup_collapsed>
1

$$$$
CHEMBL3474_lig357
                    3D
 Schrodinger Suite 2021-1.
 45 47  0  0  1  0            999 V2000
  -44.2731   60.1417   35.4430 F   0  0  0  0  0  0
  -43.3020   60.8722   34.9044 C   0  0  0  0  0  0
  -43.3893   62.0997   35.4186 F   0  0  0  0  0  0
  -40.9060   60.6498   34.6046 C   0  0  0  0  0  0
  -39.8965   59.6984   34.4957 C   0  0  0  0  0  0
  -38.7019   59.9504   33.8431 C   0  0  0  0  0  0
  -40.7071   61.9454   34.1042 C   0  0  0  0  0  0
  -39.4745   62.2286   33.4931 C   0  0  0  0  0  0
  -38.4727   61.2273   33.3446 C   0  0  0  0  0  0
  -37.3729   61.8180   32.6825 C   0  0  0  0  0  0
  -37.6961   63.1390   32.4284 C   0  0  0  0  0  0
  -38.9645   63.4073   32.9543 N   0  0  0  0  0  0
  -39.6440   64.6548   32.9492 C   0  0  0  0  0  0
  -40.1947   65.0618   34.1274 N   0  0  0  0  0  0
  -40.7788   66.2897   34.1794 C   0  0  0  0  0  0
  -40.7719   67.1583   33.0826 C   0  0  0  0  0  0
  -40.2485   66.7145   31.8685 C   0  0  0  0  0  0
  -39.7067   65.4336   31.7856 C   0  0  0  0  0  0
  -36.7908   64.1218   31.9014 C   0  0  0  0  0  0
  -35.8902   63.6667   31.0429 N   0  0  0  0  0  0
  -36.8149   65.2980   32.2430 O   0  0  0  0  0  0
  -41.6033   66.6335   35.4280 C   0  0  2  0  0  0
  -40.7997   66.8782   36.7368 C   0  0  0  0  0  0
  -40.1556   65.6768   37.4430 C   0  0  0  0  0  0
  -39.2150   66.0980   38.3268 O   0  0  0  0  0  0
  -40.4146   64.4983   37.2200 O   0  0  0  0  0  0
  -42.0638   60.2434   35.2363 O   0  0  0  0  0  0
  -43.5094   60.8979   33.5856 F   0  0  0  0  0  0
  -42.7922   65.6650   35.5792 C   0  0  0  0  0  0
  -40.0150   58.7269   34.9237 H   0  0  0  0  0  0
  -37.9517   59.1804   33.7591 H   0  0  0  0  0  0
  -41.4603   62.7105   34.2019 H   0  0  0  0  0  0
  -36.4358   61.3366   32.4411 H   0  0  0  0  0  0
  -41.2148   68.1396   33.1496 H   0  0  0  0  0  0
  -40.2686   67.3512   30.9963 H   0  0  0  0  0  0
  -39.2913   65.0813   30.8514 H   0  0  0  0  0  0
  -35.2887   64.3445   30.5812 H   0  0  0  0  0  0
  -35.9829   62.7378   30.6621 H   0  0  0  0  0  0
  -42.0699   67.5971   35.2134 H   0  0  0  0  0  0
  -41.4525   67.3547   37.4690 H   0  0  0  0  0  0
  -40.0172   67.6071   36.5227 H   0  0  0  0  0  0
  -38.7022   65.3480   38.6650 H   0  0  0  0  0  0
  -43.2150   65.4760   34.5962 H   0  0  0  0  0  0
  -42.5116   64.6900   35.9720 H   0  0  0  0  0  0
  -43.5719   66.0733   36.2231 H   0  0  0  0  0  0
  1  2  1  0  0  0
  2  3  1  0  0  0
  2 27  1  0  0  0
  2 28  1  0  0  0
  4  5  2  0  0  0
  4  7  1  0  0  0
  4 27  1  0  0  0
  5  6  1  0  0  0
  5 30  1  0  0  0
  6  9  2  0  0  0
  6 31  1  0  0  0
  7  8  2  0  0  0
  7 32  1  0  0  0
  8  9  1  0  0  0
  8 12  1  0  0  0
  9 10  1  0  0  0
 10 11  2  0  0  0
 10 33  1  0  0  0
 11 12  1  0  0  0
 11 19  1  0  0  0
 12 13  1  0  0  0
 13 14  2  0  0  0
 13 18  1  0  0  0
 14 15  1  0  0  0
 15 16  2  0  0  0
 15 22  1  0  0  0
 16 17  1  0  0  0
 16 34  1  0  0  0
 17 18  2  0  0  0
 17 35  1  0  0  0
 18 36  1  0  0  0
 19 20  1  0  0  0
 19 21  2  0  0  0
 20 37  1  0  0  0
 20 38  1  0  0  0
 22 23  1  0  0  0
 22 29  1  0  0  0
 22 39  1  0  0  0
 23 24  1  0  0  0
 23 40  1  0  0  0
 23 41  1  0  0  0
 24 25  1  0  0  0
 24 26  2  0  0  0
 25 42  1  0  0  0
 29 43  1  0  0  0
 29 44  1  0  0  0
 29 45  1  0  0  0
M  END
> <s_m_entry_id>
68151

> <s_m_entry_name>
dock_pv.87

> <s_m_Source_Path>
/home/csk/Desktop/cluster/DUD-E-result/pa2ga

> <s_m_Source_File>
dock_pv.maegz

> <i_m_Source_File_Index>
87

> <chembl_id>
CHEMBL4215835

> <chembl_pref_name>
None

> <i_lp_mmshare_version>
53161

> <i_f3d_flags>
0

> <r_lp_tautomer_probability>
1

> <s_lp_Force_Field>
OPLS_2005

> <r_lp_Energy>
10.162597

> <b_lp_Chiralities_Consistent>
1

> <s_lp_Variant>
CHEMBL3474_lig357-1

> <s_i_glide_gridfile>
glide-grid_1kvo

> <i_i_glide_lignum>
451

> <i_i_glide_rotatable_bonds>
8

> <r_i_docking_score>
-8.01380831771257

> <r_i_glide_ligand_efficiency>
-0.276338217852158

> <r_i_glide_ligand_efficiency_sa>
-0.848998555334282

> <r_i_glide_ligand_efficiency_ln>
-1.83495889211091

> <r_i_glide_gscore>
-8.01380831771257

> <r_i_glide_lipo>
-2.92890849383031

> <r_i_glide_hbond>
-0.195661323864682

> <r_i_glide_metal>
0

> <r_i_glide_rewards>
-1.91093892586111

> <r_i_glide_evdw>
-38.7995719909668

> <r_i_glide_ecoul>
-9.85395908355713

> <r_i_glide_erotb>
0.59275288973163

> <r_i_glide_esite>
-0.152980001806185

> <r_i_glide_emodel>
-72.93233340336

> <r_i_glide_energy>
-48.6535310745239

> <r_i_glide_einternal>
5.28842544555664

> <i_i_glide_confnum>
3

> <i_i_glide_posenum>
268

> <r_i_glide_eff_state_penalty>
0

> <s_user_duplicate_titles>
CHEMBL3474_lig357

> <s_m_subgroup_title>
dock_pv

> <s_m_subgroupid>
dock_pv

> <b_m_subgroup_collapsed>
1

$$$$
CHEMBL3474_lig217
                    3D
 Schrodinger Suite 2021-1.
 55 58  0  0  1  0            999 V2000
  -38.6392   62.8045   33.0957 C   0  0  0  0  0  0
  -39.9942   62.5225   34.8767 N   0  0  0  0  0  0
  -39.4917   63.9680   33.2022 C   0  0  0  0  0  0
  -39.0198   61.9197   34.0913 C   0  0  0  0  0  0
  -40.2638   63.8013   34.3932 C   0  0  0  0  0  0
  -37.5433   62.5778   32.1470 C   0  0  0  0  0  0
  -39.7066   65.1242   32.4146 C   0  0  0  0  0  0
  -41.1140   64.8214   34.8645 C   0  0  0  0  0  0
  -36.5943   63.7965   31.8309 C   0  0  0  0  0  0
  -41.2072   65.9916   34.1092 C   0  0  0  0  0  0
  -40.5593   66.1252   32.8883 C   0  0  0  0  0  0
  -40.6671   61.9039   36.0298 C   0  0  0  0  0  0
  -39.0660   65.1343   31.1898 O   0  0  0  0  0  0
  -38.3398   67.3605   30.4584 C   0  0  0  0  0  0
  -37.2236   61.4595   31.7321 O   0  0  0  0  0  0
  -36.4154   64.7291   32.6127 O   0  0  0  0  0  0
  -37.6150   67.4982   31.4444 O   0  0  0  0  0  0
  -36.0149   63.6979   30.6432 N   0  0  0  0  0  0
  -39.2827   66.1672   30.2269 C   0  0  0  0  0  0
  -38.4391   60.5507   34.4144 C   0  0  0  0  0  0
  -42.1327   61.5378   35.8046 C   0  0  0  0  0  0
  -38.3930   68.2411   29.4183 O   0  0  0  0  0  0
  -42.0400   64.8979   36.0620 C   0  0  0  0  0  0
  -42.1751   66.9530   34.7650 C   0  0  0  0  0  0
  -42.3653   66.3830   36.1677 C   0  0  0  0  0  0
  -42.5795   61.0652   34.5649 C   0  0  0  0  0  0
  -43.0353   61.6690   36.8648 C   0  0  0  0  0  0
  -39.3534   59.3805   34.0618 C   0  0  0  0  0  0
  -44.3778   61.3524   36.6838 C   0  0  0  0  0  0
  -43.9210   60.7439   34.3861 C   0  0  0  0  0  0
  -44.8144   60.8980   35.4431 C   0  0  0  0  0  0
  -40.7154   67.0235   32.3128 H   0  0  0  0  0  0
  -40.5875   62.6051   36.8585 H   0  0  0  0  0  0
  -40.1324   61.0144   36.3583 H   0  0  0  0  0  0
  -35.4446   64.4645   30.2898 H   0  0  0  0  0  0
  -36.2641   62.9354   30.0294 H   0  0  0  0  0  0
  -39.0603   65.7276   29.2533 H   0  0  0  0  0  0
  -40.3250   66.4855   30.1977 H   0  0  0  0  0  0
  -37.4882   60.3929   33.9097 H   0  0  0  0  0  0
  -38.1624   60.4976   35.4537 H   0  0  0  0  0  0
  -38.9219   67.9259   28.6839 H   0  0  0  0  0  0
  -42.9488   64.3224   35.8836 H   0  0  0  0  0  0
  -41.5990   64.5456   36.9935 H   0  0  0  0  0  0
  -41.8106   67.9802   34.7993 H   0  0  0  0  0  0
  -43.1312   66.9534   34.2444 H   0  0  0  0  0  0
  -41.6590   66.8602   36.8496 H   0  0  0  0  0  0
  -43.3646   66.5667   36.5656 H   0  0  0  0  0  0
  -41.8953   60.9493   33.7366 H   0  0  0  0  0  0
  -42.7025   62.0267   37.8288 H   0  0  0  0  0  0
  -38.8151   58.4534   34.2429 H   0  0  0  0  0  0
  -40.2616   59.3612   34.6632 H   0  0  0  0  0  0
  -39.6411   59.4084   33.0115 H   0  0  0  0  0  0
  -45.0762   61.4599   37.5010 H   0  0  0  0  0  0
  -44.2718   60.3787   33.4320 H   0  0  0  0  0  0
  -45.8560   60.6499   35.2981 H   0  0  0  0  0  0
  1  3  1  0  0  0
  1  4  2  0  0  0
  1  6  1  0  0  0
  2  4  1  0  0  0
  2 12  1  0  0  0
  2  5  1  0  0  0
  3  5  1  0  0  0
  3  7  2  0  0  0
  4 20  1  0  0  0
  5  8  2  0  0  0
  6  9  1  0  0  0
  6 15  2  0  0  0
  7 11  1  0  0  0
  7 13  1  0  0  0
  8 23  1  0  0  0
  8 10  1  0  0  0
  9 16  2  0  0  0
  9 18  1  0  0  0
 10 11  2  0  0  0
 10 24  1  0  0  0
 11 32  1  0  0  0
 12 21  1  0  0  0
 12 33  1  0  0  0
 12 34  1  0  0  0
 13 19  1  0  0  0
 14 19  1  0  0  0
 14 17  2  0  0  0
 14 22  1  0  0  0
 18 35  1  0  0  0
 18 36  1  0  0  0
 19 37  1  0  0  0
 19 38  1  0  0  0
 20 28  1  0  0  0
 20 39  1  0  0  0
 20 40  1  0  0  0
 21 26  2  0  0  0
 21 27  1  0  0  0
 22 41  1  0  0  0
 23 25  1  0  0  0
 23 42  1  0  0  0
 23 43  1  0  0  0
 24 25  1  0  0  0
 24 44  1  0  0  0
 24 45  1  0  0  0
 25 46  1  0  0  0
 25 47  1  0  0  0
 26 30  1  0  0  0
 26 48  1  0  0  0
 27 29  2  0  0  0
 27 49  1  0  0  0
 28 50  1  0  0  0
 28 51  1  0  0  0
 28 52  1  0  0  0
 29 31  1  0  0  0
 29 53  1  0  0  0
 30 31  2  0  0  0
 30 54  1  0  0  0
 31 55  1  0  0  0
M  END
> <s_m_entry_id>
68152

> <s_m_entry_name>
dock_pv.88

> <s_m_Source_Path>
/home/csk/Desktop/cluster/DUD-E-result/pa2ga

> <s_m_Source_File>
dock_pv.maegz

> <i_m_Source_File_Index>
88

> <chembl_id>
CHEMBL179658

> <chembl_pref_name>
None

> <i_lp_mmshare_version>
53161

> <i_f3d_flags>
0

> <r_lp_tautomer_probability>
1

> <s_lp_Force_Field>
OPLS_2005

> <r_lp_Energy>
55.484165

> <b_lp_Chiralities_Consistent>
1

> <s_lp_Variant>
CHEMBL3474_lig217-1

> <s_i_glide_gridfile>
glide-grid_1kvo

> <i_i_glide_lignum>
279

> <i_i_glide_rotatable_bonds>
9

> <r_i_docking_score>
-8.00952388267965

> <r_i_glide_ligand_efficiency>
-0.258371738150956

> <r_i_glide_ligand_efficiency_sa>
-0.811643978423091

> <r_i_glide_ligand_efficiency_ln>
-1.80639309797234

> <r_i_glide_gscore>
-8.00952388267965

> <r_i_glide_lipo>
-3.55210727757425

> <r_i_glide_hbond>
-0.455895532487814

> <r_i_glide_metal>
0

> <r_i_glide_rewards>
-0.990080606780732

> <r_i_glide_evdw>
-46.641773223877

> <r_i_glide_ecoul>
-8.07398414611816

> <r_i_glide_erotb>
0.671752782863727

> <r_i_glide_esite>
-0.140006965589008

> <r_i_glide_emodel>
-80.1084827506706

> <r_i_glide_energy>
-54.7157573699951

> <r_i_glide_einternal>
8.56244468688965

> <i_i_glide_confnum>
18

> <i_i_glide_posenum>
69

> <r_i_glide_eff_state_penalty>
0

> <s_user_duplicate_titles>
CHEMBL3474_lig217,299274

> <s_m_subgroup_title>
dock_pv

> <s_m_subgroupid>
dock_pv

> <b_m_subgroup_collapsed>
1

$$$$
CHEMBL3474_lig46
                    3D
 Schrodinger Suite 2021-1.
 52 54  0  0  1  0            999 V2000
  -40.2231   62.9092   34.9790 N   0  0  0  0  0  0
  -39.0421   63.2193   33.0754 C   0  0  0  0  0  0
  -39.3152   62.3305   34.1075 C   0  0  0  0  0  0
  -39.8002   64.4154   33.3407 C   0  0  0  0  0  0
  -40.5595   64.1745   34.5231 C   0  0  0  0  0  0
  -38.1695   62.9770   31.8560 C   0  0  0  0  0  0
  -40.8179   62.2648   36.1578 C   0  0  0  0  0  0
  -36.8179   63.6967   31.8604 C   0  0  0  0  0  0
  -39.9363   65.6617   32.6890 C   0  0  0  0  0  0
  -37.6743   68.8871   31.4516 C   0  0  0  0  0  0
  -36.5441   64.6054   32.6427 O   0  0  0  0  0  0
  -38.6057   68.8171   32.2427 O   0  0  0  0  0  0
  -35.9470   63.2980   30.9485 N   0  0  0  0  0  0
  -41.4515   65.1254   35.0389 C   0  0  0  0  0  0
  -38.7850   60.9263   34.3383 C   0  0  0  0  0  0
  -42.2546   61.7858   35.9689 C   0  0  0  0  0  0
  -36.4150   69.2981   31.7933 O   0  0  0  0  0  0
  -39.1103   65.8847   31.6060 O   0  0  0  0  0  0
  -41.5577   66.3394   34.3636 C   0  0  0  0  0  0
  -37.8253   68.5317   29.9669 C   0  0  0  0  0  0
  -40.8134   66.6101   33.2205 C   0  0  0  0  0  0
  -39.6061   66.5964   30.4732 C   0  0  0  0  0  0
  -42.6442   61.1313   34.7943 C   0  0  0  0  0  0
  -43.1809   61.9785   36.9989 C   0  0  0  0  0  0
  -38.4066   67.1190   29.6451 C   0  0  0  0  0  0
  -43.9552   60.6887   34.6464 C   0  0  0  0  0  0
  -44.4915   61.5353   36.8506 C   0  0  0  0  0  0
  -44.8727   60.8975   35.6739 C   0  0  0  0  0  0
  -37.9880   61.9120   31.7105 H   0  0  0  0  0  0
  -38.7060   63.3032   30.9663 H   0  0  0  0  0  0
  -40.7783   62.9908   36.9722 H   0  0  0  0  0  0
  -40.2079   61.4194   36.4752 H   0  0  0  0  0  0
  -35.0920   63.8216   30.8261 H   0  0  0  0  0  0
  -36.2336   62.6385   30.2396 H   0  0  0  0  0  0
  -42.0323   64.9380   35.9302 H   0  0  0  0  0  0
  -38.0949   60.6017   33.5606 H   0  0  0  0  0  0
  -38.2409   60.8567   35.2795 H   0  0  0  0  0  0
  -39.5865   60.1874   34.3728 H   0  0  0  0  0  0
  -35.9097   69.6978   31.0623 H   0  0  0  0  0  0
  -42.2230   67.0996   34.7475 H   0  0  0  0  0  0
  -36.8802   68.6620   29.4383 H   0  0  0  0  0  0
  -38.4912   69.2869   29.5464 H   0  0  0  0  0  0
  -40.8989   67.5851   32.7685 H   0  0  0  0  0  0
  -40.1692   65.8790   29.8769 H   0  0  0  0  0  0
  -40.2907   67.4102   30.7059 H   0  0  0  0  0  0
  -41.9379   60.9651   33.9940 H   0  0  0  0  0  0
  -42.8900   62.4678   37.9172 H   0  0  0  0  0  0
  -37.6151   66.3712   29.6893 H   0  0  0  0  0  0
  -38.7025   67.1247   28.5967 H   0  0  0  0  0  0
  -44.2623   60.1860   33.7404 H   0  0  0  0  0  0
  -45.2099   61.6837   37.6441 H   0  0  0  0  0  0
  -45.8890   60.5506   35.5567 H   0  0  0  0  0  0
  1  3  1  0  0  0
  1  5  1  0  0  0
  1  7  1  0  0  0
  2  3  2  0  0  0
  2  6  1  0  0  0
  2  4  1  0  0  0
  3 15  1  0  0  0
  4  5  1  0  0  0
  4  9  2  0  0  0
  5 14  2  0  0  0
  6  8  1  0  0  0
  6 29  1  0  0  0
  6 30  1  0  0  0
  7 16  1  0  0  0
  7 31  1  0  0  0
  7 32  1  0  0  0
  8 11  2  0  0  0
  8 13  1  0  0  0
  9 18  1  0  0  0
  9 21  1  0  0  0
 10 20  1  0  0  0
 10 12  2  0  0  0
 10 17  1  0  0  0
 13 33  1  0  0  0
 13 34  1  0  0  0
 14 19  1  0  0  0
 14 35  1  0  0  0
 15 36  1  0  0  0
 15 37  1  0  0  0
 15 38  1  0  0  0
 16 23  1  0  0  0
 16 24  2  0  0  0
 17 39  1  0  0  0
 18 22  1  0  0  0
 19 21  2  0  0  0
 19 40  1  0  0  0
 20 25  1  0  0  0
 20 41  1  0  0  0
 20 42  1  0  0  0
 21 43  1  0  0  0
 22 25  1  0  0  0
 22 44  1  0  0  0
 22 45  1  0  0  0
 23 26  2  0  0  0
 23 46  1  0  0  0
 24 27  1  0  0  0
 24 47  1  0  0  0
 25 48  1  0  0  0
 25 49  1  0  0  0
 26 28  1  0  0  0
 26 50  1  0  0  0
 27 28  2  0  0  0
 27 51  1  0  0  0
 28 52  1  0  0  0
M  END
> <s_m_entry_id>
68153

> <s_m_entry_name>
dock_pv.89

> <s_m_Source_Path>
/home/csk/Desktop/cluster/DUD-E-result/pa2ga

> <s_m_Source_File>
dock_pv.maegz

> <i_m_Source_File_Index>
89

> <chembl_id>
CHEMBL146572

> <chembl_pref_name>
None

> <i_lp_mmshare_version>
53161

> <i_f3d_flags>
0

> <r_lp_tautomer_probability>
1

> <s_lp_Force_Field>
OPLS_2005

> <r_lp_Energy>
14.500684

> <b_lp_Chiralities_Consistent>
1

> <s_lp_Variant>
CHEMBL3474_lig46-1

> <s_i_glide_gridfile>
glide-grid_1kvo

> <i_i_glide_lignum>
86

> <i_i_glide_rotatable_bonds>
10

> <r_i_docking_score>
-8.00896913822391

> <r_i_glide_ligand_efficiency>
-0.286034612079426

> <r_i_glide_ligand_efficiency_sa>
-0.868569547650366

> <r_i_glide_ligand_efficiency_ln>
-1.84870523065404

> <r_i_glide_gscore>
-8.00896913822391

> <r_i_glide_lipo>
-3.22036854502178

> <r_i_glide_hbond>
-0.303726345016343

> <r_i_glide_metal>
0

> <r_i_glide_rewards>
-1.0269194210611

> <r_i_glide_evdw>
-42.636157989502

> <r_i_glide_ecoul>
-15.0973320007324

> <r_i_glide_erotb>
1.07235099336753

> <r_i_glide_esite>
-0.133898120907265

> <r_i_glide_emodel>
-88.3577013804663

> <r_i_glide_energy>
-57.7334899902344

> <r_i_glide_einternal>
6.17971849441528

> <i_i_glide_confnum>
235

> <i_i_glide_posenum>
115

> <r_i_glide_eff_state_penalty>
0

> <s_user_duplicate_titles>
CHEMBL3474_lig46,246809

> <s_m_subgroup_title>
dock_pv

> <s_m_subgroupid>
dock_pv

> <b_m_subgroup_collapsed>
1

$$$$
CHEMBL3474_lig351
                    3D
 Schrodinger Suite 2021-1.
 46 48  0  0  1  0            999 V2000
  -44.2544   60.1085   35.4348 F   0  0  0  0  0  0
  -43.3030   60.8244   34.8325 C   0  0  0  0  0  0
  -43.3089   62.0344   35.3939 F   0  0  0  0  0  0
  -40.9120   60.5817   34.4405 C   0  0  0  0  0  0
  -39.8911   59.6479   34.3184 C   0  0  0  0  0  0
  -38.6817   59.9348   33.7101 C   0  0  0  0  0  0
  -40.7201   61.8935   33.9753 C   0  0  0  0  0  0
  -39.4744   62.2115   33.4060 C   0  0  0  0  0  0
  -38.4637   61.2226   33.2417 C   0  0  0  0  0  0
  -37.3688   61.8305   32.5904 C   0  0  0  0  0  0
  -37.6984   63.1524   32.3717 C   0  0  0  0  0  0
  -38.9635   63.4115   32.9104 N   0  0  0  0  0  0
  -39.6103   64.6739   33.0160 C   0  0  0  0  0  0
  -40.2359   65.0244   34.2168 C   0  0  0  0  0  0
  -40.8361   66.2735   34.3782 C   0  0  0  0  0  0
  -40.7746   67.1933   33.3266 C   0  0  0  0  0  0
  -40.2080   66.8345   32.1047 C   0  0  0  0  0  0
  -39.6527   65.5694   31.9380 C   0  0  0  0  0  0
  -36.8059   64.1432   31.8415 C   0  0  0  0  0  0
  -36.0147   63.6978   30.8657 N   0  0  0  0  0  0
  -36.7616   65.2981   32.2430 O   0  0  0  0  0  0
  -41.6559   66.5953   35.6364 C   0  0  2  0  0  0
  -40.8289   66.8598   36.9251 C   0  0  0  0  0  0
  -40.1619   65.6704   37.6368 C   0  0  0  0  0  0
  -39.2146   66.0982   38.5129 O   0  0  0  0  0  0
  -40.4142   64.4901   37.4429 O   0  0  0  0  0  0
  -42.0711   60.1363   35.0448 O   0  0  0  0  0  0
  -43.6084   60.8982   33.5354 F   0  0  0  0  0  0
  -42.8148   65.5950   35.8036 C   0  0  0  0  0  0
  -40.0187   58.6424   34.6720 H   0  0  0  0  0  0
  -37.9276   59.1714   33.6018 H   0  0  0  0  0  0
  -41.4943   62.6372   34.0506 H   0  0  0  0  0  0
  -36.4315   61.3564   32.3302 H   0  0  0  0  0  0
  -40.2545   64.3205   35.0316 H   0  0  0  0  0  0
  -41.2108   68.1761   33.4359 H   0  0  0  0  0  0
  -40.2052   67.5364   31.2835 H   0  0  0  0  0  0
  -39.2236   65.3079   30.9809 H   0  0  0  0  0  0
  -35.4561   64.3881   30.3714 H   0  0  0  0  0  0
  -36.1642   62.7901   30.4588 H   0  0  0  0  0  0
  -42.1584   67.5407   35.4240 H   0  0  0  0  0  0
  -41.4731   67.3411   37.6612 H   0  0  0  0  0  0
  -40.0617   67.5917   36.6762 H   0  0  0  0  0  0
  -38.7016   65.3499   38.8585 H   0  0  0  0  0  0
  -43.2153   65.3671   34.8148 H   0  0  0  0  0  0
  -42.5153   64.6358   36.2204 H   0  0  0  0  0  0
  -43.6149   65.9936   36.4273 H   0  0  0  0  0  0
  1  2  1  0  0  0
  2  3  1  0  0  0
  2 27  1  0  0  0
  2 28  1  0  0  0
  4  5  2  0  0  0
  4  7  1  0  0  0
  4 27  1  0  0  0
  5  6  1  0  0  0
  5 30  1  0  0  0
  6  9  2  0  0  0
  6 31  1  0  0  0
  7  8  2  0  0  0
  7 32  1  0  0  0
  8  9  1  0  0  0
  8 12  1  0  0  0
  9 10  1  0  0  0
 10 11  2  0  0  0
 10 33  1  0  0  0
 11 12  1  0  0  0
 11 19  1  0  0  0
 12 13  1  0  0  0
 13 14  2  0  0  0
 13 18  1  0  0  0
 14 15  1  0  0  0
 14 34  1  0  0  0
 15 16  2  0  0  0
 15 22  1  0  0  0
 16 17  1  0  0  0
 16 35  1  0  0  0
 17 18  2  0  0  0
 17 36  1  0  0  0
 18 37  1  0  0  0
 19 20  1  0  0  0
 19 21  2  0  0  0
 20 38  1  0  0  0
 20 39  1  0  0  0
 22 23  1  0  0  0
 22 29  1  0  0  0
 22 40  1  0  0  0
 23 24  1  0  0  0
 23 41  1  0  0  0
 23 42  1  0  0  0
 24 25  1  0  0  0
 24 26  2  0  0  0
 25 43  1  0  0  0
 29 44  1  0  0  0
 29 45  1  0  0  0
 29 46  1  0  0  0
M  END
> <s_m_entry_id>
68154

> <s_m_entry_name>
dock_pv.90

> <s_m_Source_Path>
/home/csk/Desktop/cluster/DUD-E-result/pa2ga

> <s_m_Source_File>
dock_pv.maegz

> <i_m_Source_File_Index>
90

> <chembl_id>
CHEMBL4210991

> <chembl_pref_name>
None

> <i_lp_mmshare_version>
53161

> <i_f3d_flags>
0

> <r_lp_tautomer_probability>
1

> <s_lp_Force_Field>
OPLS_2005

> <r_lp_Energy>
17.982233

> <b_lp_Chiralities_Consistent>
1

> <s_lp_Variant>
CHEMBL3474_lig351-1

> <s_i_glide_gridfile>
glide-grid_1kvo

> <i_i_glide_lignum>
442

> <i_i_glide_rotatable_bonds>
8

> <r_i_docking_score>
-8.00443279650713

> <r_i_glide_ligand_efficiency>
-0.276014924017487

> <r_i_glide_ligand_efficiency_sa>
-0.848005294247498

> <r_i_glide_ligand_efficiency_ln>
-1.83281213549757

> <r_i_glide_gscore>
-8.00443279650713

> <r_i_glide_lipo>
-3.12263494580939

> <r_i_glide_hbond>
-0.207039378901863

> <r_i_glide_metal>
0

> <r_i_glide_rewards>
-1.71818072711669

> <r_i_glide_evdw>
-37.2136573791504

> <r_i_glide_ecoul>
-10.2582521438599

> <r_i_glide_erotb>
0.595353640919532

> <r_i_glide_esite>
-0.152510695062215

> <r_i_glide_emodel>
-72.9104548523779

> <r_i_glide_energy>
-47.4719095230103

> <r_i_glide_einternal>
5.32642793655396

> <i_i_glide_confnum>
36

> <i_i_glide_posenum>
166

> <r_i_glide_eff_state_penalty>
0

> <s_user_duplicate_titles>
CHEMBL3474_lig351

> <s_m_subgroup_title>
dock_pv

> <s_m_subgroupid>
dock_pv

> <b_m_subgroup_collapsed>
1

$$$$
CHEMBL3474_lig216
                    3D
 Schrodinger Suite 2021-1.
 58 61  0  0  1  0            999 V2000
  -38.6303   62.9125   33.2187 C   0  0  0  0  0  0
  -40.0302   62.6249   34.9759 N   0  0  0  0  0  0
  -39.4811   64.0862   33.3202 C   0  0  0  0  0  0
  -39.0413   62.0217   34.2099 C   0  0  0  0  0  0
  -40.2941   63.9011   34.4867 C   0  0  0  0  0  0
  -37.5355   62.6564   32.2619 C   0  0  0  0  0  0
  -39.6861   65.2588   32.5453 C   0  0  0  0  0  0
  -41.1772   64.9015   34.9411 C   0  0  0  0  0  0
  -36.5985   63.8598   31.8317 C   0  0  0  0  0  0
  -41.2751   66.0705   34.1894 C   0  0  0  0  0  0
  -40.5940   66.2235   32.9932 C   0  0  0  0  0  0
  -40.7389   62.0052   36.1106 C   0  0  0  0  0  0
  -38.9869   65.3408   31.3559 O   0  0  0  0  0  0
  -38.8363   67.7410   30.6637 C   0  0  0  0  0  0
  -37.2121   61.5183   31.9113 O   0  0  0  0  0  0
  -36.4152   64.8443   32.5439 O   0  0  0  0  0  0
  -39.4690   68.7044   30.2282 O   0  0  0  0  0  0
  -36.0210   63.6957   30.6431 N   0  0  0  0  0  0
  -39.3223   66.3140   30.3623 C   0  0  0  0  0  0
  -38.5092   60.6295   34.5446 C   0  0  0  0  0  0
  -42.1927   61.6200   35.8517 C   0  0  0  0  0  0
  -37.7270   67.8197   31.4429 O   0  0  0  0  0  0
  -42.1439   64.9522   36.1091 C   0  0  0  0  0  0
  -42.2833   67.0103   34.8132 C   0  0  0  0  0  0
  -42.5182   66.4269   36.2031 C   0  0  0  0  0  0
  -42.6214   61.2089   34.5841 C   0  0  0  0  0  0
  -43.1006   61.6596   36.9143 C   0  0  0  0  0  0
  -37.2217   69.1018   31.7980 C   0  0  0  0  0  0
  -39.3669   59.4934   33.9772 C   0  0  0  0  0  0
  -43.9487   60.8465   34.3830 C   0  0  0  0  0  0
  -44.4286   61.2989   36.7124 C   0  0  0  0  0  0
  -44.8451   60.8979   35.4468 C   0  0  0  0  0  0
  -40.7731   67.1174   32.4183 H   0  0  0  0  0  0
  -40.6840   62.7072   36.9407 H   0  0  0  0  0  0
  -40.2198   61.1174   36.4637 H   0  0  0  0  0  0
  -35.4595   64.4482   30.2472 H   0  0  0  0  0  0
  -36.2607   62.8948   30.0765 H   0  0  0  0  0  0
  -38.8477   65.9966   29.4331 H   0  0  0  0  0  0
  -40.3927   66.3136   30.1569 H   0  0  0  0  0  0
  -37.4880   60.5073   34.1848 H   0  0  0  0  0  0
  -38.4138   60.4936   35.6149 H   0  0  0  0  0  0
  -43.0296   64.3493   35.9058 H   0  0  0  0  0  0
  -41.7228   64.6165   37.0553 H   0  0  0  0  0  0
  -41.9353   68.0424   34.8711 H   0  0  0  0  0  0
  -43.2145   67.0026   34.2496 H   0  0  0  0  0  0
  -41.8564   66.9207   36.9164 H   0  0  0  0  0  0
  -43.5378   66.5794   36.5590 H   0  0  0  0  0  0
  -41.9337   61.1680   33.7520 H   0  0  0  0  0  0
  -42.7812   61.9703   37.8989 H   0  0  0  0  0  0
  -36.4276   69.0138   32.5379 H   0  0  0  0  0  0
  -36.8226   69.6161   30.9220 H   0  0  0  0  0  0
  -38.0053   69.7278   32.2283 H   0  0  0  0  0  0
  -38.9175   58.5247   34.2030 H   0  0  0  0  0  0
  -40.3678   59.4902   34.4073 H   0  0  0  0  0  0
  -39.4667   59.5801   32.8940 H   0  0  0  0  0  0
  -44.2852   60.5270   33.4071 H   0  0  0  0  0  0
  -45.1313   61.3281   37.5326 H   0  0  0  0  0  0
  -45.8758   60.6161   35.2859 H   0  0  0  0  0  0
  1  3  1  0  0  0
  1  4  2  0  0  0
  1  6  1  0  0  0
  2  4  1  0  0  0
  2 12  1  0  0  0
  2  5  1  0  0  0
  3  5  1  0  0  0
  3  7  2  0  0  0
  4 20  1  0  0  0
  5  8  2  0  0  0
  6  9  1  0  0  0
  6 15  2  0  0  0
  7 11  1  0  0  0
  7 13  1  0  0  0
  8 23  1  0  0  0
  8 10  1  0  0  0
  9 16  2  0  0  0
  9 18  1  0  0  0
 10 11  2  0  0  0
 10 24  1  0  0  0
 11 33  1  0  0  0
 12 21  1  0  0  0
 12 34  1  0  0  0
 12 35  1  0  0  0
 13 19  1  0  0  0
 14 19  1  0  0  0
 14 17  2  0  0  0
 14 22  1  0  0  0
 18 36  1  0  0  0
 18 37  1  0  0  0
 19 38  1  0  0  0
 19 39  1  0  0  0
 20 29  1  0  0  0
 20 40  1  0  0  0
 20 41  1  0  0  0
 21 26  1  0  0  0
 21 27  2  0  0  0
 22 28  1  0  0  0
 23 25  1  0  0  0
 23 42  1  0  0  0
 23 43  1  0  0  0
 24 25  1  0  0  0
 24 44  1  0  0  0
 24 45  1  0  0  0
 25 46  1  0  0  0
 25 47  1  0  0  0
 26 30  2  0  0  0
 26 48  1  0  0  0
 27 31  1  0  0  0
 27 49  1  0  0  0
 28 50  1  0  0  0
 28 51  1  0  0  0
 28 52  1  0  0  0
 29 53  1  0  0  0
 29 54  1  0  0  0
 29 55  1  0  0  0
 30 32  1  0  0  0
 30 56  1  0  0  0
 31 32  2  0  0  0
 31 57  1  0  0  0
 32 58  1  0  0  0
M  END
> <s_m_entry_id>
68155

> <s_m_entry_name>
dock_pv.91

> <s_m_Source_Path>
/home/csk/Desktop/cluster/DUD-E-result/pa2ga

> <s_m_Source_File>
dock_pv.maegz

> <i_m_Source_File_Index>
91

> <chembl_id>
CHEMBL179309

> <chembl_pref_name>
None

> <i_lp_mmshare_version>
53161

> <i_f3d_flags>
0

> <r_lp_tautomer_probability>
1

> <s_lp_Force_Field>
OPLS_2005

> <r_lp_Energy>
54.503763

> <b_lp_Chiralities_Consistent>
1

> <s_lp_Variant>
CHEMBL3474_lig216-1

> <s_i_glide_gridfile>
glide-grid_1kvo

> <i_i_glide_lignum>
278

> <i_i_glide_rotatable_bonds>
9

> <r_i_docking_score>
-7.99305691589855

> <r_i_glide_ligand_efficiency>
-0.24978302862183

> <r_i_glide_ligand_efficiency_sa>
-0.793011683880068

> <r_i_glide_ligand_efficiency_ln>
-1.78986332597219

> <r_i_glide_gscore>
-7.99305691589855

> <r_i_glide_lipo>
-3.54563523255215

> <r_i_glide_hbond>
-0.42794311799543

> <r_i_glide_metal>
0

> <r_i_glide_rewards>
-0.889262125193919

> <r_i_glide_evdw>
-47.8797798156738

> <r_i_glide_ecoul>
-8.2778148651123

> <r_i_glide_erotb>
0.633006575855691

> <r_i_glide_esite>
-0.12756179546221

> <r_i_glide_emodel>
-78.9768981484266

> <r_i_glide_energy>
-56.1575946807861

> <r_i_glide_einternal>
14.2895030975342

> <i_i_glide_confnum>
98

> <i_i_glide_posenum>
59

> <r_i_glide_eff_state_penalty>
0

> <s_user_duplicate_titles>
CHEMBL3474_lig216

> <s_m_subgroup_title>
dock_pv

> <s_m_subgroupid>
dock_pv

> <b_m_subgroup_collapsed>
1

$$$$
CHEMBL3474_lig354
                    3D
 Schrodinger Suite 2021-1.
 45 47  0  0  1  0            999 V2000
  -44.4617   61.0117   36.2613 F   0  0  0  0  0  0
  -43.5109   61.5740   35.5172 C   0  0  0  0  0  0
  -43.5585   62.8914   35.7166 F   0  0  0  0  0  0
  -41.1559   61.1951   35.1324 C   0  0  0  0  0  0
  -40.3104   60.0994   35.0183 C   0  0  0  0  0  0
  -39.1564   60.1379   34.2441 C   0  0  0  0  0  0
  -40.8495   62.4036   34.4905 C   0  0  0  0  0  0
  -39.6479   62.4788   33.7592 C   0  0  0  0  0  0
  -38.8051   61.3383   33.6177 C   0  0  0  0  0  0
  -37.6984   61.7343   32.8234 C   0  0  0  0  0  0
  -37.8433   63.0787   32.5100 C   0  0  0  0  0  0
  -39.0383   63.5421   33.0805 N   0  0  0  0  0  0
  -39.5344   64.8796   33.0666 C   0  0  0  0  0  0
  -39.5190   65.5610   31.8850 N   0  0  0  0  0  0
  -39.9444   66.8553   31.8772 C   0  0  0  0  0  0
  -40.4152   67.4975   33.0264 C   0  0  0  0  0  0
  -40.4632   66.7829   34.2204 C   0  0  0  0  0  0
  -40.0256   65.4603   34.2430 C   0  0  0  0  0  0
  -36.8149   63.9056   31.9128 C   0  0  0  0  0  0
  -36.0153   63.2980   31.0425 N   0  0  0  0  0  0
  -36.6246   65.0704   32.2430 O   0  0  0  0  0  0
  -39.9337   67.5675   30.5257 C   0  0  0  0  0  0
  -39.3031   68.9959   30.4938 C   0  0  1  0  0  0
  -37.8030   69.0341   30.8768 C   0  0  0  0  0  0
  -37.2150   70.2181   30.5425 O   0  0  0  0  0  0
  -37.2150   68.1151   31.4431 O   0  0  0  0  0  0
  -42.2635   61.0249   35.9353 O   0  0  0  0  0  0
  -43.7780   61.2842   34.2427 F   0  0  0  0  0  0
  -39.5885   69.6850   29.1334 C   0  0  0  0  0  0
  -40.5645   59.1986   35.5516 H   0  0  0  0  0  0
  -38.5244   59.2671   34.1586 H   0  0  0  0  0  0
  -41.5029   63.2553   34.5827 H   0  0  0  0  0  0
  -36.8522   61.1180   32.5561 H   0  0  0  0  0  0
  -40.7591   68.5197   32.9996 H   0  0  0  0  0  0
  -40.8287   67.2507   35.1230 H   0  0  0  0  0  0
  -40.0331   64.9178   35.1768 H   0  0  0  0  0  0
  -35.3106   63.8588   30.5801 H   0  0  0  0  0  0
  -36.2754   62.4012   30.6620 H   0  0  0  0  0  0
  -40.9796   67.6214   30.2223 H   0  0  0  0  0  0
  -39.4356   66.9370   29.7850 H   0  0  0  0  0  0
  -39.8026   69.6052   31.2458 H   0  0  0  0  0  0
  -36.2464   70.2279   30.6429 H   0  0  0  0  0  0
  -39.2639   70.7269   29.1216 H   0  0  0  0  0  0
  -39.0763   69.1805   28.3128 H   0  0  0  0  0  0
  -40.6541   69.6980   28.9042 H   0  0  0  0  0  0
  1  2  1  0  0  0
  2  3  1  0  0  0
  2 27  1  0  0  0
  2 28  1  0  0  0
  4  5  2  0  0  0
  4  7  1  0  0  0
  4 27  1  0  0  0
  5  6  1  0  0  0
  5 30  1  0  0  0
  6  9  2  0  0  0
  6 31  1  0  0  0
  7  8  2  0  0  0
  7 32  1  0  0  0
  8  9  1  0  0  0
  8 12  1  0  0  0
  9 10  1  0  0  0
 10 11  2  0  0  0
 10 33  1  0  0  0
 11 12  1  0  0  0
 11 19  1  0  0  0
 12 13  1  0  0  0
 13 14  2  0  0  0
 13 18  1  0  0  0
 14 15  1  0  0  0
 15 16  2  0  0  0
 15 22  1  0  0  0
 16 17  1  0  0  0
 16 34  1  0  0  0
 17 18  2  0  0  0
 17 35  1  0  0  0
 18 36  1  0  0  0
 19 20  1  0  0  0
 19 21  2  0  0  0
 20 37  1  0  0  0
 20 38  1  0  0  0
 22 23  1  0  0  0
 22 39  1  0  0  0
 22 40  1  0  0  0
 23 24  1  0  0  0
 23 29  1  0  0  0
 23 41  1  0  0  0
 24 25  1  0  0  0
 24 26  2  0  0  0
 25 42  1  0  0  0
 29 43  1  0  0  0
 29 44  1  0  0  0
 29 45  1  0  0  0
M  END
> <s_m_entry_id>
68156

> <s_m_entry_name>
dock_pv.92

> <s_m_Source_Path>
/home/csk/Desktop/cluster/DUD-E-result/pa2ga

> <s_m_Source_File>
dock_pv.maegz

> <i_m_Source_File_Index>
92

> <chembl_id>
CHEMBL4205511

> <chembl_pref_name>
None

> <i_lp_mmshare_version>
53161

> <i_f3d_flags>
0

> <r_lp_tautomer_probability>
1

> <s_lp_Force_Field>
OPLS_2005

> <r_lp_Energy>
11.856977

> <b_lp_Chiralities_Consistent>
1

> <s_lp_Variant>
CHEMBL3474_lig354-2

> <s_i_glide_gridfile>
glide-grid_1kvo

> <i_i_glide_lignum>
447

> <i_i_glide_rotatable_bonds>
8

> <r_i_docking_score>
-7.97894665302366

> <r_i_glide_ligand_efficiency>
-0.275136091483574

> <r_i_glide_ligand_efficiency_sa>
-0.845305242269628

> <r_i_glide_ligand_efficiency_ln>
-1.82697645491269

> <r_i_glide_gscore>
-7.97894665302366

> <r_i_glide_lipo>
-2.88872347954041

> <r_i_glide_hbond>
-0.159833190974277

> <r_i_glide_metal>
0

> <r_i_glide_rewards>
-1.46446836682551

> <r_i_glide_evdw>
-43.8025283813477

> <r_i_glide_ecoul>
-11.525673866272

> <r_i_glide_erotb>
0.59275288973163

> <r_i_glide_esite>
-0.13969700640691

> <r_i_glide_emodel>
-81.9976980371305

> <r_i_glide_energy>
-55.3282022476196

> <r_i_glide_einternal>
8.37566757202148

> <i_i_glide_confnum>
31

> <i_i_glide_posenum>
318

> <r_i_glide_eff_state_penalty>
0

> <s_user_duplicate_titles>
CHEMBL3474_lig354

> <s_m_subgroup_title>
dock_pv

> <s_m_subgroupid>
dock_pv

> <b_m_subgroup_collapsed>
1

$$$$
CHEMBL3474_lig178
                    3D
 Schrodinger Suite 2021-1.
 58 61  0  0  1  0            999 V2000
  -40.4392   64.6475   33.8294 N   0  0  0  0  0  0
  -39.3288   65.5379   32.0489 C   0  0  0  0  0  0
  -40.3730   65.7155   32.9524 C   0  0  0  0  0  0
  -38.7230   64.2823   32.4038 C   0  0  0  0  0  0
  -39.3844   63.7952   33.5696 C   0  0  0  0  0  0
  -41.5483   64.3551   34.7472 C   0  0  0  0  0  0
  -41.2435   64.1926   36.2390 C   0  0  0  0  0  0
  -38.9506   66.4438   30.8698 C   0  0  0  0  0  0
  -41.6951   63.0636   36.9581 C   0  0  0  0  0  0
  -38.9785   62.6268   34.2202 C   0  0  0  0  0  0
  -38.5195   67.8608   31.2934 C   0  0  0  0  0  0
  -37.6932   63.5060   31.8468 C   0  0  0  0  0  0
  -39.3416   68.6643   31.7399 O   0  0  0  0  0  0
  -42.2842   61.8888   36.2622 C   0  0  0  0  0  0
  -37.2177   68.1581   31.1791 N   0  0  0  0  0  0
  -37.3407   62.2919   32.4528 C   0  0  0  0  0  0
  -37.9444   61.9020   33.6410 C   0  0  0  0  0  0
  -41.3714   66.8457   33.0095 C   0  0  0  0  0  0
  -36.7178   69.2973   31.8383 N   0  0  0  0  0  0
  -36.4139   61.4156   31.9448 O   0  0  0  0  0  0
  -40.5960   65.2322   36.9170 C   0  0  0  0  0  0
  -41.5459   63.0436   38.3493 C   0  0  0  0  0  0
  -41.4743   60.7939   35.9446 C   0  0  0  0  0  0
  -43.6155   61.9058   35.8324 C   0  0  0  0  0  0
  -36.1251   61.4530   30.5552 C   0  0  0  0  0  0
  -41.1026   67.8336   34.1602 C   0  0  0  0  0  0
  -40.4213   65.1806   38.2971 C   0  0  0  0  0  0
  -40.9182   64.0977   39.0163 C   0  0  0  0  0  0
  -41.9548   59.7789   35.1240 C   0  0  0  0  0  0
  -44.1060   60.8744   35.0342 C   0  0  0  0  0  0
  -43.2647   59.8279   34.6634 C   0  0  0  0  0  0
  -42.3127   65.1245   34.6823 H   0  0  0  0  0  0
  -42.0206   63.4684   34.3312 H   0  0  0  0  0  0
  -38.1631   65.9870   30.2673 H   0  0  0  0  0  0
  -39.7894   66.5402   30.1800 H   0  0  0  0  0  0
  -39.4508   62.2868   35.1255 H   0  0  0  0  0  0
  -37.2131   63.8307   30.9361 H   0  0  0  0  0  0
  -36.5630   67.5957   30.6433 H   0  0  0  0  0  0
  -37.6291   60.9788   34.1066 H   0  0  0  0  0  0
  -41.3317   67.3601   32.0531 H   0  0  0  0  0  0
  -42.4013   66.4973   33.0582 H   0  0  0  0  0  0
  -36.4494   69.9655   31.1181 H   0  0  0  0  0  0
  -37.5299   69.7217   32.2749 H   0  0  0  0  0  0
  -40.2300   66.0919   36.3773 H   0  0  0  0  0  0
  -41.8942   62.1936   38.9184 H   0  0  0  0  0  0
  -40.4538   60.7462   36.2954 H   0  0  0  0  0  0
  -44.2547   62.7418   36.0773 H   0  0  0  0  0  0
  -35.4541   60.6312   30.3038 H   0  0  0  0  0  0
  -35.6342   62.3846   30.2744 H   0  0  0  0  0  0
  -37.0288   61.3193   29.9585 H   0  0  0  0  0  0
  -41.6149   68.7811   33.9943 H   0  0  0  0  0  0
  -41.4509   67.4392   35.1136 H   0  0  0  0  0  0
  -40.0396   68.0590   34.2590 H   0  0  0  0  0  0
  -39.9164   65.9843   38.8132 H   0  0  0  0  0  0
  -40.7909   64.0570   40.0885 H   0  0  0  0  0  0
  -41.3109   58.9657   34.8296 H   0  0  0  0  0  0
  -45.1260   60.8981   34.6791 H   0  0  0  0  0  0
  -43.6260   59.0428   34.0157 H   0  0  0  0  0  0
  1  3  1  0  0  0
  1  5  1  0  0  0
  1  6  1  0  0  0
  2  3  2  0  0  0
  2  8  1  0  0  0
  2  4  1  0  0  0
  3 18  1  0  0  0
  4  5  1  0  0  0
  4 12  2  0  0  0
  5 10  2  0  0  0
  6  7  1  0  0  0
  6 32  1  0  0  0
  6 33  1  0  0  0
  7  9  2  0  0  0
  7 21  1  0  0  0
  8 11  1  0  0  0
  8 34  1  0  0  0
  8 35  1  0  0  0
  9 14  1  0  0  0
  9 22  1  0  0  0
 10 17  1  0  0  0
 10 36  1  0  0  0
 11 13  2  0  0  0
 11 15  1  0  0  0
 12 16  1  0  0  0
 12 37  1  0  0  0
 14 23  1  0  0  0
 14 24  2  0  0  0
 15 19  1  0  0  0
 15 38  1  0  0  0
 16 17  2  0  0  0
 16 20  1  0  0  0
 17 39  1  0  0  0
 18 26  1  0  0  0
 18 40  1  0  0  0
 18 41  1  0  0  0
 19 42  1  0  0  0
 19 43  1  0  0  0
 20 25  1  0  0  0
 21 27  2  0  0  0
 21 44  1  0  0  0
 22 28  2  0  0  0
 22 45  1  0  0  0
 23 29  2  0  0  0
 23 46  1  0  0  0
 24 30  1  0  0  0
 24 47  1  0  0  0
 25 48  1  0  0  0
 25 49  1  0  0  0
 25 50  1  0  0  0
 26 51  1  0  0  0
 26 52  1  0  0  0
 26 53  1  0  0  0
 27 28  1  0  0  0
 27 54  1  0  0  0
 28 55  1  0  0  0
 29 31  1  0  0  0
 29 56  1  0  0  0
 30 31  2  0  0  0
 30 57  1  0  0  0
 31 58  1  0  0  0
M  END
> <s_m_entry_id>
68157

> <s_m_entry_name>
dock_pv.93

> <s_m_Source_Path>
/home/csk/Desktop/cluster/DUD-E-result/pa2ga

> <s_m_Source_File>
dock_pv.maegz

> <i_m_Source_File_Index>
93

> <chembl_id>
CHEMBL357984

> <chembl_pref_name>
None

> <i_lp_mmshare_version>
53161

> <i_f3d_flags>
0

> <r_lp_tautomer_probability>
1

> <s_lp_Force_Field>
OPLS_2005

> <r_lp_Energy>
23.633719

> <b_lp_Chiralities_Consistent>
1

> <s_lp_Variant>
CHEMBL3474_lig178-1

> <s_i_glide_gridfile>
glide-grid_1kvo

> <i_i_glide_lignum>
240

> <i_i_glide_rotatable_bonds>
8

> <r_i_docking_score>
-7.97360319292708

> <r_i_glide_ligand_efficiency>
-0.257213006223454

> <r_i_glide_ligand_efficiency_sa>
-0.808003960368894

> <r_i_glide_ligand_efficiency_ln>
-1.7982918815962

> <r_i_glide_gscore>
-7.97360319292708

> <r_i_glide_lipo>
-3.93616850206853

> <r_i_glide_hbond>
-0.349056206531701

> <r_i_glide_metal>
0

> <r_i_glide_rewards>
-0.862988446734005

> <r_i_glide_evdw>
-46.4209098815918

> <r_i_glide_ecoul>
-6.3776798248291

> <r_i_glide_erotb>
0.576897106341786

> <r_i_glide_esite>
-0.124589676130669

> <r_i_glide_emodel>
-74.2755781431345

> <r_i_glide_energy>
-52.7985897064209

> <r_i_glide_einternal>
7.93046617507935

> <i_i_glide_confnum>
25

> <i_i_glide_posenum>
76

> <r_i_glide_eff_state_penalty>
0

> <s_user_duplicate_titles>
CHEMBL3474_lig178

> <s_m_subgroup_title>
dock_pv

> <s_m_subgroupid>
dock_pv

> <b_m_subgroup_collapsed>
1

$$$$
CHEMBL3474_lig290
                    3D
 Schrodinger Suite 2021-1.
 58 61  0  0  1  0            999 V2000
  -40.8148   69.3013   33.8429 C   0  0  0  0  0  0
  -40.0606   68.3577   33.1460 C   0  0  0  0  0  0
  -40.2059   66.9825   33.4329 C   0  0  0  0  0  0
  -41.1712   66.6240   34.3965 N   0  0  0  0  0  0
  -41.1758   65.2514   34.5178 C   0  0  0  0  0  0
  -40.2249   64.7098   33.6440 C   0  0  0  0  0  0
  -39.5984   65.7724   32.9881 C   0  0  0  0  0  0
  -38.5561   65.6830   31.9671 C   0  0  0  0  0  0
  -38.9972   66.0992   30.4982 C   0  0  0  0  0  0
  -42.1682   64.5564   35.4293 C   0  0  0  0  0  0
  -41.7176   64.3586   36.8851 C   0  0  0  0  0  0
  -41.1270   65.4165   37.5928 C   0  0  0  0  0  0
  -40.7984   65.2814   38.9393 C   0  0  0  0  0  0
  -41.0607   64.0863   39.5985 C   0  0  0  0  0  0
  -41.6250   63.0193   38.9021 C   0  0  0  0  0  0
  -41.9473   63.1344   37.5448 C   0  0  0  0  0  0
  -39.9574   63.2270   33.4381 C   0  0  0  0  0  0
  -38.9028   62.6872   34.4108 C   0  0  0  0  0  0
  -37.4258   65.2412   32.2036 O   0  0  0  0  0  0
  -38.0150   66.0957   29.5958 N   0  0  0  0  0  0
  -40.1565   66.4133   30.2434 O   0  0  0  0  0  0
  -39.1671   68.6522   32.1511 O   0  0  0  0  0  0
  -38.7698   69.9938   31.9105 C   0  0  0  0  0  0
  -41.9416   67.5630   35.0432 C   0  0  0  0  0  0
  -41.7564   68.9099   34.7818 C   0  0  0  0  0  0
  -37.3097   69.9362   31.5045 C   0  0  0  0  0  0
  -36.8150   71.1769   31.2698 O   0  0  0  0  0  0
  -36.6525   68.8980   31.4432 O   0  0  0  0  0  0
  -42.4723   61.9676   36.7939 C   0  0  0  0  0  0
  -43.8378   61.8624   36.5093 C   0  0  0  0  0  0
  -44.2930   60.8856   35.6276 C   0  0  0  0  0  0
  -43.3831   60.0057   35.0450 C   0  0  0  0  0  0
  -42.0299   60.0694   35.3641 C   0  0  0  0  0  0
  -41.5764   61.0463   36.2438 C   0  0  0  0  0  0
  -40.7193   70.3583   33.6530 H   0  0  0  0  0  0
  -43.1275   65.0720   35.4553 H   0  0  0  0  0  0
  -42.4146   63.6104   34.9548 H   0  0  0  0  0  0
  -40.9219   66.3607   37.1176 H   0  0  0  0  0  0
  -40.3454   66.1028   39.4750 H   0  0  0  0  0  0
  -40.8071   63.9752   40.6430 H   0  0  0  0  0  0
  -41.8014   62.0976   39.4309 H   0  0  0  0  0  0
  -40.8748   62.6504   33.5539 H   0  0  0  0  0  0
  -39.6321   63.0305   32.4163 H   0  0  0  0  0  0
  -38.7813   61.6086   34.3037 H   0  0  0  0  0  0
  -37.9356   63.1507   34.2289 H   0  0  0  0  0  0
  -39.1783   62.8922   35.4449 H   0  0  0  0  0  0
  -38.2328   66.3046   28.6342 H   0  0  0  0  0  0
  -37.0612   65.8440   29.8427 H   0  0  0  0  0  0
  -38.8197   70.6398   32.7863 H   0  0  0  0  0  0
  -39.3648   70.4171   31.1010 H   0  0  0  0  0  0
  -42.6654   67.2125   35.7638 H   0  0  0  0  0  0
  -42.3461   69.6522   35.3027 H   0  0  0  0  0  0
  -35.9001   71.0573   30.9361 H   0  0  0  0  0  0
  -44.5358   62.5752   36.9243 H   0  0  0  0  0  0
  -45.3428   60.8229   35.3787 H   0  0  0  0  0  0
  -43.7301   59.2598   34.3451 H   0  0  0  0  0  0
  -41.3327   59.3760   34.9172 H   0  0  0  0  0  0
  -40.5199   61.1176   36.4595 H   0  0  0  0  0  0
  1 25  1  0  0  0
  1  2  2  0  0  0
  1 35  1  0  0  0
  2 22  1  0  0  0
  2  3  1  0  0  0
  3  7  2  0  0  0
  3  4  1  0  0  0
  4 24  1  0  0  0
  4  5  1  0  0  0
  5 10  1  0  0  0
  5  6  2  0  0  0
  6 17  1  0  0  0
  6  7  1  0  0  0
  7  8  1  0  0  0
  8 19  2  0  0  0
  8  9  1  0  0  0
  9 20  1  0  0  0
  9 21  2  0  0  0
 10 11  1  0  0  0
 10 36  1  0  0  0
 10 37  1  0  0  0
 11 16  1  0  0  0
 11 12  2  0  0  0
 12 13  1  0  0  0
 12 38  1  0  0  0
 13 14  2  0  0  0
 13 39  1  0  0  0
 14 15  1  0  0  0
 14 40  1  0  0  0
 15 16  2  0  0  0
 15 41  1  0  0  0
 16 29  1  0  0  0
 17 18  1  0  0  0
 17 42  1  0  0  0
 17 43  1  0  0  0
 18 44  1  0  0  0
 18 45  1  0  0  0
 18 46  1  0  0  0
 20 47  1  0  0  0
 20 48  1  0  0  0
 22 23  1  0  0  0
 23 26  1  0  0  0
 23 49  1  0  0  0
 23 50  1  0  0  0
 24 25  2  0  0  0
 24 51  1  0  0  0
 25 52  1  0  0  0
 26 27  1  0  0  0
 26 28  2  0  0  0
 27 53  1  0  0  0
 29 30  2  0  0  0
 29 34  1  0  0  0
 30 31  1  0  0  0
 30 54  1  0  0  0
 31 32  2  0  0  0
 31 55  1  0  0  0
 32 33  1  0  0  0
 32 56  1  0  0  0
 33 34  2  0  0  0
 33 57  1  0  0  0
 34 58  1  0  0  0
M  END
> <s_m_entry_id>
68158

> <s_m_entry_name>
dock_pv.94

> <s_m_Source_Path>
/home/csk/Desktop/cluster/DUD-E-result/pa2ga

> <s_m_Source_File>
dock_pv.maegz

> <i_m_Source_File_Index>
94

> <chembl_id>
CHEMBL332993

> <chembl_pref_name>
None

> <i_lp_mmshare_version>
53161

> <i_f3d_flags>
0

> <r_lp_tautomer_probability>
1

> <s_lp_Force_Field>
OPLS_2005

> <r_lp_Energy>
31.645692

> <b_lp_Chiralities_Consistent>
1

> <s_lp_Variant>
CHEMBL3474_lig290-1

> <s_i_glide_gridfile>
glide-grid_1kvo

> <i_i_glide_lignum>
375

> <i_i_glide_rotatable_bonds>
10

> <r_i_docking_score>
-7.97270549391646

> <r_i_glide_ligand_efficiency>
-0.234491338056367

> <r_i_glide_ligand_efficiency_sa>
-0.759660905171807

> <r_i_glide_ligand_efficiency_ln>
-1.76139427042051

> <r_i_glide_gscore>
-7.97270549391646

> <r_i_glide_lipo>
-3.52091728894632

> <r_i_glide_hbond>
-0.152500389594068

> <r_i_glide_metal>
0

> <r_i_glide_rewards>
-0.476875155659072

> <r_i_glide_evdw>
-39.1996994018555

> <r_i_glide_ecoul>
-15.6436758041382

> <r_i_glide_erotb>
0.67511185465424

> <r_i_glide_esite>
-0.19098817365774

> <r_i_glide_emodel>
-79.7387487511952

> <r_i_glide_energy>
-54.8433752059937

> <r_i_glide_einternal>
5.53651762008667

> <i_i_glide_confnum>
89

> <i_i_glide_posenum>
47

> <r_i_glide_eff_state_penalty>
0

> <s_user_duplicate_titles>
CHEMBL3474_lig290,199384

> <s_m_subgroup_title>
dock_pv

> <s_m_subgroupid>
dock_pv

> <b_m_subgroup_collapsed>
1

$$$$
CHEMBL3474_lig227
                    3D
 Schrodinger Suite 2021-1.
 51 53  0  0  1  0            999 V2000
  -40.5509   66.1768   33.0345 C   0  0  0  0  0  0
  -41.2584   65.9852   34.2180 C   0  0  0  0  0  0
  -41.1554   64.7966   34.9363 C   0  0  0  0  0  0
  -39.6794   65.1979   32.5410 C   0  0  0  0  0  0
  -38.6069   62.8537   33.1985 C   0  0  0  0  0  0
  -39.4645   64.0198   33.3010 C   0  0  0  0  0  0
  -40.2645   63.8224   34.4659 C   0  0  0  0  0  0
  -39.9901   62.5565   34.9614 N   0  0  0  0  0  0
  -39.0001   61.9604   34.1949 C   0  0  0  0  0  0
  -38.4446   60.5774   34.5181 C   0  0  0  0  0  0
  -39.1894   59.4560   33.7870 C   0  0  0  0  0  0
  -37.5078   62.6162   32.2492 C   0  0  0  0  0  0
  -36.5887   63.8370   31.8403 C   0  0  0  0  0  0
  -37.1647   61.4854   31.8948 O   0  0  0  0  0  0
  -36.4148   64.8112   32.5680 O   0  0  0  0  0  0
  -36.0150   63.6933   30.6512 N   0  0  0  0  0  0
  -39.0209   65.2673   31.3274 O   0  0  0  0  0  0
  -39.3210   66.2853   30.3665 C   0  0  0  0  0  0
  -38.4535   67.5365   30.5794 C   0  0  0  0  0  0
  -38.7343   68.4928   29.6522 O   0  0  0  0  0  0
  -37.6071   67.6638   31.4623 O   0  0  0  0  0  0
  -42.1676   67.0789   34.7477 C   0  0  0  0  0  0
  -40.6993   61.9652   36.1070 C   0  0  0  0  0  0
  -42.1550   61.5901   35.8474 C   0  0  0  0  0  0
  -43.0876   61.7475   36.8776 C   0  0  0  0  0  0
  -44.4196   61.4020   36.6734 C   0  0  0  0  0  0
  -44.8152   60.8964   35.4390 C   0  0  0  0  0  0
  -43.8927   60.7241   34.4092 C   0  0  0  0  0  0
  -42.5606   61.0707   34.6123 C   0  0  0  0  0  0
  -40.6904   67.0989   32.4926 H   0  0  0  0  0  0
  -41.7406   64.6418   35.8313 H   0  0  0  0  0  0
  -37.3930   60.5293   34.2357 H   0  0  0  0  0  0
  -38.4202   60.3711   35.5834 H   0  0  0  0  0  0
  -38.6408   58.5173   33.8651 H   0  0  0  0  0  0
  -40.1879   59.3010   34.1957 H   0  0  0  0  0  0
  -39.2943   59.6818   32.7250 H   0  0  0  0  0  0
  -36.2499   62.8938   30.0809 H   0  0  0  0  0  0
  -35.4701   64.4551   30.2503 H   0  0  0  0  0  0
  -39.0823   65.8677   29.3873 H   0  0  0  0  0  0
  -40.3830   66.5343   30.3453 H   0  0  0  0  0  0
  -38.1656   69.2580   29.7621 H   0  0  0  0  0  0
  -42.0085   68.0328   34.2451 H   0  0  0  0  0  0
  -43.2149   66.7898   34.6498 H   0  0  0  0  0  0
  -41.9726   67.2420   35.8079 H   0  0  0  0  0  0
  -40.6594   62.7023   36.9111 H   0  0  0  0  0  0
  -40.1806   61.0864   36.4834 H   0  0  0  0  0  0
  -42.7849   62.1359   37.8391 H   0  0  0  0  0  0
  -45.1412   61.5248   37.4679 H   0  0  0  0  0  0
  -45.8489   60.6248   35.2757 H   0  0  0  0  0  0
  -44.2130   60.3247   33.4570 H   0  0  0  0  0  0
  -41.8521   60.9377   33.8079 H   0  0  0  0  0  0
  1  2  2  0  0  0
  1  4  1  0  0  0
  1 30  1  0  0  0
  2 22  1  0  0  0
  2  3  1  0  0  0
  3  7  2  0  0  0
  3 31  1  0  0  0
  4  6  2  0  0  0
  4 17  1  0  0  0
  5  6  1  0  0  0
  5  9  2  0  0  0
  5 12  1  0  0  0
  6  7  1  0  0  0
  7  8  1  0  0  0
  8  9  1  0  0  0
  8 23  1  0  0  0
  9 10  1  0  0  0
 10 11  1  0  0  0
 10 32  1  0  0  0
 10 33  1  0  0  0
 11 34  1  0  0  0
 11 35  1  0  0  0
 11 36  1  0  0  0
 12 14  2  0  0  0
 12 13  1  0  0  0
 13 15  2  0  0  0
 13 16  1  0  0  0
 16 37  1  0  0  0
 16 38  1  0  0  0
 17 18  1  0  0  0
 18 19  1  0  0  0
 18 39  1  0  0  0
 18 40  1  0  0  0
 19 20  1  0  0  0
 19 21  2  0  0  0
 20 41  1  0  0  0
 22 42  1  0  0  0
 22 43  1  0  0  0
 22 44  1  0  0  0
 23 24  1  0  0  0
 23 45  1  0  0  0
 23 46  1  0  0  0
 24 25  2  0  0  0
 24 29  1  0  0  0
 25 26  1  0  0  0
 25 47  1  0  0  0
 26 27  2  0  0  0
 26 48  1  0  0  0
 27 28  1  0  0  0
 27 49  1  0  0  0
 28 29  2  0  0  0
 28 50  1  0  0  0
 29 51  1  0  0  0
M  END
> <s_m_entry_id>
68159

> <s_m_entry_name>
dock_pv.95

> <s_m_Source_Path>
/home/csk/Desktop/cluster/DUD-E-result/pa2ga

> <s_m_Source_File>
dock_pv.maegz

> <i_m_Source_File_Index>
95

> <chembl_id>
CHEMBL208315

> <chembl_pref_name>
None

> <i_lp_mmshare_version>
53161

> <i_f3d_flags>
0

> <r_lp_tautomer_probability>
1

> <s_lp_Force_Field>
OPLS_2005

> <r_lp_Energy>
21.801083

> <b_lp_Chiralities_Consistent>
1

> <s_lp_Variant>
CHEMBL3474_lig227-1

> <s_i_glide_gridfile>
glide-grid_1kvo

> <i_i_glide_lignum>
289

> <i_i_glide_rotatable_bonds>
9

> <r_i_docking_score>
-7.96893333288854

> <r_i_glide_ligand_efficiency>
-0.274790804582363

> <r_i_glide_ligand_efficiency_sa>
-0.84424441151454

> <r_i_glide_ligand_efficiency_ln>
-1.82468365851764

> <r_i_glide_gscore>
-7.96893333288854

> <r_i_glide_lipo>
-3.43536774543421

> <r_i_glide_hbond>
-0.429060610518784

> <r_i_glide_metal>
0

> <r_i_glide_rewards>
-1.13071316079013

> <r_i_glide_evdw>
-45.7506561279297

> <r_i_glide_ecoul>
-8.67554092407227

> <r_i_glide_erotb>
0.753809186102641

> <r_i_glide_esite>
-0.138737057240729

> <r_i_glide_emodel>
-81.0635188925908

> <r_i_glide_energy>
-54.426197052002

> <r_i_glide_einternal>
8.59960269927979

> <i_i_glide_confnum>
73

> <i_i_glide_posenum>
242

> <r_i_glide_eff_state_penalty>
0

> <s_user_duplicate_titles>
CHEMBL3474_lig227,345851

> <s_m_subgroup_title>
dock_pv

> <s_m_subgroupid>
dock_pv

> <b_m_subgroup_collapsed>
1

$$$$
CHEMBL3474_lig353
                    3D
 Schrodinger Suite 2021-1.
 45 47  0  0  1  0            999 V2000
  -43.1973   60.1001   36.6410 F   0  0  0  0  0  0
  -43.6773   60.6127   35.5094 C   0  0  0  0  0  0
  -44.9365   60.9847   35.7282 F   0  0  0  0  0  0
  -41.6472   61.6186   34.6501 C   0  0  0  0  0  0
  -40.8996   60.4340   34.7253 C   0  0  0  0  0  0
  -39.6158   60.3462   34.1951 C   0  0  0  0  0  0
  -41.1035   62.7608   34.0667 C   0  0  0  0  0  0
  -39.8096   62.6842   33.5341 C   0  0  0  0  0  0
  -39.0588   61.4751   33.5830 C   0  0  0  0  0  0
  -37.8140   61.7360   32.9508 C   0  0  0  0  0  0
  -37.8221   63.0544   32.5208 C   0  0  0  0  0  0
  -39.0241   63.6513   32.9081 N   0  0  0  0  0  0
  -39.4207   64.9999   32.6938 C   0  0  0  0  0  0
  -39.2195   65.6343   31.4584 C   0  0  0  0  0  0
  -39.5337   66.9906   31.3337 C   0  0  0  0  0  0
  -40.1133   67.6526   32.4224 C   0  0  0  0  0  0
  -40.3256   66.9467   33.6058 C   0  0  0  0  0  0
  -39.9760   65.6461   33.7562 N   0  0  0  0  0  0
  -36.7086   63.7494   31.9323 C   0  0  0  0  0  0
  -36.0149   63.0515   31.0429 N   0  0  0  0  0  0
  -36.4132   64.8980   32.2431 O   0  0  0  0  0  0
  -39.2150   67.7465   30.0433 C   0  0  0  0  0  0
  -37.8462   68.4816   30.0086 C   0  0  2  0  0  0
  -37.5441   69.3106   31.2674 C   0  0  0  0  0  0
  -38.1954   70.5065   31.2841 O   0  0  0  0  0  0
  -36.8151   68.8981   32.1645 O   0  0  0  0  0  0
  -42.9351   61.7629   35.1255 O   0  0  0  0  0  0
  -43.6832   59.6982   34.5385 F   0  0  0  0  0  0
  -37.6419   69.2906   28.7087 C   0  0  0  0  0  0
  -41.3081   59.5523   35.1943 H   0  0  0  0  0  0
  -39.0656   59.4187   34.2438 H   0  0  0  0  0  0
  -41.6796   63.6709   34.0299 H   0  0  0  0  0  0
  -36.9927   61.0434   32.8384 H   0  0  0  0  0  0
  -38.7774   65.1020   30.6278 H   0  0  0  0  0  0
  -40.3694   68.6986   32.3666 H   0  0  0  0  0  0
  -40.7584   67.4279   34.4703 H   0  0  0  0  0  0
  -35.2675   63.5185   30.5491 H   0  0  0  0  0  0
  -36.3513   62.1549   30.7270 H   0  0  0  0  0  0
  -40.0319   68.4397   29.8429 H   0  0  0  0  0  0
  -39.2158   67.0217   29.2255 H   0  0  0  0  0  0
  -37.0890   67.6982   29.9908 H   0  0  0  0  0  0
  -38.6426   70.6731   30.4523 H   0  0  0  0  0  0
  -36.6845   69.8140   28.7015 H   0  0  0  0  0  0
  -37.6345   68.6308   27.8430 H   0  0  0  0  0  0
  -38.4247   70.0335   28.5494 H   0  0  0  0  0  0
  1  2  1  0  0  0
  2  3  1  0  0  0
  2 27  1  0  0  0
  2 28  1  0  0  0
  4  5  2  0  0  0
  4  7  1  0  0  0
  4 27  1  0  0  0
  5  6  1  0  0  0
  5 30  1  0  0  0
  6  9  2  0  0  0
  6 31  1  0  0  0
  7  8  2  0  0  0
  7 32  1  0  0  0
  8  9  1  0  0  0
  8 12  1  0  0  0
  9 10  1  0  0  0
 10 11  2  0  0  0
 10 33  1  0  0  0
 11 12  1  0  0  0
 11 19  1  0  0  0
 12 13  1  0  0  0
 13 14  2  0  0  0
 13 18  1  0  0  0
 14 15  1  0  0  0
 14 34  1  0  0  0
 15 16  2  0  0  0
 15 22  1  0  0  0
 16 17  1  0  0  0
 16 35  1  0  0  0
 17 18  2  0  0  0
 17 36  1  0  0  0
 19 20  1  0  0  0
 19 21  2  0  0  0
 20 37  1  0  0  0
 20 38  1  0  0  0
 22 23  1  0  0  0
 22 39  1  0  0  0
 22 40  1  0  0  0
 23 24  1  0  0  0
 23 29  1  0  0  0
 23 41  1  0  0  0
 24 25  1  0  0  0
 24 26  2  0  0  0
 25 42  1  0  0  0
 29 43  1  0  0  0
 29 44  1  0  0  0
 29 45  1  0  0  0
M  END
> <s_m_entry_id>
68160

> <s_m_entry_name>
dock_pv.96

> <s_m_Source_Path>
/home/csk/Desktop/cluster/DUD-E-result/pa2ga

> <s_m_Source_File>
dock_pv.maegz

> <i_m_Source_File_Index>
96

> <chembl_id>
CHEMBL4205008

> <chembl_pref_name>
None

> <i_lp_mmshare_version>
53161

> <i_f3d_flags>
0

> <r_lp_tautomer_probability>
1

> <s_lp_Force_Field>
OPLS_2005

> <r_lp_Energy>
11.684487

> <b_lp_Chiralities_Consistent>
1

> <s_lp_Variant>
CHEMBL3474_lig353-1

> <s_i_glide_gridfile>
glide-grid_1kvo

> <i_i_glide_lignum>
444

> <i_i_glide_rotatable_bonds>
8

> <r_i_docking_score>
-7.96238010437866

> <r_i_glide_ligand_efficiency>
-0.274564831185471

> <r_i_glide_ligand_efficiency_sa>
-0.843550149645889

> <r_i_glide_ligand_efficiency_ln>
-1.82318313536441

> <r_i_glide_gscore>
-7.96238010437866

> <r_i_glide_lipo>
-3.01971888416268

> <r_i_glide_hbond>
-0.205873705489626

> <r_i_glide_metal>
0

> <r_i_glide_rewards>
-1.96867772075383

> <r_i_glide_evdw>
-47.980224609375

> <r_i_glide_ecoul>
-5.48415327072144

> <r_i_glide_erotb>
0.59275288973163

> <r_i_glide_esite>
-0.139228462627193

> <r_i_glide_emodel>
-81.3007433585095

> <r_i_glide_energy>
-53.4643778800964

> <r_i_glide_einternal>
8.84079170227051

> <i_i_glide_confnum>
72

> <i_i_glide_posenum>
376

> <r_i_glide_eff_state_penalty>
0

> <s_user_duplicate_titles>
CHEMBL3474_lig353

> <s_m_subgroup_title>
dock_pv

> <s_m_subgroupid>
dock_pv

> <b_m_subgroup_collapsed>
1

$$$$
CHEMBL3474_lig223
                    3D
 Schrodinger Suite 2021-1.
 60 63  0  0  1  0            999 V2000
  -38.4459   62.7101   33.0419 C   0  0  0  0  0  0
  -39.6961   62.3378   34.9023 N   0  0  0  0  0  0
  -39.3066   63.8530   33.2268 C   0  0  0  0  0  0
  -38.6958   61.8341   34.0786 C   0  0  0  0  0  0
  -39.9944   63.6391   34.4644 C   0  0  0  0  0  0
  -37.4462   62.4679   31.9962 C   0  0  0  0  0  0
  -39.5823   65.0132   32.4723 C   0  0  0  0  0  0
  -40.8165   64.6821   35.0215 C   0  0  0  0  0  0
  -36.4428   63.6368   31.6378 C   0  0  0  0  0  0
  -40.3963   66.0127   33.0043 C   0  0  0  0  0  0
  -40.9926   65.8867   34.2726 C   0  0  0  0  0  0
  -40.3288   61.5122   35.9591 C   0  0  0  0  0  0
  -39.0270   65.0405   31.2069 O   0  0  0  0  0  0
  -38.3595   67.3052   30.4651 C   0  0  0  0  0  0
  -37.2231   61.3365   31.5464 O   0  0  0  0  0  0
  -36.4075   64.7079   32.2430 O   0  0  0  0  0  0
  -37.6149   67.4433   31.4429 O   0  0  0  0  0  0
  -35.6168   63.3042   30.6512 N   0  0  0  0  0  0
  -39.3003   66.1018   30.2890 C   0  0  0  0  0  0
  -37.9941   60.5252   34.3869 C   0  0  0  0  0  0
  -38.4426   68.1554   29.4230 O   0  0  0  0  0  0
  -41.6278   60.7995   35.5008 C   0  0  0  0  0  0
  -41.4420   64.6142   36.3014 C   0  0  0  0  0  0
  -41.7701   66.9454   34.8047 C   0  0  0  0  0  0
  -37.6050   69.3017   29.3553 C   0  0  0  0  0  0
  -42.8527   61.7352   35.4564 C   0  0  0  0  0  0
  -41.4663   60.0529   34.1465 C   0  0  0  0  0  0
  -42.2074   65.6682   36.7925 C   0  0  0  0  0  0
  -42.3697   66.8278   36.0504 C   0  0  0  0  0  0
  -42.7420   59.3332   33.7010 C   0  0  0  0  0  0
  -44.1241   60.9703   35.0657 C   0  0  0  0  0  0
  -43.9387   60.2839   33.7015 C   0  0  0  0  0  0
  -40.5784   66.9189   32.4494 H   0  0  0  0  0  0
  -40.4314   62.0600   36.8832 H   0  0  0  0  0  0
  -39.6474   60.7293   36.2758 H   0  0  0  0  0  0
  -34.9785   63.9992   30.2781 H   0  0  0  0  0  0
  -35.7314   62.4088   30.1963 H   0  0  0  0  0  0
  -39.1776   65.7055   29.2804 H   0  0  0  0  0  0
  -40.3391   66.4219   30.3706 H   0  0  0  0  0  0
  -37.0311   60.4293   33.8868 H   0  0  0  0  0  0
  -37.7617   60.4973   35.4419 H   0  0  0  0  0  0
  -38.5644   59.6396   34.1259 H   0  0  0  0  0  0
  -41.8630   60.0338   36.2439 H   0  0  0  0  0  0
  -41.3464   63.7693   36.9455 H   0  0  0  0  0  0
  -41.8917   67.8589   34.2429 H   0  0  0  0  0  0
  -37.8304   69.8711   28.4530 H   0  0  0  0  0  0
  -37.7585   69.9548   30.2157 H   0  0  0  0  0  0
  -36.5526   69.0152   29.3199 H   0  0  0  0  0  0
  -42.6805   62.5535   34.7569 H   0  0  0  0  0  0
  -42.9968   62.2084   36.4277 H   0  0  0  0  0  0
  -40.6632   59.3239   34.2145 H   0  0  0  0  0  0
  -41.1684   60.7477   33.3598 H   0  0  0  0  0  0
  -42.6681   65.5881   37.7658 H   0  0  0  0  0  0
  -42.9580   67.6408   36.4474 H   0  0  0  0  0  0
  -42.6122   58.9153   32.7023 H   0  0  0  0  0  0
  -42.9407   58.4980   34.3708 H   0  0  0  0  0  0
  -44.9695   61.6510   35.0445 H   0  0  0  0  0  0
  -44.3597   60.2226   35.8248 H   0  0  0  0  0  0
  -43.8256   61.0302   32.9142 H   0  0  0  0  0  0
  -44.8042   59.6980   33.4448 H   0  0  0  0  0  0
  1  3  1  0  0  0
  1  4  2  0  0  0
  1  6  1  0  0  0
  2  4  1  0  0  0
  2 12  1  0  0  0
  2  5  1  0  0  0
  3  5  1  0  0  0
  3  7  2  0  0  0
  4 20  1  0  0  0
  5  8  2  0  0  0
  6  9  1  0  0  0
  6 15  2  0  0  0
  7 10  1  0  0  0
  7 13  1  0  0  0
  8 23  1  0  0  0
  8 11  1  0  0  0
  9 16  2  0  0  0
  9 18  1  0  0  0
 10 11  2  0  0  0
 10 33  1  0  0  0
 11 24  1  0  0  0
 12 22  1  0  0  0
 12 34  1  0  0  0
 12 35  1  0  0  0
 13 19  1  0  0  0
 14 19  1  0  0  0
 14 17  2  0  0  0
 14 21  1  0  0  0
 18 36  1  0  0  0
 18 37  1  0  0  0
 19 38  1  0  0  0
 19 39  1  0  0  0
 20 40  1  0  0  0
 20 41  1  0  0  0
 20 42  1  0  0  0
 21 25  1  0  0  0
 22 26  1  0  0  0
 22 27  1  0  0  0
 22 43  1  0  0  0
 23 28  2  0  0  0
 23 44  1  0  0  0
 24 29  2  0  0  0
 24 45  1  0  0  0
 25 46  1  0  0  0
 25 47  1  0  0  0
 25 48  1  0  0  0
 26 31  1  0  0  0
 26 49  1  0  0  0
 26 50  1  0  0  0
 27 30  1  0  0  0
 27 51  1  0  0  0
 27 52  1  0  0  0
 28 29  1  0  0  0
 28 53  1  0  0  0
 29 54  1  0  0  0
 30 32  1  0  0  0
 30 55  1  0  0  0
 30 56  1  0  0  0
 31 32  1  0  0  0
 31 57  1  0  0  0
 31 58  1  0  0  0
 32 59  1  0  0  0
 32 60  1  0  0  0
M  END
> <s_m_entry_id>
68161

> <s_m_entry_name>
dock_pv.97

> <s_m_Source_Path>
/home/csk/Desktop/cluster/DUD-E-result/pa2ga

> <s_m_Source_File>
dock_pv.maegz

> <i_m_Source_File_Index>
97

> <chembl_id>
CHEMBL178260

> <chembl_pref_name>
None

> <i_lp_mmshare_version>
53161

> <i_f3d_flags>
0

> <r_lp_tautomer_probability>
1

> <s_lp_Force_Field>
OPLS_2005

> <r_lp_Energy>
38.704128

> <b_lp_Chiralities_Consistent>
1

> <s_lp_Variant>
CHEMBL3474_lig223-1

> <s_i_glide_gridfile>
glide-grid_1kvo

> <i_i_glide_lignum>
285

> <i_i_glide_rotatable_bonds>
8

> <r_i_docking_score>
-7.94977279088683

> <r_i_glide_ligand_efficiency>
-0.248430399715213

> <r_i_glide_ligand_efficiency_sa>
-0.788717354786458

> <r_i_glide_ligand_efficiency_ln>
-1.78017083050138

> <r_i_glide_gscore>
-7.94977279088683

> <r_i_glide_lipo>
-3.69106958623549

> <r_i_glide_hbond>
-0.518097147728875

> <r_i_glide_metal>
0

> <r_i_glide_rewards>
-0.984351452230181

> <r_i_glide_evdw>
-46.1219596862793

> <r_i_glide_ecoul>
-6.62097644805908

> <r_i_glide_erotb>
0.627715660051756

> <r_i_glide_esite>
-0.0847258132212166

> <r_i_glide_emodel>
-77.5653559408459

> <r_i_glide_energy>
-52.7429361343384

> <r_i_glide_einternal>
10.2840614318848

> <i_i_glide_confnum>
97

> <i_i_glide_posenum>
192

> <r_i_glide_eff_state_penalty>
0

> <s_user_duplicate_titles>
CHEMBL3474_lig223,299402

> <s_m_subgroup_title>
dock_pv

> <s_m_subgroupid>
dock_pv

> <b_m_subgroup_collapsed>
1

$$$$
CHEMBL3474_lig53
                    3D
 Schrodinger Suite 2021-1.
 49 51  0  0  1  0            999 V2000
  -40.1282   62.8513   34.8986 N   0  0  0  0  0  0
  -38.8481   63.0279   33.0402 C   0  0  0  0  0  0
  -39.1825   62.2118   34.1150 C   0  0  0  0  0  0
  -39.6524   64.2220   33.1576 C   0  0  0  0  0  0
  -40.4309   64.0849   34.3442 C   0  0  0  0  0  0
  -38.2629   67.7511   30.7920 C   0  0  0  0  0  0
  -37.8628   62.7116   31.9223 C   0  0  0  0  0  0
  -40.7862   62.2915   36.0868 C   0  0  0  0  0  0
  -39.8020   65.3956   32.3824 C   0  0  0  0  0  0
  -36.6966   63.6979   31.7788 C   0  0  0  0  0  0
  -39.0526   65.4476   31.2197 O   0  0  0  0  0  0
  -37.6150   67.6968   31.8430 O   0  0  0  0  0  0
  -38.2689   68.8293   29.9840 N   0  0  0  0  0  0
  -36.4160   64.5225   32.6426 O   0  0  0  0  0  0
  -39.1289   66.5635   30.3230 C   0  0  0  0  0  0
  -36.0151   63.6476   30.6442 N   0  0  0  0  0  0
  -41.3188   65.0827   34.7713 C   0  0  0  0  0  0
  -38.6681   60.8305   34.4801 C   0  0  0  0  0  0
  -37.6153   70.0131   30.3567 N   0  0  0  0  0  0
  -42.2091   61.8022   35.8460 C   0  0  0  0  0  0
  -41.4173   66.2327   33.9923 C   0  0  0  0  0  0
  -40.6826   66.3911   32.8232 C   0  0  0  0  0  0
  -43.2243   62.1731   36.7325 C   0  0  0  0  0  0
  -42.4984   60.9633   34.7634 C   0  0  0  0  0  0
  -43.7990   60.5109   34.5623 C   0  0  0  0  0  0
  -44.5255   61.7229   36.5301 C   0  0  0  0  0  0
  -44.8059   60.8974   35.4438 C   0  0  0  0  0  0
  -37.4287   61.7184   32.0267 H   0  0  0  0  0  0
  -38.4105   62.6967   30.9823 H   0  0  0  0  0  0
  -40.7807   63.0673   36.8535 H   0  0  0  0  0  0
  -40.2016   61.4626   36.4872 H   0  0  0  0  0  0
  -38.8702   68.9247   29.1774 H   0  0  0  0  0  0
  -38.7514   66.2187   29.3602 H   0  0  0  0  0  0
  -40.1627   66.8699   30.1587 H   0  0  0  0  0  0
  -35.3203   64.3634   30.4490 H   0  0  0  0  0  0
  -36.3797   63.1025   29.8772 H   0  0  0  0  0  0
  -41.9103   64.9737   35.6682 H   0  0  0  0  0  0
  -37.9576   60.4328   33.7591 H   0  0  0  0  0  0
  -38.1583   60.8449   35.4422 H   0  0  0  0  0  0
  -39.4741   60.0998   34.5540 H   0  0  0  0  0  0
  -37.7632   70.1566   31.3453 H   0  0  0  0  0  0
  -36.6186   69.9168   30.1910 H   0  0  0  0  0  0
  -42.0892   67.0198   34.3020 H   0  0  0  0  0  0
  -40.8062   67.3036   32.2616 H   0  0  0  0  0  0
  -43.0097   62.8102   37.5801 H   0  0  0  0  0  0
  -41.7217   60.6616   34.0762 H   0  0  0  0  0  0
  -44.0277   59.8652   33.7260 H   0  0  0  0  0  0
  -45.3117   62.0116   37.2118 H   0  0  0  0  0  0
  -45.8149   60.5446   35.2854 H   0  0  0  0  0  0
  1  3  1  0  0  0
  1  5  1  0  0  0
  1  8  1  0  0  0
  2  3  2  0  0  0
  2  7  1  0  0  0
  2  4  1  0  0  0
  3 18  1  0  0  0
  4  5  1  0  0  0
  4  9  2  0  0  0
  5 17  2  0  0  0
  6 15  1  0  0  0
  6 12  2  0  0  0
  6 13  1  0  0  0
  7 10  1  0  0  0
  7 28  1  0  0  0
  7 29  1  0  0  0
  8 20  1  0  0  0
  8 30  1  0  0  0
  8 31  1  0  0  0
  9 11  1  0  0  0
  9 22  1  0  0  0
 10 14  2  0  0  0
 10 16  1  0  0  0
 11 15  1  0  0  0
 13 19  1  0  0  0
 13 32  1  0  0  0
 15 33  1  0  0  0
 15 34  1  0  0  0
 16 35  1  0  0  0
 16 36  1  0  0  0
 17 21  1  0  0  0
 17 37  1  0  0  0
 18 38  1  0  0  0
 18 39  1  0  0  0
 18 40  1  0  0  0
 19 41  1  0  0  0
 19 42  1  0  0  0
 20 23  1  0  0  0
 20 24  2  0  0  0
 21 22  2  0  0  0
 21 43  1  0  0  0
 22 44  1  0  0  0
 23 26  2  0  0  0
 23 45  1  0  0  0
 24 25  1  0  0  0
 24 46  1  0  0  0
 25 27  2  0  0  0
 25 47  1  0  0  0
 26 27  1  0  0  0
 26 48  1  0  0  0
 27 49  1  0  0  0
M  END
> <s_m_entry_id>
68162

> <s_m_entry_name>
dock_pv.98

> <s_m_Source_Path>
/home/csk/Desktop/cluster/DUD-E-result/pa2ga

> <s_m_Source_File>
dock_pv.maegz

> <i_m_Source_File_Index>
98

> <chembl_id>
CHEMBL356729

> <chembl_pref_name>
None

> <i_lp_mmshare_version>
53161

> <i_f3d_flags>
0

> <r_lp_tautomer_probability>
1

> <s_lp_Force_Field>
OPLS_2005

> <r_lp_Energy>
14.688882

> <b_lp_Chiralities_Consistent>
1

> <s_lp_Variant>
CHEMBL3474_lig53-1

> <s_i_glide_gridfile>
glide-grid_1kvo

> <i_i_glide_lignum>
93

> <i_i_glide_rotatable_bonds>
8

> <r_i_docking_score>
-7.948380027909

> <r_i_glide_ligand_efficiency>
-0.294384445478111

> <r_i_glide_ligand_efficiency_sa>
-0.88315333546409

> <r_i_glide_ligand_efficiency_ln>
-1.85025183121118

> <r_i_glide_gscore>
-7.948380027909

> <r_i_glide_lipo>
-3.0618771877645

> <r_i_glide_hbond>
-0.803572048334015

> <r_i_glide_metal>
0

> <r_i_glide_rewards>
-1.1333912491288

> <r_i_glide_evdw>
-39.9978675842285

> <r_i_glide_ecoul>
-11.190128326416

> <r_i_glide_erotb>
0.86015035962877

> <r_i_glide_esite>
-0.131277274136625

> <r_i_glide_emodel>
-80.5937013915745

> <r_i_glide_energy>
-51.1879959106445

> <r_i_glide_einternal>
2.3894100189209

> <i_i_glide_confnum>
23

> <i_i_glide_posenum>
6

> <r_i_glide_eff_state_penalty>
0

> <s_user_duplicate_titles>
CHEMBL3474_lig53,246343

> <s_m_subgroup_title>
dock_pv

> <s_m_subgroupid>
dock_pv

> <b_m_subgroup_collapsed>
1

$$$$
CHEMBL3474_lig214
                    3D
 Schrodinger Suite 2021-1.
 55 58  0  0  1  0            999 V2000
  -38.7158   62.8419   33.1870 C   0  0  0  0  0  0
  -40.0881   62.6781   34.9754 N   0  0  0  0  0  0
  -39.4659   64.0813   33.3033 C   0  0  0  0  0  0
  -39.2554   61.9642   34.1279 C   0  0  0  0  0  0
  -40.2422   63.9762   34.5022 C   0  0  0  0  0  0
  -37.5910   62.5293   32.2795 C   0  0  0  0  0  0
  -39.5793   65.2716   32.5407 C   0  0  0  0  0  0
  -40.9739   65.0680   35.0085 C   0  0  0  0  0  0
  -36.6185   63.6978   31.8153 C   0  0  0  0  0  0
  -40.9742   66.2492   34.2679 C   0  0  0  0  0  0
  -40.2989   66.3516   33.0607 C   0  0  0  0  0  0
  -40.7449   62.1287   36.1720 C   0  0  0  0  0  0
  -38.9825   65.2558   31.2949 O   0  0  0  0  0  0
  -38.3046   67.4789   30.4420 C   0  0  0  0  0  0
  -37.2696   61.3736   31.9905 O   0  0  0  0  0  0
  -36.4154   64.7094   32.4848 O   0  0  0  0  0  0
  -37.6133   67.6967   31.4427 O   0  0  0  0  0  0
  -36.0150   63.4573   30.6558 N   0  0  0  0  0  0
  -39.2548   66.2775   30.3307 C   0  0  0  0  0  0
  -38.9734   60.4903   34.3917 C   0  0  0  0  0  0
  -42.2039   61.7085   36.0160 C   0  0  0  0  0  0
  -44.8603   60.8973   35.8438 C   0  0  0  0  0  0
  -38.3264   68.2318   29.3245 O   0  0  0  0  0  0
  -46.1499   60.4990   35.7746 F   0  0  0  0  0  0
  -42.6861   61.1443   34.8288 C   0  0  0  0  0  0
  -43.0597   61.8582   37.1107 C   0  0  0  0  0  0
  -41.7483   65.2487   36.2983 C   0  0  0  0  0  0
  -44.3868   61.4557   37.0248 C   0  0  0  0  0  0
  -44.0165   60.7393   34.7450 C   0  0  0  0  0  0
  -41.7153   67.3352   35.0171 C   0  0  0  0  0  0
  -42.4517   66.5921   36.1292 C   0  0  0  0  0  0
  -37.4608   69.3499   29.1859 C   0  0  0  0  0  0
  -40.3416   67.2838   32.5202 H   0  0  0  0  0  0
  -40.6605   62.8801   36.9568 H   0  0  0  0  0  0
  -40.1776   61.2776   36.5489 H   0  0  0  0  0  0
  -35.4405   64.1888   30.2434 H   0  0  0  0  0  0
  -36.2517   62.6325   30.1240 H   0  0  0  0  0  0
  -39.1591   65.8401   29.3360 H   0  0  0  0  0  0
  -40.2872   66.6164   30.4155 H   0  0  0  0  0  0
  -38.5651   59.9651   33.5307 H   0  0  0  0  0  0
  -38.2627   60.3693   35.2069 H   0  0  0  0  0  0
  -39.8723   59.9362   34.6613 H   0  0  0  0  0  0
  -42.0384   61.0119   33.9743 H   0  0  0  0  0  0
  -42.6974   62.2806   38.0373 H   0  0  0  0  0  0
  -42.4823   64.4649   36.4760 H   0  0  0  0  0  0
  -41.0763   65.2725   37.1573 H   0  0  0  0  0  0
  -45.0471   61.5676   37.8722 H   0  0  0  0  0  0
  -44.4008   60.3011   33.8349 H   0  0  0  0  0  0
  -41.0121   68.0501   35.4459 H   0  0  0  0  0  0
  -42.4146   67.8930   34.3980 H   0  0  0  0  0  0
  -42.4892   67.1621   37.0585 H   0  0  0  0  0  0
  -43.4862   66.4206   35.8260 H   0  0  0  0  0  0
  -37.6642   69.8598   28.2432 H   0  0  0  0  0  0
  -37.6022   70.0677   29.9965 H   0  0  0  0  0  0
  -36.4155   69.0349   29.1806 H   0  0  0  0  0  0
  1  3  1  0  0  0
  1  4  2  0  0  0
  1  6  1  0  0  0
  2  4  1  0  0  0
  2 12  1  0  0  0
  2  5  1  0  0  0
  3  5  1  0  0  0
  3  7  2  0  0  0
  4 20  1  0  0  0
  5  8  2  0  0  0
  6  9  1  0  0  0
  6 15  2  0  0  0
  7 11  1  0  0  0
  7 13  1  0  0  0
  8 27  1  0  0  0
  8 10  1  0  0  0
  9 16  2  0  0  0
  9 18  1  0  0  0
 10 11  2  0  0  0
 10 30  1  0  0  0
 11 33  1  0  0  0
 12 21  1  0  0  0
 12 34  1  0  0  0
 12 35  1  0  0  0
 13 19  1  0  0  0
 14 19  1  0  0  0
 14 17  2  0  0  0
 14 23  1  0  0  0
 18 36  1  0  0  0
 18 37  1  0  0  0
 19 38  1  0  0  0
 19 39  1  0  0  0
 20 40  1  0  0  0
 20 41  1  0  0  0
 20 42  1  0  0  0
 21 25  1  0  0  0
 21 26  2  0  0  0
 22 28  2  0  0  0
 22 24  1  0  0  0
 22 29  1  0  0  0
 23 32  1  0  0  0
 25 29  2  0  0  0
 25 43  1  0  0  0
 26 28  1  0  0  0
 26 44  1  0  0  0
 27 31  1  0  0  0
 27 45  1  0  0  0
 27 46  1  0  0  0
 28 47  1  0  0  0
 29 48  1  0  0  0
 30 31  1  0  0  0
 30 49  1  0  0  0
 30 50  1  0  0  0
 31 51  1  0  0  0
 31 52  1  0  0  0
 32 53  1  0  0  0
 32 54  1  0  0  0
 32 55  1  0  0  0
M  END
> <s_m_entry_id>
68163

> <s_m_entry_name>
dock_pv.99

> <s_m_Source_Path>
/home/csk/Desktop/cluster/DUD-E-result/pa2ga

> <s_m_Source_File>
dock_pv.maegz

> <i_m_Source_File_Index>
99

> <chembl_id>
CHEMBL178140

> <chembl_pref_name>
None

> <i_lp_mmshare_version>
53161

> <i_f3d_flags>
0

> <r_lp_tautomer_probability>
1

> <s_lp_Force_Field>
OPLS_2005

> <r_lp_Energy>
53.974124

> <b_lp_Chiralities_Consistent>
1

> <s_lp_Variant>
CHEMBL3474_lig214-1

> <s_i_glide_gridfile>
glide-grid_1kvo

> <i_i_glide_lignum>
276

> <i_i_glide_rotatable_bonds>
8

> <r_i_docking_score>
-7.9446287416029

> <r_i_glide_ligand_efficiency>
-0.248269648175091

> <r_i_glide_ligand_efficiency_sa>
-0.788207000459255

> <r_i_glide_ligand_efficiency_ln>
-1.77901893764522

> <r_i_glide_gscore>
-7.9446287416029

> <r_i_glide_lipo>
-3.48406750614467

> <r_i_glide_hbond>
-0.427699157993332

> <r_i_glide_metal>
0

> <r_i_glide_rewards>
-1.06279383655815

> <r_i_glide_evdw>
-48.4569854736328

> <r_i_glide_ecoul>
-7.22413539886475

> <r_i_glide_erotb>
0.622665885695575

> <r_i_glide_esite>
-0.0862645430909666

> <r_i_glide_emodel>
-83.1757688863153

> <r_i_glide_energy>
-55.6811208724976

> <r_i_glide_einternal>
7.92052936553955

> <i_i_glide_confnum>
17

> <i_i_glide_posenum>
233

> <r_i_glide_eff_state_penalty>
0

> <s_user_duplicate_titles>
CHEMBL3474_lig214,299201

> <s_m_subgroup_title>
dock_pv

> <s_m_subgroupid>
dock_pv

> <b_m_subgroup_collapsed>
1

$$$$
CHEMBL3474_lig120
                    3D
 Schrodinger Suite 2021-1.
 49 51  0  0  1  0            999 V2000
  -38.5812   62.8662   33.0755 C   0  0  0  0  0  0
  -39.9720   62.6653   34.8479 N   0  0  0  0  0  0
  -38.9809   62.0288   34.1185 C   0  0  0  0  0  0
  -39.4477   64.0360   33.1011 C   0  0  0  0  0  0
  -40.2570   63.8934   34.2737 C   0  0  0  0  0  0
  -37.4836   62.5416   32.1486 C   0  0  0  0  0  0
  -36.4625   63.6819   31.7196 C   0  0  0  0  0  0
  -40.6813   62.1350   36.0239 C   0  0  0  0  0  0
  -39.6733   65.1716   32.2718 C   0  0  0  0  0  0
  -39.0446   65.2818   31.0162 N   0  0  0  0  0  0
  -38.3596   67.6337   30.4787 C   0  0  0  0  0  0
  -37.2146   61.3766   31.8385 O   0  0  0  0  0  0
  -36.4153   64.7921   32.2445 O   0  0  0  0  0  0
  -37.5944   67.7010   31.4430 O   0  0  0  0  0  0
  -39.2062   66.4081   30.0936 C   0  0  0  0  0  0
  -35.6385   63.2981   30.7518 N   0  0  0  0  0  0
  -38.4425   60.6550   34.5108 C   0  0  0  0  0  0
  -41.1737   64.8723   34.6799 C   0  0  0  0  0  0
  -42.1270   61.7044   35.7895 C   0  0  0  0  0  0
  -38.5557   68.6457   29.5909 O   0  0  0  0  0  0
  -41.2957   66.0048   33.8867 C   0  0  0  0  0  0
  -40.5787   66.1465   32.7086 C   0  0  0  0  0  0
  -42.5415   61.1731   34.5623 C   0  0  0  0  0  0
  -43.0401   61.8166   36.8423 C   0  0  0  0  0  0
  -39.2169   59.5151   33.8395 C   0  0  0  0  0  0
  -44.3612   61.4161   36.6692 C   0  0  0  0  0  0
  -43.8620   60.7694   34.3904 C   0  0  0  0  0  0
  -44.7660   60.8980   35.4428 C   0  0  0  0  0  0
  -40.6631   62.9236   36.7783 H   0  0  0  0  0  0
  -40.1455   61.2968   36.4619 H   0  0  0  0  0  0
  -38.4543   64.5223   30.7025 H   0  0  0  0  0  0
  -38.8903   66.0792   29.1024 H   0  0  0  0  0  0
  -40.2552   66.6885   30.0050 H   0  0  0  0  0  0
  -35.0018   63.9766   30.3459 H   0  0  0  0  0  0
  -35.7363   62.3773   30.3493 H   0  0  0  0  0  0
  -37.3940   60.5698   34.2264 H   0  0  0  0  0  0
  -38.4152   60.5013   35.5849 H   0  0  0  0  0  0
  -41.7753   64.7585   35.5700 H   0  0  0  0  0  0
  -38.0035   69.4009   29.8042 H   0  0  0  0  0  0
  -41.9928   66.7776   34.1773 H   0  0  0  0  0  0
  -40.7595   67.0328   32.1212 H   0  0  0  0  0  0
  -41.8492   61.0716   33.7392 H   0  0  0  0  0  0
  -42.7298   62.2140   37.7983 H   0  0  0  0  0  0
  -38.6859   58.5706   33.9493 H   0  0  0  0  0  0
  -40.2114   59.3958   34.2695 H   0  0  0  0  0  0
  -39.3345   59.6943   32.7696 H   0  0  0  0  0  0
  -45.0674   61.5052   37.4821 H   0  0  0  0  0  0
  -44.1871   60.3597   33.4448 H   0  0  0  0  0  0
  -45.7909   60.5846   35.3041 H   0  0  0  0  0  0
  1  3  2  0  0  0
  1  4  1  0  0  0
  1  6  1  0  0  0
  2  3  1  0  0  0
  2  8  1  0  0  0
  2  5  1  0  0  0
  3 17  1  0  0  0
  4  5  1  0  0  0
  4  9  2  0  0  0
  5 18  2  0  0  0
  6  7  1  0  0  0
  6 12  2  0  0  0
  7 13  2  0  0  0
  7 16  1  0  0  0
  8 19  1  0  0  0
  8 29  1  0  0  0
  8 30  1  0  0  0
  9 10  1  0  0  0
  9 22  1  0  0  0
 10 15  1  0  0  0
 10 31  1  0  0  0
 11 15  1  0  0  0
 11 14  2  0  0  0
 11 20  1  0  0  0
 15 32  1  0  0  0
 15 33  1  0  0  0
 16 34  1  0  0  0
 16 35  1  0  0  0
 17 25  1  0  0  0
 17 36  1  0  0  0
 17 37  1  0  0  0
 18 21  1  0  0  0
 18 38  1  0  0  0
 19 23  2  0  0  0
 19 24  1  0  0  0
 20 39  1  0  0  0
 21 22  2  0  0  0
 21 40  1  0  0  0
 22 41  1  0  0  0
 23 27  1  0  0  0
 23 42  1  0  0  0
 24 26  2  0  0  0
 24 43  1  0  0  0
 25 44  1  0  0  0
 25 45  1  0  0  0
 25 46  1  0  0  0
 26 28  1  0  0  0
 26 47  1  0  0  0
 27 28  2  0  0  0
 27 48  1  0  0  0
 28 49  1  0  0  0
M  END
> <s_m_entry_id>
68164

> <s_m_entry_name>
dock_pv.100

> <s_m_Source_Path>
/home/csk/Desktop/cluster/DUD-E-result/pa2ga

> <s_m_Source_File>
dock_pv.maegz

> <i_m_Source_File_Index>
100

> <chembl_id>
CHEMBL445135

> <chembl_pref_name>
None

> <i_lp_mmshare_version>
53161

> <i_f3d_flags>
0

> <r_lp_tautomer_probability>
1

> <s_lp_Force_Field>
OPLS_2005

> <r_lp_Energy>
21.365707

> <b_lp_Chiralities_Consistent>
1

> <s_lp_Variant>
CHEMBL3474_lig120-1

> <s_i_glide_gridfile>
glide-grid_1kvo

> <i_i_glide_lignum>
179

> <i_i_glide_rotatable_bonds>
9

> <r_i_docking_score>
-7.93491202041413

> <r_i_glide_ligand_efficiency>
-0.28338971501479

> <r_i_glide_ligand_efficiency_sa>
-0.86053808240107

> <r_i_glide_ligand_efficiency_ln>
-1.83161067345208

> <r_i_glide_gscore>
-7.93491202041413

> <r_i_glide_lipo>
-3.38006934924959

> <r_i_glide_hbond>
-0.462536441976033

> <r_i_glide_metal>
0

> <r_i_glide_rewards>
-1.27671418857479

> <r_i_glide_evdw>
-48.3999938964844

> <r_i_glide_ecoul>
-7.26634073257446

> <r_i_glide_erotb>
0.808170951309717

> <r_i_glide_esite>
-0.113812187213049

> <r_i_glide_emodel>
-82.7028495801678

> <r_i_glide_energy>
-55.6663346290588

> <r_i_glide_einternal>
9.78057384490967

> <i_i_glide_confnum>
88

> <i_i_glide_posenum>
131

> <r_i_glide_eff_state_penalty>
0

> <s_user_duplicate_titles>
CHEMBL3474_lig120

> <s_m_subgroup_title>
dock_pv

> <s_m_subgroupid>
dock_pv

> <b_m_subgroup_collapsed>
1

$$$$
CHEMBL3474_lig127
                    3D
 Schrodinger Suite 2021-1.
 48 50  0  0  1  0            999 V2000
  -38.5463   62.6885   33.0312 C   0  0  0  0  0  0
  -39.9686   62.3826   34.7598 N   0  0  0  0  0  0
  -38.9664   61.7893   34.0108 C   0  0  0  0  0  0
  -39.4224   63.8433   33.1004 C   0  0  0  0  0  0
  -40.2561   63.6384   34.2440 C   0  0  0  0  0  0
  -37.4255   62.4399   32.1132 C   0  0  0  0  0  0
  -40.6636   61.7849   35.9088 C   0  0  0  0  0  0
  -36.4782   63.6311   31.6742 C   0  0  0  0  0  0
  -39.6385   65.0109   32.3226 C   0  0  0  0  0  0
  -42.1423   61.4321   35.7013 C   0  0  0  0  0  0
  -38.4149   67.4210   30.5161 C   0  0  0  0  0  0
  -37.0877   61.2979   31.7922 O   0  0  0  0  0  0
  -38.9401   65.0910   31.1317 O   0  0  0  0  0  0
  -36.4165   64.7111   32.2602 O   0  0  0  0  0  0
  -37.6152   67.5453   31.4439 O   0  0  0  0  0  0
  -42.6433   60.6939   34.6036 C   0  0  0  0  0  0
  -35.7061   63.3015   30.6448 N   0  0  0  0  0  0
  -39.1904   66.1338   30.1818 C   0  0  0  0  0  0
  -38.4314   60.4062   34.3592 C   0  0  0  0  0  0
  -41.1885   64.5948   34.6717 C   0  0  0  0  0  0
  -38.7114   68.4149   29.6334 O   0  0  0  0  0  0
  -41.3065   65.7599   33.9209 C   0  0  0  0  0  0
  -40.5647   65.9627   32.7657 C   0  0  0  0  0  0
  -43.0394   61.8666   36.6871 C   0  0  0  0  0  0
  -41.7707   60.0936   33.5103 C   0  0  0  0  0  0
  -44.0150   60.4609   34.5069 C   0  0  0  0  0  0
  -44.4022   61.5987   36.5902 C   0  0  0  0  0  0
  -44.8905   60.8983   35.4940 C   0  0  0  0  0  0
  -40.5809   62.5216   36.7091 H   0  0  0  0  0  0
  -40.1302   60.9126   36.2815 H   0  0  0  0  0  0
  -35.0919   64.0017   30.2428 H   0  0  0  0  0  0
  -35.8199   62.3972   30.2113 H   0  0  0  0  0  0
  -38.8395   65.7677   29.2168 H   0  0  0  0  0  0
  -40.2571   66.3296   30.0677 H   0  0  0  0  0  0
  -38.0755   59.8549   33.4913 H   0  0  0  0  0  0
  -37.5960   60.4991   35.0421 H   0  0  0  0  0  0
  -39.1470   59.7372   34.8288 H   0  0  0  0  0  0
  -41.8081   64.4375   35.5424 H   0  0  0  0  0  0
  -38.1945   69.2013   29.8195 H   0  0  0  0  0  0
  -42.0188   66.5128   34.2272 H   0  0  0  0  0  0
  -40.7339   66.8704   32.2081 H   0  0  0  0  0  0
  -42.6842   62.4167   37.5460 H   0  0  0  0  0  0
  -41.0803   59.3639   33.9294 H   0  0  0  0  0  0
  -42.3582   59.5669   32.7572 H   0  0  0  0  0  0
  -41.2110   60.8634   32.9871 H   0  0  0  0  0  0
  -44.4128   59.9099   33.6670 H   0  0  0  0  0  0
  -45.0784   61.9382   37.3609 H   0  0  0  0  0  0
  -45.9471   60.6916   35.4070 H   0  0  0  0  0  0
  1  3  2  0  0  0
  1  4  1  0  0  0
  1  6  1  0  0  0
  2  3  1  0  0  0
  2  7  1  0  0  0
  2  5  1  0  0  0
  3 19  1  0  0  0
  4  5  1  0  0  0
  4  9  2  0  0  0
  5 20  2  0  0  0
  6  8  1  0  0  0
  6 12  2  0  0  0
  7 10  1  0  0  0
  7 29  1  0  0  0
  7 30  1  0  0  0
  8 14  2  0  0  0
  8 17  1  0  0  0
  9 13  1  0  0  0
  9 23  1  0  0  0
 10 16  2  0  0  0
 10 24  1  0  0  0
 11 18  1  0  0  0
 11 15  2  0  0  0
 11 21  1  0  0  0
 13 18  1  0  0  0
 16 25  1  0  0  0
 16 26  1  0  0  0
 17 31  1  0  0  0
 17 32  1  0  0  0
 18 33  1  0  0  0
 18 34  1  0  0  0
 19 35  1  0  0  0
 19 36  1  0  0  0
 19 37  1  0  0  0
 20 22  1  0  0  0
 20 38  1  0  0  0
 21 39  1  0  0  0
 22 23  2  0  0  0
 22 40  1  0  0  0
 23 41  1  0  0  0
 24 27  2  0  0  0
 24 42  1  0  0  0
 25 43  1  0  0  0
 25 44  1  0  0  0
 25 45  1  0  0  0
 26 28  2  0  0  0
 26 46  1  0  0  0
 27 28  1  0  0  0
 27 47  1  0  0  0
 28 48  1  0  0  0
M  END
> <s_m_entry_id>
68165

> <s_m_entry_name>
dock_pv.101

> <s_m_Source_Path>
/home/csk/Desktop/cluster/DUD-E-result/pa2ga

> <s_m_Source_File>
dock_pv.maegz

> <i_m_Source_File_Index>
101

> <chembl_id>
CHEMBL423219

> <chembl_pref_name>
None

> <i_lp_mmshare_version>
53161

> <i_f3d_flags>
0

> <r_lp_tautomer_probability>
1

> <s_lp_Force_Field>
OPLS_2005

> <r_lp_Energy>
25.031103

> <b_lp_Chiralities_Consistent>
1

> <s_lp_Variant>
CHEMBL3474_lig127-1

> <s_i_glide_gridfile>
glide-grid_1kvo

> <i_i_glide_lignum>
187

> <i_i_glide_rotatable_bonds>
8

> <r_i_docking_score>
-7.92841921301985

> <r_i_glide_ligand_efficiency>
-0.283157829036423

> <r_i_glide_ligand_efficiency_sa>
-0.859833939997209

> <r_i_glide_ligand_efficiency_ln>
-1.83011194286837

> <r_i_glide_gscore>
-7.92841921301985

> <r_i_glide_lipo>
-3.41159287264621

> <r_i_glide_hbond>
-0.479599099618404

> <r_i_glide_metal>
0

> <r_i_glide_rewards>
-1.32599266584162

> <r_i_glide_evdw>
-47.9030265808105

> <r_i_glide_ecoul>
-6.99044895172119

> <r_i_glide_erotb>
0.804426384495576

> <r_i_glide_esite>
-0.071942287610474

> <r_i_glide_emodel>
-81.2140416632821

> <r_i_glide_energy>
-54.8934755325317

> <r_i_glide_einternal>
9.09353733062744

> <i_i_glide_confnum>
125

> <i_i_glide_posenum>
178

> <r_i_glide_eff_state_penalty>
0

> <s_user_duplicate_titles>
CHEMBL3474_lig127,248565

> <s_m_subgroup_title>
dock_pv

> <s_m_subgroupid>
dock_pv

> <b_m_subgroup_collapsed>
1

$$$$
CHEMBL3474_lig70
                    3D
 Schrodinger Suite 2021-1.
 47 49  0  0  1  0            999 V2000
  -40.1794   62.8056   34.9532 N   0  0  0  0  0  0
  -38.9538   63.0627   33.0659 C   0  0  0  0  0  0
  -39.8225   64.2069   33.2044 C   0  0  0  0  0  0
  -39.2009   62.2334   34.1545 C   0  0  0  0  0  0
  -40.5543   64.0253   34.4160 C   0  0  0  0  0  0
  -40.0638   65.3670   32.4284 C   0  0  0  0  0  0
  -39.4179   65.5295   31.1855 N   0  0  0  0  0  0
  -39.0418   66.6813   30.5969 C   0  0  0  0  0  0
  -37.9918   62.7876   31.9173 C   0  0  0  0  0  0
  -40.8077   62.2123   36.1449 C   0  0  0  0  0  0
  -36.7583   63.6968   31.8429 C   0  0  0  0  0  0
  -39.2194   67.8174   31.0345 O   0  0  0  0  0  0
  -36.6765   64.7630   32.4469 O   0  0  0  0  0  0
  -35.7816   63.2980   31.0430 N   0  0  0  0  0  0
  -38.4143   66.4262   29.4156 O   0  0  0  0  0  0
  -41.4812   64.9685   34.8771 C   0  0  0  0  0  0
  -38.5569   60.8961   34.4901 C   0  0  0  0  0  0
  -42.2519   61.7532   35.9565 C   0  0  0  0  0  0
  -40.9925   66.3006   32.9066 C   0  0  0  0  0  0
  -41.6706   66.1075   34.1033 C   0  0  0  0  0  0
  -42.6990   61.2456   34.7308 C   0  0  0  0  0  0
  -43.1293   61.8174   37.0426 C   0  0  0  0  0  0
  -39.3488   59.6984   33.9512 C   0  0  0  0  0  0
  -44.0152   60.8179   34.5935 C   0  0  0  0  0  0
  -44.4467   61.3913   36.9047 C   0  0  0  0  0  0
  -44.8837   60.8977   35.6787 C   0  0  0  0  0  0
  -39.1282   64.6720   30.7421 H   0  0  0  0  0  0
  -37.6500   61.7522   31.9378 H   0  0  0  0  0  0
  -38.5201   62.8977   30.9741 H   0  0  0  0  0  0
  -40.7685   62.9684   36.9310 H   0  0  0  0  0  0
  -40.2322   61.3639   36.5085 H   0  0  0  0  0  0
  -35.0149   63.9301   30.8534 H   0  0  0  0  0  0
  -35.8810   62.4528   30.5018 H   0  0  0  0  0  0
  -38.2734   65.4970   29.2169 H   0  0  0  0  0  0
  -42.0381   64.8236   35.7918 H   0  0  0  0  0  0
  -37.5472   60.8555   34.0807 H   0  0  0  0  0  0
  -38.4143   60.7798   35.5612 H   0  0  0  0  0  0
  -41.2148   67.1904   32.3383 H   0  0  0  0  0  0
  -42.3821   66.8514   34.4302 H   0  0  0  0  0  0
  -42.0357   61.1817   33.8809 H   0  0  0  0  0  0
  -42.7945   62.1956   37.9979 H   0  0  0  0  0  0
  -38.8153   58.7702   34.1492 H   0  0  0  0  0  0
  -40.3276   59.6173   34.4215 H   0  0  0  0  0  0
  -39.4996   59.7692   32.8735 H   0  0  0  0  0  0
  -44.3657   60.4274   33.6487 H   0  0  0  0  0  0
  -45.1251   61.4414   37.7438 H   0  0  0  0  0  0
  -45.9057   60.5653   35.5667 H   0  0  0  0  0  0
  1  4  1  0  0  0
  1  5  1  0  0  0
  1 10  1  0  0  0
  2  4  2  0  0  0
  2  9  1  0  0  0
  2  3  1  0  0  0
  3  5  1  0  0  0
  3  6  2  0  0  0
  4 17  1  0  0  0
  5 16  2  0  0  0
  6  7  1  0  0  0
  6 19  1  0  0  0
  7  8  1  0  0  0
  7 27  1  0  0  0
  8 12  2  0  0  0
  8 15  1  0  0  0
  9 11  1  0  0  0
  9 28  1  0  0  0
  9 29  1  0  0  0
 10 18  1  0  0  0
 10 30  1  0  0  0
 10 31  1  0  0  0
 11 13  2  0  0  0
 11 14  1  0  0  0
 14 32  1  0  0  0
 14 33  1  0  0  0
 15 34  1  0  0  0
 16 20  1  0  0  0
 16 35  1  0  0  0
 17 23  1  0  0  0
 17 36  1  0  0  0
 17 37  1  0  0  0
 18 21  1  0  0  0
 18 22  2  0  0  0
 19 20  2  0  0  0
 19 38  1  0  0  0
 20 39  1  0  0  0
 21 24  2  0  0  0
 21 40  1  0  0  0
 22 25  1  0  0  0
 22 41  1  0  0  0
 23 42  1  0  0  0
 23 43  1  0  0  0
 23 44  1  0  0  0
 24 26  1  0  0  0
 24 45  1  0  0  0
 25 26  2  0  0  0
 25 46  1  0  0  0
 26 47  1  0  0  0
M  END
> <s_m_entry_id>
68166

> <s_m_entry_name>
dock_pv.102

> <s_m_Source_Path>
/home/csk/Desktop/cluster/DUD-E-result/pa2ga

> <s_m_Source_File>
dock_pv.maegz

> <i_m_Source_File_Index>
102

> <chembl_id>
CHEMBL414625

> <chembl_pref_name>
None

> <i_lp_mmshare_version>
53161

> <i_f3d_flags>
0

> <r_lp_tautomer_probability>
1

> <s_lp_Force_Field>
OPLS_2005

> <r_lp_Energy>
15.398655

> <b_lp_Chiralities_Consistent>
1

> <s_lp_Variant>
CHEMBL3474_lig70-1

> <s_i_glide_gridfile>
glide-grid_1kvo

> <i_i_glide_lignum>
110

> <i_i_glide_rotatable_bonds>
8

> <r_i_docking_score>
-7.91751947868074

> <r_i_glide_ligand_efficiency>
-0.304519979949259

> <r_i_glide_ligand_efficiency_sa>
-0.902139242371419

> <r_i_glide_ligand_efficiency_ln>
-1.85940347006778

> <r_i_glide_gscore>
-7.91751947868074

> <r_i_glide_lipo>
-3.49999159686406

> <r_i_glide_hbond>
-0.320065571419197

> <r_i_glide_metal>
0

> <r_i_glide_rewards>
-1.24936247265074

> <r_i_glide_evdw>
-44.8140907287598

> <r_i_glide_ecoul>
-8.81008148193359

> <r_i_glide_erotb>
0.772280176000551

> <r_i_glide_esite>
-0.0581632550192576

> <r_i_glide_emodel>
-82.470696184517

> <r_i_glide_energy>
-53.6241722106934

> <r_i_glide_einternal>
2.19086050987244

> <i_i_glide_confnum>
40

> <i_i_glide_posenum>
364

> <r_i_glide_eff_state_penalty>
0

> <s_user_duplicate_titles>
CHEMBL3474_lig70,247124

> <s_m_subgroup_title>
dock_pv

> <s_m_subgroupid>
dock_pv

> <b_m_subgroup_collapsed>
1

$$$$
CHEMBL3474_lig47
                    3D
 Schrodinger Suite 2021-1.
 56 59  0  0  1  0            999 V2000
  -40.9140   65.1603   34.0772 N   0  0  0  0  0  0
  -39.4162   64.8482   32.4054 C   0  0  0  0  0  0
  -40.2012   64.2153   33.3555 C   0  0  0  0  0  0
  -39.6381   66.2581   32.5729 C   0  0  0  0  0  0
  -40.5306   66.4279   33.6706 C   0  0  0  0  0  0
  -41.9592   64.8783   35.0695 C   0  0  0  0  0  0
  -41.5075   64.6641   36.5184 C   0  0  0  0  0  0
  -38.5334   64.1852   31.3560 C   0  0  0  0  0  0
  -41.7517   63.4545   37.2088 C   0  0  0  0  0  0
  -39.1932   67.4039   31.8905 C   0  0  0  0  0  0
  -37.0895   63.9663   31.8151 C   0  0  0  0  0  0
  -37.4583   69.0929   29.5935 C   0  0  0  0  0  0
  -38.3672   67.1791   30.8135 O   0  0  0  0  0  0
  -36.8154   69.2980   30.7812 O   0  0  0  0  0  0
  -36.4149   64.8979   32.2430 O   0  0  0  0  0  0
  -37.2155   69.7143   28.5651 O   0  0  0  0  0  0
  -42.3139   62.2546   36.5371 C   0  0  0  0  0  0
  -38.5278   67.9993   29.6545 C   0  0  0  0  0  0
  -36.5847   62.7380   31.7145 N   0  0  0  0  0  0
  -40.9132   67.6986   34.1280 C   0  0  0  0  0  0
  -40.3428   62.7337   33.6181 C   0  0  0  0  0  0
  -40.8994   65.7296   37.1948 C   0  0  0  0  0  0
  -40.4149   68.8049   33.4429 C   0  0  0  0  0  0
  -41.4055   63.3643   38.5624 C   0  0  0  0  0  0
  -39.5912   68.6673   32.3335 C   0  0  0  0  0  0
  -41.4766   61.1754   36.2432 C   0  0  0  0  0  0
  -43.6610   62.2012   36.1617 C   0  0  0  0  0  0
  -40.5506   65.6167   38.5384 C   0  0  0  0  0  0
  -40.8148   64.4368   39.2266 C   0  0  0  0  0  0
  -44.1452   61.1109   35.4423 C   0  0  0  0  0  0
  -41.9513   60.0979   35.5052 C   0  0  0  0  0  0
  -43.2814   60.0738   35.0981 C   0  0  0  0  0  0
  -42.6581   65.7155   35.0682 H   0  0  0  0  0  0
  -42.5561   64.0551   34.6871 H   0  0  0  0  0  0
  -38.9630   63.2368   31.0428 H   0  0  0  0  0  0
  -38.4945   64.7721   30.4389 H   0  0  0  0  0  0
  -39.5186   68.4511   29.5914 H   0  0  0  0  0  0
  -38.4145   67.3570   28.7811 H   0  0  0  0  0  0
  -35.6292   62.5705   31.9854 H   0  0  0  0  0  0
  -37.1201   62.0055   31.2748 H   0  0  0  0  0  0
  -41.5865   67.8319   34.9623 H   0  0  0  0  0  0
  -39.8277   62.1259   32.8755 H   0  0  0  0  0  0
  -39.8982   62.4797   34.5774 H   0  0  0  0  0  0
  -41.3816   62.4041   33.6174 H   0  0  0  0  0  0
  -40.7033   66.6605   36.6872 H   0  0  0  0  0  0
  -40.6900   69.7953   33.7777 H   0  0  0  0  0  0
  -41.5857   62.4474   39.1065 H   0  0  0  0  0  0
  -39.2386   69.5563   31.8312 H   0  0  0  0  0  0
  -40.4398   61.1908   36.5469 H   0  0  0  0  0  0
  -44.3237   63.0201   36.4021 H   0  0  0  0  0  0
  -40.0848   66.4447   39.0522 H   0  0  0  0  0  0
  -40.5479   64.3477   40.2701 H   0  0  0  0  0  0
  -45.1805   61.0765   35.1348 H   0  0  0  0  0  0
  -41.2790   59.2979   35.2412 H   0  0  0  0  0  0
  -43.6467   59.2381   34.5185 H   0  0  0  0  0  0
  -36.1236   69.9670   30.6430 H   0  0  0  0  0  0
  1  3  1  0  0  0
  1  5  1  0  0  0
  1  6  1  0  0  0
  2  3  2  0  0  0
  2  8  1  0  0  0
  2  4  1  0  0  0
  3 21  1  0  0  0
  4  5  1  0  0  0
  4 10  2  0  0  0
  5 20  2  0  0  0
  6  7  1  0  0  0
  6 33  1  0  0  0
  6 34  1  0  0  0
  7  9  1  0  0  0
  7 22  2  0  0  0
  8 11  1  0  0  0
  8 35  1  0  0  0
  8 36  1  0  0  0
  9 17  1  0  0  0
  9 24  2  0  0  0
 10 13  1  0  0  0
 10 25  1  0  0  0
 11 15  2  0  0  0
 11 19  1  0  0  0
 12 18  1  0  0  0
 12 14  1  0  0  0
 12 16  2  0  0  0
 13 18  1  0  0  0
 14 56  1  0  0  0
 17 26  1  0  0  0
 17 27  2  0  0  0
 18 37  1  0  0  0
 18 38  1  0  0  0
 19 39  1  0  0  0
 19 40  1  0  0  0
 20 23  1  0  0  0
 20 41  1  0  0  0
 21 42  1  0  0  0
 21 43  1  0  0  0
 21 44  1  0  0  0
 22 28  1  0  0  0
 22 45  1  0  0  0
 23 25  2  0  0  0
 23 46  1  0  0  0
 24 29  1  0  0  0
 24 47  1  0  0  0
 25 48  1  0  0  0
 26 31  2  0  0  0
 26 49  1  0  0  0
 27 30  1  0  0  0
 27 50  1  0  0  0
 28 29  2  0  0  0
 28 51  1  0  0  0
 29 52  1  0  0  0
 30 32  2  0  0  0
 30 53  1  0  0  0
 31 32  1  0  0  0
 31 54  1  0  0  0
 32 55  1  0  0  0
M  END
> <s_m_entry_id>
68167

> <s_m_entry_name>
dock_pv.103

> <s_m_Source_Path>
/home/csk/Desktop/cluster/DUD-E-result/pa2ga

> <s_m_Source_File>
dock_pv.maegz

> <i_m_Source_File_Index>
103

> <chembl_id>
CHEMBL423762

> <chembl_pref_name>
None

> <i_lp_mmshare_version>
53161

> <i_f3d_flags>
0

> <r_lp_tautomer_probability>
1

> <s_lp_Force_Field>
OPLS_2005

> <r_lp_Energy>
23.878791

> <b_lp_Chiralities_Consistent>
1

> <s_lp_Variant>
CHEMBL3474_lig47-1

> <s_i_glide_gridfile>
glide-grid_1kvo

> <i_i_glide_lignum>
87

> <i_i_glide_rotatable_bonds>
9

> <r_i_docking_score>
-7.91719429306653

> <r_i_glide_ligand_efficiency>
-0.247412321658329

> <r_i_glide_ligand_efficiency_sa>
-0.785485158433224

> <r_i_glide_ligand_efficiency_ln>
-1.77287561678311

> <r_i_glide_gscore>
-7.91719429306653

> <r_i_glide_lipo>
-3.58057641618733

> <r_i_glide_hbond>
-0.199322129373356

> <r_i_glide_metal>
0

> <r_i_glide_rewards>
-0.905996932283221

> <r_i_glide_evdw>
-48.7511138916016

> <r_i_glide_ecoul>
-9.79358863830566

> <r_i_glide_erotb>
0.757365387012312

> <r_i_glide_esite>
-0.0820702119090078

> <r_i_glide_emodel>
-84.4778587419443

> <r_i_glide_energy>
-58.5447025299072

> <r_i_glide_einternal>
10.8582706451416

> <i_i_glide_confnum>
116

> <i_i_glide_posenum>
399

> <r_i_glide_eff_state_penalty>
0

> <s_user_duplicate_titles>
CHEMBL3474_lig47,246913

> <s_m_subgroup_title>
dock_pv

> <s_m_subgroupid>
dock_pv

> <b_m_subgroup_collapsed>
1

$$$$
CHEMBL3474_lig75
                    3D
 Schrodinger Suite 2021-1.
 45 47  0  0  1  0            999 V2000
  -40.3139   63.7368   34.7994 N   0  0  0  0  0  0
  -38.8888   63.4560   33.0497 C   0  0  0  0  0  0
  -37.6609   69.3556   30.9946 P   0  0  0  0  0  0
  -39.4242   62.8878   34.1857 C   0  0  0  0  0  0
  -39.4851   64.7641   32.9605 C   0  0  0  0  0  0
  -40.3504   64.9268   34.0853 C   0  0  0  0  0  0
  -37.8972   62.8176   32.0927 C   0  0  0  0  0  0
  -41.0831   63.3981   35.9978 C   0  0  0  0  0  0
  -41.0307   66.1282   34.3155 C   0  0  0  0  0  0
  -39.0024   68.2536   30.3800 C   0  0  0  0  0  0
  -36.7079   63.6981   31.6942 C   0  0  0  0  0  0
  -36.8150   69.6981   29.6579 O   0  0  0  0  0  0
  -38.4437   70.7453   31.2749 O   0  0  0  0  0  0
  -39.3558   65.8197   32.0409 C   0  0  0  0  0  0
  -36.8150   68.8980   32.1271 O   0  0  0  0  0  0
  -36.4150   64.7383   32.2798 O   0  0  0  0  0  0
  -39.9689   68.1353   31.4336 O   0  0  0  0  0  0
  -40.0180   67.0320   32.2703 C   0  0  0  0  0  0
  -36.0149   63.2980   30.6430 N   0  0  0  0  0  0
  -40.8149   67.1642   33.4062 C   0  0  0  0  0  0
  -42.3178   62.5144   35.7978 C   0  0  0  0  0  0
  -43.2848   62.4966   36.8077 C   0  0  0  0  0  0
  -42.4850   61.6980   34.6688 C   0  0  0  0  0  0
  -43.6150   60.8936   34.5471 C   0  0  0  0  0  0
  -44.4141   61.6920   36.6865 C   0  0  0  0  0  0
  -44.5755   60.8980   35.5547 C   0  0  0  0  0  0
  -39.2539   61.9074   34.6091 H   0  0  0  0  0  0
  -37.5048   61.8862   32.5024 H   0  0  0  0  0  0
  -38.4150   62.5400   31.1751 H   0  0  0  0  0  0
  -41.3787   64.3303   36.4808 H   0  0  0  0  0  0
  -40.4152   62.8992   36.6991 H   0  0  0  0  0  0
  -41.6733   66.2689   35.1724 H   0  0  0  0  0  0
  -38.5908   67.3207   30.0062 H   0  0  0  0  0  0
  -39.4776   68.7386   29.5288 H   0  0  0  0  0  0
  -38.7291   65.6666   31.1802 H   0  0  0  0  0  0
  -35.2848   63.9087   30.2947 H   0  0  0  0  0  0
  -36.3565   62.5459   30.0640 H   0  0  0  0  0  0
  -41.2871   68.1168   33.5897 H   0  0  0  0  0  0
  -43.1641   63.1068   37.6914 H   0  0  0  0  0  0
  -41.7552   61.6792   33.8741 H   0  0  0  0  0  0
  -43.7505   60.2719   33.6734 H   0  0  0  0  0  0
  -45.1616   61.6842   37.4666 H   0  0  0  0  0  0
  -45.4563   60.2807   35.4571 H   0  0  0  0  0  0
  -38.7715   71.1981   30.4749 H   0  0  0  0  0  0
  -35.9175   70.0975   29.8431 H   0  0  0  0  0  0
  1  4  1  0  0  0
  1  6  1  0  0  0
  1  8  1  0  0  0
  2  4  2  0  0  0
  2  7  1  0  0  0
  2  5  1  0  0  0
  3 10  1  0  0  0
  3 12  1  0  0  0
  3 13  1  0  0  0
  3 15  2  0  0  0
  4 27  1  0  0  0
  5  6  1  0  0  0
  5 14  2  0  0  0
  6  9  2  0  0  0
  7 11  1  0  0  0
  7 28  1  0  0  0
  7 29  1  0  0  0
  8 21  1  0  0  0
  8 30  1  0  0  0
  8 31  1  0  0  0
  9 20  1  0  0  0
  9 32  1  0  0  0
 10 17  1  0  0  0
 10 33  1  0  0  0
 10 34  1  0  0  0
 11 16  2  0  0  0
 11 19  1  0  0  0
 12 45  1  0  0  0
 13 44  1  0  0  0
 14 18  1  0  0  0
 14 35  1  0  0  0
 17 18  1  0  0  0
 18 20  2  0  0  0
 19 36  1  0  0  0
 19 37  1  0  0  0
 20 38  1  0  0  0
 21 22  2  0  0  0
 21 23  1  0  0  0
 22 25  1  0  0  0
 22 39  1  0  0  0
 23 24  2  0  0  0
 23 40  1  0  0  0
 24 26  1  0  0  0
 24 41  1  0  0  0
 25 26  2  0  0  0
 25 42  1  0  0  0
 26 43  1  0  0  0
M  END
> <s_m_entry_id>
68168

> <s_m_entry_name>
dock_pv.104

> <s_m_Source_Path>
/home/csk/Desktop/cluster/DUD-E-result/pa2ga

> <s_m_Source_File>
dock_pv.maegz

> <i_m_Source_File_Index>
104

> <chembl_id>
CHEMBL343906

> <chembl_pref_name>
None

> <i_lp_mmshare_version>
53161

> <i_f3d_flags>
0

> <r_lp_tautomer_probability>
1

> <s_lp_Force_Field>
OPLS_2005

> <r_lp_Energy>
3.538593

> <b_lp_Chiralities_Consistent>
1

> <s_lp_Variant>
CHEMBL3474_lig75-1

> <s_i_glide_gridfile>
glide-grid_1kvo

> <i_i_glide_lignum>
115

> <i_i_glide_rotatable_bonds>
9

> <r_i_docking_score>
-7.91619305707864

> <r_i_glide_ligand_efficiency>
-0.304468963733794

> <r_i_glide_ligand_efficiency_sa>
-0.901988107033842

> <r_i_glide_ligand_efficiency_ln>
-1.85909196430687

> <r_i_glide_gscore>
-7.91619305707864

> <r_i_glide_lipo>
-2.64000447965799

> <r_i_glide_hbond>
-0.331537279217183

> <r_i_glide_metal>
0

> <r_i_glide_rewards>
-1.0195993331316

> <r_i_glide_evdw>
-34.4023971557617

> <r_i_glide_ecoul>
-19.4590797424316

> <r_i_glide_erotb>
0.827917471324782

> <r_i_glide_esite>
-0.113987617243811

> <r_i_glide_emodel>
-84.9849340681181

> <r_i_glide_energy>
-53.8614768981934

> <r_i_glide_einternal>
4.47894334793091

> <i_i_glide_confnum>
97

> <i_i_glide_posenum>
132

> <r_i_glide_eff_state_penalty>
0

> <s_user_duplicate_titles>
CHEMBL3474_lig75

> <s_m_subgroup_title>
dock_pv

> <s_m_subgroupid>
dock_pv

> <b_m_subgroup_collapsed>
1

$$$$
CHEMBL3474_lig165
                    3D
 Schrodinger Suite 2021-1.
 43 45  0  0  1  0            999 V2000
  -40.0753   62.6712   34.9251 N   0  0  0  0  0  0
  -38.8272   62.9502   33.0566 C   0  0  0  0  0  0
  -39.1428   62.0774   34.0913 C   0  0  0  0  0  0
  -39.6539   64.1207   33.2389 C   0  0  0  0  0  0
  -40.4064   63.9214   34.4333 C   0  0  0  0  0  0
  -40.7084   62.0523   36.0960 C   0  0  0  0  0  0
  -37.8562   62.6982   31.9106 C   0  0  0  0  0  0
  -36.6972   63.6929   31.7780 C   0  0  0  0  0  0
  -39.8490   65.3209   32.5163 C   0  0  0  0  0  0
  -42.1517   61.6154   35.8643 C   0  0  0  0  0  0
  -36.4150   64.5140   32.6430 O   0  0  0  0  0  0
  -36.0168   63.6543   30.6433 N   0  0  0  0  0  0
  -43.1273   61.8984   36.8262 C   0  0  0  0  0  0
  -41.2981   64.8862   34.9253 C   0  0  0  0  0  0
  -38.6233   60.6746   34.3655 C   0  0  0  0  0  0
  -44.4535   61.5237   36.6166 C   0  0  0  0  0  0
  -45.6487   61.8809   37.8064 Cl  0  0  0  0  0  0
  -39.1411   65.4357   31.3349 O   0  0  0  0  0  0
  -41.4287   66.0712   34.2048 C   0  0  0  0  0  0
  -43.8422   60.5586   34.4878 C   0  0  0  0  0  0
  -40.7269   66.2863   33.0257 C   0  0  0  0  0  0
  -42.5156   60.9300   34.6989 C   0  0  0  0  0  0
  -44.8128   60.8633   35.4427 C   0  0  0  0  0  0
  -39.3191   66.5940   30.5270 C   0  0  0  0  0  0
  -40.6721   62.7874   36.9030 H   0  0  0  0  0  0
  -40.1237   61.1995   36.4366 H   0  0  0  0  0  0
  -37.4112   61.7038   31.9671 H   0  0  0  0  0  0
  -38.4141   62.7177   30.9764 H   0  0  0  0  0  0
  -35.3260   64.3769   30.4567 H   0  0  0  0  0  0
  -36.3950   63.1344   29.8644 H   0  0  0  0  0  0
  -42.8617   62.4202   37.7365 H   0  0  0  0  0  0
  -41.8694   64.7269   35.8287 H   0  0  0  0  0  0
  -38.0044   60.2789   33.5586 H   0  0  0  0  0  0
  -38.0157   60.6529   35.2704 H   0  0  0  0  0  0
  -39.4321   59.9561   34.5046 H   0  0  0  0  0  0
  -42.1010   66.8346   34.5650 H   0  0  0  0  0  0
  -44.1204   60.0377   33.5808 H   0  0  0  0  0  0
  -40.8772   67.2192   32.5070 H   0  0  0  0  0  0
  -41.7781   60.6972   33.9448 H   0  0  0  0  0  0
  -45.8412   60.5742   35.2730 H   0  0  0  0  0  0
  -38.7247   66.4910   29.6188 H   0  0  0  0  0  0
  -40.3597   66.7147   30.2263 H   0  0  0  0  0  0
  -38.9839   67.4947   31.0426 H   0  0  0  0  0  0
  1  3  1  0  0  0
  1  5  1  0  0  0
  1  6  1  0  0  0
  2  3  2  0  0  0
  2  7  1  0  0  0
  2  4  1  0  0  0
  3 15  1  0  0  0
  4  5  1  0  0  0
  4  9  2  0  0  0
  5 14  2  0  0  0
  6 10  1  0  0  0
  6 25  1  0  0  0
  6 26  1  0  0  0
  7  8  1  0  0  0
  7 27  1  0  0  0
  7 28  1  0  0  0
  8 11  2  0  0  0
  8 12  1  0  0  0
  9 18  1  0  0  0
  9 21  1  0  0  0
 10 13  2  0  0  0
 10 22  1  0  0  0
 12 29  1  0  0  0
 12 30  1  0  0  0
 13 16  1  0  0  0
 13 31  1  0  0  0
 14 19  1  0  0  0
 14 32  1  0  0  0
 15 33  1  0  0  0
 15 34  1  0  0  0
 15 35  1  0  0  0
 16 17  1  0  0  0
 16 23  2  0  0  0
 18 24  1  0  0  0
 19 21  2  0  0  0
 19 36  1  0  0  0
 20 22  2  0  0  0
 20 23  1  0  0  0
 20 37  1  0  0  0
 21 38  1  0  0  0
 22 39  1  0  0  0
 23 40  1  0  0  0
 24 41  1  0  0  0
 24 42  1  0  0  0
 24 43  1  0  0  0
M  END
> <s_m_entry_id>
68169

> <s_m_entry_name>
dock_pv.105

> <s_m_Source_Path>
/home/csk/Desktop/cluster/DUD-E-result/pa2ga

> <s_m_Source_File>
dock_pv.maegz

> <i_m_Source_File_Index>
105

> <chembl_id>
CHEMBL149538

> <chembl_pref_name>
None

> <i_lp_mmshare_version>
53161

> <i_f3d_flags>
0

> <r_lp_tautomer_probability>
1

> <s_lp_Force_Field>
OPLS_2005

> <r_lp_Energy>
12.501763

> <b_lp_Chiralities_Consistent>
1

> <s_lp_Variant>
CHEMBL3474_lig165-1

> <s_i_glide_gridfile>
glide-grid_1kvo

> <i_i_glide_lignum>
226

> <i_i_glide_rotatable_bonds>
5

> <r_i_docking_score>
-7.90596732650962

> <r_i_glide_ligand_efficiency>
-0.329415305271234

> <r_i_glide_ligand_efficiency_sa>
-0.950198163953649

> <r_i_glide_ligand_efficiency_ln>
-1.89226076243523

> <r_i_glide_gscore>
-7.90596732650962

> <r_i_glide_lipo>
-3.27752285045156

> <r_i_glide_hbond>
-0.610624133361179

> <r_i_glide_metal>
0

> <r_i_glide_rewards>
-1.31019841208755

> <r_i_glide_evdw>
-33.9917259216309

> <r_i_glide_ecoul>
-9.32571029663086

> <r_i_glide_erotb>
0.484167990303542

> <r_i_glide_esite>
-0.0933470803367004

> <r_i_glide_emodel>
-66.9654867966824

> <r_i_glide_energy>
-43.3174362182617

> <r_i_glide_einternal>
1.39414298534393

> <i_i_glide_confnum>
1

> <i_i_glide_posenum>
11

> <r_i_glide_eff_state_penalty>
0

> <s_user_duplicate_titles>
CHEMBL3474_lig165

> <s_m_subgroup_title>
dock_pv

> <s_m_subgroupid>
dock_pv

> <b_m_subgroup_collapsed>
1

$$$$
CHEMBL3474_lig188
                    3D
 Schrodinger Suite 2021-1.
 46 48  0  0  1  0            999 V2000
  -40.6540   63.7929   35.3368 N   0  0  0  0  0  0
  -39.9756   65.0689   33.5865 C   0  0  0  0  0  0
  -40.8823   64.9676   34.6374 C   0  0  0  0  0  0
  -39.2145   63.8451   33.5987 C   0  0  0  0  0  0
  -39.6545   63.0714   34.7099 C   0  0  0  0  0  0
  -41.4022   63.3296   36.5135 C   0  0  0  0  0  0
  -39.7887   66.2524   32.6377 C   0  0  0  0  0  0
  -39.0965   61.8242   35.0168 C   0  0  0  0  0  0
  -39.6876   65.8757   31.1520 C   0  0  0  0  0  0
  -38.1850   63.3341   32.7895 C   0  0  0  0  0  0
  -42.6161   62.4503   36.2225 C   0  0  0  0  0  0
  -40.5574   65.1670   30.6432 O   0  0  0  0  0  0
  -38.6159   66.3592   30.4926 N   0  0  0  0  0  0
  -37.6187   62.0897   33.0906 C   0  0  0  0  0  0
  -42.7483   61.7418   35.0206 C   0  0  0  0  0  0
  -38.0707   61.3714   34.1915 C   0  0  0  0  0  0
  -41.9623   65.9367   35.0801 C   0  0  0  0  0  0
  -38.4151   66.0981   29.1342 N   0  0  0  0  0  0
  -43.8855   60.9809   34.7688 C   0  0  0  0  0  0
  -44.0150   60.3477   33.5641 O   0  0  0  0  0  0
  -36.6131   61.5026   32.3553 O   0  0  0  0  0  0
  -44.7581   61.5683   36.9421 C   0  0  0  0  0  0
  -43.6231   62.3417   37.1876 C   0  0  0  0  0  0
  -44.8948   60.8976   35.7275 C   0  0  0  0  0  0
  -36.3014   62.0211   31.0693 C   0  0  0  0  0  0
  -40.7242   62.7696   37.1565 H   0  0  0  0  0  0
  -41.6993   64.2014   37.0977 H   0  0  0  0  0  0
  -40.6042   66.9694   32.7234 H   0  0  0  0  0  0
  -38.8967   66.8037   32.9394 H   0  0  0  0  0  0
  -39.4377   61.2246   35.8468 H   0  0  0  0  0  0
  -37.8426   63.8995   31.9385 H   0  0  0  0  0  0
  -38.0165   67.0809   30.8625 H   0  0  0  0  0  0
  -41.9896   61.7924   34.2547 H   0  0  0  0  0  0
  -37.6152   60.4166   34.4034 H   0  0  0  0  0  0
  -42.1571   66.7147   34.3433 H   0  0  0  0  0  0
  -42.9129   65.4306   35.2473 H   0  0  0  0  0  0
  -41.6957   66.4375   36.0110 H   0  0  0  0  0  0
  -38.0370   65.1587   29.0421 H   0  0  0  0  0  0
  -39.3214   66.0986   28.6827 H   0  0  0  0  0  0
  -44.9321   60.0955   33.3857 H   0  0  0  0  0  0
  -45.5351   61.4972   37.6892 H   0  0  0  0  0  0
  -43.5350   62.8658   38.1285 H   0  0  0  0  0  0
  -45.7850   60.3166   35.5374 H   0  0  0  0  0  0
  -35.6152   61.3382   30.5705 H   0  0  0  0  0  0
  -35.8247   63.0005   31.1299 H   0  0  0  0  0  0
  -37.1941   62.0888   30.4492 H   0  0  0  0  0  0
  1  3  1  0  0  0
  1  5  1  0  0  0
  1  6  1  0  0  0
  2  3  2  0  0  0
  2  7  1  0  0  0
  2  4  1  0  0  0
  3 17  1  0  0  0
  4  5  1  0  0  0
  4 10  2  0  0  0
  5  8  2  0  0  0
  6 11  1  0  0  0
  6 26  1  0  0  0
  6 27  1  0  0  0
  7  9  1  0  0  0
  7 28  1  0  0  0
  7 29  1  0  0  0
  8 16  1  0  0  0
  8 30  1  0  0  0
  9 12  2  0  0  0
  9 13  1  0  0  0
 10 14  1  0  0  0
 10 31  1  0  0  0
 11 15  2  0  0  0
 11 23  1  0  0  0
 13 18  1  0  0  0
 13 32  1  0  0  0
 14 16  2  0  0  0
 14 21  1  0  0  0
 15 19  1  0  0  0
 15 33  1  0  0  0
 16 34  1  0  0  0
 17 35  1  0  0  0
 17 36  1  0  0  0
 17 37  1  0  0  0
 18 38  1  0  0  0
 18 39  1  0  0  0
 19 20  1  0  0  0
 19 24  2  0  0  0
 20 40  1  0  0  0
 21 25  1  0  0  0
 22 23  2  0  0  0
 22 24  1  0  0  0
 22 41  1  0  0  0
 23 42  1  0  0  0
 24 43  1  0  0  0
 25 44  1  0  0  0
 25 45  1  0  0  0
 25 46  1  0  0  0
M  END
> <s_m_entry_id>
68170

> <s_m_entry_name>
dock_pv.106

> <s_m_Source_Path>
/home/csk/Desktop/cluster/DUD-E-result/pa2ga

> <s_m_Source_File>
dock_pv.maegz

> <i_m_Source_File_Index>
106

> <chembl_id>
CHEMBL348681

> <chembl_pref_name>
None

> <i_lp_mmshare_version>
53161

> <i_f3d_flags>
0

> <r_lp_tautomer_probability>
0.999999999997365

> <s_lp_Force_Field>
OPLS_2005

> <r_lp_Energy>
14.339801

> <b_lp_Chiralities_Consistent>
1

> <s_lp_Variant>
CHEMBL3474_lig188-1

> <s_i_glide_gridfile>
glide-grid_1kvo

> <i_i_glide_lignum>
250

> <i_i_glide_rotatable_bonds>
7

> <r_i_docking_score>
-7.90519469688574

> <r_i_glide_ligand_efficiency>
-0.31620778787543

> <r_i_glide_ligand_efficiency_sa>
-0.924597179716753

> <r_i_glide_ligand_efficiency_ln>
-1.87376804273037

> <r_i_glide_gscore>
-7.90519469688574

> <r_i_glide_lipo>
-3.37011329100171

> <r_i_glide_hbond>
-0.608

> <r_i_glide_metal>
0

> <r_i_glide_rewards>
-1.32742229809901

> <r_i_glide_evdw>
-41.2472686767578

> <r_i_glide_ecoul>
-7.69520235061646

> <r_i_glide_erotb>
0.657174389147357

> <r_i_glide_esite>
-0.0401897105020204

> <r_i_glide_emodel>
-71.9558752720105

> <r_i_glide_energy>
-48.9424710273743

> <r_i_glide_einternal>
4.09923362731934

> <i_i_glide_confnum>
5

> <i_i_glide_posenum>
44

> <r_i_glide_eff_state_penalty>
0

> <s_user_duplicate_titles>
CHEMBL3474_lig188

> <s_m_subgroup_title>
dock_pv

> <s_m_subgroupid>
dock_pv

> <b_m_subgroup_collapsed>
1

$$$$
CHEMBL3474_lig131
                    3D
 Schrodinger Suite 2021-1.
 55 57  0  0  1  0            999 V2000
  -39.0365   63.8898   33.1455 C   0  0  0  0  0  0
  -39.6898   62.5961   34.8701 N   0  0  0  0  0  0
  -38.7350   62.7302   33.8703 C   0  0  0  0  0  0
  -40.0742   64.6003   33.8615 C   0  0  0  0  0  0
  -40.4712   63.7386   34.9258 C   0  0  0  0  0  0
  -38.4417   64.3059   31.8729 C   0  0  0  0  0  0
  -40.7139   65.8676   33.7600 C   0  0  0  0  0  0
  -36.8730   64.2930   31.7513 C   0  0  0  0  0  0
  -40.3961   66.7198   32.7229 O   0  0  0  0  0  0
  -41.5015   64.0712   35.8134 C   0  0  0  0  0  0
  -39.9952   61.3957   35.6648 C   0  0  0  0  0  0
  -38.8148   68.1653   31.5696 C   0  0  0  0  0  0
  -41.6628   66.2417   34.7241 C   0  0  0  0  0  0
  -39.0810   64.8895   30.9986 O   0  0  0  0  0  0
  -36.1686   64.8742   32.5732 O   0  0  0  0  0  0
  -42.0760   65.3269   35.6882 C   0  0  0  0  0  0
  -39.6303   68.4379   30.6929 O   0  0  0  0  0  0
  -39.1555   67.4068   32.8594 C   0  0  0  0  0  0
  -42.2554   68.4251   36.0441 C   0  0  0  0  0  0
  -36.4148   63.6979   30.6483 N   0  0  0  0  0  0
  -37.6046   61.7169   33.6721 C   0  0  0  0  0  0
  -41.6152   68.1018   37.1808 C   0  0  0  0  0  0
  -41.2276   60.7014   35.1205 C   0  0  0  0  0  0
  -37.4904   68.4996   31.5128 O   0  0  0  0  0  0
  -42.2755   67.6434   34.7337 C   0  0  0  0  0  0
  -42.4267   60.7022   35.8424 C   0  0  0  0  0  0
  -41.1788   60.1664   33.8364 C   0  0  0  0  0  0
  -37.6197   61.0004   32.3127 C   0  0  0  0  0  0
  -43.5896   60.2223   35.2466 C   0  0  0  0  0  0
  -42.3410   59.6979   33.2481 C   0  0  0  0  0  0
  -43.5364   59.7360   33.9444 C   0  0  0  0  0  0
  -41.8223   63.4071   36.6012 H   0  0  0  0  0  0
  -39.1525   60.7112   35.7239 H   0  0  0  0  0  0
  -40.2099   61.7009   36.6826 H   0  0  0  0  0  0
  -42.8441   65.6110   36.3941 H   0  0  0  0  0  0
  -38.3541   66.7028   33.0443 H   0  0  0  0  0  0
  -39.2256   68.0988   33.6943 H   0  0  0  0  0  0
  -42.8242   69.3441   36.0320 H   0  0  0  0  0  0
  -35.4365   63.7868   30.4143 H   0  0  0  0  0  0
  -37.0700   63.3471   29.9515 H   0  0  0  0  0  0
  -36.6629   62.2586   33.7526 H   0  0  0  0  0  0
  -37.5177   60.9760   34.4629 H   0  0  0  0  0  0
  -41.6782   68.7414   38.0495 H   0  0  0  0  0  0
  -41.0170   67.2077   37.2711 H   0  0  0  0  0  0
  -37.3355   68.9858   30.6960 H   0  0  0  0  0  0
  -41.7666   68.2792   34.0090 H   0  0  0  0  0  0
  -43.3161   67.5475   34.4267 H   0  0  0  0  0  0
  -42.4738   61.1143   36.8398 H   0  0  0  0  0  0
  -40.2593   60.1618   33.2716 H   0  0  0  0  0  0
  -36.6004   60.8981   31.9448 H   0  0  0  0  0  0
  -38.0742   60.0121   32.3752 H   0  0  0  0  0  0
  -38.1436   61.5602   31.5438 H   0  0  0  0  0  0
  -44.5285   60.2422   35.7808 H   0  0  0  0  0  0
  -42.3182   59.2978   32.2448 H   0  0  0  0  0  0
  -44.4150   59.3726   33.4438 H   0  0  0  0  0  0
  1  3  2  0  0  0
  1  4  1  0  0  0
  1  6  1  0  0  0
  2  3  1  0  0  0
  2 11  1  0  0  0
  2  5  1  0  0  0
  3 21  1  0  0  0
  4  5  1  0  0  0
  4  7  2  0  0  0
  5 10  2  0  0  0
  6  8  1  0  0  0
  6 14  2  0  0  0
  7  9  1  0  0  0
  7 13  1  0  0  0
  8 15  2  0  0  0
  8 20  1  0  0  0
  9 18  1  0  0  0
 10 16  1  0  0  0
 10 32  1  0  0  0
 11 23  1  0  0  0
 11 33  1  0  0  0
 11 34  1  0  0  0
 12 18  1  0  0  0
 12 17  2  0  0  0
 12 24  1  0  0  0
 13 16  2  0  0  0
 13 25  1  0  0  0
 16 35  1  0  0  0
 18 36  1  0  0  0
 18 37  1  0  0  0
 19 25  1  0  0  0
 19 22  2  0  0  0
 19 38  1  0  0  0
 20 39  1  0  0  0
 20 40  1  0  0  0
 21 28  1  0  0  0
 21 41  1  0  0  0
 21 42  1  0  0  0
 22 43  1  0  0  0
 22 44  1  0  0  0
 23 26  2  0  0  0
 23 27  1  0  0  0
 24 45  1  0  0  0
 25 46  1  0  0  0
 25 47  1  0  0  0
 26 29  1  0  0  0
 26 48  1  0  0  0
 27 30  2  0  0  0
 27 49  1  0  0  0
 28 50  1  0  0  0
 28 51  1  0  0  0
 28 52  1  0  0  0
 29 31  2  0  0  0
 29 53  1  0  0  0
 30 31  1  0  0  0
 30 54  1  0  0  0
 31 55  1  0  0  0
M  END
> <s_m_entry_id>
68171

> <s_m_entry_name>
dock_pv.107

> <s_m_Source_Path>
/home/csk/Desktop/cluster/DUD-E-result/pa2ga

> <s_m_Source_File>
dock_pv.maegz

> <i_m_Source_File_Index>
107

> <chembl_id>
CHEMBL356691

> <chembl_pref_name>
None

> <i_lp_mmshare_version>
53161

> <i_f3d_flags>
0

> <r_lp_tautomer_probability>
1

> <s_lp_Force_Field>
OPLS_2005

> <r_lp_Energy>
26.960057

> <b_lp_Chiralities_Consistent>
1

> <s_lp_Variant>
CHEMBL3474_lig131-1

> <s_i_glide_gridfile>
glide-grid_1kvo

> <i_i_glide_lignum>
191

> <i_i_glide_rotatable_bonds>
11

> <r_i_docking_score>
-7.90213728328748

> <r_i_glide_ligand_efficiency>
-0.254907654299596

> <r_i_glide_ligand_efficiency_sa>
-0.800761972446623

> <r_i_glide_ligand_efficiency_ln>
-1.78217412880537

> <r_i_glide_gscore>
-7.90213728328748

> <r_i_glide_lipo>
-3.7693366984103

> <r_i_glide_hbond>
-0.543521539979402

> <r_i_glide_metal>
0

> <r_i_glide_rewards>
-0.904035843626116

> <r_i_glide_evdw>
-39.0300827026367

> <r_i_glide_ecoul>
-9.68928241729736

> <r_i_glide_erotb>
0.895670377151635

> <r_i_glide_esite>
-0.17601708069686

> <r_i_glide_emodel>
-66.2405466699718

> <r_i_glide_energy>
-48.7193651199341

> <r_i_glide_einternal>
12.1464405059814

> <i_i_glide_confnum>
34

> <i_i_glide_posenum>
113

> <r_i_glide_eff_state_penalty>
0

> <s_user_duplicate_titles>
CHEMBL3474_lig131

> <s_m_subgroup_title>
dock_pv

> <s_m_subgroupid>
dock_pv

> <b_m_subgroup_collapsed>
1

$$$$
CHEMBL3474_lig353
                    3D
 Schrodinger Suite 2021-1.
 45 47  0  0  1  0            999 V2000
  -44.7173   60.5910   36.0064 F   0  0  0  0  0  0
  -43.4934   60.2657   35.5943 C   0  0  0  0  0  0
  -43.6112   59.3360   34.6445 F   0  0  0  0  0  0
  -41.5887   61.3819   34.6076 C   0  0  0  0  0  0
  -40.7997   60.2249   34.5607 C   0  0  0  0  0  0
  -39.5150   60.2274   34.0234 C   0  0  0  0  0  0
  -41.0881   62.5893   34.1412 C   0  0  0  0  0  0
  -39.8000   62.6014   33.5964 C   0  0  0  0  0  0
  -39.0049   61.4263   33.5146 C   0  0  0  0  0  0
  -37.7865   61.7963   32.8813 C   0  0  0  0  0  0
  -37.8671   63.1418   32.5449 C   0  0  0  0  0  0
  -39.0702   63.6478   33.0540 N   0  0  0  0  0  0
  -39.5631   64.9725   32.9846 C   0  0  0  0  0  0
  -39.5874   65.6371   31.7615 C   0  0  0  0  0  0
  -39.9613   66.9814   31.7270 C   0  0  0  0  0  0
  -40.3768   67.5971   32.9147 C   0  0  0  0  0  0
  -40.4147   66.8405   34.0869 C   0  0  0  0  0  0
  -40.0150   65.5458   34.1359 N   0  0  0  0  0  0
  -36.8152   63.9294   31.9396 C   0  0  0  0  0  0
  -36.0585   63.2980   31.0433 N   0  0  0  0  0  0
  -36.6080   65.0985   32.2430 O   0  0  0  0  0  0
  -39.9765   67.7520   30.4130 C   0  0  0  0  0  0
  -38.6738   67.7837   29.5542 C   0  0  1  0  0  0
  -37.5120   68.5112   30.2569 C   0  0  0  0  0  0
  -36.8150   69.2983   29.3952 O   0  0  0  0  0  0
  -37.2151   68.3696   31.4434 O   0  0  0  0  0  0
  -42.8781   61.4412   35.0927 O   0  0  0  0  0  0
  -42.8151   59.7952   36.6414 F   0  0  0  0  0  0
  -38.2270   66.4067   29.0024 C   0  0  0  0  0  0
  -41.1819   59.2981   34.9410 H   0  0  0  0  0  0
  -38.9336   59.3183   33.9853 H   0  0  0  0  0  0
  -41.6935   63.4803   34.1976 H   0  0  0  0  0  0
  -36.9435   61.1513   32.6806 H   0  0  0  0  0  0
  -39.3041   65.1005   30.8727 H   0  0  0  0  0  0
  -40.6760   68.6329   32.9359 H   0  0  0  0  0  0
  -40.7457   67.2756   35.0190 H   0  0  0  0  0  0
  -35.3605   63.8404   30.5494 H   0  0  0  0  0  0
  -36.3235   62.3857   30.7062 H   0  0  0  0  0  0
  -40.2615   68.7839   30.6077 H   0  0  0  0  0  0
  -40.8066   67.3420   29.8431 H   0  0  0  0  0  0
  -38.9261   68.3888   28.6816 H   0  0  0  0  0  0
  -36.1077   69.7853   29.8424 H   0  0  0  0  0  0
  -37.6224   66.4979   28.1060 H   0  0  0  0  0  0
  -37.6273   65.8425   29.7162 H   0  0  0  0  0  0
  -39.0772   65.7833   28.7219 H   0  0  0  0  0  0
  1  2  1  0  0  0
  2  3  1  0  0  0
  2 27  1  0  0  0
  2 28  1  0  0  0
  4  5  2  0  0  0
  4  7  1  0  0  0
  4 27  1  0  0  0
  5  6  1  0  0  0
  5 30  1  0  0  0
  6  9  2  0  0  0
  6 31  1  0  0  0
  7  8  2  0  0  0
  7 32  1  0  0  0
  8  9  1  0  0  0
  8 12  1  0  0  0
  9 10  1  0  0  0
 10 11  2  0  0  0
 10 33  1  0  0  0
 11 12  1  0  0  0
 11 19  1  0  0  0
 12 13  1  0  0  0
 13 14  2  0  0  0
 13 18  1  0  0  0
 14 15  1  0  0  0
 14 34  1  0  0  0
 15 16  2  0  0  0
 15 22  1  0  0  0
 16 17  1  0  0  0
 16 35  1  0  0  0
 17 18  2  0  0  0
 17 36  1  0  0  0
 19 20  1  0  0  0
 19 21  2  0  0  0
 20 37  1  0  0  0
 20 38  1  0  0  0
 22 23  1  0  0  0
 22 39  1  0  0  0
 22 40  1  0  0  0
 23 24  1  0  0  0
 23 29  1  0  0  0
 23 41  1  0  0  0
 24 25  1  0  0  0
 24 26  2  0  0  0
 25 42  1  0  0  0
 29 43  1  0  0  0
 29 44  1  0  0  0
 29 45  1  0  0  0
M  END
> <s_m_entry_id>
68172

> <s_m_entry_name>
dock_pv.108

> <s_m_Source_Path>
/home/csk/Desktop/cluster/DUD-E-result/pa2ga

> <s_m_Source_File>
dock_pv.maegz

> <i_m_Source_File_Index>
108

> <chembl_id>
CHEMBL4205008

> <chembl_pref_name>
None

> <i_lp_mmshare_version>
53161

> <i_f3d_flags>
0

> <r_lp_tautomer_probability>
1

> <s_lp_Force_Field>
OPLS_2005

> <r_lp_Energy>
15.108223

> <b_lp_Chiralities_Consistent>
1

> <s_lp_Variant>
CHEMBL3474_lig353-2

> <s_i_glide_gridfile>
glide-grid_1kvo

> <i_i_glide_lignum>
445

> <i_i_glide_rotatable_bonds>
8

> <r_i_docking_score>
-7.8984123518812

> <r_i_glide_ligand_efficiency>
-0.272359046616593

> <r_i_glide_ligand_efficiency_sa>
-0.836773280608694

> <r_i_glide_ligand_efficiency_ln>
-1.80853614212474

> <r_i_glide_gscore>
-7.8984123518812

> <r_i_glide_lipo>
-2.88947240532593

> <r_i_glide_hbond>
-0.147680844533609

> <r_i_glide_metal>
0

> <r_i_glide_rewards>
-1.65045501741693

> <r_i_glide_evdw>
-44.3945732116699

> <r_i_glide_ecoul>
-9.83344745635986

> <r_i_glide_erotb>
0.59275288973163

> <r_i_glide_esite>
-0.108811195298885

> <r_i_glide_emodel>
-81.6981568271622

> <r_i_glide_energy>
-54.2280206680298

> <r_i_glide_einternal>
7.82420063018799

> <i_i_glide_confnum>
34

> <i_i_glide_posenum>
343

> <r_i_glide_eff_state_penalty>
0

> <s_user_duplicate_titles>
CHEMBL3474_lig353

> <s_m_subgroup_title>
dock_pv

> <s_m_subgroupid>
dock_pv

> <b_m_subgroup_collapsed>
1

$$$$
CHEMBL3474_lig356
                    3D
 Schrodinger Suite 2021-1.
 48 50  0  0  1  0            999 V2000
  -44.9519   60.8984   35.5849 F   0  0  0  0  0  0
  -43.6737   60.5665   35.4195 C   0  0  0  0  0  0
  -43.6149   59.6209   34.4791 F   0  0  0  0  0  0
  -41.6585   61.6334   34.5893 C   0  0  0  0  0  0
  -40.8666   60.4898   34.7555 C   0  0  0  0  0  0
  -39.5720   60.4230   34.2572 C   0  0  0  0  0  0
  -41.1468   62.7632   33.9513 C   0  0  0  0  0  0
  -39.8305   62.7206   33.4642 C   0  0  0  0  0  0
  -39.0448   61.5360   33.5960 C   0  0  0  0  0  0
  -37.7991   61.7912   32.9741 C   0  0  0  0  0  0
  -37.8254   63.0865   32.4849 C   0  0  0  0  0  0
  -39.0513   63.6820   32.8076 N   0  0  0  0  0  0
  -39.4346   65.0379   32.5592 C   0  0  0  0  0  0
  -39.0277   65.6108   31.3880 N   0  0  0  0  0  0
  -39.2541   66.9348   31.1744 C   0  0  0  0  0  0
  -39.9967   67.7003   32.0827 C   0  0  0  0  0  0
  -40.4489   67.1050   33.2591 C   0  0  0  0  0  0
  -40.1594   65.7653   33.5123 C   0  0  0  0  0  0
  -36.6906   63.7618   31.9181 C   0  0  0  0  0  0
  -36.0072   63.0450   31.0411 N   0  0  0  0  0  0
  -36.3603   64.8979   32.2430 O   0  0  0  0  0  0
  -38.5576   67.5125   29.9216 C   0  0  0  0  0  0
  -38.2327   69.0554   29.8486 C   0  0  0  0  0  0
  -37.6154   69.5682   31.1884 C   0  0  0  0  0  0
  -38.0322   70.8122   31.5588 O   0  0  0  0  0  0
  -36.8151   68.8981   31.8430 O   0  0  0  0  0  0
  -42.9654   61.7379   35.0235 O   0  0  0  0  0  0
  -43.2145   60.1042   36.5826 F   0  0  0  0  0  0
  -37.1436   69.3139   28.7724 C   0  0  0  0  0  0
  -39.4976   69.8305   29.3622 C   0  0  0  0  0  0
  -41.2445   59.6170   35.2653 H   0  0  0  0  0  0
  -38.9867   59.5233   34.3764 H   0  0  0  0  0  0
  -41.7770   63.6304   33.8340 H   0  0  0  0  0  0
  -36.9592   61.1137   32.9125 H   0  0  0  0  0  0
  -40.1807   68.7491   31.9267 H   0  0  0  0  0  0
  -40.9921   67.6867   33.9886 H   0  0  0  0  0  0
  -40.4568   65.3273   34.4524 H   0  0  0  0  0  0
  -35.2398   63.4912   30.5592 H   0  0  0  0  0  0
  -36.3840   62.1737   30.7004 H   0  0  0  0  0  0
  -39.1345   67.2058   29.0490 H   0  0  0  0  0  0
  -37.6145   66.9710   29.8171 H   0  0  0  0  0  0
  -38.5718   71.2196   30.8807 H   0  0  0  0  0  0
  -37.4191   68.8972   27.8044 H   0  0  0  0  0  0
  -36.9777   70.3814   28.6106 H   0  0  0  0  0  0
  -36.1729   68.8974   29.0438 H   0  0  0  0  0  0
  -39.6655   69.6679   28.2969 H   0  0  0  0  0  0
  -40.4127   69.4988   29.8429 H   0  0  0  0  0  0
  -39.4256   70.9122   29.4740 H   0  0  0  0  0  0
  1  2  1  0  0  0
  2  3  1  0  0  0
  2 27  1  0  0  0
  2 28  1  0  0  0
  4  5  2  0  0  0
  4  7  1  0  0  0
  4 27  1  0  0  0
  5  6  1  0  0  0
  5 31  1  0  0  0
  6  9  2  0  0  0
  6 32  1  0  0  0
  7  8  2  0  0  0
  7 33  1  0  0  0
  8  9  1  0  0  0
  8 12  1  0  0  0
  9 10  1  0  0  0
 10 11  2  0  0  0
 10 34  1  0  0  0
 11 12  1  0  0  0
 11 19  1  0  0  0
 12 13  1  0  0  0
 13 14  2  0  0  0
 13 18  1  0  0  0
 14 15  1  0  0  0
 15 16  2  0  0  0
 15 22  1  0  0  0
 16 17  1  0  0  0
 16 35  1  0  0  0
 17 18  2  0  0  0
 17 36  1  0  0  0
 18 37  1  0  0  0
 19 20  1  0  0  0
 19 21  2  0  0  0
 20 38  1  0  0  0
 20 39  1  0  0  0
 22 23  1  0  0  0
 22 40  1  0  0  0
 22 41  1  0  0  0
 23 24  1  0  0  0
 23 29  1  0  0  0
 23 30  1  0  0  0
 24 25  1  0  0  0
 24 26  2  0  0  0
 25 42  1  0  0  0
 29 43  1  0  0  0
 29 44  1  0  0  0
 29 45  1  0  0  0
 30 46  1  0  0  0
 30 47  1  0  0  0
 30 48  1  0  0  0
M  END
> <s_m_entry_id>
68173

> <s_m_entry_name>
dock_pv.109

> <s_m_Source_Path>
/home/csk/Desktop/cluster/DUD-E-result/pa2ga

> <s_m_Source_File>
dock_pv.maegz

> <i_m_Source_File_Index>
109

> <chembl_id>
CHEMBL4204160

> <chembl_pref_name>
None

> <i_lp_mmshare_version>
53161

> <i_f3d_flags>
0

> <r_lp_tautomer_probability>
1

> <s_lp_Force_Field>
OPLS_2005

> <r_lp_Energy>
16.228203

> <b_lp_Chiralities_Consistent>
1

> <s_lp_Variant>
CHEMBL3474_lig356-1

> <s_i_glide_gridfile>
glide-grid_1kvo

> <i_i_glide_lignum>
450

> <i_i_glide_rotatable_bonds>
8

> <r_i_docking_score>
-7.89170003967141

> <r_i_glide_ligand_efficiency>
-0.263056667989047

> <r_i_glide_ligand_efficiency_sa>
-0.817378228756791

> <r_i_glide_ligand_efficiency_ln>
-1.79308023597229

> <r_i_glide_gscore>
-7.89170003967141

> <r_i_glide_lipo>
-3.09328301647094

> <r_i_glide_hbond>
-0.203390426867497

> <r_i_glide_metal>
0

> <r_i_glide_rewards>
-1.8798689369523

> <r_i_glide_evdw>
-49.5342674255371

> <r_i_glide_ecoul>
-4.45412063598633

> <r_i_glide_erotb>
0.557605125644808

> <r_i_glide_esite>
-0.127931318350666

> <r_i_glide_emodel>
-78.0380582081543

> <r_i_glide_energy>
-53.9883880615234

> <r_i_glide_einternal>
13.2385396957397

> <i_i_glide_confnum>
139

> <i_i_glide_posenum>
322

> <r_i_glide_eff_state_penalty>
0

> <s_user_duplicate_titles>
CHEMBL3474_lig356

> <s_m_subgroup_title>
dock_pv

> <s_m_subgroupid>
dock_pv

> <b_m_subgroup_collapsed>
1

$$$$
CHEMBL3474_lig208
                    3D
 Schrodinger Suite 2021-1.
 52 55  0  0  1  0            999 V2000
  -38.6636   62.6989   33.1662 C   0  0  0  0  0  0
  -40.0616   62.4733   34.9271 N   0  0  0  0  0  0
  -39.4633   63.9064   33.2701 C   0  0  0  0  0  0
  -39.1769   61.7976   34.1002 C   0  0  0  0  0  0
  -40.2574   63.7679   34.4541 C   0  0  0  0  0  0
  -37.5431   62.4360   32.2434 C   0  0  0  0  0  0
  -39.6296   65.0798   32.4876 C   0  0  0  0  0  0
  -41.0685   64.8187   34.9265 C   0  0  0  0  0  0
  -36.5984   63.6441   31.8283 C   0  0  0  0  0  0
  -41.1159   65.9911   34.1724 C   0  0  0  0  0  0
  -40.4500   66.1063   32.9625 C   0  0  0  0  0  0
  -40.7604   61.8796   36.0788 C   0  0  0  0  0  0
  -39.0009   65.0907   31.2553 O   0  0  0  0  0  0
  -38.4147   67.3707   30.5216 C   0  0  0  0  0  0
  -37.2136   61.2987   31.8989 O   0  0  0  0  0  0
  -36.4154   64.6236   32.5500 O   0  0  0  0  0  0
  -42.2235   61.5235   35.8385 C   0  0  0  0  0  0
  -37.6142   67.5161   31.4442 O   0  0  0  0  0  0
  -36.0150   63.4800   30.6437 N   0  0  0  0  0  0
  -39.2652   66.1113   30.2833 C   0  0  0  0  0  0
  -38.8608   60.3273   34.3564 C   0  0  0  0  0  0
  -43.1483   61.6913   36.8756 C   0  0  0  0  0  0
  -44.4924   61.3834   36.6787 C   0  0  0  0  0  0
  -38.6557   68.3140   29.5700 O   0  0  0  0  0  0
  -45.3807   61.5557   37.6823 F   0  0  0  0  0  0
  -42.0099   64.9228   36.1105 C   0  0  0  0  0  0
  -42.0673   66.9818   34.8048 C   0  0  0  0  0  0
  -42.3145   66.4147   36.2001 C   0  0  0  0  0  0
  -44.0042   60.7041   34.4129 C   0  0  0  0  0  0
  -42.6591   61.0147   34.6077 C   0  0  0  0  0  0
  -44.9200   60.8977   35.4460 C   0  0  0  0  0  0
  -40.5785   67.0093   32.3880 H   0  0  0  0  0  0
  -40.6832   62.5896   36.9006 H   0  0  0  0  0  0
  -40.2348   60.9924   36.4306 H   0  0  0  0  0  0
  -35.4583   64.2388   30.2569 H   0  0  0  0  0  0
  -36.2475   62.6787   30.0757 H   0  0  0  0  0  0
  -39.0008   65.6993   29.3088 H   0  0  0  0  0  0
  -40.3271   66.3566   30.2397 H   0  0  0  0  0  0
  -38.1755   59.8872   33.6366 H   0  0  0  0  0  0
  -38.4136   60.1719   35.3369 H   0  0  0  0  0  0
  -39.7623   59.7156   34.3219 H   0  0  0  0  0  0
  -42.8339   62.0698   37.8370 H   0  0  0  0  0  0
  -38.0988   69.0842   29.7030 H   0  0  0  0  0  0
  -42.9252   64.3596   35.9258 H   0  0  0  0  0  0
  -41.5861   64.5730   37.0509 H   0  0  0  0  0  0
  -41.6690   67.9959   34.8519 H   0  0  0  0  0  0
  -43.0032   67.0144   34.2475 H   0  0  0  0  0  0
  -41.6246   66.8815   36.9056 H   0  0  0  0  0  0
  -43.3231   66.6158   36.5629 H   0  0  0  0  0  0
  -44.3393   60.3160   33.4613 H   0  0  0  0  0  0
  -41.9624   60.8638   33.7956 H   0  0  0  0  0  0
  -45.9623   60.6575   35.2938 H   0  0  0  0  0  0
  1  3  1  0  0  0
  1  4  2  0  0  0
  1  6  1  0  0  0
  2  4  1  0  0  0
  2 12  1  0  0  0
  2  5  1  0  0  0
  3  5  1  0  0  0
  3  7  2  0  0  0
  4 21  1  0  0  0
  5  8  2  0  0  0
  6  9  1  0  0  0
  6 15  2  0  0  0
  7 11  1  0  0  0
  7 13  1  0  0  0
  8 26  1  0  0  0
  8 10  1  0  0  0
  9 16  2  0  0  0
  9 19  1  0  0  0
 10 11  2  0  0  0
 10 27  1  0  0  0
 11 32  1  0  0  0
 12 17  1  0  0  0
 12 33  1  0  0  0
 12 34  1  0  0  0
 13 20  1  0  0  0
 14 20  1  0  0  0
 14 18  2  0  0  0
 14 24  1  0  0  0
 17 22  1  0  0  0
 17 30  2  0  0  0
 19 35  1  0  0  0
 19 36  1  0  0  0
 20 37  1  0  0  0
 20 38  1  0  0  0
 21 39  1  0  0  0
 21 40  1  0  0  0
 21 41  1  0  0  0
 22 23  2  0  0  0
 22 42  1  0  0  0
 23 25  1  0  0  0
 23 31  1  0  0  0
 24 43  1  0  0  0
 26 28  1  0  0  0
 26 44  1  0  0  0
 26 45  1  0  0  0
 27 28  1  0  0  0
 27 46  1  0  0  0
 27 47  1  0  0  0
 28 48  1  0  0  0
 28 49  1  0  0  0
 29 30  1  0  0  0
 29 31  2  0  0  0
 29 50  1  0  0  0
 30 51  1  0  0  0
 31 52  1  0  0  0
M  END
> <s_m_entry_id>
68174

> <s_m_entry_name>
dock_pv.110

> <s_m_Source_Path>
/home/csk/Desktop/cluster/DUD-E-result/pa2ga

> <s_m_Source_File>
dock_pv.maegz

> <i_m_Source_File_Index>
110

> <chembl_id>
CHEMBL179966

> <chembl_pref_name>
None

> <i_lp_mmshare_version>
53161

> <i_f3d_flags>
0

> <r_lp_tautomer_probability>
1

> <s_lp_Force_Field>
OPLS_2005

> <r_lp_Energy>
54.74336

> <b_lp_Chiralities_Consistent>
1

> <s_lp_Variant>
CHEMBL3474_lig208-1

> <s_i_glide_gridfile>
glide-grid_1kvo

> <i_i_glide_lignum>
270

> <i_i_glide_rotatable_bonds>
8

> <r_i_docking_score>
-7.87843303593098

> <r_i_glide_ligand_efficiency>
-0.254143001159064

> <r_i_glide_ligand_efficiency_sa>
-0.798359905867914

> <r_i_glide_ligand_efficiency_ln>
-1.77682809457854

> <r_i_glide_gscore>
-7.87843303593098

> <r_i_glide_lipo>
-3.30844649598649

> <r_i_glide_hbond>
-0.449350539388656

> <r_i_glide_metal>
0

> <r_i_glide_rewards>
-1.13515890828377

> <r_i_glide_evdw>
-47.1084899902344

> <r_i_glide_ecoul>
-8.06060886383057

> <r_i_glide_erotb>
0.660448876420079

> <r_i_glide_esite>
-0.0814101396058377

> <r_i_glide_emodel>
-80.1688253606524

> <r_i_glide_energy>
-55.1690988540649

> <r_i_glide_einternal>
6.32530117034912

> <i_i_glide_confnum>
12

> <i_i_glide_posenum>
190

> <r_i_glide_eff_state_penalty>
0

> <s_user_duplicate_titles>
CHEMBL3474_lig208,299397

> <s_m_subgroup_title>
dock_pv

> <s_m_subgroupid>
dock_pv

> <b_m_subgroup_collapsed>
1

$$$$
CHEMBL3474_lig349
                    3D
 Schrodinger Suite 2021-1.
 46 48  0  0  1  0            999 V2000
  -44.7011   60.5356   36.0050 F   0  0  0  0  0  0
  -43.4792   60.2046   35.5936 C   0  0  0  0  0  0
  -43.6103   59.2980   34.6267 F   0  0  0  0  0  0
  -41.5746   61.3122   34.5870 C   0  0  0  0  0  0
  -40.7929   60.1501   34.5113 C   0  0  0  0  0  0
  -39.5186   60.1609   33.9476 C   0  0  0  0  0  0
  -41.0837   62.5224   34.1153 C   0  0  0  0  0  0
  -39.8025   62.5430   33.5527 C   0  0  0  0  0  0
  -39.0132   61.3654   33.4435 C   0  0  0  0  0  0
  -37.8034   61.7407   32.7920 C   0  0  0  0  0  0
  -37.8732   63.0980   32.4944 C   0  0  0  0  0  0
  -39.0764   63.5942   33.0104 N   0  0  0  0  0  0
  -39.5426   64.9335   32.9939 C   0  0  0  0  0  0
  -39.5749   65.6360   31.7901 C   0  0  0  0  0  0
  -39.9528   66.9812   31.7579 C   0  0  0  0  0  0
  -40.3752   67.5992   32.9404 C   0  0  0  0  0  0
  -40.4231   66.8804   34.1339 C   0  0  0  0  0  0
  -40.0151   65.5483   34.1597 C   0  0  0  0  0  0
  -36.8131   63.9028   31.9221 C   0  0  0  0  0  0
  -36.0223   63.2947   31.0430 N   0  0  0  0  0  0
  -36.6196   65.0696   32.2431 O   0  0  0  0  0  0
  -39.9706   67.7571   30.4441 C   0  0  0  0  0  0
  -38.6714   67.8037   29.5842 C   0  0  1  0  0  0
  -37.5116   68.5664   30.2574 C   0  0  0  0  0  0
  -36.8152   69.3067   29.3543 O   0  0  0  0  0  0
  -37.2154   68.4958   31.4511 O   0  0  0  0  0  0
  -42.8496   61.3795   35.1093 O   0  0  0  0  0  0
  -42.8149   59.7045   36.6364 F   0  0  0  0  0  0
  -38.2180   66.4292   29.0340 C   0  0  0  0  0  0
  -41.1679   59.2120   34.8832 H   0  0  0  0  0  0
  -38.9408   59.2518   33.8822 H   0  0  0  0  0  0
  -41.6973   63.4092   34.1783 H   0  0  0  0  0  0
  -36.9689   61.0920   32.5667 H   0  0  0  0  0  0
  -39.3009   65.1156   30.8883 H   0  0  0  0  0  0
  -40.6833   68.6337   32.9375 H   0  0  0  0  0  0
  -40.7653   67.3567   35.0411 H   0  0  0  0  0  0
  -40.0316   65.0087   35.0948 H   0  0  0  0  0  0
  -35.3152   63.8513   30.5795 H   0  0  0  0  0  0
  -36.2695   62.3871   30.6812 H   0  0  0  0  0  0
  -40.2587   68.7864   30.6510 H   0  0  0  0  0  0
  -40.7923   67.3513   29.8569 H   0  0  0  0  0  0
  -38.9482   68.3972   28.7105 H   0  0  0  0  0  0
  -36.1040   69.8052   29.7804 H   0  0  0  0  0  0
  -37.6167   66.5152   28.1338 H   0  0  0  0  0  0
  -37.6161   65.8713   29.7491 H   0  0  0  0  0  0
  -39.0666   65.8011   28.7596 H   0  0  0  0  0  0
  1  2  1  0  0  0
  2  3  1  0  0  0
  2 27  1  0  0  0
  2 28  1  0  0  0
  4  5  2  0  0  0
  4  7  1  0  0  0
  4 27  1  0  0  0
  5  6  1  0  0  0
  5 30  1  0  0  0
  6  9  2  0  0  0
  6 31  1  0  0  0
  7  8  2  0  0  0
  7 32  1  0  0  0
  8  9  1  0  0  0
  8 12  1  0  0  0
  9 10  1  0  0  0
 10 11  2  0  0  0
 10 33  1  0  0  0
 11 12  1  0  0  0
 11 19  1  0  0  0
 12 13  1  0  0  0
 13 14  2  0  0  0
 13 18  1  0  0  0
 14 15  1  0  0  0
 14 34  1  0  0  0
 15 16  2  0  0  0
 15 22  1  0  0  0
 16 17  1  0  0  0
 16 35  1  0  0  0
 17 18  2  0  0  0
 17 36  1  0  0  0
 18 37  1  0  0  0
 19 20  1  0  0  0
 19 21  2  0  0  0
 20 38  1  0  0  0
 20 39  1  0  0  0
 22 23  1  0  0  0
 22 40  1  0  0  0
 22 41  1  0  0  0
 23 24  1  0  0  0
 23 29  1  0  0  0
 23 42  1  0  0  0
 24 25  1  0  0  0
 24 26  2  0  0  0
 25 43  1  0  0  0
 29 44  1  0  0  0
 29 45  1  0  0  0
 29 46  1  0  0  0
M  END
> <s_m_entry_id>
68175

> <s_m_entry_name>
dock_pv.111

> <s_m_Source_Path>
/home/csk/Desktop/cluster/DUD-E-result/pa2ga

> <s_m_Source_File>
dock_pv.maegz

> <i_m_Source_File_Index>
111

> <chembl_id>
CHEMBL4214052

> <chembl_pref_name>
None

> <i_lp_mmshare_version>
53161

> <i_f3d_flags>
0

> <r_lp_tautomer_probability>
1

> <s_lp_Force_Field>
OPLS_2005

> <r_lp_Energy>
19.359676

> <b_lp_Chiralities_Consistent>
1

> <s_lp_Variant>
CHEMBL3474_lig349-2

> <s_i_glide_gridfile>
glide-grid_1kvo

> <i_i_glide_lignum>
439

> <i_i_glide_rotatable_bonds>
8

> <r_i_docking_score>
-7.83408630346161

> <r_i_glide_ligand_efficiency>
-0.270140907015918

> <r_i_glide_ligand_efficiency_sa>
-0.829958452999468

> <r_i_glide_ligand_efficiency_ln>
-1.7938071082045

> <r_i_glide_gscore>
-7.83408630346161

> <r_i_glide_lipo>
-3.10361570013731

> <r_i_glide_hbond>
-0.158328671014768

> <r_i_glide_metal>
0

> <r_i_glide_rewards>
-1.48996267437949

> <r_i_glide_evdw>
-43.2626457214355

> <r_i_glide_ecoul>
-9.4022912979126

> <r_i_glide_erotb>
0.595353640919532

> <r_i_glide_esite>
-0.104056918090906

> <r_i_glide_emodel>
-78.7855058410374

> <r_i_glide_energy>
-52.6649370193481

> <r_i_glide_einternal>
8.1328649520874

> <i_i_glide_confnum>
58

> <i_i_glide_posenum>
386

> <r_i_glide_eff_state_penalty>
0

> <s_user_duplicate_titles>
CHEMBL3474_lig349

> <s_m_subgroup_title>
dock_pv

> <s_m_subgroupid>
dock_pv

> <b_m_subgroup_collapsed>
1

$$$$
CHEMBL3474_lig355
                    3D
 Schrodinger Suite 2021-1.
 48 50  0  0  1  0            999 V2000
  -42.8151   59.9975   36.5886 F   0  0  0  0  0  0
  -43.4810   60.3302   35.4821 C   0  0  0  0  0  0
  -44.7171   60.6744   35.8387 F   0  0  0  0  0  0
  -41.5703   61.3840   34.4272 C   0  0  0  0  0  0
  -40.7675   60.2340   34.4613 C   0  0  0  0  0  0
  -39.4625   60.2444   33.9745 C   0  0  0  0  0  0
  -41.0680   62.5810   33.9303 C   0  0  0  0  0  0
  -39.7538   62.6069   33.4459 C   0  0  0  0  0  0
  -38.9494   61.4330   33.4415 C   0  0  0  0  0  0
  -37.7176   61.7865   32.8272 C   0  0  0  0  0  0
  -37.7888   63.1210   32.4487 C   0  0  0  0  0  0
  -39.0047   63.6488   32.8956 N   0  0  0  0  0  0
  -39.4598   64.9981   32.8147 C   0  0  0  0  0  0
  -39.2547   65.6714   31.6485 N   0  0  0  0  0  0
  -39.7147   66.9476   31.5469 C   0  0  0  0  0  0
  -40.4124   67.5818   32.5797 C   0  0  0  0  0  0
  -40.6201   66.8863   33.7694 C   0  0  0  0  0  0
  -40.1398   65.5835   33.8938 C   0  0  0  0  0  0
  -36.7061   63.8802   31.8752 C   0  0  0  0  0  0
  -36.0150   63.2614   30.9318 N   0  0  0  0  0  0
  -36.4164   65.0116   32.2430 O   0  0  0  0  0  0
  -39.3928   67.6741   30.2444 C   0  0  0  0  0  0
  -37.9685   68.3001   30.1751 C   0  0  2  0  0  0
  -37.6396   69.2058   31.3759 C   0  0  0  0  0  0
  -38.3986   70.3340   31.4085 O   0  0  0  0  0  0
  -36.8150   68.8981   32.2319 O   0  0  0  0  0  0
  -42.8809   61.4500   34.8532 O   0  0  0  0  0  0
  -43.5642   59.2981   34.6429 F   0  0  0  0  0  0
  -37.6215   68.9485   28.8072 C   0  0  0  0  0  0
  -38.5370   70.0815   28.3022 C   0  0  0  0  0  0
  -41.1466   59.2999   34.8492 H   0  0  0  0  0  0
  -38.8672   59.3430   33.9840 H   0  0  0  0  0  0
  -41.7068   63.4492   33.9049 H   0  0  0  0  0  0
  -36.8685   61.1379   32.6685 H   0  0  0  0  0  0
  -40.7573   68.5993   32.4776 H   0  0  0  0  0  0
  -41.1418   67.3547   34.5912 H   0  0  0  0  0  0
  -40.2868   65.0512   34.8213 H   0  0  0  0  0  0
  -35.3042   63.7925   30.4436 H   0  0  0  0  0  0
  -36.3494   62.3891   30.5497 H   0  0  0  0  0  0
  -40.1584   68.4295   30.0687 H   0  0  0  0  0  0
  -39.5052   66.9439   29.4430 H   0  0  0  0  0  0
  -37.2830   67.4531   30.2542 H   0  0  0  0  0  0
  -38.9070   70.4209   30.6014 H   0  0  0  0  0  0
  -37.6202   68.1589   28.0596 H   0  0  0  0  0  0
  -36.5885   69.3055   28.8200 H   0  0  0  0  0  0
  -38.2423   70.3844   27.2967 H   0  0  0  0  0  0
  -38.4732   70.9770   28.9179 H   0  0  0  0  0  0
  -39.5810   69.7742   28.2483 H   0  0  0  0  0  0
  1  2  1  0  0  0
  2  3  1  0  0  0
  2 27  1  0  0  0
  2 28  1  0  0  0
  4  5  2  0  0  0
  4  7  1  0  0  0
  4 27  1  0  0  0
  5  6  1  0  0  0
  5 31  1  0  0  0
  6  9  2  0  0  0
  6 32  1  0  0  0
  7  8  2  0  0  0
  7 33  1  0  0  0
  8  9  1  0  0  0
  8 12  1  0  0  0
  9 10  1  0  0  0
 10 11  2  0  0  0
 10 34  1  0  0  0
 11 12  1  0  0  0
 11 19  1  0  0  0
 12 13  1  0  0  0
 13 14  2  0  0  0
 13 18  1  0  0  0
 14 15  1  0  0  0
 15 16  2  0  0  0
 15 22  1  0  0  0
 16 17  1  0  0  0
 16 35  1  0  0  0
 17 18  2  0  0  0
 17 36  1  0  0  0
 18 37  1  0  0  0
 19 20  1  0  0  0
 19 21  2  0  0  0
 20 38  1  0  0  0
 20 39  1  0  0  0
 22 23  1  0  0  0
 22 40  1  0  0  0
 22 41  1  0  0  0
 23 24  1  0  0  0
 23 29  1  0  0  0
 23 42  1  0  0  0
 24 25  1  0  0  0
 24 26  2  0  0  0
 25 43  1  0  0  0
 29 30  1  0  0  0
 29 44  1  0  0  0
 29 45  1  0  0  0
 30 46  1  0  0  0
 30 47  1  0  0  0
 30 48  1  0  0  0
M  END
> <s_m_entry_id>
68176

> <s_m_entry_name>
dock_pv.112

> <s_m_Source_Path>
/home/csk/Desktop/cluster/DUD-E-result/pa2ga

> <s_m_Source_File>
dock_pv.maegz

> <i_m_Source_File_Index>
112

> <chembl_id>
CHEMBL4203027

> <chembl_pref_name>
None

> <i_lp_mmshare_version>
53161

> <i_f3d_flags>
0

> <r_lp_tautomer_probability>
1

> <s_lp_Force_Field>
OPLS_2005

> <r_lp_Energy>
11.846112

> <b_lp_Chiralities_Consistent>
1

> <s_lp_Variant>
CHEMBL3474_lig355-1

> <s_i_glide_gridfile>
glide-grid_1kvo

> <i_i_glide_lignum>
448

> <i_i_glide_rotatable_bonds>
9

> <r_i_docking_score>
-7.83344824236538

> <r_i_glide_ligand_efficiency>
-0.261114941412179

> <r_i_glide_ligand_efficiency_sa>
-0.811344832826313

> <r_i_glide_ligand_efficiency_ln>
-1.77984479292019

> <r_i_glide_gscore>
-7.83344824236538

> <r_i_glide_lipo>
-3.20065380484037

> <r_i_glide_hbond>
-0.183958062485115

> <r_i_glide_metal>
0

> <r_i_glide_rewards>
-1.84336297228939

> <r_i_glide_evdw>
-45.5087356567383

> <r_i_glide_ecoul>
-4.86740207672119

> <r_i_glide_erotb>
0.557605125644808

> <r_i_glide_esite>
-0.157531434050216

> <r_i_glide_emodel>
-77.2454805628333

> <r_i_glide_energy>
-50.3761377334595

> <r_i_glide_einternal>
5.47380018234253

> <i_i_glide_confnum>
114

> <i_i_glide_posenum>
380

> <r_i_glide_eff_state_penalty>
0

> <s_user_duplicate_titles>
CHEMBL3474_lig355

> <s_m_subgroup_title>
dock_pv

> <s_m_subgroupid>
dock_pv

> <b_m_subgroup_collapsed>
1

$$$$
CHEMBL3474_lig77
                    3D
 Schrodinger Suite 2021-1.
 46 48  0  0  1  0            999 V2000
  -40.1585   62.6482   34.9784 N   0  0  0  0  0  0
  -38.8843   62.7229   33.1110 C   0  0  0  0  0  0
  -39.2774   61.9296   34.1794 C   0  0  0  0  0  0
  -39.6248   63.9422   33.2203 C   0  0  0  0  0  0
  -40.3700   63.9036   34.4241 C   0  0  0  0  0  0
  -37.8925   62.4086   32.0010 C   0  0  0  0  0  0
  -40.8463   62.1358   36.1685 C   0  0  0  0  0  0
  -41.1350   65.0042   34.8434 C   0  0  0  0  0  0
  -36.7558   63.4254   31.8430 C   0  0  0  0  0  0
  -39.6953   65.0743   32.4080 C   0  0  0  0  0  0
  -38.3978   67.4041   30.6666 C   0  0  0  0  0  0
  -36.5537   64.3400   32.6415 O   0  0  0  0  0  0
  -37.6156   67.6989   31.5709 O   0  0  0  0  0  0
  -40.3940   66.2059   32.8386 C   0  0  0  0  0  0
  -40.4151   67.4000   32.1311 O   0  0  0  0  0  0
  -36.0130   63.2981   30.7551 N   0  0  0  0  0  0
  -39.9352   67.4500   30.7748 C   0  0  0  0  0  0
  -41.0956   66.1527   34.0425 C   0  0  0  0  0  0
  -38.8628   60.5142   34.5321 C   0  0  0  0  0  0
  -42.2813   61.6886   35.9042 C   0  0  0  0  0  0
  -38.0150   66.8963   29.4628 O   0  0  0  0  0  0
  -42.6094   60.9687   34.7471 C   0  0  0  0  0  0
  -43.2743   61.9906   36.8405 C   0  0  0  0  0  0
  -44.5889   61.5958   36.6130 C   0  0  0  0  0  0
  -43.9227   60.5761   34.5183 C   0  0  0  0  0  0
  -44.9068   60.8974   35.4491 C   0  0  0  0  0  0
  -37.4434   61.4229   32.1205 H   0  0  0  0  0  0
  -38.4150   62.3959   31.0450 H   0  0  0  0  0  0
  -40.8305   62.9310   36.9174 H   0  0  0  0  0  0
  -40.2871   61.3034   36.5967 H   0  0  0  0  0  0
  -41.7114   64.9839   35.7579 H   0  0  0  0  0  0
  -39.1505   65.0599   31.4790 H   0  0  0  0  0  0
  -35.2994   63.9888   30.5579 H   0  0  0  0  0  0
  -36.2873   62.6479   30.0315 H   0  0  0  0  0  0
  -40.3919   66.6462   30.1944 H   0  0  0  0  0  0
  -40.2751   68.3835   30.3281 H   0  0  0  0  0  0
  -41.6452   67.0264   34.3622 H   0  0  0  0  0  0
  -38.2541   60.0504   33.7557 H   0  0  0  0  0  0
  -38.2707   60.4987   35.4445 H   0  0  0  0  0  0
  -39.7216   59.8581   34.6900 H   0  0  0  0  0  0
  -37.0665   66.7202   29.4420 H   0  0  0  0  0  0
  -41.8535   60.7197   34.0165 H   0  0  0  0  0  0
  -43.0313   62.5349   37.7421 H   0  0  0  0  0  0
  -45.3594   61.8331   37.3337 H   0  0  0  0  0  0
  -44.1833   60.0277   33.6227 H   0  0  0  0  0  0
  -45.9279   60.5931   35.2695 H   0  0  0  0  0  0
  1  3  1  0  0  0
  1  5  1  0  0  0
  1  7  1  0  0  0
  2  3  2  0  0  0
  2  6  1  0  0  0
  2  4  1  0  0  0
  3 19  1  0  0  0
  4  5  1  0  0  0
  4 10  2  0  0  0
  5  8  2  0  0  0
  6  9  1  0  0  0
  6 27  1  0  0  0
  6 28  1  0  0  0
  7 20  1  0  0  0
  7 29  1  0  0  0
  7 30  1  0  0  0
  8 18  1  0  0  0
  8 31  1  0  0  0
  9 12  2  0  0  0
  9 16  1  0  0  0
 10 14  1  0  0  0
 10 32  1  0  0  0
 11 17  1  0  0  0
 11 13  2  0  0  0
 11 21  1  0  0  0
 14 18  2  0  0  0
 14 15  1  0  0  0
 15 17  1  0  0  0
 16 33  1  0  0  0
 16 34  1  0  0  0
 17 35  1  0  0  0
 17 36  1  0  0  0
 18 37  1  0  0  0
 19 38  1  0  0  0
 19 39  1  0  0  0
 19 40  1  0  0  0
 20 22  2  0  0  0
 20 23  1  0  0  0
 21 41  1  0  0  0
 22 25  1  0  0  0
 22 42  1  0  0  0
 23 24  2  0  0  0
 23 43  1  0  0  0
 24 26  1  0  0  0
 24 44  1  0  0  0
 25 26  2  0  0  0
 25 45  1  0  0  0
 26 46  1  0  0  0
M  END
> <s_m_entry_id>
68177

> <s_m_entry_name>
dock_pv.113

> <s_m_Source_Path>
/home/csk/Desktop/cluster/DUD-E-result/pa2ga

> <s_m_Source_File>
dock_pv.maegz

> <i_m_Source_File_Index>
113

> <chembl_id>
CHEMBL146189

> <chembl_pref_name>
None

> <i_lp_mmshare_version>
53161

> <i_f3d_flags>
0

> <r_lp_tautomer_probability>
1

> <s_lp_Force_Field>
OPLS_2005

> <r_lp_Energy>
14.786263

> <b_lp_Chiralities_Consistent>
1

> <s_lp_Variant>
CHEMBL3474_lig77-1

> <s_i_glide_gridfile>
glide-grid_1kvo

> <i_i_glide_lignum>
117

> <i_i_glide_rotatable_bonds>
8

> <r_i_docking_score>
-7.83008589062236

> <r_i_glide_ligand_efficiency>
-0.301157149639322

> <r_i_glide_ligand_efficiency_sa>
-0.892176870810328

> <r_i_glide_ligand_efficiency_ln>
-1.83886997880527

> <r_i_glide_gscore>
-7.83008589062236

> <r_i_glide_lipo>
-3.27422866786701

> <r_i_glide_hbond>
-0.374951327009224

> <r_i_glide_metal>
0

> <r_i_glide_rewards>
-1.23372994905264

> <r_i_glide_evdw>
-41.782413482666

> <r_i_glide_ecoul>
-11.6294784545898

> <r_i_glide_erotb>
0.922134680923913

> <r_i_glide_esite>
-0.0357681852956292

> <r_i_glide_emodel>
-80.226783783353

> <r_i_glide_energy>
-53.4118919372559

> <r_i_glide_einternal>
5.10154867172241

> <i_i_glide_confnum>
77

> <i_i_glide_posenum>
213

> <r_i_glide_eff_state_penalty>
0

> <s_user_duplicate_titles>
CHEMBL3474_lig77

> <s_m_subgroup_title>
dock_pv

> <s_m_subgroupid>
dock_pv

> <b_m_subgroup_collapsed>
1

$$$$
CHEMBL3474_lig134
                    3D
 Schrodinger Suite 2021-1.
 51 53  0  0  1  0            999 V2000
  -40.6143   66.3337   32.8523 C   0  0  0  0  0  0
  -41.4103   66.1380   33.9713 C   0  0  0  0  0  0
  -41.3187   64.9870   34.7423 C   0  0  0  0  0  0
  -39.6696   65.3806   32.4545 C   0  0  0  0  0  0
  -39.5056   64.2040   33.2383 C   0  0  0  0  0  0
  -40.3712   64.0261   34.3636 C   0  0  0  0  0  0
  -40.0910   62.7952   34.9346 N   0  0  0  0  0  0
  -39.0745   62.1721   34.2282 C   0  0  0  0  0  0
  -38.6582   63.0206   33.2008 C   0  0  0  0  0  0
  -37.5450   62.7206   32.2877 C   0  0  0  0  0  0
  -36.5982   63.9008   31.8393 C   0  0  0  0  0  0
  -40.8157   62.2505   36.0943 C   0  0  0  0  0  0
  -42.2451   61.7898   35.8329 C   0  0  0  0  0  0
  -42.6320   61.2794   34.5885 C   0  0  0  0  0  0
  -43.9337   60.8292   34.3962 C   0  0  0  0  0  0
  -44.8478   60.8968   35.4445 C   0  0  0  0  0  0
  -44.4738   61.3995   36.6874 C   0  0  0  0  0  0
  -43.1697   61.8413   36.8816 C   0  0  0  0  0  0
  -38.5270   60.8067   34.6414 C   0  0  0  0  0  0
  -39.2942   59.6402   34.0048 C   0  0  0  0  0  0
  -37.2158   61.5676   31.9904 O   0  0  0  0  0  0
  -36.0151   63.6967   30.6636 N   0  0  0  0  0  0
  -36.4138   64.8977   32.5324 O   0  0  0  0  0  0
  -38.9048   65.4810   31.3037 O   0  0  0  0  0  0
  -39.0481   66.5766   30.3847 C   0  0  1  0  0  0
  -38.3071   67.8428   30.8750 C   0  0  0  0  0  0
  -38.9924   68.9741   30.5547 O   0  0  0  0  0  0
  -37.2150   67.8433   31.4432 O   0  0  0  0  0  0
  -38.4535   66.0997   29.0470 C   0  0  0  0  0  0
  -40.7537   67.2451   32.2922 H   0  0  0  0  0  0
  -42.1339   66.8937   34.2442 H   0  0  0  0  0  0
  -41.9679   64.8415   35.5941 H   0  0  0  0  0  0
  -40.8255   63.0343   36.8543 H   0  0  0  0  0  0
  -40.2766   61.4173   36.5410 H   0  0  0  0  0  0
  -41.9305   61.2240   33.7686 H   0  0  0  0  0  0
  -44.2385   60.4310   33.4384 H   0  0  0  0  0  0
  -45.8574   60.5415   35.2890 H   0  0  0  0  0  0
  -45.1866   61.4378   37.4983 H   0  0  0  0  0  0
  -42.8793   62.2216   37.8513 H   0  0  0  0  0  0
  -37.4786   60.7220   34.3556 H   0  0  0  0  0  0
  -38.4981   60.6765   35.7210 H   0  0  0  0  0  0
  -38.8173   58.6895   34.2435 H   0  0  0  0  0  0
  -40.3205   59.5910   34.3670 H   0  0  0  0  0  0
  -39.3210   59.7309   32.9147 H   0  0  0  0  0  0
  -36.2504   62.8749   30.1271 H   0  0  0  0  0  0
  -35.4453   64.4318   30.2504 H   0  0  0  0  0  0
  -40.0999   66.8006   30.1997 H   0  0  0  0  0  0
  -38.4907   69.7574   30.7897 H   0  0  0  0  0  0
  -38.4156   66.8946   28.3009 H   0  0  0  0  0  0
  -37.4424   65.7059   29.1597 H   0  0  0  0  0  0
  -39.0643   65.2999   28.6307 H   0  0  0  0  0  0
  1  2  2  0  0  0
  1  4  1  0  0  0
  1 30  1  0  0  0
  2  3  1  0  0  0
  2 31  1  0  0  0
  3  6  2  0  0  0
  3 32  1  0  0  0
  4  5  2  0  0  0
  4 24  1  0  0  0
  5  9  1  0  0  0
  5  6  1  0  0  0
  6  7  1  0  0  0
  7  8  1  0  0  0
  7 12  1  0  0  0
  8  9  2  0  0  0
  8 19  1  0  0  0
  9 10  1  0  0  0
 10 21  2  0  0  0
 10 11  1  0  0  0
 11 22  1  0  0  0
 11 23  2  0  0  0
 12 13  1  0  0  0
 12 33  1  0  0  0
 12 34  1  0  0  0
 13 14  2  0  0  0
 13 18  1  0  0  0
 14 15  1  0  0  0
 14 35  1  0  0  0
 15 16  2  0  0  0
 15 36  1  0  0  0
 16 17  1  0  0  0
 16 37  1  0  0  0
 17 18  2  0  0  0
 17 38  1  0  0  0
 18 39  1  0  0  0
 19 20  1  0  0  0
 19 40  1  0  0  0
 19 41  1  0  0  0
 20 42  1  0  0  0
 20 43  1  0  0  0
 20 44  1  0  0  0
 22 45  1  0  0  0
 22 46  1  0  0  0
 24 25  1  0  0  0
 25 26  1  0  0  0
 25 29  1  0  0  0
 25 47  1  0  0  0
 26 27  1  0  0  0
 26 28  2  0  0  0
 27 48  1  0  0  0
 29 49  1  0  0  0
 29 50  1  0  0  0
 29 51  1  0  0  0
M  END
> <s_m_entry_id>
68178

> <s_m_entry_name>
dock_pv.114

> <s_m_Source_Path>
/home/csk/Desktop/cluster/DUD-E-result/pa2ga

> <s_m_Source_File>
dock_pv.maegz

> <i_m_Source_File_Index>
114

> <chembl_id>
CHEMBL148649

> <chembl_pref_name>
None

> <i_lp_mmshare_version>
53161

> <i_f3d_flags>
0

> <r_lp_tautomer_probability>
1

> <s_lp_Force_Field>
OPLS_2005

> <r_lp_Energy>
24.975692

> <b_lp_Chiralities_Consistent>
1

> <s_lp_Variant>
CHEMBL3474_lig134-2

> <s_i_glide_gridfile>
glide-grid_1kvo

> <i_i_glide_lignum>
195

> <i_i_glide_rotatable_bonds>
9

> <r_i_docking_score>
-7.8291927327721

> <r_i_glide_ligand_efficiency>
-0.269972163199038

> <r_i_glide_ligand_efficiency_sa>
-0.82944001853222

> <r_i_glide_ligand_efficiency_ln>
-1.79268660460685

> <r_i_glide_gscore>
-7.8291927327721

> <r_i_glide_lipo>
-3.31985543728425

> <r_i_glide_hbond>
-0.40510495559766

> <r_i_glide_metal>
0

> <r_i_glide_rewards>
-1.07136180756208

> <r_i_glide_evdw>
-44.6792144775391

> <r_i_glide_ecoul>
-9.19246387481689

> <r_i_glide_erotb>
0.753809186102641

> <r_i_glide_esite>
-0.173849413331262

> <r_i_glide_emodel>
-81.4371850589751

> <r_i_glide_energy>
-53.871678352356

> <r_i_glide_einternal>
7.94321203231812

> <i_i_glide_confnum>
121

> <i_i_glide_posenum>
367

> <r_i_glide_eff_state_penalty>
0

> <s_user_duplicate_titles>
CHEMBL3474_lig134,247065

> <s_m_subgroup_title>
dock_pv

> <s_m_subgroupid>
dock_pv

> <b_m_subgroup_collapsed>
1

$$$$
CHEMBL3474_lig19
                    3D
 Schrodinger Suite 2021-1.
 52 54  0  0  1  0            999 V2000
  -40.6736   66.1924   33.5423 C   0  0  0  0  0  0
  -41.4190   65.8361   34.6621 C   0  0  0  0  0  0
  -41.3223   64.5781   35.2600 C   0  0  0  0  0  0
  -40.4384   63.6583   34.6764 C   0  0  0  0  0  0
  -39.6890   63.9762   33.5140 C   0  0  0  0  0  0
  -39.8213   65.2507   32.9539 C   0  0  0  0  0  0
  -40.1116   62.3576   35.0238 N   0  0  0  0  0  0
  -39.2113   61.8461   34.0992 C   0  0  0  0  0  0
  -38.9158   62.8220   33.1541 C   0  0  0  0  0  0
  -40.7221   61.6349   36.1469 C   0  0  0  0  0  0
  -42.2047   61.3377   35.9529 C   0  0  0  0  0  0
  -42.6547   60.7205   34.7829 C   0  0  0  0  0  0
  -44.0147   60.4987   34.5949 C   0  0  0  0  0  0
  -44.9191   60.8924   35.5773 C   0  0  0  0  0  0
  -44.4789   61.4834   36.7578 C   0  0  0  0  0  0
  -43.1183   61.7028   36.9460 C   0  0  0  0  0  0
  -38.6969   60.4238   34.2015 C   0  0  0  0  0  0
  -38.0157   62.7004   31.9258 C   0  0  0  0  0  0
  -36.8192   63.6615   31.8433 C   0  0  0  0  0  0
  -35.8286   63.2997   31.0430 N   0  0  0  0  0  0
  -36.7787   64.7351   32.4404 O   0  0  0  0  0  0
  -40.8122   67.4840   33.0758 O   0  0  0  0  0  0
  -39.7379   68.0480   32.3241 C   0  0  0  0  0  0
  -39.8356   67.7586   30.8048 C   0  0  0  0  0  0
  -38.4884   67.6040   30.0519 C   0  0  0  0  0  0
  -37.4343   68.6657   30.3797 C   0  0  0  0  0  0
  -37.2153   69.5300   29.3572 O   0  0  0  0  0  0
  -36.8178   68.6887   31.4441 O   0  0  0  0  0  0
  -42.0803   66.5705   35.0987 H   0  0  0  0  0  0
  -41.9025   64.3382   36.1379 H   0  0  0  0  0  0
  -39.2495   65.4898   32.0734 H   0  0  0  0  0  0
  -40.5940   62.2629   37.0290 H   0  0  0  0  0  0
  -40.1776   60.7137   36.3545 H   0  0  0  0  0  0
  -41.9578   60.4284   34.0113 H   0  0  0  0  0  0
  -44.3723   60.0356   33.6859 H   0  0  0  0  0  0
  -45.9786   60.7231   35.4252 H   0  0  0  0  0  0
  -45.1886   61.7683   37.5211 H   0  0  0  0  0  0
  -42.7830   62.1704   37.8600 H   0  0  0  0  0  0
  -38.1433   60.1060   33.3196 H   0  0  0  0  0  0
  -38.0176   60.3214   35.0455 H   0  0  0  0  0  0
  -39.4976   59.6965   34.3346 H   0  0  0  0  0  0
  -37.6473   61.6816   31.8080 H   0  0  0  0  0  0
  -38.6129   62.8987   31.0386 H   0  0  0  0  0  0
  -35.0840   63.9597   30.8529 H   0  0  0  0  0  0
  -35.9112   62.4661   30.4777 H   0  0  0  0  0  0
  -39.7510   69.1262   32.4843 H   0  0  0  0  0  0
  -38.7895   67.7111   32.7450 H   0  0  0  0  0  0
  -40.4230   66.8537   30.6398 H   0  0  0  0  0  0
  -40.4148   68.5442   30.3246 H   0  0  0  0  0  0
  -38.0442   66.6398   30.3019 H   0  0  0  0  0  0
  -38.6601   67.5587   28.9759 H   0  0  0  0  0  0
  -36.5019   70.1280   29.5986 H   0  0  0  0  0  0
  1  2  1  0  0  0
  1  6  2  0  0  0
  1 22  1  0  0  0
  2  3  2  0  0  0
  2 29  1  0  0  0
  3  4  1  0  0  0
  3 30  1  0  0  0
  4  5  2  0  0  0
  4  7  1  0  0  0
  5  6  1  0  0  0
  5  9  1  0  0  0
  6 31  1  0  0  0
  7  8  1  0  0  0
  7 10  1  0  0  0
  8  9  2  0  0  0
  8 17  1  0  0  0
  9 18  1  0  0  0
 10 11  1  0  0  0
 10 32  1  0  0  0
 10 33  1  0  0  0
 11 12  2  0  0  0
 11 16  1  0  0  0
 12 13  1  0  0  0
 12 34  1  0  0  0
 13 14  2  0  0  0
 13 35  1  0  0  0
 14 15  1  0  0  0
 14 36  1  0  0  0
 15 16  2  0  0  0
 15 37  1  0  0  0
 16 38  1  0  0  0
 17 39  1  0  0  0
 17 40  1  0  0  0
 17 41  1  0  0  0
 18 19  1  0  0  0
 18 42  1  0  0  0
 18 43  1  0  0  0
 19 20  1  0  0  0
 19 21  2  0  0  0
 20 44  1  0  0  0
 20 45  1  0  0  0
 22 23  1  0  0  0
 23 24  1  0  0  0
 23 46  1  0  0  0
 23 47  1  0  0  0
 24 25  1  0  0  0
 24 48  1  0  0  0
 24 49  1  0  0  0
 25 26  1  0  0  0
 25 50  1  0  0  0
 25 51  1  0  0  0
 26 27  1  0  0  0
 26 28  2  0  0  0
 27 52  1  0  0  0
M  END
> <s_m_entry_id>
68179

> <s_m_entry_name>
dock_pv.115

> <s_m_Source_Path>
/home/csk/Desktop/cluster/DUD-E-result/pa2ga

> <s_m_Source_File>
dock_pv.maegz

> <i_m_Source_File_Index>
115

> <chembl_id>
CHEMBL356752

> <chembl_pref_name>
None

> <i_lp_mmshare_version>
53161

> <i_f3d_flags>
0

> <r_lp_tautomer_probability>
1

> <s_lp_Force_Field>
OPLS_2005

> <r_lp_Energy>
11.734991

> <b_lp_Chiralities_Consistent>
1

> <s_lp_Variant>
CHEMBL3474_lig19-1

> <s_i_glide_gridfile>
glide-grid_1kvo

> <i_i_glide_lignum>
58

> <i_i_glide_rotatable_bonds>
10

> <r_i_docking_score>
-7.82634362232986

> <r_i_glide_ligand_efficiency>
-0.279512272226066

> <r_i_glide_ligand_efficiency_sa>
-0.84876388240283

> <r_i_glide_ligand_efficiency_ln>
-1.80654989946754

> <r_i_glide_gscore>
-7.82634362232986

> <r_i_glide_lipo>
-3.58723873545591

> <r_i_glide_hbond>
-0.31918594113191

> <r_i_glide_metal>
0

> <r_i_glide_rewards>
-1.00547916937962

> <r_i_glide_evdw>
-44.7753829956055

> <r_i_glide_ecoul>
-11.137640953064

> <r_i_glide_erotb>
1.07235099336753

> <r_i_glide_esite>
-0.0773754769900783

> <r_i_glide_emodel>
-81.6274203584332

> <r_i_glide_energy>
-55.9130239486694

> <r_i_glide_einternal>
10.1803617477417

> <i_i_glide_confnum>
187

> <i_i_glide_posenum>
373

> <r_i_glide_eff_state_penalty>
0

> <s_user_duplicate_titles>
CHEMBL3474_lig19,247164

> <s_m_subgroup_title>
dock_pv

> <s_m_subgroupid>
dock_pv

> <b_m_subgroup_collapsed>
1

$$$$
CHEMBL3474_lig111
                    3D
 Schrodinger Suite 2021-1.
 43 45  0  0  1  0            999 V2000
  -40.0743   62.6573   34.9790 N   0  0  0  0  0  0
  -38.8199   62.9401   33.1125 C   0  0  0  0  0  0
  -39.1241   62.0731   34.1577 C   0  0  0  0  0  0
  -39.6659   64.0991   33.2815 C   0  0  0  0  0  0
  -40.4164   63.9017   34.4779 C   0  0  0  0  0  0
  -37.8491   62.6877   31.9621 C   0  0  0  0  0  0
  -40.7199   62.0353   36.1432 C   0  0  0  0  0  0
  -36.7040   63.6978   31.8013 C   0  0  0  0  0  0
  -39.8802   65.2852   32.5431 C   0  0  0  0  0  0
  -36.4383   64.5500   32.6430 O   0  0  0  0  0  0
  -36.0152   63.6328   30.6712 N   0  0  0  0  0  0
  -41.3272   64.8553   34.9558 C   0  0  0  0  0  0
  -38.5868   60.6838   34.4527 C   0  0  0  0  0  0
  -42.1646   61.6130   35.8957 C   0  0  0  0  0  0
  -39.1711   65.3983   31.3636 O   0  0  0  0  0  0
  -41.4830   66.0227   34.2141 C   0  0  0  0  0  0
  -40.7831   66.2373   33.0332 C   0  0  0  0  0  0
  -42.5044   60.8770   34.7551 C   0  0  0  0  0  0
  -43.1532   61.9676   36.8186 C   0  0  0  0  0  0
  -39.3761   66.5347   30.5350 C   0  0  0  0  0  0
  -43.8295   60.5205   34.5282 C   0  0  0  0  0  0
  -44.4787   61.6114   36.5905 C   0  0  0  0  0  0
  -44.8102   60.8973   35.4430 C   0  0  0  0  0  0
  -37.3952   61.6994   32.0248 H   0  0  0  0  0  0
  -38.4143   62.6891   31.0329 H   0  0  0  0  0  0
  -40.6830   62.7637   36.9553 H   0  0  0  0  0  0
  -40.1484   61.1720   36.4830 H   0  0  0  0  0  0
  -35.3336   64.3581   30.4667 H   0  0  0  0  0  0
  -36.3667   63.0701   29.9106 H   0  0  0  0  0  0
  -41.8985   64.6983   35.8595 H   0  0  0  0  0  0
  -37.8186   60.3626   33.7510 H   0  0  0  0  0  0
  -38.1374   60.6354   35.4428 H   0  0  0  0  0  0
  -39.3732   59.9301   34.4197 H   0  0  0  0  0  0
  -42.1779   66.7749   34.5595 H   0  0  0  0  0  0
  -40.9597   67.1558   32.4958 H   0  0  0  0  0  0
  -41.7495   60.5905   34.0376 H   0  0  0  0  0  0
  -42.9013   62.5257   37.7089 H   0  0  0  0  0  0
  -38.7789   66.4319   29.6288 H   0  0  0  0  0  0
  -40.4206   66.6252   30.2351 H   0  0  0  0  0  0
  -39.0667   67.4524   31.0362 H   0  0  0  0  0  0
  -44.1004   59.9599   33.6445 H   0  0  0  0  0  0
  -45.2454   61.8903   37.2985 H   0  0  0  0  0  0
  -45.8391   60.6219   35.2611 H   0  0  0  0  0  0
  1  3  1  0  0  0
  1  5  1  0  0  0
  1  7  1  0  0  0
  2  3  2  0  0  0
  2  6  1  0  0  0
  2  4  1  0  0  0
  3 13  1  0  0  0
  4  5  1  0  0  0
  4  9  2  0  0  0
  5 12  2  0  0  0
  6  8  1  0  0  0
  6 24  1  0  0  0
  6 25  1  0  0  0
  7 14  1  0  0  0
  7 26  1  0  0  0
  7 27  1  0  0  0
  8 10  2  0  0  0
  8 11  1  0  0  0
  9 15  1  0  0  0
  9 17  1  0  0  0
 11 28  1  0  0  0
 11 29  1  0  0  0
 12 16  1  0  0  0
 12 30  1  0  0  0
 13 31  1  0  0  0
 13 32  1  0  0  0
 13 33  1  0  0  0
 14 18  2  0  0  0
 14 19  1  0  0  0
 15 20  1  0  0  0
 16 17  2  0  0  0
 16 34  1  0  0  0
 17 35  1  0  0  0
 18 21  1  0  0  0
 18 36  1  0  0  0
 19 22  2  0  0  0
 19 37  1  0  0  0
 20 38  1  0  0  0
 20 39  1  0  0  0
 20 40  1  0  0  0
 21 23  2  0  0  0
 21 41  1  0  0  0
 22 23  1  0  0  0
 22 42  1  0  0  0
 23 43  1  0  0  0
M  END
> <s_m_entry_id>
68180

> <s_m_entry_name>
dock_pv.116

> <s_m_Source_Path>
/home/csk/Desktop/cluster/DUD-E-result/pa2ga

> <s_m_Source_File>
dock_pv.maegz

> <i_m_Source_File_Index>
116

> <chembl_id>
CHEMBL430348

> <chembl_pref_name>
None

> <i_lp_mmshare_version>
53161

> <i_f3d_flags>
0

> <r_lp_tautomer_probability>
1

> <s_lp_Force_Field>
OPLS_2005

> <r_lp_Energy>
13.890393

> <b_lp_Chiralities_Consistent>
1

> <s_lp_Variant>
CHEMBL3474_lig111-1

> <s_i_glide_gridfile>
glide-grid_1kvo

> <i_i_glide_lignum>
170

> <i_i_glide_rotatable_bonds>
5

> <r_i_docking_score>
-7.80698161144686

> <r_i_glide_ligand_efficiency>
-0.339433983106385

> <r_i_glide_ligand_efficiency_sa>
-0.96530509538684

> <r_i_glide_ligand_efficiency_ln>
-1.88779894344328

> <r_i_glide_gscore>
-7.80698161144686

> <r_i_glide_lipo>
-3.18791750688453

> <r_i_glide_hbond>
-0.570958218102281

> <r_i_glide_metal>
0

> <r_i_glide_rewards>
-1.54396031249571

> <r_i_glide_evdw>
-33.6839790344238

> <r_i_glide_ecoul>
-8.74344158172607

> <r_i_glide_erotb>
0.583647674388178

> <r_i_glide_esite>
-0.0920780593724162

> <r_i_glide_emodel>
-64.4361515533205

> <r_i_glide_energy>
-42.4274206161499

> <r_i_glide_einternal>
3.21461009979248

> <i_i_glide_confnum>
3

> <i_i_glide_posenum>
33

> <r_i_glide_eff_state_penalty>
0

> <s_user_duplicate_titles>
CHEMBL3474_lig111

> <s_m_subgroup_title>
dock_pv

> <s_m_subgroupid>
dock_pv

> <b_m_subgroup_collapsed>
1

$$$$
CHEMBL3474_lig355
                    3D
 Schrodinger Suite 2021-1.
 48 50  0  0  1  0            999 V2000
  -44.8926   60.7492   35.7177 F   0  0  0  0  0  0
  -43.6237   60.4196   35.4803 C   0  0  0  0  0  0
  -43.6149   59.3774   34.6456 F   0  0  0  0  0  0
  -41.6722   61.4572   34.4840 C   0  0  0  0  0  0
  -40.8966   60.2895   34.5326 C   0  0  0  0  0  0
  -39.6046   60.2541   34.0201 C   0  0  0  0  0  0
  -41.1427   62.6371   33.9701 C   0  0  0  0  0  0
  -39.8301   62.6221   33.4762 C   0  0  0  0  0  0
  -39.0675   61.4196   33.4656 C   0  0  0  0  0  0
  -37.8336   61.7238   32.8411 C   0  0  0  0  0  0
  -37.8525   63.0618   32.4726 C   0  0  0  0  0  0
  -39.0414   63.6422   32.9358 N   0  0  0  0  0  0
  -39.4172   65.0226   32.9140 C   0  0  0  0  0  0
  -39.1462   65.7523   31.7949 N   0  0  0  0  0  0
  -39.4650   67.0760   31.7783 C   0  0  0  0  0  0
  -40.1028   67.7021   32.8560 C   0  0  0  0  0  0
  -40.4143   66.9439   33.9828 C   0  0  0  0  0  0
  -40.0652   65.5943   34.0189 C   0  0  0  0  0  0
  -36.7306   63.7646   31.9080 C   0  0  0  0  0  0
  -36.0150   63.0697   31.0358 N   0  0  0  0  0  0
  -36.4144   64.8981   32.2431 O   0  0  0  0  0  0
  -39.1434   67.8096   30.4738 C   0  0  0  0  0  0
  -38.8484   69.3443   30.5444 C   0  0  1  0  0  0
  -37.6437   69.7097   31.4430 C   0  0  0  0  0  0
  -37.6302   71.0323   31.7725 O   0  0  0  0  0  0
  -36.8150   68.8979   31.8431 O   0  0  0  0  0  0
  -42.9822   61.5508   34.9078 O   0  0  0  0  0  0
  -43.0569   60.0979   36.6427 F   0  0  0  0  0  0
  -38.7354   69.9744   29.1261 C   0  0  0  0  0  0
  -37.5522   69.4947   28.2663 C   0  0  0  0  0  0
  -41.2852   59.3733   34.9507 H   0  0  0  0  0  0
  -39.0336   59.3381   34.0411 H   0  0  0  0  0  0
  -41.7570   63.5237   33.9447 H   0  0  0  0  0  0
  -37.0122   61.0401   32.6819 H   0  0  0  0  0  0
  -40.3692   68.7467   32.8316 H   0  0  0  0  0  0
  -40.9077   67.4003   34.8295 H   0  0  0  0  0  0
  -40.2760   65.0195   34.9080 H   0  0  0  0  0  0
  -35.2479   63.5383   30.5750 H   0  0  0  0  0  0
  -36.3764   62.2042   30.6659 H   0  0  0  0  0  0
  -40.0124   67.6382   29.8431 H   0  0  0  0  0  0
  -38.3045   67.3049   29.9908 H   0  0  0  0  0  0
  -39.7179   69.8135   31.0016 H   0  0  0  0  0  0
  -38.2947   71.5337   31.2974 H   0  0  0  0  0  0
  -38.6910   71.0629   29.2021 H   0  0  0  0  0  0
  -39.6580   69.7783   28.5762 H   0  0  0  0  0  0
  -37.5493   69.9920   27.2949 H   0  0  0  0  0  0
  -37.6148   68.4251   28.0831 H   0  0  0  0  0  0
  -36.5914   69.6990   28.7404 H   0  0  0  0  0  0
  1  2  1  0  0  0
  2  3  1  0  0  0
  2 27  1  0  0  0
  2 28  1  0  0  0
  4  5  2  0  0  0
  4  7  1  0  0  0
  4 27  1  0  0  0
  5  6  1  0  0  0
  5 31  1  0  0  0
  6  9  2  0  0  0
  6 32  1  0  0  0
  7  8  2  0  0  0
  7 33  1  0  0  0
  8  9  1  0  0  0
  8 12  1  0  0  0
  9 10  1  0  0  0
 10 11  2  0  0  0
 10 34  1  0  0  0
 11 12  1  0  0  0
 11 19  1  0  0  0
 12 13  1  0  0  0
 13 14  2  0  0  0
 13 18  1  0  0  0
 14 15  1  0  0  0
 15 16  2  0  0  0
 15 22  1  0  0  0
 16 17  1  0  0  0
 16 35  1  0  0  0
 17 18  2  0  0  0
 17 36  1  0  0  0
 18 37  1  0  0  0
 19 20  1  0  0  0
 19 21  2  0  0  0
 20 38  1  0  0  0
 20 39  1  0  0  0
 22 23  1  0  0  0
 22 40  1  0  0  0
 22 41  1  0  0  0
 23 24  1  0  0  0
 23 29  1  0  0  0
 23 42  1  0  0  0
 24 25  1  0  0  0
 24 26  2  0  0  0
 25 43  1  0  0  0
 29 30  1  0  0  0
 29 44  1  0  0  0
 29 45  1  0  0  0
 30 46  1  0  0  0
 30 47  1  0  0  0
 30 48  1  0  0  0
M  END
> <s_m_entry_id>
68181

> <s_m_entry_name>
dock_pv.117

> <s_m_Source_Path>
/home/csk/Desktop/cluster/DUD-E-result/pa2ga

> <s_m_Source_File>
dock_pv.maegz

> <i_m_Source_File_Index>
117

> <chembl_id>
CHEMBL4203027

> <chembl_pref_name>
None

> <i_lp_mmshare_version>
53161

> <i_f3d_flags>
0

> <r_lp_tautomer_probability>
1

> <s_lp_Force_Field>
OPLS_2005

> <r_lp_Energy>
11.057075

> <b_lp_Chiralities_Consistent>
1

> <s_lp_Variant>
CHEMBL3474_lig355-2

> <s_i_glide_gridfile>
glide-grid_1kvo

> <i_i_glide_lignum>
449

> <i_i_glide_rotatable_bonds>
9

> <r_i_docking_score>
-7.78397646111612

> <r_i_glide_ligand_efficiency>
-0.259465882037204

> <r_i_glide_ligand_efficiency_sa>
-0.806220821937951

> <r_i_glide_ligand_efficiency_ln>
-1.76860426518213

> <r_i_glide_gscore>
-7.78397646111612

> <r_i_glide_lipo>
-3.12490732928654

> <r_i_glide_hbond>
-0.205870625889126

> <r_i_glide_metal>
0

> <r_i_glide_rewards>
-1.82297742173409

> <r_i_glide_evdw>
-49.1948890686035

> <r_i_glide_ecoul>
-4.00140762329102

> <r_i_glide_erotb>
0.557605125644808

> <r_i_glide_esite>
-0.127870612927337

> <r_i_glide_emodel>
-78.7539634745964

> <r_i_glide_energy>
-53.1962966918945

> <r_i_glide_einternal>
11.3595886230469

> <i_i_glide_confnum>
29

> <i_i_glide_posenum>
337

> <r_i_glide_eff_state_penalty>
0

> <s_user_duplicate_titles>
CHEMBL3474_lig355

> <s_m_subgroup_title>
dock_pv

> <s_m_subgroupid>
dock_pv

> <b_m_subgroup_collapsed>
1

$$$$
CHEMBL3474_lig348
                    3D
 Schrodinger Suite 2021-1.
 40 42  0  0  1  0            999 V2000
  -39.3787   64.9244   32.8205 C   0  0  0  0  0  0
  -39.2792   65.5119   31.6022 O   0  0  0  0  0  0
  -39.7249   66.7895   31.7457 C   0  0  0  0  0  0
  -40.1102   67.0056   33.0611 C   0  0  0  0  0  0
  -39.9167   65.8070   33.7451 C   0  0  0  0  0  0
  -43.2142   60.0985   36.6427 F   0  0  0  0  0  0
  -43.6604   60.5304   35.4671 C   0  0  0  0  0  0
  -44.9325   60.8966   35.6145 F   0  0  0  0  0  0
  -41.6183   61.5388   34.6389 C   0  0  0  0  0  0
  -40.8640   60.3576   34.7161 C   0  0  0  0  0  0
  -39.5709   60.2821   34.2022 C   0  0  0  0  0  0
  -41.0660   62.6929   34.0953 C   0  0  0  0  0  0
  -39.7695   62.6240   33.5774 C   0  0  0  0  0  0
  -39.0132   61.4210   33.6074 C   0  0  0  0  0  0
  -37.7718   61.7070   32.9735 C   0  0  0  0  0  0
  -37.7980   63.0322   32.5526 C   0  0  0  0  0  0
  -38.9988   63.6045   32.9735 N   0  0  0  0  0  0
  -36.7106   63.7485   31.9362 C   0  0  0  0  0  0
  -36.0150   63.0569   31.0430 N   0  0  0  0  0  0
  -36.4150   64.8983   32.2430 O   0  0  0  0  0  0
  -42.9262   61.6730   35.0546 O   0  0  0  0  0  0
  -43.6151   59.5577   34.5545 F   0  0  0  0  0  0
  -39.7369   67.6485   30.5051 C   0  0  0  0  0  0
  -38.3822   67.6896   29.7671 C   0  0  0  0  0  0
  -37.3990   68.6911   30.3770 C   0  0  0  0  0  0
  -37.2151   69.7807   29.5854 O   0  0  0  0  0  0
  -36.8150   68.4983   31.4430 O   0  0  0  0  0  0
  -40.5068   67.9232   33.4704 H   0  0  0  0  0  0
  -40.1312   65.6101   34.7849 H   0  0  0  0  0  0
  -41.2794   59.4672   35.1622 H   0  0  0  0  0  0
  -39.0182   59.3560   34.2433 H   0  0  0  0  0  0
  -41.6442   63.6025   34.0546 H   0  0  0  0  0  0
  -36.9448   61.0245   32.8397 H   0  0  0  0  0  0
  -35.2779   63.5353   30.5437 H   0  0  0  0  0  0
  -36.3618   62.1720   30.7066 H   0  0  0  0  0  0
  -40.0524   68.6613   30.7540 H   0  0  0  0  0  0
  -40.4982   67.2401   29.8434 H   0  0  0  0  0  0
  -38.5600   67.9766   28.7294 H   0  0  0  0  0  0
  -37.9269   66.6998   29.6924 H   0  0  0  0  0  0
  -36.5017   70.3276   29.9347 H   0  0  0  0  0  0
  1  2  1  0  0  0
  1  5  2  0  0  0
  1 17  1  0  0  0
  2  3  1  0  0  0
  3  4  2  0  0  0
  3 23  1  0  0  0
  4  5  1  0  0  0
  4 28  1  0  0  0
  5 29  1  0  0  0
  6  7  1  0  0  0
  7  8  1  0  0  0
  7 21  1  0  0  0
  7 22  1  0  0  0
  9 10  2  0  0  0
  9 12  1  0  0  0
  9 21  1  0  0  0
 10 11  1  0  0  0
 10 30  1  0  0  0
 11 14  2  0  0  0
 11 31  1  0  0  0
 12 13  2  0  0  0
 12 32  1  0  0  0
 13 14  1  0  0  0
 13 17  1  0  0  0
 14 15  1  0  0  0
 15 16  2  0  0  0
 15 33  1  0  0  0
 16 17  1  0  0  0
 16 18  1  0  0  0
 18 19  1  0  0  0
 18 20  2  0  0  0
 19 34  1  0  0  0
 19 35  1  0  0  0
 23 24  1  0  0  0
 23 36  1  0  0  0
 23 37  1  0  0  0
 24 25  1  0  0  0
 24 38  1  0  0  0
 24 39  1  0  0  0
 25 26  1  0  0  0
 25 27  2  0  0  0
 26 40  1  0  0  0
M  END
> <s_m_entry_id>
68182

> <s_m_entry_name>
dock_pv.118

> <s_m_Source_Path>
/home/csk/Desktop/cluster/DUD-E-result/pa2ga

> <s_m_Source_File>
dock_pv.maegz

> <i_m_Source_File_Index>
118

> <chembl_id>
CHEMBL4207065

> <chembl_pref_name>
None

> <i_lp_mmshare_version>
53161

> <i_f3d_flags>
0

> <r_lp_tautomer_probability>
1

> <s_lp_Force_Field>
OPLS_2005

> <r_lp_Energy>
9.683329

> <b_lp_Chiralities_Consistent>
1

> <s_lp_Variant>
CHEMBL3474_lig348-1

> <s_i_glide_gridfile>
glide-grid_1kvo

> <i_i_glide_lignum>
437

> <i_i_glide_rotatable_bonds>
8

> <r_i_docking_score>
-7.78206027778957

> <r_i_glide_ligand_efficiency>
-0.288224454732947

> <r_i_glide_ligand_efficiency_sa>
-0.864673363248901

> <r_i_glide_ligand_efficiency_ln>
-1.81153533537876

> <r_i_glide_gscore>
-7.78206027778957

> <r_i_glide_lipo>
-2.83711439235052

> <r_i_glide_hbond>
-0.199522300225542

> <r_i_glide_metal>
0

> <r_i_glide_rewards>
-1.9706170500902

> <r_i_glide_evdw>
-42.4614715576172

> <r_i_glide_ecoul>
-8.14193534851074

> <r_i_glide_erotb>
0.66440579091943

> <r_i_glide_esite>
-0.0948484458852731

> <r_i_glide_emodel>
-74.7600802085809

> <r_i_glide_energy>
-50.6034069061279

> <r_i_glide_einternal>
11.4848937988281

> <i_i_glide_confnum>
126

> <i_i_glide_posenum>
352

> <r_i_glide_eff_state_penalty>
0

> <s_user_duplicate_titles>
CHEMBL3474_lig348

> <s_m_subgroup_title>
dock_pv

> <s_m_subgroupid>
dock_pv

> <b_m_subgroup_collapsed>
1

$$$$
CHEMBL3474_lig23
                    3D
 Schrodinger Suite 2021-1.
 60 62  0  0  1  0            999 V2000
  -40.7022   63.4746   35.4794 N   0  0  0  0  0  0
  -41.6743   65.4807   35.1033 C   0  0  0  0  0  0
  -41.5471   64.4389   36.0121 C   0  0  0  0  0  0
  -40.8151   65.1731   34.0021 C   0  0  0  0  0  0
  -40.1997   63.9207   34.2655 C   0  0  0  0  0  0
  -37.6349   69.8927   31.2088 P   0  0  2  0  0  0
  -42.5344   66.7291   35.2311 C   0  0  0  0  0  0
  -40.4946   62.1257   36.0115 C   0  0  0  0  0  0
  -39.2840   63.3490   33.3697 C   0  0  0  0  0  0
  -41.9368   67.8068   36.1456 C   0  0  0  0  0  0
  -40.5092   65.8443   32.8113 C   0  0  0  0  0  0
  -36.8150   68.8980   31.9523 O   0  0  0  0  0  0
  -40.8158   67.6980   36.6356 O   0  0  0  0  0  0
  -36.8150   71.2292   30.8335 O   0  0  0  0  0  0
  -38.9339   70.4556   32.0217 O   0  0  0  0  0  0
  -39.5921   65.2845   31.9131 C   0  0  0  0  0  0
  -42.6900   68.8773   36.3871 N   0  0  0  0  0  0
  -39.0087   64.0546   32.1993 C   0  0  0  0  0  0
  -42.1862   64.3020   37.3874 C   0  0  0  0  0  0
  -38.3307   69.3721   29.5813 C   0  0  0  0  0  0
  -41.4238   61.1317   35.3378 C   0  0  0  0  0  0
  -38.5075   67.8398   29.5174 C   0  0  0  0  0  0
  -39.2093   65.8903   30.7349 O   0  0  0  0  0  0
  -39.4981   67.2714   30.5475 C   0  0  0  0  0  0
  -39.5650   71.6737   31.6505 C   0  0  0  0  0  0
  -41.0230   60.5069   34.1557 C   0  0  0  0  0  0
  -42.7120   60.9244   35.8387 C   0  0  0  0  0  0
  -41.2034   64.6310   38.5229 C   0  0  0  0  0  0
  -41.9276   59.7347   33.4436 C   0  0  0  0  0  0
  -43.6136   60.1454   35.1248 C   0  0  0  0  0  0
  -43.2163   59.5607   33.9279 C   0  0  0  0  0  0
  -42.7097   67.1688   34.2471 H   0  0  0  0  0  0
  -43.5199   66.4662   35.6166 H   0  0  0  0  0  0
  -40.6378   62.1146   37.0908 H   0  0  0  0  0  0
  -39.4584   61.8334   35.8390 H   0  0  0  0  0  0
  -38.7942   62.4080   33.5661 H   0  0  0  0  0  0
  -40.9875   66.7868   32.6044 H   0  0  0  0  0  0
  -35.8507   71.0198   30.6430 H   0  0  0  0  0  0
  -42.3287   69.5977   36.9939 H   0  0  0  0  0  0
  -43.6282   68.9449   36.0247 H   0  0  0  0  0  0
  -38.3087   63.6398   31.4871 H   0  0  0  0  0  0
  -43.0387   64.9759   37.4725 H   0  0  0  0  0  0
  -42.6042   63.3131   37.5500 H   0  0  0  0  0  0
  -37.6298   69.6779   28.8042 H   0  0  0  0  0  0
  -39.2635   69.8953   29.3743 H   0  0  0  0  0  0
  -37.5323   67.3728   29.6676 H   0  0  0  0  0  0
  -38.8149   67.5367   28.5182 H   0  0  0  0  0  0
  -40.5316   67.4058   30.2257 H   0  0  0  0  0  0
  -39.3834   67.8071   31.4900 H   0  0  0  0  0  0
  -39.4856   72.3896   32.4687 H   0  0  0  0  0  0
  -39.1425   72.1334   30.7558 H   0  0  0  0  0  0
  -40.6230   71.5076   31.4625 H   0  0  0  0  0  0
  -40.0308   60.6455   33.7571 H   0  0  0  0  0  0
  -43.0367   61.3865   36.7565 H   0  0  0  0  0  0
  -41.6816   64.5254   39.4969 H   0  0  0  0  0  0
  -40.3330   63.9755   38.5107 H   0  0  0  0  0  0
  -40.8372   65.6552   38.4455 H   0  0  0  0  0  0
  -41.6333   59.2981   32.5028 H   0  0  0  0  0  0
  -44.6223   60.0152   35.4872 H   0  0  0  0  0  0
  -43.9216   58.9690   33.3672 H   0  0  0  0  0  0
  1  3  1  0  0  0
  1  5  1  0  0  0
  1  8  1  0  0  0
  2  3  2  0  0  0
  2  7  1  0  0  0
  2  4  1  0  0  0
  3 19  1  0  0  0
  4  5  1  0  0  0
  4 11  2  0  0  0
  5  9  2  0  0  0
  6 20  1  0  0  0
  6 12  2  0  0  0
  6 14  1  0  0  0
  6 15  1  0  0  0
  7 10  1  0  0  0
  7 32  1  0  0  0
  7 33  1  0  0  0
  8 21  1  0  0  0
  8 34  1  0  0  0
  8 35  1  0  0  0
  9 18  1  0  0  0
  9 36  1  0  0  0
 10 13  2  0  0  0
 10 17  1  0  0  0
 11 16  1  0  0  0
 11 37  1  0  0  0
 14 38  1  0  0  0
 15 25  1  0  0  0
 16 18  2  0  0  0
 16 23  1  0  0  0
 17 39  1  0  0  0
 17 40  1  0  0  0
 18 41  1  0  0  0
 19 28  1  0  0  0
 19 42  1  0  0  0
 19 43  1  0  0  0
 20 22  1  0  0  0
 20 44  1  0  0  0
 20 45  1  0  0  0
 21 26  2  0  0  0
 21 27  1  0  0  0
 22 24  1  0  0  0
 22 46  1  0  0  0
 22 47  1  0  0  0
 23 24  1  0  0  0
 24 48  1  0  0  0
 24 49  1  0  0  0
 25 50  1  0  0  0
 25 51  1  0  0  0
 25 52  1  0  0  0
 26 29  1  0  0  0
 26 53  1  0  0  0
 27 30  2  0  0  0
 27 54  1  0  0  0
 28 55  1  0  0  0
 28 56  1  0  0  0
 28 57  1  0  0  0
 29 31  2  0  0  0
 29 58  1  0  0  0
 30 31  1  0  0  0
 30 59  1  0  0  0
 31 60  1  0  0  0
M  END
> <s_m_entry_id>
68183

> <s_m_entry_name>
dock_pv.119

> <s_m_Source_Path>
/home/csk/Desktop/cluster/DUD-E-result/pa2ga

> <s_m_Source_File>
dock_pv.maegz

> <i_m_Source_File_Index>
119

> <chembl_id>
CHEMBL150154

> <chembl_pref_name>
None

> <i_lp_mmshare_version>
53161

> <i_f3d_flags>
0

> <r_lp_tautomer_probability>
1

> <s_lp_Force_Field>
OPLS_2005

> <r_lp_Energy>
0.643573

> <b_lp_Chiralities_Consistent>
1

> <s_lp_Variant>
CHEMBL3474_lig23-1

> <s_i_glide_gridfile>
glide-grid_1kvo

> <i_i_glide_lignum>
62

> <i_i_glide_rotatable_bonds>
12

> <r_i_docking_score>
-7.75255342181758

> <r_i_glide_ligand_efficiency>
-0.250082368445728

> <r_i_glide_ligand_efficiency_sa>
-0.785603912840375

> <r_i_glide_ligand_efficiency_ln>
-1.7484383838491

> <r_i_glide_gscore>
-7.75255342181758

> <r_i_glide_lipo>
-3.4232657493376

> <r_i_glide_hbond>
0

> <r_i_glide_metal>
0

> <r_i_glide_rewards>
-0.609532041263981

> <r_i_glide_evdw>
-35.9858245849609

> <r_i_glide_ecoul>
-17.8579940795898

> <r_i_glide_erotb>
0.809946788441016

> <r_i_glide_esite>
-0.0517120784704861

> <r_i_glide_emodel>
-80.3704500172141

> <r_i_glide_energy>
-53.8438186645508

> <r_i_glide_einternal>
9.0308895111084

> <i_i_glide_confnum>
12

> <i_i_glide_posenum>
186

> <r_i_glide_eff_state_penalty>
0

> <s_user_duplicate_titles>
CHEMBL3474_lig23,246673

> <s_m_subgroup_title>
dock_pv

> <s_m_subgroupid>
dock_pv

> <b_m_subgroup_collapsed>
1

$$$$
CHEMBL3474_lig129
                    3D
 Schrodinger Suite 2021-1.
 45 47  0  0  1  0            999 V2000
  -38.5488   62.7953   33.1801 C   0  0  0  0  0  0
  -40.0232   62.4438   34.8580 N   0  0  0  0  0  0
  -39.0085   61.8645   34.1118 C   0  0  0  0  0  0
  -39.4663   63.9228   33.2210 C   0  0  0  0  0  0
  -40.3194   63.6981   34.3469 C   0  0  0  0  0  0
  -37.3488   62.6067   32.3471 C   0  0  0  0  0  0
  -40.7259   61.8350   35.9957 C   0  0  0  0  0  0
  -36.5531   63.8723   31.8430 C   0  0  0  0  0  0
  -42.1987   61.4815   35.7627 C   0  0  0  0  0  0
  -39.6944   65.0892   32.4421 C   0  0  0  0  0  0
  -38.4218   67.4589   30.5259 C   0  0  0  0  0  0
  -36.8313   61.5045   32.1538 O   0  0  0  0  0  0
  -38.9902   65.1821   31.2562 O   0  0  0  0  0  0
  -42.6567   60.7382   34.6557 C   0  0  0  0  0  0
  -36.4154   64.8971   32.5118 O   0  0  0  0  0  0
  -37.6145   67.6042   31.4434 O   0  0  0  0  0  0
  -36.0148   63.6974   30.6448 N   0  0  0  0  0  0
  -39.2700   66.1977   30.2867 C   0  0  0  0  0  0
  -38.4970   60.4601   34.4123 C   0  0  0  0  0  0
  -41.2730   64.6397   34.7652 C   0  0  0  0  0  0
  -41.6134   60.0939   33.4429 Cl  0  0  0  0  0  0
  -38.6748   68.4063   29.5819 O   0  0  0  0  0  0
  -43.1303   61.9076   36.7194 C   0  0  0  0  0  0
  -41.3925   65.8088   34.0215 C   0  0  0  0  0  0
  -40.6377   66.0271   32.8776 C   0  0  0  0  0  0
  -44.0147   60.4707   34.5129 C   0  0  0  0  0  0
  -44.4858   61.6156   36.5790 C   0  0  0  0  0  0
  -44.9283   60.8981   35.4707 C   0  0  0  0  0  0
  -40.6581   62.5595   36.8077 H   0  0  0  0  0  0
  -40.1955   60.9616   36.3690 H   0  0  0  0  0  0
  -35.4975   64.4705   30.2327 H   0  0  0  0  0  0
  -36.2044   62.8608   30.1111 H   0  0  0  0  0  0
  -39.0026   65.7838   29.3128 H   0  0  0  0  0  0
  -40.3315   66.4410   30.2372 H   0  0  0  0  0  0
  -38.2116   59.9292   33.5051 H   0  0  0  0  0  0
  -37.6168   60.4995   35.0425 H   0  0  0  0  0  0
  -39.2173   59.8019   34.8919 H   0  0  0  0  0  0
  -41.9045   64.4691   35.6250 H   0  0  0  0  0  0
  -38.1214   69.1791   29.7137 H   0  0  0  0  0  0
  -42.8083   62.4686   37.5862 H   0  0  0  0  0  0
  -42.1207   66.5502   34.3192 H   0  0  0  0  0  0
  -40.8090   66.9377   32.3258 H   0  0  0  0  0  0
  -44.3677   59.9111   33.6579 H   0  0  0  0  0  0
  -45.1924   61.9477   37.3268 H   0  0  0  0  0  0
  -45.9794   60.6724   35.3549 H   0  0  0  0  0  0
  1  3  2  0  0  0
  1  4  1  0  0  0
  1  6  1  0  0  0
  2  3  1  0  0  0
  2  7  1  0  0  0
  2  5  1  0  0  0
  3 19  1  0  0  0
  4  5  1  0  0  0
  4 10  2  0  0  0
  5 20  2  0  0  0
  6  8  1  0  0  0
  6 12  2  0  0  0
  7  9  1  0  0  0
  7 29  1  0  0  0
  7 30  1  0  0  0
  8 15  2  0  0  0
  8 17  1  0  0  0
  9 14  2  0  0  0
  9 23  1  0  0  0
 10 13  1  0  0  0
 10 25  1  0  0  0
 11 18  1  0  0  0
 11 16  2  0  0  0
 11 22  1  0  0  0
 13 18  1  0  0  0
 14 21  1  0  0  0
 14 26  1  0  0  0
 17 31  1  0  0  0
 17 32  1  0  0  0
 18 33  1  0  0  0
 18 34  1  0  0  0
 19 35  1  0  0  0
 19 36  1  0  0  0
 19 37  1  0  0  0
 20 24  1  0  0  0
 20 38  1  0  0  0
 22 39  1  0  0  0
 23 27  2  0  0  0
 23 40  1  0  0  0
 24 25  2  0  0  0
 24 41  1  0  0  0
 25 42  1  0  0  0
 26 28  2  0  0  0
 26 43  1  0  0  0
 27 28  1  0  0  0
 27 44  1  0  0  0
 28 45  1  0  0  0
M  END
> <s_m_entry_id>
68184

> <s_m_entry_name>
dock_pv.120

> <s_m_Source_Path>
/home/csk/Desktop/cluster/DUD-E-result/pa2ga

> <s_m_Source_File>
dock_pv.maegz

> <i_m_Source_File_Index>
120

> <chembl_id>
CHEMBL148795

> <chembl_pref_name>
None

> <i_lp_mmshare_version>
53161

> <i_f3d_flags>
0

> <r_lp_tautomer_probability>
1

> <s_lp_Force_Field>
OPLS_2005

> <r_lp_Energy>
22.790368

> <b_lp_Chiralities_Consistent>
1

> <s_lp_Variant>
CHEMBL3474_lig129-1

> <s_i_glide_gridfile>
glide-grid_1kvo

> <i_i_glide_lignum>
189

> <i_i_glide_rotatable_bonds>
8

> <r_i_docking_score>
-7.74781308470765

> <r_i_glide_ligand_efficiency>
-0.27670761016813

> <r_i_glide_ligand_efficiency_sa>
-0.840247276537323

> <r_i_glide_ligand_efficiency_ln>
-1.78842274562756

> <r_i_glide_gscore>
-7.74781308470765

> <r_i_glide_lipo>
-3.31511937734641

> <r_i_glide_hbond>
-0.407907015920996

> <r_i_glide_metal>
0

> <r_i_glide_rewards>
-1.07012557779955

> <r_i_glide_evdw>
-45.4157257080078

> <r_i_glide_ecoul>
-8.45528125762939

> <r_i_glide_erotb>
0.732321419164254

> <r_i_glide_esite>
-0.147904058760143

> <r_i_glide_emodel>
-79.8772305566765

> <r_i_glide_energy>
-53.8710069656372

> <r_i_glide_einternal>
8.18208789825439

> <i_i_glide_confnum>
145

> <i_i_glide_posenum>
347

> <r_i_glide_eff_state_penalty>
0

> <s_user_duplicate_titles>
CHEMBL3474_lig129,247876

> <s_m_subgroup_title>
dock_pv

> <s_m_subgroupid>
dock_pv

> <b_m_subgroup_collapsed>
1

$$$$
CHEMBL3474_lig154
                    3D
 Schrodinger Suite 2021-1.
 45 47  0  0  1  0            999 V2000
  -38.6009   62.8521   33.2511 C   0  0  0  0  0  0
  -40.0271   62.5730   34.9857 N   0  0  0  0  0  0
  -39.0056   61.9757   34.2603 C   0  0  0  0  0  0
  -39.5212   63.9747   33.2664 C   0  0  0  0  0  0
  -40.3473   63.7968   34.4180 C   0  0  0  0  0  0
  -37.4519   62.6190   32.3551 C   0  0  0  0  0  0
  -36.6105   63.8557   31.8426 C   0  0  0  0  0  0
  -40.7415   62.0170   36.1476 C   0  0  0  0  0  0
  -39.7767   65.0957   32.4360 C   0  0  0  0  0  0
  -37.0106   61.4916   32.1165 O   0  0  0  0  0  0
  -36.4894   64.8978   32.4840 O   0  0  0  0  0  0
  -36.0150   63.6406   30.6749 N   0  0  0  0  0  0
  -38.4314   60.6089   34.6233 C   0  0  0  0  0  0
  -41.3079   64.7424   34.8061 C   0  0  0  0  0  0
  -42.1882   61.6141   35.8820 C   0  0  0  0  0  0
  -39.0884   65.1470   31.2402 O   0  0  0  0  0  0
  -41.4666   65.8656   34.0016 C   0  0  0  0  0  0
  -40.7335   66.0362   32.8363 C   0  0  0  0  0  0
  -42.5547   60.9923   34.6825 C   0  0  0  0  0  0
  -43.1515   61.8556   36.8661 C   0  0  0  0  0  0
  -39.3653   66.1804   30.3050 C   0  0  0  0  0  0
  -39.0081   59.4919   33.7447 C   0  0  0  0  0  0
  -44.4784   61.5004   36.6456 C   0  0  0  0  0  0
  -43.8804   60.6334   34.4640 C   0  0  0  0  0  0
  -44.8353   60.8970   35.4427 C   0  0  0  0  0  0
  -40.7243   62.7886   36.9193 H   0  0  0  0  0  0
  -40.2189   61.1630   36.5718 H   0  0  0  0  0  0
  -35.4841   64.3941   30.2431 H   0  0  0  0  0  0
  -36.1862   62.7827   30.1718 H   0  0  0  0  0  0
  -37.3495   60.6228   34.4918 H   0  0  0  0  0  0
  -38.5512   60.3439   35.6695 H   0  0  0  0  0  0
  -41.9238   64.6038   35.6836 H   0  0  0  0  0  0
  -42.2057   66.6068   34.2722 H   0  0  0  0  0  0
  -40.9377   66.9051   32.2310 H   0  0  0  0  0  0
  -41.8174   60.7949   33.9184 H   0  0  0  0  0  0
  -42.8793   62.3234   37.8021 H   0  0  0  0  0  0
  -38.7647   66.0222   29.4092 H   0  0  0  0  0  0
  -40.4130   66.1729   30.0045 H   0  0  0  0  0  0
  -39.1117   67.1610   30.7040 H   0  0  0  0  0  0
  -38.4254   58.5747   33.8452 H   0  0  0  0  0  0
  -40.0449   59.2814   34.0072 H   0  0  0  0  0  0
  -38.9847   59.7599   32.6859 H   0  0  0  0  0  0
  -45.2252   61.6914   37.4023 H   0  0  0  0  0  0
  -44.1710   60.1521   33.5398 H   0  0  0  0  0  0
  -45.8638   60.6154   35.2691 H   0  0  0  0  0  0
  1  3  2  0  0  0
  1  4  1  0  0  0
  1  6  1  0  0  0
  2  3  1  0  0  0
  2  8  1  0  0  0
  2  5  1  0  0  0
  3 13  1  0  0  0
  4  5  1  0  0  0
  4  9  2  0  0  0
  5 14  2  0  0  0
  6  7  1  0  0  0
  6 10  2  0  0  0
  7 11  2  0  0  0
  7 12  1  0  0  0
  8 15  1  0  0  0
  8 26  1  0  0  0
  8 27  1  0  0  0
  9 16  1  0  0  0
  9 18  1  0  0  0
 12 28  1  0  0  0
 12 29  1  0  0  0
 13 22  1  0  0  0
 13 30  1  0  0  0
 13 31  1  0  0  0
 14 17  1  0  0  0
 14 32  1  0  0  0
 15 19  2  0  0  0
 15 20  1  0  0  0
 16 21  1  0  0  0
 17 18  2  0  0  0
 17 33  1  0  0  0
 18 34  1  0  0  0
 19 24  1  0  0  0
 19 35  1  0  0  0
 20 23  2  0  0  0
 20 36  1  0  0  0
 21 37  1  0  0  0
 21 38  1  0  0  0
 21 39  1  0  0  0
 22 40  1  0  0  0
 22 41  1  0  0  0
 22 42  1  0  0  0
 23 25  1  0  0  0
 23 43  1  0  0  0
 24 25  2  0  0  0
 24 44  1  0  0  0
 25 45  1  0  0  0
M  END
> <s_m_entry_id>
68185

> <s_m_entry_name>
dock_pv.121

> <s_m_Source_Path>
/home/csk/Desktop/cluster/DUD-E-result/pa2ga

> <s_m_Source_File>
dock_pv.maegz

> <i_m_Source_File_Index>
121

> <chembl_id>
CHEMBL436024

> <chembl_pref_name>
None

> <i_lp_mmshare_version>
53161

> <i_f3d_flags>
0

> <r_lp_tautomer_probability>
1

> <s_lp_Force_Field>
OPLS_2005

> <r_lp_Energy>
22.782537

> <b_lp_Chiralities_Consistent>
1

> <s_lp_Variant>
CHEMBL3474_lig154-1

> <s_i_glide_gridfile>
glide-grid_1kvo

> <i_i_glide_lignum>
215

> <i_i_glide_rotatable_bonds>
6

> <r_i_docking_score>
-7.74659607491361

> <r_i_glide_ligand_efficiency>
-0.309863842996544

> <r_i_glide_ligand_efficiency_sa>
-0.906047372380551

> <r_i_glide_ligand_efficiency_ln>
-1.8361754165058

> <r_i_glide_gscore>
-7.74659607491361

> <r_i_glide_lipo>
-3.34302392275298

> <r_i_glide_hbond>
-0.413443984558036

> <r_i_glide_metal>
0

> <r_i_glide_rewards>
-1.49352767932935

> <r_i_glide_evdw>
-40.223201751709

> <r_i_glide_ecoul>
-5.7686595916748

> <r_i_glide_erotb>
0.500705400023441

> <r_i_glide_esite>
-0.120846861960017

> <r_i_glide_emodel>
-69.2937202816938

> <r_i_glide_energy>
-45.9918613433838

> <r_i_glide_einternal>
2.86039972305298

> <i_i_glide_confnum>
3

> <i_i_glide_posenum>
220

> <r_i_glide_eff_state_penalty>
0

> <s_user_duplicate_titles>
CHEMBL3474_lig154,247464

> <s_m_subgroup_title>
dock_pv

> <s_m_subgroupid>
dock_pv

> <b_m_subgroup_collapsed>
1

$$$$
CHEMBL3474_lig342
                    3D
 Schrodinger Suite 2021-1.
 46 48  0  0  1  0            999 V2000
  -40.4642   66.7369   34.1414 C   0  0  0  0  0  0
  -40.0150   65.4184   34.1924 C   0  0  0  0  0  0
  -39.4915   64.7981   33.0478 C   0  0  0  0  0  0
  -39.4925   65.4946   31.8371 C   0  0  0  0  0  0
  -39.9396   66.8165   31.7825 C   0  0  0  0  0  0
  -40.4137   67.4384   32.9402 C   0  0  0  0  0  0
  -39.9577   67.5447   30.4545 C   0  0  0  0  0  0
  -38.5909   67.6745   29.7426 C   0  0  0  0  0  0
  -37.6154   68.6351   30.4310 C   0  0  0  0  0  0
  -37.2150   69.6247   29.5893 O   0  0  0  0  0  0
  -37.2141   68.4975   31.5856 O   0  0  0  0  0  0
  -39.0233   63.4580   33.1020 N   0  0  0  0  0  0
  -37.7338   61.6104   32.9364 C   0  0  0  0  0  0
  -37.8243   62.9511   32.5783 C   0  0  0  0  0  0
  -36.7746   63.7316   31.9481 C   0  0  0  0  0  0
  -36.0414   63.0895   31.0430 N   0  0  0  0  0  0
  -36.5341   64.8980   32.2437 O   0  0  0  0  0  0
  -38.9104   61.2563   33.6545 C   0  0  0  0  0  0
  -39.7211   62.4232   33.7249 C   0  0  0  0  0  0
  -40.9865   62.4025   34.3389 C   0  0  0  0  0  0
  -41.4086   61.2077   34.9384 C   0  0  0  0  0  0
  -40.5980   60.0822   34.8971 C   0  0  0  0  0  0
  -39.3653   60.0744   34.2493 C   0  0  0  0  0  0
  -42.6143   61.0514   35.5954 O   0  0  0  0  0  0
  -43.5248   62.1470   35.6739 C   0  0  0  0  0  0
  -44.7309   61.7710   36.5478 C   0  0  0  0  0  0
  -45.5782   62.7968   36.6430 F   0  0  0  0  0  0
  -45.4043   60.7393   36.0378 F   0  0  0  0  0  0
  -44.3525   61.4479   37.7853 F   0  0  0  0  0  0
  -40.8429   67.2129   35.0330 H   0  0  0  0  0  0
  -40.0420   64.8961   35.1377 H   0  0  0  0  0  0
  -39.1431   65.0103   30.9354 H   0  0  0  0  0  0
  -40.7644   68.4588   32.9088 H   0  0  0  0  0  0
  -40.4149   68.5256   30.5542 H   0  0  0  0  0  0
  -40.6459   66.9670   29.8432 H   0  0  0  0  0  0
  -38.7544   67.9891   28.7090 H   0  0  0  0  0  0
  -38.0982   66.7043   29.6669 H   0  0  0  0  0  0
  -36.5157   70.1565   29.9849 H   0  0  0  0  0  0
  -36.8963   60.9615   32.7219 H   0  0  0  0  0  0
  -35.3351   63.6162   30.5468 H   0  0  0  0  0  0
  -36.3274   62.1846   30.7059 H   0  0  0  0  0  0
  -41.6080   63.2819   34.3534 H   0  0  0  0  0  0
  -40.9541   59.1885   35.3797 H   0  0  0  0  0  0
  -38.7706   59.1739   34.2170 H   0  0  0  0  0  0
  -43.0363   63.0210   36.1107 H   0  0  0  0  0  0
  -43.8663   62.4169   34.6725 H   0  0  0  0  0  0
  1  2  2  0  0  0
  1  6  1  0  0  0
  1 30  1  0  0  0
  2  3  1  0  0  0
  2 31  1  0  0  0
  3  4  2  0  0  0
  3 12  1  0  0  0
  4  5  1  0  0  0
  4 32  1  0  0  0
  5  6  2  0  0  0
  5  7  1  0  0  0
  6 33  1  0  0  0
  7  8  1  0  0  0
  7 34  1  0  0  0
  7 35  1  0  0  0
  8  9  1  0  0  0
  8 36  1  0  0  0
  8 37  1  0  0  0
  9 10  1  0  0  0
  9 11  2  0  0  0
 10 38  1  0  0  0
 12 19  1  0  0  0
 12 14  1  0  0  0
 13 18  1  0  0  0
 13 14  2  0  0  0
 13 39  1  0  0  0
 14 15  1  0  0  0
 15 16  1  0  0  0
 15 17  2  0  0  0
 16 40  1  0  0  0
 16 41  1  0  0  0
 18 19  2  0  0  0
 18 23  1  0  0  0
 19 20  1  0  0  0
 20 21  2  0  0  0
 20 42  1  0  0  0
 21 22  1  0  0  0
 21 24  1  0  0  0
 22 23  2  0  0  0
 22 43  1  0  0  0
 23 44  1  0  0  0
 24 25  1  0  0  0
 25 26  1  0  0  0
 25 45  1  0  0  0
 25 46  1  0  0  0
 26 27  1  0  0  0
 26 28  1  0  0  0
 26 29  1  0  0  0
M  END
> <s_m_entry_id>
68186

> <s_m_entry_name>
dock_pv.122

> <s_m_Source_Path>
/home/csk/Desktop/cluster/DUD-E-result/pa2ga

> <s_m_Source_File>
dock_pv.maegz

> <i_m_Source_File_Index>
122

> <chembl_id>
CHEMBL4175583

> <chembl_pref_name>
None

> <i_lp_mmshare_version>
53161

> <i_f3d_flags>
0

> <r_lp_tautomer_probability>
1

> <s_lp_Force_Field>
OPLS_2005

> <r_lp_Energy>
17.204841

> <b_lp_Chiralities_Consistent>
1

> <s_lp_Variant>
CHEMBL3474_lig342-1

> <s_i_glide_gridfile>
glide-grid_1kvo

> <i_i_glide_lignum>
431

> <i_i_glide_rotatable_bonds>
9

> <r_i_docking_score>
-7.74528807281201

> <r_i_glide_ligand_efficiency>
-0.267078899062483

> <r_i_glide_ligand_efficiency_sa>
-0.820550994454306

> <r_i_glide_ligand_efficiency_ln>
-1.77347456511459

> <r_i_glide_gscore>
-7.74528807281201

> <r_i_glide_lipo>
-3.25229580134666

> <r_i_glide_hbond>
-0.201130178607808

> <r_i_glide_metal>
0

> <r_i_glide_rewards>
-1.46738197981497

> <r_i_glide_evdw>
-46.4730224609375

> <r_i_glide_ecoul>
-7.49179124832153

> <r_i_glide_erotb>
0.714424369103439

> <r_i_glide_esite>
-0.0914846718509011

> <r_i_glide_emodel>
-81.0332186373792

> <r_i_glide_energy>
-53.964813709259

> <r_i_glide_einternal>
4.79664611816406

> <i_i_glide_confnum>
65

> <i_i_glide_posenum>
83

> <r_i_glide_eff_state_penalty>
0

> <s_user_duplicate_titles>
CHEMBL3474_lig342

> <s_m_subgroup_title>
dock_pv

> <s_m_subgroupid>
dock_pv

> <b_m_subgroup_collapsed>
1

$$$$
CHEMBL3474_lig101
                    3D
 Schrodinger Suite 2021-1.
 48 50  0  0  1  0            999 V2000
  -38.6388   62.8123   33.2029 C   0  0  0  0  0  0
  -40.0611   62.6366   34.9508 N   0  0  0  0  0  0
  -39.0609   61.9837   34.2433 C   0  0  0  0  0  0
  -39.4995   63.9814   33.2034 C   0  0  0  0  0  0
  -40.3346   63.8585   34.3560 C   0  0  0  0  0  0
  -37.5202   62.5084   32.2964 C   0  0  0  0  0  0
  -36.5927   63.6977   31.8180 C   0  0  0  0  0  0
  -40.7941   62.1221   36.1190 C   0  0  0  0  0  0
  -39.6958   65.1033   32.3556 C   0  0  0  0  0  0
  -38.2953   67.3440   30.4435 C   0  0  0  0  0  0
  -37.1737   61.3550   32.0288 O   0  0  0  0  0  0
  -38.9957   65.0980   31.1641 O   0  0  0  0  0  0
  -36.4155   64.7166   32.4851 O   0  0  0  0  0  0
  -42.2279   61.6748   35.8539 C   0  0  0  0  0  0
  -37.6151   67.5111   31.4569 O   0  0  0  0  0  0
  -36.0149   63.4787   30.6437 N   0  0  0  0  0  0
  -39.1768   66.1130   30.1700 C   0  0  0  0  0  0
  -38.5309   60.6143   34.6656 C   0  0  0  0  0  0
  -41.2562   64.8506   34.7201 C   0  0  0  0  0  0
  -43.1580   61.7280   36.8975 C   0  0  0  0  0  0
  -44.4730   61.3145   36.6942 C   0  0  0  0  0  0
  -38.3391   68.2197   29.3988 O   0  0  0  0  0  0
  -45.6103   61.3776   37.9893 Cl  0  0  0  0  0  0
  -41.3501   65.9732   33.9040 C   0  0  0  0  0  0
  -43.9446   60.7735   34.3992 C   0  0  0  0  0  0
  -40.6027   66.0968   32.7413 C   0  0  0  0  0  0
  -42.6293   61.1867   34.6027 C   0  0  0  0  0  0
  -44.8659   60.8448   35.4437 C   0  0  0  0  0  0
  -39.2972   59.4527   34.0185 C   0  0  0  0  0  0
  -40.8070   62.9233   36.8608 H   0  0  0  0  0  0
  -40.2640   61.2970   36.5868 H   0  0  0  0  0  0
  -35.4512   64.2229   30.2423 H   0  0  0  0  0  0
  -36.2368   62.6521   30.1095 H   0  0  0  0  0  0
  -38.8696   65.6769   29.2176 H   0  0  0  0  0  0
  -40.2251   66.3913   30.0607 H   0  0  0  0  0  0
  -37.4793   60.5155   34.3949 H   0  0  0  0  0  0
  -38.5196   60.4872   35.7458 H   0  0  0  0  0  0
  -41.8766   64.7571   35.5983 H   0  0  0  0  0  0
  -42.8630   62.0901   37.8724 H   0  0  0  0  0  0
  -38.8204   67.8798   28.6425 H   0  0  0  0  0  0
  -42.0485   66.7547   34.1680 H   0  0  0  0  0  0
  -44.2529   60.3963   33.4345 H   0  0  0  0  0  0
  -40.7524   66.9762   32.1358 H   0  0  0  0  0  0
  -41.9293   61.1277   33.7822 H   0  0  0  0  0  0
  -45.8830   60.5165   35.2816 H   0  0  0  0  0  0
  -38.8161   58.4989   34.2430 H   0  0  0  0  0  0
  -40.3247   59.4043   34.3787 H   0  0  0  0  0  0
  -39.3279   59.5586   32.9336 H   0  0  0  0  0  0
  1  3  2  0  0  0
  1  4  1  0  0  0
  1  6  1  0  0  0
  2  3  1  0  0  0
  2  8  1  0  0  0
  2  5  1  0  0  0
  3 18  1  0  0  0
  4  5  1  0  0  0
  4  9  2  0  0  0
  5 19  2  0  0  0
  6  7  1  0  0  0
  6 11  2  0  0  0
  7 13  2  0  0  0
  7 16  1  0  0  0
  8 14  1  0  0  0
  8 30  1  0  0  0
  8 31  1  0  0  0
  9 12  1  0  0  0
  9 26  1  0  0  0
 10 17  1  0  0  0
 10 15  2  0  0  0
 10 22  1  0  0  0
 12 17  1  0  0  0
 14 20  2  0  0  0
 14 27  1  0  0  0
 16 32  1  0  0  0
 16 33  1  0  0  0
 17 34  1  0  0  0
 17 35  1  0  0  0
 18 29  1  0  0  0
 18 36  1  0  0  0
 18 37  1  0  0  0
 19 24  1  0  0  0
 19 38  1  0  0  0
 20 21  1  0  0  0
 20 39  1  0  0  0
 21 23  1  0  0  0
 21 28  2  0  0  0
 22 40  1  0  0  0
 24 26  2  0  0  0
 24 41  1  0  0  0
 25 27  2  0  0  0
 25 28  1  0  0  0
 25 42  1  0  0  0
 26 43  1  0  0  0
 27 44  1  0  0  0
 28 45  1  0  0  0
 29 46  1  0  0  0
 29 47  1  0  0  0
 29 48  1  0  0  0
M  END
> <s_m_entry_id>
68187

> <s_m_entry_name>
dock_pv.123

> <s_m_Source_Path>
/home/csk/Desktop/cluster/DUD-E-result/pa2ga

> <s_m_Source_File>
dock_pv.maegz

> <i_m_Source_File_Index>
123

> <chembl_id>
CHEMBL345986

> <chembl_pref_name>
None

> <i_lp_mmshare_version>
53161

> <i_f3d_flags>
0

> <r_lp_tautomer_probability>
1

> <s_lp_Force_Field>
OPLS_2005

> <r_lp_Energy>
21.289413

> <b_lp_Chiralities_Consistent>
1

> <s_lp_Variant>
CHEMBL3474_lig101-1

> <s_i_glide_gridfile>
glide-grid_1kvo

> <i_i_glide_lignum>
159

> <i_i_glide_rotatable_bonds>
9

> <r_i_docking_score>
-7.74364924481287

> <r_i_glide_ligand_efficiency>
-0.267022387752168

> <r_i_glide_ligand_efficiency_sa>
-0.820377373804978

> <r_i_glide_ligand_efficiency_ln>
-1.77309931505988

> <r_i_glide_gscore>
-7.74364924481287

> <r_i_glide_lipo>
-3.4342917305691

> <r_i_glide_hbond>
-0.430551324625

> <r_i_glide_metal>
0

> <r_i_glide_rewards>
-1.00503797811681

> <r_i_glide_evdw>
-47.3957824707031

> <r_i_glide_ecoul>
-7.30518865585327

> <r_i_glide_erotb>
0.688282869634814

> <r_i_glide_esite>
-0.0964836592236275

> <r_i_glide_emodel>
-84.3639739297718

> <r_i_glide_energy>
-54.7009711265564

> <r_i_glide_einternal>
2.44504046440125

> <i_i_glide_confnum>
11

> <i_i_glide_posenum>
205

> <r_i_glide_eff_state_penalty>
0

> <s_user_duplicate_titles>
CHEMBL3474_lig101,248484

> <s_m_subgroup_title>
dock_pv

> <s_m_subgroupid>
dock_pv

> <b_m_subgroup_collapsed>
1

$$$$
CHEMBL3474_lig287
                    3D
 Schrodinger Suite 2021-1.
 54 57  0  0  1  0            999 V2000
  -40.2535   66.3496   32.9627 C   0  0  0  0  0  0
  -39.5161   65.2577   32.5067 C   0  0  0  0  0  0
  -39.3793   64.1072   33.3193 C   0  0  0  0  0  0
  -40.1824   63.9984   34.4969 C   0  0  0  0  0  0
  -40.0109   62.7095   35.0232 N   0  0  0  0  0  0
  -39.0338   62.0569   34.2764 C   0  0  0  0  0  0
  -38.5943   62.8910   33.2476 C   0  0  0  0  0  0
  -37.5141   62.5525   32.3007 C   0  0  0  0  0  0
  -36.4954   63.6867   31.8428 C   0  0  0  0  0  0
  -40.7368   62.0919   36.1491 C   0  0  0  0  0  0
  -42.1911   61.7099   35.8738 C   0  0  0  0  0  0
  -43.1083   61.7131   36.9289 C   0  0  0  0  0  0
  -44.4235   61.3104   36.7146 C   0  0  0  0  0  0
  -44.8157   60.8977   35.4453 C   0  0  0  0  0  0
  -43.9117   60.8881   34.3884 C   0  0  0  0  0  0
  -42.5992   61.2943   34.6009 C   0  0  0  0  0  0
  -38.5305   60.6602   34.6444 C   0  0  0  0  0  0
  -39.4095   59.5449   34.0683 C   0  0  0  0  0  0
  -37.2654   61.3852   31.9789 O   0  0  0  0  0  0
  -35.6964   63.2982   30.8552 N   0  0  0  0  0  0
  -36.4148   64.7895   32.3810 O   0  0  0  0  0  0
  -38.8981   65.1973   31.2705 O   0  0  0  0  0  0
  -39.1407   66.1730   30.2493 C   0  0  0  0  0  0
  -38.2722   67.4335   30.4339 C   0  0  0  0  0  0
  -38.3210   68.2277   29.3271 O   0  0  0  0  0  0
  -37.6144   67.6920   31.4438 O   0  0  0  0  0  0
  -40.9826   65.1087   34.9415 C   0  0  0  0  0  0
  -40.9488   66.3169   34.1818 C   0  0  0  0  0  0
  -41.6311   67.4672   34.6434 C   0  0  0  0  0  0
  -42.3852   67.4212   35.8084 C   0  0  0  0  0  0
  -42.4752   66.2419   36.5304 C   0  0  0  0  0  0
  -41.7917   65.1037   36.1170 C   0  0  0  0  0  0
  -40.3054   67.2542   32.3788 H   0  0  0  0  0  0
  -40.6276   62.7369   37.0180 H   0  0  0  0  0  0
  -40.2527   61.1720   36.4644 H   0  0  0  0  0  0
  -42.8045   62.0208   37.9180 H   0  0  0  0  0  0
  -45.1310   61.3124   37.5306 H   0  0  0  0  0  0
  -45.8342   60.5774   35.2768 H   0  0  0  0  0  0
  -44.2276   60.5564   33.4095 H   0  0  0  0  0  0
  -41.9040   61.2700   33.7741 H   0  0  0  0  0  0
  -37.5137   60.5090   34.2831 H   0  0  0  0  0  0
  -38.4176   60.5284   35.7170 H   0  0  0  0  0  0
  -38.9502   58.5735   34.2427 H   0  0  0  0  0  0
  -40.3986   59.5294   34.5247 H   0  0  0  0  0  0
  -39.5380   59.6703   32.9918 H   0  0  0  0  0  0
  -35.0618   63.9672   30.4354 H   0  0  0  0  0  0
  -35.8212   62.3819   30.4477 H   0  0  0  0  0  0
  -38.8834   65.6988   29.2988 H   0  0  0  0  0  0
  -40.1975   66.4374   30.2023 H   0  0  0  0  0  0
  -38.8083   67.8332   28.6025 H   0  0  0  0  0  0
  -41.5794   68.3826   34.0740 H   0  0  0  0  0  0
  -42.9144   68.2998   36.1472 H   0  0  0  0  0  0
  -43.0766   66.2087   37.4267 H   0  0  0  0  0  0
  -41.9141   64.2363   36.7311 H   0  0  0  0  0  0
  1 28  2  0  0  0
  1  2  1  0  0  0
  1 33  1  0  0  0
  2 22  1  0  0  0
  2  3  2  0  0  0
  3  7  1  0  0  0
  3  4  1  0  0  0
  4 27  2  0  0  0
  4  5  1  0  0  0
  5 10  1  0  0  0
  5  6  1  0  0  0
  6  7  2  0  0  0
  6 17  1  0  0  0
  7  8  1  0  0  0
  8 19  2  0  0  0
  8  9  1  0  0  0
  9 20  1  0  0  0
  9 21  2  0  0  0
 10 11  1  0  0  0
 10 34  1  0  0  0
 10 35  1  0  0  0
 11 16  1  0  0  0
 11 12  2  0  0  0
 12 13  1  0  0  0
 12 36  1  0  0  0
 13 14  2  0  0  0
 13 37  1  0  0  0
 14 15  1  0  0  0
 14 38  1  0  0  0
 15 16  2  0  0  0
 15 39  1  0  0  0
 16 40  1  0  0  0
 17 18  1  0  0  0
 17 41  1  0  0  0
 17 42  1  0  0  0
 18 43  1  0  0  0
 18 44  1  0  0  0
 18 45  1  0  0  0
 20 46  1  0  0  0
 20 47  1  0  0  0
 22 23  1  0  0  0
 23 24  1  0  0  0
 23 48  1  0  0  0
 23 49  1  0  0  0
 24 25  1  0  0  0
 24 26  2  0  0  0
 25 50  1  0  0  0
 27 28  1  0  0  0
 27 32  1  0  0  0
 28 29  1  0  0  0
 29 30  2  0  0  0
 29 51  1  0  0  0
 30 31  1  0  0  0
 30 52  1  0  0  0
 31 32  2  0  0  0
 31 53  1  0  0  0
 32 54  1  0  0  0
M  END
> <s_m_entry_id>
68188

> <s_m_entry_name>
dock_pv.124

> <s_m_Source_Path>
/home/csk/Desktop/cluster/DUD-E-result/pa2ga

> <s_m_Source_File>
dock_pv.maegz

> <i_m_Source_File_Index>
124

> <chembl_id>
CHEMBL515637

> <chembl_pref_name>
None

> <i_lp_mmshare_version>
53161

> <i_f3d_flags>
0

> <r_lp_tautomer_probability>
1

> <s_lp_Force_Field>
OPLS_2005

> <r_lp_Energy>
36.771321

> <b_lp_Chiralities_Consistent>
1

> <s_lp_Variant>
CHEMBL3474_lig287-1

> <s_i_glide_gridfile>
glide-grid_1kvo

> <i_i_glide_lignum>
372

> <i_i_glide_rotatable_bonds>
9

> <r_i_docking_score>
-7.73427828489423

> <r_i_glide_ligand_efficiency>
-0.241696196402945

> <r_i_glide_ligand_efficiency_sa>
-0.767337591967031

> <r_i_glide_ligand_efficiency_ln>
-1.73191573645126

> <r_i_glide_gscore>
-7.73427828489423

> <r_i_glide_lipo>
-3.58347807643423

> <r_i_glide_hbond>
-0.442315445481208

> <r_i_glide_metal>
0

> <r_i_glide_rewards>
-0.879499035929699

> <r_i_glide_evdw>
-51.1551132202148

> <r_i_glide_ecoul>
-5.51836252212524

> <r_i_glide_erotb>
0.643791818883948

> <r_i_glide_esite>
-0.0872675066035133

> <r_i_glide_emodel>
-84.6815926600941

> <r_i_glide_energy>
-56.6734757423401

> <r_i_glide_einternal>
5.10369968414307

> <i_i_glide_confnum>
56

> <i_i_glide_posenum>
180

> <r_i_glide_eff_state_penalty>
0

> <s_user_duplicate_titles>
CHEMBL3474_lig287,490091

> <s_m_subgroup_title>
dock_pv

> <s_m_subgroupid>
dock_pv

> <b_m_subgroup_collapsed>
1

$$$$
CHEMBL3474_lig105
                    3D
 Schrodinger Suite 2021-1.
 48 50  0  0  1  0            999 V2000
  -38.5523   62.8511   33.1037 C   0  0  0  0  0  0
  -39.9715   62.6477   34.8515 N   0  0  0  0  0  0
  -38.9669   62.0110   34.1380 C   0  0  0  0  0  0
  -39.4131   64.0193   33.1219 C   0  0  0  0  0  0
  -40.2527   63.8746   34.2691 C   0  0  0  0  0  0
  -37.4456   62.5396   32.1838 C   0  0  0  0  0  0
  -36.4503   63.6917   31.7292 C   0  0  0  0  0  0
  -40.6858   62.1270   36.0300 C   0  0  0  0  0  0
  -39.6107   65.1549   32.2959 C   0  0  0  0  0  0
  -38.3484   67.5056   30.4673 C   0  0  0  0  0  0
  -37.1529   61.3766   31.8948 O   0  0  0  0  0  0
  -38.8980   65.1864   31.1114 O   0  0  0  0  0  0
  -36.4151   64.8072   32.2447 O   0  0  0  0  0  0
  -37.6148   67.6640   31.4429 O   0  0  0  0  0  0
  -35.6151   63.2982   30.7718 N   0  0  0  0  0  0
  -39.1109   66.2096   30.1324 C   0  0  0  0  0  0
  -38.4258   60.6386   34.5314 C   0  0  0  0  0  0
  -41.1838   64.8525   34.6460 C   0  0  0  0  0  0
  -42.1310   61.6965   35.7960 C   0  0  0  0  0  0
  -38.5801   68.4609   29.5262 O   0  0  0  0  0  0
  -41.2854   65.9855   33.8467 C   0  0  0  0  0  0
  -40.5315   66.1317   32.6921 C   0  0  0  0  0  0
  -42.5223   61.0866   34.5992 C   0  0  0  0  0  0
  -43.0656   61.8892   36.8177 C   0  0  0  0  0  0
  -39.1260   59.4946   33.7839 C   0  0  0  0  0  0
  -44.3875   61.4901   36.6421 C   0  0  0  0  0  0
  -43.8429   60.6867   34.4234 C   0  0  0  0  0  0
  -44.7701   60.8969   35.4431 C   0  0  0  0  0  0
  -40.6676   62.9220   36.7785 H   0  0  0  0  0  0
  -40.1539   61.2923   36.4794 H   0  0  0  0  0  0
  -34.9865   63.9749   30.3532 H   0  0  0  0  0  0
  -35.7036   62.3693   30.3865 H   0  0  0  0  0  0
  -38.7293   65.8196   29.1882 H   0  0  0  0  0  0
  -40.1735   66.4004   29.9823 H   0  0  0  0  0  0
  -37.3615   60.5907   34.3042 H   0  0  0  0  0  0
  -38.4557   60.4551   35.5999 H   0  0  0  0  0  0
  -41.8137   64.7353   35.5167 H   0  0  0  0  0  0
  -38.0762   69.2562   29.7138 H   0  0  0  0  0  0
  -41.9936   66.7565   34.1125 H   0  0  0  0  0  0
  -40.6884   67.0155   32.0955 H   0  0  0  0  0  0
  -41.8101   60.9170   33.8043 H   0  0  0  0  0  0
  -42.7748   62.3498   37.7508 H   0  0  0  0  0  0
  -38.5501   58.5714   33.8579 H   0  0  0  0  0  0
  -40.1247   59.3058   34.1801 H   0  0  0  0  0  0
  -39.2251   59.7124   32.7187 H   0  0  0  0  0  0
  -45.1113   61.6390   37.4279 H   0  0  0  0  0  0
  -44.1509   60.2173   33.4999 H   0  0  0  0  0  0
  -45.7939   60.5855   35.2986 H   0  0  0  0  0  0
  1  3  2  0  0  0
  1  4  1  0  0  0
  1  6  1  0  0  0
  2  3  1  0  0  0
  2  8  1  0  0  0
  2  5  1  0  0  0
  3 17  1  0  0  0
  4  5  2  0  0  0
  4  9  1  0  0  0
  5 18  1  0  0  0
  6  7  1  0  0  0
  6 11  2  0  0  0
  7 13  2  0  0  0
  7 15  1  0  0  0
  8 19  1  0  0  0
  8 29  1  0  0  0
  8 30  1  0  0  0
  9 12  1  0  0  0
  9 22  2  0  0  0
 10 16  1  0  0  0
 10 14  2  0  0  0
 10 20  1  0  0  0
 12 16  1  0  0  0
 15 31  1  0  0  0
 15 32  1  0  0  0
 16 33  1  0  0  0
 16 34  1  0  0  0
 17 25  1  0  0  0
 17 35  1  0  0  0
 17 36  1  0  0  0
 18 21  2  0  0  0
 18 37  1  0  0  0
 19 23  2  0  0  0
 19 24  1  0  0  0
 20 38  1  0  0  0
 21 22  1  0  0  0
 21 39  1  0  0  0
 22 40  1  0  0  0
 23 27  1  0  0  0
 23 41  1  0  0  0
 24 26  2  0  0  0
 24 42  1  0  0  0
 25 43  1  0  0  0
 25 44  1  0  0  0
 25 45  1  0  0  0
 26 28  1  0  0  0
 26 46  1  0  0  0
 27 28  2  0  0  0
 27 47  1  0  0  0
 28 48  1  0  0  0
M  END
> <s_m_entry_id>
68189

> <s_m_entry_name>
dock_pv.125

> <s_m_Source_Path>
/home/csk/Desktop/cluster/DUD-E-result/pa2ga

> <s_m_Source_File>
dock_pv.maegz

> <i_m_Source_File_Index>
125

> <chembl_id>
CHEMBL148674

> <chembl_pref_name>
VARESPLADIB

> <i_lp_mmshare_version>
53161

> <i_f3d_flags>
0

> <r_lp_tautomer_probability>
1

> <s_lp_Force_Field>
OPLS_2005

> <r_lp_Energy>
21.859051

> <b_lp_Chiralities_Consistent>
1

> <s_lp_Variant>
CHEMBL3474_lig105-1

> <s_i_glide_gridfile>
glide-grid_1kvo

> <i_i_glide_lignum>
163

> <i_i_glide_rotatable_bonds>
9

> <r_i_docking_score>
-7.71296300591659

> <r_i_glide_ligand_efficiency>
-0.275462964497021

> <r_i_glide_ligand_efficiency_sa>
-0.836467799222737

> <r_i_glide_ligand_efficiency_ln>
-1.78037832419981

> <r_i_glide_gscore>
-7.71296300591659

> <r_i_glide_lipo>
-3.35839323034796

> <r_i_glide_hbond>
-0.464035644459167

> <r_i_glide_metal>
0

> <r_i_glide_rewards>
-1.26678777345995

> <r_i_glide_evdw>
-48.4006500244141

> <r_i_glide_ecoul>
-6.13831806182861

> <r_i_glide_erotb>
0.804426384495576

> <r_i_glide_esite>
-0.0873925316500918

> <r_i_glide_emodel>
-80.8545005460851

> <r_i_glide_energy>
-54.5389680862427

> <r_i_glide_einternal>
8.31385803222656

> <i_i_glide_confnum>
37

> <i_i_glide_posenum>
88

> <r_i_glide_eff_state_penalty>
0

> <s_user_duplicate_titles>
CHEMBL3474_lig105,248537

> <s_m_subgroup_title>
dock_pv

> <s_m_subgroupid>
dock_pv

> <b_m_subgroup_collapsed>
1

$$$$
CHEMBL3474_lig81
                    3D
 Schrodinger Suite 2021-1.
 53 55  0  0  1  0            999 V2000
  -40.1594   62.5824   35.0418 N   0  0  0  0  0  0
  -38.9466   62.9280   33.1555 C   0  0  0  0  0  0
  -39.2866   61.9978   34.1341 C   0  0  0  0  0  0
  -39.6706   64.1247   33.4716 C   0  0  0  0  0  0
  -40.4048   63.8939   34.6667 C   0  0  0  0  0  0
  -38.0769   71.7351   30.7843 S   0  0  0  0  0  0
  -38.0324   62.7388   31.9468 C   0  0  0  0  0  0
  -40.7900   61.9205   36.1920 C   0  0  0  0  0  0
  -41.1867   64.8972   35.2542 C   0  0  0  0  0  0
  -36.8222   63.6832   31.8431 C   0  0  0  0  0  0
  -39.7513   65.3818   32.8579 C   0  0  0  0  0  0
  -37.5429   72.2221   29.5110 O   0  0  0  0  0  0
  -38.8836   72.5828   31.6669 O   0  0  0  0  0  0
  -36.8150   71.1236   31.6603 O   0  0  0  0  0  0
  -36.7602   64.7627   32.4243 O   0  0  0  0  0  0
  -38.9721   70.1013   30.5037 C   0  0  0  0  0  0
  -40.4651   66.4161   33.4746 C   0  0  0  0  0  0
  -35.8409   63.2980   31.0429 N   0  0  0  0  0  0
  -41.1759   66.1532   34.6424 C   0  0  0  0  0  0
  -38.8354   60.5578   34.2993 C   0  0  0  0  0  0
  -42.2537   61.5501   35.9806 C   0  0  0  0  0  0
  -39.5237   69.5687   31.8428 C   0  0  0  0  0  0
  -40.4996   67.7168   33.0105 O   0  0  0  0  0  0
  -39.8104   68.0662   31.8127 C   0  0  0  0  0  0
  -42.6594   60.8716   34.8253 C   0  0  0  0  0  0
  -43.1936   61.8816   36.9621 C   0  0  0  0  0  0
  -44.5338   61.5564   36.7830 C   0  0  0  0  0  0
  -44.0015   60.5441   34.6466 C   0  0  0  0  0  0
  -44.9310   60.8978   35.6237 C   0  0  0  0  0  0
  -37.6741   61.7110   31.8867 H   0  0  0  0  0  0
  -38.6159   62.8982   31.0424 H   0  0  0  0  0  0
  -40.7061   62.6032   37.0389 H   0  0  0  0  0  0
  -40.2257   61.0308   36.4724 H   0  0  0  0  0  0
  -41.7522   64.7255   36.1597 H   0  0  0  0  0  0
  -39.2125   65.5345   31.9391 H   0  0  0  0  0  0
  -36.0743   70.8996   31.0459 H   0  0  0  0  0  0
  -38.2581   69.4207   30.0416 H   0  0  0  0  0  0
  -39.7667   70.2986   29.7855 H   0  0  0  0  0  0
  -35.0909   63.9468   30.8381 H   0  0  0  0  0  0
  -35.9359   62.4545   30.4983 H   0  0  0  0  0  0
  -41.7383   66.9564   35.0983 H   0  0  0  0  0  0
  -38.1895   60.2192   33.4913 H   0  0  0  0  0  0
  -38.2706   60.4300   35.2209 H   0  0  0  0  0  0
  -39.6750   59.8633   34.3376 H   0  0  0  0  0  0
  -40.4140   70.1286   32.1274 H   0  0  0  0  0  0
  -38.8085   69.7559   32.6429 H   0  0  0  0  0  0
  -38.8461   67.5690   31.7179 H   0  0  0  0  0  0
  -40.4233   67.7951   30.9523 H   0  0  0  0  0  0
  -41.9430   60.6033   34.0614 H   0  0  0  0  0  0
  -42.8895   62.3954   37.8642 H   0  0  0  0  0  0
  -45.2615   61.8174   37.5367 H   0  0  0  0  0  0
  -44.3226   60.0333   33.7504 H   0  0  0  0  0  0
  -45.9726   60.6483   35.4784 H   0  0  0  0  0  0
  1  3  1  0  0  0
  1  5  1  0  0  0
  1  8  1  0  0  0
  2  3  2  0  0  0
  2  7  1  0  0  0
  2  4  1  0  0  0
  3 20  1  0  0  0
  4  5  1  0  0  0
  4 11  2  0  0  0
  5  9  2  0  0  0
  6 16  1  0  0  0
  6 12  2  0  0  0
  6 13  2  0  0  0
  6 14  1  0  0  0
  7 10  1  0  0  0
  7 30  1  0  0  0
  7 31  1  0  0  0
  8 21  1  0  0  0
  8 32  1  0  0  0
  8 33  1  0  0  0
  9 19  1  0  0  0
  9 34  1  0  0  0
 10 15  2  0  0  0
 10 18  1  0  0  0
 11 17  1  0  0  0
 11 35  1  0  0  0
 14 36  1  0  0  0
 16 22  1  0  0  0
 16 37  1  0  0  0
 16 38  1  0  0  0
 17 19  2  0  0  0
 17 23  1  0  0  0
 18 39  1  0  0  0
 18 40  1  0  0  0
 19 41  1  0  0  0
 20 42  1  0  0  0
 20 43  1  0  0  0
 20 44  1  0  0  0
 21 25  1  0  0  0
 21 26  2  0  0  0
 22 24  1  0  0  0
 22 45  1  0  0  0
 22 46  1  0  0  0
 23 24  1  0  0  0
 24 47  1  0  0  0
 24 48  1  0  0  0
 25 28  2  0  0  0
 25 49  1  0  0  0
 26 27  1  0  0  0
 26 50  1  0  0  0
 27 29  2  0  0  0
 27 51  1  0  0  0
 28 29  1  0  0  0
 28 52  1  0  0  0
 29 53  1  0  0  0
M  END
> <s_m_entry_id>
68190

> <s_m_entry_name>
dock_pv.126

> <s_m_Source_Path>
/home/csk/Desktop/cluster/DUD-E-result/pa2ga

> <s_m_Source_File>
dock_pv.maegz

> <i_m_Source_File_Index>
126

> <chembl_id>
CHEMBL146568

> <chembl_pref_name>
None

> <i_lp_mmshare_version>
53161

> <i_f3d_flags>
0

> <r_lp_tautomer_probability>
1

> <s_lp_Force_Field>
OPLS_2005

> <r_lp_Energy>
4.215807

> <b_lp_Chiralities_Consistent>
1

> <s_lp_Variant>
CHEMBL3474_lig81-1

> <s_i_glide_gridfile>
glide-grid_1kvo

> <i_i_glide_lignum>
121

> <i_i_glide_rotatable_bonds>
10

> <r_i_docking_score>
-7.69676933554574

> <r_i_glide_ligand_efficiency>
-0.26540583915675

> <r_i_glide_ligand_efficiency_sa>
-0.815410824361311

> <r_i_glide_ligand_efficiency_ln>
-1.76236500460963

> <r_i_glide_gscore>
-7.69676933554574

> <r_i_glide_lipo>
-3.38837095345632

> <r_i_glide_hbond>
-0.301125052464982

> <r_i_glide_metal>
0

> <r_i_glide_rewards>
-0.804271174821695

> <r_i_glide_evdw>
-42.5070991516113

> <r_i_glide_ecoul>
-12.7175750732422

> <r_i_glide_erotb>
0.911142802472651

> <r_i_glide_esite>
-0.0811537387085039

> <r_i_glide_emodel>
-81.9435703572993

> <r_i_glide_energy>
-55.2246742248535

> <r_i_glide_einternal>
4.11624240875244

> <i_i_glide_confnum>
15

> <i_i_glide_posenum>
145

> <r_i_glide_eff_state_penalty>
0

> <s_user_duplicate_titles>
CHEMBL3474_lig81,246583

> <s_m_subgroup_title>
dock_pv

> <s_m_subgroupid>
dock_pv

> <b_m_subgroup_collapsed>
1

$$$$
CHEMBL3474_lig186
                    3D
 Schrodinger Suite 2021-1.
 44 46  0  0  1  0            999 V2000
  -40.4076   63.8753   34.7140 N   0  0  0  0  0  0
  -40.6735   64.9512   33.8831 C   0  0  0  0  0  0
  -39.8457   64.9022   32.7657 C   0  0  0  0  0  0
  -39.0384   63.7223   32.9261 C   0  0  0  0  0  0
  -39.3847   63.1206   34.1689 C   0  0  0  0  0  0
  -39.8331   65.8709   31.5816 C   0  0  0  0  0  0
  -41.1234   63.5434   35.9518 C   0  0  0  0  0  0
  -38.7417   61.9681   34.6418 C   0  0  0  0  0  0
  -38.4344   66.3182   31.1303 C   0  0  0  0  0  0
  -38.0488   63.1119   32.1398 C   0  0  0  0  0  0
  -41.8980   66.1647   34.2431 S   0  0  0  0  0  0
  -37.7091   67.0144   31.8430 O   0  0  0  0  0  0
  -37.4022   61.9624   32.6048 C   0  0  0  0  0  0
  -38.0151   65.8961   29.9419 N   0  0  0  0  0  0
  -37.7388   61.4269   33.8429 C   0  0  0  0  0  0
  -42.3143   62.5956   35.7842 C   0  0  0  0  0  0
  -36.4211   61.3072   31.9010 O   0  0  0  0  0  0
  -40.7788   67.3123   35.0864 C   0  0  0  0  0  0
  -42.2867   61.5255   34.8783 C   0  0  0  0  0  0
  -43.4472   62.7950   36.5792 C   0  0  0  0  0  0
  -36.3405   61.5020   30.4952 C   0  0  0  0  0  0
  -44.5460   61.9499   36.4592 C   0  0  0  0  0  0
  -43.3866   60.6804   34.7571 C   0  0  0  0  0  0
  -44.5119   60.8982   35.5468 C   0  0  0  0  0  0
  -40.3521   65.4128   30.7395 H   0  0  0  0  0  0
  -40.4006   66.7748   31.8010 H   0  0  0  0  0  0
  -40.4154   63.0950   36.6488 H   0  0  0  0  0  0
  -41.4444   64.4737   36.4213 H   0  0  0  0  0  0
  -39.0011   61.5037   35.5825 H   0  0  0  0  0  0
  -37.7886   63.5341   31.1824 H   0  0  0  0  0  0
  -37.0563   66.0986   29.6761 H   0  0  0  0  0  0
  -38.5442   65.2308   29.3927 H   0  0  0  0  0  0
  -37.2184   60.5426   34.1829 H   0  0  0  0  0  0
  -41.3320   68.1829   35.4385 H   0  0  0  0  0  0
  -40.3120   66.8321   35.9472 H   0  0  0  0  0  0
  -39.9954   67.6517   34.4075 H   0  0  0  0  0  0
  -41.4239   61.3398   34.2589 H   0  0  0  0  0  0
  -43.4835   63.6105   37.2876 H   0  0  0  0  0  0
  -35.6150   60.8044   30.0780 H   0  0  0  0  0  0
  -36.0151   62.5124   30.2478 H   0  0  0  0  0  0
  -37.2975   61.2978   30.0124 H   0  0  0  0  0  0
  -45.4237   62.1099   37.0684 H   0  0  0  0  0  0
  -43.3683   59.8615   34.0517 H   0  0  0  0  0  0
  -45.3685   60.2465   35.4510 H   0  0  0  0  0  0
  1  2  1  0  0  0
  1  5  1  0  0  0
  1  7  1  0  0  0
  2  3  2  0  0  0
  2 11  1  0  0  0
  3  6  1  0  0  0
  3  4  1  0  0  0
  4  5  1  0  0  0
  4 10  2  0  0  0
  5  8  2  0  0  0
  6  9  1  0  0  0
  6 25  1  0  0  0
  6 26  1  0  0  0
  7 16  1  0  0  0
  7 27  1  0  0  0
  7 28  1  0  0  0
  8 15  1  0  0  0
  8 29  1  0  0  0
  9 12  2  0  0  0
  9 14  1  0  0  0
 10 13  1  0  0  0
 10 30  1  0  0  0
 11 18  1  0  0  0
 13 15  2  0  0  0
 13 17  1  0  0  0
 14 31  1  0  0  0
 14 32  1  0  0  0
 15 33  1  0  0  0
 16 19  2  0  0  0
 16 20  1  0  0  0
 17 21  1  0  0  0
 18 34  1  0  0  0
 18 35  1  0  0  0
 18 36  1  0  0  0
 19 23  1  0  0  0
 19 37  1  0  0  0
 20 22  2  0  0  0
 20 38  1  0  0  0
 21 39  1  0  0  0
 21 40  1  0  0  0
 21 41  1  0  0  0
 22 24  1  0  0  0
 22 42  1  0  0  0
 23 24  2  0  0  0
 23 43  1  0  0  0
 24 44  1  0  0  0
M  END
> <s_m_entry_id>
68191

> <s_m_entry_name>
dock_pv.127

> <s_m_Source_Path>
/home/csk/Desktop/cluster/DUD-E-result/pa2ga

> <s_m_Source_File>
dock_pv.maegz

> <i_m_Source_File_Index>
127

> <chembl_id>
CHEMBL346893

> <chembl_pref_name>
None

> <i_lp_mmshare_version>
53161

> <i_f3d_flags>
0

> <r_lp_tautomer_probability>
1

> <s_lp_Force_Field>
OPLS_2005

> <r_lp_Energy>
11.220105

> <b_lp_Chiralities_Consistent>
1

> <s_lp_Variant>
CHEMBL3474_lig186-1

> <s_i_glide_gridfile>
glide-grid_1kvo

> <i_i_glide_lignum>
248

> <i_i_glide_rotatable_bonds>
6

> <r_i_docking_score>
-7.67657535197194

> <r_i_glide_ligand_efficiency>
-0.319857306332164

> <r_i_glide_ligand_efficiency_sa>
-0.922628124257111

> <r_i_glide_ligand_efficiency_ln>
-1.83735673681654

> <r_i_glide_gscore>
-7.67657535197194

> <r_i_glide_lipo>
-3.51074534693651

> <r_i_glide_hbond>
-0.268936420176505

> <r_i_glide_metal>
0

> <r_i_glide_rewards>
-1.21536145993722

> <r_i_glide_evdw>
-40.0578804016113

> <r_i_glide_ecoul>
-7.0389575958252

> <r_i_glide_erotb>
0.490184218209132

> <r_i_glide_esite>
-0.112978683676494

> <r_i_glide_emodel>
-70.7131162277924

> <r_i_glide_energy>
-47.0968379974365

> <r_i_glide_einternal>
3.27145576477051

> <i_i_glide_confnum>
5

> <i_i_glide_posenum>
318

> <r_i_glide_eff_state_penalty>
0

> <s_user_duplicate_titles>
CHEMBL3474_lig186,247370

> <s_m_subgroup_title>
dock_pv

> <s_m_subgroupid>
dock_pv

> <b_m_subgroup_collapsed>
1

$$$$
CHEMBL3474_lig354
                    3D
 Schrodinger Suite 2021-1.
 45 47  0  0  1  0            999 V2000
  -44.2430   60.9746   36.6191 F   0  0  0  0  0  0
  -43.3036   61.5507   35.8711 C   0  0  0  0  0  0
  -43.0195   62.7347   36.4144 F   0  0  0  0  0  0
  -41.0733   60.9561   35.0854 C   0  0  0  0  0  0
  -40.1889   59.8971   34.9310 C   0  0  0  0  0  0
  -39.0344   60.0029   34.1692 C   0  0  0  0  0  0
  -40.8062   62.1954   34.4779 C   0  0  0  0  0  0
  -39.6007   62.3370   33.7594 C   0  0  0  0  0  0
  -38.7184   61.2320   33.5899 C   0  0  0  0  0  0
  -37.6192   61.6819   32.8187 C   0  0  0  0  0  0
  -37.8121   63.0228   32.5258 C   0  0  0  0  0  0
  -39.0241   63.4349   33.1064 N   0  0  0  0  0  0
  -39.5681   64.7542   33.0960 C   0  0  0  0  0  0
  -39.4790   65.4538   31.9330 N   0  0  0  0  0  0
  -39.8852   66.7490   31.9187 C   0  0  0  0  0  0
  -40.4295   67.3819   33.0380 C   0  0  0  0  0  0
  -40.5793   66.6400   34.2093 C   0  0  0  0  0  0
  -40.1482   65.3127   34.2432 C   0  0  0  0  0  0
  -36.8142   63.8835   31.9221 C   0  0  0  0  0  0
  -36.0151   63.2980   31.0385 N   0  0  0  0  0  0
  -36.6484   65.0555   32.2430 O   0  0  0  0  0  0
  -39.6869   67.4806   30.6010 C   0  0  0  0  0  0
  -38.2441   68.0048   30.3685 C   0  0  2  0  0  0
  -37.7895   69.0586   31.3929 C   0  0  0  0  0  0
  -38.5785   70.1693   31.3855 O   0  0  0  0  0  0
  -36.8153   68.8981   32.1229 O   0  0  0  0  0  0
  -42.1767   60.6806   35.8694 O   0  0  0  0  0  0
  -43.8009   61.6980   34.6435 F   0  0  0  0  0  0
  -38.0358   68.4987   28.9260 C   0  0  0  0  0  0
  -40.4090   58.9605   35.4151 H   0  0  0  0  0  0
  -38.3827   59.1514   34.0481 H   0  0  0  0  0  0
  -41.4947   63.0176   34.5751 H   0  0  0  0  0  0
  -36.7527   61.0990   32.5416 H   0  0  0  0  0  0
  -40.7346   68.4172   33.0025 H   0  0  0  0  0  0
  -41.0027   67.0968   35.0925 H   0  0  0  0  0  0
  -40.2146   64.7606   35.1690 H   0  0  0  0  0  0
  -35.3287   63.8727   30.5644 H   0  0  0  0  0  0
  -36.2543   62.3909   30.6674 H   0  0  0  0  0  0
  -40.4153   68.2855   30.5120 H   0  0  0  0  0  0
  -39.9501   66.7673   29.8208 H   0  0  0  0  0  0
  -37.5747   67.1511   30.4881 H   0  0  0  0  0  0
  -39.2064   70.1510   30.6622 H   0  0  0  0  0  0
  -37.0308   68.8967   28.7675 H   0  0  0  0  0  0
  -38.1567   67.6601   28.2432 H   0  0  0  0  0  0
  -38.7463   69.2755   28.6404 H   0  0  0  0  0  0
  1  2  1  0  0  0
  2  3  1  0  0  0
  2 27  1  0  0  0
  2 28  1  0  0  0
  4  5  2  0  0  0
  4  7  1  0  0  0
  4 27  1  0  0  0
  5  6  1  0  0  0
  5 30  1  0  0  0
  6  9  2  0  0  0
  6 31  1  0  0  0
  7  8  2  0  0  0
  7 32  1  0  0  0
  8  9  1  0  0  0
  8 12  1  0  0  0
  9 10  1  0  0  0
 10 11  2  0  0  0
 10 33  1  0  0  0
 11 12  1  0  0  0
 11 19  1  0  0  0
 12 13  1  0  0  0
 13 14  2  0  0  0
 13 18  1  0  0  0
 14 15  1  0  0  0
 15 16  2  0  0  0
 15 22  1  0  0  0
 16 17  1  0  0  0
 16 34  1  0  0  0
 17 18  2  0  0  0
 17 35  1  0  0  0
 18 36  1  0  0  0
 19 20  1  0  0  0
 19 21  2  0  0  0
 20 37  1  0  0  0
 20 38  1  0  0  0
 22 23  1  0  0  0
 22 39  1  0  0  0
 22 40  1  0  0  0
 23 24  1  0  0  0
 23 29  1  0  0  0
 23 41  1  0  0  0
 24 25  1  0  0  0
 24 26  2  0  0  0
 25 42  1  0  0  0
 29 43  1  0  0  0
 29 44  1  0  0  0
 29 45  1  0  0  0
M  END
> <s_m_entry_id>
68192

> <s_m_entry_name>
dock_pv.128

> <s_m_Source_Path>
/home/csk/Desktop/cluster/DUD-E-result/pa2ga

> <s_m_Source_File>
dock_pv.maegz

> <i_m_Source_File_Index>
128

> <chembl_id>
CHEMBL4205511

> <chembl_pref_name>
None

> <i_lp_mmshare_version>
53161

> <i_f3d_flags>
0

> <r_lp_tautomer_probability>
1

> <s_lp_Force_Field>
OPLS_2005

> <r_lp_Energy>
11.668756

> <b_lp_Chiralities_Consistent>
1

> <s_lp_Variant>
CHEMBL3474_lig354-1

> <s_i_glide_gridfile>
glide-grid_1kvo

> <i_i_glide_lignum>
446

> <i_i_glide_rotatable_bonds>
8

> <r_i_docking_score>
-7.66392073869292

> <r_i_glide_ligand_efficiency>
-0.264273128920445

> <r_i_glide_ligand_efficiency_sa>
-0.811930779647592

> <r_i_glide_ligand_efficiency_ln>
-1.75484350889888

> <r_i_glide_gscore>
-7.66392073869292

> <r_i_glide_lipo>
-3.17961243629219

> <r_i_glide_hbond>
-0.172822665962289

> <r_i_glide_metal>
0

> <r_i_glide_rewards>
-1.80896134789122

> <r_i_glide_evdw>
-45.0715942382812

> <r_i_glide_ecoul>
-4.60798025131226

> <r_i_glide_erotb>
0.59275288973163

> <r_i_glide_esite>
-0.150500428667942

> <r_i_glide_emodel>
-75.8130087684783

> <r_i_glide_energy>
-49.6795744895935

> <r_i_glide_einternal>
6.25548076629639

> <i_i_glide_confnum>
32

> <i_i_glide_posenum>
133

> <r_i_glide_eff_state_penalty>
0

> <s_user_duplicate_titles>
CHEMBL3474_lig354

> <s_m_subgroup_title>
dock_pv

> <s_m_subgroupid>
dock_pv

> <b_m_subgroup_collapsed>
1

$$$$
CHEMBL3474_lig61
                    3D
 Schrodinger Suite 2021-1.
 46 48  0  0  1  0            999 V2000
  -40.1040   62.7571   34.9284 N   0  0  0  0  0  0
  -38.8259   62.9475   33.0679 C   0  0  0  0  0  0
  -39.1448   62.1327   34.1484 C   0  0  0  0  0  0
  -39.6707   64.1140   33.1685 C   0  0  0  0  0  0
  -40.4374   63.9779   34.3613 C   0  0  0  0  0  0
  -37.8398   62.6555   31.9436 C   0  0  0  0  0  0
  -40.7624   62.1912   36.1168 C   0  0  0  0  0  0
  -39.8650   65.2598   32.3683 C   0  0  0  0  0  0
  -36.6920   63.6659   31.7841 C   0  0  0  0  0  0
  -38.4146   67.5276   30.5088 C   0  0  0  0  0  0
  -39.1311   65.2885   31.1970 O   0  0  0  0  0  0
  -38.5971   68.5040   29.5801 O   0  0  0  0  0  0
  -36.4192   64.5022   32.6407 O   0  0  0  0  0  0
  -37.6138   67.6046   31.4428 O   0  0  0  0  0  0
  -39.3210   66.3193   30.2254 C   0  0  0  0  0  0
  -36.0153   63.6191   30.6446 N   0  0  0  0  0  0
  -41.3495   64.9607   34.7780 C   0  0  0  0  0  0
  -38.5974   60.7655   34.5190 C   0  0  0  0  0  0
  -42.1942   61.7226   35.8740 C   0  0  0  0  0  0
  -41.4810   66.0928   33.9773 C   0  0  0  0  0  0
  -40.7612   66.2438   32.8009 C   0  0  0  0  0  0
  -42.5048   60.9210   34.7705 C   0  0  0  0  0  0
  -43.1979   62.0861   36.7746 C   0  0  0  0  0  0
  -44.5099   61.6767   36.5583 C   0  0  0  0  0  0
  -43.8137   60.5052   34.5587 C   0  0  0  0  0  0
  -44.8116   60.8974   35.4459 C   0  0  0  0  0  0
  -37.3836   61.6723   32.0448 H   0  0  0  0  0  0
  -38.4026   62.6260   31.0117 H   0  0  0  0  0  0
  -40.7487   62.9595   36.8928 H   0  0  0  0  0  0
  -40.1872   61.3514   36.5067 H   0  0  0  0  0  0
  -38.0088   69.2439   29.7435 H   0  0  0  0  0  0
  -39.0289   65.8899   29.2656 H   0  0  0  0  0  0
  -40.3672   66.6115   30.1289 H   0  0  0  0  0  0
  -35.3388   64.3496   30.4404 H   0  0  0  0  0  0
  -36.3681   63.0554   29.8834 H   0  0  0  0  0  0
  -41.9296   64.8530   35.6817 H   0  0  0  0  0  0
  -37.9375   60.3555   33.7588 H   0  0  0  0  0  0
  -38.0156   60.8090   35.4382 H   0  0  0  0  0  0
  -39.3844   60.0276   34.6638 H   0  0  0  0  0  0
  -42.1704   66.8721   34.2748 H   0  0  0  0  0  0
  -40.9133   67.1398   32.2197 H   0  0  0  0  0  0
  -41.7370   60.6211   34.0737 H   0  0  0  0  0  0
  -42.9695   62.6897   37.6420 H   0  0  0  0  0  0
  -45.2913   61.9593   37.2488 H   0  0  0  0  0  0
  -44.0534   59.8898   33.7037 H   0  0  0  0  0  0
  -45.8288   60.5742   35.2766 H   0  0  0  0  0  0
  1  3  1  0  0  0
  1  5  1  0  0  0
  1  7  1  0  0  0
  2  3  2  0  0  0
  2  6  1  0  0  0
  2  4  1  0  0  0
  3 18  1  0  0  0
  4  5  1  0  0  0
  4  8  2  0  0  0
  5 17  2  0  0  0
  6  9  1  0  0  0
  6 27  1  0  0  0
  6 28  1  0  0  0
  7 19  1  0  0  0
  7 29  1  0  0  0
  7 30  1  0  0  0
  8 11  1  0  0  0
  8 21  1  0  0  0
  9 13  2  0  0  0
  9 16  1  0  0  0
 10 15  1  0  0  0
 10 12  1  0  0  0
 10 14  2  0  0  0
 11 15  1  0  0  0
 12 31  1  0  0  0
 15 32  1  0  0  0
 15 33  1  0  0  0
 16 34  1  0  0  0
 16 35  1  0  0  0
 17 20  1  0  0  0
 17 36  1  0  0  0
 18 37  1  0  0  0
 18 38  1  0  0  0
 18 39  1  0  0  0
 19 22  1  0  0  0
 19 23  2  0  0  0
 20 21  2  0  0  0
 20 40  1  0  0  0
 21 41  1  0  0  0
 22 25  2  0  0  0
 22 42  1  0  0  0
 23 24  1  0  0  0
 23 43  1  0  0  0
 24 26  2  0  0  0
 24 44  1  0  0  0
 25 26  1  0  0  0
 25 45  1  0  0  0
 26 46  1  0  0  0
M  END
> <s_m_entry_id>
68193

> <s_m_entry_name>
dock_pv.129

> <s_m_Source_Path>
/home/csk/Desktop/cluster/DUD-E-result/pa2ga

> <s_m_Source_File>
dock_pv.maegz

> <i_m_Source_File_Index>
129

> <chembl_id>
CHEMBL424500

> <chembl_pref_name>
None

> <i_lp_mmshare_version>
53161

> <i_f3d_flags>
0

> <r_lp_tautomer_probability>
1

> <s_lp_Force_Field>
OPLS_2005

> <r_lp_Energy>
14.358327

> <b_lp_Chiralities_Consistent>
1

> <s_lp_Variant>
CHEMBL3474_lig61-1

> <s_i_glide_gridfile>
glide-grid_1kvo

> <i_i_glide_lignum>
101

> <i_i_glide_rotatable_bonds>
8

> <r_i_docking_score>
-7.66277323062961

> <r_i_glide_ligand_efficiency>
-0.294722047331908

> <r_i_glide_ligand_efficiency_sa>
-0.87311290554552

> <r_i_glide_ligand_efficiency_ln>
-1.79957714960359

> <r_i_glide_gscore>
-7.66277323062961

> <r_i_glide_lipo>
-3.11789447930807

> <r_i_glide_hbond>
-0.5784679887372

> <r_i_glide_metal>
0

> <r_i_glide_rewards>
-1.23676936171533

> <r_i_glide_evdw>
-39.6011772155762

> <r_i_glide_ecoul>
-10.4928016662598

> <r_i_glide_erotb>
0.922134680923913

> <r_i_glide_esite>
-0.0977969710751548

> <r_i_glide_emodel>
-75.7910990094317

> <r_i_glide_energy>
-50.0939788818359

> <r_i_glide_einternal>
3.89507842063904

> <i_i_glide_confnum>
24

> <i_i_glide_posenum>
382

> <r_i_glide_eff_state_penalty>
0

> <s_user_duplicate_titles>
CHEMBL3474_lig61,CHEMBL3474_lig38,246914

> <s_m_subgroup_title>
dock_pv

> <s_m_subgroupid>
dock_pv

> <b_m_subgroup_collapsed>
1

$$$$
CHEMBL3474_lig84
                    3D
 Schrodinger Suite 2021-1.
 49 51  0  0  1  0            999 V2000
  -40.0664   62.7336   34.9494 N   0  0  0  0  0  0
  -38.7941   62.9693   33.0921 C   0  0  0  0  0  0
  -39.1040   62.1310   34.1561 C   0  0  0  0  0  0
  -39.6371   64.1358   33.2238 C   0  0  0  0  0  0
  -40.4178   63.9570   34.4029 C   0  0  0  0  0  0
  -37.8154   62.6836   31.9582 C   0  0  0  0  0  0
  -40.7140   62.1420   36.1278 C   0  0  0  0  0  0
  -39.8325   65.3092   32.4587 C   0  0  0  0  0  0
  -36.6797   63.6981   31.7916 C   0  0  0  0  0  0
  -38.8593   67.8258   30.6652 C   0  0  0  0  0  0
  -39.0482   65.4270   31.3268 O   0  0  0  0  0  0
  -36.4149   64.5412   32.6427 O   0  0  0  0  0  0
  -39.4817   68.8017   30.2426 O   0  0  0  0  0  0
  -39.3503   66.4075   30.3326 C   0  0  0  0  0  0
  -36.0151   63.6583   30.6456 N   0  0  0  0  0  0
  -41.3569   64.9072   34.8290 C   0  0  0  0  0  0
  -38.5546   60.7568   34.4970 C   0  0  0  0  0  0
  -42.1489   61.6862   35.8829 C   0  0  0  0  0  0
  -37.7466   67.8815   31.4428 O   0  0  0  0  0  0
  -41.5199   66.0449   34.0441 C   0  0  0  0  0  0
  -40.7844   66.2450   32.8827 C   0  0  0  0  0  0
  -42.4630   60.8927   34.7734 C   0  0  0  0  0  0
  -43.1532   62.0626   36.7798 C   0  0  0  0  0  0
  -37.2156   69.1519   31.8014 C   0  0  0  0  0  0
  -43.7787   60.4994   34.5514 C   0  0  0  0  0  0
  -44.4689   61.6664   36.5583 C   0  0  0  0  0  0
  -44.7754   60.8931   35.4428 C   0  0  0  0  0  0
  -37.3540   61.7025   32.0515 H   0  0  0  0  0  0
  -38.3759   62.6570   31.0250 H   0  0  0  0  0  0
  -40.6923   62.8953   36.9175 H   0  0  0  0  0  0
  -40.1337   61.2967   36.4973 H   0  0  0  0  0  0
  -38.8563   66.0957   29.4118 H   0  0  0  0  0  0
  -40.4160   66.4194   30.1008 H   0  0  0  0  0  0
  -35.3407   64.3889   30.4334 H   0  0  0  0  0  0
  -36.3743   63.0963   29.8869 H   0  0  0  0  0  0
  -41.9493   64.7634   35.7213 H   0  0  0  0  0  0
  -37.8566   60.3771   33.7528 H   0  0  0  0  0  0
  -38.0165   60.7778   35.4427 H   0  0  0  0  0  0
  -39.3439   60.0101   34.5890 H   0  0  0  0  0  0
  -42.2457   66.7879   34.3432 H   0  0  0  0  0  0
  -40.9650   67.1444   32.3160 H   0  0  0  0  0  0
  -41.6946   60.5904   34.0759 H   0  0  0  0  0  0
  -42.9211   62.6673   37.6452 H   0  0  0  0  0  0
  -36.4154   69.0398   32.5315 H   0  0  0  0  0  0
  -36.8150   69.6646   30.9257 H   0  0  0  0  0  0
  -37.9826   69.7888   32.2439 H   0  0  0  0  0  0
  -44.0272   59.8954   33.6898 H   0  0  0  0  0  0
  -45.2474   61.9605   37.2467 H   0  0  0  0  0  0
  -45.7966   60.5867   35.2653 H   0  0  0  0  0  0
  1  3  1  0  0  0
  1  5  1  0  0  0
  1  7  1  0  0  0
  2  3  2  0  0  0
  2  6  1  0  0  0
  2  4  1  0  0  0
  3 17  1  0  0  0
  4  5  1  0  0  0
  4  8  2  0  0  0
  5 16  2  0  0  0
  6  9  1  0  0  0
  6 28  1  0  0  0
  6 29  1  0  0  0
  7 18  1  0  0  0
  7 30  1  0  0  0
  7 31  1  0  0  0
  8 11  1  0  0  0
  8 21  1  0  0  0
  9 12  2  0  0  0
  9 15  1  0  0  0
 10 14  1  0  0  0
 10 13  2  0  0  0
 10 19  1  0  0  0
 11 14  1  0  0  0
 14 32  1  0  0  0
 14 33  1  0  0  0
 15 34  1  0  0  0
 15 35  1  0  0  0
 16 20  1  0  0  0
 16 36  1  0  0  0
 17 37  1  0  0  0
 17 38  1  0  0  0
 17 39  1  0  0  0
 18 22  2  0  0  0
 18 23  1  0  0  0
 19 24  1  0  0  0
 20 21  2  0  0  0
 20 40  1  0  0  0
 21 41  1  0  0  0
 22 25  1  0  0  0
 22 42  1  0  0  0
 23 26  2  0  0  0
 23 43  1  0  0  0
 24 44  1  0  0  0
 24 45  1  0  0  0
 24 46  1  0  0  0
 25 27  2  0  0  0
 25 47  1  0  0  0
 26 27  1  0  0  0
 26 48  1  0  0  0
 27 49  1  0  0  0
M  END
> <s_m_entry_id>
68195

> <s_m_entry_name>
dock_pv.131

> <s_m_Source_Path>
/home/csk/Desktop/cluster/DUD-E-result/pa2ga

> <s_m_Source_File>
dock_pv.maegz

> <i_m_Source_File_Index>
131

> <chembl_id>
CHEMBL148567

> <chembl_pref_name>
None

> <i_lp_mmshare_version>
53161

> <i_f3d_flags>
0

> <r_lp_tautomer_probability>
1

> <s_lp_Force_Field>
OPLS_2005

> <r_lp_Energy>
14.505082

> <b_lp_Chiralities_Consistent>
1

> <s_lp_Variant>
CHEMBL3474_lig84-1

> <s_i_glide_gridfile>
glide-grid_1kvo

> <i_i_glide_lignum>
124

> <i_i_glide_rotatable_bonds>
8

> <r_i_docking_score>
-7.65390063981794

> <r_i_glide_ligand_efficiency>
-0.283477801474739

> <r_i_glide_ligand_efficiency_sa>
-0.85043340348992

> <r_i_glide_ligand_efficiency_ln>
-1.78170188453572

> <r_i_glide_gscore>
-7.65390063981794

> <r_i_glide_lipo>
-3.12816928092911

> <r_i_glide_hbond>
-0.585920550379523

> <r_i_glide_metal>
0

> <r_i_glide_rewards>
-1.21174480746591

> <r_i_glide_evdw>
-40.8311767578125

> <r_i_glide_ecoul>
-9.67981147766113

> <r_i_glide_erotb>
0.860164192285609

> <r_i_glide_esite>
-0.0946996337892149

> <r_i_glide_emodel>
-75.7993773159387

> <r_i_glide_energy>
-50.5109882354736

> <r_i_glide_einternal>
6.48369646072388

> <i_i_glide_confnum>
40

> <i_i_glide_posenum>
275

> <r_i_glide_eff_state_penalty>
0

> <s_user_duplicate_titles>
CHEMBL3474_lig84

> <s_m_subgroup_title>
dock_pv

> <s_m_subgroupid>
dock_pv

> <b_m_subgroup_collapsed>
1

$$$$
CHEMBL3474_lig124
                    3D
 Schrodinger Suite 2021-1.
 47 49  0  0  1  0            999 V2000
  -38.7697   62.8879   33.0308 C   0  0  0  0  0  0
  -40.0041   62.6071   34.8941 N   0  0  0  0  0  0
  -39.0408   62.0289   34.0920 C   0  0  0  0  0  0
  -39.6915   64.0103   33.1176 C   0  0  0  0  0  0
  -40.3957   63.8199   34.3536 C   0  0  0  0  0  0
  -37.7345   62.6276   32.0320 C   0  0  0  0  0  0
  -36.5973   63.7147   31.8425 C   0  0  0  0  0  0
  -40.6232   62.0003   36.0804 C   0  0  0  0  0  0
  -40.0316   65.1419   32.3145 C   0  0  0  0  0  0
  -38.5500   67.7739   31.3108 C   0  0  0  0  0  0
  -37.6145   61.5286   31.4795 O   0  0  0  0  0  0
  -36.6265   64.8344   32.3519 O   0  0  0  0  0  0
  -39.0468   68.4940   32.1726 O   0  0  0  0  0  0
  -39.5371   65.3922   30.8791 C   0  0  0  0  0  0
  -35.6248   63.2980   31.0422 N   0  0  0  0  0  0
  -38.4461   60.6737   34.4446 C   0  0  0  0  0  0
  -39.3766   66.8628   30.3952 C   0  0  0  0  0  0
  -41.3347   64.7378   34.8379 C   0  0  0  0  0  0
  -42.0626   61.5450   35.8561 C   0  0  0  0  0  0
  -37.2170   67.6979   31.0430 O   0  0  0  0  0  0
  -41.5964   65.8512   34.0557 C   0  0  0  0  0  0
  -40.9822   66.0340   32.8276 C   0  0  0  0  0  0
  -43.0283   61.8158   36.8306 C   0  0  0  0  0  0
  -42.4228   60.8697   34.6846 C   0  0  0  0  0  0
  -43.7470   60.4997   34.4753 C   0  0  0  0  0  0
  -44.3520   61.4403   36.6234 C   0  0  0  0  0  0
  -44.7056   60.7934   35.4430 C   0  0  0  0  0  0
  -40.5950   62.7516   36.8710 H   0  0  0  0  0  0
  -40.0284   61.1589   36.4376 H   0  0  0  0  0  0
  -38.6093   64.8742   30.6744 H   0  0  0  0  0  0
  -40.2544   64.8976   30.2247 H   0  0  0  0  0  0
  -34.9109   63.9480   30.7365 H   0  0  0  0  0  0
  -35.6876   62.3746   30.6364 H   0  0  0  0  0  0
  -37.6480   60.3637   33.7717 H   0  0  0  0  0  0
  -38.0149   60.6785   35.4427 H   0  0  0  0  0  0
  -39.1984   59.8849   34.4216 H   0  0  0  0  0  0
  -38.9447   66.8728   29.3937 H   0  0  0  0  0  0
  -40.3589   67.3188   30.2777 H   0  0  0  0  0  0
  -41.8575   64.5869   35.7718 H   0  0  0  0  0  0
  -37.0296   67.0908   30.3132 H   0  0  0  0  0  0
  -42.3254   66.5734   34.3941 H   0  0  0  0  0  0
  -41.2823   66.8954   32.2534 H   0  0  0  0  0  0
  -42.7608   62.3269   37.7437 H   0  0  0  0  0  0
  -41.6850   60.6452   33.9278 H   0  0  0  0  0  0
  -44.0332   59.9892   33.5671 H   0  0  0  0  0  0
  -45.1019   61.6562   37.3703 H   0  0  0  0  0  0
  -45.7345   60.5085   35.2757 H   0  0  0  0  0  0
  1  3  2  0  0  0
  1  4  1  0  0  0
  1  6  1  0  0  0
  2  3  1  0  0  0
  2  8  1  0  0  0
  2  5  1  0  0  0
  3 16  1  0  0  0
  4  5  1  0  0  0
  4  9  2  0  0  0
  5 18  2  0  0  0
  6  7  1  0  0  0
  6 11  2  0  0  0
  7 12  2  0  0  0
  7 15  1  0  0  0
  8 19  1  0  0  0
  8 28  1  0  0  0
  8 29  1  0  0  0
  9 14  1  0  0  0
  9 22  1  0  0  0
 10 17  1  0  0  0
 10 13  2  0  0  0
 10 20  1  0  0  0
 14 17  1  0  0  0
 14 30  1  0  0  0
 14 31  1  0  0  0
 15 32  1  0  0  0
 15 33  1  0  0  0
 16 34  1  0  0  0
 16 35  1  0  0  0
 16 36  1  0  0  0
 17 37  1  0  0  0
 17 38  1  0  0  0
 18 21  1  0  0  0
 18 39  1  0  0  0
 19 23  1  0  0  0
 19 24  2  0  0  0
 20 40  1  0  0  0
 21 22  2  0  0  0
 21 41  1  0  0  0
 22 42  1  0  0  0
 23 26  2  0  0  0
 23 43  1  0  0  0
 24 25  1  0  0  0
 24 44  1  0  0  0
 25 27  2  0  0  0
 25 45  1  0  0  0
 26 27  1  0  0  0
 26 46  1  0  0  0
 27 47  1  0  0  0
M  END
> <s_m_entry_id>
68196

> <s_m_entry_name>
dock_pv.132

> <s_m_Source_Path>
/home/csk/Desktop/cluster/DUD-E-result/pa2ga

> <s_m_Source_File>
dock_pv.maegz

> <i_m_Source_File_Index>
132

> <chembl_id>
CHEMBL149779

> <chembl_pref_name>
None

> <i_lp_mmshare_version>
53161

> <i_f3d_flags>
0

> <r_lp_tautomer_probability>
1

> <s_lp_Force_Field>
OPLS_2005

> <r_lp_Energy>
23.250514

> <b_lp_Chiralities_Consistent>
1

> <s_lp_Variant>
CHEMBL3474_lig124-1

> <s_i_glide_gridfile>
glide-grid_1kvo

> <i_i_glide_lignum>
183

> <i_i_glide_rotatable_bonds>
8

> <r_i_docking_score>
-7.65231546597828

> <r_i_glide_ligand_efficiency>
-0.283419091332529

> <r_i_glide_ligand_efficiency_sa>
-0.850257273063484

> <r_i_glide_ligand_efficiency_ln>
-1.78133288219948

> <r_i_glide_gscore>
-7.65231546597828

> <r_i_glide_lipo>
-3.22269953485592

> <r_i_glide_hbond>
-0.378254074550173

> <r_i_glide_metal>
0

> <r_i_glide_rewards>
-1.35959755500905

> <r_i_glide_evdw>
-44.402400970459

> <r_i_glide_ecoul>
-8.30033016204834

> <r_i_glide_erotb>
0.868677262070115

> <r_i_glide_esite>
-0.0952719908030569

> <r_i_glide_emodel>
-79.5625529615129

> <r_i_glide_energy>
-52.7027311325073

> <r_i_glide_einternal>
3.95223689079285

> <i_i_glide_confnum>
97

> <i_i_glide_posenum>
220

> <r_i_glide_eff_state_penalty>
0

> <s_user_duplicate_titles>
CHEMBL3474_lig124,248571

> <s_m_subgroup_title>
dock_pv

> <s_m_subgroupid>
dock_pv

> <b_m_subgroup_collapsed>
1

$$$$
CHEMBL3474_lig82
                    3D
 Schrodinger Suite 2021-1.
 43 45  0  0  1  0            999 V2000
  -40.0740   62.7404   34.9088 N   0  0  0  0  0  0
  -38.7489   62.9357   33.0868 C   0  0  0  0  0  0
  -39.0617   62.1330   34.1748 C   0  0  0  0  0  0
  -39.6066   64.0803   33.1542 C   0  0  0  0  0  0
  -40.4165   63.9462   34.3131 C   0  0  0  0  0  0
  -37.7379   62.6360   31.9911 C   0  0  0  0  0  0
  -40.7599   62.1996   36.0899 C   0  0  0  0  0  0
  -41.3600   64.9232   34.6718 C   0  0  0  0  0  0
  -36.6373   63.6848   31.7852 C   0  0  0  0  0  0
  -39.7661   65.2119   32.3396 C   0  0  0  0  0  0
  -36.6861   64.8247   32.2433 O   0  0  0  0  0  0
  -40.6868   66.1873   32.7009 C   0  0  0  0  0  0
  -35.6151   63.2980   31.0425 N   0  0  0  0  0  0
  -41.4632   66.0436   33.8453 C   0  0  0  0  0  0
  -38.4382   60.7930   34.5429 C   0  0  0  0  0  0
  -42.1931   61.7391   35.8391 C   0  0  0  0  0  0
  -40.8148   67.2975   31.9146 O   0  0  0  0  0  0
  -43.1567   61.9614   36.8268 C   0  0  0  0  0  0
  -42.5449   61.0841   34.6541 C   0  0  0  0  0  0
  -38.9782   59.6423   33.6823 C   0  0  0  0  0  0
  -44.4678   61.5418   36.6296 C   0  0  0  0  0  0
  -43.8571   60.6625   34.4580 C   0  0  0  0  0  0
  -44.8110   60.8979   35.4446 C   0  0  0  0  0  0
  -37.2550   61.6743   32.1678 H   0  0  0  0  0  0
  -38.2586   62.5218   31.0423 H   0  0  0  0  0  0
  -40.2104   61.3688   36.5250 H   0  0  0  0  0  0
  -40.7586   62.9905   36.8428 H   0  0  0  0  0  0
  -41.9820   64.8242   35.5512 H   0  0  0  0  0  0
  -39.1644   65.3245   31.4512 H   0  0  0  0  0  0
  -34.9288   63.9890   30.7658 H   0  0  0  0  0  0
  -35.6166   62.3879   30.6026 H   0  0  0  0  0  0
  -42.1697   66.8171   34.1018 H   0  0  0  0  0  0
  -37.3582   60.8547   34.3938 H   0  0  0  0  0  0
  -38.5369   60.5327   35.5923 H   0  0  0  0  0  0
  -40.2481   67.2591   31.1424 H   0  0  0  0  0  0
  -42.8940   62.4591   37.7496 H   0  0  0  0  0  0
  -41.8117   60.9054   33.8820 H   0  0  0  0  0  0
  -38.4149   58.7262   33.8493 H   0  0  0  0  0  0
  -40.0229   59.4337   33.9048 H   0  0  0  0  0  0
  -38.9060   59.8694   32.6189 H   0  0  0  0  0  0
  -45.2122   61.7188   37.3914 H   0  0  0  0  0  0
  -44.1348   60.1589   33.5430 H   0  0  0  0  0  0
  -45.8289   60.5721   35.2862 H   0  0  0  0  0  0
  1  3  1  0  0  0
  1  5  1  0  0  0
  1  7  1  0  0  0
  2  3  2  0  0  0
  2  6  1  0  0  0
  2  4  1  0  0  0
  3 15  1  0  0  0
  4  5  1  0  0  0
  4 10  2  0  0  0
  5  8  2  0  0  0
  6  9  1  0  0  0
  6 24  1  0  0  0
  6 25  1  0  0  0
  7 16  1  0  0  0
  7 26  1  0  0  0
  7 27  1  0  0  0
  8 14  1  0  0  0
  8 28  1  0  0  0
  9 11  2  0  0  0
  9 13  1  0  0  0
 10 12  1  0  0  0
 10 29  1  0  0  0
 12 14  2  0  0  0
 12 17  1  0  0  0
 13 30  1  0  0  0
 13 31  1  0  0  0
 14 32  1  0  0  0
 15 20  1  0  0  0
 15 33  1  0  0  0
 15 34  1  0  0  0
 16 18  1  0  0  0
 16 19  2  0  0  0
 17 35  1  0  0  0
 18 21  2  0  0  0
 18 36  1  0  0  0
 19 22  1  0  0  0
 19 37  1  0  0  0
 20 38  1  0  0  0
 20 39  1  0  0  0
 20 40  1  0  0  0
 21 23  1  0  0  0
 21 41  1  0  0  0
 22 23  2  0  0  0
 22 42  1  0  0  0
 23 43  1  0  0  0
M  END
> <s_m_entry_id>
68197

> <s_m_entry_name>
dock_pv.133

> <s_m_Source_Path>
/home/csk/Desktop/cluster/DUD-E-result/pa2ga

> <s_m_Source_File>
dock_pv.maegz

> <i_m_Source_File_Index>
133

> <chembl_id>
CHEMBL148784

> <chembl_pref_name>
None

> <i_lp_mmshare_version>
53161

> <i_f3d_flags>
0

> <r_lp_tautomer_probability>
1

> <s_lp_Force_Field>
OPLS_2005

> <r_lp_Energy>
8.493095

> <b_lp_Chiralities_Consistent>
1

> <s_lp_Variant>
CHEMBL3474_lig82-1

> <s_i_glide_gridfile>
glide-grid_1kvo

> <i_i_glide_lignum>
122

> <i_i_glide_rotatable_bonds>
6

> <r_i_docking_score>
-7.64099092438894

> <r_i_glide_ligand_efficiency>
-0.332216996712563

> <r_i_glide_ligand_efficiency_sa>
-0.944780946108861

> <r_i_glide_ligand_efficiency_ln>
-1.84766089019234

> <r_i_glide_gscore>
-7.64099092438894

> <r_i_glide_lipo>
-3.49898932285983

> <r_i_glide_hbond>
-0.306981046703846

> <r_i_glide_metal>
0

> <r_i_glide_rewards>
-1.54134369578221

> <r_i_glide_evdw>
-39.0115432739258

> <r_i_glide_ecoul>
-5.72179508209229

> <r_i_glide_erotb>
0.583647674388178

> <r_i_glide_esite>
-0.0684781074211005

> <r_i_glide_emodel>
-66.237884190313

> <r_i_glide_energy>
-44.7333383560181

> <r_i_glide_einternal>
2.38512063026428

> <i_i_glide_confnum>
2

> <i_i_glide_posenum>
348

> <r_i_glide_eff_state_penalty>
0

> <s_user_duplicate_titles>
CHEMBL3474_lig82,246620

> <s_m_subgroup_title>
dock_pv

> <s_m_subgroupid>
dock_pv

> <b_m_subgroup_collapsed>
1

$$$$
CHEMBL3474_lig59
                    3D
 Schrodinger Suite 2021-1.
 48 50  0  0  1  0            999 V2000
  -40.1145   62.6602   34.9609 N   0  0  0  0  0  0
  -38.8740   62.8739   33.0802 C   0  0  0  0  0  0
  -39.1716   62.0451   34.1560 C   0  0  0  0  0  0
  -39.7257   64.0333   33.2015 C   0  0  0  0  0  0
  -40.4704   63.8790   34.4077 C   0  0  0  0  0  0
  -38.6346   67.8376   30.7170 P   0  0  0  0  0  0
  -37.8977   62.5878   31.9470 C   0  0  0  0  0  0
  -40.7534   62.0795   36.1479 C   0  0  0  0  0  0
  -39.5160   66.2761   30.2695 C   0  0  0  0  0  0
  -39.9522   65.1830   32.4101 C   0  0  0  0  0  0
  -36.7066   63.5445   31.8430 C   0  0  0  0  0  0
  -39.2297   65.2597   31.2326 O   0  0  0  0  0  0
  -39.3092   68.8326   31.5910 O   0  0  0  0  0  0
  -36.5430   64.4997   32.5991 O   0  0  0  0  0  0
  -37.2150   67.2972   31.2807 O   0  0  0  0  0  0
  -38.2203   68.4205   29.2656 O   0  0  0  0  0  0
  -35.8590   63.2984   30.8580 N   0  0  0  0  0  0
  -41.3938   64.8405   34.8446 C   0  0  0  0  0  0
  -38.6270   60.6698   34.5004 C   0  0  0  0  0  0
  -42.1909   61.6325   35.9086 C   0  0  0  0  0  0
  -41.5671   65.9686   34.0475 C   0  0  0  0  0  0
  -40.8740   66.1376   32.8566 C   0  0  0  0  0  0
  -42.5154   60.8683   34.7831 C   0  0  0  0  0  0
  -43.1880   62.0005   36.8151 C   0  0  0  0  0  0
  -44.5082   61.6305   36.5833 C   0  0  0  0  0  0
  -43.8358   60.5036   34.5483 C   0  0  0  0  0  0
  -44.8246   60.8955   35.4460 C   0  0  0  0  0  0
  -37.4963   61.5778   32.0112 H   0  0  0  0  0  0
  -38.4150   62.6307   30.9922 H   0  0  0  0  0  0
  -40.7261   62.8397   36.9302 H   0  0  0  0  0  0
  -40.1734   61.2357   36.5213 H   0  0  0  0  0  0
  -39.1426   65.9325   29.3056 H   0  0  0  0  0  0
  -40.5837   66.4467   30.1411 H   0  0  0  0  0  0
  -36.7402   66.7075   30.6429 H   0  0  0  0  0  0
  -38.4741   69.3544   29.1195 H   0  0  0  0  0  0
  -35.1140   63.9545   30.6623 H   0  0  0  0  0  0
  -36.0759   62.5797   30.1867 H   0  0  0  0  0  0
  -41.9621   64.7152   35.7551 H   0  0  0  0  0  0
  -37.9328   60.2841   33.7566 H   0  0  0  0  0  0
  -38.0857   60.6890   35.4427 H   0  0  0  0  0  0
  -39.4185   59.9272   34.5968 H   0  0  0  0  0  0
  -42.2727   66.7263   34.3592 H   0  0  0  0  0  0
  -41.0660   67.0317   32.2836 H   0  0  0  0  0  0
  -41.7528   60.5695   34.0806 H   0  0  0  0  0  0
  -42.9466   62.5808   37.6938 H   0  0  0  0  0  0
  -45.2827   61.9191   37.2790 H   0  0  0  0  0  0
  -44.0945   59.9258   33.6734 H   0  0  0  0  0  0
  -45.8506   60.6107   35.2609 H   0  0  0  0  0  0
  1  3  1  0  0  0
  1  5  1  0  0  0
  1  8  1  0  0  0
  2  3  2  0  0  0
  2  7  1  0  0  0
  2  4  1  0  0  0
  3 19  1  0  0  0
  4  5  1  0  0  0
  4 10  2  0  0  0
  5 18  2  0  0  0
  6  9  1  0  0  0
  6 13  2  0  0  0
  6 15  1  0  0  0
  6 16  1  0  0  0
  7 11  1  0  0  0
  7 28  1  0  0  0
  7 29  1  0  0  0
  8 20  1  0  0  0
  8 30  1  0  0  0
  8 31  1  0  0  0
  9 12  1  0  0  0
  9 32  1  0  0  0
  9 33  1  0  0  0
 10 12  1  0  0  0
 10 22  1  0  0  0
 11 14  2  0  0  0
 11 17  1  0  0  0
 15 34  1  0  0  0
 16 35  1  0  0  0
 17 36  1  0  0  0
 17 37  1  0  0  0
 18 21  1  0  0  0
 18 38  1  0  0  0
 19 39  1  0  0  0
 19 40  1  0  0  0
 19 41  1  0  0  0
 20 23  1  0  0  0
 20 24  2  0  0  0
 21 22  2  0  0  0
 21 42  1  0  0  0
 22 43  1  0  0  0
 23 26  2  0  0  0
 23 44  1  0  0  0
 24 25  1  0  0  0
 24 45  1  0  0  0
 25 27  2  0  0  0
 25 46  1  0  0  0
 26 27  1  0  0  0
 26 47  1  0  0  0
 27 48  1  0  0  0
M  END
> <s_m_entry_id>
68198

> <s_m_entry_name>
dock_pv.134

> <s_m_Source_Path>
/home/csk/Desktop/cluster/DUD-E-result/pa2ga

> <s_m_Source_File>
dock_pv.maegz

> <i_m_Source_File_Index>
134

> <chembl_id>
CHEMBL359067

> <chembl_pref_name>
None

> <i_lp_mmshare_version>
53161

> <i_f3d_flags>
0

> <r_lp_tautomer_probability>
1

> <s_lp_Force_Field>
OPLS_2005

> <r_lp_Energy>
8.872817

> <b_lp_Chiralities_Consistent>
1

> <s_lp_Variant>
CHEMBL3474_lig59-1

> <s_i_glide_gridfile>
glide-grid_1kvo

> <i_i_glide_lignum>
99

> <i_i_glide_rotatable_bonds>
9

> <r_i_docking_score>
-7.63833095370723

> <r_i_glide_ligand_efficiency>
-0.282901146433601

> <r_i_glide_ligand_efficiency_sa>
-0.848703438368408

> <r_i_glide_ligand_efficiency_ln>
-1.77807751829549

> <r_i_glide_gscore>
-7.63833095370723

> <r_i_glide_lipo>
-3.16585719783025

> <r_i_glide_hbond>
-0.337426687548697

> <r_i_glide_metal>
0

> <r_i_glide_rewards>
-0.995859717434311

> <r_i_glide_evdw>
-40.9202194213867

> <r_i_glide_ecoul>
-12.2476949691772

> <r_i_glide_erotb>
0.775094046802452

> <r_i_glide_esite>
-0.0311161812505016

> <r_i_glide_emodel>
-82.5757332848158

> <r_i_glide_energy>
-53.167914390564

> <r_i_glide_einternal>
4.15138912200928

> <i_i_glide_confnum>
88

> <i_i_glide_posenum>
295

> <r_i_glide_eff_state_penalty>
0

> <s_user_duplicate_titles>
CHEMBL3474_lig59

> <s_m_subgroup_title>
dock_pv

> <s_m_subgroupid>
dock_pv

> <b_m_subgroup_collapsed>
1

$$$$
CHEMBL3474_lig164
                    3D
 Schrodinger Suite 2021-1.
 42 44  0  0  1  0            999 V2000
  -40.4256   62.2753   34.6060 N   0  0  0  0  0  0
  -39.3073   61.7347   33.9578 C   0  0  0  0  0  0
  -38.8132   62.6337   33.0174 C   0  0  0  0  0  0
  -40.6420   63.5554   34.0896 C   0  0  0  0  0  0
  -39.6825   63.7742   33.0610 C   0  0  0  0  0  0
  -41.2134   61.5643   35.5830 C   0  0  0  0  0  0
  -37.6280   62.4276   32.0648 C   0  0  0  0  0  0
  -41.6117   64.5304   34.3872 C   0  0  0  0  0  0
  -36.7172   63.6465   31.8430 C   0  0  0  0  0  0
  -39.7386   64.9651   32.3164 C   0  0  0  0  0  0
  -41.3792   60.3454   35.4966 O   0  0  0  0  0  0
  -41.8732   62.3218   36.7102 C   0  0  0  0  0  0
  -36.6467   64.5725   32.6428 O   0  0  0  0  0  0
  -38.7667   60.3426   34.2745 C   0  0  0  0  0  0
  -40.6926   65.9416   32.6186 C   0  0  0  0  0  0
  -36.0181   63.6980   30.7206 N   0  0  0  0  0  0
  -41.5910   65.7160   33.6545 C   0  0  0  0  0  0
  -40.8149   67.1385   31.9391 O   0  0  0  0  0  0
  -43.1456   61.9347   37.1506 C   0  0  0  0  0  0
  -41.2150   63.3794   37.3532 C   0  0  0  0  0  0
  -39.9496   67.4035   30.8384 C   0  0  0  0  0  0
  -41.8214   64.0400   38.4176 C   0  0  0  0  0  0
  -43.7526   62.5979   38.2134 C   0  0  0  0  0  0
  -43.0872   63.6462   38.8431 C   0  0  0  0  0  0
  -36.9826   61.6140   32.3916 H   0  0  0  0  0  0
  -38.0138   62.1205   31.0918 H   0  0  0  0  0  0
  -42.3697   64.3866   35.1424 H   0  0  0  0  0  0
  -39.0356   65.1169   31.5144 H   0  0  0  0  0  0
  -37.7758   60.1646   33.8601 H   0  0  0  0  0  0
  -38.6807   60.1615   35.3464 H   0  0  0  0  0  0
  -39.4139   59.5633   33.8700 H   0  0  0  0  0  0
  -35.5513   64.5862   30.5035 H   0  0  0  0  0  0
  -36.1894   63.0356   29.9790 H   0  0  0  0  0  0
  -42.3282   66.4745   33.8734 H   0  0  0  0  0  0
  -43.6681   61.1143   36.6780 H   0  0  0  0  0  0
  -40.2297   63.6958   37.0412 H   0  0  0  0  0  0
  -40.1980   68.3712   30.4043 H   0  0  0  0  0  0
  -40.0578   66.6543   30.0525 H   0  0  0  0  0  0
  -38.9054   67.4428   31.1522 H   0  0  0  0  0  0
  -41.3102   64.8505   38.9156 H   0  0  0  0  0  0
  -44.7319   62.2944   38.5531 H   0  0  0  0  0  0
  -43.5560   64.1563   39.6723 H   0  0  0  0  0  0
  1  2  1  0  0  0
  1  4  1  0  0  0
  1  6  1  0  0  0
  2  3  2  0  0  0
  2 14  1  0  0  0
  3  7  1  0  0  0
  3  5  1  0  0  0
  4  5  1  0  0  0
  4  8  2  0  0  0
  5 10  2  0  0  0
  6 11  2  0  0  0
  6 12  1  0  0  0
  7  9  1  0  0  0
  7 25  1  0  0  0
  7 26  1  0  0  0
  8 17  1  0  0  0
  8 27  1  0  0  0
  9 13  2  0  0  0
  9 16  1  0  0  0
 10 15  1  0  0  0
 10 28  1  0  0  0
 12 19  2  0  0  0
 12 20  1  0  0  0
 14 29  1  0  0  0
 14 30  1  0  0  0
 14 31  1  0  0  0
 15 17  2  0  0  0
 15 18  1  0  0  0
 16 32  1  0  0  0
 16 33  1  0  0  0
 17 34  1  0  0  0
 18 21  1  0  0  0
 19 23  1  0  0  0
 19 35  1  0  0  0
 20 22  2  0  0  0
 20 36  1  0  0  0
 21 37  1  0  0  0
 21 38  1  0  0  0
 21 39  1  0  0  0
 22 24  1  0  0  0
 22 40  1  0  0  0
 23 24  2  0  0  0
 23 41  1  0  0  0
 24 42  1  0  0  0
M  END
> <s_m_entry_id>
68199

> <s_m_entry_name>
dock_pv.135

> <s_m_Source_Path>
/home/csk/Desktop/cluster/DUD-E-result/pa2ga

> <s_m_Source_File>
dock_pv.maegz

> <i_m_Source_File_Index>
135

> <chembl_id>
CHEMBL148940

> <chembl_pref_name>
None

> <i_lp_mmshare_version>
53161

> <i_f3d_flags>
0

> <r_lp_tautomer_probability>
1

> <s_lp_Force_Field>
OPLS_2005

> <r_lp_Energy>
25.400829

> <b_lp_Chiralities_Consistent>
1

> <s_lp_Variant>
CHEMBL3474_lig164-1

> <s_i_glide_gridfile>
glide-grid_1kvo

> <i_i_glide_lignum>
225

> <i_i_glide_rotatable_bonds>
5

> <r_i_docking_score>
-7.6246957651304

> <r_i_glide_ligand_efficiency>
-0.317695656880433

> <r_i_glide_ligand_efficiency_sa>
-0.916392848277887

> <r_i_glide_ligand_efficiency_ln>
-1.82493957108624

> <r_i_glide_gscore>
-7.6246957651304

> <r_i_glide_lipo>
-2.65899007339829

> <r_i_glide_hbond>
-0.479915234778306

> <r_i_glide_metal>
0

> <r_i_glide_rewards>
-1.8362927902279

> <r_i_glide_evdw>
-33.4658622741699

> <r_i_glide_ecoul>
-9.47917747497559

> <r_i_glide_erotb>
0.53984438598368

> <r_i_glide_esite>
-0.0941723177547383

> <r_i_glide_emodel>
-62.5806620055584

> <r_i_glide_energy>
-42.9450397491455

> <r_i_glide_einternal>
9.26119041442871

> <i_i_glide_confnum>
20

> <i_i_glide_posenum>
168

> <r_i_glide_eff_state_penalty>
0

> <s_user_duplicate_titles>
CHEMBL3474_lig164

> <s_m_subgroup_title>
dock_pv

> <s_m_subgroupid>
dock_pv

> <b_m_subgroup_collapsed>
1

$$$$
CHEMBL3474_lig24
                    3D
 Schrodinger Suite 2021-1.
 47 49  0  0  1  0            999 V2000
  -40.1651   62.4658   35.0473 N   0  0  0  0  0  0
  -39.1138   62.9776   33.1102 C   0  0  0  0  0  0
  -39.3008   61.9933   34.0739 C   0  0  0  0  0  0
  -39.9151   64.1069   33.5136 C   0  0  0  0  0  0
  -40.5392   63.7642   34.7465 C   0  0  0  0  0  0
  -38.2685   62.8858   31.8460 C   0  0  0  0  0  0
  -40.7063   61.7038   36.1793 C   0  0  0  0  0  0
  -40.1730   65.3793   32.9621 C   0  0  0  0  0  0
  -36.9646   63.6889   31.8708 C   0  0  0  0  0  0
  -38.4151   67.1064   30.2418 C   0  0  0  0  0  0
  -39.5842   65.6312   31.7408 O   0  0  0  0  0  0
  -36.7985   64.6593   32.6048 O   0  0  0  0  0  0
  -37.7461   68.1363   30.2230 O   0  0  0  0  0  0
  -39.5765   66.9625   31.2281 C   0  0  0  0  0  0
  -36.0149   63.2980   31.0349 N   0  0  0  0  0  0
  -38.1496   66.0982   29.4117 N   0  0  0  0  0  0
  -41.3786   64.6540   35.4328 C   0  0  0  0  0  0
  -38.7099   60.5984   34.1591 C   0  0  0  0  0  0
  -42.1864   61.3734   36.0211 C   0  0  0  0  0  0
  -41.5872   65.9073   34.8639 C   0  0  0  0  0  0
  -41.0034   66.2671   33.6561 C   0  0  0  0  0  0
  -42.6537   60.7737   34.8469 C   0  0  0  0  0  0
  -43.0827   61.7051   37.0422 C   0  0  0  0  0  0
  -44.4434   61.4668   36.8792 C   0  0  0  0  0  0
  -44.0149   60.5415   34.6826 C   0  0  0  0  0  0
  -44.9030   60.8972   35.6957 C   0  0  0  0  0  0
  -38.0150   61.8499   31.6187 H   0  0  0  0  0  0
  -38.8428   63.2436   30.9937 H   0  0  0  0  0  0
  -40.5631   62.3147   37.0707 H   0  0  0  0  0  0
  -40.1347   60.7895   36.3399 H   0  0  0  0  0  0
  -40.5092   67.1624   30.7003 H   0  0  0  0  0  0
  -39.4593   67.7219   32.0018 H   0  0  0  0  0  0
  -35.1856   63.8656   30.9323 H   0  0  0  0  0  0
  -36.2056   62.5681   30.3654 H   0  0  0  0  0  0
  -37.3474   66.1625   28.8031 H   0  0  0  0  0  0
  -38.6551   65.2253   29.4638 H   0  0  0  0  0  0
  -41.8545   64.3875   36.3652 H   0  0  0  0  0  0
  -38.0832   60.3499   33.3039 H   0  0  0  0  0  0
  -38.0807   60.4965   35.0430 H   0  0  0  0  0  0
  -39.4809   59.8294   34.2139 H   0  0  0  0  0  0
  -42.2299   66.6143   35.3696 H   0  0  0  0  0  0
  -41.2171   67.2466   33.2596 H   0  0  0  0  0  0
  -41.9694   60.5103   34.0531 H   0  0  0  0  0  0
  -42.7319   62.1622   37.9561 H   0  0  0  0  0  0
  -45.1390   61.7305   37.6627 H   0  0  0  0  0  0
  -44.3897   60.0974   33.7709 H   0  0  0  0  0  0
  -45.9603   60.7182   35.5618 H   0  0  0  0  0  0
  1  3  1  0  0  0
  1  5  1  0  0  0
  1  7  1  0  0  0
  2  3  2  0  0  0
  2  6  1  0  0  0
  2  4  1  0  0  0
  3 18  1  0  0  0
  4  5  1  0  0  0
  4  8  2  0  0  0
  5 17  2  0  0  0
  6  9  1  0  0  0
  6 27  1  0  0  0
  6 28  1  0  0  0
  7 19  1  0  0  0
  7 29  1  0  0  0
  7 30  1  0  0  0
  8 11  1  0  0  0
  8 21  1  0  0  0
  9 12  2  0  0  0
  9 15  1  0  0  0
 10 14  1  0  0  0
 10 13  2  0  0  0
 10 16  1  0  0  0
 11 14  1  0  0  0
 14 31  1  0  0  0
 14 32  1  0  0  0
 15 33  1  0  0  0
 15 34  1  0  0  0
 16 35  1  0  0  0
 16 36  1  0  0  0
 17 20  1  0  0  0
 17 37  1  0  0  0
 18 38  1  0  0  0
 18 39  1  0  0  0
 18 40  1  0  0  0
 19 22  1  0  0  0
 19 23  2  0  0  0
 20 21  2  0  0  0
 20 41  1  0  0  0
 21 42  1  0  0  0
 22 25  2  0  0  0
 22 43  1  0  0  0
 23 24  1  0  0  0
 23 44  1  0  0  0
 24 26  2  0  0  0
 24 45  1  0  0  0
 25 26  1  0  0  0
 25 46  1  0  0  0
 26 47  1  0  0  0
M  END
> <s_m_entry_id>
68200

> <s_m_entry_name>
dock_pv.136

> <s_m_Source_Path>
/home/csk/Desktop/cluster/DUD-E-result/pa2ga

> <s_m_Source_File>
dock_pv.maegz

> <i_m_Source_File_Index>
136

> <chembl_id>
CHEMBL148741

> <chembl_pref_name>
None

> <i_lp_mmshare_version>
53161

> <i_f3d_flags>
0

> <r_lp_tautomer_probability>
1

> <s_lp_Force_Field>
OPLS_2005

> <r_lp_Energy>
9.837517

> <b_lp_Chiralities_Consistent>
1

> <s_lp_Variant>
CHEMBL3474_lig24-1

> <s_i_glide_gridfile>
glide-grid_1kvo

> <i_i_glide_lignum>
64

> <i_i_glide_rotatable_bonds>
7

> <r_i_docking_score>
-7.61814334193438

> <r_i_glide_ligand_efficiency>
-0.293005513151322

> <r_i_glide_ligand_efficiency_sa>
-0.86802767978977

> <r_i_glide_ligand_efficiency_ln>
-1.78909596668612

> <r_i_glide_gscore>
-7.61814334193438

> <r_i_glide_lipo>
-3.31559961773107

> <r_i_glide_hbond>
-0.387827115276421

> <r_i_glide_metal>
0

> <r_i_glide_rewards>
-1.25452036171974

> <r_i_glide_evdw>
-43.7972831726074

> <r_i_glide_ecoul>
-7.37633275985718

> <r_i_glide_erotb>
0.772280176000551

> <r_i_glide_esite>
-0.136162350598749

> <r_i_glide_emodel>
-77.7034774950343

> <r_i_glide_energy>
-51.1736159324646

> <r_i_glide_einternal>
4.21887826919556

> <i_i_glide_confnum>
20

> <i_i_glide_posenum>
326

> <r_i_glide_eff_state_penalty>
0

> <s_user_duplicate_titles>
CHEMBL3474_lig24,246690

> <s_m_subgroup_title>
dock_pv

> <s_m_subgroupid>
dock_pv

> <b_m_subgroup_collapsed>
1

$$$$
CHEMBL3474_lig115
                    3D
 Schrodinger Suite 2021-1.
 47 49  0  0  1  0            999 V2000
  -40.6960   63.2412   35.4199 N   0  0  0  0  0  0
  -41.5513   62.8193   36.8696 S   0  0  0  0  0  0
  -39.9616   64.4137   33.6535 C   0  0  0  0  0  0
  -40.8341   64.4345   34.7306 C   0  0  0  0  0  0
  -39.3367   63.1143   33.5891 C   0  0  0  0  0  0
  -39.8465   62.3897   34.7140 C   0  0  0  0  0  0
  -39.7944   65.5272   32.7353 C   0  0  0  0  0  0
  -38.4151   62.4646   32.7190 C   0  0  0  0  0  0
  -40.5681   65.4447   31.3648 C   0  0  0  0  0  0
  -41.7594   64.0444   37.6476 O   0  0  0  0  0  0
  -40.8156   61.6981   37.4431 O   0  0  0  0  0  0
  -43.1314   62.1588   36.3835 C   0  0  0  0  0  0
  -37.8246   63.0507   31.4430 C   0  0  0  0  0  0
  -36.6149   63.9567   31.6527 C   0  0  0  0  0  0
  -39.2148   66.5693   33.0553 O   0  0  0  0  0  0
  -41.2146   64.4572   31.0253 O   0  0  0  0  0  0
  -36.5870   64.8977   32.4370 O   0  0  0  0  0  0
  -40.4365   66.5563   30.6428 N   0  0  0  0  0  0
  -41.7951   65.5468   35.1455 C   0  0  0  0  0  0
  -39.4784   61.0540   34.9514 C   0  0  0  0  0  0
  -35.6171   63.6724   30.7772 O   0  0  0  0  0  0
  -38.0442   61.1514   33.0082 C   0  0  0  0  0  0
  -38.5750   60.4639   34.0817 C   0  0  0  0  0  0
  -43.1733   61.1247   35.4478 C   0  0  0  0  0  0
  -44.2941   62.5837   37.0302 C   0  0  0  0  0  0
  -41.1160   66.6328   36.0005 C   0  0  0  0  0  0
  -45.5018   61.9462   36.7594 C   0  0  0  0  0  0
  -44.3822   60.5008   35.1695 C   0  0  0  0  0  0
  -45.5376   60.8983   35.8423 C   0  0  0  0  0  0
  -37.5599   62.2478   30.7505 H   0  0  0  0  0  0
  -38.5846   63.6166   30.9110 H   0  0  0  0  0  0
  -40.8384   66.5964   29.7191 H   0  0  0  0  0  0
  -39.8734   67.3161   30.9951 H   0  0  0  0  0  0
  -42.2045   66.0247   34.2554 H   0  0  0  0  0  0
  -42.6778   65.1601   35.6542 H   0  0  0  0  0  0
  -39.8613   60.4659   35.7698 H   0  0  0  0  0  0
  -35.0477   64.4395   30.6336 H   0  0  0  0  0  0
  -37.3533   60.6290   32.3615 H   0  0  0  0  0  0
  -38.2856   59.4353   34.2388 H   0  0  0  0  0  0
  -42.2752   60.7855   34.9547 H   0  0  0  0  0  0
  -44.2585   63.3718   37.7693 H   0  0  0  0  0  0
  -41.8342   67.3933   36.3033 H   0  0  0  0  0  0
  -40.6742   66.2192   36.9061 H   0  0  0  0  0  0
  -40.3185   67.1326   35.4531 H   0  0  0  0  0  0
  -46.4031   62.2529   37.2698 H   0  0  0  0  0  0
  -44.4136   59.7046   34.4403 H   0  0  0  0  0  0
  -46.4743   60.4031   35.6304 H   0  0  0  0  0  0
  1  2  1  0  0  0
  1  4  1  0  0  0
  1  6  1  0  0  0
  2 10  2  0  0  0
  2 11  2  0  0  0
  2 12  1  0  0  0
  3  4  2  0  0  0
  3  7  1  0  0  0
  3  5  1  0  0  0
  4 19  1  0  0  0
  5  6  1  0  0  0
  5  8  2  0  0  0
  6 20  2  0  0  0
  7  9  1  0  0  0
  7 15  2  0  0  0
  8 13  1  0  0  0
  8 22  1  0  0  0
  9 16  2  0  0  0
  9 18  1  0  0  0
 12 24  2  0  0  0
 12 25  1  0  0  0
 13 14  1  0  0  0
 13 30  1  0  0  0
 13 31  1  0  0  0
 14 17  2  0  0  0
 14 21  1  0  0  0
 18 32  1  0  0  0
 18 33  1  0  0  0
 19 26  1  0  0  0
 19 34  1  0  0  0
 19 35  1  0  0  0
 20 23  1  0  0  0
 20 36  1  0  0  0
 21 37  1  0  0  0
 22 23  2  0  0  0
 22 38  1  0  0  0
 23 39  1  0  0  0
 24 28  1  0  0  0
 24 40  1  0  0  0
 25 27  2  0  0  0
 25 41  1  0  0  0
 26 42  1  0  0  0
 26 43  1  0  0  0
 26 44  1  0  0  0
 27 29  1  0  0  0
 27 45  1  0  0  0
 28 29  2  0  0  0
 28 46  1  0  0  0
 29 47  1  0  0  0
M  END
> <s_m_entry_id>
68201

> <s_m_entry_name>
dock_pv.137

> <s_m_Source_Path>
/home/csk/Desktop/cluster/DUD-E-result/pa2ga

> <s_m_Source_File>
dock_pv.maegz

> <i_m_Source_File_Index>
137

> <chembl_id>
CHEMBL421780

> <chembl_pref_name>
None

> <i_lp_mmshare_version>
53161

> <i_f3d_flags>
0

> <r_lp_tautomer_probability>
1

> <s_lp_Force_Field>
OPLS_2005

> <r_lp_Energy>
18.728218

> <b_lp_Chiralities_Consistent>
1

> <s_lp_Variant>
CHEMBL3474_lig115-1

> <s_i_glide_gridfile>
glide-grid_1kvo

> <i_i_glide_lignum>
174

> <i_i_glide_rotatable_bonds>
8

> <r_i_docking_score>
-7.61416277196805

> <r_i_glide_ligand_efficiency>
-0.262557336964415

> <r_i_glide_ligand_efficiency_sa>
-0.806659323157622

> <r_i_glide_ligand_efficiency_ln>
-1.74345019627206

> <r_i_glide_gscore>
-7.61416277196805

> <r_i_glide_lipo>
-3.12364012469737

> <r_i_glide_hbond>
-0.268572021763814

> <r_i_glide_metal>
0

> <r_i_glide_rewards>
-1.53915029022042

> <r_i_glide_evdw>
-40.6519584655762

> <r_i_glide_ecoul>
-7.55647277832031

> <r_i_glide_erotb>
0.574583921227082

> <r_i_glide_esite>
-0.0913154164866618

> <r_i_glide_emodel>
-67.0792727106156

> <r_i_glide_energy>
-48.2084312438965

> <r_i_glide_einternal>
6.23297214508057

> <i_i_glide_confnum>
74

> <i_i_glide_posenum>
245

> <r_i_glide_eff_state_penalty>
0

> <s_user_duplicate_titles>
CHEMBL3474_lig115,247552

> <s_m_subgroup_title>
dock_pv

> <s_m_subgroupid>
dock_pv

> <b_m_subgroup_collapsed>
1

$$$$
CHEMBL3474_lig143
                    3D
 Schrodinger Suite 2021-1.
 41 43  0  0  1  0            999 V2000
  -40.1595   62.5950   35.0307 N   0  0  0  0  0  0
  -38.9866   62.9971   33.1340 C   0  0  0  0  0  0
  -39.3255   62.0312   34.0764 C   0  0  0  0  0  0
  -39.6629   64.1999   33.5285 C   0  0  0  0  0  0
  -40.3948   63.9240   34.7148 C   0  0  0  0  0  0
  -40.3678   67.9011   33.1428 N   0  3  0  0  0  0
  -39.7102   65.4956   32.9919 C   0  0  0  0  0  0
  -40.4142   66.5082   33.6545 C   0  0  0  0  0  0
  -38.1148   62.8361   31.8922 C   0  0  0  0  0  0
  -40.7672   61.8972   36.1699 C   0  0  0  0  0  0
  -41.1598   64.9077   35.3557 C   0  0  0  0  0  0
  -36.8462   63.7010   31.8445 C   0  0  0  0  0  0
  -40.8158   68.8021   33.8428 O   0  5  0  0  0  0
  -39.8651   68.1071   32.0421 O   0  0  0  0  0  0
  -41.1340   66.1928   34.8139 C   0  0  0  0  0  0
  -36.7282   64.7454   32.4798 O   0  0  0  0  0  0
  -35.8756   63.2972   31.0430 N   0  0  0  0  0  0
  -38.8978   60.5764   34.1634 C   0  0  0  0  0  0
  -42.2367   61.5437   35.9785 C   0  0  0  0  0  0
  -42.6715   60.9155   34.8073 C   0  0  0  0  0  0
  -43.1512   61.8353   36.9943 C   0  0  0  0  0  0
  -44.4959   61.5141   36.8352 C   0  0  0  0  0  0
  -44.0147   60.5909   34.6492 C   0  0  0  0  0  0
  -44.9202   60.8978   35.6624 C   0  0  0  0  0  0
  -39.1570   65.7170   32.0902 H   0  0  0  0  0  0
  -37.8270   61.7962   31.7454 H   0  0  0  0  0  0
  -38.7021   63.1012   31.0167 H   0  0  0  0  0  0
  -40.2023   60.9947   36.4051 H   0  0  0  0  0  0
  -40.6610   62.5503   37.0373 H   0  0  0  0  0  0
  -41.7232   64.6952   36.2522 H   0  0  0  0  0  0
  -41.6913   66.9682   35.3211 H   0  0  0  0  0  0
  -35.0888   63.9071   30.8800 H   0  0  0  0  0  0
  -36.0135   62.4923   30.4521 H   0  0  0  0  0  0
  -38.3057   60.2539   33.3082 H   0  0  0  0  0  0
  -38.2868   60.3997   35.0470 H   0  0  0  0  0  0
  -39.7477   59.8988   34.2215 H   0  0  0  0  0  0
  -41.9762   60.6767   34.0172 H   0  0  0  0  0  0
  -42.8257   62.3112   37.9071 H   0  0  0  0  0  0
  -45.2032   61.7408   37.6203 H   0  0  0  0  0  0
  -44.3557   60.1070   33.7464 H   0  0  0  0  0  0
  -45.9637   60.6463   35.5364 H   0  0  0  0  0  0
  1  3  1  0  0  0
  1  5  1  0  0  0
  1 10  1  0  0  0
  2  3  2  0  0  0
  2  9  1  0  0  0
  2  4  1  0  0  0
  3 18  1  0  0  0
  4  5  1  0  0  0
  4  7  2  0  0  0
  5 11  2  0  0  0
  6  8  1  0  0  0
  6 13  1  0  0  0
  6 14  2  0  0  0
  7  8  1  0  0  0
  7 25  1  0  0  0
  8 15  2  0  0  0
  9 12  1  0  0  0
  9 26  1  0  0  0
  9 27  1  0  0  0
 10 19  1  0  0  0
 10 28  1  0  0  0
 10 29  1  0  0  0
 11 15  1  0  0  0
 11 30  1  0  0  0
 12 16  2  0  0  0
 12 17  1  0  0  0
 15 31  1  0  0  0
 17 32  1  0  0  0
 17 33  1  0  0  0
 18 34  1  0  0  0
 18 35  1  0  0  0
 18 36  1  0  0  0
 19 20  1  0  0  0
 19 21  2  0  0  0
 20 23  2  0  0  0
 20 37  1  0  0  0
 21 22  1  0  0  0
 21 38  1  0  0  0
 22 24  2  0  0  0
 22 39  1  0  0  0
 23 24  1  0  0  0
 23 40  1  0  0  0
 24 41  1  0  0  0
M  CHG  2   6   1  13  -1
M  END
> <s_m_entry_id>
68202

> <s_m_entry_name>
dock_pv.138

> <s_m_Source_Path>
/home/csk/Desktop/cluster/DUD-E-result/pa2ga

> <s_m_Source_File>
dock_pv.maegz

> <i_m_Source_File_Index>
138

> <chembl_id>
CHEMBL149310

> <chembl_pref_name>
None

> <i_lp_mmshare_version>
53161

> <i_f3d_flags>
0

> <r_lp_tautomer_probability>
1

> <s_lp_Force_Field>
OPLS_2005

> <r_lp_Energy>
10.908261

> <b_lp_Chiralities_Consistent>
1

> <s_lp_Variant>
CHEMBL3474_lig143-1

> <s_i_glide_gridfile>
glide-grid_1kvo

> <i_i_glide_lignum>
204

> <i_i_glide_rotatable_bonds>
5

> <r_i_docking_score>
-7.6089903569133

> <r_i_glide_ligand_efficiency>
-0.317041264871387

> <r_i_glide_ligand_efficiency_sa>
-0.914505255092169

> <r_i_glide_ligand_efficiency_ln>
-1.82118054622566

> <r_i_glide_gscore>
-7.6089903569133

> <r_i_glide_lipo>
-3.14348264031262

> <r_i_glide_hbond>
-0.316922357869244

> <r_i_glide_metal>
0

> <r_i_glide_rewards>
-1.71135308260998

> <r_i_glide_evdw>
-39.0975151062012

> <r_i_glide_ecoul>
-6.43902349472046

> <r_i_glide_erotb>
0.536938654118332

> <r_i_glide_esite>
-0.0534416507216589

> <r_i_glide_emodel>
-68.1335646962416

> <r_i_glide_energy>
-45.5365386009216

> <r_i_glide_einternal>
1.40279126167297

> <i_i_glide_confnum>
6

> <i_i_glide_posenum>
246

> <r_i_glide_eff_state_penalty>
0

> <s_user_duplicate_titles>
CHEMBL3474_lig143

> <s_m_subgroup_title>
dock_pv

> <s_m_subgroupid>
dock_pv

> <b_m_subgroup_collapsed>
1

$$$$
CHEMBL3474_lig215
                    3D
 Schrodinger Suite 2021-1.
 52 55  0  0  1  0            999 V2000
  -39.1535   65.0820   32.7208 C   0  0  0  0  0  0
  -40.2389   64.6169   34.6470 N   0  0  0  0  0  0
  -39.8364   66.2796   33.1481 C   0  0  0  0  0  0
  -39.4421   64.0888   33.6431 C   0  0  0  0  0  0
  -40.5246   65.9553   34.3656 C   0  0  0  0  0  0
  -38.2954   64.9367   31.5426 C   0  0  0  0  0  0
  -39.8922   67.6197   32.6845 C   0  0  0  0  0  0
  -41.2894   66.9156   35.0567 C   0  0  0  0  0  0
  -36.8462   64.3656   31.8173 C   0  0  0  0  0  0
  -41.2938   68.2206   34.5623 C   0  0  0  0  0  0
  -40.5619   68.5809   33.4442 C   0  0  0  0  0  0
  -40.5626   63.9163   35.9054 C   0  0  0  0  0  0
  -39.2620   67.8570   31.4775 O   0  0  0  0  0  0
  -37.5824   69.5653   31.1972 C   0  0  0  0  0  0
  -38.5062   65.4776   30.4567 O   0  0  0  0  0  0
  -36.0980   64.8897   32.6361 O   0  0  0  0  0  0
  -36.8109   68.8944   31.8640 O   0  0  0  0  0  0
  -36.5169   63.3354   31.0427 N   0  0  0  0  0  0
  -39.0358   69.1666   30.9463 C   0  0  0  0  0  0
  -38.9849   62.6354   33.6786 C   0  0  0  0  0  0
  -41.4174   62.6671   35.7498 C   0  0  0  0  0  0
  -42.9057   60.3961   35.1867 C   0  0  0  0  0  0
  -37.2199   70.7186   30.5697 O   0  0  0  0  0  0
  -43.6136   59.3010   34.8447 F   0  0  0  0  0  0
  -40.8426   61.4017   35.8891 C   0  0  0  0  0  0
  -42.7686   62.7849   35.4286 C   0  0  0  0  0  0
  -42.1107   66.8421   36.3313 C   0  0  0  0  0  0
  -43.5140   61.6431   35.1371 C   0  0  0  0  0  0
  -41.5796   60.2680   35.5780 C   0  0  0  0  0  0
  -42.1758   69.1145   35.4176 C   0  0  0  0  0  0
  -42.9024   68.1446   36.3429 C   0  0  0  0  0  0
  -40.5912   69.6110   33.1238 H   0  0  0  0  0  0
  -41.0538   64.5834   36.6098 H   0  0  0  0  0  0
  -39.6152   63.6834   36.3894 H   0  0  0  0  0  0
  -35.5920   62.9320   31.1057 H   0  0  0  0  0  0
  -37.1537   63.0286   30.3126 H   0  0  0  0  0  0
  -39.1743   69.0945   29.8685 H   0  0  0  0  0  0
  -39.7036   69.9380   31.2992 H   0  0  0  0  0  0
  -38.3239   62.3559   32.8631 H   0  0  0  0  0  0
  -38.4460   62.3955   34.5923 H   0  0  0  0  0  0
  -39.8278   61.9536   33.5926 H   0  0  0  0  0  0
  -36.2544   70.8605   30.6427 H   0  0  0  0  0  0
  -39.8026   61.2869   36.1643 H   0  0  0  0  0  0
  -43.2237   63.7602   35.3319 H   0  0  0  0  0  0
  -42.7872   65.9901   36.3671 H   0  0  0  0  0  0
  -41.4621   66.7847   37.2095 H   0  0  0  0  0  0
  -44.5464   61.7127   34.8387 H   0  0  0  0  0  0
  -41.1175   59.2956   35.6306 H   0  0  0  0  0  0
  -41.6148   69.8288   36.0089 H   0  0  0  0  0  0
  -42.8973   69.6697   34.8146 H   0  0  0  0  0  0
  -43.0218   68.5426   37.3515 H   0  0  0  0  0  0
  -43.9080   67.9639   35.9598 H   0  0  0  0  0  0
  1  3  1  0  0  0
  1  4  2  0  0  0
  1  6  1  0  0  0
  2  4  1  0  0  0
  2 12  1  0  0  0
  2  5  1  0  0  0
  3  5  1  0  0  0
  3  7  2  0  0  0
  4 20  1  0  0  0
  5  8  2  0  0  0
  6  9  1  0  0  0
  6 15  2  0  0  0
  7 11  1  0  0  0
  7 13  1  0  0  0
  8 27  1  0  0  0
  8 10  1  0  0  0
  9 16  2  0  0  0
  9 18  1  0  0  0
 10 11  2  0  0  0
 10 30  1  0  0  0
 11 32  1  0  0  0
 12 21  1  0  0  0
 12 33  1  0  0  0
 12 34  1  0  0  0
 13 19  1  0  0  0
 14 19  1  0  0  0
 14 17  2  0  0  0
 14 23  1  0  0  0
 18 35  1  0  0  0
 18 36  1  0  0  0
 19 37  1  0  0  0
 19 38  1  0  0  0
 20 39  1  0  0  0
 20 40  1  0  0  0
 20 41  1  0  0  0
 21 25  1  0  0  0
 21 26  2  0  0  0
 22 28  2  0  0  0
 22 24  1  0  0  0
 22 29  1  0  0  0
 23 42  1  0  0  0
 25 29  2  0  0  0
 25 43  1  0  0  0
 26 28  1  0  0  0
 26 44  1  0  0  0
 27 31  1  0  0  0
 27 45  1  0  0  0
 27 46  1  0  0  0
 28 47  1  0  0  0
 29 48  1  0  0  0
 30 31  1  0  0  0
 30 49  1  0  0  0
 30 50  1  0  0  0
 31 51  1  0  0  0
 31 52  1  0  0  0
M  END
> <s_m_entry_id>
68203

> <s_m_entry_name>
dock_pv.139

> <s_m_Source_Path>
/home/csk/Desktop/cluster/DUD-E-result/pa2ga

> <s_m_Source_File>
dock_pv.maegz

> <i_m_Source_File_Index>
139

> <chembl_id>
CHEMBL178675

> <chembl_pref_name>
None

> <i_lp_mmshare_version>
53161

> <i_f3d_flags>
0

> <r_lp_tautomer_probability>
1

> <s_lp_Force_Field>
OPLS_2005

> <r_lp_Energy>
54.495499

> <b_lp_Chiralities_Consistent>
1

> <s_lp_Variant>
CHEMBL3474_lig215-1

> <s_i_glide_gridfile>
glide-grid_1kvo

> <i_i_glide_lignum>
277

> <i_i_glide_rotatable_bonds>
8

> <r_i_docking_score>
-7.60732215440225

> <r_i_glide_ligand_efficiency>
-0.245397488851685

> <r_i_glide_ligand_efficiency_sa>
-0.770886922741712

> <r_i_glide_ligand_efficiency_ln>
-1.71568428224311

> <r_i_glide_gscore>
-7.60732215440225

> <r_i_glide_lipo>
-2.83114893704572

> <r_i_glide_hbond>
-0.50397524250295

> <r_i_glide_metal>
0

> <r_i_glide_rewards>
-0.874610051656421

> <r_i_glide_evdw>
-34.2786712646484

> <r_i_glide_ecoul>
-14.1002511978149

> <r_i_glide_erotb>
0.660448876420079

> <r_i_glide_esite>
-0.229065556712575

> <r_i_glide_emodel>
-72.9448029737727

> <r_i_glide_energy>
-48.3789224624634

> <r_i_glide_einternal>
5.27898502349854

> <i_i_glide_confnum>
24

> <i_i_glide_posenum>
270

> <r_i_glide_eff_state_penalty>
0

> <s_user_duplicate_titles>
CHEMBL3474_lig215,299228

> <s_m_subgroup_title>
dock_pv

> <s_m_subgroupid>
dock_pv

> <b_m_subgroup_collapsed>
1

$$$$
CHEMBL3474_lig104
                    3D
 Schrodinger Suite 2021-1.
 61 64  0  0  1  0            999 V2000
  -39.5909   65.6054   32.7070 C   0  0  0  0  0  0
  -41.2848   65.4670   34.2100 N   0  0  0  0  0  0
  -40.4502   64.7309   33.3851 C   0  0  0  0  0  0
  -40.0039   66.9531   33.0468 C   0  0  0  0  0  0
  -41.0329   66.8175   34.0333 C   0  0  0  0  0  0
  -38.5323   65.2487   31.7473 C   0  0  0  0  0  0
  -42.3121   64.9341   35.1220 C   0  0  0  0  0  0
  -37.5163   64.0769   32.1249 C   0  0  0  0  0  0
  -41.8508   64.5934   36.5435 C   0  0  0  0  0  0
  -41.9567   63.2885   37.0781 C   0  0  0  0  0  0
  -39.6036   68.2659   32.6806 C   0  0  0  0  0  0
  -39.2426   70.2479   28.4049 C   0  0  0  0  0  0
  -38.2683   65.9520   30.7696 O   0  0  0  0  0  0
  -37.6872   63.2943   33.0498 O   0  0  0  0  0  0
  -40.2850   70.4944   29.0067 O   0  0  0  0  0  0
  -42.3808   62.1128   36.2701 C   0  0  0  0  0  0
  -36.4147   64.0578   31.3825 N   0  0  0  0  0  0
  -40.5865   63.2180   33.3061 C   0  0  0  0  0  0
  -41.6357   67.9253   34.6433 C   0  0  0  0  0  0
  -38.8160   70.8982   27.2871 O   0  0  0  0  0  0
  -38.5653   68.3824   31.7769 O   0  0  0  0  0  0
  -41.3665   65.6293   37.3546 C   0  0  0  0  0  0
  -41.2150   69.1845   34.2431 C   0  0  0  0  0  0
  -41.6145   63.0806   38.4188 C   0  0  0  0  0  0
  -40.2269   69.3575   33.2927 C   0  0  0  0  0  0
  -38.2647   69.1422   28.8212 C   0  0  0  0  0  0
  -43.7051   61.9767   35.8412 C   0  0  0  0  0  0
  -41.4452   61.1286   35.9327 C   0  0  0  0  0  0
  -38.1100   69.6693   31.3608 C   0  0  0  0  0  0
  -37.3715   69.5341   30.0181 C   0  0  0  0  0  0
  -41.0094   65.3940   38.6798 C   0  0  0  0  0  0
  -41.1460   64.1197   39.2169 C   0  0  0  0  0  0
  -44.0767   60.8979   35.0448 C   0  0  0  0  0  0
  -41.8160   60.0484   35.1386 C   0  0  0  0  0  0
  -43.1292   59.9413   34.6901 C   0  0  0  0  0  0
  -42.8131   64.1021   34.6410 H   0  0  0  0  0  0
  -43.1061   65.6779   35.2093 H   0  0  0  0  0  0
  -35.7352   63.3257   31.5171 H   0  0  0  0  0  0
  -36.2708   64.7417   30.6427 H   0  0  0  0  0  0
  -41.6154   62.8709   33.3050 H   0  0  0  0  0  0
  -40.1586   62.8227   32.3869 H   0  0  0  0  0  0
  -40.0771   62.7296   34.1353 H   0  0  0  0  0  0
  -42.4144   67.8283   35.3862 H   0  0  0  0  0  0
  -39.4035   71.6279   27.0430 H   0  0  0  0  0  0
  -41.2749   66.6326   36.9717 H   0  0  0  0  0  0
  -41.6646   70.0573   34.6971 H   0  0  0  0  0  0
  -41.6912   62.0983   38.8556 H   0  0  0  0  0  0
  -39.9384   70.3729   33.0723 H   0  0  0  0  0  0
  -37.6293   68.8990   27.9670 H   0  0  0  0  0  0
  -38.8183   68.2308   29.0430 H   0  0  0  0  0  0
  -44.4431   62.7186   36.1114 H   0  0  0  0  0  0
  -40.4226   61.2138   36.2701 H   0  0  0  0  0  0
  -38.9203   70.3880   31.2378 H   0  0  0  0  0  0
  -37.4385   70.0685   32.1206 H   0  0  0  0  0  0
  -36.8762   70.4789   29.7939 H   0  0  0  0  0  0
  -36.5737   68.7994   30.1229 H   0  0  0  0  0  0
  -40.6409   66.2039   39.2936 H   0  0  0  0  0  0
  -40.8736   63.9320   40.2449 H   0  0  0  0  0  0
  -45.0955   60.8019   34.6984 H   0  0  0  0  0  0
  -41.0876   59.2978   34.8669 H   0  0  0  0  0  0
  -43.4182   59.1062   34.0678 H   0  0  0  0  0  0
  1  3  2  0  0  0
  1  4  1  0  0  0
  1  6  1  0  0  0
  2  3  1  0  0  0
  2  7  1  0  0  0
  2  5  1  0  0  0
  3 18  1  0  0  0
  4  5  1  0  0  0
  4 11  2  0  0  0
  5 19  2  0  0  0
  6  8  1  0  0  0
  6 13  2  0  0  0
  7  9  1  0  0  0
  7 36  1  0  0  0
  7 37  1  0  0  0
  8 14  2  0  0  0
  8 17  1  0  0  0
  9 10  2  0  0  0
  9 22  1  0  0  0
 10 16  1  0  0  0
 10 24  1  0  0  0
 11 21  1  0  0  0
 11 25  1  0  0  0
 12 26  1  0  0  0
 12 15  2  0  0  0
 12 20  1  0  0  0
 16 27  2  0  0  0
 16 28  1  0  0  0
 17 38  1  0  0  0
 17 39  1  0  0  0
 18 40  1  0  0  0
 18 41  1  0  0  0
 18 42  1  0  0  0
 19 23  1  0  0  0
 19 43  1  0  0  0
 20 44  1  0  0  0
 21 29  1  0  0  0
 22 31  2  0  0  0
 22 45  1  0  0  0
 23 25  2  0  0  0
 23 46  1  0  0  0
 24 32  2  0  0  0
 24 47  1  0  0  0
 25 48  1  0  0  0
 26 30  1  0  0  0
 26 49  1  0  0  0
 26 50  1  0  0  0
 27 33  1  0  0  0
 27 51  1  0  0  0
 28 34  2  0  0  0
 28 52  1  0  0  0
 29 30  1  0  0  0
 29 53  1  0  0  0
 29 54  1  0  0  0
 30 55  1  0  0  0
 30 56  1  0  0  0
 31 32  1  0  0  0
 31 57  1  0  0  0
 32 58  1  0  0  0
 33 35  2  0  0  0
 33 59  1  0  0  0
 34 35  1  0  0  0
 34 60  1  0  0  0
 35 61  1  0  0  0
M  END
> <s_m_entry_id>
68204

> <s_m_entry_name>
dock_pv.140

> <s_m_Source_Path>
/home/csk/Desktop/cluster/DUD-E-result/pa2ga

> <s_m_Source_File>
dock_pv.maegz

> <i_m_Source_File_Index>
140

> <chembl_id>
CHEMBL359148

> <chembl_pref_name>
None

> <i_lp_mmshare_version>
53161

> <i_f3d_flags>
0

> <r_lp_tautomer_probability>
1

> <s_lp_Force_Field>
OPLS_2005

> <r_lp_Energy>
31.605462

> <b_lp_Chiralities_Consistent>
1

> <s_lp_Variant>
CHEMBL3474_lig104-1

> <s_i_glide_gridfile>
glide-grid_1kvo

> <i_i_glide_lignum>
162

> <i_i_glide_rotatable_bonds>
11

> <r_i_docking_score>
-7.60097129711992

> <r_i_glide_ligand_efficiency>
-0.21717060848914

> <r_i_glide_ligand_efficiency_sa>
-0.710379460150101

> <r_i_glide_ligand_efficiency_ln>
-1.66858189418674

> <r_i_glide_gscore>
-7.60097129711992

> <r_i_glide_lipo>
-3.74549937770282

> <r_i_glide_hbond>
-0.41458179697826

> <r_i_glide_metal>
0

> <r_i_glide_rewards>
-0.374056502402448

> <r_i_glide_evdw>
-48.7027778625488

> <r_i_glide_ecoul>
-8.22789573669434

> <r_i_glide_erotb>
0.821420671323291

> <r_i_glide_esite>
-0.218931037728087

> <r_i_glide_emodel>
-80.0813673084388

> <r_i_glide_energy>
-56.9306735992432

> <r_i_glide_einternal>
10.2013216018677

> <i_i_glide_confnum>
194

> <i_i_glide_posenum>
306

> <r_i_glide_eff_state_penalty>
0

> <s_user_duplicate_titles>
CHEMBL3474_lig104,247540

> <s_m_subgroup_title>
dock_pv

> <s_m_subgroupid>
dock_pv

> <b_m_subgroup_collapsed>
1

$$$$
CHEMBL3474_lig67
                    3D
 Schrodinger Suite 2021-1.
 56 59  0  0  1  0            999 V2000
  -40.6116   63.7750   34.1590 N   0  0  0  0  0  0
  -39.6561   62.8215   33.8213 C   0  0  0  0  0  0
  -38.8919   63.2972   32.7606 C   0  0  0  0  0  0
  -39.4884   64.5330   32.3547 C   0  0  0  0  0  0
  -40.4948   64.8594   33.3014 C   0  0  0  0  0  0
  -39.5259   61.5037   34.5711 C   0  0  0  0  0  0
  -40.6181   60.4597   34.5098 C   0  0  0  0  0  0
  -39.2933   60.2128   33.8176 C   0  0  0  0  0  0
  -37.6645   62.6632   32.1126 C   0  0  0  0  0  0
  -41.6130   63.6707   35.2321 C   0  0  0  0  0  0
  -41.1670   66.0878   33.2541 C   0  0  0  0  0  0
  -36.5113   63.6487   31.8430 C   0  0  0  0  0  0
  -39.2222   65.4204   31.3005 C   0  0  0  0  0  0
  -37.8718   70.1644   31.0323 C   0  0  0  0  0  0
  -36.4147   64.7327   32.4151 O   0  0  0  0  0  0
  -39.0515   70.2109   31.3724 O   0  0  0  0  0  0
  -39.8589   66.6598   31.2704 C   0  0  0  0  0  0
  -35.6157   63.2980   30.9385 N   0  0  0  0  0  0
  -40.7897   66.9754   32.2486 C   0  0  0  0  0  0
  -41.5254   64.7441   36.3144 C   0  0  0  0  0  0
  -36.8150   70.4505   31.8428 O   0  0  0  0  0  0
  -39.6175   67.6326   30.3287 O   0  0  0  0  0  0
  -37.3782   69.7970   29.6264 C   0  0  0  0  0  0
  -38.5426   67.4836   29.4099 C   0  0  0  0  0  0
  -42.5681   65.6613   36.4827 C   0  0  0  0  0  0
  -40.4152   64.7998   37.1582 C   0  0  0  0  0  0
  -38.2766   68.8659   28.7870 C   0  0  0  0  0  0
  -42.4912   66.6345   37.4758 C   0  0  0  0  0  0
  -40.3374   65.7684   38.1550 C   0  0  0  0  0  0
  -41.3750   66.6843   38.3075 C   0  0  0  0  0  0
  -39.0005   61.5971   35.5205 H   0  0  0  0  0  0
  -40.8543   59.9020   35.4171 H   0  0  0  0  0  0
  -41.5026   60.6585   33.9029 H   0  0  0  0  0  0
  -39.2609   60.2297   32.7272 H   0  0  0  0  0  0
  -38.6008   59.4830   34.2363 H   0  0  0  0  0  0
  -37.2659   61.8556   32.7261 H   0  0  0  0  0  0
  -37.9551   62.2085   31.1642 H   0  0  0  0  0  0
  -41.5438   62.6979   35.7162 H   0  0  0  0  0  0
  -42.5953   63.6961   34.7591 H   0  0  0  0  0  0
  -41.9175   66.3643   33.9774 H   0  0  0  0  0  0
  -38.4911   65.1540   30.5527 H   0  0  0  0  0  0
  -34.9242   63.9786   30.6461 H   0  0  0  0  0  0
  -35.7311   62.4432   30.4161 H   0  0  0  0  0  0
  -41.2149   67.9638   32.2185 H   0  0  0  0  0  0
  -35.9878   70.4980   31.3292 H   0  0  0  0  0  0
  -36.4150   69.2979   29.7070 H   0  0  0  0  0  0
  -37.2041   70.7263   29.0830 H   0  0  0  0  0  0
  -37.6315   67.1210   29.8904 H   0  0  0  0  0  0
  -38.8148   66.7578   28.6430 H   0  0  0  0  0  0
  -43.4376   65.6294   35.8435 H   0  0  0  0  0  0
  -39.6060   64.0972   37.0436 H   0  0  0  0  0  0
  -37.7601   68.7132   27.8431 H   0  0  0  0  0  0
  -39.2153   69.3598   28.5321 H   0  0  0  0  0  0
  -43.2949   67.3446   37.6052 H   0  0  0  0  0  0
  -39.4768   65.8031   38.8081 H   0  0  0  0  0  0
  -41.3168   67.4354   39.0818 H   0  0  0  0  0  0
  1  2  1  0  0  0
  1  5  1  0  0  0
  1 10  1  0  0  0
  2  3  2  0  0  0
  2  6  1  0  0  0
  3  9  1  0  0  0
  3  4  1  0  0  0
  4  5  1  0  0  0
  4 13  2  0  0  0
  5 11  2  0  0  0
  6  7  1  0  0  0
  6  8  1  0  0  0
  6 31  1  0  0  0
  7  8  1  0  0  0
  7 32  1  0  0  0
  7 33  1  0  0  0
  8 34  1  0  0  0
  8 35  1  0  0  0
  9 12  1  0  0  0
  9 36  1  0  0  0
  9 37  1  0  0  0
 10 20  1  0  0  0
 10 38  1  0  0  0
 10 39  1  0  0  0
 11 19  1  0  0  0
 11 40  1  0  0  0
 12 15  2  0  0  0
 12 18  1  0  0  0
 13 17  1  0  0  0
 13 41  1  0  0  0
 14 23  1  0  0  0
 14 16  2  0  0  0
 14 21  1  0  0  0
 17 19  2  0  0  0
 17 22  1  0  0  0
 18 42  1  0  0  0
 18 43  1  0  0  0
 19 44  1  0  0  0
 20 25  1  0  0  0
 20 26  2  0  0  0
 21 45  1  0  0  0
 22 24  1  0  0  0
 23 27  1  0  0  0
 23 46  1  0  0  0
 23 47  1  0  0  0
 24 27  1  0  0  0
 24 48  1  0  0  0
 24 49  1  0  0  0
 25 28  2  0  0  0
 25 50  1  0  0  0
 26 29  1  0  0  0
 26 51  1  0  0  0
 27 52  1  0  0  0
 27 53  1  0  0  0
 28 30  1  0  0  0
 28 54  1  0  0  0
 29 30  2  0  0  0
 29 55  1  0  0  0
 30 56  1  0  0  0
M  END
> <s_m_entry_id>
68205

> <s_m_entry_name>
dock_pv.141

> <s_m_Source_Path>
/home/csk/Desktop/cluster/DUD-E-result/pa2ga

> <s_m_Source_File>
dock_pv.maegz

> <i_m_Source_File_Index>
141

> <chembl_id>
CHEMBL145978

> <chembl_pref_name>
None

> <i_lp_mmshare_version>
53161

> <i_f3d_flags>
0

> <r_lp_tautomer_probability>
1

> <s_lp_Force_Field>
OPLS_2005

> <r_lp_Energy>
17.619701

> <b_lp_Chiralities_Consistent>
1

> <s_lp_Variant>
CHEMBL3474_lig67-1

> <s_i_glide_gridfile>
glide-grid_1kvo

> <i_i_glide_lignum>
107

> <i_i_glide_rotatable_bonds>
11

> <r_i_docking_score>
-7.59972711951589

> <r_i_glide_ligand_efficiency>
-0.253324237317196

> <r_i_glide_ligand_efficiency_sa>
-0.787137303845559

> <r_i_glide_ligand_efficiency_ln>
-1.72674080721319

> <r_i_glide_gscore>
-7.59972711951589

> <r_i_glide_lipo>
-2.87570284434813

> <r_i_glide_hbond>
-0.386062159624361

> <r_i_glide_metal>
0

> <r_i_glide_rewards>
-0.909964621838624

> <r_i_glide_evdw>
-39.5949172973633

> <r_i_glide_ecoul>
-16.1285514831543

> <r_i_glide_erotb>
1.07107086195005

> <r_i_glide_esite>
-0.100039768313521

> <r_i_glide_emodel>
-82.1391870242812

> <r_i_glide_energy>
-55.7234687805176

> <r_i_glide_einternal>
7.60095500946045

> <i_i_glide_confnum>
61

> <i_i_glide_posenum>
285

> <r_i_glide_eff_state_penalty>
0

> <s_user_duplicate_titles>
CHEMBL3474_lig67,246746

> <s_m_subgroup_title>
dock_pv

> <s_m_subgroupid>
dock_pv

> <b_m_subgroup_collapsed>
1

$$$$
CHEMBL3474_lig117
                    3D
 Schrodinger Suite 2021-1.
 48 50  0  0  1  0            999 V2000
  -41.2950   66.2309   34.5717 C   0  0  0  0  0  0
  -41.2152   64.1380   33.7301 N   0  0  0  0  0  0
  -41.5456   64.8812   34.8497 C   0  0  0  0  0  0
  -40.7344   66.3057   33.2287 C   0  0  0  0  0  0
  -40.7401   64.9662   32.7295 C   0  0  0  0  0  0
  -41.6388   67.3562   35.4565 C   0  0  0  0  0  0
  -41.2154   67.2671   36.9851 C   0  0  0  0  0  0
  -41.2890   62.6767   33.6033 C   0  0  0  0  0  0
  -40.1989   67.3161   32.3793 C   0  0  0  0  0  0
  -40.0150   68.9930   32.9243 S   0  0  0  0  0  0
  -37.7168   69.8611   31.4491 C   0  0  0  0  0  0
  -42.1141   68.4156   35.0418 O   0  0  0  0  0  0
  -40.3080   66.5345   37.3740 O   0  0  0  0  0  0
  -37.0497   68.8993   31.8428 O   0  0  0  0  0  0
  -39.2281   70.0395   31.6508 C   0  0  0  0  0  0
  -41.9105   68.0871   37.7784 N   0  0  0  0  0  0
  -42.1553   64.2077   36.0835 C   0  0  0  0  0  0
  -40.2952   64.6341   31.4428 C   0  0  0  0  0  0
  -39.9646   61.9319   33.7391 C   0  0  0  0  0  0
  -37.2151   70.9372   30.7812 O   0  0  0  0  0  0
  -39.8155   65.6614   30.6432 C   0  0  0  0  0  0
  -39.7646   66.9677   31.0977 C   0  0  0  0  0  0
  -38.7347   62.6037   33.7818 C   0  0  0  0  0  0
  -39.9954   60.5361   33.7800 C   0  0  0  0  0  0
  -41.1435   63.3841   36.9027 C   0  0  0  0  0  0
  -38.8067   59.8184   33.8273 C   0  0  0  0  0  0
  -37.5498   61.8847   33.8172 C   0  0  0  0  0  0
  -37.5931   60.4990   33.8293 C   0  0  0  0  0  0
  -41.6940   62.4525   32.6168 H   0  0  0  0  0  0
  -42.0174   62.2749   34.3056 H   0  0  0  0  0  0
  -39.7196   69.8823   30.6918 H   0  0  0  0  0  0
  -39.4296   71.0763   31.9237 H   0  0  0  0  0  0
  -41.7121   68.1112   38.7672 H   0  0  0  0  0  0
  -42.6260   68.6824   37.3873 H   0  0  0  0  0  0
  -42.6110   64.9418   36.7452 H   0  0  0  0  0  0
  -42.9959   63.5735   35.8016 H   0  0  0  0  0  0
  -40.3007   63.6186   31.0753 H   0  0  0  0  0  0
  -36.2512   70.8852   30.6429 H   0  0  0  0  0  0
  -39.4553   65.4334   29.6487 H   0  0  0  0  0  0
  -39.3541   67.7044   30.4263 H   0  0  0  0  0  0
  -38.6747   63.6805   33.7657 H   0  0  0  0  0  0
  -40.9362   60.0047   33.7487 H   0  0  0  0  0  0
  -41.5991   63.0130   37.8214 H   0  0  0  0  0  0
  -40.7761   62.5190   36.3534 H   0  0  0  0  0  0
  -40.2742   63.9771   37.1863 H   0  0  0  0  0  0
  -38.8154   58.7400   33.8437 H   0  0  0  0  0  0
  -36.5988   62.3934   33.8257 H   0  0  0  0  0  0
  -36.6629   59.9531   33.8428 H   0  0  0  0  0  0
  1  3  2  0  0  0
  1  4  1  0  0  0
  1  6  1  0  0  0
  2  3  1  0  0  0
  2  8  1  0  0  0
  2  5  1  0  0  0
  3 17  1  0  0  0
  4  5  1  0  0  0
  4  9  2  0  0  0
  5 18  2  0  0  0
  6  7  1  0  0  0
  6 12  2  0  0  0
  7 13  2  0  0  0
  7 16  1  0  0  0
  8 19  1  0  0  0
  8 29  1  0  0  0
  8 30  1  0  0  0
  9 10  1  0  0  0
  9 22  1  0  0  0
 10 15  1  0  0  0
 11 15  1  0  0  0
 11 14  2  0  0  0
 11 20  1  0  0  0
 15 31  1  0  0  0
 15 32  1  0  0  0
 16 33  1  0  0  0
 16 34  1  0  0  0
 17 25  1  0  0  0
 17 35  1  0  0  0
 17 36  1  0  0  0
 18 21  1  0  0  0
 18 37  1  0  0  0
 19 23  2  0  0  0
 19 24  1  0  0  0
 20 38  1  0  0  0
 21 22  2  0  0  0
 21 39  1  0  0  0
 22 40  1  0  0  0
 23 27  1  0  0  0
 23 41  1  0  0  0
 24 26  2  0  0  0
 24 42  1  0  0  0
 25 43  1  0  0  0
 25 44  1  0  0  0
 25 45  1  0  0  0
 26 28  1  0  0  0
 26 46  1  0  0  0
 27 28  2  0  0  0
 27 47  1  0  0  0
 28 48  1  0  0  0
M  END
> <s_m_entry_id>
68206

> <s_m_entry_name>
dock_pv.142

> <s_m_Source_Path>
/home/csk/Desktop/cluster/DUD-E-result/pa2ga

> <s_m_Source_File>
dock_pv.maegz

> <i_m_Source_File_Index>
142

> <chembl_id>
CHEMBL149206

> <chembl_pref_name>
None

> <i_lp_mmshare_version>
53161

> <i_f3d_flags>
0

> <r_lp_tautomer_probability>
1

> <s_lp_Force_Field>
OPLS_2005

> <r_lp_Energy>
22.142174

> <b_lp_Chiralities_Consistent>
1

> <s_lp_Variant>
CHEMBL3474_lig117-1

> <s_i_glide_gridfile>
glide-grid_1kvo

> <i_i_glide_lignum>
176

> <i_i_glide_rotatable_bonds>
9

> <r_i_docking_score>
-7.5925759396639

> <r_i_glide_ligand_efficiency>
-0.271163426416568

> <r_i_glide_ligand_efficiency_sa>
-0.823411869317975

> <r_i_glide_ligand_efficiency_ln>
-1.75258945459083

> <r_i_glide_gscore>
-7.5925759396639

> <r_i_glide_lipo>
-3.39656181119297

> <r_i_glide_hbond>
0

> <r_i_glide_metal>
0

> <r_i_glide_rewards>
-1.19079210793042

> <r_i_glide_evdw>
-40.2340927124023

> <r_i_glide_ecoul>
-11.2500858306885

> <r_i_glide_erotb>
0.746848838755235

> <r_i_glide_esite>
-0.0528533490723498

> <r_i_glide_emodel>
-74.3448785464585

> <r_i_glide_energy>
-51.4841785430908

> <r_i_glide_einternal>
6.28654146194458

> <i_i_glide_confnum>
66

> <i_i_glide_posenum>
326

> <r_i_glide_eff_state_penalty>
0

> <s_user_duplicate_titles>
CHEMBL3474_lig117,247589

> <s_m_subgroup_title>
dock_pv

> <s_m_subgroupid>
dock_pv

> <b_m_subgroup_collapsed>
1

$$$$
CHEMBL3474_lig228
                    3D
 Schrodinger Suite 2021-1.
 48 50  0  0  1  0            999 V2000
  -40.4379   66.1346   33.0594 C   0  0  0  0  0  0
  -41.1388   65.9734   34.2504 C   0  0  0  0  0  0
  -41.0733   64.7842   34.9719 C   0  0  0  0  0  0
  -39.6122   65.1225   32.5582 C   0  0  0  0  0  0
  -38.6518   62.7145   33.1874 C   0  0  0  0  0  0
  -39.4486   63.9258   33.3056 C   0  0  0  0  0  0
  -40.2446   63.7668   34.4804 C   0  0  0  0  0  0
  -40.0332   62.4865   34.9616 N   0  0  0  0  0  0
  -39.1390   61.8167   34.1420 C   0  0  0  0  0  0
  -38.7858   60.3634   34.4297 C   0  0  0  0  0  0
  -37.5436   62.4449   32.2527 C   0  0  0  0  0  0
  -36.5997   63.6484   31.8252 C   0  0  0  0  0  0
  -37.2140   61.3061   31.9127 O   0  0  0  0  0  0
  -36.4152   64.6356   32.5334 O   0  0  0  0  0  0
  -36.0151   63.4678   30.6440 N   0  0  0  0  0  0
  -38.9694   65.1722   31.3359 O   0  0  0  0  0  0
  -39.1388   66.2656   30.4270 C   0  0  0  0  0  0
  -38.2694   67.4789   30.8046 C   0  0  0  0  0  0
  -38.2996   68.4304   29.8296 O   0  0  0  0  0  0
  -37.6147   67.5765   31.8423 O   0  0  0  0  0  0
  -41.9945   67.1092   34.7806 C   0  0  0  0  0  0
  -40.7356   61.9234   36.1247 C   0  0  0  0  0  0
  -42.1889   61.5475   35.8693 C   0  0  0  0  0  0
  -43.1606   61.8936   36.8131 C   0  0  0  0  0  0
  -44.4926   61.5548   36.5977 C   0  0  0  0  0  0
  -44.8436   60.8624   35.4430 C   0  0  0  0  0  0
  -43.8825   60.5003   34.5038 C   0  0  0  0  0  0
  -42.5523   60.8440   34.7158 C   0  0  0  0  0  0
  -40.5525   67.0613   32.5201 H   0  0  0  0  0  0
  -41.6538   64.6542   35.8734 H   0  0  0  0  0  0
  -38.0205   59.9520   33.7777 H   0  0  0  0  0  0
  -38.4140   60.2404   35.4432 H   0  0  0  0  0  0
  -39.6497   59.7087   34.3297 H   0  0  0  0  0  0
  -36.2482   62.6560   30.0918 H   0  0  0  0  0  0
  -35.4575   64.2223   30.2457 H   0  0  0  0  0  0
  -38.8262   65.9008   29.4461 H   0  0  0  0  0  0
  -40.1891   66.5434   30.3364 H   0  0  0  0  0  0
  -38.7971   68.1718   29.0524 H   0  0  0  0  0  0
  -41.6467   68.0755   34.4116 H   0  0  0  0  0  0
  -43.0399   66.9710   34.4996 H   0  0  0  0  0  0
  -41.9384   67.1531   35.8702 H   0  0  0  0  0  0
  -40.6885   62.6733   36.9169 H   0  0  0  0  0  0
  -40.2062   61.0525   36.5109 H   0  0  0  0  0  0
  -42.8900   62.4281   37.7123 H   0  0  0  0  0  0
  -45.2494   61.8219   37.3208 H   0  0  0  0  0  0
  -45.8767   60.5913   35.2714 H   0  0  0  0  0  0
  -44.1692   59.9597   33.6132 H   0  0  0  0  0  0
  -41.8135   60.5634   33.9811 H   0  0  0  0  0  0
  1  2  2  0  0  0
  1  4  1  0  0  0
  1 29  1  0  0  0
  2 21  1  0  0  0
  2  3  1  0  0  0
  3  7  2  0  0  0
  3 30  1  0  0  0
  4  6  2  0  0  0
  4 16  1  0  0  0
  5  6  1  0  0  0
  5  9  2  0  0  0
  5 11  1  0  0  0
  6  7  1  0  0  0
  7  8  1  0  0  0
  8  9  1  0  0  0
  8 22  1  0  0  0
  9 10  1  0  0  0
 10 31  1  0  0  0
 10 32  1  0  0  0
 10 33  1  0  0  0
 11 12  1  0  0  0
 11 13  2  0  0  0
 12 14  2  0  0  0
 12 15  1  0  0  0
 15 34  1  0  0  0
 15 35  1  0  0  0
 16 17  1  0  0  0
 17 18  1  0  0  0
 17 36  1  0  0  0
 17 37  1  0  0  0
 18 19  1  0  0  0
 18 20  2  0  0  0
 19 38  1  0  0  0
 21 39  1  0  0  0
 21 40  1  0  0  0
 21 41  1  0  0  0
 22 23  1  0  0  0
 22 42  1  0  0  0
 22 43  1  0  0  0
 23 24  2  0  0  0
 23 28  1  0  0  0
 24 25  1  0  0  0
 24 44  1  0  0  0
 25 26  2  0  0  0
 25 45  1  0  0  0
 26 27  1  0  0  0
 26 46  1  0  0  0
 27 28  2  0  0  0
 27 47  1  0  0  0
 28 48  1  0  0  0
M  END
> <s_m_entry_id>
68207

> <s_m_entry_name>
dock_pv.143

> <s_m_Source_Path>
/home/csk/Desktop/cluster/DUD-E-result/pa2ga

> <s_m_Source_File>
dock_pv.maegz

> <i_m_Source_File_Index>
143

> <chembl_id>
CHEMBL208429

> <chembl_pref_name>
None

> <i_lp_mmshare_version>
53161

> <i_f3d_flags>
0

> <r_lp_tautomer_probability>
1

> <s_lp_Force_Field>
OPLS_2005

> <r_lp_Energy>
24.054305

> <b_lp_Chiralities_Consistent>
1

> <s_lp_Variant>
CHEMBL3474_lig228-1

> <s_i_glide_gridfile>
glide-grid_1kvo

> <i_i_glide_lignum>
290

> <i_i_glide_rotatable_bonds>
8

> <r_i_docking_score>
-7.5701164773317

> <r_i_glide_ligand_efficiency>
-0.270361302761847

> <r_i_glide_ligand_efficiency_sa>
-0.820976149476673

> <r_i_glide_ligand_efficiency_ln>
-1.74740515124609

> <r_i_glide_gscore>
-7.5701164773317

> <r_i_glide_lipo>
-3.15822076326564

> <r_i_glide_hbond>
-0.443457511342085

> <r_i_glide_metal>
0

> <r_i_glide_rewards>
-1.27477029683238

> <r_i_glide_evdw>
-44.9494285583496

> <r_i_glide_ecoul>
-7.64749383926392

> <r_i_glide_erotb>
0.804426384495576

> <r_i_glide_esite>
-0.103498786580105

> <r_i_glide_emodel>
-78.2893868925377

> <r_i_glide_energy>
-52.5969223976135

> <r_i_glide_einternal>
5.56840038299561

> <i_i_glide_confnum>
68

> <i_i_glide_posenum>
196

> <r_i_glide_eff_state_penalty>
0

> <s_user_duplicate_titles>
CHEMBL3474_lig228,345857

> <s_m_subgroup_title>
dock_pv

> <s_m_subgroupid>
dock_pv

> <b_m_subgroup_collapsed>
1

$$$$
CHEMBL3474_lig43
                    3D
 Schrodinger Suite 2021-1.
 49 51  0  0  1  0            999 V2000
  -40.0664   62.7943   34.8802 N   0  0  0  0  0  0
  -38.7857   63.0320   33.0319 C   0  0  0  0  0  0
  -39.0774   62.2037   34.1062 C   0  0  0  0  0  0
  -39.6424   64.1827   33.1428 C   0  0  0  0  0  0
  -40.4139   64.0185   34.3280 C   0  0  0  0  0  0
  -40.7363   62.2079   36.0503 C   0  0  0  0  0  0
  -37.8049   62.7497   31.9046 C   0  0  0  0  0  0
  -39.8492   65.3312   32.3505 C   0  0  0  0  0  0
  -36.5782   63.6685   31.8427 C   0  0  0  0  0  0
  -38.4146   67.6322   30.5203 C   0  0  0  0  0  0
  -39.1101   65.3807   31.1828 O   0  0  0  0  0  0
  -42.1717   61.7451   35.8136 C   0  0  0  0  0  0
  -36.4692   64.6987   32.5039 O   0  0  0  0  0  0
  -37.6049   67.6992   31.4446 O   0  0  0  0  0  0
  -39.3096   66.4194   30.2224 C   0  0  0  0  0  0
  -35.6154   63.2981   31.0165 N   0  0  0  0  0  0
  -43.0829   61.7796   36.8746 C   0  0  0  0  0  0
  -41.3455   64.9797   34.7454 C   0  0  0  0  0  0
  -38.4697   60.8460   34.4265 C   0  0  0  0  0  0
  -44.3993   61.3575   36.6908 C   0  0  0  0  0  0
  -38.6199   68.6263   29.6131 O   0  0  0  0  0  0
  -45.5133   61.4012   38.0071 Cl  0  0  0  0  0  0
  -41.4903   66.1185   33.9560 C   0  0  0  0  0  0
  -43.9092   60.8411   34.3839 C   0  0  0  0  0  0
  -40.7653   66.2969   32.7829 C   0  0  0  0  0  0
  -42.5933   61.2629   34.5671 C   0  0  0  0  0  0
  -44.8132   60.8962   35.4437 C   0  0  0  0  0  0
  -39.2110   59.6978   33.7311 C   0  0  0  0  0  0
  -40.7295   62.9709   36.8309 H   0  0  0  0  0  0
  -40.1689   61.3663   36.4417 H   0  0  0  0  0  0
  -37.4523   61.7187   31.9441 H   0  0  0  0  0  0
  -38.3250   62.8398   30.9533 H   0  0  0  0  0  0
  -39.0199   66.0098   29.2535 H   0  0  0  0  0  0
  -40.3575   66.7083   30.1374 H   0  0  0  0  0  0
  -34.8544   63.9395   30.8360 H   0  0  0  0  0  0
  -35.7512   62.5015   30.4138 H   0  0  0  0  0  0
  -42.7738   62.1342   37.8476 H   0  0  0  0  0  0
  -41.9357   64.8527   35.6418 H   0  0  0  0  0  0
  -37.4290   60.8278   34.1017 H   0  0  0  0  0  0
  -38.4134   60.6509   35.4934 H   0  0  0  0  0  0
  -38.0345   69.3685   29.7803 H   0  0  0  0  0  0
  -42.1960   66.8793   34.2571 H   0  0  0  0  0  0
  -44.2320   60.4731   33.4211 H   0  0  0  0  0  0
  -40.9299   67.1970   32.2123 H   0  0  0  0  0  0
  -41.9093   61.2155   33.7328 H   0  0  0  0  0  0
  -45.8325   60.5689   35.2954 H   0  0  0  0  0  0
  -38.6666   58.7619   33.8463 H   0  0  0  0  0  0
  -40.2091   59.5559   34.1443 H   0  0  0  0  0  0
  -39.3152   59.8793   32.6607 H   0  0  0  0  0  0
  1  3  1  0  0  0
  1  5  1  0  0  0
  1  6  1  0  0  0
  2  3  2  0  0  0
  2  7  1  0  0  0
  2  4  1  0  0  0
  3 19  1  0  0  0
  4  5  1  0  0  0
  4  8  2  0  0  0
  5 18  2  0  0  0
  6 12  1  0  0  0
  6 29  1  0  0  0
  6 30  1  0  0  0
  7  9  1  0  0  0
  7 31  1  0  0  0
  7 32  1  0  0  0
  8 11  1  0  0  0
  8 25  1  0  0  0
  9 13  2  0  0  0
  9 16  1  0  0  0
 10 15  1  0  0  0
 10 14  2  0  0  0
 10 21  1  0  0  0
 11 15  1  0  0  0
 12 17  1  0  0  0
 12 26  2  0  0  0
 15 33  1  0  0  0
 15 34  1  0  0  0
 16 35  1  0  0  0
 16 36  1  0  0  0
 17 20  2  0  0  0
 17 37  1  0  0  0
 18 23  1  0  0  0
 18 38  1  0  0  0
 19 28  1  0  0  0
 19 39  1  0  0  0
 19 40  1  0  0  0
 20 22  1  0  0  0
 20 27  1  0  0  0
 21 41  1  0  0  0
 23 25  2  0  0  0
 23 42  1  0  0  0
 24 26  1  0  0  0
 24 27  2  0  0  0
 24 43  1  0  0  0
 25 44  1  0  0  0
 26 45  1  0  0  0
 27 46  1  0  0  0
 28 47  1  0  0  0
 28 48  1  0  0  0
 28 49  1  0  0  0
M  END
> <s_m_entry_id>
68208

> <s_m_entry_name>
dock_pv.144

> <s_m_Source_Path>
/home/csk/Desktop/cluster/DUD-E-result/pa2ga

> <s_m_Source_File>
dock_pv.maegz

> <i_m_Source_File_Index>
144

> <chembl_id>
CHEMBL146229

> <chembl_pref_name>
None

> <i_lp_mmshare_version>
53161

> <i_f3d_flags>
0

> <r_lp_tautomer_probability>
1

> <s_lp_Force_Field>
OPLS_2005

> <r_lp_Energy>
13.875032

> <b_lp_Chiralities_Consistent>
1

> <s_lp_Variant>
CHEMBL3474_lig43-1

> <s_i_glide_gridfile>
glide-grid_1kvo

> <i_i_glide_lignum>
83

> <i_i_glide_rotatable_bonds>
9

> <r_i_docking_score>
-7.56253998253796

> <r_i_glide_ligand_efficiency>
-0.27009071366207

> <r_i_glide_ligand_efficiency_sa>
-0.820154481601295

> <r_i_glide_ligand_efficiency_ln>
-1.74565627379214

> <r_i_glide_gscore>
-7.56253998253796

> <r_i_glide_lipo>
-3.58617736006509

> <r_i_glide_hbond>
-0.364124723626415

> <r_i_glide_metal>
0

> <r_i_glide_rewards>
-0.909111479417519

> <r_i_glide_evdw>
-45.4895210266113

> <r_i_glide_ecoul>
-7.2362813949585

> <r_i_glide_erotb>
0.732179799861576

> <r_i_glide_esite>
-0.0753879587161698

> <r_i_glide_emodel>
-80.7821643379416

> <r_i_glide_energy>
-52.7258024215698

> <r_i_glide_einternal>
3.90377163887024

> <i_i_glide_confnum>
51

> <i_i_glide_posenum>
270

> <r_i_glide_eff_state_penalty>
0

> <s_user_duplicate_titles>
CHEMBL3474_lig43,246286

> <s_m_subgroup_title>
dock_pv

> <s_m_subgroupid>
dock_pv

> <b_m_subgroup_collapsed>
1

$$$$
CHEMBL3474_lig291
                    3D
 Schrodinger Suite 2021-1.
 64 67  0  0  1  0            999 V2000
  -38.0847   67.5145   28.8444 C   0  0  0  0  0  0
  -38.3902   68.3916   29.8723 C   0  0  0  0  0  0
  -39.0225   67.9108   31.0478 C   0  0  0  0  0  0
  -39.2956   66.5231   31.0973 N   0  0  0  0  0  0
  -39.7441   66.1802   32.3511 C   0  0  0  0  0  0
  -39.8681   67.3536   33.0942 C   0  0  0  0  0  0
  -39.5084   68.4557   32.2767 C   0  0  0  0  0  0
  -39.5827   69.8862   32.6430 C   0  0  0  0  0  0
  -38.4189   70.8978   32.2564 C   0  0  0  0  0  0
  -40.0387   64.7229   32.7419 C   0  0  0  0  0  0
  -38.8655   63.7257   32.8842 C   0  0  0  0  0  0
  -37.6260   63.9714   32.2665 C   0  0  0  0  0  0
  -36.6240   63.0073   32.2430 C   0  0  0  0  0  0
  -36.8151   61.7972   32.8974 C   0  0  0  0  0  0
  -38.0128   61.5508   33.5597 C   0  0  0  0  0  0
  -39.0470   62.4962   33.5651 C   0  0  0  0  0  0
  -40.2351   67.3621   34.5707 C   0  0  0  0  0  0
  -41.7048   67.6399   34.9457 C   0  0  0  0  0  0
  -40.4150   70.3048   33.4430 O   0  0  0  0  0  0
  -38.8520   72.1376   32.0116 N   0  0  0  0  0  0
  -37.2367   70.5585   32.2430 O   0  0  0  0  0  0
  -38.0698   69.7236   29.8384 O   0  0  0  0  0  0
  -37.4389   70.3493   28.7260 C   0  0  0  0  0  0
  -39.0508   65.6980   30.0369 C   0  0  0  0  0  0
  -38.4147   66.1781   28.9121 C   0  0  0  0  0  0
  -38.5223   70.8318   27.7686 C   0  0  0  0  0  0
  -38.0149   71.6980   26.8564 O   0  0  0  0  0  0
  -39.7050   70.4981   27.8430 O   0  0  0  0  0  0
  -40.3003   62.1364   34.2849 C   0  0  0  0  0  0
  -41.0858   61.0659   33.8426 C   0  0  0  0  0  0
  -42.2439   60.7061   34.5269 C   0  0  0  0  0  0
  -42.6135   61.4108   35.6698 C   0  0  0  0  0  0
  -41.8332   62.4672   36.1334 C   0  0  0  0  0  0
  -40.6775   62.8251   35.4435 C   0  0  0  0  0  0
  -41.8225   68.0259   36.4338 C   0  0  0  0  0  0
  -42.6139   66.4385   34.6579 C   0  0  0  0  0  0
  -37.6150   67.8818   27.9518 H   0  0  0  0  0  0
  -40.5900   64.7316   33.6761 H   0  0  0  0  0  0
  -40.7398   64.2857   32.0292 H   0  0  0  0  0  0
  -37.4133   64.8974   31.7633 H   0  0  0  0  0  0
  -35.6945   63.2044   31.7277 H   0  0  0  0  0  0
  -36.0312   61.0546   32.9032 H   0  0  0  0  0  0
  -38.1407   60.6087   34.0739 H   0  0  0  0  0  0
  -39.9198   66.4359   35.0515 H   0  0  0  0  0  0
  -39.6150   68.0980   35.0434 H   0  0  0  0  0  0
  -42.0585   68.4906   34.3636 H   0  0  0  0  0  0
  -38.1866   72.8539   31.7623 H   0  0  0  0  0  0
  -39.8331   72.3615   32.0747 H   0  0  0  0  0  0
  -36.6883   69.7355   28.2289 H   0  0  0  0  0  0
  -36.9093   71.2172   29.1199 H   0  0  0  0  0  0
  -39.2934   64.6537   30.1595 H   0  0  0  0  0  0
  -38.1806   65.5232   28.0835 H   0  0  0  0  0  0
  -38.7458   72.1924   26.4446 H   0  0  0  0  0  0
  -40.7984   60.5084   32.9635 H   0  0  0  0  0  0
  -42.8490   59.8833   34.1753 H   0  0  0  0  0  0
  -43.5099   61.1323   36.2043 H   0  0  0  0  0  0
  -42.1208   63.0038   37.0260 H   0  0  0  0  0  0
  -40.0691   63.6376   35.8140 H   0  0  0  0  0  0
  -41.4991   67.2120   37.0843 H   0  0  0  0  0  0
  -41.2162   68.8978   36.6762 H   0  0  0  0  0  0
  -42.8515   68.2702   36.7000 H   0  0  0  0  0  0
  -42.2553   65.5342   35.1505 H   0  0  0  0  0  0
  -43.6149   66.6272   35.0430 H   0  0  0  0  0  0
  -42.6840   66.2339   33.5905 H   0  0  0  0  0  0
  1 25  1  0  0  0
  1  2  2  0  0  0
  1 37  1  0  0  0
  2 22  1  0  0  0
  2  3  1  0  0  0
  3  7  2  0  0  0
  3  4  1  0  0  0
  4 24  1  0  0  0
  4  5  1  0  0  0
  5 10  1  0  0  0
  5  6  2  0  0  0
  6 17  1  0  0  0
  6  7  1  0  0  0
  7  8  1  0  0  0
  8 19  2  0  0  0
  8  9  1  0  0  0
  9 20  1  0  0  0
  9 21  2  0  0  0
 10 11  1  0  0  0
 10 38  1  0  0  0
 10 39  1  0  0  0
 11 12  2  0  0  0
 11 16  1  0  0  0
 12 13  1  0  0  0
 12 40  1  0  0  0
 13 14  2  0  0  0
 13 41  1  0  0  0
 14 15  1  0  0  0
 14 42  1  0  0  0
 15 16  2  0  0  0
 15 43  1  0  0  0
 16 29  1  0  0  0
 17 18  1  0  0  0
 17 44  1  0  0  0
 17 45  1  0  0  0
 18 35  1  0  0  0
 18 36  1  0  0  0
 18 46  1  0  0  0
 20 47  1  0  0  0
 20 48  1  0  0  0
 22 23  1  0  0  0
 23 26  1  0  0  0
 23 49  1  0  0  0
 23 50  1  0  0  0
 24 25  2  0  0  0
 24 51  1  0  0  0
 25 52  1  0  0  0
 26 27  1  0  0  0
 26 28  2  0  0  0
 27 53  1  0  0  0
 29 30  2  0  0  0
 29 34  1  0  0  0
 30 31  1  0  0  0
 30 54  1  0  0  0
 31 32  2  0  0  0
 31 55  1  0  0  0
 32 33  1  0  0  0
 32 56  1  0  0  0
 33 34  2  0  0  0
 33 57  1  0  0  0
 34 58  1  0  0  0
 35 59  1  0  0  0
 35 60  1  0  0  0
 35 61  1  0  0  0
 36 62  1  0  0  0
 36 63  1  0  0  0
 36 64  1  0  0  0
M  END
> <s_m_entry_id>
68209

> <s_m_entry_name>
dock_pv.145

> <s_m_Source_Path>
/home/csk/Desktop/cluster/DUD-E-result/pa2ga

> <s_m_Source_File>
dock_pv.maegz

> <i_m_Source_File_Index>
145

> <chembl_id>
CHEMBL478820

> <chembl_pref_name>
None

> <i_lp_mmshare_version>
53161

> <i_f3d_flags>
0

> <r_lp_tautomer_probability>
1

> <s_lp_Force_Field>
OPLS_2005

> <r_lp_Energy>
31.962999

> <b_lp_Chiralities_Consistent>
1

> <s_lp_Variant>
CHEMBL3474_lig291-1

> <s_i_glide_gridfile>
glide-grid_1kvo

> <i_i_glide_lignum>
376

> <i_i_glide_rotatable_bonds>
11

> <r_i_docking_score>
-7.55692466899037

> <r_i_glide_ligand_efficiency>
-0.209914574138621

> <r_i_glide_ligand_efficiency_sa>
-0.693122651460485

> <r_i_glide_ligand_efficiency_ln>
-1.64871679826326

> <r_i_glide_gscore>
-7.55692466899037

> <r_i_glide_lipo>
-3.91574213831715

> <r_i_glide_hbond>
-0.304

> <r_i_glide_metal>
0

> <r_i_glide_rewards>
-0.360736111005337

> <r_i_glide_evdw>
-40.8368721008301

> <r_i_glide_ecoul>
-10.2329454421997

> <r_i_glide_erotb>
0.692001842138354

> <r_i_glide_esite>
-0.0916628404347756

> <r_i_glide_emodel>
-63.1333434296027

> <r_i_glide_energy>
-51.0698175430298

> <r_i_glide_einternal>
14.8114624023438

> <i_i_glide_confnum>
190

> <i_i_glide_posenum>
72

> <r_i_glide_eff_state_penalty>
0

> <s_user_duplicate_titles>
CHEMBL3474_lig291

> <s_m_subgroup_title>
dock_pv

> <s_m_subgroupid>
dock_pv

> <b_m_subgroup_collapsed>
1

$$$$
CHEMBL3474_lig335
                    3D
 Schrodinger Suite 2021-1.
 39 41  0  0  1  0            999 V2000
  -40.4438   66.6329   34.1427 C   0  0  0  0  0  0
  -40.0154   65.3062   34.1624 C   0  0  0  0  0  0
  -39.5149   64.7091   32.9992 C   0  0  0  0  0  0
  -39.5159   65.4312   31.8024 C   0  0  0  0  0  0
  -39.9423   66.7606   31.7793 C   0  0  0  0  0  0
  -40.3979   67.3624   32.9559 C   0  0  0  0  0  0
  -39.9699   67.5164   30.4624 C   0  0  0  0  0  0
  -38.6160   67.6395   29.7222 C   0  0  0  0  0  0
  -37.6161   68.6025   30.3739 C   0  0  0  0  0  0
  -37.2150   69.5655   29.5027 O   0  0  0  0  0  0
  -37.2022   68.4928   31.5268 O   0  0  0  0  0  0
  -39.0369   63.3747   33.0254 N   0  0  0  0  0  0
  -37.7139   61.5554   32.8355 C   0  0  0  0  0  0
  -37.8191   62.9058   32.5209 C   0  0  0  0  0  0
  -36.7739   63.7249   31.9377 C   0  0  0  0  0  0
  -36.0150   63.1054   31.0429 N   0  0  0  0  0  0
  -36.5721   64.8979   32.2431 O   0  0  0  0  0  0
  -38.9318   61.1421   33.4432 C   0  0  0  0  0  0
  -39.7558   62.2998   33.5473 C   0  0  0  0  0  0
  -41.0532   62.2277   34.0836 C   0  0  0  0  0  0
  -41.5114   60.9781   34.4991 C   0  0  0  0  0  0
  -40.7096   59.8464   34.4142 C   0  0  0  0  0  0
  -39.4149   59.9115   33.9051 C   0  0  0  0  0  0
  -43.1135   60.8276   35.1231 Cl  0  0  0  0  0  0
  -40.8100   67.0951   35.0475 H   0  0  0  0  0  0
  -40.0441   64.7566   35.0924 H   0  0  0  0  0  0
  -39.1771   64.9620   30.8884 H   0  0  0  0  0  0
  -40.7349   68.3885   32.9523 H   0  0  0  0  0  0
  -40.4150   68.5000   30.5926 H   0  0  0  0  0  0
  -40.6737   66.9650   29.8430 H   0  0  0  0  0  0
  -38.8094   67.9522   28.6948 H   0  0  0  0  0  0
  -38.1257   66.6687   29.6370 H   0  0  0  0  0  0
  -36.5067   70.1006   29.8764 H   0  0  0  0  0  0
  -36.8581   60.9294   32.6283 H   0  0  0  0  0  0
  -35.3102   63.6432   30.5569 H   0  0  0  0  0  0
  -36.2730   62.1900   30.7089 H   0  0  0  0  0  0
  -41.6942   63.0937   34.1534 H   0  0  0  0  0  0
  -41.1103   58.8982   34.7351 H   0  0  0  0  0  0
  -38.8078   59.0208   33.8389 H   0  0  0  0  0  0
  1  2  2  0  0  0
  1  6  1  0  0  0
  1 25  1  0  0  0
  2  3  1  0  0  0
  2 26  1  0  0  0
  3  4  2  0  0  0
  3 12  1  0  0  0
  4  5  1  0  0  0
  4 27  1  0  0  0
  5  6  2  0  0  0
  5  7  1  0  0  0
  6 28  1  0  0  0
  7  8  1  0  0  0
  7 29  1  0  0  0
  7 30  1  0  0  0
  8  9  1  0  0  0
  8 31  1  0  0  0
  8 32  1  0  0  0
  9 10  1  0  0  0
  9 11  2  0  0  0
 10 33  1  0  0  0
 12 19  1  0  0  0
 12 14  1  0  0  0
 13 18  1  0  0  0
 13 14  2  0  0  0
 13 34  1  0  0  0
 14 15  1  0  0  0
 15 16  1  0  0  0
 15 17  2  0  0  0
 16 35  1  0  0  0
 16 36  1  0  0  0
 18 19  2  0  0  0
 18 23  1  0  0  0
 19 20  1  0  0  0
 20 21  2  0  0  0
 20 37  1  0  0  0
 21 22  1  0  0  0
 21 24  1  0  0  0
 22 23  2  0  0  0
 22 38  1  0  0  0
 23 39  1  0  0  0
M  END
> <s_m_entry_id>
68210

> <s_m_entry_name>
dock_pv.146

> <s_m_Source_Path>
/home/csk/Desktop/cluster/DUD-E-result/pa2ga

> <s_m_Source_File>
dock_pv.maegz

> <i_m_Source_File_Index>
146

> <chembl_id>
CHEMBL4172222

> <chembl_pref_name>
None

> <i_lp_mmshare_version>
53161

> <i_f3d_flags>
0

> <r_lp_tautomer_probability>
1

> <s_lp_Force_Field>
OPLS_2005

> <r_lp_Energy>
13.407132

> <b_lp_Chiralities_Consistent>
1

> <s_lp_Variant>
CHEMBL3474_lig335-1

> <s_i_glide_gridfile>
glide-grid_1kvo

> <i_i_glide_lignum>
424

> <i_i_glide_rotatable_bonds>
6

> <r_i_docking_score>
-7.51449688241389

> <r_i_glide_ligand_efficiency>
-0.313104036767245

> <r_i_glide_ligand_efficiency_sa>
-0.903148324021397

> <r_i_glide_ligand_efficiency_ln>
-1.79856392175495

> <r_i_glide_gscore>
-7.51449688241389

> <r_i_glide_lipo>
-3.20794448659396

> <r_i_glide_hbond>
-0.200123158873917

> <r_i_glide_metal>
0

> <r_i_glide_rewards>
-1.34991022363519

> <r_i_glide_evdw>
-44.4616279602051

> <r_i_glide_ecoul>
-7.29456472396851

> <r_i_glide_erotb>
0.645701204602751

> <r_i_glide_esite>
-0.0849541113080453

> <r_i_glide_emodel>
-77.2479764217293

> <r_i_glide_energy>
-51.7561926841736

> <r_i_glide_einternal>
4.43251609802246

> <i_i_glide_confnum>
97

> <i_i_glide_posenum>
199

> <r_i_glide_eff_state_penalty>
0

> <s_user_duplicate_titles>
CHEMBL3474_lig335

> <s_m_subgroup_title>
dock_pv

> <s_m_subgroupid>
dock_pv

> <b_m_subgroup_collapsed>
1

$$$$
CHEMBL3474_lig118
                    3D
 Schrodinger Suite 2021-1.
 58 61  0  0  1  0            999 V2000
  -39.3840   65.1973   32.7390 C   0  0  0  0  0  0
  -40.9607   64.9936   34.3491 N   0  0  0  0  0  0
  -40.0404   64.2908   33.5821 C   0  0  0  0  0  0
  -39.9368   66.5125   33.0165 C   0  0  0  0  0  0
  -40.8448   66.3479   34.1049 C   0  0  0  0  0  0
  -38.4006   64.8877   31.6835 C   0  0  0  0  0  0
  -41.9810   64.4221   35.2359 C   0  0  0  0  0  0
  -37.2180   63.8525   31.9680 C   0  0  0  0  0  0
  -41.6402   64.2366   36.7221 C   0  0  0  0  0  0
  -39.7635   67.8238   32.5022 C   0  0  0  0  0  0
  -42.0283   63.0636   37.4060 C   0  0  0  0  0  0
  -37.5855   69.9080   31.5273 C   0  0  0  0  0  0
  -38.3488   65.5362   30.6384 O   0  0  0  0  0  0
  -38.9878   67.9463   31.3655 O   0  0  0  0  0  0
  -37.0381   63.2979   33.0425 O   0  0  0  0  0  0
  -36.7904   69.2979   32.2429 O   0  0  0  0  0  0
  -42.6276   61.9204   36.6715 C   0  0  0  0  0  0
  -36.3912   63.6896   30.9430 N   0  0  0  0  0  0
  -38.7250   69.2193   30.7739 C   0  0  0  0  0  0
  -39.9311   62.7702   33.6880 C   0  0  0  0  0  0
  -41.5005   67.4270   34.7147 C   0  0  0  0  0  0
  -37.5741   71.2570   31.3263 O   0  0  0  0  0  0
  -41.0015   65.2641   37.4298 C   0  0  0  0  0  0
  -41.2150   68.6994   34.2430 C   0  0  0  0  0  0
  -41.8035   62.9726   38.7841 C   0  0  0  0  0  0
  -40.3819   68.8980   33.1539 C   0  0  0  0  0  0
  -43.9751   61.9404   36.2991 C   0  0  0  0  0  0
  -41.8108   60.8702   36.2430 C   0  0  0  0  0  0
  -39.1857   62.3174   34.9555 C   0  0  0  0  0  0
  -40.7766   65.1517   38.7998 C   0  0  0  0  0  0
  -41.1898   64.0110   39.4801 C   0  0  0  0  0  0
  -42.2952   59.9189   35.3544 C   0  0  0  0  0  0
  -44.4720   60.9663   35.4374 C   0  0  0  0  0  0
  -43.6177   59.9886   34.9364 C   0  0  0  0  0  0
  -42.8510   65.0767   35.2014 H   0  0  0  0  0  0
  -42.3434   63.5140   34.7619 H   0  0  0  0  0  0
  -35.6076   63.0617   31.0110 H   0  0  0  0  0  0
  -36.5636   64.1972   30.0820 H   0  0  0  0  0  0
  -39.6190   69.8389   30.7139 H   0  0  0  0  0  0
  -38.3995   69.0444   29.7482 H   0  0  0  0  0  0
  -40.9115   62.2959   33.6587 H   0  0  0  0  0  0
  -39.4292   62.3517   32.8173 H   0  0  0  0  0  0
  -42.1908   67.2939   35.5352 H   0  0  0  0  0  0
  -38.2033   71.5638   30.6707 H   0  0  0  0  0  0
  -40.6821   66.1649   36.9316 H   0  0  0  0  0  0
  -41.6806   69.5536   34.7144 H   0  0  0  0  0  0
  -42.1068   62.0959   39.3315 H   0  0  0  0  0  0
  -40.2289   69.9131   32.8237 H   0  0  0  0  0  0
  -44.6215   62.7382   36.6357 H   0  0  0  0  0  0
  -40.7823   60.8115   36.5648 H   0  0  0  0  0  0
  -39.0797   61.2328   34.9856 H   0  0  0  0  0  0
  -38.1912   62.7442   35.0538 H   0  0  0  0  0  0
  -39.7190   62.6330   35.8427 H   0  0  0  0  0  0
  -40.2843   65.9496   39.3367 H   0  0  0  0  0  0
  -41.0177   63.9215   40.5432 H   0  0  0  0  0  0
  -41.6445   59.1436   34.9802 H   0  0  0  0  0  0
  -45.5058   60.9851   35.1245 H   0  0  0  0  0  0
  -43.9985   59.2669   34.2294 H   0  0  0  0  0  0
  1  3  2  0  0  0
  1  4  1  0  0  0
  1  6  1  0  0  0
  2  3  1  0  0  0
  2  7  1  0  0  0
  2  5  1  0  0  0
  3 20  1  0  0  0
  4  5  1  0  0  0
  4 10  2  0  0  0
  5 21  2  0  0  0
  6  8  1  0  0  0
  6 13  2  0  0  0
  7  9  1  0  0  0
  7 35  1  0  0  0
  7 36  1  0  0  0
  8 15  2  0  0  0
  8 18  1  0  0  0
  9 11  2  0  0  0
  9 23  1  0  0  0
 10 14  1  0  0  0
 10 26  1  0  0  0
 11 17  1  0  0  0
 11 25  1  0  0  0
 12 19  1  0  0  0
 12 16  2  0  0  0
 12 22  1  0  0  0
 14 19  1  0  0  0
 17 27  2  0  0  0
 17 28  1  0  0  0
 18 37  1  0  0  0
 18 38  1  0  0  0
 19 39  1  0  0  0
 19 40  1  0  0  0
 20 29  1  0  0  0
 20 41  1  0  0  0
 20 42  1  0  0  0
 21 24  1  0  0  0
 21 43  1  0  0  0
 22 44  1  0  0  0
 23 30  2  0  0  0
 23 45  1  0  0  0
 24 26  2  0  0  0
 24 46  1  0  0  0
 25 31  2  0  0  0
 25 47  1  0  0  0
 26 48  1  0  0  0
 27 33  1  0  0  0
 27 49  1  0  0  0
 28 32  2  0  0  0
 28 50  1  0  0  0
 29 51  1  0  0  0
 29 52  1  0  0  0
 29 53  1  0  0  0
 30 31  1  0  0  0
 30 54  1  0  0  0
 31 55  1  0  0  0
 32 34  1  0  0  0
 32 56  1  0  0  0
 33 34  2  0  0  0
 33 57  1  0  0  0
 34 58  1  0  0  0
M  END
> <s_m_entry_id>
68211

> <s_m_entry_name>
dock_pv.147

> <s_m_Source_Path>
/home/csk/Desktop/cluster/DUD-E-result/pa2ga

> <s_m_Source_File>
dock_pv.maegz

> <i_m_Source_File_Index>
147

> <chembl_id>
CHEMBL356606

> <chembl_pref_name>
None

> <i_lp_mmshare_version>
53161

> <i_f3d_flags>
0

> <r_lp_tautomer_probability>
1

> <s_lp_Force_Field>
OPLS_2005

> <r_lp_Energy>
30.459156

> <b_lp_Chiralities_Consistent>
1

> <s_lp_Variant>
CHEMBL3474_lig118-1

> <s_i_glide_gridfile>
glide-grid_1kvo

> <i_i_glide_lignum>
177

> <i_i_glide_rotatable_bonds>
10

> <r_i_docking_score>
-7.50580932234958

> <r_i_glide_ligand_efficiency>
-0.220759097716164

> <r_i_glide_ligand_efficiency_sa>
-0.715173777360001

> <r_i_glide_ligand_efficiency_ln>
-1.65824381012736

> <r_i_glide_gscore>
-7.50580932234958

> <r_i_glide_lipo>
-3.65609180032121

> <r_i_glide_hbond>
-0.462300242376667

> <r_i_glide_metal>
0

> <r_i_glide_rewards>
-0.447567627956219

> <r_i_glide_evdw>
-47.2341346740723

> <r_i_glide_ecoul>
-6.79659795761108

> <r_i_glide_erotb>
0.67511185465424

> <r_i_glide_esite>
-0.233765079004454

> <r_i_glide_emodel>
-77.0293877393229

> <r_i_glide_energy>
-54.0307326316833

> <r_i_glide_einternal>
10.3489799499512

> <i_i_glide_confnum>
59

> <i_i_glide_posenum>
120

> <r_i_glide_eff_state_penalty>
0

> <s_user_duplicate_titles>
CHEMBL3474_lig118,248561

> <s_m_subgroup_title>
dock_pv

> <s_m_subgroupid>
dock_pv

> <b_m_subgroup_collapsed>
1

$$$$
CHEMBL3474_lig90
                    3D
 Schrodinger Suite 2021-1.
 56 58  0  0  1  0            999 V2000
  -40.8149   64.5799   33.3304 N   0  0  0  0  0  0
  -41.3355   65.9273   35.0727 C   0  0  0  0  0  0
  -41.3292   64.6170   34.6174 C   0  0  0  0  0  0
  -40.8114   66.7306   34.0053 C   0  0  0  0  0  0
  -40.4897   65.8638   32.9262 C   0  0  0  0  0  0
  -39.3131   70.6486   28.3717 P   0  0  0  0  0  0
  -41.7927   66.4269   36.4372 C   0  0  0  0  0  0
  -40.5553   63.3799   32.5362 C   0  0  0  0  0  0
  -39.9532   66.3459   31.7229 C   0  0  0  0  0  0
  -40.7832   66.1124   37.5543 C   0  0  0  0  0  0
  -40.5752   68.1048   33.8506 C   0  0  0  0  0  0
  -40.9309   70.7069   28.2433 O   0  0  0  0  0  0
  -38.8139   71.2977   26.9762 O   0  0  0  0  0  0
  -38.7687   69.2939   28.6439 O   0  0  0  0  0  0
  -39.6153   66.4945   37.4436 O   0  0  0  0  0  0
  -41.2488   65.4345   38.6194 N   0  0  0  0  0  0
  -40.0113   68.5991   32.6781 C   0  0  0  0  0  0
  -38.9686   71.9917   29.5782 C   0  0  0  0  0  0
  -39.7290   67.7192   31.6280 C   0  0  0  0  0  0
  -41.7765   63.3621   35.3459 C   0  0  0  0  0  0
  -40.4152   65.1557   39.7099 N   0  0  0  0  0  0
  -39.1443   62.8349   32.7067 C   0  0  0  0  0  0
  -39.5711   71.6810   30.9639 C   0  0  0  0  0  0
  -39.8103   69.9664   32.6441 O   0  0  0  0  0  0
  -38.8671   70.5528   31.7456 C   0  0  0  0  0  0
  -38.1205   63.2410   31.8439 C   0  0  0  0  0  0
  -38.8871   61.8874   33.7023 C   0  0  0  0  0  0
  -37.6154   61.3429   33.8308 C   0  0  0  0  0  0
  -36.8502   62.6856   31.9643 C   0  0  0  0  0  0
  -36.6102   61.7332   32.9525 C   0  0  0  0  0  0
  -41.9517   67.5044   36.4325 H   0  0  0  0  0  0
  -42.7669   66.0014   36.6826 H   0  0  0  0  0  0
  -40.7333   63.6159   31.4859 H   0  0  0  0  0  0
  -41.2949   62.6132   32.7656 H   0  0  0  0  0  0
  -39.7302   65.6965   30.8875 H   0  0  0  0  0  0
  -40.8164   68.7893   34.6467 H   0  0  0  0  0  0
  -42.2202   65.1892   38.7587 H   0  0  0  0  0  0
  -39.3989   72.9123   29.1828 H   0  0  0  0  0  0
  -37.8914   72.1526   29.6438 H   0  0  0  0  0  0
  -39.3437   68.0795   30.6908 H   0  0  0  0  0  0
  -42.3952   63.5953   36.2119 H   0  0  0  0  0  0
  -42.3779   62.6987   34.7263 H   0  0  0  0  0  0
  -40.9301   62.7911   35.7227 H   0  0  0  0  0  0
  -39.7087   64.4982   39.4040 H   0  0  0  0  0  0
  -39.9393   66.0167   39.9568 H   0  0  0  0  0  0
  -40.6238   71.4340   30.8348 H   0  0  0  0  0  0
  -39.5640   72.5868   31.5775 H   0  0  0  0  0  0
  -38.0654   70.9858   32.3487 H   0  0  0  0  0  0
  -38.3532   69.8554   31.0913 H   0  0  0  0  0  0
  -38.3064   63.9556   31.0554 H   0  0  0  0  0  0
  -39.6719   61.5530   34.3643 H   0  0  0  0  0  0
  -37.4132   60.6081   34.5956 H   0  0  0  0  0  0
  -36.0648   62.9795   31.2833 H   0  0  0  0  0  0
  -35.6284   61.2973   33.0410 H   0  0  0  0  0  0
  -39.3285   72.0858   26.6468 H   0  0  0  0  0  0
  -41.2989   71.5375   27.8430 H   0  0  0  0  0  0
  1  3  1  0  0  0
  1  5  1  0  0  0
  1  8  1  0  0  0
  2  3  2  0  0  0
  2  7  1  0  0  0
  2  4  1  0  0  0
  3 20  1  0  0  0
  4  5  1  0  0  0
  4 11  2  0  0  0
  5  9  2  0  0  0
  6 18  1  0  0  0
  6 12  1  0  0  0
  6 13  1  0  0  0
  6 14  2  0  0  0
  7 10  1  0  0  0
  7 31  1  0  0  0
  7 32  1  0  0  0
  8 22  1  0  0  0
  8 33  1  0  0  0
  8 34  1  0  0  0
  9 19  1  0  0  0
  9 35  1  0  0  0
 10 15  2  0  0  0
 10 16  1  0  0  0
 11 17  1  0  0  0
 11 36  1  0  0  0
 12 56  1  0  0  0
 13 55  1  0  0  0
 16 21  1  0  0  0
 16 37  1  0  0  0
 17 19  2  0  0  0
 17 24  1  0  0  0
 18 23  1  0  0  0
 18 38  1  0  0  0
 18 39  1  0  0  0
 19 40  1  0  0  0
 20 41  1  0  0  0
 20 42  1  0  0  0
 20 43  1  0  0  0
 21 44  1  0  0  0
 21 45  1  0  0  0
 22 26  2  0  0  0
 22 27  1  0  0  0
 23 25  1  0  0  0
 23 46  1  0  0  0
 23 47  1  0  0  0
 24 25  1  0  0  0
 25 48  1  0  0  0
 25 49  1  0  0  0
 26 29  1  0  0  0
 26 50  1  0  0  0
 27 28  2  0  0  0
 27 51  1  0  0  0
 28 30  1  0  0  0
 28 52  1  0  0  0
 29 30  2  0  0  0
 29 53  1  0  0  0
 30 54  1  0  0  0
M  END
> <s_m_entry_id>
68212

> <s_m_entry_name>
dock_pv.148

> <s_m_Source_Path>
/home/csk/Desktop/cluster/DUD-E-result/pa2ga

> <s_m_Source_File>
dock_pv.maegz

> <i_m_Source_File_Index>
148

> <chembl_id>
CHEMBL146739

> <chembl_pref_name>
None

> <i_lp_mmshare_version>
53161

> <i_f3d_flags>
0

> <r_lp_tautomer_probability>
1

> <s_lp_Force_Field>
OPLS_2005

> <r_lp_Energy>
10.166417

> <b_lp_Chiralities_Consistent>
1

> <s_lp_Variant>
CHEMBL3474_lig90-1

> <s_i_glide_gridfile>
glide-grid_1kvo

> <i_i_glide_lignum>
130

> <i_i_glide_rotatable_bonds>
12

> <r_i_docking_score>
-7.499944113461

> <r_i_glide_ligand_efficiency>
-0.249998137115367

> <r_i_glide_ligand_efficiency_sa>
-0.776802337192091

> <r_i_glide_ligand_efficiency_ln>
-1.70406902101459

> <r_i_glide_gscore>
-7.499944113461

> <r_i_glide_lipo>
-2.75116322945395

> <r_i_glide_hbond>
-0.355566529354918

> <r_i_glide_metal>
0

> <r_i_glide_rewards>
-0.687881948187001

> <r_i_glide_evdw>
-36.4312057495117

> <r_i_glide_ecoul>
-18.6119365692139

> <r_i_glide_erotb>
0.961760145809346

> <r_i_glide_esite>
-0.0537417794168049

> <r_i_glide_emodel>
-81.3776368685414

> <r_i_glide_energy>
-55.0431423187256

> <r_i_glide_einternal>
7.35048055648804

> <i_i_glide_confnum>
22

> <i_i_glide_posenum>
202

> <r_i_glide_eff_state_penalty>
0

> <s_user_duplicate_titles>
CHEMBL3474_lig90,247163

> <s_m_subgroup_title>
dock_pv

> <s_m_subgroupid>
dock_pv

> <b_m_subgroup_collapsed>
1

$$$$
CHEMBL3474_lig26
                    3D
 Schrodinger Suite 2021-1.
 55 57  0  0  1  0            999 V2000
  -41.0104   64.0267   34.0073 N   0  0  0  0  0  0
  -41.4600   65.2765   35.8396 C   0  0  0  0  0  0
  -41.4251   63.9838   35.3295 C   0  0  0  0  0  0
  -40.7729   65.3400   33.6446 C   0  0  0  0  0  0
  -41.0608   66.1505   34.7728 C   0  0  0  0  0  0
  -40.3237   65.8835   32.4365 C   0  0  0  0  0  0
  -41.8052   65.7036   37.2581 C   0  0  0  0  0  0
  -40.7526   62.8775   33.1356 C   0  0  0  0  0  0
  -40.9002   67.5404   34.6562 C   0  0  0  0  0  0
  -40.5580   65.7745   38.1471 C   0  0  0  0  0  0
  -38.3440   70.9293   27.9892 C   0  0  0  0  0  0
  -39.6149   66.4979   37.8429 O   0  0  0  0  0  0
  -39.4530   70.8984   28.5186 O   0  0  0  0  0  0
  -40.0963   67.2634   32.3740 C   0  0  0  0  0  0
  -40.5249   65.0230   39.2448 N   0  0  0  0  0  0
  -40.4149   68.0734   33.4618 C   0  0  0  0  0  0
  -41.7441   62.6738   36.0264 C   0  0  0  0  0  0
  -39.2772   62.4983   33.0430 C   0  0  0  0  0  0
  -38.0149   71.6980   26.9182 O   0  0  0  0  0  0
  -39.5590   67.8849   31.2644 O   0  0  0  0  0  0
  -37.1349   70.1173   28.4618 C   0  0  0  0  0  0
  -38.8981   67.0812   30.2828 C   0  0  0  0  0  0
  -38.7379   61.5988   33.9646 C   0  0  0  0  0  0
  -38.4715   63.0074   32.0141 C   0  0  0  0  0  0
  -37.4151   69.0912   29.5834 C   0  0  0  0  0  0
  -38.3668   67.9609   29.1497 C   0  0  0  0  0  0
  -37.1482   62.6066   31.8930 C   0  0  0  0  0  0
  -37.4132   61.1985   33.8430 C   0  0  0  0  0  0
  -36.6322   61.6980   32.8071 C   0  0  0  0  0  0
  -40.1498   65.2505   31.5870 H   0  0  0  0  0  0
  -42.2755   66.6870   37.2695 H   0  0  0  0  0  0
  -42.5393   65.0304   37.7026 H   0  0  0  0  0  0
  -41.1342   63.1128   32.1402 H   0  0  0  0  0  0
  -41.3460   62.0227   33.4603 H   0  0  0  0  0  0
  -41.1178   68.1841   35.4953 H   0  0  0  0  0  0
  -39.6899   65.0339   39.8122 H   0  0  0  0  0  0
  -41.3022   64.4344   39.4999 H   0  0  0  0  0  0
  -40.2530   69.1384   33.3862 H   0  0  0  0  0  0
  -42.1435   62.8267   37.0288 H   0  0  0  0  0  0
  -42.4900   62.0908   35.4856 H   0  0  0  0  0  0
  -40.8605   62.0489   36.1428 H   0  0  0  0  0  0
  -38.7658   72.2550   26.6443 H   0  0  0  0  0  0
  -36.4150   70.8475   28.8224 H   0  0  0  0  0  0
  -36.6837   69.6225   27.6031 H   0  0  0  0  0  0
  -38.0784   66.5200   30.7359 H   0  0  0  0  0  0
  -39.5909   66.3624   29.8430 H   0  0  0  0  0  0
  -39.3424   61.1868   34.7578 H   0  0  0  0  0  0
  -38.8690   63.6661   31.2601 H   0  0  0  0  0  0
  -37.8206   69.6161   30.4507 H   0  0  0  0  0  0
  -36.4710   68.6596   29.9144 H   0  0  0  0  0  0
  -37.8917   67.3257   28.4060 H   0  0  0  0  0  0
  -39.2150   68.3987   28.6428 H   0  0  0  0  0  0
  -36.5393   62.9757   31.0796 H   0  0  0  0  0  0
  -36.9938   60.4982   34.5481 H   0  0  0  0  0  0
  -35.6150   61.3647   32.7073 H   0  0  0  0  0  0
  1  3  1  0  0  0
  1  4  1  0  0  0
  1  8  1  0  0  0
  2  3  2  0  0  0
  2  7  1  0  0  0
  2  5  1  0  0  0
  3 17  1  0  0  0
  4  5  1  0  0  0
  4  6  2  0  0  0
  5  9  2  0  0  0
  6 14  1  0  0  0
  6 30  1  0  0  0
  7 10  1  0  0  0
  7 31  1  0  0  0
  7 32  1  0  0  0
  8 18  1  0  0  0
  8 33  1  0  0  0
  8 34  1  0  0  0
  9 16  1  0  0  0
  9 35  1  0  0  0
 10 12  2  0  0  0
 10 15  1  0  0  0
 11 21  1  0  0  0
 11 13  2  0  0  0
 11 19  1  0  0  0
 14 16  2  0  0  0
 14 20  1  0  0  0
 15 36  1  0  0  0
 15 37  1  0  0  0
 16 38  1  0  0  0
 17 39  1  0  0  0
 17 40  1  0  0  0
 17 41  1  0  0  0
 18 23  1  0  0  0
 18 24  2  0  0  0
 19 42  1  0  0  0
 20 22  1  0  0  0
 21 25  1  0  0  0
 21 43  1  0  0  0
 21 44  1  0  0  0
 22 26  1  0  0  0
 22 45  1  0  0  0
 22 46  1  0  0  0
 23 28  2  0  0  0
 23 47  1  0  0  0
 24 27  1  0  0  0
 24 48  1  0  0  0
 25 26  1  0  0  0
 25 49  1  0  0  0
 25 50  1  0  0  0
 26 51  1  0  0  0
 26 52  1  0  0  0
 27 29  2  0  0  0
 27 53  1  0  0  0
 28 29  1  0  0  0
 28 54  1  0  0  0
 29 55  1  0  0  0
M  END
> <s_m_entry_id>
68213

> <s_m_entry_name>
dock_pv.149

> <s_m_Source_Path>
/home/csk/Desktop/cluster/DUD-E-result/pa2ga

> <s_m_Source_File>
dock_pv.maegz

> <i_m_Source_File_Index>
149

> <chembl_id>
CHEMBL424319

> <chembl_pref_name>
None

> <i_lp_mmshare_version>
53161

> <i_f3d_flags>
0

> <r_lp_tautomer_probability>
1

> <s_lp_Force_Field>
OPLS_2005

> <r_lp_Energy>
15.426365

> <b_lp_Chiralities_Consistent>
1

> <s_lp_Variant>
CHEMBL3474_lig26-1

> <s_i_glide_gridfile>
glide-grid_1kvo

> <i_i_glide_lignum>
66

> <i_i_glide_rotatable_bonds>
11

> <r_i_docking_score>
-7.48227457639844

> <r_i_glide_ligand_efficiency>
-0.25800946815167

> <r_i_glide_ligand_efficiency_sa>
-0.792686829298896

> <r_i_glide_ligand_efficiency_ln>
-1.71325114388269

> <r_i_glide_gscore>
-7.48227457639844

> <r_i_glide_lipo>
-3.59169392952238

> <r_i_glide_hbond>
-0.205197119199884

> <r_i_glide_metal>
0

> <r_i_glide_rewards>
-1.01299425285667

> <r_i_glide_evdw>
-41.1584205627441

> <r_i_glide_ecoul>
-11.315899848938

> <r_i_glide_erotb>
1.13049189276255

> <r_i_glide_esite>
-0.0475751621041473

> <r_i_glide_emodel>
-75.9780602149772

> <r_i_glide_energy>
-52.4743204116821

> <r_i_glide_einternal>
6.74689865112305

> <i_i_glide_confnum>
23

> <i_i_glide_posenum>
162

> <r_i_glide_eff_state_penalty>
0

> <s_user_duplicate_titles>
CHEMBL3474_lig26

> <s_m_subgroup_title>
dock_pv

> <s_m_subgroupid>
dock_pv

> <b_m_subgroup_collapsed>
1

$$$$
CHEMBL3474_lig122
                    3D
 Schrodinger Suite 2021-1.
 51 54  0  0  1  0            999 V2000
  -38.7585   62.7790   33.1710 C   0  0  0  0  0  0
  -40.1513   62.6706   34.9445 N   0  0  0  0  0  0
  -39.2366   61.9534   34.1933 C   0  0  0  0  0  0
  -39.6110   63.9581   33.1522 C   0  0  0  0  0  0
  -40.4150   63.8829   34.3307 C   0  0  0  0  0  0
  -37.6126   62.4586   32.3004 C   0  0  0  0  0  0
  -40.8362   62.2099   36.1611 C   0  0  0  0  0  0
  -36.7148   63.6404   31.7342 C   0  0  0  0  0  0
  -42.2776   61.7313   35.9454 C   0  0  0  0  0  0
  -39.8162   65.0647   32.2850 C   0  0  0  0  0  0
  -43.2944   61.9932   36.9273 C   0  0  0  0  0  0
  -38.5484   67.3572   30.4722 C   0  0  0  0  0  0
  -37.2140   61.3039   32.1250 O   0  0  0  0  0  0
  -39.1493   65.0342   31.0721 O   0  0  0  0  0  0
  -36.6416   64.7508   32.2591 O   0  0  0  0  0  0
  -38.7720   68.4433   29.9456 O   0  0  0  0  0  0
  -36.0151   63.2980   30.6596 N   0  0  0  0  0  0
  -39.3134   66.0751   30.0952 C   0  0  0  0  0  0
  -44.6355   61.5696   36.6517 C   0  0  0  0  0  0
  -38.8457   60.5413   34.6100 C   0  0  0  0  0  0
  -41.3037   64.9010   34.7044 C   0  0  0  0  0  0
  -37.6151   67.1422   31.4431 O   0  0  0  0  0  0
  -42.6162   61.0603   34.7649 C   0  0  0  0  0  0
  -41.4147   65.9988   33.8597 C   0  0  0  0  0  0
  -43.9152   60.6448   34.5195 C   0  0  0  0  0  0
  -40.7071   66.0754   32.6690 C   0  0  0  0  0  0
  -43.0530   62.6533   38.1702 C   0  0  0  0  0  0
  -44.9195   60.8978   35.4427 C   0  0  0  0  0  0
  -45.6645   61.8271   37.5911 C   0  0  0  0  0  0
  -44.0888   62.8980   39.0664 C   0  0  0  0  0  0
  -45.3840   62.4898   38.7800 C   0  0  0  0  0  0
  -40.2671   61.4077   36.6301 H   0  0  0  0  0  0
  -40.7942   63.0609   36.8367 H   0  0  0  0  0  0
  -35.4281   63.9934   30.2141 H   0  0  0  0  0  0
  -36.1330   62.3827   30.2501 H   0  0  0  0  0  0
  -40.3678   66.2880   29.9186 H   0  0  0  0  0  0
  -38.9129   65.7073   29.1497 H   0  0  0  0  0  0
  -38.3788   59.9661   33.8131 H   0  0  0  0  0  0
  -38.1454   60.5578   35.4418 H   0  0  0  0  0  0
  -39.7046   59.9466   34.9224 H   0  0  0  0  0  0
  -41.9014   64.8382   35.6027 H   0  0  0  0  0  0
  -37.6176   66.1967   31.6589 H   0  0  0  0  0  0
  -41.8661   60.8527   34.0160 H   0  0  0  0  0  0
  -42.0966   66.7949   34.1217 H   0  0  0  0  0  0
  -44.1505   60.1276   33.5998 H   0  0  0  0  0  0
  -40.8783   66.9340   32.0389 H   0  0  0  0  0  0
  -42.0626   62.9692   38.4537 H   0  0  0  0  0  0
  -45.9301   60.5750   35.2350 H   0  0  0  0  0  0
  -46.6742   61.5057   37.3786 H   0  0  0  0  0  0
  -43.8827   63.4006   40.0003 H   0  0  0  0  0  0
  -46.1762   62.6812   39.4894 H   0  0  0  0  0  0
  1  3  2  0  0  0
  1  4  1  0  0  0
  1  6  1  0  0  0
  2  3  1  0  0  0
  2  7  1  0  0  0
  2  5  1  0  0  0
  3 20  1  0  0  0
  4  5  1  0  0  0
  4 10  2  0  0  0
  5 21  2  0  0  0
  6  8  1  0  0  0
  6 13  2  0  0  0
  7  9  1  0  0  0
  7 32  1  0  0  0
  7 33  1  0  0  0
  8 15  2  0  0  0
  8 17  1  0  0  0
  9 11  1  0  0  0
  9 23  2  0  0  0
 10 14  1  0  0  0
 10 26  1  0  0  0
 11 19  2  0  0  0
 11 27  1  0  0  0
 12 18  1  0  0  0
 12 16  2  0  0  0
 12 22  1  0  0  0
 14 18  1  0  0  0
 17 34  1  0  0  0
 17 35  1  0  0  0
 18 36  1  0  0  0
 18 37  1  0  0  0
 19 29  1  0  0  0
 19 28  1  0  0  0
 20 38  1  0  0  0
 20 39  1  0  0  0
 20 40  1  0  0  0
 21 24  1  0  0  0
 21 41  1  0  0  0
 22 42  1  0  0  0
 23 25  1  0  0  0
 23 43  1  0  0  0
 24 26  2  0  0  0
 24 44  1  0  0  0
 25 28  2  0  0  0
 25 45  1  0  0  0
 26 46  1  0  0  0
 27 30  2  0  0  0
 27 47  1  0  0  0
 28 48  1  0  0  0
 29 31  2  0  0  0
 29 49  1  0  0  0
 30 31  1  0  0  0
 30 50  1  0  0  0
 31 51  1  0  0  0
M  END
> <s_m_entry_id>
68214

> <s_m_entry_name>
dock_pv.150

> <s_m_Source_Path>
/home/csk/Desktop/cluster/DUD-E-result/pa2ga

> <s_m_Source_File>
dock_pv.maegz

> <i_m_Source_File_Index>
150

> <chembl_id>
CHEMBL357804

> <chembl_pref_name>
None

> <i_lp_mmshare_version>
53161

> <i_f3d_flags>
0

> <r_lp_tautomer_probability>
1

> <s_lp_Force_Field>
OPLS_2005

> <r_lp_Energy>
29.101025

> <b_lp_Chiralities_Consistent>
1

> <s_lp_Variant>
CHEMBL3474_lig122-1

> <s_i_glide_gridfile>
glide-grid_1kvo

> <i_i_glide_lignum>
181

> <i_i_glide_rotatable_bonds>
8

> <r_i_docking_score>
-7.46951234463916

> <r_i_glide_ligand_efficiency>
-0.240952011117392

> <r_i_glide_ligand_efficiency_sa>
-0.756921985012552

> <r_i_glide_ligand_efficiency_ln>
-1.68460394677807

> <r_i_glide_gscore>
-7.46951234463916

> <r_i_glide_lipo>
-3.35035013296627

> <r_i_glide_hbond>
-0.336230531644284

> <r_i_glide_metal>
0

> <r_i_glide_rewards>
-0.996697747765108

> <r_i_glide_evdw>
-49.7602577209473

> <r_i_glide_ecoul>
-6.17019367218018

> <r_i_glide_erotb>
0.683551748071903

> <r_i_glide_esite>
-0.0562437434610099

> <r_i_glide_emodel>
-80.9461225001015

> <r_i_glide_energy>
-55.9304513931274

> <r_i_glide_einternal>
9.72796154022217

> <i_i_glide_confnum>
102

> <i_i_glide_posenum>
152

> <r_i_glide_eff_state_penalty>
0

> <s_user_duplicate_titles>
CHEMBL3474_lig122,247877

> <s_m_subgroup_title>
dock_pv

> <s_m_subgroupid>
dock_pv

> <b_m_subgroup_collapsed>
1

$$$$
CHEMBL3474_lig161
                    3D
 Schrodinger Suite 2021-1.
 42 44  0  0  1  0            999 V2000
  -38.6319   62.7105   33.3068 C   0  0  0  0  0  0
  -40.0864   62.4564   35.0272 N   0  0  0  0  0  0
  -39.1774   61.7951   34.2172 C   0  0  0  0  0  0
  -40.2827   63.7422   34.5548 C   0  0  0  0  0  0
  -39.4093   63.9255   33.4422 C   0  0  0  0  0  0
  -37.5032   62.4423   32.3897 C   0  0  0  0  0  0
  -36.6671   63.6402   31.7558 C   0  0  0  0  0  0
  -41.1515   64.7480   35.0056 C   0  0  0  0  0  0
  -40.8141   61.8795   36.1680 C   0  0  0  0  0  0
  -39.4854   65.1498   32.7506 C   0  0  0  0  0  0
  -37.1026   61.2988   32.1650 O   0  0  0  0  0  0
  -36.5617   64.7505   32.2735 O   0  0  0  0  0  0
  -41.1685   65.9645   34.3076 C   0  0  0  0  0  0
  -36.0149   63.3004   30.6490 N   0  0  0  0  0  0
  -38.8813   60.3234   34.4731 C   0  0  0  0  0  0
  -40.3535   66.1430   33.1954 C   0  0  0  0  0  0
  -42.2703   61.5231   35.8938 C   0  0  0  0  0  0
  -41.9710   67.0365   34.6447 O   0  0  0  0  0  0
  -43.2233   61.7577   36.8894 C   0  0  0  0  0  0
  -42.6584   60.9513   34.6765 C   0  0  0  0  0  0
  -42.8012   66.9515   35.7983 C   0  0  0  0  0  0
  -44.5606   61.4489   36.6636 C   0  0  0  0  0  0
  -43.9949   60.6378   34.4521 C   0  0  0  0  0  0
  -44.9385   60.8974   35.4436 C   0  0  0  0  0  0
  -41.7949   64.5762   35.8541 H   0  0  0  0  0  0
  -40.2908   61.0042   36.5531 H   0  0  0  0  0  0
  -40.7748   62.6192   36.9694 H   0  0  0  0  0  0
  -38.8964   65.3325   31.8663 H   0  0  0  0  0  0
  -35.4700   64.0133   30.1744 H   0  0  0  0  0  0
  -36.1366   62.3826   30.2467 H   0  0  0  0  0  0
  -38.2250   59.8599   33.7406 H   0  0  0  0  0  0
  -38.4129   60.1834   35.4438 H   0  0  0  0  0  0
  -39.7918   59.7239   34.4740 H   0  0  0  0  0  0
  -40.3987   67.0808   32.6618 H   0  0  0  0  0  0
  -42.9336   62.1856   37.8391 H   0  0  0  0  0  0
  -41.9338   60.7531   33.9007 H   0  0  0  0  0  0
  -43.3486   67.8864   35.9154 H   0  0  0  0  0  0
  -42.2119   66.7984   36.7034 H   0  0  0  0  0  0
  -43.5351   66.1495   35.7103 H   0  0  0  0  0  0
  -45.3000   61.6360   37.4291 H   0  0  0  0  0  0
  -44.3024   60.2003   33.5127 H   0  0  0  0  0  0
  -45.9762   60.6594   35.2644 H   0  0  0  0  0  0
  1  3  2  0  0  0
  1  5  1  0  0  0
  1  6  1  0  0  0
  2  3  1  0  0  0
  2  9  1  0  0  0
  2  4  1  0  0  0
  3 15  1  0  0  0
  4  5  1  0  0  0
  4  8  2  0  0  0
  5 10  2  0  0  0
  6  7  1  0  0  0
  6 11  2  0  0  0
  7 12  2  0  0  0
  7 14  1  0  0  0
  8 13  1  0  0  0
  8 25  1  0  0  0
  9 17  1  0  0  0
  9 26  1  0  0  0
  9 27  1  0  0  0
 10 16  1  0  0  0
 10 28  1  0  0  0
 13 16  2  0  0  0
 13 18  1  0  0  0
 14 29  1  0  0  0
 14 30  1  0  0  0
 15 31  1  0  0  0
 15 32  1  0  0  0
 15 33  1  0  0  0
 16 34  1  0  0  0
 17 19  1  0  0  0
 17 20  2  0  0  0
 18 21  1  0  0  0
 19 22  2  0  0  0
 19 35  1  0  0  0
 20 23  1  0  0  0
 20 36  1  0  0  0
 21 37  1  0  0  0
 21 38  1  0  0  0
 21 39  1  0  0  0
 22 24  1  0  0  0
 22 40  1  0  0  0
 23 24  2  0  0  0
 23 41  1  0  0  0
 24 42  1  0  0  0
M  END
> <s_m_entry_id>
68215

> <s_m_entry_name>
dock_pv.151

> <s_m_Source_Path>
/home/csk/Desktop/cluster/DUD-E-result/pa2ga

> <s_m_Source_File>
dock_pv.maegz

> <i_m_Source_File_Index>
151

> <chembl_id>
CHEMBL148041

> <chembl_pref_name>
None

> <i_lp_mmshare_version>
53161

> <i_f3d_flags>
0

> <r_lp_tautomer_probability>
1

> <s_lp_Force_Field>
OPLS_2005

> <r_lp_Energy>
19.050412

> <b_lp_Chiralities_Consistent>
1

> <s_lp_Variant>
CHEMBL3474_lig161-1

> <s_i_glide_gridfile>
glide-grid_1kvo

> <i_i_glide_lignum>
222

> <i_i_glide_rotatable_bonds>
5

> <r_i_docking_score>
-7.43056271631164

> <r_i_glide_ligand_efficiency>
-0.309606779846318

> <r_i_glide_ligand_efficiency_sa>
-0.893060489449161

> <r_i_glide_ligand_efficiency_ln>
-1.77847462431876

> <r_i_glide_gscore>
-7.43056271631164

> <r_i_glide_lipo>
-3.13579667890379

> <r_i_glide_hbond>
-0.356947306936376

> <r_i_glide_metal>
0

> <r_i_glide_rewards>
-1.65053529591305

> <r_i_glide_evdw>
-39.7693939208984

> <r_i_glide_ecoul>
-5.28652095794678

> <r_i_glide_erotb>
0.53984438598368

> <r_i_glide_esite>
-0.0456799808051724

> <r_i_glide_emodel>
-66.9305520668043

> <r_i_glide_energy>
-45.0559148788452

> <r_i_glide_einternal>
2.46831846237183

> <i_i_glide_confnum>
1

> <i_i_glide_posenum>
358

> <r_i_glide_eff_state_penalty>
0

> <s_user_duplicate_titles>
CHEMBL3474_lig161

> <s_m_subgroup_title>
dock_pv

> <s_m_subgroupid>
dock_pv

> <b_m_subgroup_collapsed>
1

$$$$
CHEMBL3474_lig135
                    3D
 Schrodinger Suite 2021-1.
 59 63  0  0  1  0            999 V2000
  -38.9412   64.6534   32.6907 C   0  0  0  0  0  0
  -39.9102   63.6151   34.4471 N   0  0  0  0  0  0
  -38.9827   63.4644   33.4186 C   0  0  0  0  0  0
  -39.7382   65.6228   33.4040 C   0  0  0  0  0  0
  -40.4153   64.9128   34.4351 C   0  0  0  0  0  0
  -38.2094   64.8683   31.4370 C   0  0  0  0  0  0
  -40.2909   62.6021   35.4478 C   0  0  0  0  0  0
  -38.2603   62.1376   33.1688 C   0  0  0  0  0  0
  -38.8777   65.7622   30.2989 C   0  0  0  0  0  0
  -41.4937   61.7201   35.0867 C   0  0  0  0  0  0
  -36.7657   62.0220   32.9627 C   0  0  0  0  0  0
  -37.3886   61.5297   34.2428 C   0  0  0  0  0  0
  -39.9269   67.0205   33.3068 C   0  0  0  0  0  0
  -42.7570   61.7914   35.7310 C   0  0  0  0  0  0
  -37.7298   69.4078   31.5772 C   0  0  0  0  0  0
  -37.1917   64.2444   31.1564 O   0  0  0  0  0  0
  -39.0874   67.6480   32.4132 O   0  0  0  0  0  0
  -40.0821   65.9968   30.2749 O   0  0  0  0  0  0
  -36.8150   68.5955   31.4431 O   0  0  0  0  0  0
  -43.0460   62.6158   36.9503 C   0  0  0  0  0  0
  -38.0158   66.2017   29.3774 N   0  0  0  0  0  0
  -39.1094   69.0467   32.1541 C   0  0  0  0  0  0
  -41.3566   65.5424   35.2650 C   0  0  0  0  0  0
  -37.6149   70.7265   31.2653 O   0  0  0  0  0  0
  -41.3021   60.7914   34.0575 C   0  0  0  0  0  0
  -41.5604   66.9105   35.0897 C   0  0  0  0  0  0
  -43.8025   61.0122   35.2065 C   0  0  0  0  0  0
  -40.8472   67.6482   34.1494 C   0  0  0  0  0  0
  -44.2455   63.3342   37.0471 C   0  0  0  0  0  0
  -42.1705   62.6417   38.0458 C   0  0  0  0  0  0
  -42.3454   60.0167   33.5738 C   0  0  0  0  0  0
  -43.6046   60.1536   34.1290 C   0  0  0  0  0  0
  -42.4607   63.3887   39.1838 C   0  0  0  0  0  0
  -44.5415   64.0900   38.1782 C   0  0  0  0  0  0
  -43.6427   64.1186   39.2415 C   0  0  0  0  0  0
  -39.4467   61.9511   35.6523 H   0  0  0  0  0  0
  -40.4227   63.1477   36.3749 H   0  0  0  0  0  0
  -38.8109   61.4678   32.5127 H   0  0  0  0  0  0
  -36.3987   61.3002   32.2329 H   0  0  0  0  0  0
  -36.1585   62.9200   32.9787 H   0  0  0  0  0  0
  -37.2151   62.0979   35.1544 H   0  0  0  0  0  0
  -37.4806   60.4622   34.4278 H   0  0  0  0  0  0
  -38.3562   66.7269   28.5890 H   0  0  0  0  0  0
  -37.0284   65.9638   29.4451 H   0  0  0  0  0  0
  -39.2861   69.6438   33.0429 H   0  0  0  0  0  0
  -39.8771   69.2653   31.4132 H   0  0  0  0  0  0
  -41.8893   65.0050   36.0360 H   0  0  0  0  0  0
  -36.7403   70.8985   30.8939 H   0  0  0  0  0  0
  -40.3371   60.6531   33.6136 H   0  0  0  0  0  0
  -42.2700   67.4182   35.7268 H   0  0  0  0  0  0
  -44.7891   61.0479   35.6498 H   0  0  0  0  0  0
  -41.0195   68.7106   34.0887 H   0  0  0  0  0  0
  -44.9640   63.3019   36.2427 H   0  0  0  0  0  0
  -41.2575   62.0668   38.0334 H   0  0  0  0  0  0
  -42.1830   59.3166   32.7639 H   0  0  0  0  0  0
  -44.4149   59.5730   33.7259 H   0  0  0  0  0  0
  -41.7740   63.3961   40.0176 H   0  0  0  0  0  0
  -45.4661   64.6460   38.2370 H   0  0  0  0  0  0
  -43.8707   64.6996   40.1238 H   0  0  0  0  0  0
  1  3  2  0  0  0
  1  4  1  0  0  0
  1  6  1  0  0  0
  2  3  1  0  0  0
  2  7  1  0  0  0
  2  5  1  0  0  0
  3  8  1  0  0  0
  4  5  1  0  0  0
  4 13  2  0  0  0
  5 23  2  0  0  0
  6  9  1  0  0  0
  6 16  2  0  0  0
  7 10  1  0  0  0
  7 36  1  0  0  0
  7 37  1  0  0  0
  8 11  1  0  0  0
  8 12  1  0  0  0
  8 38  1  0  0  0
  9 18  2  0  0  0
  9 21  1  0  0  0
 10 14  2  0  0  0
 10 25  1  0  0  0
 11 12  1  0  0  0
 11 39  1  0  0  0
 11 40  1  0  0  0
 12 41  1  0  0  0
 12 42  1  0  0  0
 13 17  1  0  0  0
 13 28  1  0  0  0
 14 20  1  0  0  0
 14 27  1  0  0  0
 15 22  1  0  0  0
 15 19  2  0  0  0
 15 24  1  0  0  0
 17 22  1  0  0  0
 20 29  2  0  0  0
 20 30  1  0  0  0
 21 43  1  0  0  0
 21 44  1  0  0  0
 22 45  1  0  0  0
 22 46  1  0  0  0
 23 26  1  0  0  0
 23 47  1  0  0  0
 24 48  1  0  0  0
 25 31  2  0  0  0
 25 49  1  0  0  0
 26 28  2  0  0  0
 26 50  1  0  0  0
 27 32  2  0  0  0
 27 51  1  0  0  0
 28 52  1  0  0  0
 29 34  1  0  0  0
 29 53  1  0  0  0
 30 33  2  0  0  0
 30 54  1  0  0  0
 31 32  1  0  0  0
 31 55  1  0  0  0
 32 56  1  0  0  0
 33 35  1  0  0  0
 33 57  1  0  0  0
 34 35  2  0  0  0
 34 58  1  0  0  0
 35 59  1  0  0  0
M  END
> <s_m_entry_id>
68216

> <s_m_entry_name>
dock_pv.152

> <s_m_Source_Path>
/home/csk/Desktop/cluster/DUD-E-result/pa2ga

> <s_m_Source_File>
dock_pv.maegz

> <i_m_Source_File_Index>
152

> <chembl_id>
CHEMBL347957

> <chembl_pref_name>
None

> <i_lp_mmshare_version>
53161

> <i_f3d_flags>
0

> <r_lp_tautomer_probability>
1

> <s_lp_Force_Field>
OPLS_2005

> <r_lp_Energy>
36.609087

> <b_lp_Chiralities_Consistent>
1

> <s_lp_Variant>
CHEMBL3474_lig135-1

> <s_i_glide_gridfile>
glide-grid_1kvo

> <i_i_glide_lignum>
196

> <i_i_glide_rotatable_bonds>
10

> <r_i_docking_score>
-7.38507278099288

> <r_i_glide_ligand_efficiency>
-0.211002079456939

> <r_i_glide_ligand_efficiency_sa>
-0.690201792673361

> <r_i_glide_ligand_efficiency_ln>
-1.62118737828746

> <r_i_glide_gscore>
-7.38507278099288

> <r_i_glide_lipo>
-3.87935821872588

> <r_i_glide_hbond>
-0.155856496503909

> <r_i_glide_metal>
0

> <r_i_glide_rewards>
-0.375520394961158

> <r_i_glide_evdw>
-49.5103034973145

> <r_i_glide_ecoul>
-6.71087694168091

> <r_i_glide_erotb>
0.735893658071913

> <r_i_glide_esite>
-0.228084612755991

> <r_i_glide_emodel>
-80.4729256474518

> <r_i_glide_energy>
-56.2211804389954

> <r_i_glide_einternal>
9.10598659515381

> <i_i_glide_confnum>
133

> <i_i_glide_posenum>
175

> <r_i_glide_eff_state_penalty>
0

> <s_user_duplicate_titles>
CHEMBL3474_lig135,247683

> <s_m_subgroup_title>
dock_pv

> <s_m_subgroupid>
dock_pv

> <b_m_subgroup_collapsed>
1

$$$$
CHEMBL3474_lig185
                    3D
 Schrodinger Suite 2021-1.
 60 61  0  0  1  0            999 V2000
  -39.3559   67.7208   31.5755 C   0  0  0  0  0  0
  -39.3155   65.4778   31.8705 N   0  0  0  0  0  0
  -39.0141   66.5042   30.9925 C   0  0  0  0  0  0
  -40.0146   67.4047   32.8139 C   0  0  0  0  0  0
  -39.9398   65.9950   32.9927 C   0  0  0  0  0  0
  -39.0813   69.1189   31.0248 C   0  0  0  0  0  0
  -40.4450   65.3653   34.1376 C   0  0  0  0  0  0
  -37.6152   69.5565   31.1890 C   0  0  0  0  0  0
  -40.6490   68.1759   33.8026 C   0  0  0  0  0  0
  -36.8149   68.8978   31.8457 O   0  0  0  0  0  0
  -38.9942   64.0639   31.6822 C   0  0  0  0  0  0
  -41.2180   67.5462   34.9179 C   0  0  0  0  0  0
  -37.2151   70.6735   30.5891 N   0  0  0  0  0  0
  -41.0817   66.1712   35.0780 C   0  0  0  0  0  0
  -38.3825   66.2250   29.6398 C   0  0  0  0  0  0
  -41.9372   68.2044   35.8946 O   0  0  0  0  0  0
  -42.4175   69.5199   35.6364 C   0  0  0  0  0  0
  -37.5519   63.7515   32.1499 C   0  0  0  0  0  0
  -43.3771   60.6288   35.1837 C   0  0  0  0  0  0
  -41.9952   59.9731   35.3754 C   0  0  0  0  0  0
  -38.4807   60.2662   33.5840 C   0  0  0  0  0  0
  -39.5257   59.8596   34.6430 C   0  0  0  0  0  0
  -40.9168   60.4828   34.4017 C   0  0  0  0  0  0
  -37.3081   62.2531   32.4147 C   0  0  0  0  0  0
  -38.0163   61.7337   33.6866 C   0  0  0  0  0  0
  -43.4146   62.1301   35.5129 C   0  0  0  0  0  0
  -39.3350   69.1613   29.9653 H   0  0  0  0  0  0
  -39.7036   69.8667   31.5156 H   0  0  0  0  0  0
  -40.3810   64.2979   34.2865 H   0  0  0  0  0  0
  -40.7125   69.2448   33.6824 H   0  0  0  0  0  0
  -39.7374   63.4769   32.2191 H   0  0  0  0  0  0
  -39.1387   63.7883   30.6429 H   0  0  0  0  0  0
  -36.2159   70.8951   30.6407 H   0  0  0  0  0  0
  -37.8322   71.2227   30.0097 H   0  0  0  0  0  0
  -41.5153   65.7082   35.9528 H   0  0  0  0  0  0
  -38.0820   67.1367   29.1228 H   0  0  0  0  0  0
  -37.4949   65.5995   29.7134 H   0  0  0  0  0  0
  -39.0737   65.6994   28.9793 H   0  0  0  0  0  0
  -43.0961   69.8168   36.4367 H   0  0  0  0  0  0
  -42.9788   69.5656   34.7017 H   0  0  0  0  0  0
  -41.6151   70.2539   35.6012 H   0  0  0  0  0  0
  -36.8529   64.0942   31.3858 H   0  0  0  0  0  0
  -37.3115   64.3252   33.0430 H   0  0  0  0  0  0
  -43.7229   60.4725   34.1597 H   0  0  0  0  0  0
  -44.0998   60.1165   35.8205 H   0  0  0  0  0  0
  -42.1050   58.8982   35.2399 H   0  0  0  0  0  0
  -41.6639   60.1139   36.4056 H   0  0  0  0  0  0
  -38.9037   60.0742   32.5969 H   0  0  0  0  0  0
  -37.6137   59.6128   33.6578 H   0  0  0  0  0  0
  -39.6161   58.7742   34.6415 H   0  0  0  0  0  0
  -39.1659   60.1146   35.6413 H   0  0  0  0  0  0
  -40.8469   61.5654   34.4854 H   0  0  0  0  0  0
  -41.2354   60.2760   33.3796 H   0  0  0  0  0  0
  -37.6308   61.6936   31.5347 H   0  0  0  0  0  0
  -36.2385   62.0604   32.4989 H   0  0  0  0  0  0
  -37.3572   61.8488   34.5487 H   0  0  0  0  0  0
  -38.8740   62.3621   33.9121 H   0  0  0  0  0  0
  -44.4311   62.5145   35.4487 H   0  0  0  0  0  0
  -43.0532   62.3242   36.5245 H   0  0  0  0  0  0
  -42.8055   62.7105   34.8191 H   0  0  0  0  0  0
  1  3  2  0  0  0
  1  4  1  0  0  0
  1  6  1  0  0  0
  2  3  1  0  0  0
  2 11  1  0  0  0
  2  5  1  0  0  0
  3 15  1  0  0  0
  4  5  1  0  0  0
  4  9  2  0  0  0
  5  7  2  0  0  0
  6  8  1  0  0  0
  6 27  1  0  0  0
  6 28  1  0  0  0
  7 14  1  0  0  0
  7 29  1  0  0  0
  8 10  2  0  0  0
  8 13  1  0  0  0
  9 12  1  0  0  0
  9 30  1  0  0  0
 11 18  1  0  0  0
 11 31  1  0  0  0
 11 32  1  0  0  0
 12 14  2  0  0  0
 12 16  1  0  0  0
 13 33  1  0  0  0
 13 34  1  0  0  0
 14 35  1  0  0  0
 15 36  1  0  0  0
 15 37  1  0  0  0
 15 38  1  0  0  0
 16 17  1  0  0  0
 17 39  1  0  0  0
 17 40  1  0  0  0
 17 41  1  0  0  0
 18 24  1  0  0  0
 18 42  1  0  0  0
 18 43  1  0  0  0
 19 20  1  0  0  0
 19 26  1  0  0  0
 19 44  1  0  0  0
 19 45  1  0  0  0
 20 23  1  0  0  0
 20 46  1  0  0  0
 20 47  1  0  0  0
 21 25  1  0  0  0
 21 22  1  0  0  0
 21 48  1  0  0  0
 21 49  1  0  0  0
 22 23  1  0  0  0
 22 50  1  0  0  0
 22 51  1  0  0  0
 23 52  1  0  0  0
 23 53  1  0  0  0
 24 25  1  0  0  0
 24 54  1  0  0  0
 24 55  1  0  0  0
 25 56  1  0  0  0
 25 57  1  0  0  0
 26 58  1  0  0  0
 26 59  1  0  0  0
 26 60  1  0  0  0
M  END
> <s_m_entry_id>
68217

> <s_m_entry_name>
dock_pv.153

> <s_m_Source_Path>
/home/csk/Desktop/cluster/DUD-E-result/pa2ga

> <s_m_Source_File>
dock_pv.maegz

> <i_m_Source_File_Index>
153

> <chembl_id>
CHEMBL147402

> <chembl_pref_name>
None

> <i_lp_mmshare_version>
53161

> <i_f3d_flags>
0

> <r_lp_tautomer_probability>
1

> <s_lp_Force_Field>
OPLS_2005

> <r_lp_Energy>
9.014266

> <b_lp_Chiralities_Consistent>
1

> <s_lp_Variant>
CHEMBL3474_lig185-1

> <s_i_glide_gridfile>
glide-grid_1kvo

> <i_i_glide_lignum>
247

> <i_i_glide_rotatable_bonds>
12

> <r_i_docking_score>
-7.36844885651396

> <r_i_glide_ligand_efficiency>
-0.283401879096691

> <r_i_glide_ligand_efficiency_sa>
-0.8395769516914

> <r_i_glide_ligand_efficiency_ln>
-1.73045603609957

> <r_i_glide_gscore>
-7.36844885651396

> <r_i_glide_lipo>
-3.40340090862345

> <r_i_glide_hbond>
-0.32

> <r_i_glide_metal>
0

> <r_i_glide_rewards>
-1.32546870048971

> <r_i_glide_evdw>
-38.6920890808105

> <r_i_glide_ecoul>
-10.7715854644775

> <r_i_glide_erotb>
1.34135023325678

> <r_i_glide_esite>
-0.11058720694542

> <r_i_glide_emodel>
-72.456812407305

> <r_i_glide_energy>
-49.4636745452881

> <r_i_glide_einternal>
5.27023267745972

> <i_i_glide_confnum>
128

> <i_i_glide_posenum>
65

> <r_i_glide_eff_state_penalty>
0

> <s_user_duplicate_titles>
CHEMBL3474_lig185

> <s_m_subgroup_title>
dock_pv

> <s_m_subgroupid>
dock_pv

> <b_m_subgroup_collapsed>
1

$$$$
CHEMBL3474_lig159
                    3D
 Schrodinger Suite 2021-1.
 51 54  0  0  1  0            999 V2000
  -41.0489   62.9269   35.7652 N   0  0  0  0  0  0
  -39.6472   62.0635   34.2036 C   0  0  0  0  0  0
  -40.3603   61.7927   35.3641 C   0  0  0  0  0  0
  -39.9275   63.4399   33.8759 C   0  0  0  0  0  0
  -40.8137   63.9523   34.8627 C   0  0  0  0  0  0
  -39.5019   64.3000   32.8483 C   0  0  0  0  0  0
  -38.7672   61.0817   33.4287 C   0  0  0  0  0  0
  -39.8999   65.6413   32.8219 C   0  0  0  0  0  0
  -41.8993   63.0273   36.9601 C   0  0  0  0  0  0
  -41.2760   65.2749   34.8218 C   0  0  0  0  0  0
  -37.5003   61.6877   32.8060 C   0  0  0  0  0  0
  -40.7944   66.0921   33.7992 C   0  0  0  0  0  0
  -36.8212   62.4978   33.4415 O   0  0  0  0  0  0
  -39.3432   66.5713   31.7864 C   0  0  0  0  0  0
  -37.2144   61.2982   31.5518 N   0  0  0  0  0  0
  -40.4582   60.4982   36.1511 C   0  0  0  0  0  0
  -36.0629   61.7548   30.9171 N   0  0  0  0  0  0
  -43.2598   62.3278   36.9105 C   0  0  0  0  0  0
  -38.9787   66.1024   30.5142 C   0  0  0  0  0  0
  -39.1367   67.9285   32.0774 C   0  0  0  0  0  0
  -43.7260   61.6652   35.7668 C   0  0  0  0  0  0
  -44.0507   62.3504   38.0630 C   0  0  0  0  0  0
  -38.5743   68.7865   31.1351 C   0  0  0  0  0  0
  -38.4139   66.9552   29.5702 C   0  0  0  0  0  0
  -45.2855   61.7074   38.0818 C   0  0  0  0  0  0
  -44.9543   61.0111   35.7914 C   0  0  0  0  0  0
  -38.2125   68.2953   29.8844 C   0  0  0  0  0  0
  -45.7303   61.0350   36.9469 C   0  0  0  0  0  0
  -38.8174   63.9336   32.1008 H   0  0  0  0  0  0
  -38.4338   60.2612   34.0631 H   0  0  0  0  0  0
  -39.3689   60.6133   32.6494 H   0  0  0  0  0  0
  -42.0635   64.0808   37.1866 H   0  0  0  0  0  0
  -41.3286   62.6398   37.8051 H   0  0  0  0  0  0
  -41.9607   65.6677   35.5589 H   0  0  0  0  0  0
  -41.1356   67.1164   33.7766 H   0  0  0  0  0  0
  -37.6634   60.5175   31.0936 H   0  0  0  0  0  0
  -39.7213   59.7597   35.8404 H   0  0  0  0  0  0
  -40.3045   60.6484   37.2179 H   0  0  0  0  0  0
  -41.4334   60.0266   36.0383 H   0  0  0  0  0  0
  -36.2703   62.6610   30.5142 H   0  0  0  0  0  0
  -35.3547   61.8767   31.6305 H   0  0  0  0  0  0
  -39.1287   65.0685   30.2384 H   0  0  0  0  0  0
  -39.3902   68.3252   33.0488 H   0  0  0  0  0  0
  -43.1439   61.6409   34.8580 H   0  0  0  0  0  0
  -43.7067   62.8601   38.9519 H   0  0  0  0  0  0
  -38.4151   69.8284   31.3719 H   0  0  0  0  0  0
  -38.1333   66.5728   28.5985 H   0  0  0  0  0  0
  -45.8916   61.7227   38.9760 H   0  0  0  0  0  0
  -45.3090   60.4992   34.9088 H   0  0  0  0  0  0
  -37.7737   68.9573   29.1512 H   0  0  0  0  0  0
  -46.6857   60.5313   36.9612 H   0  0  0  0  0  0
  1  3  1  0  0  0
  1  5  1  0  0  0
  1  9  1  0  0  0
  2  3  2  0  0  0
  2  7  1  0  0  0
  2  4  1  0  0  0
  3 16  1  0  0  0
  4  5  1  0  0  0
  4  6  2  0  0  0
  5 10  2  0  0  0
  6  8  1  0  0  0
  6 29  1  0  0  0
  7 11  1  0  0  0
  7 30  1  0  0  0
  7 31  1  0  0  0
  8 12  2  0  0  0
  8 14  1  0  0  0
  9 18  1  0  0  0
  9 32  1  0  0  0
  9 33  1  0  0  0
 10 12  1  0  0  0
 10 34  1  0  0  0
 11 13  2  0  0  0
 11 15  1  0  0  0
 12 35  1  0  0  0
 14 19  1  0  0  0
 14 20  2  0  0  0
 15 17  1  0  0  0
 15 36  1  0  0  0
 16 37  1  0  0  0
 16 38  1  0  0  0
 16 39  1  0  0  0
 17 40  1  0  0  0
 17 41  1  0  0  0
 18 21  1  0  0  0
 18 22  2  0  0  0
 19 24  2  0  0  0
 19 42  1  0  0  0
 20 23  1  0  0  0
 20 43  1  0  0  0
 21 26  2  0  0  0
 21 44  1  0  0  0
 22 25  1  0  0  0
 22 45  1  0  0  0
 23 27  2  0  0  0
 23 46  1  0  0  0
 24 27  1  0  0  0
 24 47  1  0  0  0
 25 28  2  0  0  0
 25 48  1  0  0  0
 26 28  1  0  0  0
 26 49  1  0  0  0
 27 50  1  0  0  0
 28 51  1  0  0  0
M  END
> <s_m_entry_id>
68218

> <s_m_entry_name>
dock_pv.154

> <s_m_Source_Path>
/home/csk/Desktop/cluster/DUD-E-result/pa2ga

> <s_m_Source_File>
dock_pv.maegz

> <i_m_Source_File_Index>
154

> <chembl_id>
CHEMBL149602

> <chembl_pref_name>
None

> <i_lp_mmshare_version>
53161

> <i_f3d_flags>
0

> <r_lp_tautomer_probability>
1

> <s_lp_Force_Field>
OPLS_2005

> <r_lp_Energy>
18.677764

> <b_lp_Chiralities_Consistent>
1

> <s_lp_Variant>
CHEMBL3474_lig159-1

> <s_i_glide_gridfile>
glide-grid_1kvo

> <i_i_glide_lignum>
220

> <i_i_glide_rotatable_bonds>
6

> <r_i_docking_score>
-7.36605427368148

> <r_i_glide_ligand_efficiency>
-0.263073366917196

> <r_i_glide_ligand_efficiency_sa>
-0.79884568388765

> <r_i_glide_ligand_efficiency_ln>
-1.70030160311697

> <r_i_glide_gscore>
-7.36605427368148

> <r_i_glide_lipo>
-3.20853913564623

> <r_i_glide_hbond>
-0.231268558289462

> <r_i_glide_metal>
0

> <r_i_glide_rewards>
-1.68528883033734

> <r_i_glide_evdw>
-45.9814071655273

> <r_i_glide_ecoul>
-4.32106637954712

> <r_i_glide_erotb>
0.70627256579999

> <r_i_glide_esite>
0

> <r_i_glide_emodel>
-72.9274116689503

> <r_i_glide_energy>
-50.3024735450745

> <r_i_glide_einternal>
3.17832040786743

> <i_i_glide_confnum>
17

> <i_i_glide_posenum>
146

> <r_i_glide_eff_state_penalty>
0

> <s_user_duplicate_titles>
CHEMBL3474_lig159,246280

> <s_m_subgroup_title>
dock_pv

> <s_m_subgroupid>
dock_pv

> <b_m_subgroup_collapsed>
1

$$$$
CHEMBL3474_lig16
                    3D
 Schrodinger Suite 2021-1.
 58 60  0  0  1  0            999 V2000
  -39.8068   65.7215   31.7687 N   0  0  0  0  0  0
  -39.5175   67.9726   31.8422 C   0  0  0  0  0  0
  -39.2448   66.8115   31.1208 C   0  0  0  0  0  0
  -40.4353   66.1518   32.9231 C   0  0  0  0  0  0
  -40.2608   67.5601   33.0005 C   0  0  0  0  0  0
  -41.1497   65.4379   33.8917 C   0  0  0  0  0  0
  -39.1368   69.4103   31.4878 C   0  0  0  0  0  0
  -39.7645   64.3241   31.3216 C   0  0  0  0  0  0
  -40.8154   68.2411   34.0962 C   0  0  0  0  0  0
  -37.6266   69.6746   31.4120 C   0  0  0  0  0  0
  -43.7288   61.2672   36.4500 C   0  0  0  0  0  0
  -36.8150   68.8977   31.9007 O   0  0  0  0  0  0
  -44.9246   61.2723   36.1572 O   0  0  0  0  0  0
  -41.6868   66.1448   34.9762 C   0  0  0  0  0  0
  -37.2150   70.7743   30.7902 N   0  0  0  0  0  0
  -41.5176   67.5238   35.0629 C   0  0  0  0  0  0
  -38.4926   66.6479   29.8129 C   0  0  0  0  0  0
  -38.8509   63.4026   32.1244 C   0  0  0  0  0  0
  -42.7652   60.5300   35.8515 O   0  0  0  0  0  0
  -42.4006   65.5428   35.9953 O   0  0  0  0  0  0
  -43.1785   62.1565   37.5692 C   0  0  0  0  0  0
  -43.0732   59.6321   34.7898 C   0  0  0  0  0  0
  -42.4756   64.1187   36.0364 C   0  0  0  0  0  0
  -37.4836   63.3688   31.8429 C   0  0  0  0  0  0
  -39.3886   62.5268   33.0744 C   0  0  0  0  0  0
  -43.2628   63.6731   37.2790 C   0  0  0  0  0  0
  -43.2249   60.3551   33.4428 C   0  0  0  0  0  0
  -36.6670   62.4459   32.4876 C   0  0  0  0  0  0
  -38.5657   61.6239   33.7401 C   0  0  0  0  0  0
  -37.2090   61.5819   33.4361 C   0  0  0  0  0  0
  -41.2915   64.3780   33.7941 H   0  0  0  0  0  0
  -39.5906   69.6836   30.5339 H   0  0  0  0  0  0
  -39.5436   70.1109   32.2176 H   0  0  0  0  0  0
  -39.4658   64.2857   30.2763 H   0  0  0  0  0  0
  -40.7848   63.9369   31.3339 H   0  0  0  0  0  0
  -40.7106   69.3109   34.1926 H   0  0  0  0  0  0
  -36.2099   70.8972   30.6480 H   0  0  0  0  0  0
  -37.8651   71.4210   30.3706 H   0  0  0  0  0  0
  -41.9444   68.0483   35.9059 H   0  0  0  0  0  0
  -38.1416   67.5969   29.4090 H   0  0  0  0  0  0
  -37.6157   66.0106   29.9209 H   0  0  0  0  0  0
  -39.1182   66.1974   29.0441 H   0  0  0  0  0  0
  -42.1393   61.8833   37.7529 H   0  0  0  0  0  0
  -43.7228   61.9211   38.4839 H   0  0  0  0  0  0
  -42.2606   58.9083   34.7147 H   0  0  0  0  0  0
  -43.9718   59.0628   35.0263 H   0  0  0  0  0  0
  -42.9671   63.7396   35.1385 H   0  0  0  0  0  0
  -41.4676   63.6991   36.0737 H   0  0  0  0  0  0
  -37.0626   64.0172   31.0874 H   0  0  0  0  0  0
  -40.4476   62.5063   33.2763 H   0  0  0  0  0  0
  -42.8821   64.2112   38.1481 H   0  0  0  0  0  0
  -44.3051   63.9784   37.1736 H   0  0  0  0  0  0
  -43.4170   59.6389   32.6441 H   0  0  0  0  0  0
  -44.0563   61.0609   33.4574 H   0  0  0  0  0  0
  -42.3180   60.9025   33.1852 H   0  0  0  0  0  0
  -35.6170   62.3914   32.2426 H   0  0  0  0  0  0
  -38.9807   60.9402   34.4661 H   0  0  0  0  0  0
  -36.5730   60.8624   33.9307 H   0  0  0  0  0  0
  1  3  1  0  0  0
  1  4  1  0  0  0
  1  8  1  0  0  0
  2  3  2  0  0  0
  2  7  1  0  0  0
  2  5  1  0  0  0
  3 17  1  0  0  0
  4  5  1  0  0  0
  4  6  2  0  0  0
  5  9  2  0  0  0
  6 14  1  0  0  0
  6 31  1  0  0  0
  7 10  1  0  0  0
  7 32  1  0  0  0
  7 33  1  0  0  0
  8 18  1  0  0  0
  8 34  1  0  0  0
  8 35  1  0  0  0
  9 16  1  0  0  0
  9 36  1  0  0  0
 10 12  2  0  0  0
 10 15  1  0  0  0
 11 21  1  0  0  0
 11 13  2  0  0  0
 11 19  1  0  0  0
 14 16  2  0  0  0
 14 20  1  0  0  0
 15 37  1  0  0  0
 15 38  1  0  0  0
 16 39  1  0  0  0
 17 40  1  0  0  0
 17 41  1  0  0  0
 17 42  1  0  0  0
 18 24  1  0  0  0
 18 25  2  0  0  0
 19 22  1  0  0  0
 20 23  1  0  0  0
 21 26  1  0  0  0
 21 43  1  0  0  0
 21 44  1  0  0  0
 22 27  1  0  0  0
 22 45  1  0  0  0
 22 46  1  0  0  0
 23 26  1  0  0  0
 23 47  1  0  0  0
 23 48  1  0  0  0
 24 28  2  0  0  0
 24 49  1  0  0  0
 25 29  1  0  0  0
 25 50  1  0  0  0
 26 51  1  0  0  0
 26 52  1  0  0  0
 27 53  1  0  0  0
 27 54  1  0  0  0
 27 55  1  0  0  0
 28 30  1  0  0  0
 28 56  1  0  0  0
 29 30  2  0  0  0
 29 57  1  0  0  0
 30 58  1  0  0  0
M  END
> <s_m_entry_id>
68219

> <s_m_entry_name>
dock_pv.155

> <s_m_Source_Path>
/home/csk/Desktop/cluster/DUD-E-result/pa2ga

> <s_m_Source_File>
dock_pv.maegz

> <i_m_Source_File_Index>
155

> <chembl_id>
CHEMBL148887

> <chembl_pref_name>
None

> <i_lp_mmshare_version>
53161

> <i_f3d_flags>
0

> <r_lp_tautomer_probability>
1

> <s_lp_Force_Field>
OPLS_2005

> <r_lp_Energy>
9.856149

> <b_lp_Chiralities_Consistent>
1

> <s_lp_Variant>
CHEMBL3474_lig16-1

> <s_i_glide_gridfile>
glide-grid_1kvo

> <i_i_glide_lignum>
55

> <i_i_glide_rotatable_bonds>
11

> <r_i_docking_score>
-7.35380164104906

> <r_i_glide_ligand_efficiency>
-0.245126721368302

> <r_i_glide_ligand_efficiency_sa>
-0.761665715849957

> <r_i_glide_ligand_efficiency_ln>
-1.67086385893282

> <r_i_glide_gscore>
-7.35380164104906

> <r_i_glide_lipo>
-3.13405519362138

> <r_i_glide_hbond>
-0.32

> <r_i_glide_metal>
0

> <r_i_glide_rewards>
-1.11021402541333

> <r_i_glide_evdw>
-44.7138938903809

> <r_i_glide_ecoul>
-9.99734592437744

> <r_i_glide_erotb>
1.06155993200968

> <r_i_glide_esite>
-0.115795770848369

> <r_i_glide_emodel>
-77.9493930595897

> <r_i_glide_energy>
-54.7112398147583

> <r_i_glide_einternal>
6.29568672180176

> <i_i_glide_confnum>
25

> <i_i_glide_posenum>
8

> <r_i_glide_eff_state_penalty>
0

> <s_user_duplicate_titles>
CHEMBL3474_lig16,247422

> <s_m_subgroup_title>
dock_pv

> <s_m_subgroupid>
dock_pv

> <b_m_subgroup_collapsed>
1

$$$$
CHEMBL3474_lig213
                    3D
 Schrodinger Suite 2021-1.
 55 58  0  0  1  0            999 V2000
  -38.7387   62.8841   33.2922 C   0  0  0  0  0  0
  -40.0417   62.6046   35.1246 N   0  0  0  0  0  0
  -39.4463   64.1324   33.5467 C   0  0  0  0  0  0
  -39.1897   61.9643   34.2405 C   0  0  0  0  0  0
  -40.2270   63.9263   34.7349 C   0  0  0  0  0  0
  -37.7098   62.5939   32.2715 C   0  0  0  0  0  0
  -39.5177   65.4093   32.9282 C   0  0  0  0  0  0
  -40.9898   64.9622   35.3159 C   0  0  0  0  0  0
  -36.6510   63.7160   31.8982 C   0  0  0  0  0  0
  -40.9864   66.2040   34.6867 C   0  0  0  0  0  0
  -40.2558   66.4272   33.5354 C   0  0  0  0  0  0
  -40.7372   61.9518   36.2456 C   0  0  0  0  0  0
  -38.8967   65.5703   31.7085 O   0  0  0  0  0  0
  -39.2107   67.7705   30.6049 C   0  0  0  0  0  0
  -37.5233   61.4577   31.8239 O   0  0  0  0  0  0
  -36.4147   64.6666   32.6430 O   0  0  0  0  0  0
  -42.1550   61.5079   35.9201 C   0  0  0  0  0  0
  -40.4291   67.6020   30.5297 O   0  0  0  0  0  0
  -36.0152   63.5034   30.7502 N   0  0  0  0  0  0
  -38.2983   66.8344   31.4005 C   0  0  0  0  0  0
  -38.8367   60.4948   34.4557 C   0  0  0  0  0  0
  -42.4590   60.9774   34.6638 C   0  0  0  0  0  0
  -43.7585   60.6069   34.3539 C   0  0  0  0  0  0
  -38.5146   68.7834   30.0460 O   0  0  0  0  0  0
  -44.0148   60.1082   33.1274 F   0  0  0  0  0  0
  -41.8027   65.0324   36.5918 C   0  0  0  0  0  0
  -41.8000   67.2069   35.4722 C   0  0  0  0  0  0
  -42.5590   66.3526   36.4850 C   0  0  0  0  0  0
  -44.4776   61.2615   36.5676 C   0  0  0  0  0  0
  -43.1680   61.6247   36.8794 C   0  0  0  0  0  0
  -44.7738   60.7639   35.2993 C   0  0  0  0  0  0
  -39.1656   69.7515   29.2348 C   0  0  0  0  0  0
  -40.3022   67.4046   33.0874 H   0  0  0  0  0  0
  -40.7554   62.6460   37.0836 H   0  0  0  0  0  0
  -40.1707   61.0946   36.6061 H   0  0  0  0  0  0
  -35.3848   64.2139   30.3905 H   0  0  0  0  0  0
  -36.2802   62.7165   30.1715 H   0  0  0  0  0  0
  -38.0114   67.3386   32.3214 H   0  0  0  0  0  0
  -37.3846   66.6601   30.8349 H   0  0  0  0  0  0
  -38.1054   60.1039   33.7543 H   0  0  0  0  0  0
  -38.4126   60.3340   35.4431 H   0  0  0  0  0  0
  -39.7086   59.8462   34.3803 H   0  0  0  0  0  0
  -41.7023   60.8635   33.9044 H   0  0  0  0  0  0
  -42.5122   64.2201   36.7049 H   0  0  0  0  0  0
  -41.1562   65.0321   37.4700 H   0  0  0  0  0  0
  -41.1486   67.9097   35.9926 H   0  0  0  0  0  0
  -42.4901   67.7815   34.8532 H   0  0  0  0  0  0
  -42.6737   66.8494   37.4514 H   0  0  0  0  0  0
  -43.5671   66.1631   36.1075 H   0  0  0  0  0  0
  -45.2623   61.3729   37.3031 H   0  0  0  0  0  0
  -42.9514   62.0148   37.8639 H   0  0  0  0  0  0
  -45.7879   60.4969   35.0437 H   0  0  0  0  0  0
  -38.4643   70.5404   28.9616 H   0  0  0  0  0  0
  -39.5445   69.2998   28.3161 H   0  0  0  0  0  0
  -40.0001   70.2156   29.7630 H   0  0  0  0  0  0
  1  3  1  0  0  0
  1  4  2  0  0  0
  1  6  1  0  0  0
  2  4  1  0  0  0
  2 12  1  0  0  0
  2  5  1  0  0  0
  3  5  1  0  0  0
  3  7  2  0  0  0
  4 21  1  0  0  0
  5  8  2  0  0  0
  6  9  1  0  0  0
  6 15  2  0  0  0
  7 11  1  0  0  0
  7 13  1  0  0  0
  8 26  1  0  0  0
  8 10  1  0  0  0
  9 16  2  0  0  0
  9 19  1  0  0  0
 10 11  2  0  0  0
 10 27  1  0  0  0
 11 33  1  0  0  0
 12 17  1  0  0  0
 12 34  1  0  0  0
 12 35  1  0  0  0
 13 20  1  0  0  0
 14 20  1  0  0  0
 14 18  2  0  0  0
 14 24  1  0  0  0
 17 22  1  0  0  0
 17 30  2  0  0  0
 19 36  1  0  0  0
 19 37  1  0  0  0
 20 38  1  0  0  0
 20 39  1  0  0  0
 21 40  1  0  0  0
 21 41  1  0  0  0
 21 42  1  0  0  0
 22 23  2  0  0  0
 22 43  1  0  0  0
 23 25  1  0  0  0
 23 31  1  0  0  0
 24 32  1  0  0  0
 26 28  1  0  0  0
 26 44  1  0  0  0
 26 45  1  0  0  0
 27 28  1  0  0  0
 27 46  1  0  0  0
 27 47  1  0  0  0
 28 48  1  0  0  0
 28 49  1  0  0  0
 29 30  1  0  0  0
 29 31  2  0  0  0
 29 50  1  0  0  0
 30 51  1  0  0  0
 31 52  1  0  0  0
 32 53  1  0  0  0
 32 54  1  0  0  0
 32 55  1  0  0  0
M  END
> <s_m_entry_id>
68220

> <s_m_entry_name>
dock_pv.156

> <s_m_Source_Path>
/home/csk/Desktop/cluster/DUD-E-result/pa2ga

> <s_m_Source_File>
dock_pv.maegz

> <i_m_Source_File_Index>
156

> <chembl_id>
CHEMBL178187

> <chembl_pref_name>
None

> <i_lp_mmshare_version>
53161

> <i_f3d_flags>
0

> <r_lp_tautomer_probability>
1

> <s_lp_Force_Field>
OPLS_2005

> <r_lp_Energy>
54.438316

> <b_lp_Chiralities_Consistent>
1

> <s_lp_Variant>
CHEMBL3474_lig213-1

> <s_i_glide_gridfile>
glide-grid_1kvo

> <i_i_glide_lignum>
275

> <i_i_glide_rotatable_bonds>
8

> <r_i_docking_score>
-7.32853045307557

> <r_i_glide_ligand_efficiency>
-0.229016576658612

> <r_i_glide_ligand_efficiency_sa>
-0.727082308572113

> <r_i_glide_ligand_efficiency_ln>
-1.64105773663889

> <r_i_glide_gscore>
-7.32853045307557

> <r_i_glide_lipo>
-3.24296028161157

> <r_i_glide_hbond>
-0.426698049807933

> <r_i_glide_metal>
0

> <r_i_glide_rewards>
-0.990909159219976

> <r_i_glide_evdw>
-44.4275093078613

> <r_i_glide_ecoul>
-6.56723356246948

> <r_i_glide_erotb>
0.622665885695575

> <r_i_glide_esite>
-0.0841683483681756

> <r_i_glide_emodel>
-75.7601661875278

> <r_i_glide_energy>
-50.9947428703308

> <r_i_glide_einternal>
5.20399379730225

> <i_i_glide_confnum>
25

> <i_i_glide_posenum>
88

> <r_i_glide_eff_state_penalty>
0

> <s_user_duplicate_titles>
CHEMBL3474_lig213,299384

> <s_m_subgroup_title>
dock_pv

> <s_m_subgroupid>
dock_pv

> <b_m_subgroup_collapsed>
1

$$$$
CHEMBL3474_lig13
                    3D
 Schrodinger Suite 2021-1.
 49 51  0  0  1  0            999 V2000
  -40.1461   62.8460   34.9778 N   0  0  0  0  0  0
  -38.8733   62.9618   33.1079 C   0  0  0  0  0  0
  -39.2096   62.1700   34.2013 C   0  0  0  0  0  0
  -39.6750   64.1568   33.1882 C   0  0  0  0  0  0
  -40.4385   64.0680   34.3881 C   0  0  0  0  0  0
  -37.8911   62.6106   31.9973 C   0  0  0  0  0  0
  -40.8106   62.3527   36.1935 C   0  0  0  0  0  0
  -39.8266   65.2949   32.3668 C   0  0  0  0  0  0
  -36.6956   63.5539   31.8430 C   0  0  0  0  0  0
  -38.2791   67.5310   30.6230 C   0  0  0  0  0  0
  -39.0921   65.2814   31.1948 O   0  0  0  0  0  0
  -36.4818   64.4980   32.5991 O   0  0  0  0  0  0
  -37.6151   67.6000   31.6575 O   0  0  0  0  0  0
  -39.1827   66.3441   30.2424 C   0  0  0  0  0  0
  -35.8898   63.2982   30.8269 N   0  0  0  0  0  0
  -41.3044   65.0963   34.7898 C   0  0  0  0  0  0
  -38.6616   60.7881   34.5511 C   0  0  0  0  0  0
  -42.2231   61.8397   35.9709 C   0  0  0  0  0  0
  -38.2965   68.4966   29.6593 O   0  0  0  0  0  0
  -41.3999   66.2155   33.9660 C   0  0  0  0  0  0
  -40.6881   66.3175   32.7772 C   0  0  0  0  0  0
  -43.3219   62.5531   36.4602 C   0  0  0  0  0  0
  -42.4198   60.6404   35.2847 C   0  0  0  0  0  0
  -39.1142   59.6979   33.5665 C   0  0  0  0  0  0
  -44.6109   62.0767   36.2418 C   0  0  0  0  0  0
  -43.7053   60.1781   35.0437 C   0  0  0  0  0  0
  -44.7971   60.8978   35.5234 C   0  0  0  0  0  0
  -37.4712   61.6176   32.1381 H   0  0  0  0  0  0
  -38.4143   62.5867   31.0419 H   0  0  0  0  0  0
  -40.8101   63.1561   36.9344 H   0  0  0  0  0  0
  -40.2344   61.5531   36.6438 H   0  0  0  0  0  0
  -38.8426   65.9370   29.2888 H   0  0  0  0  0  0
  -40.2163   66.6633   30.0997 H   0  0  0  0  0  0
  -35.1424   63.9482   30.6187 H   0  0  0  0  0  0
  -36.1512   62.6044   30.1445 H   0  0  0  0  0  0
  -41.8793   65.0380   35.7031 H   0  0  0  0  0  0
  -37.5716   60.8289   34.5383 H   0  0  0  0  0  0
  -38.8912   60.4569   35.5585 H   0  0  0  0  0  0
  -38.8138   68.2568   28.8879 H   0  0  0  0  0  0
  -42.0560   67.0247   34.2557 H   0  0  0  0  0  0
  -40.8152   67.2077   32.1796 H   0  0  0  0  0  0
  -43.1824   63.4715   37.0121 H   0  0  0  0  0  0
  -41.5762   60.0658   34.9386 H   0  0  0  0  0  0
  -38.8045   58.7159   33.9163 H   0  0  0  0  0  0
  -40.1955   59.6808   33.4419 H   0  0  0  0  0  0
  -38.6931   59.8352   32.5754 H   0  0  0  0  0  0
  -45.4652   62.6196   36.6223 H   0  0  0  0  0  0
  -43.8544   59.2640   34.4880 H   0  0  0  0  0  0
  -45.7961   60.5303   35.3401 H   0  0  0  0  0  0
  1  3  1  0  0  0
  1  5  1  0  0  0
  1  7  1  0  0  0
  2  3  2  0  0  0
  2  6  1  0  0  0
  2  4  1  0  0  0
  3 17  1  0  0  0
  4  5  1  0  0  0
  4  8  2  0  0  0
  5 16  2  0  0  0
  6  9  1  0  0  0
  6 28  1  0  0  0
  6 29  1  0  0  0
  7 18  1  0  0  0
  7 30  1  0  0  0
  7 31  1  0  0  0
  8 11  1  0  0  0
  8 21  1  0  0  0
  9 12  2  0  0  0
  9 15  1  0  0  0
 10 14  1  0  0  0
 10 13  2  0  0  0
 10 19  1  0  0  0
 11 14  1  0  0  0
 14 32  1  0  0  0
 14 33  1  0  0  0
 15 34  1  0  0  0
 15 35  1  0  0  0
 16 20  1  0  0  0
 16 36  1  0  0  0
 17 24  1  0  0  0
 17 37  1  0  0  0
 17 38  1  0  0  0
 18 22  2  0  0  0
 18 23  1  0  0  0
 19 39  1  0  0  0
 20 21  2  0  0  0
 20 40  1  0  0  0
 21 41  1  0  0  0
 22 25  1  0  0  0
 22 42  1  0  0  0
 23 26  2  0  0  0
 23 43  1  0  0  0
 24 44  1  0  0  0
 24 45  1  0  0  0
 24 46  1  0  0  0
 25 27  2  0  0  0
 25 47  1  0  0  0
 26 27  1  0  0  0
 26 48  1  0  0  0
 27 49  1  0  0  0
M  END
> <s_m_entry_id>
68221

> <s_m_entry_name>
dock_pv.157

> <s_m_Source_Path>
/home/csk/Desktop/cluster/DUD-E-result/pa2ga

> <s_m_Source_File>
dock_pv.maegz

> <i_m_Source_File_Index>
157

> <chembl_id>
CHEMBL348463

> <chembl_pref_name>
None

> <i_lp_mmshare_version>
53161

> <i_f3d_flags>
0

> <r_lp_tautomer_probability>
1

> <s_lp_Force_Field>
OPLS_2005

> <r_lp_Energy>
13.9879

> <b_lp_Chiralities_Consistent>
1

> <s_lp_Variant>
CHEMBL3474_lig13-1

> <s_i_glide_gridfile>
glide-grid_1kvo

> <i_i_glide_lignum>
52

> <i_i_glide_rotatable_bonds>
9

> <r_i_docking_score>
-7.32008579929912

> <r_i_glide_ligand_efficiency>
-0.271114288862931

> <r_i_glide_ligand_efficiency_sa>
-0.813342865695243

> <r_i_glide_ligand_efficiency_ln>
-1.7039952930307

> <r_i_glide_gscore>
-7.32008579929912

> <r_i_glide_lipo>
-3.39042971839134

> <r_i_glide_hbond>
-0.358160059694352

> <r_i_glide_metal>
0

> <r_i_glide_rewards>
-1.13141992556586

> <r_i_glide_evdw>
-43.3967018127441

> <r_i_glide_ecoul>
-7.14414119720459

> <r_i_glide_erotb>
0.860164192285609

> <r_i_glide_esite>
-0.0587840177152859

> <r_i_glide_emodel>
-75.6283851861194

> <r_i_glide_energy>
-50.5408430099487

> <r_i_glide_einternal>
4.66638278961182

> <i_i_glide_confnum>
66

> <i_i_glide_posenum>
40

> <r_i_glide_eff_state_penalty>
0

> <s_user_duplicate_titles>
CHEMBL3474_lig13,247455

> <s_m_subgroup_title>
dock_pv

> <s_m_subgroupid>
dock_pv

> <b_m_subgroup_collapsed>
1

$$$$
CHEMBL3474_lig183
                    3D
 Schrodinger Suite 2021-1.
 40 42  0  0  1  0            999 V2000
  -40.5012   63.9672   34.6591 N   0  0  0  0  0  0
  -40.7531   65.0106   33.7875 C   0  0  0  0  0  0
  -39.8887   64.9642   32.7040 C   0  0  0  0  0  0
  -39.0965   63.7762   32.8994 C   0  0  0  0  0  0
  -39.4771   63.1929   34.1427 C   0  0  0  0  0  0
  -39.8356   65.9349   31.5257 C   0  0  0  0  0  0
  -41.2364   63.6711   35.8938 C   0  0  0  0  0  0
  -38.8610   62.0383   34.6427 C   0  0  0  0  0  0
  -38.4157   66.3358   31.0950 C   0  0  0  0  0  0
  -38.0959   63.1441   32.1442 C   0  0  0  0  0  0
  -42.0115   66.1481   34.0987 Cl  0  0  0  0  0  0
  -37.6606   66.9559   31.8429 O   0  0  0  0  0  0
  -37.4810   61.9853   32.6325 C   0  0  0  0  0  0
  -38.0151   65.9481   29.8900 N   0  0  0  0  0  0
  -37.8547   61.4684   33.8668 C   0  0  0  0  0  0
  -42.3889   62.6690   35.7698 C   0  0  0  0  0  0
  -36.5003   61.2980   31.9556 O   0  0  0  0  0  0
  -42.4360   61.7011   34.7546 C   0  0  0  0  0  0
  -43.4151   62.7232   36.7179 C   0  0  0  0  0  0
  -36.3559   61.5006   30.5573 C   0  0  0  0  0  0
  -44.4891   61.8404   36.6434 C   0  0  0  0  0  0
  -43.5132   60.8210   34.6773 C   0  0  0  0  0  0
  -44.5352   60.8977   35.6198 C   0  0  0  0  0  0
  -40.3640   65.4989   30.6753 H   0  0  0  0  0  0
  -40.3749   66.8563   31.7492 H   0  0  0  0  0  0
  -40.5268   63.3003   36.6347 H   0  0  0  0  0  0
  -41.6120   64.6119   36.2975 H   0  0  0  0  0  0
  -39.1509   61.5884   35.5807 H   0  0  0  0  0  0
  -37.8128   63.5522   31.1879 H   0  0  0  0  0  0
  -37.0443   66.0997   29.6327 H   0  0  0  0  0  0
  -38.5821   65.3408   29.3128 H   0  0  0  0  0  0
  -37.3637   60.5753   34.2254 H   0  0  0  0  0  0
  -41.6564   61.6275   34.0105 H   0  0  0  0  0  0
  -43.3876   63.4533   37.5158 H   0  0  0  0  0  0
  -35.6142   60.8041   30.1721 H   0  0  0  0  0  0
  -36.0154   62.5111   30.3256 H   0  0  0  0  0  0
  -37.2900   61.2978   30.0310 H   0  0  0  0  0  0
  -45.2817   61.8884   37.3769 H   0  0  0  0  0  0
  -43.5604   60.0858   33.8856 H   0  0  0  0  0  0
  -45.3737   60.2187   35.5576 H   0  0  0  0  0  0
  1  2  1  0  0  0
  1  5  1  0  0  0
  1  7  1  0  0  0
  2  3  2  0  0  0
  2 11  1  0  0  0
  3  6  1  0  0  0
  3  4  1  0  0  0
  4  5  1  0  0  0
  4 10  2  0  0  0
  5  8  2  0  0  0
  6  9  1  0  0  0
  6 24  1  0  0  0
  6 25  1  0  0  0
  7 16  1  0  0  0
  7 26  1  0  0  0
  7 27  1  0  0  0
  8 15  1  0  0  0
  8 28  1  0  0  0
  9 12  2  0  0  0
  9 14  1  0  0  0
 10 13  1  0  0  0
 10 29  1  0  0  0
 13 15  2  0  0  0
 13 17  1  0  0  0
 14 30  1  0  0  0
 14 31  1  0  0  0
 15 32  1  0  0  0
 16 18  2  0  0  0
 16 19  1  0  0  0
 17 20  1  0  0  0
 18 22  1  0  0  0
 18 33  1  0  0  0
 19 21  2  0  0  0
 19 34  1  0  0  0
 20 35  1  0  0  0
 20 36  1  0  0  0
 20 37  1  0  0  0
 21 23  1  0  0  0
 21 38  1  0  0  0
 22 23  2  0  0  0
 22 39  1  0  0  0
 23 40  1  0  0  0
M  END
> <s_m_entry_id>
68222

> <s_m_entry_name>
dock_pv.158

> <s_m_Source_Path>
/home/csk/Desktop/cluster/DUD-E-result/pa2ga

> <s_m_Source_File>
dock_pv.maegz

> <i_m_Source_File_Index>
158

> <chembl_id>
CHEMBL150166

> <chembl_pref_name>
None

> <i_lp_mmshare_version>
53161

> <i_f3d_flags>
0

> <r_lp_tautomer_probability>
1

> <s_lp_Force_Field>
OPLS_2005

> <r_lp_Energy>
11.274011

> <b_lp_Chiralities_Consistent>
1

> <s_lp_Variant>
CHEMBL3474_lig183-1

> <s_i_glide_gridfile>
glide-grid_1kvo

> <i_i_glide_lignum>
245

> <i_i_glide_rotatable_bonds>
5

> <r_i_docking_score>
-7.31501825752904

> <r_i_glide_ligand_efficiency>
-0.31804427206648

> <r_i_glide_ligand_efficiency_sa>
-0.904475602515464

> <r_i_glide_ligand_efficiency_ln>
-1.76883774358889

> <r_i_glide_gscore>
-7.31501825752904

> <r_i_glide_lipo>
-3.34579185817598

> <r_i_glide_hbond>
-0.215292146527819

> <r_i_glide_metal>
0

> <r_i_glide_rewards>
-1.2995511976749

> <r_i_glide_evdw>
-37.3250160217285

> <r_i_glide_ecoul>
-6.6409854888916

> <r_i_glide_erotb>
0.52133670511047

> <r_i_glide_esite>
-0.113321135840656

> <r_i_glide_emodel>
-65.6244656147491

> <r_i_glide_energy>
-43.9660015106201

> <r_i_glide_einternal>
2.79338431358337

> <i_i_glide_confnum>
7

> <i_i_glide_posenum>
51

> <r_i_glide_eff_state_penalty>
0

> <s_user_duplicate_titles>
CHEMBL3474_lig183,247342

> <s_m_subgroup_title>
dock_pv

> <s_m_subgroupid>
dock_pv

> <b_m_subgroup_collapsed>
1

$$$$
CHEMBL3474_lig113
                    3D
 Schrodinger Suite 2021-1.
 48 50  0  0  1  0            999 V2000
  -38.6878   62.9957   33.1318 C   0  0  0  0  0  0
  -40.1195   62.7961   34.8666 N   0  0  0  0  0  0
  -39.4923   64.2098   33.1959 C   0  0  0  0  0  0
  -39.1936   62.1167   34.0943 C   0  0  0  0  0  0
  -40.3457   64.0547   34.3350 C   0  0  0  0  0  0
  -37.5511   62.7013   32.2434 C   0  0  0  0  0  0
  -39.6240   65.4039   32.4297 C   0  0  0  0  0  0
  -36.6004   63.8902   31.8192 C   0  0  0  0  0  0
  -38.8989   65.4771   31.2510 O   0  0  0  0  0  0
  -38.2778   67.8349   30.8201 C   0  0  0  0  0  0
  -40.8168   62.2594   36.0448 C   0  0  0  0  0  0
  -39.0336   66.5759   30.3354 C   0  0  1  0  0  0
  -37.2023   61.5551   31.9511 O   0  0  0  0  0  0
  -36.4145   64.8855   32.5189 O   0  0  0  0  0  0
  -37.2166   67.8103   31.4433 O   0  0  0  0  0  0
  -36.0150   63.6971   30.6432 N   0  0  0  0  0  0
  -38.8311   60.6757   34.4382 C   0  0  0  0  0  0
  -41.2287   65.0580   34.7586 C   0  0  0  0  0  0
  -38.9133   68.9809   30.4396 O   0  0  0  0  0  0
  -42.2470   61.7903   35.8046 C   0  0  0  0  0  0
  -40.5081   66.3973   32.8689 C   0  0  0  0  0  0
  -41.2775   66.2279   34.0106 C   0  0  0  0  0  0
  -38.4512   66.0989   28.9934 C   0  0  0  0  0  0
  -42.5916   61.0921   34.6410 C   0  0  0  0  0  0
  -43.2121   62.0271   36.7887 C   0  0  0  0  0  0
  -44.5182   61.5842   36.6063 C   0  0  0  0  0  0
  -43.8967   60.6457   34.4614 C   0  0  0  0  0  0
  -44.8527   60.8970   35.4431 C   0  0  0  0  0  0
  -40.8101   63.0438   36.8036 H   0  0  0  0  0  0
  -40.2531   61.4338   36.4763 H   0  0  0  0  0  0
  -40.0889   66.8020   30.1717 H   0  0  0  0  0  0
  -35.4470   64.4423   30.2430 H   0  0  0  0  0  0
  -36.2505   62.8848   30.0922 H   0  0  0  0  0  0
  -38.1041   60.2245   33.7683 H   0  0  0  0  0  0
  -38.4114   60.5991   35.4386 H   0  0  0  0  0  0
  -39.7034   60.0254   34.4126 H   0  0  0  0  0  0
  -41.8625   64.9326   35.6246 H   0  0  0  0  0  0
  -39.6648   68.8221   29.8683 H   0  0  0  0  0  0
  -40.6272   67.3174   32.3198 H   0  0  0  0  0  0
  -41.9524   67.0163   34.3124 H   0  0  0  0  0  0
  -38.4147   66.8925   28.2472 H   0  0  0  0  0  0
  -37.4408   65.7021   29.1006 H   0  0  0  0  0  0
  -39.0675   65.3021   28.5777 H   0  0  0  0  0  0
  -41.8580   60.8912   33.8743 H   0  0  0  0  0  0
  -42.9547   62.5523   37.6973 H   0  0  0  0  0  0
  -45.2654   61.7686   37.3652 H   0  0  0  0  0  0
  -44.1715   60.1083   33.5645 H   0  0  0  0  0  0
  -45.8662   60.5512   35.2985 H   0  0  0  0  0  0
  1  3  1  0  0  0
  1  4  2  0  0  0
  1  6  1  0  0  0
  2  4  1  0  0  0
  2 11  1  0  0  0
  2  5  1  0  0  0
  3  5  1  0  0  0
  3  7  2  0  0  0
  4 17  1  0  0  0
  5 18  2  0  0  0
  6  8  1  0  0  0
  6 13  2  0  0  0
  7  9  1  0  0  0
  7 21  1  0  0  0
  8 14  2  0  0  0
  8 16  1  0  0  0
  9 12  1  0  0  0
 10 12  1  0  0  0
 10 15  2  0  0  0
 10 19  1  0  0  0
 11 20  1  0  0  0
 11 29  1  0  0  0
 11 30  1  0  0  0
 12 23  1  0  0  0
 12 31  1  0  0  0
 16 32  1  0  0  0
 16 33  1  0  0  0
 17 34  1  0  0  0
 17 35  1  0  0  0
 17 36  1  0  0  0
 18 22  1  0  0  0
 18 37  1  0  0  0
 19 38  1  0  0  0
 20 24  2  0  0  0
 20 25  1  0  0  0
 21 22  2  0  0  0
 21 39  1  0  0  0
 22 40  1  0  0  0
 23 41  1  0  0  0
 23 42  1  0  0  0
 23 43  1  0  0  0
 24 27  1  0  0  0
 24 44  1  0  0  0
 25 26  2  0  0  0
 25 45  1  0  0  0
 26 28  1  0  0  0
 26 46  1  0  0  0
 27 28  2  0  0  0
 27 47  1  0  0  0
 28 48  1  0  0  0
M  END
> <s_m_entry_id>
68223

> <s_m_entry_name>
dock_pv.159

> <s_m_Source_Path>
/home/csk/Desktop/cluster/DUD-E-result/pa2ga

> <s_m_Source_File>
dock_pv.maegz

> <i_m_Source_File_Index>
159

> <chembl_id>
CHEMBL359005

> <chembl_pref_name>
None

> <i_lp_mmshare_version>
53161

> <i_f3d_flags>
0

> <r_lp_tautomer_probability>
1

> <s_lp_Force_Field>
OPLS_2005

> <r_lp_Energy>
26.295442

> <b_lp_Chiralities_Consistent>
1

> <s_lp_Variant>
CHEMBL3474_lig113-1

> <s_i_glide_gridfile>
glide-grid_1kvo

> <i_i_glide_lignum>
172

> <i_i_glide_rotatable_bonds>
8

> <r_i_docking_score>
-7.30657817342784

> <r_i_glide_ligand_efficiency>
-0.260949220479566

> <r_i_glide_ligand_efficiency_sa>
-0.792395524247658

> <r_i_glide_ligand_efficiency_ln>
-1.68657277288425

> <r_i_glide_gscore>
-7.30657817342784

> <r_i_glide_lipo>
-2.94731848073373

> <r_i_glide_hbond>
-0.415282204744767

> <r_i_glide_metal>
0

> <r_i_glide_rewards>
-1.18163545592255

> <r_i_glide_evdw>
-42.5653114318848

> <r_i_glide_ecoul>
-8.44928455352783

> <r_i_glide_erotb>
0.804426384495576

> <r_i_glide_esite>
-0.17111016189895

> <r_i_glide_emodel>
-75.8418187371943

> <r_i_glide_energy>
-51.0145959854126

> <r_i_glide_einternal>
5.59489154815674

> <i_i_glide_confnum>
113

> <i_i_glide_posenum>
302

> <r_i_glide_eff_state_penalty>
0

> <s_user_duplicate_titles>
CHEMBL3474_lig113,CHEMBL3474_lig126,247753,247722

> <s_m_subgroup_title>
dock_pv

> <s_m_subgroupid>
dock_pv

> <b_m_subgroup_collapsed>
1

$$$$
CHEMBL3474_lig147
                    3D
 Schrodinger Suite 2021-1.
 46 48  0  0  1  0            999 V2000
  -40.4585   63.8339   34.7908 N   0  0  0  0  0  0
  -40.7740   64.9070   33.9744 C   0  0  0  0  0  0
  -39.9876   64.8628   32.8251 C   0  0  0  0  0  0
  -39.1392   63.7090   32.9606 C   0  0  0  0  0  0
  -39.4514   63.0889   34.2041 C   0  0  0  0  0  0
  -40.0351   65.8019   31.6245 C   0  0  0  0  0  0
  -41.1388   63.4801   36.0439 C   0  0  0  0  0  0
  -38.7967   61.9315   34.6426 C   0  0  0  0  0  0
  -39.2380   67.0978   31.8218 C   0  0  0  0  0  0
  -38.1530   63.1250   32.1452 C   0  0  0  0  0  0
  -42.0128   66.0973   34.3816 S   0  0  0  0  0  0
  -39.7339   68.0250   32.4680 O   0  0  0  0  0  0
  -38.0170   67.1577   31.2558 N   0  0  0  0  0  0
  -37.4968   61.9638   32.5783 C   0  0  0  0  0  0
  -37.8112   61.4068   33.8127 C   0  0  0  0  0  0
  -37.2157   68.2955   31.4429 N   0  0  0  0  0  0
  -42.3419   62.5439   35.9097 C   0  0  0  0  0  0
  -36.5312   61.3000   31.8558 O   0  0  0  0  0  0
  -40.9825   67.1470   35.4443 C   0  0  0  0  0  0
  -42.4939   61.6739   34.8201 C   0  0  0  0  0  0
  -43.3093   62.5601   36.9190 C   0  0  0  0  0  0
  -36.4057   61.5457   30.4623 C   0  0  0  0  0  0
  -43.6161   60.8546   34.7305 C   0  0  0  0  0  0
  -44.4298   61.7395   36.8310 C   0  0  0  0  0  0
  -44.5814   60.8969   35.7335 C   0  0  0  0  0  0
  -39.7059   65.2972   30.7144 H   0  0  0  0  0  0
  -41.0661   66.0889   31.4127 H   0  0  0  0  0  0
  -40.4152   63.0224   36.7169 H   0  0  0  0  0  0
  -41.4513   64.4009   36.5357 H   0  0  0  0  0  0
  -39.0355   61.4507   35.5800 H   0  0  0  0  0  0
  -37.9213   63.5658   31.1876 H   0  0  0  0  0  0
  -37.5555   66.3674   30.8208 H   0  0  0  0  0  0
  -37.2875   60.5150   34.1264 H   0  0  0  0  0  0
  -37.3166   68.8647   30.6092 H   0  0  0  0  0  0
  -37.6662   68.8253   32.1812 H   0  0  0  0  0  0
  -41.4764   68.1041   35.6087 H   0  0  0  0  0  0
  -40.8189   66.6766   36.4131 H   0  0  0  0  0  0
  -40.0144   67.3397   34.9865 H   0  0  0  0  0  0
  -41.7581   61.6302   34.0311 H   0  0  0  0  0  0
  -43.2012   63.2161   37.7708 H   0  0  0  0  0  0
  -35.6207   60.9028   30.0609 H   0  0  0  0  0  0
  -36.1266   62.5772   30.2433 H   0  0  0  0  0  0
  -37.3289   61.2982   29.9376 H   0  0  0  0  0  0
  -43.7423   60.1933   33.8850 H   0  0  0  0  0  0
  -45.1811   61.7603   37.6077 H   0  0  0  0  0  0
  -45.4562   60.2674   35.6607 H   0  0  0  0  0  0
  1  2  1  0  0  0
  1  5  1  0  0  0
  1  7  1  0  0  0
  2  3  2  0  0  0
  2 11  1  0  0  0
  3  6  1  0  0  0
  3  4  1  0  0  0
  4  5  1  0  0  0
  4 10  2  0  0  0
  5  8  2  0  0  0
  6  9  1  0  0  0
  6 26  1  0  0  0
  6 27  1  0  0  0
  7 17  1  0  0  0
  7 28  1  0  0  0
  7 29  1  0  0  0
  8 15  1  0  0  0
  8 30  1  0  0  0
  9 12  2  0  0  0
  9 13  1  0  0  0
 10 14  1  0  0  0
 10 31  1  0  0  0
 11 19  1  0  0  0
 13 16  1  0  0  0
 13 32  1  0  0  0
 14 15  2  0  0  0
 14 18  1  0  0  0
 15 33  1  0  0  0
 16 34  1  0  0  0
 16 35  1  0  0  0
 17 20  1  0  0  0
 17 21  2  0  0  0
 18 22  1  0  0  0
 19 36  1  0  0  0
 19 37  1  0  0  0
 19 38  1  0  0  0
 20 23  2  0  0  0
 20 39  1  0  0  0
 21 24  1  0  0  0
 21 40  1  0  0  0
 22 41  1  0  0  0
 22 42  1  0  0  0
 22 43  1  0  0  0
 23 25  1  0  0  0
 23 44  1  0  0  0
 24 25  2  0  0  0
 24 45  1  0  0  0
 25 46  1  0  0  0
M  END
> <s_m_entry_id>
68225

> <s_m_entry_name>
dock_pv.161

> <s_m_Source_Path>
/home/csk/Desktop/cluster/DUD-E-result/pa2ga

> <s_m_Source_File>
dock_pv.maegz

> <i_m_Source_File_Index>
161

> <chembl_id>
CHEMBL356032

> <chembl_pref_name>
None

> <i_lp_mmshare_version>
53161

> <i_f3d_flags>
0

> <r_lp_tautomer_probability>
1

> <s_lp_Force_Field>
OPLS_2005

> <r_lp_Energy>
14.981114

> <b_lp_Chiralities_Consistent>
1

> <s_lp_Variant>
CHEMBL3474_lig147-1

> <s_i_glide_gridfile>
glide-grid_1kvo

> <i_i_glide_lignum>
208

> <i_i_glide_rotatable_bonds>
7

> <r_i_docking_score>
-7.27519108623938

> <r_i_glide_ligand_efficiency>
-0.291007643449575

> <r_i_glide_ligand_efficiency_sa>
-0.850911510489091

> <r_i_glide_ligand_efficiency_ln>
-1.72443830732246

> <r_i_glide_gscore>
-7.27519108623938

> <r_i_glide_lipo>
-3.54736830275127

> <r_i_glide_hbond>
0

> <r_i_glide_metal>
0

> <r_i_glide_rewards>
-1.27920880217771

> <r_i_glide_evdw>
-42.7020568847656

> <r_i_glide_ecoul>
-5.57607221603394

> <r_i_glide_erotb>
0.605335445005568

> <r_i_glide_esite>
-0.0824357496726014

> <r_i_glide_emodel>
-70.9663484491097

> <r_i_glide_energy>
-48.2781291007996

> <r_i_glide_einternal>
1.97279286384583

> <i_i_glide_confnum>
2

> <i_i_glide_posenum>
148

> <r_i_glide_eff_state_penalty>
0

> <s_user_duplicate_titles>
CHEMBL3474_lig147,246595

> <s_m_subgroup_title>
dock_pv

> <s_m_subgroupid>
dock_pv

> <b_m_subgroup_collapsed>
1

$$$$
CHEMBL3474_lig146
                    3D
 Schrodinger Suite 2021-1.
 46 48  0  0  1  0            999 V2000
  -40.2302   65.4503   32.0318 N   0  0  0  0  0  0
  -39.8020   67.6376   31.5874 C   0  0  0  0  0  0
  -39.6722   66.3280   31.1070 C   0  0  0  0  0  0
  -40.4283   67.5327   32.8762 C   0  0  0  0  0  0
  -40.7155   66.1617   33.1146 C   0  0  0  0  0  0
  -39.3617   68.9594   30.9479 C   0  0  0  0  0  0
  -40.3134   63.9851   31.9073 C   0  0  0  0  0  0
  -41.3931   65.7370   34.2651 C   0  0  0  0  0  0
  -37.8631   69.2245   31.1241 C   0  0  0  0  0  0
  -40.8153   68.4766   33.8435 C   0  0  0  0  0  0
  -37.1996   68.4980   31.8429 O   0  0  0  0  0  0
  -41.5566   68.0766   34.9559 C   0  0  0  0  0  0
  -37.2849   70.2342   30.4811 N   0  0  0  0  0  0
  -41.8167   66.7172   35.1595 C   0  0  0  0  0  0
  -39.0870   65.7563   29.8151 C   0  0  0  0  0  0
  -39.2357   63.1813   32.6375 C   0  0  0  0  0  0
  -42.0144   69.0861   35.7808 O   0  0  0  0  0  0
  -38.0201   62.8878   32.0066 C   0  0  0  0  0  0
  -39.5043   62.6383   33.8970 C   0  0  0  0  0  0
  -42.7281   68.7499   36.9662 C   0  0  0  0  0  0
  -38.2314   66.6696   28.9278 C   0  0  0  0  0  0
  -38.5841   61.7868   34.5004 C   0  0  0  0  0  0
  -37.1000   62.0355   32.6073 C   0  0  0  0  0  0
  -37.3965   61.4778   33.8453 C   0  0  0  0  0  0
  -39.6167   69.0000   29.8905 H   0  0  0  0  0  0
  -39.8855   69.8010   31.4008 H   0  0  0  0  0  0
  -41.2951   63.6742   32.2676 H   0  0  0  0  0  0
  -40.3339   63.7030   30.8569 H   0  0  0  0  0  0
  -41.6267   64.7000   34.4454 H   0  0  0  0  0  0
  -40.6140   69.5261   33.6957 H   0  0  0  0  0  0
  -36.2706   70.3715   30.5778 H   0  0  0  0  0  0
  -37.8117   70.8270   29.8588 H   0  0  0  0  0  0
  -42.3738   66.3916   36.0251 H   0  0  0  0  0  0
  -38.4271   64.9399   30.0728 H   0  0  0  0  0  0
  -39.8774   65.3088   29.2117 H   0  0  0  0  0  0
  -37.7913   63.2510   31.0221 H   0  0  0  0  0  0
  -40.4423   62.8282   34.3941 H   0  0  0  0  0  0
  -42.9677   69.6637   37.5094 H   0  0  0  0  0  0
  -42.1339   68.1173   37.6286 H   0  0  0  0  0  0
  -43.6683   68.2476   36.7395 H   0  0  0  0  0  0
  -37.8688   66.0986   28.0710 H   0  0  0  0  0  0
  -38.7797   67.5204   28.5367 H   0  0  0  0  0  0
  -37.3540   67.0408   29.4528 H   0  0  0  0  0  0
  -38.7985   61.3524   35.4629 H   0  0  0  0  0  0
  -36.1765   61.7882   32.1034 H   0  0  0  0  0  0
  -36.7006   60.7943   34.3071 H   0  0  0  0  0  0
  1  3  1  0  0  0
  1  5  1  0  0  0
  1  7  1  0  0  0
  2  3  2  0  0  0
  2  6  1  0  0  0
  2  4  1  0  0  0
  3 15  1  0  0  0
  4  5  1  0  0  0
  4 10  2  0  0  0
  5  8  2  0  0  0
  6  9  1  0  0  0
  6 25  1  0  0  0
  6 26  1  0  0  0
  7 16  1  0  0  0
  7 27  1  0  0  0
  7 28  1  0  0  0
  8 14  1  0  0  0
  8 29  1  0  0  0
  9 11  2  0  0  0
  9 13  1  0  0  0
 10 12  1  0  0  0
 10 30  1  0  0  0
 12 14  2  0  0  0
 12 17  1  0  0  0
 13 31  1  0  0  0
 13 32  1  0  0  0
 14 33  1  0  0  0
 15 21  1  0  0  0
 15 34  1  0  0  0
 15 35  1  0  0  0
 16 18  2  0  0  0
 16 19  1  0  0  0
 17 20  1  0  0  0
 18 23  1  0  0  0
 18 36  1  0  0  0
 19 22  2  0  0  0
 19 37  1  0  0  0
 20 38  1  0  0  0
 20 39  1  0  0  0
 20 40  1  0  0  0
 21 41  1  0  0  0
 21 42  1  0  0  0
 21 43  1  0  0  0
 22 24  1  0  0  0
 22 44  1  0  0  0
 23 24  2  0  0  0
 23 45  1  0  0  0
 24 46  1  0  0  0
M  END
> <s_m_entry_id>
68226

> <s_m_entry_name>
dock_pv.162

> <s_m_Source_Path>
/home/csk/Desktop/cluster/DUD-E-result/pa2ga

> <s_m_Source_File>
dock_pv.maegz

> <i_m_Source_File_Index>
162

> <chembl_id>
CHEMBL358458

> <chembl_pref_name>
None

> <i_lp_mmshare_version>
53161

> <i_f3d_flags>
0

> <r_lp_tautomer_probability>
1

> <s_lp_Force_Field>
OPLS_2005

> <r_lp_Energy>
12.328208

> <b_lp_Chiralities_Consistent>
1

> <s_lp_Variant>
CHEMBL3474_lig146-1

> <s_i_glide_gridfile>
glide-grid_1kvo

> <i_i_glide_lignum>
207

> <i_i_glide_rotatable_bonds>
6

> <r_i_docking_score>
-7.26817068299155

> <r_i_glide_ligand_efficiency>
-0.302840445124648

> <r_i_glide_ligand_efficiency_sa>
-0.873543002780066

> <r_i_glide_ligand_efficiency_ln>
-1.73960675906042

> <r_i_glide_gscore>
-7.26817068299155

> <r_i_glide_lipo>
-2.81907307217481

> <r_i_glide_hbond>
-0.32

> <r_i_glide_metal>
0

> <r_i_glide_rewards>
-1.40317529430771

> <r_i_glide_evdw>
-34.0451774597168

> <r_i_glide_ecoul>
-9.76360702514648

> <r_i_glide_erotb>
0.53971725916846

> <r_i_glide_esite>
-0.0988396489196754

> <r_i_glide_emodel>
-62.0132059849719

> <r_i_glide_energy>
-43.8087844848633

> <r_i_glide_einternal>
9.23637580871582

> <i_i_glide_confnum>
2

> <i_i_glide_posenum>
167

> <r_i_glide_eff_state_penalty>
0

> <s_user_duplicate_titles>
CHEMBL3474_lig146,247150

> <s_m_subgroup_title>
dock_pv

> <s_m_subgroupid>
dock_pv

> <b_m_subgroup_collapsed>
1

$$$$
CHEMBL3474_lig137
                    3D
 Schrodinger Suite 2021-1.
 61 64  0  0  1  0            999 V2000
  -39.1888   64.4564   33.1727 C   0  0  0  0  0  0
  -40.9283   64.6913   34.6194 N   0  0  0  0  0  0
  -40.0103   63.7857   34.1085 C   0  0  0  0  0  0
  -39.6711   65.8385   33.1266 C   0  0  0  0  0  0
  -40.6499   65.9600   34.1601 C   0  0  0  0  0  0
  -38.0537   63.9239   32.3657 C   0  0  0  0  0  0
  -42.0448   64.3862   35.5259 C   0  0  0  0  0  0
  -37.4738   62.4699   32.5735 C   0  0  0  0  0  0
  -41.7267   64.2586   37.0221 C   0  0  0  0  0  0
  -39.4040   67.0097   32.3613 C   0  0  0  0  0  0
  -42.5100   63.4278   37.8534 C   0  0  0  0  0  0
  -37.4138   68.9464   30.7501 C   0  0  0  0  0  0
  -37.4359   64.6018   31.5496 O   0  0  0  0  0  0
  -38.5955   66.8681   31.2522 O   0  0  0  0  0  0
  -37.0389   62.0828   33.6523 O   0  0  0  0  0  0
  -36.8114   68.9005   31.8249 O   0  0  0  0  0  0
  -43.6667   62.6595   37.3276 C   0  0  0  0  0  0
  -37.4070   61.7690   31.4405 N   0  0  0  0  0  0
  -38.4542   67.9177   30.2907 C   0  0  0  0  0  0
  -40.0607   62.3365   34.6055 C   0  0  0  0  0  0
  -41.2125   67.1864   34.5415 C   0  0  0  0  0  0
  -37.2147   69.9002   29.8021 O   0  0  0  0  0  0
  -40.6883   65.0103   37.5873 C   0  0  0  0  0  0
  -40.8146   68.3167   33.8436 C   0  0  0  0  0  0
  -42.2163   63.3560   39.2203 C   0  0  0  0  0  0
  -39.9731   68.2294   32.7496 C   0  0  0  0  0  0
  -43.4584   61.5235   36.5410 C   0  0  0  0  0  0
  -44.9731   63.0810   37.5954 C   0  0  0  0  0  0
  -40.8108   61.3985   33.6446 C   0  0  0  0  0  0
  -40.4155   64.9322   38.9511 C   0  0  0  0  0  0
  -41.1739   64.0979   39.7674 C   0  0  0  0  0  0
  -40.7397   59.9232   34.0680 C   0  0  0  0  0  0
  -44.5383   60.8507   35.9798 C   0  0  0  0  0  0
  -46.0578   62.3914   37.0584 C   0  0  0  0  0  0
  -45.8347   61.2829   36.2445 C   0  0  0  0  0  0
  -42.8089   65.1558   35.4154 H   0  0  0  0  0  0
  -42.5199   63.4923   35.1294 H   0  0  0  0  0  0
  -37.0117   60.8425   31.4524 H   0  0  0  0  0  0
  -37.6950   62.1869   30.5628 H   0  0  0  0  0  0
  -39.4102   68.3933   30.0674 H   0  0  0  0  0  0
  -38.1053   67.4575   29.3653 H   0  0  0  0  0  0
  -39.0720   61.9441   34.8101 H   0  0  0  0  0  0
  -40.5192   62.2649   35.5904 H   0  0  0  0  0  0
  -41.9261   67.2664   35.3490 H   0  0  0  0  0  0
  -36.4775   70.4685   30.0571 H   0  0  0  0  0  0
  -40.0863   65.6664   36.9766 H   0  0  0  0  0  0
  -41.2197   69.2785   34.1244 H   0  0  0  0  0  0
  -42.8053   62.7211   39.8667 H   0  0  0  0  0  0
  -39.7577   69.1405   32.2144 H   0  0  0  0  0  0
  -42.4540   61.1797   36.3461 H   0  0  0  0  0  0
  -45.1469   63.9517   38.2113 H   0  0  0  0  0  0
  -41.8559   61.7026   33.5666 H   0  0  0  0  0  0
  -40.3920   61.4963   32.6442 H   0  0  0  0  0  0
  -39.6088   65.5104   39.3767 H   0  0  0  0  0  0
  -40.9536   64.0272   40.8228 H   0  0  0  0  0  0
  -41.3212   59.2985   33.3901 H   0  0  0  0  0  0
  -39.7125   59.5571   34.0531 H   0  0  0  0  0  0
  -41.1306   59.7680   35.0735 H   0  0  0  0  0  0
  -44.3706   59.9910   35.3487 H   0  0  0  0  0  0
  -47.0659   62.7181   37.2666 H   0  0  0  0  0  0
  -46.6726   60.7501   35.8186 H   0  0  0  0  0  0
  1  3  2  0  0  0
  1  4  1  0  0  0
  1  6  1  0  0  0
  2  3  1  0  0  0
  2  7  1  0  0  0
  2  5  1  0  0  0
  3 20  1  0  0  0
  4  5  1  0  0  0
  4 10  2  0  0  0
  5 21  2  0  0  0
  6  8  1  0  0  0
  6 13  2  0  0  0
  7  9  1  0  0  0
  7 36  1  0  0  0
  7 37  1  0  0  0
  8 15  2  0  0  0
  8 18  1  0  0  0
  9 11  2  0  0  0
  9 23  1  0  0  0
 10 14  1  0  0  0
 10 26  1  0  0  0
 11 17  1  0  0  0
 11 25  1  0  0  0
 12 19  1  0  0  0
 12 16  2  0  0  0
 12 22  1  0  0  0
 14 19  1  0  0  0
 17 27  2  0  0  0
 17 28  1  0  0  0
 18 38  1  0  0  0
 18 39  1  0  0  0
 19 40  1  0  0  0
 19 41  1  0  0  0
 20 29  1  0  0  0
 20 42  1  0  0  0
 20 43  1  0  0  0
 21 24  1  0  0  0
 21 44  1  0  0  0
 22 45  1  0  0  0
 23 30  2  0  0  0
 23 46  1  0  0  0
 24 26  2  0  0  0
 24 47  1  0  0  0
 25 31  2  0  0  0
 25 48  1  0  0  0
 26 49  1  0  0  0
 27 33  1  0  0  0
 27 50  1  0  0  0
 28 34  2  0  0  0
 28 51  1  0  0  0
 29 32  1  0  0  0
 29 52  1  0  0  0
 29 53  1  0  0  0
 30 31  1  0  0  0
 30 54  1  0  0  0
 31 55  1  0  0  0
 32 56  1  0  0  0
 32 57  1  0  0  0
 32 58  1  0  0  0
 33 35  2  0  0  0
 33 59  1  0  0  0
 34 35  1  0  0  0
 34 60  1  0  0  0
 35 61  1  0  0  0
M  END
> <s_m_entry_id>
68227

> <s_m_entry_name>
dock_pv.163

> <s_m_Source_Path>
/home/csk/Desktop/cluster/DUD-E-result/pa2ga

> <s_m_Source_File>
dock_pv.maegz

> <i_m_Source_File_Index>
163

> <chembl_id>
CHEMBL149952

> <chembl_pref_name>
None

> <i_lp_mmshare_version>
53161

> <i_f3d_flags>
0

> <r_lp_tautomer_probability>
1

> <s_lp_Force_Field>
OPLS_2005

> <r_lp_Energy>
31.699844

> <b_lp_Chiralities_Consistent>
1

> <s_lp_Variant>
CHEMBL3474_lig137-1

> <s_i_glide_gridfile>
glide-grid_1kvo

> <i_i_glide_lignum>
198

> <i_i_glide_rotatable_bonds>
11

> <r_i_docking_score>
-7.2549365263783

> <r_i_glide_ligand_efficiency>
-0.207283900753666

> <r_i_glide_ligand_efficiency_sa>
-0.678039383596236

> <r_i_glide_ligand_efficiency_ln>
-1.592619582181

> <r_i_glide_gscore>
-7.2549365263783

> <r_i_glide_lipo>
-3.44054853519442

> <r_i_glide_hbond>
-0.191768902366026

> <r_i_glide_metal>
0

> <r_i_glide_rewards>
-0.486803123798232

> <r_i_glide_evdw>
-51.5698890686035

> <r_i_glide_ecoul>
-7.79309940338135

> <r_i_glide_erotb>
0.730151707842925

> <r_i_glide_esite>
-0.118508308925169

> <r_i_glide_emodel>
-78.8082415334714

> <r_i_glide_energy>
-59.3629884719849

> <r_i_glide_einternal>
12.9986019134521

> <i_i_glide_confnum>
188

> <i_i_glide_posenum>
367

> <r_i_glide_eff_state_penalty>
0

> <s_user_duplicate_titles>
CHEMBL3474_lig137,248483

> <s_m_subgroup_title>
dock_pv

> <s_m_subgroupid>
dock_pv

> <b_m_subgroup_collapsed>
1

$$$$
CHEMBL3474_lig163
                    3D
 Schrodinger Suite 2021-1.
 45 47  0  0  1  0            999 V2000
  -40.4274   63.9131   34.6558 N   0  0  0  0  0  0
  -39.9082   64.9009   32.6819 C   0  0  0  0  0  0
  -40.7494   64.9430   33.7906 C   0  0  0  0  0  0
  -39.0664   63.7508   32.8622 C   0  0  0  0  0  0
  -39.4148   63.1510   34.1053 C   0  0  0  0  0  0
  -41.1162   63.6227   35.9197 C   0  0  0  0  0  0
  -42.3167   62.6754   35.8069 C   0  0  0  0  0  0
  -39.8997   65.8457   31.4858 C   0  0  0  0  0  0
  -38.7829   61.9918   34.5701 C   0  0  0  0  0  0
  -39.1773   67.1710   31.7733 C   0  0  0  0  0  0
  -38.0563   63.1599   32.0861 C   0  0  0  0  0  0
  -43.4583   62.8500   36.6115 C   0  0  0  0  0  0
  -42.2832   61.5945   34.9126 C   0  0  0  0  0  0
  -39.6869   67.9951   32.5402 O   0  0  0  0  0  0
  -37.9900   67.3530   31.1607 N   0  0  0  0  0  0
  -44.5327   61.9634   36.5035 C   0  0  0  0  0  0
  -43.3528   60.7096   34.8152 C   0  0  0  0  0  0
  -37.4302   61.9924   32.5441 C   0  0  0  0  0  0
  -37.7831   61.4448   33.7718 C   0  0  0  0  0  0
  -41.8653   65.9155   34.1141 C   0  0  0  0  0  0
  -43.5871   64.1450   37.7524 Cl  0  0  0  0  0  0
  -37.2168   68.4953   31.4431 N   0  0  0  0  0  0
  -44.4808   60.8981   35.6096 C   0  0  0  0  0  0
  -43.2579   59.3792   33.7210 Cl  0  0  0  0  0  0
  -36.4665   61.3057   31.8466 O   0  0  0  0  0  0
  -36.3576   61.5153   30.4498 C   0  0  0  0  0  0
  -40.4046   63.1830   36.6145 H   0  0  0  0  0  0
  -41.3918   64.5764   36.3666 H   0  0  0  0  0  0
  -39.4599   65.3615   30.6106 H   0  0  0  0  0  0
  -40.9170   66.0887   31.1792 H   0  0  0  0  0  0
  -39.0640   61.5072   35.4895 H   0  0  0  0  0  0
  -37.7889   63.5971   31.1378 H   0  0  0  0  0  0
  -41.4226   61.4166   34.2843 H   0  0  0  0  0  0
  -37.5041   66.6190   30.6578 H   0  0  0  0  0  0
  -45.4085   62.1009   37.1207 H   0  0  0  0  0  0
  -37.2868   60.5437   34.0985 H   0  0  0  0  0  0
  -42.0148   66.6285   33.3059 H   0  0  0  0  0  0
  -42.8180   65.4109   34.2780 H   0  0  0  0  0  0
  -41.6438   66.4975   35.0106 H   0  0  0  0  0  0
  -37.3364   69.1315   30.6616 H   0  0  0  0  0  0
  -37.6703   68.9466   32.2283 H   0  0  0  0  0  0
  -45.3188   60.2249   35.5423 H   0  0  0  0  0  0
  -35.6151   60.8355   30.0405 H   0  0  0  0  0  0
  -36.0328   62.5375   30.2431 H   0  0  0  0  0  0
  -37.2977   61.2980   29.9384 H   0  0  0  0  0  0
  1  3  1  0  0  0
  1  5  1  0  0  0
  1  6  1  0  0  0
  2  3  2  0  0  0
  2  8  1  0  0  0
  2  4  1  0  0  0
  3 20  1  0  0  0
  4  5  1  0  0  0
  4 11  2  0  0  0
  5  9  2  0  0  0
  6  7  1  0  0  0
  6 27  1  0  0  0
  6 28  1  0  0  0
  7 12  2  0  0  0
  7 13  1  0  0  0
  8 10  1  0  0  0
  8 29  1  0  0  0
  8 30  1  0  0  0
  9 19  1  0  0  0
  9 31  1  0  0  0
 10 14  2  0  0  0
 10 15  1  0  0  0
 11 18  1  0  0  0
 11 32  1  0  0  0
 12 16  1  0  0  0
 12 21  1  0  0  0
 13 17  2  0  0  0
 13 33  1  0  0  0
 15 22  1  0  0  0
 15 34  1  0  0  0
 16 23  2  0  0  0
 16 35  1  0  0  0
 17 23  1  0  0  0
 17 24  1  0  0  0
 18 19  2  0  0  0
 18 25  1  0  0  0
 19 36  1  0  0  0
 20 37  1  0  0  0
 20 38  1  0  0  0
 20 39  1  0  0  0
 22 40  1  0  0  0
 22 41  1  0  0  0
 23 42  1  0  0  0
 25 26  1  0  0  0
 26 43  1  0  0  0
 26 44  1  0  0  0
 26 45  1  0  0  0
M  END
> <s_m_entry_id>
68228

> <s_m_entry_name>
dock_pv.164

> <s_m_Source_Path>
/home/csk/Desktop/cluster/DUD-E-result/pa2ga

> <s_m_Source_File>
dock_pv.maegz

> <i_m_Source_File_Index>
164

> <chembl_id>
CHEMBL356180

> <chembl_pref_name>
None

> <i_lp_mmshare_version>
53161

> <i_f3d_flags>
0

> <r_lp_tautomer_probability>
1

> <s_lp_Force_Field>
OPLS_2005

> <r_lp_Energy>
14.9492

> <b_lp_Chiralities_Consistent>
1

> <s_lp_Variant>
CHEMBL3474_lig163-1

> <s_i_glide_gridfile>
glide-grid_1kvo

> <i_i_glide_lignum>
224

> <i_i_glide_rotatable_bonds>
6

> <r_i_docking_score>
-7.2543767372938

> <r_i_glide_ligand_efficiency>
-0.279014489895916

> <r_i_glide_ligand_efficiency_sa>
-0.826579328447646

> <r_i_glide_ligand_efficiency_ln>
-1.70366657320187

> <r_i_glide_gscore>
-7.2543767372938

> <r_i_glide_lipo>
-3.69922437916848

> <r_i_glide_hbond>
0

> <r_i_glide_metal>
0

> <r_i_glide_rewards>
-1.00086646771708

> <r_i_glide_evdw>
-44.4624671936035

> <r_i_glide_ecoul>
-5.05439519882202

> <r_i_glide_erotb>
0.507482161166576

> <r_i_glide_esite>
-0.0804854120713494

> <r_i_glide_emodel>
-72.3664711567386

> <r_i_glide_energy>
-49.5168623924255

> <r_i_glide_einternal>
2.79336524009705

> <i_i_glide_confnum>
1

> <i_i_glide_posenum>
47

> <r_i_glide_eff_state_penalty>
0

> <s_user_duplicate_titles>
CHEMBL3474_lig163

> <s_m_subgroup_title>
dock_pv

> <s_m_subgroupid>
dock_pv

> <b_m_subgroup_collapsed>
1

$$$$
CHEMBL3474_lig293
                    3D
 Schrodinger Suite 2021-1.
 55 58  0  0  1  0            999 V2000
  -37.3321   62.0687   33.1769 C   0  0  0  0  0  0
  -37.4847   63.3564   32.6433 C   0  0  0  0  0  0
  -38.5697   64.1663   33.0501 C   0  0  0  0  0  0
  -39.4730   63.6227   33.9880 N   0  0  0  0  0  0
  -40.4831   64.5391   34.2181 C   0  0  0  0  0  0
  -40.2126   65.6957   33.4838 C   0  0  0  0  0  0
  -39.0474   65.4693   32.7464 C   0  0  0  0  0  0
  -38.5162   66.3202   31.6953 C   0  0  0  0  0  0
  -39.2052   66.0983   30.3051 C   0  0  0  0  0  0
  -41.7052   64.1693   35.0481 C   0  0  0  0  0  0
  -41.4917   64.0415   36.5599 C   0  0  0  0  0  0
  -40.8438   65.0775   37.2426 C   0  0  0  0  0  0
  -40.7010   65.0336   38.6273 C   0  0  0  0  0  0
  -41.2156   63.9568   39.3441 C   0  0  0  0  0  0
  -41.8573   62.9176   38.6740 C   0  0  0  0  0  0
  -41.9950   62.9368   37.2817 C   0  0  0  0  0  0
  -41.0809   66.9394   33.4413 C   0  0  0  0  0  0
  -40.4830   68.0944   34.2485 C   0  0  0  0  0  0
  -37.6150   67.1488   31.8429 O   0  0  0  0  0  0
  -38.4143   66.3689   29.2648 N   0  0  0  0  0  0
  -40.3700   65.7122   30.2434 O   0  0  0  0  0  0
  -36.6109   63.9498   31.7626 O   0  0  0  0  0  0
  -35.8642   63.0973   30.9092 C   0  0  0  0  0  0
  -39.2991   62.3661   34.5106 C   0  0  0  0  0  0
  -38.2305   61.5776   34.1115 C   0  0  0  0  0  0
  -42.6208   61.7902   36.5743 C   0  0  0  0  0  0
  -43.9403   61.8706   36.1189 C   0  0  0  0  0  0
  -44.4384   60.8928   35.2617 C   0  0  0  0  0  0
  -43.6148   59.8513   34.8471 C   0  0  0  0  0  0
  -42.3284   59.7228   35.3528 C   0  0  0  0  0  0
  -41.8440   60.6763   36.2392 C   0  0  0  0  0  0
  -36.5031   61.4378   32.8938 H   0  0  0  0  0  0
  -42.5016   64.9018   34.9250 H   0  0  0  0  0  0
  -42.1279   63.2637   34.6177 H   0  0  0  0  0  0
  -40.4602   65.9286   36.7007 H   0  0  0  0  0  0
  -40.1966   65.8352   39.1461 H   0  0  0  0  0  0
  -41.1095   63.9217   40.4190 H   0  0  0  0  0  0
  -42.2491   62.0973   39.2522 H   0  0  0  0  0  0
  -41.2156   67.2666   32.4110 H   0  0  0  0  0  0
  -42.0818   66.7352   33.8177 H   0  0  0  0  0  0
  -41.2067   68.9005   34.3768 H   0  0  0  0  0  0
  -40.1644   67.7634   35.2376 H   0  0  0  0  0  0
  -39.6157   68.5052   33.7384 H   0  0  0  0  0  0
  -38.7605   66.2168   28.3291 H   0  0  0  0  0  0
  -37.4416   66.6066   29.4149 H   0  0  0  0  0  0
  -35.2370   63.6978   30.2527 H   0  0  0  0  0  0
  -36.5165   62.4851   30.2861 H   0  0  0  0  0  0
  -35.2147   62.4337   31.4716 H   0  0  0  0  0  0
  -40.0182   62.0468   35.2384 H   0  0  0  0  0  0
  -38.0941   60.5902   34.5298 H   0  0  0  0  0  0
  -44.5577   62.7171   36.3842 H   0  0  0  0  0  0
  -45.4507   60.9413   34.8911 H   0  0  0  0  0  0
  -43.9781   59.1240   34.1366 H   0  0  0  0  0  0
  -41.7046   58.9002   35.0391 H   0  0  0  0  0  0
  -40.8367   60.5796   36.6175 H   0  0  0  0  0  0
  1 25  1  0  0  0
  1  2  2  0  0  0
  1 32  1  0  0  0
  2 22  1  0  0  0
  2  3  1  0  0  0
  3  7  2  0  0  0
  3  4  1  0  0  0
  4 24  1  0  0  0
  4  5  1  0  0  0
  5  6  2  0  0  0
  5 10  1  0  0  0
  6  7  1  0  0  0
  6 17  1  0  0  0
  7  8  1  0  0  0
  8 19  2  0  0  0
  8  9  1  0  0  0
  9 20  1  0  0  0
  9 21  2  0  0  0
 10 11  1  0  0  0
 10 33  1  0  0  0
 10 34  1  0  0  0
 11 16  1  0  0  0
 11 12  2  0  0  0
 12 13  1  0  0  0
 12 35  1  0  0  0
 13 14  2  0  0  0
 13 36  1  0  0  0
 14 15  1  0  0  0
 14 37  1  0  0  0
 15 16  2  0  0  0
 15 38  1  0  0  0
 16 26  1  0  0  0
 17 18  1  0  0  0
 17 39  1  0  0  0
 17 40  1  0  0  0
 18 41  1  0  0  0
 18 42  1  0  0  0
 18 43  1  0  0  0
 20 44  1  0  0  0
 20 45  1  0  0  0
 22 23  1  0  0  0
 23 46  1  0  0  0
 23 47  1  0  0  0
 23 48  1  0  0  0
 24 25  2  0  0  0
 24 49  1  0  0  0
 25 50  1  0  0  0
 26 27  2  0  0  0
 26 31  1  0  0  0
 27 28  1  0  0  0
 27 51  1  0  0  0
 28 29  2  0  0  0
 28 52  1  0  0  0
 29 30  1  0  0  0
 29 53  1  0  0  0
 30 31  2  0  0  0
 30 54  1  0  0  0
 31 55  1  0  0  0
M  END
> <s_m_entry_id>
68229

> <s_m_entry_name>
dock_pv.165

> <s_m_Source_Path>
/home/csk/Desktop/cluster/DUD-E-result/pa2ga

> <s_m_Source_File>
dock_pv.maegz

> <i_m_Source_File_Index>
165

> <chembl_id>
CHEMBL478821

> <chembl_pref_name>
None

> <i_lp_mmshare_version>
53161

> <i_f3d_flags>
0

> <r_lp_tautomer_probability>
1

> <s_lp_Force_Field>
OPLS_2005

> <r_lp_Energy>
30.491376

> <b_lp_Chiralities_Consistent>
1

> <s_lp_Variant>
CHEMBL3474_lig293-1

> <s_i_glide_gridfile>
glide-grid_1kvo

> <i_i_glide_lignum>
378

> <i_i_glide_rotatable_bonds>
7

> <r_i_docking_score>
-7.25427590601112

> <r_i_glide_ligand_efficiency>
-0.234008900193907

> <r_i_glide_ligand_efficiency_sa>
-0.735111030715074

> <r_i_glide_ligand_efficiency_ln>
-1.63606153366278

> <r_i_glide_gscore>
-7.25427590601112

> <r_i_glide_lipo>
-3.80649209325814

> <r_i_glide_hbond>
-0.0121875212097239

> <r_i_glide_metal>
0

> <r_i_glide_rewards>
-0.767613898221182

> <r_i_glide_evdw>
-48.6904525756836

> <r_i_glide_ecoul>
-4.05014944076538

> <r_i_glide_erotb>
0.463602292193429

> <r_i_glide_esite>
-0.0895396406165123

> <r_i_glide_emodel>
-73.9917485338462

> <r_i_glide_energy>
-52.740602016449

> <r_i_glide_einternal>
7.9677586555481

> <i_i_glide_confnum>
4

> <i_i_glide_posenum>
149

> <r_i_glide_eff_state_penalty>
0

> <s_user_duplicate_titles>
CHEMBL3474_lig293,490166

> <s_m_subgroup_title>
dock_pv

> <s_m_subgroupid>
dock_pv

> <b_m_subgroup_collapsed>
1

$$$$
CHEMBL3474_lig254
                    3D
 Schrodinger Suite 2021-1.
 80 82  0  0  1  0            999 V2000
  -40.0264   67.7561   32.9499 C   0  0  0  0  0  0
  -39.4513   66.4544   32.5820 N   0  0  0  0  0  0
  -40.5406   65.4653   32.4991 C   0  0  0  0  0  0
  -41.2392   65.3410   33.8700 C   0  0  0  0  0  0
  -41.8323   66.6299   34.2430 N   0  0  0  0  0  0
  -40.7918   67.6708   34.2972 C   0  0  0  0  0  0
  -42.6979   66.5585   35.4276 C   0  0  0  0  0  0
  -41.9688   66.5059   36.7652 C   0  0  0  0  0  0
  -41.9372   67.6446   37.5731 C   0  0  0  0  0  0
  -41.2149   67.6327   38.7606 C   0  0  0  0  0  0
  -40.4735   66.5005   39.1114 C   0  0  0  0  0  0
  -40.5411   65.3484   38.3252 C   0  0  0  0  0  0
  -41.2937   65.3489   37.1576 C   0  0  0  0  0  0
  -38.6896   66.5645   31.3323 C   0  0  0  0  0  0
  -38.0153   65.2417   30.9070 C   0  0  0  0  0  0
  -37.1538   64.5600   31.9907 C   0  0  0  0  0  0
  -36.5351   63.2311   31.5063 C   0  0  0  0  0  0
  -36.5357   62.1012   32.5477 C   0  0  0  0  0  0
  -37.9381   61.5439   32.8579 C   0  0  0  0  0  0
  -37.9067   60.3800   33.8602 C   0  0  0  0  0  0
  -39.3060   59.8738   34.2489 C   0  0  0  0  0  0
  -39.9976   60.7524   35.3111 C   0  0  0  0  0  0
  -41.4596   60.3637   35.5898 C   0  0  0  0  0  0
  -42.4155   60.7077   34.4274 C   0  0  0  0  0  0
  -43.8815   60.3197   34.6801 C   0  0  0  0  0  0
  -44.5818   61.1421   35.7782 C   0  0  0  0  0  0
  -46.0551   60.7533   35.9683 C   0  0  0  0  0  0
  -39.6249   66.4988   40.3741 C   0  0  0  0  0  0
  -38.3287   67.3000   40.2921 C   0  0  0  0  0  0
  -37.2854   66.8980   39.5508 N   0  0  0  0  0  0
  -36.2052   67.7097   39.8124 C   0  0  0  0  0  0
  -36.7041   68.6349   40.6200 O   0  0  0  0  0  0
  -38.0398   68.3590   40.9162 N   0  0  0  0  0  0
  -35.0340   67.6496   39.4428 O   0  0  0  0  0  0
  -39.2227   68.4891   33.0414 H   0  0  0  0  0  0
  -40.6948   68.1130   32.1644 H   0  0  0  0  0  0
  -41.2561   65.7378   31.7220 H   0  0  0  0  0  0
  -40.1490   64.4828   32.2359 H   0  0  0  0  0  0
  -42.0108   64.5712   33.8247 H   0  0  0  0  0  0
  -40.5061   65.0205   34.6098 H   0  0  0  0  0  0
  -41.2545   68.6344   34.5172 H   0  0  0  0  0  0
  -40.0856   67.4640   35.1031 H   0  0  0  0  0  0
  -43.3411   67.4393   35.4100 H   0  0  0  0  0  0
  -43.3597   65.6978   35.3617 H   0  0  0  0  0  0
  -42.4640   68.5424   37.2808 H   0  0  0  0  0  0
  -41.1887   68.5184   39.3799 H   0  0  0  0  0  0
  -40.0086   64.4534   38.6111 H   0  0  0  0  0  0
  -41.3363   64.4523   36.5571 H   0  0  0  0  0  0
  -37.9170   67.3231   31.4601 H   0  0  0  0  0  0
  -39.3433   66.9116   30.5294 H   0  0  0  0  0  0
  -37.3992   65.4345   30.0286 H   0  0  0  0  0  0
  -38.7745   64.5548   30.5315 H   0  0  0  0  0  0
  -37.7704   64.3890   32.8728 H   0  0  0  0  0  0
  -36.3636   65.2315   32.3206 H   0  0  0  0  0  0
  -35.5196   63.4158   31.1524 H   0  0  0  0  0  0
  -37.0775   62.8575   30.6430 H   0  0  0  0  0  0
  -36.0659   62.4380   33.4672 H   0  0  0  0  0  0
  -35.9088   61.2977   32.1675 H   0  0  0  0  0  0
  -38.4108   61.2047   31.9355 H   0  0  0  0  0  0
  -38.5738   62.3393   33.2442 H   0  0  0  0  0  0
  -37.3664   60.6896   34.7533 H   0  0  0  0  0  0
  -37.3318   59.5559   33.4424 H   0  0  0  0  0  0
  -39.2272   58.8599   34.6407 H   0  0  0  0  0  0
  -39.9127   59.7882   33.3478 H   0  0  0  0  0  0
  -39.9548   61.8041   35.0283 H   0  0  0  0  0  0
  -39.4352   60.6723   36.2427 H   0  0  0  0  0  0
  -41.7838   60.8847   36.4904 H   0  0  0  0  0  0
  -41.5204   59.2995   35.8216 H   0  0  0  0  0  0
  -42.0906   60.1923   33.5230 H   0  0  0  0  0  0
  -42.3547   61.7718   34.2000 H   0  0  0  0  0  0
  -43.9361   59.2587   34.9237 H   0  0  0  0  0  0
  -44.4181   60.4402   33.7408 H   0  0  0  0  0  0
  -44.5183   62.2044   35.5352 H   0  0  0  0  0  0
  -44.0644   61.0159   36.7297 H   0  0  0  0  0  0
  -46.5196   61.3577   36.7480 H   0  0  0  0  0  0
  -46.1557   59.7068   36.2608 H   0  0  0  0  0  0
  -46.6285   60.8982   35.0546 H   0  0  0  0  0  0
  -40.2388   66.8751   41.1944 H   0  0  0  0  0  0
  -39.3897   65.4678   40.6425 H   0  0  0  0  0  0
  -37.2197   66.0214   39.0431 H   0  0  0  0  0  0
  1  6  1  0  0  0
  1  2  1  0  0  0
  1 35  1  0  0  0
  1 36  1  0  0  0
  2  3  1  0  0  0
  2 14  1  0  0  0
  3  4  1  0  0  0
  3 37  1  0  0  0
  3 38  1  0  0  0
  4  5  1  0  0  0
  4 39  1  0  0  0
  4 40  1  0  0  0
  5  6  1  0  0  0
  5  7  1  0  0  0
  6 41  1  0  0  0
  6 42  1  0  0  0
  7  8  1  0  0  0
  7 43  1  0  0  0
  7 44  1  0  0  0
  8  9  2  0  0  0
  8 13  1  0  0  0
  9 10  1  0  0  0
  9 45  1  0  0  0
 10 11  2  0  0  0
 10 46  1  0  0  0
 11 12  1  0  0  0
 11 28  1  0  0  0
 12 13  2  0  0  0
 12 47  1  0  0  0
 13 48  1  0  0  0
 14 15  1  0  0  0
 14 49  1  0  0  0
 14 50  1  0  0  0
 15 16  1  0  0  0
 15 51  1  0  0  0
 15 52  1  0  0  0
 16 17  1  0  0  0
 16 53  1  0  0  0
 16 54  1  0  0  0
 17 18  1  0  0  0
 17 55  1  0  0  0
 17 56  1  0  0  0
 18 19  1  0  0  0
 18 57  1  0  0  0
 18 58  1  0  0  0
 19 20  1  0  0  0
 19 59  1  0  0  0
 19 60  1  0  0  0
 20 21  1  0  0  0
 20 61  1  0  0  0
 20 62  1  0  0  0
 21 22  1  0  0  0
 21 63  1  0  0  0
 21 64  1  0  0  0
 22 23  1  0  0  0
 22 65  1  0  0  0
 22 66  1  0  0  0
 23 24  1  0  0  0
 23 67  1  0  0  0
 23 68  1  0  0  0
 24 25  1  0  0  0
 24 69  1  0  0  0
 24 70  1  0  0  0
 25 26  1  0  0  0
 25 71  1  0  0  0
 25 72  1  0  0  0
 26 27  1  0  0  0
 26 73  1  0  0  0
 26 74  1  0  0  0
 27 75  1  0  0  0
 27 76  1  0  0  0
 27 77  1  0  0  0
 28 29  1  0  0  0
 28 78  1  0  0  0
 28 79  1  0  0  0
 29 30  1  0  0  0
 29 33  2  0  0  0
 30 31  1  0  0  0
 30 80  1  0  0  0
 31 32  1  0  0  0
 31 34  2  0  0  0
 32 33  1  0  0  0
M  END
> <s_m_entry_id>
68230

> <s_m_entry_name>
dock_pv.166

> <s_m_Source_Path>
/home/csk/Desktop/cluster/DUD-E-result/pa2ga

> <s_m_Source_File>
dock_pv.maegz

> <i_m_Source_File_Index>
166

> <chembl_id>
CHEMBL272432

> <chembl_pref_name>
None

> <i_lp_mmshare_version>
53161

> <i_f3d_flags>
0

> <r_lp_tautomer_probability>
0.999999645980111

> <s_lp_Force_Field>
OPLS_2005

> <r_lp_Energy>
50.228568

> <b_lp_Chiralities_Consistent>
1

> <s_lp_Variant>
CHEMBL3474_lig254-1

> <s_i_glide_gridfile>
glide-grid_1kvo

> <i_i_glide_lignum>
326

> <i_i_glide_rotatable_bonds>
17

> <r_i_docking_score>
-7.23215292115637

> <r_i_glide_ligand_efficiency>
-0.212710380034011

> <r_i_glide_ligand_efficiency_sa>
-0.689099056602396

> <r_i_glide_ligand_efficiency_ln>
-1.59778543530172

> <r_i_glide_gscore>
-7.23215292115637

> <r_i_glide_lipo>
-4.17467504656317

> <r_i_glide_hbond>
-0.32

> <r_i_glide_metal>
0

> <r_i_glide_rewards>
-1.04983790909091

> <r_i_glide_evdw>
-48.2159385681152

> <r_i_glide_ecoul>
-4.4920768737793

> <r_i_glide_erotb>
1.45931851281496

> <r_i_glide_esite>
-0.0623500188446005

> <r_i_glide_emodel>
-70.4191320092246

> <r_i_glide_energy>
-52.7080154418945

> <r_i_glide_einternal>
10.7999773025513

> <i_i_glide_confnum>
3

> <i_i_glide_posenum>
98

> <r_i_glide_eff_state_penalty>
0

> <s_user_duplicate_titles>
CHEMBL3474_lig254

> <s_m_subgroup_title>
dock_pv

> <s_m_subgroupid>
dock_pv

> <b_m_subgroup_collapsed>
1

$$$$
CHEMBL3474_lig23
                    3D
 Schrodinger Suite 2021-1.
 60 62  0  0  1  0            999 V2000
  -40.9247   63.1878   36.5122 N   0  0  0  0  0  0
  -41.4296   65.3089   37.1191 C   0  0  0  0  0  0
  -41.3671   63.9888   37.5600 C   0  0  0  0  0  0
  -40.9729   65.3161   35.7593 C   0  0  0  0  0  0
  -40.6371   63.9815   35.4144 C   0  0  0  0  0  0
  -37.6125   69.3100   30.8273 P   0  0  1  0  0  0
  -41.8811   66.5340   37.9051 C   0  0  0  0  0  0
  -40.8150   61.7224   36.4819 C   0  0  0  0  0  0
  -40.1260   63.6508   34.1541 C   0  0  0  0  0  0
  -43.2699   67.0414   37.4920 C   0  0  0  0  0  0
  -40.8153   66.3226   34.7933 C   0  0  0  0  0  0
  -36.8826   68.5004   31.8399 O   0  0  0  0  0  0
  -43.5282   67.3072   36.3213 O   0  0  0  0  0  0
  -37.2150   70.8741   30.8665 O   0  0  0  0  0  0
  -37.2743   68.8973   29.2849 O   0  0  0  0  0  0
  -40.3328   66.0069   33.5262 C   0  0  0  0  0  0
  -44.1798   67.2028   38.4504 N   0  0  0  0  0  0
  -39.9785   64.6830   33.2314 C   0  0  0  0  0  0
  -41.7017   63.4456   38.9466 C   0  0  0  0  0  0
  -39.4434   69.3396   30.8820 C   0  0  0  0  0  0
  -41.8106   61.0794   35.5274 C   0  0  0  0  0  0
  -40.0382   67.9986   30.4099 C   0  0  0  0  0  0
  -40.2436   67.0532   32.6304 O   0  0  0  0  0  0
  -39.7801   66.7872   31.3111 C   0  0  0  0  0  0
  -37.6066   69.7480   28.1986 C   0  0  0  0  0  0
  -43.1805   61.2816   35.7077 C   0  0  0  0  0  0
  -41.3498   60.3355   34.4371 C   0  0  0  0  0  0
  -43.2093   63.3031   39.1985 C   0  0  0  0  0  0
  -44.0834   60.7723   34.7845 C   0  0  0  0  0  0
  -42.2552   59.8425   33.5045 C   0  0  0  0  0  0
  -43.6149   60.0734   33.6773 C   0  0  0  0  0  0
  -41.8753   66.3282   38.9756 H   0  0  0  0  0  0
  -41.1786   67.3559   37.7686 H   0  0  0  0  0  0
  -40.9349   61.2980   37.4711 H   0  0  0  0  0  0
  -39.8006   61.4674   36.1710 H   0  0  0  0  0  0
  -39.8614   62.6389   33.8900 H   0  0  0  0  0  0
  -41.0831   67.3416   35.0231 H   0  0  0  0  0  0
  -36.2609   71.0021   30.6457 H   0  0  0  0  0  0
  -45.0977   67.5406   38.2013 H   0  0  0  0  0  0
  -43.9617   66.9893   39.4113 H   0  0  0  0  0  0
  -39.5882   64.4175   32.2610 H   0  0  0  0  0  0
  -41.2152   62.5010   39.1781 H   0  0  0  0  0  0
  -41.2989   64.1311   39.6944 H   0  0  0  0  0  0
  -39.7862   70.1490   30.2369 H   0  0  0  0  0  0
  -39.7708   69.5825   31.8927 H   0  0  0  0  0  0
  -39.6136   67.7588   29.4430 H   0  0  0  0  0  0
  -41.1112   68.0962   30.2458 H   0  0  0  0  0  0
  -38.7183   66.5350   31.3295 H   0  0  0  0  0  0
  -40.3092   65.9384   30.8735 H   0  0  0  0  0  0
  -37.2740   69.2979   27.2625 H   0  0  0  0  0  0
  -38.6834   69.9169   28.1307 H   0  0  0  0  0  0
  -37.1131   70.7184   28.2905 H   0  0  0  0  0  0
  -43.5458   61.8579   36.5419 H   0  0  0  0  0  0
  -40.2932   60.1686   34.2884 H   0  0  0  0  0  0
  -43.4020   63.0575   40.2439 H   0  0  0  0  0  0
  -43.7410   64.2292   38.9765 H   0  0  0  0  0  0
  -43.6478   62.5112   38.5961 H   0  0  0  0  0  0
  -45.1449   60.9265   34.9139 H   0  0  0  0  0  0
  -41.9026   59.2981   32.6419 H   0  0  0  0  0  0
  -44.3203   59.6978   32.9519 H   0  0  0  0  0  0
  1  3  1  0  0  0
  1  5  1  0  0  0
  1  8  1  0  0  0
  2  3  2  0  0  0
  2  7  1  0  0  0
  2  4  1  0  0  0
  3 19  1  0  0  0
  4  5  1  0  0  0
  4 11  2  0  0  0
  5  9  2  0  0  0
  6 20  1  0  0  0
  6 12  2  0  0  0
  6 14  1  0  0  0
  6 15  1  0  0  0
  7 10  1  0  0  0
  7 32  1  0  0  0
  7 33  1  0  0  0
  8 21  1  0  0  0
  8 34  1  0  0  0
  8 35  1  0  0  0
  9 18  1  0  0  0
  9 36  1  0  0  0
 10 13  2  0  0  0
 10 17  1  0  0  0
 11 16  1  0  0  0
 11 37  1  0  0  0
 14 38  1  0  0  0
 15 25  1  0  0  0
 16 18  2  0  0  0
 16 23  1  0  0  0
 17 39  1  0  0  0
 17 40  1  0  0  0
 18 41  1  0  0  0
 19 28  1  0  0  0
 19 42  1  0  0  0
 19 43  1  0  0  0
 20 22  1  0  0  0
 20 44  1  0  0  0
 20 45  1  0  0  0
 21 26  2  0  0  0
 21 27  1  0  0  0
 22 24  1  0  0  0
 22 46  1  0  0  0
 22 47  1  0  0  0
 23 24  1  0  0  0
 24 48  1  0  0  0
 24 49  1  0  0  0
 25 50  1  0  0  0
 25 51  1  0  0  0
 25 52  1  0  0  0
 26 29  1  0  0  0
 26 53  1  0  0  0
 27 30  2  0  0  0
 27 54  1  0  0  0
 28 55  1  0  0  0
 28 56  1  0  0  0
 28 57  1  0  0  0
 29 31  2  0  0  0
 29 58  1  0  0  0
 30 31  1  0  0  0
 30 59  1  0  0  0
 31 60  1  0  0  0
M  END
> <s_m_entry_id>
68231

> <s_m_entry_name>
dock_pv.167

> <s_m_Source_Path>
/home/csk/Desktop/cluster/DUD-E-result/pa2ga

> <s_m_Source_File>
dock_pv.maegz

> <i_m_Source_File_Index>
167

> <chembl_id>
CHEMBL150154

> <chembl_pref_name>
None

> <i_lp_mmshare_version>
53161

> <i_f3d_flags>
0

> <r_lp_tautomer_probability>
1

> <s_lp_Force_Field>
OPLS_2005

> <r_lp_Energy>
0.668266

> <b_lp_Chiralities_Consistent>
1

> <s_lp_Variant>
CHEMBL3474_lig23-2

> <s_i_glide_gridfile>
glide-grid_1kvo

> <i_i_glide_lignum>
63

> <i_i_glide_rotatable_bonds>
12

> <r_i_docking_score>
-7.22290144817619

> <r_i_glide_ligand_efficiency>
-0.232996820908909

> <r_i_glide_ligand_efficiency_sa>
-0.731931704434135

> <r_i_glide_ligand_efficiency_ln>
-1.62898563190934

> <r_i_glide_gscore>
-7.22290144817619

> <r_i_glide_lipo>
-3.4530480784176

> <r_i_glide_hbond>
0

> <r_i_glide_metal>
0

> <r_i_glide_rewards>
-0.609695479231124

> <r_i_glide_evdw>
-37.102367401123

> <r_i_glide_ecoul>
-13.7270050048828

> <r_i_glide_erotb>
0.809946788441016

> <r_i_glide_esite>
-0.0559355581799035

> <r_i_glide_emodel>
-76.3964836219054

> <r_i_glide_energy>
-50.8293724060059

> <r_i_glide_einternal>
2.65642380714417

> <i_i_glide_confnum>
178

> <i_i_glide_posenum>
94

> <r_i_glide_eff_state_penalty>
0

> <s_user_duplicate_titles>
CHEMBL3474_lig23

> <s_m_subgroup_title>
dock_pv

> <s_m_subgroupid>
dock_pv

> <b_m_subgroup_collapsed>
1

$$$$
CHEMBL3474_lig133
                    3D
 Schrodinger Suite 2021-1.
 55 58  0  0  1  0            999 V2000
  -39.1173   64.5667   33.0895 C   0  0  0  0  0  0
  -40.4150   64.5507   34.9604 N   0  0  0  0  0  0
  -39.7271   63.7546   34.0487 C   0  0  0  0  0  0
  -39.6504   65.9024   33.2914 C   0  0  0  0  0  0
  -40.5062   65.8375   34.4432 C   0  0  0  0  0  0
  -38.1679   64.1629   32.0261 C   0  0  0  0  0  0
  -40.6993   64.1554   36.3623 C   0  0  0  0  0  0
  -37.2154   62.8939   32.2021 C   0  0  0  0  0  0
  -42.0876   64.3673   36.9857 C   0  0  0  0  0  0
  -39.4723   67.1713   32.6779 C   0  0  0  0  0  0
  -43.1342   63.4177   36.9057 C   0  0  0  0  0  0
  -37.8594   69.0404   30.1064 C   0  0  0  0  0  0
  -37.9655   64.8659   31.0414 O   0  0  0  0  0  0
  -38.5068   67.3079   31.7091 O   0  0  0  0  0  0
  -36.8441   62.4896   33.3007 O   0  0  0  0  0  0
  -37.9887   69.7293   29.0997 O   0  0  0  0  0  0
  -43.0117   62.1101   36.2059 C   0  0  0  0  0  0
  -36.8188   62.3597   31.0434 N   0  0  0  0  0  0
  -38.8744   67.9493   30.4833 C   0  0  0  0  0  0
  -39.6906   62.2470   34.2166 C   0  0  0  0  0  0
  -41.1989   66.9636   34.9133 C   0  0  0  0  0  0
  -36.8151   69.1659   30.9773 O   0  0  0  0  0  0
  -42.2782   65.5227   37.7582 C   0  0  0  0  0  0
  -41.0208   68.1673   34.2446 C   0  0  0  0  0  0
  -44.3601   63.7132   37.5215 C   0  0  0  0  0  0
  -40.1683   68.2781   33.1591 C   0  0  0  0  0  0
  -43.9568   61.7566   35.2423 C   0  0  0  0  0  0
  -42.0026   61.1963   36.5225 C   0  0  0  0  0  0
  -43.4984   65.7909   38.3712 C   0  0  0  0  0  0
  -44.5467   64.8891   38.2427 C   0  0  0  0  0  0
  -41.8948   59.9958   35.8254 C   0  0  0  0  0  0
  -43.8542   60.5615   34.5416 C   0  0  0  0  0  0
  -42.8110   59.6916   34.8251 C   0  0  0  0  0  0
  -40.3799   63.1351   36.5156 H   0  0  0  0  0  0
  -39.9844   64.7117   36.9693 H   0  0  0  0  0  0
  -36.1995   61.5647   31.0400 H   0  0  0  0  0  0
  -37.1516   62.7537   30.1660 H   0  0  0  0  0  0
  -39.8779   68.3776   30.4944 H   0  0  0  0  0  0
  -38.8580   67.1924   29.6982 H   0  0  0  0  0  0
  -39.3791   61.7198   33.3180 H   0  0  0  0  0  0
  -39.0401   61.9225   35.0275 H   0  0  0  0  0  0
  -40.6898   61.8701   34.3986 H   0  0  0  0  0  0
  -41.8648   66.9283   35.7560 H   0  0  0  0  0  0
  -36.1953   69.8378   30.6454 H   0  0  0  0  0  0
  -41.4738   66.2324   37.8848 H   0  0  0  0  0  0
  -41.5413   69.0464   34.5981 H   0  0  0  0  0  0
  -45.1773   63.0083   37.4643 H   0  0  0  0  0  0
  -40.0137   69.2482   32.7105 H   0  0  0  0  0  0
  -44.7720   62.4290   35.0442 H   0  0  0  0  0  0
  -41.2963   61.4102   37.3102 H   0  0  0  0  0  0
  -43.6275   66.6942   38.9501 H   0  0  0  0  0  0
  -45.4961   65.0893   38.7189 H   0  0  0  0  0  0
  -41.1033   59.2979   36.0529 H   0  0  0  0  0  0
  -44.5787   60.3091   33.7856 H   0  0  0  0  0  0
  -42.7244   58.7619   34.2805 H   0  0  0  0  0  0
  1  3  2  0  0  0
  1  4  1  0  0  0
  1  6  1  0  0  0
  2  3  1  0  0  0
  2  7  1  0  0  0
  2  5  1  0  0  0
  3 20  1  0  0  0
  4  5  1  0  0  0
  4 10  2  0  0  0
  5 21  2  0  0  0
  6  8  1  0  0  0
  6 13  2  0  0  0
  7  9  1  0  0  0
  7 34  1  0  0  0
  7 35  1  0  0  0
  8 15  2  0  0  0
  8 18  1  0  0  0
  9 11  2  0  0  0
  9 23  1  0  0  0
 10 14  1  0  0  0
 10 26  1  0  0  0
 11 17  1  0  0  0
 11 25  1  0  0  0
 12 19  1  0  0  0
 12 16  2  0  0  0
 12 22  1  0  0  0
 14 19  1  0  0  0
 17 27  2  0  0  0
 17 28  1  0  0  0
 18 36  1  0  0  0
 18 37  1  0  0  0
 19 38  1  0  0  0
 19 39  1  0  0  0
 20 40  1  0  0  0
 20 41  1  0  0  0
 20 42  1  0  0  0
 21 24  1  0  0  0
 21 43  1  0  0  0
 22 44  1  0  0  0
 23 29  2  0  0  0
 23 45  1  0  0  0
 24 26  2  0  0  0
 24 46  1  0  0  0
 25 30  2  0  0  0
 25 47  1  0  0  0
 26 48  1  0  0  0
 27 32  1  0  0  0
 27 49  1  0  0  0
 28 31  2  0  0  0
 28 50  1  0  0  0
 29 30  1  0  0  0
 29 51  1  0  0  0
 30 52  1  0  0  0
 31 33  1  0  0  0
 31 53  1  0  0  0
 32 33  2  0  0  0
 32 54  1  0  0  0
 33 55  1  0  0  0
M  END
> <s_m_entry_id>
68232

> <s_m_entry_name>
dock_pv.168

> <s_m_Source_Path>
/home/csk/Desktop/cluster/DUD-E-result/pa2ga

> <s_m_Source_File>
dock_pv.maegz

> <i_m_Source_File_Index>
168

> <chembl_id>
CHEMBL357979

> <chembl_pref_name>
None

> <i_lp_mmshare_version>
53161

> <i_f3d_flags>
0

> <r_lp_tautomer_probability>
1

> <s_lp_Force_Field>
OPLS_2005

> <r_lp_Energy>
32.515751

> <b_lp_Chiralities_Consistent>
1

> <s_lp_Variant>
CHEMBL3474_lig133-1

> <s_i_glide_gridfile>
glide-grid_1kvo

> <i_i_glide_lignum>
193

> <i_i_glide_rotatable_bonds>
9

> <r_i_docking_score>
-7.20346780758101

> <r_i_glide_ligand_efficiency>
-0.218286903260031

> <r_i_glide_ligand_efficiency_sa>
-0.700162735178985

> <r_i_glide_ligand_efficiency_ln>
-1.60201394284583

> <r_i_glide_gscore>
-7.20346780758101

> <r_i_glide_lipo>
-3.00483026967715

> <r_i_glide_hbond>
-0.515753838840094

> <r_i_glide_metal>
0

> <r_i_glide_rewards>
-0.6235600660945

> <r_i_glide_evdw>
-44.1783180236816

> <r_i_glide_ecoul>
-10.0941324234009

> <r_i_glide_erotb>
0.714523545134004

> <r_i_glide_esite>
-0.0508114134090539

> <r_i_glide_emodel>
-74.6160552712198

> <r_i_glide_energy>
-54.2724504470825

> <r_i_glide_einternal>
11.2007255554199

> <i_i_glide_confnum>
163

> <i_i_glide_posenum>
83

> <r_i_glide_eff_state_penalty>
0

> <s_user_duplicate_titles>
CHEMBL3474_lig133,247939

> <s_m_subgroup_title>
dock_pv

> <s_m_subgroupid>
dock_pv

> <b_m_subgroup_collapsed>
1

$$$$
CHEMBL3474_lig274
                    3D
 Schrodinger Suite 2021-1.
 32 34  0  0  1  0            999 V2000
  -37.6857   64.6264   31.8416 C   0  0  0  0  0  0
  -36.6633   63.6980   31.6480 C   0  0  0  0  0  0
  -36.7392   62.4417   32.2483 C   0  0  0  0  0  0
  -38.7841   64.3017   32.6293 C   0  0  0  0  0  0
  -38.8652   63.0385   33.2073 C   0  0  0  0  0  0
  -37.8335   62.0937   33.0464 C   0  0  0  0  0  0
  -37.9515   60.7188   33.6965 C   0  0  0  0  0  0
  -39.1795   60.6280   34.6302 C   0  0  0  0  0  0
  -40.3608   61.4145   34.0248 C   0  0  2  0  0  0
  -39.9858   62.7936   33.9735 O   0  0  0  0  0  0
  -41.6620   61.2666   34.8032 C   0  0  0  0  0  0
  -41.7743   61.7860   36.0971 C   0  0  0  0  0  0
  -42.9852   61.6962   36.7791 C   0  0  0  0  0  0
  -44.0768   61.0813   36.1704 C   0  0  0  0  0  0
  -43.9699   60.5607   34.8834 C   0  0  0  0  0  0
  -42.7622   60.6487   34.2004 C   0  0  0  0  0  0
  -45.2641   60.9894   36.8436 O   0  0  0  0  0  0
  -37.6150   65.8575   31.2533 O   0  0  0  0  0  0
  -35.8141   63.9403   31.0243 H   0  0  0  0  0  0
  -35.9445   61.7274   32.0857 H   0  0  0  0  0  0
  -39.5798   65.0165   32.7760 H   0  0  0  0  0  0
  -38.0411   59.9699   32.9081 H   0  0  0  0  0  0
  -37.0349   60.4981   34.2432 H   0  0  0  0  0  0
  -38.9178   61.0700   35.5927 H   0  0  0  0  0  0
  -39.4551   59.5957   34.8489 H   0  0  0  0  0  0
  -40.5511   61.0605   33.0094 H   0  0  0  0  0  0
  -40.9309   62.2724   36.5655 H   0  0  0  0  0  0
  -43.0778   62.1004   37.7766 H   0  0  0  0  0  0
  -44.8149   60.0982   34.3994 H   0  0  0  0  0  0
  -42.6928   60.2500   33.1981 H   0  0  0  0  0  0
  -45.9564   60.5668   36.3311 H   0  0  0  0  0  0
  -36.9619   65.8523   30.5381 H   0  0  0  0  0  0
  1  2  2  0  0  0
  1  4  1  0  0  0
  1 18  1  0  0  0
  2  3  1  0  0  0
  2 19  1  0  0  0
  3  6  2  0  0  0
  3 20  1  0  0  0
  4  5  2  0  0  0
  4 21  1  0  0  0
  5  6  1  0  0  0
  5 10  1  0  0  0
  6  7  1  0  0  0
  7  8  1  0  0  0
  7 22  1  0  0  0
  7 23  1  0  0  0
  8  9  1  0  0  0
  8 24  1  0  0  0
  8 25  1  0  0  0
  9 10  1  0  0  0
  9 11  1  0  0  0
  9 26  1  0  0  0
 11 12  2  0  0  0
 11 16  1  0  0  0
 12 13  1  0  0  0
 12 27  1  0  0  0
 13 14  2  0  0  0
 13 28  1  0  0  0
 14 15  1  0  0  0
 14 17  1  0  0  0
 15 16  2  0  0  0
 15 29  1  0  0  0
 16 30  1  0  0  0
 17 31  1  0  0  0
 18 32  1  0  0  0
M  END
> <s_m_entry_id>
68233

> <s_m_entry_name>
dock_pv.169

> <s_m_Source_Path>
/home/csk/Desktop/cluster/DUD-E-result/pa2ga

> <s_m_Source_File>
dock_pv.maegz

> <i_m_Source_File_Index>
169

> <chembl_id>
CHEMBL508033

> <chembl_pref_name>
None

> <i_lp_mmshare_version>
53161

> <i_f3d_flags>
0

> <r_lp_tautomer_probability>
0.999999999997365

> <s_lp_Force_Field>
OPLS_2005

> <r_lp_Energy>
15.025536

> <b_lp_Chiralities_Consistent>
1

> <s_lp_Variant>
CHEMBL3474_lig274-1

> <s_i_glide_gridfile>
glide-grid_1kvo

> <i_i_glide_lignum>
358

> <i_i_glide_rotatable_bonds>
3

> <r_i_docking_score>
-7.19961249275309

> <r_i_glide_ligand_efficiency>
-0.399978471819616

> <r_i_glide_ligand_efficiency_sa>
-1.04824013688015

> <r_i_glide_ligand_efficiency_ln>
-1.85062326707988

> <r_i_glide_gscore>
-7.19961249275309

> <r_i_glide_lipo>
-3.04531710000701

> <r_i_glide_hbond>
-0.142275354580565

> <r_i_glide_metal>
0

> <r_i_glide_rewards>
-1.82549688479568

> <r_i_glide_evdw>
-33.9656715393066

> <r_i_glide_ecoul>
-5.22466087341309

> <r_i_glide_erotb>
0.295459554607463

> <r_i_glide_esite>
0

> <r_i_glide_emodel>
-56.8330572563813

> <r_i_glide_energy>
-39.1903324127197

> <r_i_glide_einternal>
0.607216715812683

> <i_i_glide_confnum>
2

> <i_i_glide_posenum>
23

> <r_i_glide_eff_state_penalty>
0

> <s_user_duplicate_titles>
CHEMBL3474_lig274

> <s_m_subgroup_title>
dock_pv

> <s_m_subgroupid>
dock_pv

> <b_m_subgroup_collapsed>
1

$$$$
CHEMBL3474_lig138
                    3D
 Schrodinger Suite 2021-1.
 47 49  0  0  1  0            999 V2000
  -40.2531   63.4329   34.8188 N   0  0  0  0  0  0
  -38.7414   63.3075   33.1266 C   0  0  0  0  0  0
  -39.3165   62.6083   34.2008 C   0  0  0  0  0  0
  -39.4024   64.6059   33.0490 C   0  0  0  0  0  0
  -40.2885   64.6550   34.1703 C   0  0  0  0  0  0
  -41.0017   63.1141   35.9880 C   0  0  0  0  0  0
  -37.6249   62.7890   32.3042 C   0  0  0  0  0  0
  -36.4832   63.7899   31.8430 C   0  0  0  0  0  0
  -39.3804   65.7377   32.1819 C   0  0  0  0  0  0
  -37.8747   67.9434   30.3999 C   0  0  0  0  0  0
  -40.7370   63.6974   37.0412 O   0  0  0  0  0  0
  -42.2109   62.2108   35.8742 C   0  0  0  0  0  0
  -37.4382   61.5813   32.1338 O   0  0  0  0  0  0
  -38.6138   65.6459   31.0337 O   0  0  0  0  0  0
  -36.3505   64.8980   32.3452 O   0  0  0  0  0  0
  -37.2357   68.0961   31.4429 O   0  0  0  0  0  0
  -35.6260   63.2979   30.9550 N   0  0  0  0  0  0
  -38.6504   66.6615   30.0188 C   0  0  0  0  0  0
  -38.9446   61.2263   34.7644 C   0  0  0  0  0  0
  -41.0439   65.7959   34.4870 C   0  0  0  0  0  0
  -37.9618   68.8831   29.4156 O   0  0  0  0  0  0
  -40.9336   66.8943   33.6503 C   0  0  0  0  0  0
  -40.1474   66.8632   32.5121 C   0  0  0  0  0  0
  -42.9879   61.9539   37.0141 C   0  0  0  0  0  0
  -42.6119   61.6743   34.6425 C   0  0  0  0  0  0
  -39.5957   60.0481   34.0189 C   0  0  0  0  0  0
  -44.1480   61.1924   36.9206 C   0  0  0  0  0  0
  -43.7641   60.8986   34.5510 C   0  0  0  0  0  0
  -44.5338   60.6762   35.6883 C   0  0  0  0  0  0
  -34.9187   63.9115   30.5651 H   0  0  0  0  0  0
  -35.7701   62.3734   30.5786 H   0  0  0  0  0  0
  -38.1947   66.2305   29.1255 H   0  0  0  0  0  0
  -39.6846   66.8972   29.7692 H   0  0  0  0  0  0
  -37.8634   61.1035   34.7005 H   0  0  0  0  0  0
  -39.1477   61.1315   35.8343 H   0  0  0  0  0  0
  -41.6930   65.8281   35.3508 H   0  0  0  0  0  0
  -38.4478   68.5898   28.6437 H   0  0  0  0  0  0
  -41.4997   67.7847   33.8794 H   0  0  0  0  0  0
  -40.1475   67.7421   31.8892 H   0  0  0  0  0  0
  -42.7097   62.3568   37.9789 H   0  0  0  0  0  0
  -42.0495   61.8585   33.7363 H   0  0  0  0  0  0
  -39.0955   59.1096   34.2619 H   0  0  0  0  0  0
  -40.6442   59.9257   34.2811 H   0  0  0  0  0  0
  -39.5359   60.1686   32.9369 H   0  0  0  0  0  0
  -44.7515   61.0118   37.7974 H   0  0  0  0  0  0
  -44.0757   60.4906   33.6002 H   0  0  0  0  0  0
  -45.4416   60.0981   35.6170 H   0  0  0  0  0  0
  1  3  1  0  0  0
  1  5  1  0  0  0
  1  6  1  0  0  0
  2  3  2  0  0  0
  2  7  1  0  0  0
  2  4  1  0  0  0
  3 19  1  0  0  0
  4  5  1  0  0  0
  4  9  2  0  0  0
  5 20  2  0  0  0
  6 11  2  0  0  0
  6 12  1  0  0  0
  7  8  1  0  0  0
  7 13  2  0  0  0
  8 15  2  0  0  0
  8 17  1  0  0  0
  9 14  1  0  0  0
  9 23  1  0  0  0
 10 18  1  0  0  0
 10 16  2  0  0  0
 10 21  1  0  0  0
 12 24  1  0  0  0
 12 25  2  0  0  0
 14 18  1  0  0  0
 17 30  1  0  0  0
 17 31  1  0  0  0
 18 32  1  0  0  0
 18 33  1  0  0  0
 19 26  1  0  0  0
 19 34  1  0  0  0
 19 35  1  0  0  0
 20 22  1  0  0  0
 20 36  1  0  0  0
 21 37  1  0  0  0
 22 23  2  0  0  0
 22 38  1  0  0  0
 23 39  1  0  0  0
 24 27  2  0  0  0
 24 40  1  0  0  0
 25 28  1  0  0  0
 25 41  1  0  0  0
 26 42  1  0  0  0
 26 43  1  0  0  0
 26 44  1  0  0  0
 27 29  1  0  0  0
 27 45  1  0  0  0
 28 29  2  0  0  0
 28 46  1  0  0  0
 29 47  1  0  0  0
M  END
> <s_m_entry_id>
68234

> <s_m_entry_name>
dock_pv.170

> <s_m_Source_Path>
/home/csk/Desktop/cluster/DUD-E-result/pa2ga

> <s_m_Source_File>
dock_pv.maegz

> <i_m_Source_File_Index>
170

> <chembl_id>
CHEMBL347052

> <chembl_pref_name>
None

> <i_lp_mmshare_version>
53161

> <i_f3d_flags>
0

> <r_lp_tautomer_probability>
1

> <s_lp_Force_Field>
OPLS_2005

> <r_lp_Energy>
38.224507

> <b_lp_Chiralities_Consistent>
1

> <s_lp_Variant>
CHEMBL3474_lig138-1

> <s_i_glide_gridfile>
glide-grid_1kvo

> <i_i_glide_lignum>
199

> <i_i_glide_rotatable_bonds>
9

> <r_i_docking_score>
-7.18700990576033

> <r_i_glide_ligand_efficiency>
-0.247827927784839

> <r_i_glide_ligand_efficiency_sa>
-0.761405911553591

> <r_i_glide_ligand_efficiency_ln>
-1.64564302157259

> <r_i_glide_gscore>
-7.18700990576033

> <r_i_glide_lipo>
-3.01900884380225

> <r_i_glide_hbond>
-0.441597679445948

> <r_i_glide_metal>
0

> <r_i_glide_rewards>
-1.26832878184508

> <r_i_glide_evdw>
-47.0261268615723

> <r_i_glide_ecoul>
-4.94910430908203

> <r_i_glide_erotb>
0.753957154102249

> <r_i_glide_esite>
-0.118359765328385

> <r_i_glide_emodel>
-69.3044144529611

> <r_i_glide_energy>
-51.9752311706543

> <r_i_glide_einternal>
18.8933639526367

> <i_i_glide_confnum>
138

> <i_i_glide_posenum>
351

> <r_i_glide_eff_state_penalty>
0

> <s_user_duplicate_titles>
CHEMBL3474_lig138,247511

> <s_m_subgroup_title>
dock_pv

> <s_m_subgroupid>
dock_pv

> <b_m_subgroup_collapsed>
1

$$$$
CHEMBL3474_lig220
                    3D
 Schrodinger Suite 2021-1.
 55 58  0  0  1  0            999 V2000
  -39.5083   63.5827   33.5154 C   0  0  0  0  0  0
  -40.6066   63.0657   35.4264 N   0  0  0  0  0  0
  -40.1920   64.7681   33.9893 C   0  0  0  0  0  0
  -39.8053   62.5611   34.4090 C   0  0  0  0  0  0
  -40.8887   64.4232   35.1969 C   0  0  0  0  0  0
  -38.7513   63.4689   32.2532 C   0  0  0  0  0  0
  -40.2569   66.1013   33.5370 C   0  0  0  0  0  0
  -41.6733   65.3761   35.9119 C   0  0  0  0  0  0
  -37.3545   62.6998   32.2550 C   0  0  0  0  0  0
  -41.7333   66.6843   35.3762 C   0  0  0  0  0  0
  -41.0374   67.0183   34.2248 C   0  0  0  0  0  0
  -41.1386   62.2262   36.5187 C   0  0  0  0  0  0
  -39.5028   66.4053   32.4264 O   0  0  0  0  0  0
  -38.0155   67.7718   31.1790 C   0  0  0  0  0  0
  -39.0825   64.0851   31.2396 O   0  0  0  0  0  0
  -36.8152   62.3188   33.2925 O   0  0  0  0  0  0
  -37.0592   68.4982   31.4428 O   0  0  0  0  0  0
  -36.8150   62.5452   31.0434 N   0  0  0  0  0  0
  -39.3051   67.7511   32.0037 C   0  0  0  0  0  0
  -39.4199   61.0859   34.3737 C   0  0  0  0  0  0
  -42.5848   61.7627   36.3391 C   0  0  0  0  0  0
  -38.0151   66.8443   30.1816 O   0  0  0  0  0  0
  -42.4939   65.0266   37.1658 C   0  0  0  0  0  0
  -42.5406   67.7902   36.0571 C   0  0  0  0  0  0
  -43.0523   61.3351   35.0908 C   0  0  0  0  0  0
  -43.4429   61.7360   37.4426 C   0  0  0  0  0  0
  -43.1753   66.2151   37.8683 C   0  0  0  0  0  0
  -43.7143   67.2342   36.8676 C   0  0  0  0  0  0
  -44.7610   61.3095   37.2991 C   0  0  0  0  0  0
  -44.3642   60.8979   34.9514 C   0  0  0  0  0  0
  -45.2164   60.8977   36.0514 C   0  0  0  0  0  0
  -41.1061   68.0344   33.8692 H   0  0  0  0  0  0
  -40.9971   62.7530   37.4568 H   0  0  0  0  0  0
  -40.5154   61.3448   36.6500 H   0  0  0  0  0  0
  -35.9324   62.0716   30.9450 H   0  0  0  0  0  0
  -37.2967   62.8945   30.2164 H   0  0  0  0  0  0
  -40.1381   68.0948   31.3918 H   0  0  0  0  0  0
  -39.1872   68.4355   32.8447 H   0  0  0  0  0  0
  -39.0164   60.7738   33.4097 H   0  0  0  0  0  0
  -38.6620   60.8537   35.1255 H   0  0  0  0  0  0
  -40.2676   60.4229   34.5515 H   0  0  0  0  0  0
  -37.1333   66.7274   29.8089 H   0  0  0  0  0  0
  -43.2719   64.3278   36.8642 H   0  0  0  0  0  0
  -41.8759   64.5472   37.9189 H   0  0  0  0  0  0
  -41.8743   68.3469   36.7179 H   0  0  0  0  0  0
  -42.9139   68.5072   35.3227 H   0  0  0  0  0  0
  -42.4064   61.3391   34.2253 H   0  0  0  0  0  0
  -43.0963   62.0554   38.4148 H   0  0  0  0  0  0
  -42.4596   66.7053   38.5300 H   0  0  0  0  0  0
  -43.9790   65.8541   38.5118 H   0  0  0  0  0  0
  -44.2277   68.0426   37.3889 H   0  0  0  0  0  0
  -44.4530   66.7697   36.2122 H   0  0  0  0  0  0
  -45.4248   61.3002   38.1520 H   0  0  0  0  0  0
  -44.7231   60.5663   33.9881 H   0  0  0  0  0  0
  -46.2360   60.5617   35.9363 H   0  0  0  0  0  0
  1  3  1  0  0  0
  1  4  2  0  0  0
  1  6  1  0  0  0
  2  4  1  0  0  0
  2 12  1  0  0  0
  2  5  1  0  0  0
  3  5  1  0  0  0
  3  7  2  0  0  0
  4 20  1  0  0  0
  5  8  2  0  0  0
  6  9  1  0  0  0
  6 15  2  0  0  0
  7 11  1  0  0  0
  7 13  1  0  0  0
  8 23  1  0  0  0
  8 10  1  0  0  0
  9 16  2  0  0  0
  9 18  1  0  0  0
 10 11  2  0  0  0
 10 24  1  0  0  0
 11 32  1  0  0  0
 12 21  1  0  0  0
 12 33  1  0  0  0
 12 34  1  0  0  0
 13 19  1  0  0  0
 14 19  1  0  0  0
 14 17  2  0  0  0
 14 22  1  0  0  0
 18 35  1  0  0  0
 18 36  1  0  0  0
 19 37  1  0  0  0
 19 38  1  0  0  0
 20 39  1  0  0  0
 20 40  1  0  0  0
 20 41  1  0  0  0
 21 25  2  0  0  0
 21 26  1  0  0  0
 22 42  1  0  0  0
 23 27  1  0  0  0
 23 43  1  0  0  0
 23 44  1  0  0  0
 24 28  1  0  0  0
 24 45  1  0  0  0
 24 46  1  0  0  0
 25 30  1  0  0  0
 25 47  1  0  0  0
 26 29  2  0  0  0
 26 48  1  0  0  0
 27 28  1  0  0  0
 27 49  1  0  0  0
 27 50  1  0  0  0
 28 51  1  0  0  0
 28 52  1  0  0  0
 29 31  1  0  0  0
 29 53  1  0  0  0
 30 31  2  0  0  0
 30 54  1  0  0  0
 31 55  1  0  0  0
M  END
> <s_m_entry_id>
68235

> <s_m_entry_name>
dock_pv.171

> <s_m_Source_Path>
/home/csk/Desktop/cluster/DUD-E-result/pa2ga

> <s_m_Source_File>
dock_pv.maegz

> <i_m_Source_File_Index>
171

> <chembl_id>
CHEMBL425869

> <chembl_pref_name>
None

> <i_lp_mmshare_version>
53161

> <i_f3d_flags>
0

> <r_lp_tautomer_probability>
1

> <s_lp_Force_Field>
OPLS_2005

> <r_lp_Energy>
31.286123

> <b_lp_Chiralities_Consistent>
1

> <s_lp_Variant>
CHEMBL3474_lig220-1

> <s_i_glide_gridfile>
glide-grid_1kvo

> <i_i_glide_lignum>
282

> <i_i_glide_rotatable_bonds>
8

> <r_i_docking_score>
-7.18115470958179

> <r_i_glide_ligand_efficiency>
-0.231650151921993

> <r_i_glide_ligand_efficiency_sa>
-0.727701304538304

> <r_i_glide_ligand_efficiency_ln>
-1.61957046297242

> <r_i_glide_gscore>
-7.18115470958179

> <r_i_glide_lipo>
-3.1047861998059

> <r_i_glide_hbond>
-0.433833958864507

> <r_i_glide_metal>
0

> <r_i_glide_rewards>
-0.929713758391053

> <r_i_glide_evdw>
-43.8703460693359

> <r_i_glide_ecoul>
-7.4370322227478

> <r_i_glide_erotb>
0.671752782863727

> <r_i_glide_esite>
-0.07550143850509

> <r_i_glide_emodel>
-75.477567634557

> <r_i_glide_energy>
-51.3073782920837

> <r_i_glide_einternal>
5.0512523651123

> <i_i_glide_confnum>
58

> <i_i_glide_posenum>
90

> <r_i_glide_eff_state_penalty>
0

> <s_user_duplicate_titles>
CHEMBL3474_lig220,299342

> <s_m_subgroup_title>
dock_pv

> <s_m_subgroupid>
dock_pv

> <b_m_subgroup_collapsed>
1

$$$$
CHEMBL3474_lig33
                    3D
 Schrodinger Suite 2021-1.
 41 43  0  0  1  0            999 V2000
  -40.1066   62.6540   34.7920 N   0  0  0  0  0  0
  -39.3331   62.2864   33.7018 C   0  0  0  0  0  0
  -39.1449   63.3951   32.8817 C   0  0  0  0  0  0
  -39.8049   64.4952   33.5211 C   0  0  0  0  0  0
  -40.4151   64.0024   34.7085 C   0  0  0  0  0  0
  -38.4050   63.4655   31.5545 C   0  0  0  0  0  0
  -40.6011   61.7591   35.8435 C   0  0  0  0  0  0
  -41.1573   64.8360   35.5587 C   0  0  0  0  0  0
  -37.0091   64.0865   31.6508 C   0  0  0  0  0  0
  -39.9386   65.8565   33.2024 C   0  0  0  0  0  0
  -38.7291   60.6454   33.4430 S   0  0  0  0  0  0
  -36.8152   65.1457   32.2430 O   0  0  0  0  0  0
  -40.6485   66.6882   34.0624 C   0  0  0  0  0  0
  -36.0151   63.4457   31.0430 N   0  0  0  0  0  0
  -41.2502   66.1836   35.2097 C   0  0  0  0  0  0
  -42.0829   61.4353   35.7091 C   0  0  0  0  0  0
  -40.7442   68.0223   33.7803 O   0  0  0  0  0  0
  -36.9797   61.0151   33.7420 C   0  0  0  0  0  0
  -42.9708   61.7974   36.7266 C   0  0  0  0  0  0
  -42.5548   60.7855   34.5646 C   0  0  0  0  0  0
  -43.9139   60.5193   34.4312 C   0  0  0  0  0  0
  -44.3294   61.5285   36.5933 C   0  0  0  0  0  0
  -44.7945   60.8977   35.4430 C   0  0  0  0  0  0
  -38.3238   62.4769   31.1056 H   0  0  0  0  0  0
  -38.9710   64.0543   30.8322 H   0  0  0  0  0  0
  -40.0252   60.8339   35.8594 H   0  0  0  0  0  0
  -40.4151   62.2432   36.8014 H   0  0  0  0  0  0
  -41.6273   64.4652   36.4579 H   0  0  0  0  0  0
  -39.4748   66.2483   32.3104 H   0  0  0  0  0  0
  -35.1164   63.9004   30.9705 H   0  0  0  0  0  0
  -36.2173   62.6420   30.4673 H   0  0  0  0  0  0
  -41.7996   66.8565   35.8524 H   0  0  0  0  0  0
  -40.2586   68.2609   32.9893 H   0  0  0  0  0  0
  -36.4070   60.0974   33.8430 H   0  0  0  0  0  0
  -36.5542   61.5588   32.9031 H   0  0  0  0  0  0
  -36.8523   61.6132   34.6429 H   0  0  0  0  0  0
  -42.6151   62.2929   37.6181 H   0  0  0  0  0  0
  -41.8734   60.4977   33.7762 H   0  0  0  0  0  0
  -44.2871   60.0253   33.5455 H   0  0  0  0  0  0
  -45.0195   61.8101   37.3752 H   0  0  0  0  0  0
  -45.8493   60.6895   35.3337 H   0  0  0  0  0  0
  1  2  1  0  0  0
  1  5  1  0  0  0
  1  7  1  0  0  0
  2  3  2  0  0  0
  2 11  1  0  0  0
  3  6  1  0  0  0
  3  4  1  0  0  0
  4  5  1  0  0  0
  4 10  2  0  0  0
  5  8  2  0  0  0
  6  9  1  0  0  0
  6 24  1  0  0  0
  6 25  1  0  0  0
  7 16  1  0  0  0
  7 26  1  0  0  0
  7 27  1  0  0  0
  8 15  1  0  0  0
  8 28  1  0  0  0
  9 12  2  0  0  0
  9 14  1  0  0  0
 10 13  1  0  0  0
 10 29  1  0  0  0
 11 18  1  0  0  0
 13 15  2  0  0  0
 13 17  1  0  0  0
 14 30  1  0  0  0
 14 31  1  0  0  0
 15 32  1  0  0  0
 16 19  2  0  0  0
 16 20  1  0  0  0
 17 33  1  0  0  0
 18 34  1  0  0  0
 18 35  1  0  0  0
 18 36  1  0  0  0
 19 22  1  0  0  0
 19 37  1  0  0  0
 20 21  2  0  0  0
 20 38  1  0  0  0
 21 23  1  0  0  0
 21 39  1  0  0  0
 22 23  2  0  0  0
 22 40  1  0  0  0
 23 41  1  0  0  0
M  END
> <s_m_entry_id>
68236

> <s_m_entry_name>
dock_pv.172

> <s_m_Source_Path>
/home/csk/Desktop/cluster/DUD-E-result/pa2ga

> <s_m_Source_File>
dock_pv.maegz

> <i_m_Source_File_Index>
172

> <chembl_id>
CHEMBL147247

> <chembl_pref_name>
None

> <i_lp_mmshare_version>
53161

> <i_f3d_flags>
0

> <r_lp_tautomer_probability>
1

> <s_lp_Force_Field>
OPLS_2005

> <r_lp_Energy>
7.138928

> <b_lp_Chiralities_Consistent>
1

> <s_lp_Variant>
CHEMBL3474_lig33-1

> <s_i_glide_gridfile>
glide-grid_1kvo

> <i_i_glide_lignum>
73

> <i_i_glide_rotatable_bonds>
6

> <r_i_docking_score>
-7.17301295344702

> <r_i_glide_ligand_efficiency>
-0.31187012841074

> <r_i_glide_ligand_efficiency_sa>
-0.886917159262396

> <r_i_glide_ligand_efficiency_ln>
-1.73449957342895

> <r_i_glide_gscore>
-7.17301295344702

> <r_i_glide_lipo>
-3.31347995023913

> <r_i_glide_hbond>
-0.110582706016681

> <r_i_glide_metal>
0

> <r_i_glide_rewards>
-1.42123930792122

> <r_i_glide_evdw>
-40.4846267700195

> <r_i_glide_ecoul>
-4.86172676086426

> <r_i_glide_erotb>
0.528065462996323

> <r_i_glide_esite>
-0.10228609963569

> <r_i_glide_emodel>
-66.9008121923611

> <r_i_glide_energy>
-45.3463535308838

> <r_i_glide_einternal>
1.14480090141296

> <i_i_glide_confnum>
3

> <i_i_glide_posenum>
46

> <r_i_glide_eff_state_penalty>
0

> <s_user_duplicate_titles>
CHEMBL3474_lig33,247085

> <s_m_subgroup_title>
dock_pv

> <s_m_subgroupid>
dock_pv

> <b_m_subgroup_collapsed>
1

$$$$
CHEMBL3474_lig174
                    3D
 Schrodinger Suite 2021-1.
 55 58  0  0  1  0            999 V2000
  -39.4657   65.6776   31.6078 N   0  0  0  0  0  0
  -38.8302   67.8411   31.3131 C   0  0  0  0  0  0
  -38.7662   66.5572   30.7914 C   0  0  0  0  0  0
  -39.7477   67.7743   32.4122 C   0  0  0  0  0  0
  -40.1185   66.4106   32.5935 C   0  0  0  0  0  0
  -39.6225   64.2350   31.3507 C   0  0  0  0  0  0
  -38.1296   69.0955   30.7952 C   0  0  0  0  0  0
  -41.0052   66.0297   33.6122 C   0  0  0  0  0  0
  -38.7871   69.7404   29.5617 C   0  0  0  0  0  0
  -40.3041   68.7465   33.2571 C   0  0  0  0  0  0
  -40.5282   61.9034   34.2370 C   0  0  0  0  0  0
  -40.6126   62.7270   33.1118 C   0  0  0  0  0  0
  -39.4738   63.3007   32.5458 C   0  0  0  0  0  0
  -40.0122   69.6983   29.4179 O   0  0  0  0  0  0
  -41.7780   61.4288   34.8783 C   0  0  0  0  0  0
  -37.9459   70.3381   28.6938 N   0  0  0  0  0  0
  -41.2150   68.3798   34.2436 C   0  0  0  0  0  0
  -41.5322   67.0300   34.4239 C   0  0  0  0  0  0
  -38.0850   66.0979   29.5188 C   0  0  0  0  0  0
  -38.4144   70.8940   27.4950 N   0  0  0  0  0  0
  -41.7742   69.4134   34.9669 O   0  0  0  0  0  0
  -39.2636   61.5968   34.7527 C   0  0  0  0  0  0
  -38.1121   62.1134   34.1563 C   0  0  0  0  0  0
  -38.2161   62.9734   33.0601 C   0  0  0  0  0  0
  -42.7961   60.8656   34.1017 C   0  0  0  0  0  0
  -41.9862   61.6177   36.2490 C   0  0  0  0  0  0
  -42.6843   69.1162   36.0204 C   0  0  0  0  0  0
  -43.2140   61.2986   36.8233 C   0  0  0  0  0  0
  -44.0151   60.5324   34.6780 C   0  0  0  0  0  0
  -44.2264   60.7649   36.0329 C   0  0  0  0  0  0
  -40.5856   64.0875   30.8593 H   0  0  0  0  0  0
  -38.8646   63.9119   30.6430 H   0  0  0  0  0  0
  -38.0813   69.8611   31.5699 H   0  0  0  0  0  0
  -37.0915   68.8568   30.5579 H   0  0  0  0  0  0
  -41.3109   65.0126   33.7759 H   0  0  0  0  0  0
  -40.0551   69.7885   33.1265 H   0  0  0  0  0  0
  -41.5864   62.9657   32.7048 H   0  0  0  0  0  0
  -36.9410   70.2355   28.7392 H   0  0  0  0  0  0
  -42.2308   66.7298   35.1901 H   0  0  0  0  0  0
  -37.6149   66.9268   28.9956 H   0  0  0  0  0  0
  -37.3184   65.3412   29.6910 H   0  0  0  0  0  0
  -38.8045   65.6789   28.8155 H   0  0  0  0  0  0
  -39.2224   70.3604   27.2049 H   0  0  0  0  0  0
  -38.7382   71.8388   27.6743 H   0  0  0  0  0  0
  -39.1713   60.9542   35.6168 H   0  0  0  0  0  0
  -37.1430   61.8597   34.5601 H   0  0  0  0  0  0
  -37.3234   63.3786   32.6068 H   0  0  0  0  0  0
  -42.6508   60.7036   33.0440 H   0  0  0  0  0  0
  -41.2133   62.0562   36.8636 H   0  0  0  0  0  0
  -43.0036   70.0450   36.4925 H   0  0  0  0  0  0
  -42.2181   68.4993   36.7901 H   0  0  0  0  0  0
  -43.5771   68.6121   35.6473 H   0  0  0  0  0  0
  -43.3825   61.4711   37.8761 H   0  0  0  0  0  0
  -44.8040   60.1168   34.0711 H   0  0  0  0  0  0
  -45.1808   60.5193   36.4757 H   0  0  0  0  0  0
  1  3  1  0  0  0
  1  5  1  0  0  0
  1  6  1  0  0  0
  2  3  2  0  0  0
  2  7  1  0  0  0
  2  4  1  0  0  0
  3 19  1  0  0  0
  4  5  1  0  0  0
  4 10  2  0  0  0
  5  8  2  0  0  0
  6 13  1  0  0  0
  6 31  1  0  0  0
  6 32  1  0  0  0
  7  9  1  0  0  0
  7 33  1  0  0  0
  7 34  1  0  0  0
  8 18  1  0  0  0
  8 35  1  0  0  0
  9 14  2  0  0  0
  9 16  1  0  0  0
 10 17  1  0  0  0
 10 36  1  0  0  0
 11 12  1  0  0  0
 11 15  1  0  0  0
 11 22  2  0  0  0
 12 13  2  0  0  0
 12 37  1  0  0  0
 13 24  1  0  0  0
 15 25  1  0  0  0
 15 26  2  0  0  0
 16 20  1  0  0  0
 16 38  1  0  0  0
 17 18  2  0  0  0
 17 21  1  0  0  0
 18 39  1  0  0  0
 19 40  1  0  0  0
 19 41  1  0  0  0
 19 42  1  0  0  0
 20 43  1  0  0  0
 20 44  1  0  0  0
 21 27  1  0  0  0
 22 23  1  0  0  0
 22 45  1  0  0  0
 23 24  2  0  0  0
 23 46  1  0  0  0
 24 47  1  0  0  0
 25 29  2  0  0  0
 25 48  1  0  0  0
 26 28  1  0  0  0
 26 49  1  0  0  0
 27 50  1  0  0  0
 27 51  1  0  0  0
 27 52  1  0  0  0
 28 30  2  0  0  0
 28 53  1  0  0  0
 29 30  1  0  0  0
 29 54  1  0  0  0
 30 55  1  0  0  0
M  END
> <s_m_entry_id>
68237

> <s_m_entry_name>
dock_pv.173

> <s_m_Source_Path>
/home/csk/Desktop/cluster/DUD-E-result/pa2ga

> <s_m_Source_File>
dock_pv.maegz

> <i_m_Source_File_Index>
173

> <chembl_id>
CHEMBL150101

> <chembl_pref_name>
None

> <i_lp_mmshare_version>
53161

> <i_f3d_flags>
0

> <r_lp_tautomer_probability>
1

> <s_lp_Force_Field>
OPLS_2005

> <r_lp_Energy>
21.280906

> <b_lp_Chiralities_Consistent>
1

> <s_lp_Variant>
CHEMBL3474_lig174-1

> <s_i_glide_gridfile>
glide-grid_1kvo

> <i_i_glide_lignum>
236

> <i_i_glide_rotatable_bonds>
7

> <r_i_docking_score>
-7.16916950807048

> <r_i_glide_ligand_efficiency>
-0.238972316935683

> <r_i_glide_ligand_efficiency_sa>
-0.742542550363816

> <r_i_glide_ligand_efficiency_ln>
-1.62891342659187

> <r_i_glide_gscore>
-7.16916950807048

> <r_i_glide_lipo>
-3.61819787359864

> <r_i_glide_hbond>
-0.00119141839375516

> <r_i_glide_metal>
0

> <r_i_glide_rewards>
-0.992798545363888

> <r_i_glide_evdw>
-45.5545959472656

> <r_i_glide_ecoul>
-5.9544939994812

> <r_i_glide_erotb>
0.613922226571267

> <r_i_glide_esite>
0

> <r_i_glide_emodel>
-72.201877880861

> <r_i_glide_energy>
-51.5090899467468

> <r_i_glide_einternal>
8.97397041320801

> <i_i_glide_confnum>
28

> <i_i_glide_posenum>
19

> <r_i_glide_eff_state_penalty>
0

> <s_user_duplicate_titles>
CHEMBL3474_lig174,247268

> <s_m_subgroup_title>
dock_pv

> <s_m_subgroupid>
dock_pv

> <b_m_subgroup_collapsed>
1

$$$$
CHEMBL3474_lig114
                    3D
 Schrodinger Suite 2021-1.
 48 50  0  0  1  0            999 V2000
  -40.8509   66.6207   33.7288 C   0  0  0  0  0  0
  -40.6686   64.5717   32.7861 N   0  0  0  0  0  0
  -40.2246   66.7685   32.4248 C   0  0  0  0  0  0
  -41.1279   65.2564   33.8974 C   0  0  0  0  0  0
  -40.1117   65.4563   31.8837 C   0  0  0  0  0  0
  -41.2148   67.7179   34.6431 C   0  0  0  0  0  0
  -39.7073   67.8371   31.6469 C   0  0  0  0  0  0
  -41.2147   67.4450   36.2091 C   0  0  0  0  0  0
  -39.7475   69.0918   32.2182 O   0  0  0  0  0  0
  -37.6508   70.1268   31.4082 C   0  0  0  0  0  0
  -40.7117   63.1203   32.5861 C   0  0  0  0  0  0
  -39.1876   70.2305   31.5590 C   0  0  2  0  0  0
  -41.3943   68.8784   34.2637 O   0  0  0  0  0  0
  -40.4499   66.6389   36.7356 O   0  0  0  0  0  0
  -36.9276   69.3067   31.9846 O   0  0  0  0  0  0
  -42.0843   68.2051   36.8800 N   0  0  0  0  0  0
  -41.8374   64.4969   35.0148 C   0  0  0  0  0  0
  -39.5178   65.2063   30.6428 C   0  0  0  0  0  0
  -37.2153   71.0026   30.4650 O   0  0  0  0  0  0
  -39.4702   62.3780   33.0627 C   0  0  0  0  0  0
  -39.1694   67.5722   30.3796 C   0  0  0  0  0  0
  -39.0513   66.2806   29.9064 C   0  0  0  0  0  0
  -39.6277   71.4588   32.3736 C   0  0  0  0  0  0
  -38.1917   62.7304   32.6098 C   0  0  0  0  0  0
  -39.6289   61.2837   33.9141 C   0  0  0  0  0  0
  -38.5202   60.5429   34.3032 C   0  0  0  0  0  0
  -37.0840   61.9875   32.9980 C   0  0  0  0  0  0
  -37.2542   60.8975   33.8432 C   0  0  0  0  0  0
  -40.8446   62.9221   31.5228 H   0  0  0  0  0  0
  -41.6158   62.7138   33.0355 H   0  0  0  0  0  0
  -39.6179   70.3386   30.5613 H   0  0  0  0  0  0
  -42.1484   68.1172   37.8825 H   0  0  0  0  0  0
  -42.6597   68.8734   36.3892 H   0  0  0  0  0  0
  -42.4289   65.1341   35.6682 H   0  0  0  0  0  0
  -42.5586   63.7727   34.6426 H   0  0  0  0  0  0
  -41.1280   63.9590   35.6442 H   0  0  0  0  0  0
  -39.4080   64.2127   30.2469 H   0  0  0  0  0  0
  -36.2541   70.8959   30.3409 H   0  0  0  0  0  0
  -38.8009   68.3606   29.7434 H   0  0  0  0  0  0
  -38.5997   66.1021   28.9390 H   0  0  0  0  0  0
  -39.0455   72.3516   32.1420 H   0  0  0  0  0  0
  -40.6691   71.6955   32.1665 H   0  0  0  0  0  0
  -39.5629   71.2687   33.4434 H   0  0  0  0  0  0
  -38.0397   63.5586   31.9386 H   0  0  0  0  0  0
  -40.6091   60.9943   34.2656 H   0  0  0  0  0  0
  -38.6492   59.6992   34.9620 H   0  0  0  0  0  0
  -36.0995   62.2436   32.6351 H   0  0  0  0  0  0
  -36.3875   60.3273   34.1386 H   0  0  0  0  0  0
  1  3  1  0  0  0
  1  4  2  0  0  0
  1  6  1  0  0  0
  2  4  1  0  0  0
  2 11  1  0  0  0
  2  5  1  0  0  0
  3  5  1  0  0  0
  3  7  2  0  0  0
  4 17  1  0  0  0
  5 18  2  0  0  0
  6  8  1  0  0  0
  6 13  2  0  0  0
  7  9  1  0  0  0
  7 21  1  0  0  0
  8 14  2  0  0  0
  8 16  1  0  0  0
  9 12  1  0  0  0
 10 12  1  0  0  0
 10 15  2  0  0  0
 10 19  1  0  0  0
 11 20  1  0  0  0
 11 29  1  0  0  0
 11 30  1  0  0  0
 12 23  1  0  0  0
 12 31  1  0  0  0
 16 32  1  0  0  0
 16 33  1  0  0  0
 17 34  1  0  0  0
 17 35  1  0  0  0
 17 36  1  0  0  0
 18 22  1  0  0  0
 18 37  1  0  0  0
 19 38  1  0  0  0
 20 24  2  0  0  0
 20 25  1  0  0  0
 21 22  2  0  0  0
 21 39  1  0  0  0
 22 40  1  0  0  0
 23 41  1  0  0  0
 23 42  1  0  0  0
 23 43  1  0  0  0
 24 27  1  0  0  0
 24 44  1  0  0  0
 25 26  2  0  0  0
 25 45  1  0  0  0
 26 28  1  0  0  0
 26 46  1  0  0  0
 27 28  2  0  0  0
 27 47  1  0  0  0
 28 48  1  0  0  0
M  END
> <s_m_entry_id>
68238

> <s_m_entry_name>
dock_pv.174

> <s_m_Source_Path>
/home/csk/Desktop/cluster/DUD-E-result/pa2ga

> <s_m_Source_File>
dock_pv.maegz

> <i_m_Source_File_Index>
174

> <chembl_id>
CHEMBL345275

> <chembl_pref_name>
None

> <i_lp_mmshare_version>
53161

> <i_f3d_flags>
0

> <r_lp_tautomer_probability>
1

> <s_lp_Force_Field>
OPLS_2005

> <r_lp_Energy>
26.156959

> <b_lp_Chiralities_Consistent>
1

> <s_lp_Variant>
CHEMBL3474_lig114-1

> <s_i_glide_gridfile>
glide-grid_1kvo

> <i_i_glide_lignum>
173

> <i_i_glide_rotatable_bonds>
8

> <r_i_docking_score>
-7.16762515959194

> <r_i_glide_ligand_efficiency>
-0.255986612842569

> <r_i_glide_ligand_efficiency_sa>
-0.777326124642148

> <r_i_glide_ligand_efficiency_ln>
-1.65449833745316

> <r_i_glide_gscore>
-7.16762515959194

> <r_i_glide_lipo>
-2.74511456925832

> <r_i_glide_hbond>
-0.0549035192105433

> <r_i_glide_metal>
0

> <r_i_glide_rewards>
-1.5296021359729

> <r_i_glide_evdw>
-36.8292007446289

> <r_i_glide_ecoul>
-11.6521244049072

> <r_i_glide_erotb>
0.804426384495576

> <r_i_glide_esite>
-0.0531526216782213

> <r_i_glide_emodel>
-70.6493674845528

> <r_i_glide_energy>
-48.4813251495361

> <r_i_glide_einternal>
3.37168788909912

> <i_i_glide_confnum>
15

> <i_i_glide_posenum>
144

> <r_i_glide_eff_state_penalty>
0

> <s_user_duplicate_titles>
CHEMBL3474_lig114,CHEMBL3474_lig126,247914

> <s_m_subgroup_title>
dock_pv

> <s_m_subgroupid>
dock_pv

> <b_m_subgroup_collapsed>
1

$$$$
CHEMBL3474_lig221
                    3D
 Schrodinger Suite 2021-1.
 61 64  0  0  1  0            999 V2000
  -39.4686   63.5627   33.5074 C   0  0  0  0  0  0
  -40.5894   63.3216   35.4435 N   0  0  0  0  0  0
  -40.0519   64.8346   33.8466 C   0  0  0  0  0  0
  -39.7602   62.6655   34.5332 C   0  0  0  0  0  0
  -40.8144   64.6525   35.0454 C   0  0  0  0  0  0
  -38.7795   63.2982   32.2410 C   0  0  0  0  0  0
  -39.9900   66.1187   33.2652 C   0  0  0  0  0  0
  -41.5719   65.7153   35.6176 C   0  0  0  0  0  0
  -37.3622   62.5822   32.2539 C   0  0  0  0  0  0
  -41.5014   66.9730   34.9702 C   0  0  0  0  0  0
  -40.7115   67.1544   33.8427 C   0  0  0  0  0  0
  -41.1814   62.6663   36.6228 C   0  0  0  0  0  0
  -39.1232   66.2834   32.2036 O   0  0  0  0  0  0
  -38.2829   68.3819   31.2333 C   0  0  0  0  0  0
  -39.1991   63.7756   31.1839 O   0  0  0  0  0  0
  -36.7526   62.3752   33.2960 O   0  0  0  0  0  0
  -37.2151   68.2563   31.8429 O   0  0  0  0  0  0
  -36.8968   62.2651   31.0430 N   0  0  0  0  0  0
  -39.3745   67.3041   31.2357 C   0  0  0  0  0  0
  -39.3253   61.1979   34.7194 C   0  0  0  0  0  0
  -42.6241   62.1803   36.4731 C   0  0  0  0  0  0
  -38.6368   69.4401   30.4793 O   0  0  0  0  0  0
  -42.3648   65.5717   36.9290 C   0  0  0  0  0  0
  -42.2897   68.1791   35.4856 C   0  0  0  0  0  0
  -43.4274   62.0882   37.6141 C   0  0  0  0  0  0
  -43.1376   61.7797   35.2343 C   0  0  0  0  0  0
  -37.7380   70.5243   30.2873 C   0  0  0  0  0  0
  -40.4044   60.1336   34.4650 C   0  0  0  0  0  0
  -43.2475   66.7776   37.3017 C   0  0  0  0  0  0
  -42.5511   68.1027   36.9934 C   0  0  0  0  0  0
  -44.7216   61.5848   37.5200 C   0  0  0  0  0  0
  -44.4149   61.2381   35.1493 C   0  0  0  0  0  0
  -45.2067   61.1503   36.2899 C   0  0  0  0  0  0
  -40.6476   68.1438   33.4165 H   0  0  0  0  0  0
  -41.0892   63.3441   37.4671 H   0  0  0  0  0  0
  -40.5749   61.8110   36.9152 H   0  0  0  0  0  0
  -36.0023   61.8102   30.9552 H   0  0  0  0  0  0
  -37.4224   62.5210   30.2096 H   0  0  0  0  0  0
  -39.3448   66.8121   30.2627 H   0  0  0  0  0  0
  -40.3663   67.7496   31.3172 H   0  0  0  0  0  0
  -38.5226   60.9342   34.0410 H   0  0  0  0  0  0
  -38.8779   61.0414   35.6993 H   0  0  0  0  0  0
  -43.0147   64.7023   36.8867 H   0  0  0  0  0  0
  -41.6551   65.4195   37.7426 H   0  0  0  0  0  0
  -41.7724   69.1109   35.2533 H   0  0  0  0  0  0
  -43.2445   68.2187   34.9579 H   0  0  0  0  0  0
  -43.0483   62.3931   38.5790 H   0  0  0  0  0  0
  -42.5468   61.8581   34.3347 H   0  0  0  0  0  0
  -38.2152   71.2982   29.6891 H   0  0  0  0  0  0
  -37.4398   70.9658   31.2380 H   0  0  0  0  0  0
  -36.8396   70.1969   29.7623 H   0  0  0  0  0  0
  -39.9495   59.1472   34.3764 H   0  0  0  0  0  0
  -41.1167   60.0678   35.2843 H   0  0  0  0  0  0
  -40.9469   60.3221   33.5380 H   0  0  0  0  0  0
  -43.5175   66.7262   38.3571 H   0  0  0  0  0  0
  -44.1875   66.7244   36.7490 H   0  0  0  0  0  0
  -41.6161   68.1820   37.5511 H   0  0  0  0  0  0
  -43.1755   68.9390   37.3103 H   0  0  0  0  0  0
  -45.3410   61.5110   38.4029 H   0  0  0  0  0  0
  -44.7995   60.8978   34.1990 H   0  0  0  0  0  0
  -46.2040   60.7419   36.2182 H   0  0  0  0  0  0
  1  3  1  0  0  0
  1  4  2  0  0  0
  1  6  1  0  0  0
  2  4  1  0  0  0
  2 12  1  0  0  0
  2  5  1  0  0  0
  3  5  1  0  0  0
  3  7  2  0  0  0
  4 20  1  0  0  0
  5  8  2  0  0  0
  6  9  1  0  0  0
  6 15  2  0  0  0
  7 11  1  0  0  0
  7 13  1  0  0  0
  8 23  1  0  0  0
  8 10  1  0  0  0
  9 16  2  0  0  0
  9 18  1  0  0  0
 10 11  2  0  0  0
 10 24  1  0  0  0
 11 34  1  0  0  0
 12 21  1  0  0  0
 12 35  1  0  0  0
 12 36  1  0  0  0
 13 19  1  0  0  0
 14 19  1  0  0  0
 14 17  2  0  0  0
 14 22  1  0  0  0
 18 37  1  0  0  0
 18 38  1  0  0  0
 19 39  1  0  0  0
 19 40  1  0  0  0
 20 28  1  0  0  0
 20 41  1  0  0  0
 20 42  1  0  0  0
 21 25  2  0  0  0
 21 26  1  0  0  0
 22 27  1  0  0  0
 23 29  1  0  0  0
 23 43  1  0  0  0
 23 44  1  0  0  0
 24 30  1  0  0  0
 24 45  1  0  0  0
 24 46  1  0  0  0
 25 31  1  0  0  0
 25 47  1  0  0  0
 26 32  2  0  0  0
 26 48  1  0  0  0
 27 49  1  0  0  0
 27 50  1  0  0  0
 27 51  1  0  0  0
 28 52  1  0  0  0
 28 53  1  0  0  0
 28 54  1  0  0  0
 29 30  1  0  0  0
 29 55  1  0  0  0
 29 56  1  0  0  0
 30 57  1  0  0  0
 30 58  1  0  0  0
 31 33  2  0  0  0
 31 59  1  0  0  0
 32 33  1  0  0  0
 32 60  1  0  0  0
 33 61  1  0  0  0
M  END
> <s_m_entry_id>
68240

> <s_m_entry_name>
dock_pv.176

> <s_m_Source_Path>
/home/csk/Desktop/cluster/DUD-E-result/pa2ga

> <s_m_Source_File>
dock_pv.maegz

> <i_m_Source_File_Index>
176

> <chembl_id>
CHEMBL178405

> <chembl_pref_name>
None

> <i_lp_mmshare_version>
53161

> <i_f3d_flags>
0

> <r_lp_tautomer_probability>
1

> <s_lp_Force_Field>
OPLS_2005

> <r_lp_Energy>
28.852143

> <b_lp_Chiralities_Consistent>
1

> <s_lp_Variant>
CHEMBL3474_lig221-1

> <s_i_glide_gridfile>
glide-grid_1kvo

> <i_i_glide_lignum>
283

> <i_i_glide_rotatable_bonds>
9

> <r_i_docking_score>
-7.14663650817436

> <r_i_glide_ligand_efficiency>
-0.21656474267195

> <r_i_glide_ligand_efficiency_sa>
-0.694638845977389

> <r_i_glide_ligand_efficiency_ln>
-1.58937495611451

> <r_i_glide_gscore>
-7.14663650817436

> <r_i_glide_lipo>
-3.20795129721361

> <r_i_glide_hbond>
-0.490608474726897

> <r_i_glide_metal>
0

> <r_i_glide_rewards>
-0.796241659296484

> <r_i_glide_evdw>
-43.6588020324707

> <r_i_glide_ecoul>
-6.8665018081665

> <r_i_glide_erotb>
0.597529065227682

> <r_i_glide_esite>
-0.0364487693165368

> <r_i_glide_emodel>
-76.7038164219461

> <r_i_glide_energy>
-50.5253038406372

> <r_i_glide_einternal>
2.31516218185425

> <i_i_glide_confnum>
52

> <i_i_glide_posenum>
389

> <r_i_glide_eff_state_penalty>
0

> <s_user_duplicate_titles>
CHEMBL3474_lig221,299366

> <s_m_subgroup_title>
dock_pv

> <s_m_subgroupid>
dock_pv

> <b_m_subgroup_collapsed>
1

$$$$
CHEMBL3474_lig102
                    3D
 Schrodinger Suite 2021-1.
 45 47  0  0  1  0            999 V2000
  -40.9027   66.6005   33.9808 C   0  0  0  0  0  0
  -40.7059   64.6110   32.9207 N   0  0  0  0  0  0
  -41.1446   65.2234   34.0806 C   0  0  0  0  0  0
  -40.2840   66.8294   32.6832 C   0  0  0  0  0  0
  -40.1963   65.5531   32.0490 C   0  0  0  0  0  0
  -41.3095   67.6329   34.9533 C   0  0  0  0  0  0
  -41.2027   67.3062   36.5074 C   0  0  0  0  0  0
  -40.7308   63.1738   32.6422 C   0  0  0  0  0  0
  -39.7619   67.9430   31.9733 C   0  0  0  0  0  0
  -37.6173   70.1616   31.7578 C   0  0  0  0  0  0
  -41.6148   68.7826   34.6242 O   0  0  0  0  0  0
  -39.7175   69.1520   32.6439 O   0  0  0  0  0  0
  -40.4069   66.4843   36.9554 O   0  0  0  0  0  0
  -36.8808   69.2967   32.2403 O   0  0  0  0  0  0
  -42.0168   68.0496   37.2618 N   0  0  0  0  0  0
  -39.1285   70.3130   32.0377 C   0  0  0  0  0  0
  -41.8143   64.3872   35.1666 C   0  0  0  0  0  0
  -39.6605   65.3804   30.7658 C   0  0  0  0  0  0
  -39.4664   62.4218   33.0437 C   0  0  0  0  0  0
  -37.2149   71.0877   30.8524 O   0  0  0  0  0  0
  -39.2153   66.5044   30.0924 C   0  0  0  0  0  0
  -39.2912   67.7596   30.6642 C   0  0  0  0  0  0
  -38.2030   62.8315   32.5970 C   0  0  0  0  0  0
  -39.5903   61.2537   33.7987 C   0  0  0  0  0  0
  -38.4648   60.4927   34.0868 C   0  0  0  0  0  0
  -37.0774   62.0681   32.8882 C   0  0  0  0  0  0
  -37.2150   60.8993   33.6294 C   0  0  0  0  0  0
  -40.8888   63.0401   31.5725 H   0  0  0  0  0  0
  -41.6150   62.7277   33.0938 H   0  0  0  0  0  0
  -42.0141   67.9335   38.2641 H   0  0  0  0  0  0
  -42.6193   68.7344   36.8296 H   0  0  0  0  0  0
  -39.6679   70.5631   31.1227 H   0  0  0  0  0  0
  -39.2639   71.1499   32.7226 H   0  0  0  0  0  0
  -42.3584   64.9770   35.9000 H   0  0  0  0  0  0
  -42.5642   63.7059   34.7693 H   0  0  0  0  0  0
  -41.0873   63.7856   35.7122 H   0  0  0  0  0  0
  -39.5826   64.4157   30.2946 H   0  0  0  0  0  0
  -36.2750   70.9467   30.6431 H   0  0  0  0  0  0
  -38.8087   66.3945   29.0958 H   0  0  0  0  0  0
  -38.9343   68.5856   30.0697 H   0  0  0  0  0  0
  -38.0805   63.7173   31.9957 H   0  0  0  0  0  0
  -40.5590   60.9135   34.1363 H   0  0  0  0  0  0
  -38.5703   59.5764   34.6435 H   0  0  0  0  0  0
  -36.1060   62.3675   32.5229 H   0  0  0  0  0  0
  -36.3443   60.2975   33.8432 H   0  0  0  0  0  0
  1  3  2  0  0  0
  1  4  1  0  0  0
  1  6  1  0  0  0
  2  3  1  0  0  0
  2  8  1  0  0  0
  2  5  1  0  0  0
  3 17  1  0  0  0
  4  5  1  0  0  0
  4  9  2  0  0  0
  5 18  2  0  0  0
  6  7  1  0  0  0
  6 11  2  0  0  0
  7 13  2  0  0  0
  7 15  1  0  0  0
  8 19  1  0  0  0
  8 28  1  0  0  0
  8 29  1  0  0  0
  9 12  1  0  0  0
  9 22  1  0  0  0
 10 16  1  0  0  0
 10 14  2  0  0  0
 10 20  1  0  0  0
 12 16  1  0  0  0
 15 30  1  0  0  0
 15 31  1  0  0  0
 16 32  1  0  0  0
 16 33  1  0  0  0
 17 34  1  0  0  0
 17 35  1  0  0  0
 17 36  1  0  0  0
 18 21  1  0  0  0
 18 37  1  0  0  0
 19 23  2  0  0  0
 19 24  1  0  0  0
 20 38  1  0  0  0
 21 22  2  0  0  0
 21 39  1  0  0  0
 22 40  1  0  0  0
 23 26  1  0  0  0
 23 41  1  0  0  0
 24 25  2  0  0  0
 24 42  1  0  0  0
 25 27  1  0  0  0
 25 43  1  0  0  0
 26 27  2  0  0  0
 26 44  1  0  0  0
 27 45  1  0  0  0
M  END
> <s_m_entry_id>
68241

> <s_m_entry_name>
dock_pv.177

> <s_m_Source_Path>
/home/csk/Desktop/cluster/DUD-E-result/pa2ga

> <s_m_Source_File>
dock_pv.maegz

> <i_m_Source_File_Index>
177

> <chembl_id>
CHEMBL346196

> <chembl_pref_name>
None

> <i_lp_mmshare_version>
53161

> <i_f3d_flags>
0

> <r_lp_tautomer_probability>
1

> <s_lp_Force_Field>
OPLS_2005

> <r_lp_Energy>
23.961088

> <b_lp_Chiralities_Consistent>
1

> <s_lp_Variant>
CHEMBL3474_lig102-1

> <s_i_glide_gridfile>
glide-grid_1kvo

> <i_i_glide_lignum>
160

> <i_i_glide_rotatable_bonds>
8

> <r_i_docking_score>
-7.1391512104361

> <r_i_glide_ligand_efficiency>
-0.26441300779393

> <r_i_glide_ligand_efficiency_sa>
-0.793239022510327

> <r_i_glide_ligand_efficiency_ln>
-1.66187670368321

> <r_i_glide_gscore>
-7.1391512104361

> <r_i_glide_lipo>
-2.746767774104

> <r_i_glide_hbond>
-0.128334227670768

> <r_i_glide_metal>
0

> <r_i_glide_rewards>
-1.61395007415685

> <r_i_glide_evdw>
-38.7839202880859

> <r_i_glide_ecoul>
-10.0702705383301

> <r_i_glide_erotb>
0.860344718233555

> <r_i_glide_esite>
-0.0607072575842363

> <r_i_glide_emodel>
-71.0410564064472

> <r_i_glide_energy>
-48.854190826416

> <r_i_glide_einternal>
2.97138738632202

> <i_i_glide_confnum>
65

> <i_i_glide_posenum>
149

> <r_i_glide_eff_state_penalty>
0

> <s_user_duplicate_titles>
CHEMBL3474_lig102,247971

> <s_m_subgroup_title>
dock_pv

> <s_m_subgroupid>
dock_pv

> <b_m_subgroup_collapsed>
1

$$$$
CHEMBL3474_lig200
                    3D
 Schrodinger Suite 2021-1.
 75 77  0  0  1  0            999 V2000
  -38.8834   62.4589   33.1148 C   0  0  0  0  0  0
  -40.1154   62.1956   33.7396 C   0  0  0  0  0  0
  -38.7383   63.8406   32.9829 N   0  0  0  0  0  0
  -40.7137   63.4668   34.0426 C   0  0  0  0  0  0
  -39.7811   64.4700   33.6550 C   0  0  0  0  0  0
  -37.8847   61.4950   32.6864 C   0  0  0  0  0  0
  -40.7127   60.8971   34.0715 C   0  0  0  0  0  0
  -38.7484   71.5994   28.8430 C   0  0  0  0  0  0
  -38.6540   70.2565   29.5282 C   0  0  0  0  0  0
  -39.2118   70.1020   30.8015 C   0  0  0  0  0  0
  -39.2187   68.8620   31.4274 C   0  0  0  0  0  0
  -38.6353   67.7443   30.8168 C   0  0  0  0  0  0
  -37.4067   60.6568   33.4434 O   0  0  0  0  0  0
  -39.1748   72.5945   29.4265 O   0  0  0  0  0  0
  -38.0572   69.1440   28.9152 C   0  0  0  0  0  0
  -40.1029   60.0348   34.7020 O   0  0  0  0  0  0
  -37.6306   64.5615   32.3196 C   0  0  0  0  0  0
  -38.0506   67.8993   29.5517 C   0  0  0  0  0  0
  -37.5307   61.6270   31.3729 O   0  0  0  0  0  0
  -38.4151   71.6060   27.5220 O   0  0  0  0  0  0
  -41.9195   63.8761   34.6431 C   0  0  0  0  0  0
  -39.8524   68.7466   32.6360 O   0  0  0  0  0  0
  -38.6895   66.5590   31.5248 O   0  0  0  0  0  0
  -39.9905   65.8216   33.9672 C   0  0  0  0  0  0
  -38.0859   65.3505   31.0696 C   0  0  0  0  0  0
  -42.0985   60.5717   33.4929 C   0  0  0  0  0  0
  -43.0838   59.8036   34.4097 C   0  0  0  0  0  0
  -39.4132   66.3812   39.5873 C   0  0  0  0  0  0
  -42.1442   65.2279   34.8924 C   0  0  0  0  0  0
  -40.2763   65.6327   38.5527 C   0  0  0  0  0  0
  -43.8814   60.6726   35.4026 C   0  0  0  0  0  0
  -43.0861   61.1161   36.6437 C   0  0  0  0  0  0
  -43.8683   62.0887   37.5563 C   0  0  0  0  0  0
  -43.0302   62.8105   38.6392 C   0  0  0  0  0  0
  -42.0518   63.8575   38.0826 C   0  0  0  0  0  0
  -41.2488   64.6030   39.1637 C   0  0  0  0  0  0
  -41.1851   66.1782   34.5834 C   0  0  0  0  0  0
  -40.1904   67.3952   40.4404 C   0  0  0  0  0  0
  -39.6773   70.9375   31.3060 H   0  0  0  0  0  0
  -37.6130   69.2279   27.9320 H   0  0  0  0  0  0
  -37.1931   65.2413   33.0432 H   0  0  0  0  0  0
  -36.8285   63.8759   32.0491 H   0  0  0  0  0  0
  -37.6163   67.0587   29.0364 H   0  0  0  0  0  0
  -38.0152   62.2953   30.8824 H   0  0  0  0  0  0
  -38.8480   72.3663   27.0988 H   0  0  0  0  0  0
  -42.6710   63.1605   34.9243 H   0  0  0  0  0  0
  -39.9678   67.8205   32.8630 H   0  0  0  0  0  0
  -39.2296   66.5612   33.7888 H   0  0  0  0  0  0
  -37.2151   65.5243   30.4480 H   0  0  0  0  0  0
  -38.7987   64.7853   30.4675 H   0  0  0  0  0  0
  -41.8960   59.9271   32.6426 H   0  0  0  0  0  0
  -42.5716   61.4696   33.0960 H   0  0  0  0  0  0
  -42.5750   58.9943   34.9346 H   0  0  0  0  0  0
  -43.7998   59.3004   33.7594 H   0  0  0  0  0  0
  -38.6094   66.8983   39.0631 H   0  0  0  0  0  0
  -38.9184   65.6654   40.2426 H   0  0  0  0  0  0
  -43.0654   65.5392   35.3624 H   0  0  0  0  0  0
  -40.8301   66.3563   37.9513 H   0  0  0  0  0  0
  -39.6149   65.1131   37.8556 H   0  0  0  0  0  0
  -44.7495   60.1034   35.7410 H   0  0  0  0  0  0
  -44.2894   61.5371   34.8767 H   0  0  0  0  0  0
  -42.1394   61.5626   36.3482 H   0  0  0  0  0  0
  -42.8207   60.2165   37.1928 H   0  0  0  0  0  0
  -44.6760   61.5372   38.0406 H   0  0  0  0  0  0
  -44.3609   62.8467   36.9425 H   0  0  0  0  0  0
  -42.4741   62.0959   39.2420 H   0  0  0  0  0  0
  -43.7148   63.3057   39.3296 H   0  0  0  0  0  0
  -42.6156   64.5865   37.5026 H   0  0  0  0  0  0
  -41.3514   63.3819   37.3961 H   0  0  0  0  0  0
  -40.6874   63.8827   39.7624 H   0  0  0  0  0  0
  -41.9381   65.0998   39.8480 H   0  0  0  0  0  0
  -41.3722   67.2109   34.8404 H   0  0  0  0  0  0
  -39.5173   67.9181   41.1213 H   0  0  0  0  0  0
  -40.9514   66.9069   41.0479 H   0  0  0  0  0  0
  -40.6825   68.1433   39.8187 H   0  0  0  0  0  0
  1  2  2  0  0  0
  1  3  1  0  0  0
  1  6  1  0  0  0
  2  4  1  0  0  0
  2  7  1  0  0  0
  3  5  1  0  0  0
  3 17  1  0  0  0
  4 21  1  0  0  0
  4  5  2  0  0  0
  5 24  1  0  0  0
  6 13  2  0  0  0
  6 19  1  0  0  0
  7 16  2  0  0  0
  7 26  1  0  0  0
  8  9  1  0  0  0
  8 14  2  0  0  0
  8 20  1  0  0  0
  9 15  2  0  0  0
  9 10  1  0  0  0
 10 11  2  0  0  0
 10 39  1  0  0  0
 11 12  1  0  0  0
 11 22  1  0  0  0
 12 23  1  0  0  0
 12 18  2  0  0  0
 15 18  1  0  0  0
 15 40  1  0  0  0
 17 25  1  0  0  0
 17 41  1  0  0  0
 17 42  1  0  0  0
 18 43  1  0  0  0
 19 44  1  0  0  0
 20 45  1  0  0  0
 21 29  2  0  0  0
 21 46  1  0  0  0
 22 47  1  0  0  0
 23 25  1  0  0  0
 24 37  2  0  0  0
 24 48  1  0  0  0
 25 49  1  0  0  0
 25 50  1  0  0  0
 26 27  1  0  0  0
 26 51  1  0  0  0
 26 52  1  0  0  0
 27 31  1  0  0  0
 27 53  1  0  0  0
 27 54  1  0  0  0
 28 30  1  0  0  0
 28 38  1  0  0  0
 28 55  1  0  0  0
 28 56  1  0  0  0
 29 37  1  0  0  0
 29 57  1  0  0  0
 30 36  1  0  0  0
 30 58  1  0  0  0
 30 59  1  0  0  0
 31 32  1  0  0  0
 31 60  1  0  0  0
 31 61  1  0  0  0
 32 33  1  0  0  0
 32 62  1  0  0  0
 32 63  1  0  0  0
 33 34  1  0  0  0
 33 64  1  0  0  0
 33 65  1  0  0  0
 34 35  1  0  0  0
 34 66  1  0  0  0
 34 67  1  0  0  0
 35 36  1  0  0  0
 35 68  1  0  0  0
 35 69  1  0  0  0
 36 70  1  0  0  0
 36 71  1  0  0  0
 37 72  1  0  0  0
 38 73  1  0  0  0
 38 74  1  0  0  0
 38 75  1  0  0  0
M  END
> <s_m_entry_id>
68242

> <s_m_entry_name>
dock_pv.178

> <s_m_Source_Path>
/home/csk/Desktop/cluster/DUD-E-result/pa2ga

> <s_m_Source_File>
dock_pv.maegz

> <i_m_Source_File_Index>
178

> <chembl_id>
CHEMBL88060

> <chembl_pref_name>
None

> <i_lp_mmshare_version>
53161

> <i_f3d_flags>
0

> <r_lp_tautomer_probability>
0.99990000499975

> <s_lp_Force_Field>
OPLS_2005

> <r_lp_Energy>
33.088057

> <b_lp_Chiralities_Consistent>
1

> <s_lp_Variant>
CHEMBL3474_lig200-1

> <s_i_glide_gridfile>
glide-grid_1kvo

> <i_i_glide_lignum>
262

> <i_i_glide_rotatable_bonds>
20

> <r_i_docking_score>
-7.13100507579916

> <r_i_glide_ligand_efficiency>
-0.187658028310504

> <r_i_glide_ligand_efficiency_sa>
-0.630901675303312

> <r_i_glide_ligand_efficiency_ln>
-1.53765446725843

> <r_i_glide_gscore>
-7.13100507579916

> <r_i_glide_lipo>
-3.37285714370848

> <r_i_glide_hbond>
0

> <r_i_glide_metal>
0

> <r_i_glide_rewards>
-0.954326004495793

> <r_i_glide_evdw>
-54.0358924865723

> <r_i_glide_ecoul>
-8.31352996826172

> <r_i_glide_erotb>
1.20047731009234

> <r_i_glide_esite>
-0.0554751181193514

> <r_i_glide_emodel>
-84.0000851227289

> <r_i_glide_energy>
-62.349422454834

> <r_i_glide_einternal>
12.4434614181519

> <i_i_glide_confnum>
2

> <i_i_glide_posenum>
241

> <r_i_glide_eff_state_penalty>
0

> <s_user_duplicate_titles>
CHEMBL3474_lig200

> <s_m_subgroup_title>
dock_pv

> <s_m_subgroupid>
dock_pv

> <b_m_subgroup_collapsed>
1

$$$$
CHEMBL3474_lig169
                    3D
 Schrodinger Suite 2021-1.
 45 47  0  0  1  0            999 V2000
  -38.7663   64.2150   33.2437 C   0  0  0  0  0  0
  -39.7751   62.9579   34.8411 N   0  0  0  0  0  0
  -38.7718   62.9625   33.8761 C   0  0  0  0  0  0
  -39.8257   64.9999   33.8423 C   0  0  0  0  0  0
  -40.4147   64.1891   34.8550 C   0  0  0  0  0  0
  -37.8021   64.6372   32.2064 C   0  0  0  0  0  0
  -38.0151   65.9761   31.4140 C   0  0  0  0  0  0
  -40.1912   61.8319   35.6926 C   0  0  0  0  0  0
  -41.4375   64.6682   35.6857 C   0  0  0  0  0  0
  -40.2997   66.3207   33.6970 C   0  0  0  0  0  0
  -36.7929   63.9897   31.9243 O   0  0  0  0  0  0
  -37.6151   67.0589   31.8425 O   0  0  0  0  0  0
  -38.6209   65.7807   30.2422 N   0  0  0  0  0  0
  -37.8337   61.7688   33.6594 C   0  0  0  0  0  0
  -41.2742   66.8242   34.5545 C   0  0  0  0  0  0
  -41.8402   65.9894   35.5212 C   0  0  0  0  0  0
  -41.4204   61.1340   35.1442 C   0  0  0  0  0  0
  -41.6000   68.1561   34.3919 O   0  0  0  0  0  0
  -42.6869   61.4408   35.6506 C   0  0  0  0  0  0
  -41.2834   60.2425   34.0802 C   0  0  0  0  0  0
  -42.5077   68.7691   35.3035 C   0  0  0  0  0  0
  -38.0156   61.0853   32.2947 C   0  0  0  0  0  0
  -42.4134   59.7304   33.4594 C   0  0  0  0  0  0
  -43.8181   60.9171   35.0386 C   0  0  0  0  0  0
  -43.6651   60.0923   33.9309 C   0  0  0  0  0  0
  -39.3824   61.1226   35.8432 H   0  0  0  0  0  0
  -40.4151   62.2174   36.6882 H   0  0  0  0  0  0
  -41.8772   64.0687   36.4671 H   0  0  0  0  0  0
  -39.8839   66.9946   32.9676 H   0  0  0  0  0  0
  -38.7773   66.5611   29.6236 H   0  0  0  0  0  0
  -38.8098   64.8414   29.9156 H   0  0  0  0  0  0
  -36.8034   62.1196   33.7222 H   0  0  0  0  0  0
  -37.8827   61.0095   34.4341 H   0  0  0  0  0  0
  -42.6053   66.3609   36.1854 H   0  0  0  0  0  0
  -42.8084   62.1020   36.4935 H   0  0  0  0  0  0
  -40.3079   59.9673   33.7193 H   0  0  0  0  0  0
  -42.6234   69.8214   35.0422 H   0  0  0  0  0  0
  -42.1350   68.7241   36.3290 H   0  0  0  0  0  0
  -43.4957   68.3073   35.2584 H   0  0  0  0  0  0
  -37.2151   60.3813   32.1027 H   0  0  0  0  0  0
  -38.9386   60.5185   32.2434 H   0  0  0  0  0  0
  -38.0143   61.7924   31.4655 H   0  0  0  0  0  0
  -42.3302   59.0748   32.6061 H   0  0  0  0  0  0
  -44.8048   61.1638   35.4032 H   0  0  0  0  0  0
  -44.5312   59.6977   33.4368 H   0  0  0  0  0  0
  1  3  2  0  0  0
  1  4  1  0  0  0
  1  6  1  0  0  0
  2  3  1  0  0  0
  2  8  1  0  0  0
  2  5  1  0  0  0
  3 14  1  0  0  0
  4  5  1  0  0  0
  4 10  2  0  0  0
  5  9  2  0  0  0
  6  7  1  0  0  0
  6 11  2  0  0  0
  7 12  2  0  0  0
  7 13  1  0  0  0
  8 17  1  0  0  0
  8 26  1  0  0  0
  8 27  1  0  0  0
  9 16  1  0  0  0
  9 28  1  0  0  0
 10 15  1  0  0  0
 10 29  1  0  0  0
 13 30  1  0  0  0
 13 31  1  0  0  0
 14 22  1  0  0  0
 14 32  1  0  0  0
 14 33  1  0  0  0
 15 16  2  0  0  0
 15 18  1  0  0  0
 16 34  1  0  0  0
 17 19  2  0  0  0
 17 20  1  0  0  0
 18 21  1  0  0  0
 19 24  1  0  0  0
 19 35  1  0  0  0
 20 23  2  0  0  0
 20 36  1  0  0  0
 21 37  1  0  0  0
 21 38  1  0  0  0
 21 39  1  0  0  0
 22 40  1  0  0  0
 22 41  1  0  0  0
 22 42  1  0  0  0
 23 25  1  0  0  0
 23 43  1  0  0  0
 24 25  2  0  0  0
 24 44  1  0  0  0
 25 45  1  0  0  0
M  END
> <s_m_entry_id>
68243

> <s_m_entry_name>
dock_pv.179

> <s_m_Source_Path>
/home/csk/Desktop/cluster/DUD-E-result/pa2ga

> <s_m_Source_File>
dock_pv.maegz

> <i_m_Source_File_Index>
179

> <chembl_id>
CHEMBL151669

> <chembl_pref_name>
None

> <i_lp_mmshare_version>
53161

> <i_f3d_flags>
0

> <r_lp_tautomer_probability>
1

> <s_lp_Force_Field>
OPLS_2005

> <r_lp_Energy>
20.111961

> <b_lp_Chiralities_Consistent>
1

> <s_lp_Variant>
CHEMBL3474_lig169-1

> <s_i_glide_gridfile>
glide-grid_1kvo

> <i_i_glide_lignum>
230

> <i_i_glide_rotatable_bonds>
6

> <r_i_docking_score>
-7.13036045355284

> <r_i_glide_ligand_efficiency>
-0.285214418142113

> <r_i_glide_ligand_efficiency_sa>
-0.833972016946784

> <r_i_glide_ligand_efficiency_ln>
-1.69010910715192

> <r_i_glide_gscore>
-7.13036045355284

> <r_i_glide_lipo>
-3.18366044319663

> <r_i_glide_hbond>
-0.150137294362928

> <r_i_glide_metal>
0

> <r_i_glide_rewards>
-1.43137675341279

> <r_i_glide_evdw>
-37.7429046630859

> <r_i_glide_ecoul>
-5.15206527709961

> <r_i_glide_erotb>
0.500705400023441

> <r_i_glide_esite>
-0.205936337884696

> <r_i_glide_emodel>
-60.9916181553759

> <r_i_glide_energy>
-42.8949699401855

> <r_i_glide_einternal>
10.5047369003296

> <i_i_glide_confnum>
1

> <i_i_glide_posenum>
144

> <r_i_glide_eff_state_penalty>
0

> <s_user_duplicate_titles>
CHEMBL3474_lig169

> <s_m_subgroup_title>
dock_pv

> <s_m_subgroupid>
dock_pv

> <b_m_subgroup_collapsed>
1

$$$$
CHEMBL3474_lig158
                    3D
 Schrodinger Suite 2021-1.
 45 47  0  0  1  0            999 V2000
  -40.4385   62.8336   35.3770 N   0  0  0  0  0  0
  -39.7174   64.3432   33.8472 C   0  0  0  0  0  0
  -40.6284   64.1090   34.8746 C   0  0  0  0  0  0
  -38.9514   63.1262   33.6996 C   0  0  0  0  0  0
  -39.4848   62.1773   34.6220 C   0  0  0  0  0  0
  -39.5217   65.6508   33.0894 C   0  0  0  0  0  0
  -41.1819   62.2376   36.4936 C   0  0  0  0  0  0
  -39.7199   65.5409   31.5716 C   0  0  0  0  0  0
  -37.8702   62.7309   32.8826 C   0  0  0  0  0  0
  -40.6952   64.9379   31.1058 O   0  0  0  0  0  0
  -38.7666   66.1393   30.8317 N   0  0  0  0  0  0
  -39.0282   60.8556   34.6856 C   0  0  0  0  0  0
  -41.6880   65.0234   35.4664 C   0  0  0  0  0  0
  -38.8055   66.0976   29.4416 N   0  0  0  0  0  0
  -42.5629   61.7210   36.1250 C   0  0  0  0  0  0
  -37.3318   63.7080   32.0731 O   0  0  0  0  0  0
  -37.9969   60.4985   33.8250 C   0  0  0  0  0  0
  -37.4074   61.4133   32.9638 C   0  0  0  0  0  0
  -43.6527   62.0347   36.9421 C   0  0  0  0  0  0
  -42.7441   60.9387   34.9806 C   0  0  0  0  0  0
  -36.4348   63.3118   31.0430 C   0  0  0  0  0  0
  -44.9259   61.5938   36.5998 C   0  0  0  0  0  0
  -44.0154   60.4991   34.6377 C   0  0  0  0  0  0
  -45.1010   60.8378   35.4448 C   0  0  0  0  0  0
  -40.1977   66.4321   33.4373 H   0  0  0  0  0  0
  -38.5195   66.0279   33.3043 H   0  0  0  0  0  0
  -41.2398   62.9813   37.2905 H   0  0  0  0  0  0
  -40.6010   61.4143   36.9126 H   0  0  0  0  0  0
  -38.0449   66.7324   31.2090 H   0  0  0  0  0  0
  -39.4436   60.1310   35.3715 H   0  0  0  0  0  0
  -41.8055   65.9525   34.9086 H   0  0  0  0  0  0
  -42.6731   64.5505   35.4715 H   0  0  0  0  0  0
  -41.4557   65.2987   36.4969 H   0  0  0  0  0  0
  -38.4588   65.1863   29.1512 H   0  0  0  0  0  0
  -39.7767   66.1628   29.1568 H   0  0  0  0  0  0
  -37.6231   59.4868   33.8395 H   0  0  0  0  0  0
  -36.5820   61.0808   32.3536 H   0  0  0  0  0  0
  -43.5219   62.6254   37.8379 H   0  0  0  0  0  0
  -41.9085   60.6805   34.3454 H   0  0  0  0  0  0
  -36.4029   64.0972   30.2890 H   0  0  0  0  0  0
  -35.4281   63.1621   31.4356 H   0  0  0  0  0  0
  -36.7545   62.4053   30.5285 H   0  0  0  0  0  0
  -45.7730   61.8378   37.2241 H   0  0  0  0  0  0
  -44.1683   59.9044   33.7482 H   0  0  0  0  0  0
  -46.0897   60.4995   35.1706 H   0  0  0  0  0  0
  1  3  1  0  0  0
  1  5  1  0  0  0
  1  7  1  0  0  0
  2  3  2  0  0  0
  2  6  1  0  0  0
  2  4  1  0  0  0
  3 13  1  0  0  0
  4  5  1  0  0  0
  4  9  2  0  0  0
  5 12  2  0  0  0
  6  8  1  0  0  0
  6 25  1  0  0  0
  6 26  1  0  0  0
  7 15  1  0  0  0
  7 27  1  0  0  0
  7 28  1  0  0  0
  8 10  2  0  0  0
  8 11  1  0  0  0
  9 16  1  0  0  0
  9 18  1  0  0  0
 11 14  1  0  0  0
 11 29  1  0  0  0
 12 17  1  0  0  0
 12 30  1  0  0  0
 13 31  1  0  0  0
 13 32  1  0  0  0
 13 33  1  0  0  0
 14 34  1  0  0  0
 14 35  1  0  0  0
 15 19  1  0  0  0
 15 20  2  0  0  0
 16 21  1  0  0  0
 17 18  2  0  0  0
 17 36  1  0  0  0
 18 37  1  0  0  0
 19 22  2  0  0  0
 19 38  1  0  0  0
 20 23  1  0  0  0
 20 39  1  0  0  0
 21 40  1  0  0  0
 21 41  1  0  0  0
 21 42  1  0  0  0
 22 24  1  0  0  0
 22 43  1  0  0  0
 23 24  2  0  0  0
 23 44  1  0  0  0
 24 45  1  0  0  0
M  END
> <s_m_entry_id>
68244

> <s_m_entry_name>
dock_pv.180

> <s_m_Source_Path>
/home/csk/Desktop/cluster/DUD-E-result/pa2ga

> <s_m_Source_File>
dock_pv.maegz

> <i_m_Source_File_Index>
180

> <chembl_id>
CHEMBL149430

> <chembl_pref_name>
None

> <i_lp_mmshare_version>
53161

> <i_f3d_flags>
0

> <r_lp_tautomer_probability>
1

> <s_lp_Force_Field>
OPLS_2005

> <r_lp_Energy>
16.446884

> <b_lp_Chiralities_Consistent>
1

> <s_lp_Variant>
CHEMBL3474_lig158-1

> <s_i_glide_gridfile>
glide-grid_1kvo

> <i_i_glide_lignum>
219

> <i_i_glide_rotatable_bonds>
6

> <r_i_docking_score>
-7.13025174242472

> <r_i_glide_ligand_efficiency>
-0.29709382260103

> <r_i_glide_ligand_efficiency_sa>
-0.856966875066813

> <r_i_glide_ligand_efficiency_ln>
-1.70659642789498

> <r_i_glide_gscore>
-7.13025174242472

> <r_i_glide_lipo>
-3.31605074706373

> <r_i_glide_hbond>
-0.268638306143355

> <r_i_glide_metal>
0

> <r_i_glide_rewards>
-1.60777476499144

> <r_i_glide_evdw>
-41.1870880126953

> <r_i_glide_ecoul>
-3.70808267593384

> <r_i_glide_erotb>
0.71575007783324

> <r_i_glide_esite>
-0.0379712000346059

> <r_i_glide_emodel>
-65.7341107676292

> <r_i_glide_energy>
-44.8951706886292

> <r_i_glide_einternal>
3.79611849784851

> <i_i_glide_confnum>
3

> <i_i_glide_posenum>
308

> <r_i_glide_eff_state_penalty>
0

> <s_user_duplicate_titles>
CHEMBL3474_lig158,246336

> <s_m_subgroup_title>
dock_pv

> <s_m_subgroupid>
dock_pv

> <b_m_subgroup_collapsed>
1

$$$$
CHEMBL3474_lig31
                    3D
 Schrodinger Suite 2021-1.
 40 42  0  0  1  0            999 V2000
  -39.8941   65.7071   31.9038 N   0  0  0  0  0  0
  -39.5420   67.9443   31.8552 C   0  0  0  0  0  0
  -39.3002   66.7434   31.1966 C   0  0  0  0  0  0
  -40.2845   67.6169   33.0403 C   0  0  0  0  0  0
  -40.4920   66.2054   33.0478 C   0  0  0  0  0  0
  -39.1534   69.3554   31.4080 C   0  0  0  0  0  0
  -39.9105   64.2921   31.5217 C   0  0  0  0  0  0
  -41.2079   65.5693   34.0727 C   0  0  0  0  0  0
  -37.6462   69.6461   31.3694 C   0  0  0  0  0  0
  -40.8148   68.3799   34.0916 C   0  0  0  0  0  0
  -36.8171   68.8984   31.8756 O   0  0  0  0  0  0
  -41.5145   67.7448   35.1142 C   0  0  0  0  0  0
  -37.2589   70.7551   30.7516 N   0  0  0  0  0  0
  -41.7055   66.3699   35.1015 C   0  0  0  0  0  0
  -38.5645   66.5061   29.8884 C   0  0  0  0  0  0
  -38.9387   63.3890   32.2736 C   0  0  0  0  0  0
  -42.0263   68.5000   36.1314 O   0  0  0  0  0  0
  -37.6160   63.2813   31.8399 C   0  0  0  0  0  0
  -39.3893   62.6078   33.3411 C   0  0  0  0  0  0
  -38.5233   61.7144   33.9694 C   0  0  0  0  0  0
  -36.7598   62.3735   32.4511 C   0  0  0  0  0  0
  -37.2153   61.5956   33.5139 C   0  0  0  0  0  0
  -39.5670   69.5440   30.4151 H   0  0  0  0  0  0
  -39.6058   70.1065   32.0572 H   0  0  0  0  0  0
  -40.9306   63.9218   31.6291 H   0  0  0  0  0  0
  -39.7024   64.2160   30.4608 H   0  0  0  0  0  0
  -41.3851   64.5085   34.0763 H   0  0  0  0  0  0
  -40.6793   69.4522   34.1232 H   0  0  0  0  0  0
  -36.2517   70.8977   30.6409 H   0  0  0  0  0  0
  -37.9133   71.3820   30.3160 H   0  0  0  0  0  0
  -42.2520   65.8945   35.9058 H   0  0  0  0  0  0
  -38.2012   67.4328   29.4454 H   0  0  0  0  0  0
  -37.6916   65.8677   30.0204 H   0  0  0  0  0  0
  -39.2015   66.0325   29.1419 H   0  0  0  0  0  0
  -42.4552   67.9690   36.8043 H   0  0  0  0  0  0
  -37.2599   63.8571   31.0001 H   0  0  0  0  0  0
  -40.4212   62.6503   33.6589 H   0  0  0  0  0  0
  -38.8754   61.0990   34.7855 H   0  0  0  0  0  0
  -35.7462   62.2585   32.0962 H   0  0  0  0  0  0
  -36.5543   60.8803   33.9860 H   0  0  0  0  0  0
  1  3  1  0  0  0
  1  5  1  0  0  0
  1  7  1  0  0  0
  2  3  2  0  0  0
  2  6  1  0  0  0
  2  4  1  0  0  0
  3 15  1  0  0  0
  4  5  1  0  0  0
  4 10  2  0  0  0
  5  8  2  0  0  0
  6  9  1  0  0  0
  6 23  1  0  0  0
  6 24  1  0  0  0
  7 16  1  0  0  0
  7 25  1  0  0  0
  7 26  1  0  0  0
  8 14  1  0  0  0
  8 27  1  0  0  0
  9 11  2  0  0  0
  9 13  1  0  0  0
 10 12  1  0  0  0
 10 28  1  0  0  0
 12 14  2  0  0  0
 12 17  1  0  0  0
 13 29  1  0  0  0
 13 30  1  0  0  0
 14 31  1  0  0  0
 15 32  1  0  0  0
 15 33  1  0  0  0
 15 34  1  0  0  0
 16 18  1  0  0  0
 16 19  2  0  0  0
 17 35  1  0  0  0
 18 21  2  0  0  0
 18 36  1  0  0  0
 19 20  1  0  0  0
 19 37  1  0  0  0
 20 22  2  0  0  0
 20 38  1  0  0  0
 21 22  1  0  0  0
 21 39  1  0  0  0
 22 40  1  0  0  0
M  END
> <s_m_entry_id>
68245

> <s_m_entry_name>
dock_pv.181

> <s_m_Source_Path>
/home/csk/Desktop/cluster/DUD-E-result/pa2ga

> <s_m_Source_File>
dock_pv.maegz

> <i_m_Source_File_Index>
181

> <chembl_id>
CHEMBL348695

> <chembl_pref_name>
None

> <i_lp_mmshare_version>
53161

> <i_f3d_flags>
0

> <r_lp_tautomer_probability>
1

> <s_lp_Force_Field>
OPLS_2005

> <r_lp_Energy>
7.816923

> <b_lp_Chiralities_Consistent>
1

> <s_lp_Variant>
CHEMBL3474_lig31-1

> <s_i_glide_gridfile>
glide-grid_1kvo

> <i_i_glide_lignum>
71

> <i_i_glide_rotatable_bonds>
5

> <r_i_docking_score>
-7.12770101952139

> <r_i_glide_ligand_efficiency>
-0.323986409978245

> <r_i_glide_ligand_efficiency_sa>
-0.907822662421511

> <r_i_glide_ligand_efficiency_ln>
-1.74227011838274

> <r_i_glide_gscore>
-7.12770101952139

> <r_i_glide_lipo>
-2.3042019640595

> <r_i_glide_hbond>
-0.32

> <r_i_glide_metal>
0

> <r_i_glide_rewards>
-1.71432648165156

> <r_i_glide_evdw>
-32.4595069885254

> <r_i_glide_ecoul>
-11.2471618652344

> <r_i_glide_erotb>
0.63320936411669

> <r_i_glide_esite>
-0.11233230871559

> <r_i_glide_emodel>
-64.5151245368656

> <r_i_glide_energy>
-43.7066688537598

> <r_i_glide_einternal>
4.1355128288269

> <i_i_glide_confnum>
2

> <i_i_glide_posenum>
237

> <r_i_glide_eff_state_penalty>
0

> <s_user_duplicate_titles>
CHEMBL3474_lig31

> <s_m_subgroup_title>
dock_pv

> <s_m_subgroupid>
dock_pv

> <b_m_subgroup_collapsed>
1

$$$$
CHEMBL3474_lig288
                    3D
 Schrodinger Suite 2021-1.
 60 63  0  0  1  0            999 V2000
  -38.4849   64.9995   31.6299 C   0  0  0  0  0  0
  -39.3905   65.8072   32.3173 C   0  0  0  0  0  0
  -39.9264   65.3745   33.5601 C   0  0  0  0  0  0
  -39.6156   64.0505   34.0136 C   0  0  0  0  0  0
  -40.4134   63.7865   35.1382 N   0  0  0  0  0  0
  -41.0046   64.9817   35.5502 C   0  0  0  0  0  0
  -40.7596   65.9804   34.5897 C   0  0  0  0  0  0
  -41.1324   67.4184   34.6441 C   0  0  0  0  0  0
  -42.4141   67.9086   35.4429 C   0  0  0  0  0  0
  -40.6768   62.4868   35.7963 C   0  0  0  0  0  0
  -41.7159   61.6284   35.0933 C   0  0  0  0  0  0
  -43.0574   61.7018   35.4839 C   0  0  0  0  0  0
  -44.0093   60.9082   34.8527 C   0  0  0  0  0  0
  -43.6150   60.0520   33.8300 C   0  0  0  0  0  0
  -42.2844   59.9642   33.4430 C   0  0  0  0  0  0
  -41.3317   60.7525   34.0748 C   0  0  0  0  0  0
  -41.6871   65.0458   36.9293 C   0  0  0  0  0  0
  -40.6785   65.0487   38.1084 C   0  0  0  0  0  0
  -40.5217   68.2865   34.0159 O   0  0  0  0  0  0
  -42.2360   69.0743   36.0685 N   0  0  0  0  0  0
  -43.4746   67.2937   35.4429 O   0  0  0  0  0  0
  -39.8159   67.0348   31.8388 O   0  0  0  0  0  0
  -39.4483   67.5024   30.5326 C   0  0  0  0  0  0
  -38.0151   68.0685   30.4874 C   0  0  0  0  0  0
  -37.7033   68.5108   29.2367 O   0  0  0  0  0  0
  -37.2403   68.0979   31.4447 O   0  0  0  0  0  0
  -38.6168   63.2578   33.3358 C   0  0  0  0  0  0
  -38.0497   63.7695   32.1312 C   0  0  0  0  0  0
  -37.0414   63.0512   31.4433 C   0  0  0  0  0  0
  -36.5868   61.8362   31.9281 C   0  0  0  0  0  0
  -37.1035   61.3269   33.1074 C   0  0  0  0  0  0
  -38.0835   62.0183   33.8108 C   0  0  0  0  0  0
  -41.3824   64.7910   39.4519 C   0  0  0  0  0  0
  -39.8576   66.3495   38.1627 C   0  0  0  0  0  0
  -38.0575   65.3205   30.6921 H   0  0  0  0  0  0
  -40.9945   62.6257   36.8254 H   0  0  0  0  0  0
  -39.7756   61.9249   35.9520 H   0  0  0  0  0  0
  -43.3691   62.3645   36.2768 H   0  0  0  0  0  0
  -45.0477   60.9589   35.1460 H   0  0  0  0  0  0
  -44.3560   59.4477   33.3299 H   0  0  0  0  0  0
  -41.9952   59.2983   32.6433 H   0  0  0  0  0  0
  -40.3045   60.6718   33.7607 H   0  0  0  0  0  0
  -42.3169   65.9136   37.0704 H   0  0  0  0  0  0
  -42.4078   64.2383   37.0459 H   0  0  0  0  0  0
  -39.9666   64.2346   37.9708 H   0  0  0  0  0  0
  -42.9965   69.4720   36.5992 H   0  0  0  0  0  0
  -41.3521   69.5554   36.0066 H   0  0  0  0  0  0
  -39.5816   66.7144   29.7895 H   0  0  0  0  0  0
  -40.1439   68.3000   30.2734 H   0  0  0  0  0  0
  -38.4100   68.3884   28.6013 H   0  0  0  0  0  0
  -36.6225   63.4565   30.5322 H   0  0  0  0  0  0
  -35.8171   61.2984   31.3945 H   0  0  0  0  0  0
  -36.7250   60.3933   33.4961 H   0  0  0  0  0  0
  -38.3670   61.5666   34.7335 H   0  0  0  0  0  0
  -42.1106   65.5705   39.6792 H   0  0  0  0  0  0
  -41.9099   63.8363   39.4463 H   0  0  0  0  0  0
  -40.6651   64.7560   40.2735 H   0  0  0  0  0  0
  -40.4996   67.2192   38.3074 H   0  0  0  0  0  0
  -39.1365   66.3270   38.9811 H   0  0  0  0  0  0
  -39.2957   66.4983   37.2429 H   0  0  0  0  0  0
  1 28  2  0  0  0
  1  2  1  0  0  0
  1 35  1  0  0  0
  2 22  1  0  0  0
  2  3  2  0  0  0
  3  7  1  0  0  0
  3  4  1  0  0  0
  4 27  2  0  0  0
  4  5  1  0  0  0
  5 10  1  0  0  0
  5  6  1  0  0  0
  6 17  1  0  0  0
  6  7  2  0  0  0
  7  8  1  0  0  0
  8 19  2  0  0  0
  8  9  1  0  0  0
  9 20  1  0  0  0
  9 21  2  0  0  0
 10 11  1  0  0  0
 10 36  1  0  0  0
 10 37  1  0  0  0
 11 16  1  0  0  0
 11 12  2  0  0  0
 12 13  1  0  0  0
 12 38  1  0  0  0
 13 14  2  0  0  0
 13 39  1  0  0  0
 14 15  1  0  0  0
 14 40  1  0  0  0
 15 16  2  0  0  0
 15 41  1  0  0  0
 16 42  1  0  0  0
 17 18  1  0  0  0
 17 43  1  0  0  0
 17 44  1  0  0  0
 18 33  1  0  0  0
 18 34  1  0  0  0
 18 45  1  0  0  0
 20 46  1  0  0  0
 20 47  1  0  0  0
 22 23  1  0  0  0
 23 24  1  0  0  0
 23 48  1  0  0  0
 23 49  1  0  0  0
 24 25  1  0  0  0
 24 26  2  0  0  0
 25 50  1  0  0  0
 27 28  1  0  0  0
 27 32  1  0  0  0
 28 29  1  0  0  0
 29 30  2  0  0  0
 29 51  1  0  0  0
 30 31  1  0  0  0
 30 52  1  0  0  0
 31 32  2  0  0  0
 31 53  1  0  0  0
 32 54  1  0  0  0
 33 55  1  0  0  0
 33 56  1  0  0  0
 33 57  1  0  0  0
 34 58  1  0  0  0
 34 59  1  0  0  0
 34 60  1  0  0  0
M  END
> <s_m_entry_id>
68246

> <s_m_entry_name>
dock_pv.182

> <s_m_Source_Path>
/home/csk/Desktop/cluster/DUD-E-result/pa2ga

> <s_m_Source_File>
dock_pv.maegz

> <i_m_Source_File_Index>
182

> <chembl_id>
CHEMBL514705

> <chembl_pref_name>
None

> <i_lp_mmshare_version>
53161

> <i_f3d_flags>
0

> <r_lp_tautomer_probability>
1

> <s_lp_Force_Field>
OPLS_2005

> <r_lp_Energy>
36.79604

> <b_lp_Chiralities_Consistent>
1

> <s_lp_Variant>
CHEMBL3474_lig288-1

> <s_i_glide_gridfile>
glide-grid_1kvo

> <i_i_glide_lignum>
373

> <i_i_glide_rotatable_bonds>
10

> <r_i_docking_score>
-7.11434868534772

> <r_i_glide_ligand_efficiency>
-0.209245549569051

> <r_i_glide_ligand_efficiency_sa>
-0.677874350951879

> <r_i_glide_ligand_efficiency_ln>
-1.5717591753147

> <r_i_glide_gscore>
-7.11434868534772

> <r_i_glide_lipo>
-3.61806257374852

> <r_i_glide_hbond>
0

> <r_i_glide_metal>
0

> <r_i_glide_rewards>
-0.832080710878076

> <r_i_glide_evdw>
-52.6275444030762

> <r_i_glide_ecoul>
-4.52952861785889

> <r_i_glide_erotb>
0.669717591218565

> <r_i_glide_esite>
-0.023116479107044

> <r_i_glide_emodel>
-76.3388333434722

> <r_i_glide_energy>
-57.1570730209351

> <r_i_glide_einternal>
8.47395610809326

> <i_i_glide_confnum>
160

> <i_i_glide_posenum>
53

> <r_i_glide_eff_state_penalty>
0

> <s_user_duplicate_titles>
CHEMBL3474_lig288

> <s_m_subgroup_title>
dock_pv

> <s_m_subgroupid>
dock_pv

> <b_m_subgroup_collapsed>
1

$$$$
CHEMBL3474_lig63
                    3D
 Schrodinger Suite 2021-1.
 40 42  0  0  1  0            999 V2000
  -39.9523   65.5249   31.9633 N   0  0  0  0  0  0
  -39.5674   67.7442   31.7302 C   0  0  0  0  0  0
  -39.3877   66.4947   31.1457 C   0  0  0  0  0  0
  -40.4951   66.1225   33.0868 C   0  0  0  0  0  0
  -40.2952   67.5245   32.9487 C   0  0  0  0  0  0
  -41.1619   65.5712   34.1912 C   0  0  0  0  0  0
  -39.1427   69.0988   31.1783 C   0  0  0  0  0  0
  -39.9948   64.0855   31.7093 C   0  0  0  0  0  0
  -40.8104   68.3763   33.9407 C   0  0  0  0  0  0
  -37.6282   69.2826   31.0049 C   0  0  0  0  0  0
  -36.8153   68.8980   31.8435 O   0  0  0  0  0  0
  -41.6436   66.4514   35.1550 C   0  0  0  0  0  0
  -37.2150   69.9062   29.9110 N   0  0  0  0  0  0
  -41.4779   67.8267   35.0351 C   0  0  0  0  0  0
  -38.7126   66.1569   29.8257 C   0  0  0  0  0  0
  -38.8311   63.2852   32.2763 C   0  0  0  0  0  0
  -42.3008   65.9430   36.2394 O   0  0  0  0  0  0
  -37.6307   63.2032   31.5663 C   0  0  0  0  0  0
  -38.9970   62.5521   33.4554 C   0  0  0  0  0  0
  -37.9850   61.7025   33.8923 C   0  0  0  0  0  0
  -36.6225   62.3514   31.9974 C   0  0  0  0  0  0
  -36.8151   61.5921   33.1463 C   0  0  0  0  0  0
  -41.3191   64.5091   34.3010 H   0  0  0  0  0  0
  -39.6444   69.2727   30.2252 H   0  0  0  0  0  0
  -39.4784   69.9073   31.8270 H   0  0  0  0  0  0
  -40.9347   63.6954   32.1036 H   0  0  0  0  0  0
  -40.0802   63.9094   30.6430 H   0  0  0  0  0  0
  -40.6832   69.4460   33.8662 H   0  0  0  0  0  0
  -36.2165   70.1002   29.8434 H   0  0  0  0  0  0
  -37.8536   70.2421   29.2065 H   0  0  0  0  0  0
  -41.8665   68.4841   35.7995 H   0  0  0  0  0  0
  -38.6802   67.0155   29.1548 H   0  0  0  0  0  0
  -37.6786   65.8471   29.9682 H   0  0  0  0  0  0
  -39.2163   65.3685   29.2676 H   0  0  0  0  0  0
  -42.5873   66.6197   36.8559 H   0  0  0  0  0  0
  -37.4922   63.7490   30.6460 H   0  0  0  0  0  0
  -39.9209   62.6033   34.0125 H   0  0  0  0  0  0
  -38.1148   61.1148   34.7898 H   0  0  0  0  0  0
  -35.7091   62.2584   31.4280 H   0  0  0  0  0  0
  -36.0397   60.9072   33.4526 H   0  0  0  0  0  0
  1  3  1  0  0  0
  1  4  1  0  0  0
  1  8  1  0  0  0
  2  3  2  0  0  0
  2  7  1  0  0  0
  2  5  1  0  0  0
  3 15  1  0  0  0
  4  5  1  0  0  0
  4  6  2  0  0  0
  5  9  2  0  0  0
  6 12  1  0  0  0
  6 23  1  0  0  0
  7 10  1  0  0  0
  7 24  1  0  0  0
  7 25  1  0  0  0
  8 16  1  0  0  0
  8 26  1  0  0  0
  8 27  1  0  0  0
  9 14  1  0  0  0
  9 28  1  0  0  0
 10 11  2  0  0  0
 10 13  1  0  0  0
 12 14  2  0  0  0
 12 17  1  0  0  0
 13 29  1  0  0  0
 13 30  1  0  0  0
 14 31  1  0  0  0
 15 32  1  0  0  0
 15 33  1  0  0  0
 15 34  1  0  0  0
 16 18  1  0  0  0
 16 19  2  0  0  0
 17 35  1  0  0  0
 18 21  2  0  0  0
 18 36  1  0  0  0
 19 20  1  0  0  0
 19 37  1  0  0  0
 20 22  2  0  0  0
 20 38  1  0  0  0
 21 22  1  0  0  0
 21 39  1  0  0  0
 22 40  1  0  0  0
M  END
> <s_m_entry_id>
68247

> <s_m_entry_name>
dock_pv.183

> <s_m_Source_Path>
/home/csk/Desktop/cluster/DUD-E-result/pa2ga

> <s_m_Source_File>
dock_pv.maegz

> <i_m_Source_File_Index>
183

> <chembl_id>
CHEMBL357774

> <chembl_pref_name>
None

> <i_lp_mmshare_version>
53161

> <i_f3d_flags>
0

> <r_lp_tautomer_probability>
1

> <s_lp_Force_Field>
OPLS_2005

> <r_lp_Energy>
8.180009

> <b_lp_Chiralities_Consistent>
1

> <s_lp_Variant>
CHEMBL3474_lig63-1

> <s_i_glide_gridfile>
glide-grid_1kvo

> <i_i_glide_lignum>
103

> <i_i_glide_rotatable_bonds>
5

> <r_i_docking_score>
-7.11279422590807

> <r_i_glide_ligand_efficiency>
-0.323308828450367

> <r_i_glide_ligand_efficiency_sa>
-0.905924052332626

> <r_i_glide_ligand_efficiency_ln>
-1.73862635428513

> <r_i_glide_gscore>
-7.11279422590807

> <r_i_glide_lipo>
-2.45752993829794

> <r_i_glide_hbond>
-0.32

> <r_i_glide_metal>
0

> <r_i_glide_rewards>
-1.72487765511788

> <r_i_glide_evdw>
-33.5934715270996

> <r_i_glide_ecoul>
-9.76119422912598

> <r_i_glide_erotb>
0.63320936411669

> <r_i_glide_esite>
-0.0997432858850585

> <r_i_glide_emodel>
-63.2260807604537

> <r_i_glide_energy>
-43.3546657562256

> <r_i_glide_einternal>
2.420405626297

> <i_i_glide_confnum>
7

> <i_i_glide_posenum>
247

> <r_i_glide_eff_state_penalty>
0

> <s_user_duplicate_titles>
CHEMBL3474_lig63

> <s_m_subgroup_title>
dock_pv

> <s_m_subgroupid>
dock_pv

> <b_m_subgroup_collapsed>
1

$$$$
CHEMBL3474_lig130
                    3D
 Schrodinger Suite 2021-1.
 45 47  0  0  1  0            999 V2000
  -39.4784   63.5164   33.5321 C   0  0  0  0  0  0
  -40.5689   62.8066   35.3895 N   0  0  0  0  0  0
  -39.7718   62.4011   34.3325 C   0  0  0  0  0  0
  -40.2718   64.6233   34.0531 C   0  0  0  0  0  0
  -40.9248   64.1330   35.2274 C   0  0  0  0  0  0
  -38.6111   63.5509   32.3326 C   0  0  0  0  0  0
  -37.3223   62.6125   32.2712 C   0  0  0  0  0  0
  -41.0778   61.9582   36.4770 C   0  0  0  0  0  0
  -40.4819   65.9883   33.7131 C   0  0  0  0  0  0
  -38.1878   68.0656   31.8432 C   0  0  0  0  0  0
  -38.7416   64.3911   31.4425 O   0  0  0  0  0  0
  -39.8307   66.4650   32.5969 O   0  0  0  0  0  0
  -36.8147   62.1328   33.2809 O   0  0  0  0  0  0
  -37.6044   69.1461   31.8429 O   0  0  0  0  0  0
  -36.8188   62.4539   31.0431 N   0  0  0  0  0  0
  -39.5918   67.8676   32.4336 C   0  0  0  0  0  0
  -39.3735   60.9348   34.2035 C   0  0  0  0  0  0
  -42.5570   61.6038   36.3496 C   0  0  0  0  0  0
  -41.7643   64.9325   36.0171 C   0  0  0  0  0  0
  -45.2587   60.9693   36.1353 C   0  0  0  0  0  0
  -37.6151   66.8976   31.4431 O   0  0  0  0  0  0
  -46.5711   60.6635   36.0277 F   0  0  0  0  0  0
  -43.0640   61.0999   35.1480 C   0  0  0  0  0  0
  -43.4107   61.7864   37.4429 C   0  0  0  0  0  0
  -44.7615   61.4672   37.3356 C   0  0  0  0  0  0
  -44.4150   60.7886   35.0431 C   0  0  0  0  0  0
  -41.9594   66.2496   35.6218 C   0  0  0  0  0  0
  -41.3370   66.7699   34.4982 C   0  0  0  0  0  0
  -40.9096   62.5032   37.4076 H   0  0  0  0  0  0
  -40.4797   61.0516   36.5722 H   0  0  0  0  0  0
  -35.9955   61.8883   30.9133 H   0  0  0  0  0  0
  -37.2623   62.8911   30.2366 H   0  0  0  0  0  0
  -40.3331   68.2902   31.7561 H   0  0  0  0  0  0
  -39.6164   68.4155   33.3763 H   0  0  0  0  0  0
  -39.0879   60.6657   33.1878 H   0  0  0  0  0  0
  -38.5337   60.6884   34.8542 H   0  0  0  0  0  0
  -40.1834   60.2510   34.4544 H   0  0  0  0  0  0
  -42.2581   64.5484   36.8979 H   0  0  0  0  0  0
  -38.2400   66.1568   31.4975 H   0  0  0  0  0  0
  -42.4216   60.9576   34.2917 H   0  0  0  0  0  0
  -43.0322   62.1712   38.3793 H   0  0  0  0  0  0
  -45.4232   61.6036   38.1781 H   0  0  0  0  0  0
  -44.8148   60.4082   34.1160 H   0  0  0  0  0  0
  -42.6119   66.8842   36.2051 H   0  0  0  0  0  0
  -41.5406   67.7981   34.2420 H   0  0  0  0  0  0
  1  3  2  0  0  0
  1  4  1  0  0  0
  1  6  1  0  0  0
  2  3  1  0  0  0
  2  8  1  0  0  0
  2  5  1  0  0  0
  3 17  1  0  0  0
  4  5  1  0  0  0
  4  9  2  0  0  0
  5 19  2  0  0  0
  6  7  1  0  0  0
  6 11  2  0  0  0
  7 13  2  0  0  0
  7 15  1  0  0  0
  8 18  1  0  0  0
  8 29  1  0  0  0
  8 30  1  0  0  0
  9 12  1  0  0  0
  9 28  1  0  0  0
 10 16  1  0  0  0
 10 14  2  0  0  0
 10 21  1  0  0  0
 12 16  1  0  0  0
 15 31  1  0  0  0
 15 32  1  0  0  0
 16 33  1  0  0  0
 16 34  1  0  0  0
 17 35  1  0  0  0
 17 36  1  0  0  0
 17 37  1  0  0  0
 18 23  2  0  0  0
 18 24  1  0  0  0
 19 27  1  0  0  0
 19 38  1  0  0  0
 20 25  1  0  0  0
 20 22  1  0  0  0
 20 26  2  0  0  0
 21 39  1  0  0  0
 23 26  1  0  0  0
 23 40  1  0  0  0
 24 25  2  0  0  0
 24 41  1  0  0  0
 25 42  1  0  0  0
 26 43  1  0  0  0
 27 28  2  0  0  0
 27 44  1  0  0  0
 28 45  1  0  0  0
M  END
> <s_m_entry_id>
68248

> <s_m_entry_name>
dock_pv.184

> <s_m_Source_Path>
/home/csk/Desktop/cluster/DUD-E-result/pa2ga

> <s_m_Source_File>
dock_pv.maegz

> <i_m_Source_File_Index>
184

> <chembl_id>
CHEMBL148452

> <chembl_pref_name>
None

> <i_lp_mmshare_version>
53161

> <i_f3d_flags>
0

> <r_lp_tautomer_probability>
1

> <s_lp_Force_Field>
OPLS_2005

> <r_lp_Energy>
23.404223

> <b_lp_Chiralities_Consistent>
1

> <s_lp_Variant>
CHEMBL3474_lig130-1

> <s_i_glide_gridfile>
glide-grid_1kvo

> <i_i_glide_lignum>
190

> <i_i_glide_rotatable_bonds>
8

> <r_i_docking_score>
-7.10853458857061

> <r_i_glide_ligand_efficiency>
-0.253876235306093

> <r_i_glide_ligand_efficiency_sa>
-0.770917775495508

> <r_i_glide_ligand_efficiency_ln>
-1.64085849868688

> <r_i_glide_gscore>
-7.10853458857061

> <r_i_glide_lipo>
-3.04614311133483

> <r_i_glide_hbond>
-0.364735248318253

> <r_i_glide_metal>
0

> <r_i_glide_rewards>
-1.51471309973098

> <r_i_glide_evdw>
-44.1634979248047

> <r_i_glide_ecoul>
-4.67633676528931

> <r_i_glide_erotb>
0.789614968241325

> <r_i_glide_esite>
-0.0629326863942489

> <r_i_glide_emodel>
-70.3864297871105

> <r_i_glide_energy>
-48.839834690094

> <r_i_glide_einternal>
8.76891708374023

> <i_i_glide_confnum>
120

> <i_i_glide_posenum>
395

> <r_i_glide_eff_state_penalty>
0

> <s_user_duplicate_titles>
CHEMBL3474_lig130,247442

> <s_m_subgroup_title>
dock_pv

> <s_m_subgroupid>
dock_pv

> <b_m_subgroup_collapsed>
1

$$$$
CHEMBL3474_lig110
                    3D
 Schrodinger Suite 2021-1.
 34 35  0  0  1  0            999 V2000
  -38.9108   62.8035   32.8563 C   0  0  0  0  0  0
  -37.9111   61.8277   32.7689 C   0  0  0  0  0  0
  -38.2571   60.8042   33.6092 N   0  0  0  0  0  0
  -39.8698   62.3719   33.8602 C   0  0  0  0  0  0
  -39.0132   63.9758   31.9926 C   0  0  0  0  0  0
  -39.4336   61.0714   34.2659 C   0  0  0  0  0  0
  -41.0455   62.9036   34.4689 C   0  0  0  0  0  0
  -37.7002   64.8111   31.7731 C   0  0  0  0  0  0
  -40.8150   65.4217   34.9170 C   0  0  0  0  0  0
  -41.6150   64.3077   34.2430 C   0  0  0  0  0  0
  -40.0672   64.3526   31.4766 O   0  0  0  0  0  0
  -36.8138   64.8980   32.6205 O   0  0  0  0  0  0
  -40.4150   66.4191   34.3216 O   0  0  0  0  0  0
  -37.6150   65.3104   30.5459 N   0  0  0  0  0  0
  -36.6340   61.6981   31.9422 C   0  0  0  0  0  0
  -40.6319   65.1784   36.2453 O   0  0  0  0  0  0
  -40.1399   60.2835   35.1722 C   0  0  0  0  0  0
  -41.7367   62.0934   35.3779 C   0  0  0  0  0  0
  -41.3027   60.8185   35.7097 C   0  0  0  0  0  0
  -36.8150   60.8980   30.6433 C   0  0  0  0  0  0
  -37.6943   59.9709   33.6899 H   0  0  0  0  0  0
  -41.7100   64.5109   33.1820 H   0  0  0  0  0  0
  -42.6347   64.3804   34.6249 H   0  0  0  0  0  0
  -36.7151   65.6981   30.2430 H   0  0  0  0  0  0
  -38.3375   65.1163   29.8652 H   0  0  0  0  0  0
  -36.1962   62.6537   31.6733 H   0  0  0  0  0  0
  -35.8600   61.2350   32.5513 H   0  0  0  0  0  0
  -40.9893   64.3228   36.4912 H   0  0  0  0  0  0
  -39.8073   59.2980   35.4430 H   0  0  0  0  0  0
  -42.6421   62.4535   35.8463 H   0  0  0  0  0  0
  -41.8790   60.2301   36.4089 H   0  0  0  0  0  0
  -35.8732   60.7801   30.1064 H   0  0  0  0  0  0
  -37.2150   59.9075   30.8579 H   0  0  0  0  0  0
  -37.5306   61.3651   29.9731 H   0  0  0  0  0  0
  1  2  2  0  0  0
  1  4  1  0  0  0
  1  5  1  0  0  0
  2  3  1  0  0  0
  2 15  1  0  0  0
  3  6  1  0  0  0
  3 21  1  0  0  0
  4  6  1  0  0  0
  4  7  2  0  0  0
  5  8  1  0  0  0
  5 11  2  0  0  0
  6 17  2  0  0  0
  7 10  1  0  0  0
  7 18  1  0  0  0
  8 12  2  0  0  0
  8 14  1  0  0  0
  9 10  1  0  0  0
  9 13  2  0  0  0
  9 16  1  0  0  0
 10 22  1  0  0  0
 10 23  1  0  0  0
 14 24  1  0  0  0
 14 25  1  0  0  0
 15 20  1  0  0  0
 15 26  1  0  0  0
 15 27  1  0  0  0
 16 28  1  0  0  0
 17 19  1  0  0  0
 17 29  1  0  0  0
 18 19  2  0  0  0
 18 30  1  0  0  0
 19 31  1  0  0  0
 20 32  1  0  0  0
 20 33  1  0  0  0
 20 34  1  0  0  0
M  END
> <s_m_entry_id>
68249

> <s_m_entry_name>
dock_pv.185

> <s_m_Source_Path>
/home/csk/Desktop/cluster/DUD-E-result/pa2ga

> <s_m_Source_File>
dock_pv.maegz

> <i_m_Source_File_Index>
185

> <chembl_id>
CHEMBL356133

> <chembl_pref_name>
None

> <i_lp_mmshare_version>
53161

> <i_f3d_flags>
0

> <r_lp_tautomer_probability>
1

> <s_lp_Force_Field>
OPLS_2005

> <r_lp_Energy>
14.804609

> <b_lp_Chiralities_Consistent>
1

> <s_lp_Variant>
CHEMBL3474_lig110-1

> <s_i_glide_gridfile>
glide-grid_1kvo

> <i_i_glide_lignum>
169

> <i_i_glide_rotatable_bonds>
6

> <r_i_docking_score>
-7.10586313656685

> <r_i_glide_ligand_efficiency>
-0.355293156828343

> <r_i_glide_ligand_efficiency_sa>
-0.964414002987428

> <r_i_glide_ligand_efficiency_ln>
-1.77836317603095

> <r_i_glide_gscore>
-7.10586313656685

> <r_i_glide_lipo>
-2.61255098025342

> <r_i_glide_hbond>
-0.442848100383522

> <r_i_glide_metal>
0

> <r_i_glide_rewards>
-1.80203209462182

> <r_i_glide_evdw>
-29.8830471038818

> <r_i_glide_ecoul>
-8.83406352996826

> <r_i_glide_erotb>
0.716009257519973

> <r_i_glide_esite>
-0.145179334138727

> <r_i_glide_emodel>
-57.8109432956719

> <r_i_glide_energy>
-38.7171106338501

> <r_i_glide_einternal>
3.23199844360352

> <i_i_glide_confnum>
8

> <i_i_glide_posenum>
128

> <r_i_glide_eff_state_penalty>
0

> <s_user_duplicate_titles>
CHEMBL3474_lig110

> <s_m_subgroup_title>
dock_pv

> <s_m_subgroupid>
dock_pv

> <b_m_subgroup_collapsed>
1

$$$$
CHEMBL3474_lig40
                    3D
 Schrodinger Suite 2021-1.
 43 45  0  0  1  0            999 V2000
  -40.5408   64.0711   34.5316 N   0  0  0  0  0  0
  -39.2859   64.2692   32.6397 C   0  0  0  0  0  0
  -39.7140   65.5828   33.0461 C   0  0  0  0  0  0
  -39.7974   63.4103   33.5817 C   0  0  0  0  0  0
  -40.4906   65.4286   34.2424 C   0  0  0  0  0  0
  -38.4405   63.8898   31.4419 C   0  0  0  0  0  0
  -41.1698   63.4412   35.6997 C   0  0  0  0  0  0
  -36.9409   63.9100   31.7428 C   0  0  0  0  0  0
  -39.5242   66.8790   32.5228 C   0  0  0  0  0  0
  -37.5090   68.9639   30.8249 C   0  0  0  0  0  0
  -38.7619   66.9488   31.3739 O   0  0  0  0  0  0
  -36.4127   64.8980   32.2436 O   0  0  0  0  0  0
  -36.8151   68.8971   31.8423 O   0  0  0  0  0  0
  -38.7657   68.1243   30.5611 C   0  0  0  0  0  0
  -36.2326   62.8249   31.4413 N   0  0  0  0  0  0
  -41.8773   62.1237   35.3928 C   0  0  0  0  0  0
  -37.2150   69.7495   29.7541 O   0  0  0  0  0  0
  -41.0446   66.5308   34.9080 C   0  0  0  0  0  0
  -40.8154   67.7913   34.3603 C   0  0  0  0  0  0
  -40.0765   67.9714   33.1975 C   0  0  0  0  0  0
  -41.1321   60.9502   35.2430 C   0  0  0  0  0  0
  -43.2632   62.0961   35.2109 C   0  0  0  0  0  0
  -43.8925   60.9144   34.8266 C   0  0  0  0  0  0
  -41.7564   59.7810   34.8248 C   0  0  0  0  0  0
  -43.1331   59.7665   34.6173 C   0  0  0  0  0  0
  -39.6801   62.3390   33.6348 H   0  0  0  0  0  0
  -38.7171   62.8982   31.0877 H   0  0  0  0  0  0
  -38.6234   64.5534   30.5987 H   0  0  0  0  0  0
  -41.8817   64.1401   36.1407 H   0  0  0  0  0  0
  -40.3992   63.2827   36.4551 H   0  0  0  0  0  0
  -38.7471   67.7768   29.5268 H   0  0  0  0  0  0
  -39.6662   68.7288   30.6652 H   0  0  0  0  0  0
  -35.2400   62.8201   31.6096 H   0  0  0  0  0  0
  -36.6657   62.0574   30.9514 H   0  0  0  0  0  0
  -36.3111   70.0994   29.8447 H   0  0  0  0  0  0
  -41.6252   66.4240   35.8122 H   0  0  0  0  0  0
  -41.2235   68.6590   34.8582 H   0  0  0  0  0  0
  -39.9203   68.9787   32.8432 H   0  0  0  0  0  0
  -40.0626   60.9499   35.4004 H   0  0  0  0  0  0
  -43.8516   62.9927   35.3346 H   0  0  0  0  0  0
  -44.9608   60.8931   34.6635 H   0  0  0  0  0  0
  -41.1665   58.8982   34.6436 H   0  0  0  0  0  0
  -43.6151   58.8615   34.2841 H   0  0  0  0  0  0
  1  4  1  0  0  0
  1  5  1  0  0  0
  1  7  1  0  0  0
  2  4  2  0  0  0
  2  6  1  0  0  0
  2  3  1  0  0  0
  3  5  1  0  0  0
  3  9  2  0  0  0
  4 26  1  0  0  0
  5 18  2  0  0  0
  6  8  1  0  0  0
  6 27  1  0  0  0
  6 28  1  0  0  0
  7 16  1  0  0  0
  7 29  1  0  0  0
  7 30  1  0  0  0
  8 12  2  0  0  0
  8 15  1  0  0  0
  9 11  1  0  0  0
  9 20  1  0  0  0
 10 14  1  0  0  0
 10 13  2  0  0  0
 10 17  1  0  0  0
 11 14  1  0  0  0
 14 31  1  0  0  0
 14 32  1  0  0  0
 15 33  1  0  0  0
 15 34  1  0  0  0
 16 21  2  0  0  0
 16 22  1  0  0  0
 17 35  1  0  0  0
 18 19  1  0  0  0
 18 36  1  0  0  0
 19 20  2  0  0  0
 19 37  1  0  0  0
 20 38  1  0  0  0
 21 24  1  0  0  0
 21 39  1  0  0  0
 22 23  2  0  0  0
 22 40  1  0  0  0
 23 25  1  0  0  0
 23 41  1  0  0  0
 24 25  2  0  0  0
 24 42  1  0  0  0
 25 43  1  0  0  0
M  END
> <s_m_entry_id>
68250

> <s_m_entry_name>
dock_pv.186

> <s_m_Source_Path>
/home/csk/Desktop/cluster/DUD-E-result/pa2ga

> <s_m_Source_File>
dock_pv.maegz

> <i_m_Source_File_Index>
186

> <chembl_id>
CHEMBL359294

> <chembl_pref_name>
None

> <i_lp_mmshare_version>
53161

> <i_f3d_flags>
0

> <r_lp_tautomer_probability>
1

> <s_lp_Force_Field>
OPLS_2005

> <r_lp_Energy>
13.535964

> <b_lp_Chiralities_Consistent>
1

> <s_lp_Variant>
CHEMBL3474_lig40-1

> <s_i_glide_gridfile>
glide-grid_1kvo

> <i_i_glide_lignum>
80

> <i_i_glide_rotatable_bonds>
8

> <r_i_docking_score>
-7.09970089353649

> <r_i_glide_ligand_efficiency>
-0.283988035741459

> <r_i_glide_ligand_efficiency_sa>
-0.830386053057287

> <r_i_glide_ligand_efficiency_ln>
-1.68284187263518

> <r_i_glide_gscore>
-7.09970089353649

> <r_i_glide_lipo>
-2.91000678741453

> <r_i_glide_hbond>
-0.199569901648041

> <r_i_glide_metal>
0

> <r_i_glide_rewards>
-1.2559724225066

> <r_i_glide_evdw>
-41.2270317077637

> <r_i_glide_ecoul>
-10.0787591934204

> <r_i_glide_erotb>
0.991091434231185

> <r_i_glide_esite>
-0.152077751797255

> <r_i_glide_emodel>
-76.4590845577943

> <r_i_glide_energy>
-51.3057909011841

> <r_i_glide_einternal>
5.56677389144897

> <i_i_glide_confnum>
120

> <i_i_glide_posenum>
342

> <r_i_glide_eff_state_penalty>
0

> <s_user_duplicate_titles>
CHEMBL3474_lig40,247311

> <s_m_subgroup_title>
dock_pv

> <s_m_subgroupid>
dock_pv

> <b_m_subgroup_collapsed>
1

$$$$
CHEMBL3474_lig20
                    3D
 Schrodinger Suite 2021-1.
 40 42  0  0  1  0            999 V2000
  -39.8059   65.3191   31.9757 N   0  0  0  0  0  0
  -39.4945   67.5522   31.7067 C   0  0  0  0  0  0
  -39.2443   66.2936   31.1665 C   0  0  0  0  0  0
  -40.2364   67.3258   32.9299 C   0  0  0  0  0  0
  -40.4000   65.9152   33.0739 C   0  0  0  0  0  0
  -39.1291   68.8943   31.0733 C   0  0  0  0  0  0
  -39.8136   63.8772   31.7147 C   0  0  0  0  0  0
  -37.6259   69.1978   30.9664 C   0  0  0  0  0  0
  -40.8122   68.1579   33.9172 C   0  0  0  0  0  0
  -36.8200   68.8969   31.8439 O   0  0  0  0  0  0
  -37.2149   69.8408   29.8822 N   0  0  0  0  0  0
  -41.0900   65.3489   34.1577 C   0  0  0  0  0  0
  -38.5347   65.9350   29.8727 C   0  0  0  0  0  0
  -38.7076   63.0685   32.3778 C   0  0  0  0  0  0
  -40.7226   69.5213   33.8430 O   0  0  0  0  0  0
  -41.6210   66.2154   35.1087 C   0  0  0  0  0  0
  -41.4892   67.5911   34.9920 C   0  0  0  0  0  0
  -38.9417   62.4433   33.6079 C   0  0  0  0  0  0
  -37.5029   62.8533   31.7017 C   0  0  0  0  0  0
  -36.5560   61.9834   32.2325 C   0  0  0  0  0  0
  -37.9937   61.5756   34.1401 C   0  0  0  0  0  0
  -36.8157   61.3343   33.4386 C   0  0  0  0  0  0
  -39.5711   68.9343   30.0772 H   0  0  0  0  0  0
  -39.5760   69.7365   31.5959 H   0  0  0  0  0  0
  -40.7840   63.4815   32.0209 H   0  0  0  0  0  0
  -39.7939   63.7018   30.6439 H   0  0  0  0  0  0
  -36.2293   70.0983   29.8462 H   0  0  0  0  0  0
  -37.8459   70.1223   29.1471 H   0  0  0  0  0  0
  -41.2320   64.2850   34.2588 H   0  0  0  0  0  0
  -38.2456   66.8124   29.2945 H   0  0  0  0  0  0
  -37.6151   65.3807   30.0575 H   0  0  0  0  0  0
  -39.1577   65.3248   29.2143 H   0  0  0  0  0  0
  -40.0956   69.8200   33.1796 H   0  0  0  0  0  0
  -42.1600   65.8087   35.9539 H   0  0  0  0  0  0
  -41.9228   68.2310   35.7487 H   0  0  0  0  0  0
  -39.8743   62.5818   34.1331 H   0  0  0  0  0  0
  -37.3190   63.3008   30.7334 H   0  0  0  0  0  0
  -35.6406   61.7835   31.6925 H   0  0  0  0  0  0
  -38.1809   61.0694   35.0768 H   0  0  0  0  0  0
  -36.1035   60.6206   33.8286 H   0  0  0  0  0  0
  1  3  1  0  0  0
  1  5  1  0  0  0
  1  7  1  0  0  0
  2  3  2  0  0  0
  2  6  1  0  0  0
  2  4  1  0  0  0
  3 13  1  0  0  0
  4  5  1  0  0  0
  4  9  2  0  0  0
  5 12  2  0  0  0
  6  8  1  0  0  0
  6 23  1  0  0  0
  6 24  1  0  0  0
  7 14  1  0  0  0
  7 25  1  0  0  0
  7 26  1  0  0  0
  8 10  2  0  0  0
  8 11  1  0  0  0
  9 15  1  0  0  0
  9 17  1  0  0  0
 11 27  1  0  0  0
 11 28  1  0  0  0
 12 16  1  0  0  0
 12 29  1  0  0  0
 13 30  1  0  0  0
 13 31  1  0  0  0
 13 32  1  0  0  0
 14 18  1  0  0  0
 14 19  2  0  0  0
 15 33  1  0  0  0
 16 17  2  0  0  0
 16 34  1  0  0  0
 17 35  1  0  0  0
 18 21  2  0  0  0
 18 36  1  0  0  0
 19 20  1  0  0  0
 19 37  1  0  0  0
 20 22  2  0  0  0
 20 38  1  0  0  0
 21 22  1  0  0  0
 21 39  1  0  0  0
 22 40  1  0  0  0
M  END
> <s_m_entry_id>
68251

> <s_m_entry_name>
dock_pv.187

> <s_m_Source_Path>
/home/csk/Desktop/cluster/DUD-E-result/pa2ga

> <s_m_Source_File>
dock_pv.maegz

> <i_m_Source_File_Index>
187

> <chembl_id>
CHEMBL356814

> <chembl_pref_name>
None

> <i_lp_mmshare_version>
53161

> <i_f3d_flags>
0

> <r_lp_tautomer_probability>
1

> <s_lp_Force_Field>
OPLS_2005

> <r_lp_Energy>
10.52108

> <b_lp_Chiralities_Consistent>
1

> <s_lp_Variant>
CHEMBL3474_lig20-1

> <s_i_glide_gridfile>
glide-grid_1kvo

> <i_i_glide_lignum>
59

> <i_i_glide_rotatable_bonds>
5

> <r_i_docking_score>
-7.07594032180343

> <r_i_glide_ligand_efficiency>
-0.321633650991065

> <r_i_glide_ligand_efficiency_sa>
-0.901230139210672

> <r_i_glide_ligand_efficiency_ln>
-1.72961791584314

> <r_i_glide_gscore>
-7.07594032180343

> <r_i_glide_lipo>
-2.54623665917264

> <r_i_glide_hbond>
-0.32

> <r_i_glide_metal>
0

> <r_i_glide_rewards>
-1.57122107243093

> <r_i_glide_evdw>
-32.3875007629395

> <r_i_glide_ecoul>
-10.3838062286377

> <r_i_glide_erotb>
0.63320936411669

> <r_i_glide_esite>
-0.094745981873923

> <r_i_glide_emodel>
-63.6714531952932

> <r_i_glide_energy>
-42.7713069915771

> <r_i_glide_einternal>
1.13725435733795

> <i_i_glide_confnum>
7

> <i_i_glide_posenum>
170

> <r_i_glide_eff_state_penalty>
0

> <s_user_duplicate_titles>
CHEMBL3474_lig20

> <s_m_subgroup_title>
dock_pv

> <s_m_subgroupid>
dock_pv

> <b_m_subgroup_collapsed>
1

$$$$
CHEMBL3474_lig277
                    3D
 Schrodinger Suite 2021-1.
 48 50  0  0  1  0            999 V2000
  -37.5113   62.7579   32.4702 C   0  0  0  0  0  0
  -38.2418   61.7838   33.1643 C   0  0  0  0  0  0
  -39.4566   62.1043   33.7946 C   0  0  0  0  0  0
  -39.9360   63.4270   33.7273 C   0  0  0  0  0  0
  -39.2128   64.4133   33.0287 C   0  0  0  0  0  0
  -37.9867   64.0747   32.4319 C   0  0  0  0  0  0
  -37.2140   65.0420   31.8346 O   0  0  0  0  0  0
  -37.7605   60.4971   33.1888 O   0  0  0  0  0  0
  -39.7060   65.8304   32.9768 C   0  0  0  0  0  0
  -40.0717   66.4587   33.9710 O   0  0  0  0  0  0
  -39.9463   66.4263   31.5787 C   0  0  0  0  0  0
  -40.1817   61.0552   34.5861 C   0  0  0  0  0  0
  -39.6388   60.3368   35.4248 O   0  0  0  0  0  0
  -41.6336   60.7593   34.1746 C   0  0  0  0  0  0
  -41.1267   63.7615   34.3340 O   0  0  0  0  0  0
  -36.1952   62.3778   31.7814 C   0  0  0  0  0  0
  -39.1435   67.7065   31.3560 C   0  0  0  0  0  0
  -42.7035   61.0510   35.2376 C   0  0  0  0  0  0
  -38.1380   67.7281   30.3842 C   0  0  0  0  0  0
  -37.4230   68.8982   30.1476 C   0  0  0  0  0  0
  -37.7135   70.0451   30.8816 C   0  0  0  0  0  0
  -38.7216   70.0374   31.8427 C   0  0  0  0  0  0
  -39.4403   68.8685   32.0771 C   0  0  0  0  0  0
  -42.4415   61.6875   36.4628 C   0  0  0  0  0  0
  -43.4763   61.9279   37.3630 C   0  0  0  0  0  0
  -44.7732   61.5300   37.0502 C   0  0  0  0  0  0
  -45.0455   60.8986   35.8410 C   0  0  0  0  0  0
  -44.0128   60.6633   34.9374 C   0  0  0  0  0  0
  -36.6567   64.6931   31.1293 H   0  0  0  0  0  0
  -36.9345   60.4074   32.7120 H   0  0  0  0  0  0
  -41.0078   66.6529   31.4866 H   0  0  0  0  0  0
  -39.7103   65.6891   30.8106 H   0  0  0  0  0  0
  -41.8776   61.3068   33.2637 H   0  0  0  0  0  0
  -41.6904   59.7020   33.9122 H   0  0  0  0  0  0
  -41.5706   63.0205   34.7533 H   0  0  0  0  0  0
  -35.5442   63.2280   31.5806 H   0  0  0  0  0  0
  -35.6152   61.7081   32.4145 H   0  0  0  0  0  0
  -36.3946   61.8613   30.8411 H   0  0  0  0  0  0
  -37.9130   66.8423   29.8061 H   0  0  0  0  0  0
  -36.6474   68.9198   29.3949 H   0  0  0  0  0  0
  -37.1561   70.9517   30.6928 H   0  0  0  0  0  0
  -38.9477   70.9357   32.3988 H   0  0  0  0  0  0
  -40.2256   68.8653   32.8196 H   0  0  0  0  0  0
  -41.4450   61.9974   36.7413 H   0  0  0  0  0  0
  -43.2714   62.4129   38.3061 H   0  0  0  0  0  0
  -45.5737   61.7120   37.7526 H   0  0  0  0  0  0
  -46.0534   60.5926   35.6002 H   0  0  0  0  0  0
  -44.2343   60.1751   33.9985 H   0  0  0  0  0  0
  1 16  1  0  0  0
  1  6  1  0  0  0
  1  2  2  0  0  0
  2  8  1  0  0  0
  2  3  1  0  0  0
  3 12  1  0  0  0
  3  4  2  0  0  0
  4 15  1  0  0  0
  4  5  1  0  0  0
  5  9  1  0  0  0
  5  6  2  0  0  0
  6  7  1  0  0  0
  7 29  1  0  0  0
  8 30  1  0  0  0
  9 10  2  0  0  0
  9 11  1  0  0  0
 11 17  1  0  0  0
 11 31  1  0  0  0
 11 32  1  0  0  0
 12 13  2  0  0  0
 12 14  1  0  0  0
 14 18  1  0  0  0
 14 33  1  0  0  0
 14 34  1  0  0  0
 15 35  1  0  0  0
 16 36  1  0  0  0
 16 37  1  0  0  0
 16 38  1  0  0  0
 17 19  2  0  0  0
 17 23  1  0  0  0
 18 24  2  0  0  0
 18 28  1  0  0  0
 19 20  1  0  0  0
 19 39  1  0  0  0
 20 21  2  0  0  0
 20 40  1  0  0  0
 21 22  1  0  0  0
 21 41  1  0  0  0
 22 23  2  0  0  0
 22 42  1  0  0  0
 23 43  1  0  0  0
 24 25  1  0  0  0
 24 44  1  0  0  0
 25 26  2  0  0  0
 25 45  1  0  0  0
 26 27  1  0  0  0
 26 46  1  0  0  0
 27 28  2  0  0  0
 27 47  1  0  0  0
 28 48  1  0  0  0
M  END
> <s_m_entry_id>
68252

> <s_m_entry_name>
dock_pv.188

> <s_m_Source_Path>
/home/csk/Desktop/cluster/DUD-E-result/pa2ga

> <s_m_Source_File>
dock_pv.maegz

> <i_m_Source_File_Index>
188

> <chembl_id>
CHEMBL520514

> <chembl_pref_name>
None

> <i_lp_mmshare_version>
53161

> <i_f3d_flags>
0

> <r_lp_tautomer_probability>
0.999800024997

> <s_lp_Force_Field>
OPLS_2005

> <r_lp_Energy>
47.798286

> <b_lp_Chiralities_Consistent>
1

> <s_lp_Variant>
CHEMBL3474_lig277-1

> <s_i_glide_gridfile>
glide-grid_1kvo

> <i_i_glide_lignum>
362

> <i_i_glide_rotatable_bonds>
9

> <r_i_docking_score>
-7.06548972512609

> <r_i_glide_ligand_efficiency>
-0.252338918754503

> <r_i_glide_ligand_efficiency_sa>
-0.766249577013854

> <r_i_glide_ligand_efficiency_ln>
-1.63092248035178

> <r_i_glide_gscore>
-7.06548972512609

> <r_i_glide_lipo>
-3.23078150631935

> <r_i_glide_hbond>
-0.00807680903736687

> <r_i_glide_metal>
0

> <r_i_glide_rewards>
-1.54693736836406

> <r_i_glide_evdw>
-48.9164237976074

> <r_i_glide_ecoul>
-4.3576192855835

> <r_i_glide_erotb>
0.819770041312585

> <r_i_glide_esite>
0

> <r_i_glide_emodel>
-73.1023279789948

> <r_i_glide_energy>
-53.2740430831909

> <r_i_glide_einternal>
6.32598686218262

> <i_i_glide_confnum>
42

> <i_i_glide_posenum>
15

> <r_i_glide_eff_state_penalty>
0

> <s_user_duplicate_titles>
CHEMBL3474_lig277

> <s_m_subgroup_title>
dock_pv

> <s_m_subgroupid>
dock_pv

> <b_m_subgroup_collapsed>
1

$$$$
CHEMBL3474_lig168
                    3D
 Schrodinger Suite 2021-1.
 41 43  0  0  1  0            999 V2000
  -39.8960   63.4094   34.5193 N   0  0  0  0  0  0
  -39.6804   65.2318   33.1863 C   0  0  0  0  0  0
  -40.4539   64.6323   34.1752 C   0  0  0  0  0  0
  -38.6134   64.3140   32.8991 C   0  0  0  0  0  0
  -38.7942   63.1625   33.7180 C   0  0  0  0  0  0
  -39.8843   66.5959   32.5321 C   0  0  0  0  0  0
  -40.4228   62.4792   35.5234 C   0  0  0  0  0  0
  -37.9236   62.0636   33.6469 C   0  0  0  0  0  0
  -40.3383   66.5472   31.0647 C   0  0  0  0  0  0
  -37.5172   64.3566   32.0217 C   0  0  0  0  0  0
  -41.2149   67.2971   30.6470 O   0  0  0  0  0  0
  -36.6774   63.2560   31.9335 C   0  0  0  0  0  0
  -39.7331   65.6978   30.2430 N   0  0  0  0  0  0
  -36.8768   62.1328   32.7263 C   0  0  0  0  0  0
  -41.7162   65.1351   34.8506 C   0  0  0  0  0  0
  -41.5494   61.6073   35.0014 C   0  0  0  0  0  0
  -35.6151   63.2999   31.0438 N   0  0  0  0  0  0
  -41.2911   60.7008   33.9732 C   0  0  0  0  0  0
  -42.8409   61.7271   35.5264 C   0  0  0  0  0  0
  -43.8785   60.9698   34.9897 C   0  0  0  0  0  0
  -42.3273   59.9492   33.4428 C   0  0  0  0  0  0
  -43.6150   60.0990   33.9351 C   0  0  0  0  0  0
  -40.6165   67.1844   33.0825 H   0  0  0  0  0  0
  -38.9641   67.1785   32.5699 H   0  0  0  0  0  0
  -39.6144   61.8243   35.8429 H   0  0  0  0  0  0
  -40.7203   63.0418   36.4099 H   0  0  0  0  0  0
  -38.0465   61.1888   34.2691 H   0  0  0  0  0  0
  -37.3418   65.2184   31.3945 H   0  0  0  0  0  0
  -40.0021   65.6824   29.2697 H   0  0  0  0  0  0
  -39.0559   65.0309   30.5799 H   0  0  0  0  0  0
  -36.1952   61.2988   32.6435 H   0  0  0  0  0  0
  -42.0341   66.1077   34.4773 H   0  0  0  0  0  0
  -42.5517   64.4579   34.6857 H   0  0  0  0  0  0
  -41.5882   65.2369   35.9276 H   0  0  0  0  0  0
  -35.2313   62.4200   30.7331 H   0  0  0  0  0  0
  -35.5206   64.1220   30.4510 H   0  0  0  0  0  0
  -40.2981   60.5933   33.5620 H   0  0  0  0  0  0
  -43.0478   62.4209   36.3301 H   0  0  0  0  0  0
  -44.8843   61.0716   35.3707 H   0  0  0  0  0  0
  -42.1356   59.2854   32.6143 H   0  0  0  0  0  0
  -44.4148   59.5401   33.4740 H   0  0  0  0  0  0
  1  3  1  0  0  0
  1  5  1  0  0  0
  1  7  1  0  0  0
  2  3  2  0  0  0
  2  6  1  0  0  0
  2  4  1  0  0  0
  3 15  1  0  0  0
  4  5  1  0  0  0
  4 10  2  0  0  0
  5  8  2  0  0  0
  6  9  1  0  0  0
  6 23  1  0  0  0
  6 24  1  0  0  0
  7 16  1  0  0  0
  7 25  1  0  0  0
  7 26  1  0  0  0
  8 14  1  0  0  0
  8 27  1  0  0  0
  9 11  2  0  0  0
  9 13  1  0  0  0
 10 12  1  0  0  0
 10 28  1  0  0  0
 12 14  2  0  0  0
 12 17  1  0  0  0
 13 29  1  0  0  0
 13 30  1  0  0  0
 14 31  1  0  0  0
 15 32  1  0  0  0
 15 33  1  0  0  0
 15 34  1  0  0  0
 16 18  1  0  0  0
 16 19  2  0  0  0
 17 35  1  0  0  0
 17 36  1  0  0  0
 18 21  2  0  0  0
 18 37  1  0  0  0
 19 20  1  0  0  0
 19 38  1  0  0  0
 20 22  2  0  0  0
 20 39  1  0  0  0
 21 22  1  0  0  0
 21 40  1  0  0  0
 22 41  1  0  0  0
M  END
> <s_m_entry_id>
68253

> <s_m_entry_name>
dock_pv.189

> <s_m_Source_Path>
/home/csk/Desktop/cluster/DUD-E-result/pa2ga

> <s_m_Source_File>
dock_pv.maegz

> <i_m_Source_File_Index>
189

> <chembl_id>
CHEMBL343213

> <chembl_pref_name>
None

> <i_lp_mmshare_version>
53161

> <i_f3d_flags>
0

> <r_lp_tautomer_probability>
1

> <s_lp_Force_Field>
OPLS_2005

> <r_lp_Energy>
9.8912

> <b_lp_Chiralities_Consistent>
1

> <s_lp_Variant>
CHEMBL3474_lig168-1

> <s_i_glide_gridfile>
glide-grid_1kvo

> <i_i_glide_lignum>
229

> <i_i_glide_rotatable_bonds>
4

> <r_i_docking_score>
-7.06096441504042

> <r_i_glide_ligand_efficiency>
-0.320952927956383

> <r_i_glide_ligand_efficiency_sa>
-0.899322726496174

> <r_i_glide_ligand_efficiency_ln>
-1.72595725797079

> <r_i_glide_gscore>
-7.06096441504042

> <r_i_glide_lipo>
-2.91308733352517

> <r_i_glide_hbond>
-0.121828031836752

> <r_i_glide_metal>
0

> <r_i_glide_rewards>
-1.83334438149183

> <r_i_glide_evdw>
-37.6604118347168

> <r_i_glide_ecoul>
-6.13492822647095

> <r_i_glide_erotb>
0.636925441550485

> <r_i_glide_esite>
-0.026370284030662

> <r_i_glide_emodel>
-65.3793590140864

> <r_i_glide_energy>
-43.7953400611877

> <r_i_glide_einternal>
2.18990659713745

> <i_i_glide_confnum>
8

> <i_i_glide_posenum>
278

> <r_i_glide_eff_state_penalty>
0

> <s_user_duplicate_titles>
CHEMBL3474_lig168

> <s_m_subgroup_title>
dock_pv

> <s_m_subgroupid>
dock_pv

> <b_m_subgroup_collapsed>
1

$$$$
CHEMBL3474_lig180
                    3D
 Schrodinger Suite 2021-1.
 49 51  0  0  1  0            999 V2000
  -40.4308   63.9984   34.6435 N   0  0  0  0  0  0
  -39.8608   65.0059   32.6877 C   0  0  0  0  0  0
  -40.6710   65.0863   33.8187 C   0  0  0  0  0  0
  -39.0845   63.8018   32.8422 C   0  0  0  0  0  0
  -39.4571   63.1979   34.0761 C   0  0  0  0  0  0
  -39.8243   65.9697   31.4980 C   0  0  0  0  0  0
  -41.1116   63.7154   35.9132 C   0  0  0  0  0  0
  -38.8718   62.0072   34.5259 C   0  0  0  0  0  0
  -38.4146   66.4120   31.0736 C   0  0  0  0  0  0
  -38.1051   63.1712   32.0573 C   0  0  0  0  0  0
  -37.6620   67.0099   31.8429 O   0  0  0  0  0  0
  -37.5100   61.9860   32.5070 C   0  0  0  0  0  0
  -38.0150   66.0979   29.8445 N   0  0  0  0  0  0
  -37.8885   61.4370   33.7248 C   0  0  0  0  0  0
  -41.6943   66.1367   34.2048 C   0  0  0  0  0  0
  -42.4425   62.9417   35.7183 C   0  0  0  0  0  0
  -36.5419   61.2980   31.8171 O   0  0  0  0  0  0
  -36.3872   61.5313   30.4290 C   0  0  0  0  0  0
  -42.2587   61.5229   35.1188 C   0  0  0  0  0  0
  -43.2003   62.8175   37.0593 C   0  0  0  0  0  0
  -44.5761   62.1494   36.8685 C   0  0  0  0  0  0
  -43.6081   60.8010   34.9163 C   0  0  0  0  0  0
  -44.4305   60.7593   36.2199 C   0  0  0  0  0  0
  -40.3273   65.5059   30.6474 H   0  0  0  0  0  0
  -40.3891   66.8792   31.6939 H   0  0  0  0  0  0
  -40.4297   63.1699   36.5659 H   0  0  0  0  0  0
  -41.2864   64.6629   36.4229 H   0  0  0  0  0  0
  -39.1672   61.5288   35.4434 H   0  0  0  0  0  0
  -37.8160   63.6069   31.1151 H   0  0  0  0  0  0
  -37.0497   66.2849   29.5888 H   0  0  0  0  0  0
  -38.5817   65.5249   29.2343 H   0  0  0  0  0  0
  -37.4184   60.5184   34.0449 H   0  0  0  0  0  0
  -41.8096   66.8964   33.4398 H   0  0  0  0  0  0
  -42.6830   65.7078   34.3649 H   0  0  0  0  0  0
  -41.4139   66.6565   35.1204 H   0  0  0  0  0  0
  -43.0845   63.5068   35.0433 H   0  0  0  0  0  0
  -35.6150   60.8718   30.0382 H   0  0  0  0  0  0
  -36.0736   62.5591   30.2431 H   0  0  0  0  0  0
  -37.3036   61.2981   29.8859 H   0  0  0  0  0  0
  -41.7290   61.5733   34.1674 H   0  0  0  0  0  0
  -41.6110   60.9302   35.7669 H   0  0  0  0  0  0
  -42.5988   62.2693   37.7869 H   0  0  0  0  0  0
  -43.3327   63.8058   37.5023 H   0  0  0  0  0  0
  -45.2120   62.7811   36.2453 H   0  0  0  0  0  0
  -45.0826   62.0592   37.8300 H   0  0  0  0  0  0
  -44.1843   61.3033   34.1379 H   0  0  0  0  0  0
  -43.4359   59.7856   34.5552 H   0  0  0  0  0  0
  -45.4140   60.3261   36.0323 H   0  0  0  0  0  0
  -43.9344   60.0982   36.9321 H   0  0  0  0  0  0
  1  3  1  0  0  0
  1  5  1  0  0  0
  1  7  1  0  0  0
  2  3  2  0  0  0
  2  6  1  0  0  0
  2  4  1  0  0  0
  3 15  1  0  0  0
  4  5  1  0  0  0
  4 10  2  0  0  0
  5  8  2  0  0  0
  6  9  1  0  0  0
  6 24  1  0  0  0
  6 25  1  0  0  0
  7 16  1  0  0  0
  7 26  1  0  0  0
  7 27  1  0  0  0
  8 14  1  0  0  0
  8 28  1  0  0  0
  9 11  2  0  0  0
  9 13  1  0  0  0
 10 12  1  0  0  0
 10 29  1  0  0  0
 12 14  2  0  0  0
 12 17  1  0  0  0
 13 30  1  0  0  0
 13 31  1  0  0  0
 14 32  1  0  0  0
 15 33  1  0  0  0
 15 34  1  0  0  0
 15 35  1  0  0  0
 16 19  1  0  0  0
 16 20  1  0  0  0
 16 36  1  0  0  0
 17 18  1  0  0  0
 18 37  1  0  0  0
 18 38  1  0  0  0
 18 39  1  0  0  0
 19 22  1  0  0  0
 19 40  1  0  0  0
 19 41  1  0  0  0
 20 21  1  0  0  0
 20 42  1  0  0  0
 20 43  1  0  0  0
 21 23  1  0  0  0
 21 44  1  0  0  0
 21 45  1  0  0  0
 22 23  1  0  0  0
 22 46  1  0  0  0
 22 47  1  0  0  0
 23 48  1  0  0  0
 23 49  1  0  0  0
M  END
> <s_m_entry_id>
68254

> <s_m_entry_name>
dock_pv.190

> <s_m_Source_Path>
/home/csk/Desktop/cluster/DUD-E-result/pa2ga

> <s_m_Source_File>
dock_pv.maegz

> <i_m_Source_File_Index>
190

> <chembl_id>
CHEMBL149146

> <chembl_pref_name>
None

> <i_lp_mmshare_version>
53161

> <i_f3d_flags>
0

> <r_lp_tautomer_probability>
1

> <s_lp_Force_Field>
OPLS_2005

> <r_lp_Energy>
14.905963

> <b_lp_Chiralities_Consistent>
1

> <s_lp_Variant>
CHEMBL3474_lig180-1

> <s_i_glide_gridfile>
glide-grid_1kvo

> <i_i_glide_lignum>
242

> <i_i_glide_rotatable_bonds>
5

> <r_i_docking_score>
-7.02797540687161

> <r_i_glide_ligand_efficiency>
-0.305564148124852

> <r_i_glide_ligand_efficiency_sa>
-0.868983790170509

> <r_i_glide_ligand_efficiency_ln>
-1.69942817953926

> <r_i_glide_gscore>
-7.02797540687161

> <r_i_glide_lipo>
-3.20525345908559

> <r_i_glide_hbond>
-0.156720901994572

> <r_i_glide_metal>
0

> <r_i_glide_rewards>
-1.39441459505507

> <r_i_glide_evdw>
-35.5470352172852

> <r_i_glide_ecoul>
-6.32445907592773

> <r_i_glide_erotb>
0.564068381976969

> <r_i_glide_esite>
-0.10963421045993

> <r_i_glide_emodel>
-61.5288724330918

> <r_i_glide_energy>
-41.8714942932129

> <r_i_glide_einternal>
2.5146746635437

> <i_i_glide_confnum>
3

> <i_i_glide_posenum>
360

> <r_i_glide_eff_state_penalty>
0

> <s_user_duplicate_titles>
CHEMBL3474_lig180

> <s_m_subgroup_title>
dock_pv

> <s_m_subgroupid>
dock_pv

> <b_m_subgroup_collapsed>
1

$$$$
CHEMBL3474_lig74
                    3D
 Schrodinger Suite 2021-1.
 40 42  0  0  1  0            999 V2000
  -40.0445   62.6121   34.9516 N   0  0  0  0  0  0
  -38.9579   63.1457   33.0378 C   0  0  0  0  0  0
  -39.1635   62.1501   33.9881 C   0  0  0  0  0  0
  -39.7323   64.2890   33.4632 C   0  0  0  0  0  0
  -40.4152   63.9133   34.6575 C   0  0  0  0  0  0
  -40.6079   61.8317   36.0589 C   0  0  0  0  0  0
  -38.1429   63.0277   31.7559 C   0  0  0  0  0  0
  -36.8229   63.8064   31.7353 C   0  0  0  0  0  0
  -39.9455   65.5927   32.9599 C   0  0  0  0  0  0
  -42.0643   61.4384   35.8428 C   0  0  0  0  0  0
  -36.7045   64.8981   32.2788 O   0  0  0  0  0  0
  -35.8177   63.2953   31.0429 N   0  0  0  0  0  0
  -43.0117   61.6979   36.8394 C   0  0  0  0  0  0
  -41.2886   64.7846   35.3263 C   0  0  0  0  0  0
  -38.5968   60.7413   34.0529 C   0  0  0  0  0  0
  -44.3504   61.3608   36.6433 C   0  0  0  0  0  0
  -39.3098   66.0373   31.8303 O   0  0  0  0  0  0
  -45.5100   61.6751   37.8809 Cl  0  0  0  0  0  0
  -41.4682   66.0551   34.7851 C   0  0  0  0  0  0
  -43.8105   60.4980   34.4519 C   0  0  0  0  0  0
  -40.8100   66.4536   33.6288 C   0  0  0  0  0  0
  -42.4707   60.8262   34.6506 C   0  0  0  0  0  0
  -44.7499   60.7690   35.4467 C   0  0  0  0  0  0
  -40.0097   60.9398   36.2454 H   0  0  0  0  0  0
  -40.5250   62.4454   36.9565 H   0  0  0  0  0  0
  -37.9359   61.9831   31.5228 H   0  0  0  0  0  0
  -38.7399   63.3855   30.9183 H   0  0  0  0  0  0
  -34.9969   63.8649   30.8889 H   0  0  0  0  0  0
  -35.9452   62.4437   30.5178 H   0  0  0  0  0  0
  -42.7154   62.1621   37.7691 H   0  0  0  0  0  0
  -41.8105   64.4922   36.2259 H   0  0  0  0  0  0
  -37.8911   60.5326   33.2501 H   0  0  0  0  0  0
  -38.0570   60.5649   34.9838 H   0  0  0  0  0  0
  -39.3790   59.9846   33.9860 H   0  0  0  0  0  0
  -38.5851   65.4625   31.5633 H   0  0  0  0  0  0
  -42.1349   66.7490   35.2773 H   0  0  0  0  0  0
  -44.1237   60.0337   33.5275 H   0  0  0  0  0  0
  -40.9687   67.4498   33.2436 H   0  0  0  0  0  0
  -41.7546   60.6149   33.8697 H   0  0  0  0  0  0
  -45.7867   60.5083   35.2884 H   0  0  0  0  0  0
  1  3  1  0  0  0
  1  5  1  0  0  0
  1  6  1  0  0  0
  2  3  2  0  0  0
  2  7  1  0  0  0
  2  4  1  0  0  0
  3 15  1  0  0  0
  4  5  1  0  0  0
  4  9  2  0  0  0
  5 14  2  0  0  0
  6 10  1  0  0  0
  6 24  1  0  0  0
  6 25  1  0  0  0
  7  8  1  0  0  0
  7 26  1  0  0  0
  7 27  1  0  0  0
  8 11  2  0  0  0
  8 12  1  0  0  0
  9 17  1  0  0  0
  9 21  1  0  0  0
 10 13  1  0  0  0
 10 22  2  0  0  0
 12 28  1  0  0  0
 12 29  1  0  0  0
 13 16  2  0  0  0
 13 30  1  0  0  0
 14 19  1  0  0  0
 14 31  1  0  0  0
 15 32  1  0  0  0
 15 33  1  0  0  0
 15 34  1  0  0  0
 16 18  1  0  0  0
 16 23  1  0  0  0
 17 35  1  0  0  0
 19 21  2  0  0  0
 19 36  1  0  0  0
 20 22  1  0  0  0
 20 23  2  0  0  0
 20 37  1  0  0  0
 21 38  1  0  0  0
 22 39  1  0  0  0
 23 40  1  0  0  0
M  END
> <s_m_entry_id>
68255

> <s_m_entry_name>
dock_pv.191

> <s_m_Source_Path>
/home/csk/Desktop/cluster/DUD-E-result/pa2ga

> <s_m_Source_File>
dock_pv.maegz

> <i_m_Source_File_Index>
191

> <chembl_id>
CHEMBL357394

> <chembl_pref_name>
None

> <i_lp_mmshare_version>
53161

> <i_f3d_flags>
0

> <r_lp_tautomer_probability>
1

> <s_lp_Force_Field>
OPLS_2005

> <r_lp_Energy>
9.132852

> <b_lp_Chiralities_Consistent>
1

> <s_lp_Variant>
CHEMBL3474_lig74-1

> <s_i_glide_gridfile>
glide-grid_1kvo

> <i_i_glide_lignum>
114

> <i_i_glide_rotatable_bonds>
5

> <r_i_docking_score>
-7.00848461896427

> <r_i_glide_ligand_efficiency>
-0.304716722563664

> <r_i_glide_ligand_efficiency_sa>
-0.866573824601682

> <r_i_glide_ligand_efficiency_ln>
-1.69471513029057

> <r_i_glide_gscore>
-7.00848461896427

> <r_i_glide_lipo>
-3.16829102202386

> <r_i_glide_hbond>
-0.223096781766334

> <r_i_glide_metal>
0

> <r_i_glide_rewards>
-1.41122555956627

> <r_i_glide_evdw>
-37.7312927246094

> <r_i_glide_ecoul>
-5.11373567581177

> <r_i_glide_erotb>
0.52133670511047

> <r_i_glide_esite>
-0.0735829731160386

> <r_i_glide_emodel>
-63.9731748748066

> <r_i_glide_energy>
-42.8450284004211

> <r_i_glide_einternal>
1.32170641422272

> <i_i_glide_confnum>
4

> <i_i_glide_posenum>
368

> <r_i_glide_eff_state_penalty>
0

> <s_user_duplicate_titles>
CHEMBL3474_lig74

> <s_m_subgroup_title>
dock_pv

> <s_m_subgroupid>
dock_pv

> <b_m_subgroup_collapsed>
1

$$$$
CHEMBL3474_lig153
                    3D
 Schrodinger Suite 2021-1.
 43 45  0  0  1  0            999 V2000
  -39.9214   65.4554   31.9652 N   0  0  0  0  0  0
  -39.5280   67.6709   31.7090 C   0  0  0  0  0  0
  -39.3333   66.4130   31.1499 C   0  0  0  0  0  0
  -40.4712   66.0702   33.0777 C   0  0  0  0  0  0
  -40.2440   67.4655   32.9337 C   0  0  0  0  0  0
  -41.1667   65.5401   34.1747 C   0  0  0  0  0  0
  -39.1322   69.0230   31.1330 C   0  0  0  0  0  0
  -39.9810   64.0151   31.7072 C   0  0  0  0  0  0
  -40.7371   68.3307   33.9204 C   0  0  0  0  0  0
  -37.6235   69.2519   30.9880 C   0  0  0  0  0  0
  -36.8154   68.8934   31.8430 O   0  0  0  0  0  0
  -41.6315   66.4317   35.1528 C   0  0  0  0  0  0
  -37.2150   69.8821   29.8955 N   0  0  0  0  0  0
  -41.4157   67.7988   35.0144 C   0  0  0  0  0  0
  -38.6446   66.0500   29.8462 C   0  0  0  0  0  0
  -38.9738   63.1616   32.4678 C   0  0  0  0  0  0
  -42.3194   66.0424   36.2845 O   0  0  0  0  0  0
  -39.3685   62.4688   33.6172 C   0  0  0  0  0  0
  -37.6868   62.9838   31.9530 C   0  0  0  0  0  0
  -42.5428   64.6576   36.5274 C   0  0  0  0  0  0
  -38.4856   61.5947   34.2429 C   0  0  0  0  0  0
  -36.8086   62.1010   32.5732 C   0  0  0  0  0  0
  -37.2151   61.4065   33.7098 C   0  0  0  0  0  0
  -41.3482   64.4828   34.2546 H   0  0  0  0  0  0
  -39.6187   69.1551   30.1650 H   0  0  0  0  0  0
  -39.5090   69.8379   31.7521 H   0  0  0  0  0  0
  -40.9938   63.6752   31.9299 H   0  0  0  0  0  0
  -39.8693   63.8327   30.6432 H   0  0  0  0  0  0
  -40.5859   69.3969   33.8439 H   0  0  0  0  0  0
  -36.2217   70.1015   29.8345 H   0  0  0  0  0  0
  -37.8560   70.1952   29.1822 H   0  0  0  0  0  0
  -41.7870   68.4642   35.7804 H   0  0  0  0  0  0
  -38.3209   66.9292   29.2900 H   0  0  0  0  0  0
  -37.7527   65.4470   30.0078 H   0  0  0  0  0  0
  -39.2944   65.4915   29.1735 H   0  0  0  0  0  0
  -40.3686   62.5670   34.0097 H   0  0  0  0  0  0
  -37.3804   63.4854   31.0466 H   0  0  0  0  0  0
  -43.0791   64.5399   37.4689 H   0  0  0  0  0  0
  -41.6030   64.1098   36.6134 H   0  0  0  0  0  0
  -43.1511   64.2049   35.7433 H   0  0  0  0  0  0
  -38.7902   61.0474   35.1237 H   0  0  0  0  0  0
  -35.8220   61.9406   32.1626 H   0  0  0  0  0  0
  -36.5399   60.7072   34.1805 H   0  0  0  0  0  0
  1  3  1  0  0  0
  1  4  1  0  0  0
  1  8  1  0  0  0
  2  3  2  0  0  0
  2  7  1  0  0  0
  2  5  1  0  0  0
  3 15  1  0  0  0
  4  5  1  0  0  0
  4  6  2  0  0  0
  5  9  2  0  0  0
  6 12  1  0  0  0
  6 24  1  0  0  0
  7 10  1  0  0  0
  7 25  1  0  0  0
  7 26  1  0  0  0
  8 16  1  0  0  0
  8 27  1  0  0  0
  8 28  1  0  0  0
  9 14  1  0  0  0
  9 29  1  0  0  0
 10 11  2  0  0  0
 10 13  1  0  0  0
 12 14  2  0  0  0
 12 17  1  0  0  0
 13 30  1  0  0  0
 13 31  1  0  0  0
 14 32  1  0  0  0
 15 33  1  0  0  0
 15 34  1  0  0  0
 15 35  1  0  0  0
 16 18  1  0  0  0
 16 19  2  0  0  0
 17 20  1  0  0  0
 18 21  2  0  0  0
 18 36  1  0  0  0
 19 22  1  0  0  0
 19 37  1  0  0  0
 20 38  1  0  0  0
 20 39  1  0  0  0
 20 40  1  0  0  0
 21 23  1  0  0  0
 21 41  1  0  0  0
 22 23  2  0  0  0
 22 42  1  0  0  0
 23 43  1  0  0  0
M  END
> <s_m_entry_id>
68256

> <s_m_entry_name>
dock_pv.192

> <s_m_Source_Path>
/home/csk/Desktop/cluster/DUD-E-result/pa2ga

> <s_m_Source_File>
dock_pv.maegz

> <i_m_Source_File_Index>
192

> <chembl_id>
CHEMBL148613

> <chembl_pref_name>
None

> <i_lp_mmshare_version>
53161

> <i_f3d_flags>
0

> <r_lp_tautomer_probability>
1

> <s_lp_Force_Field>
OPLS_2005

> <r_lp_Energy>
12.166303

> <b_lp_Chiralities_Consistent>
1

> <s_lp_Variant>
CHEMBL3474_lig153-1

> <s_i_glide_gridfile>
glide-grid_1kvo

> <i_i_glide_lignum>
214

> <i_i_glide_rotatable_bonds>
5

> <r_i_docking_score>
-7.00803951065914

> <r_i_glide_ligand_efficiency>
-0.304697370028658

> <r_i_glide_ligand_efficiency_sa>
-0.866518788566461

> <r_i_glide_ligand_efficiency_ln>
-1.69460749906637

> <r_i_glide_gscore>
-7.00803951065914

> <r_i_glide_lipo>
-2.63131968256769

> <r_i_glide_hbond>
-0.32

> <r_i_glide_metal>
0

> <r_i_glide_rewards>
-1.4794825497929

> <r_i_glide_evdw>
-34.8041343688965

> <r_i_glide_ecoul>
-8.81485080718994

> <r_i_glide_erotb>
0.583647674388178

> <r_i_glide_esite>
-0.0984506131634124

> <r_i_glide_emodel>
-65.2547734424366

> <r_i_glide_energy>
-43.6189851760864

> <r_i_glide_einternal>
1.66412401199341

> <i_i_glide_confnum>
4

> <i_i_glide_posenum>
400

> <r_i_glide_eff_state_penalty>
0

> <s_user_duplicate_titles>
CHEMBL3474_lig153

> <s_m_subgroup_title>
dock_pv

> <s_m_subgroupid>
dock_pv

> <b_m_subgroup_collapsed>
1

$$$$
CHEMBL3474_lig179
                    3D
 Schrodinger Suite 2021-1.
 40 42  0  0  1  0            999 V2000
  -40.2548   65.4437   32.0759 N   0  0  0  0  0  0
  -39.7842   67.6154   31.6082 C   0  0  0  0  0  0
  -39.7291   66.3143   31.1529 C   0  0  0  0  0  0
  -40.4154   67.5390   32.9002 C   0  0  0  0  0  0
  -40.6714   66.1625   33.1807 C   0  0  0  0  0  0
  -39.2871   68.8562   30.8864 C   0  0  0  0  0  0
  -40.2983   63.9989   31.9205 C   0  0  0  0  0  0
  -41.2650   65.7462   34.3784 C   0  0  0  0  0  0
  -37.7703   69.0635   30.9886 C   0  0  0  0  0  0
  -40.8148   68.5001   33.8431 C   0  0  0  0  0  0
  -37.0906   68.4982   31.8430 O   0  0  0  0  0  0
  -41.4911   68.0978   35.0040 C   0  0  0  0  0  0
  -37.2150   69.8973   30.1154 N   0  0  0  0  0  0
  -41.6698   66.7424   35.2648 C   0  0  0  0  0  0
  -39.0106   63.2976   32.3271 C   0  0  0  0  0  0
  -42.0160   68.9761   35.9305 O   0  0  0  0  0  0
  -39.0093   62.4024   33.4019 C   0  0  0  0  0  0
  -37.8511   63.4809   31.5680 C   0  0  0  0  0  0
  -42.1699   70.3494   35.5797 C   0  0  0  0  0  0
  -36.7144   62.7309   31.8413 C   0  0  0  0  0  0
  -37.8683   61.6537   33.6793 C   0  0  0  0  0  0
  -36.7383   61.8059   32.8794 C   0  0  0  0  0  0
  -39.3345   65.9271   30.2229 H   0  0  0  0  0  0
  -39.5503   68.7957   29.8296 H   0  0  0  0  0  0
  -39.7671   69.7553   31.2717 H   0  0  0  0  0  0
  -41.1499   63.6112   32.4818 H   0  0  0  0  0  0
  -40.5195   63.7724   30.8770 H   0  0  0  0  0  0
  -41.4474   64.7043   34.5982 H   0  0  0  0  0  0
  -40.6339   69.5431   33.6430 H   0  0  0  0  0  0
  -36.2139   70.0979   30.1809 H   0  0  0  0  0  0
  -37.7684   70.3585   29.4095 H   0  0  0  0  0  0
  -42.1703   66.4547   36.1783 H   0  0  0  0  0  0
  -39.8990   62.2544   33.9967 H   0  0  0  0  0  0
  -37.8404   64.1582   30.7263 H   0  0  0  0  0  0
  -42.7100   70.8608   36.3762 H   0  0  0  0  0  0
  -42.7524   70.4620   34.6637 H   0  0  0  0  0  0
  -41.2158   70.8625   35.4547 H   0  0  0  0  0  0
  -35.8324   62.8419   31.2272 H   0  0  0  0  0  0
  -37.8675   60.9406   34.4915 H   0  0  0  0  0  0
  -35.8635   61.1990   33.0514 H   0  0  0  0  0  0
  1  3  1  0  0  0
  1  5  1  0  0  0
  1  7  1  0  0  0
  2  3  2  0  0  0
  2  6  1  0  0  0
  2  4  1  0  0  0
  3 23  1  0  0  0
  4  5  1  0  0  0
  4 10  2  0  0  0
  5  8  2  0  0  0
  6  9  1  0  0  0
  6 24  1  0  0  0
  6 25  1  0  0  0
  7 15  1  0  0  0
  7 26  1  0  0  0
  7 27  1  0  0  0
  8 14  1  0  0  0
  8 28  1  0  0  0
  9 11  2  0  0  0
  9 13  1  0  0  0
 10 12  1  0  0  0
 10 29  1  0  0  0
 12 14  2  0  0  0
 12 16  1  0  0  0
 13 30  1  0  0  0
 13 31  1  0  0  0
 14 32  1  0  0  0
 15 17  2  0  0  0
 15 18  1  0  0  0
 16 19  1  0  0  0
 17 21  1  0  0  0
 17 33  1  0  0  0
 18 20  2  0  0  0
 18 34  1  0  0  0
 19 35  1  0  0  0
 19 36  1  0  0  0
 19 37  1  0  0  0
 20 22  1  0  0  0
 20 38  1  0  0  0
 21 22  2  0  0  0
 21 39  1  0  0  0
 22 40  1  0  0  0
M  END
> <s_m_entry_id>
68257

> <s_m_entry_name>
dock_pv.193

> <s_m_Source_Path>
/home/csk/Desktop/cluster/DUD-E-result/pa2ga

> <s_m_Source_File>
dock_pv.maegz

> <i_m_Source_File_Index>
193

> <chembl_id>
CHEMBL149547

> <chembl_pref_name>
None

> <i_lp_mmshare_version>
53161

> <i_f3d_flags>
0

> <r_lp_tautomer_probability>
1

> <s_lp_Force_Field>
OPLS_2005

> <r_lp_Energy>
10.703334

> <b_lp_Chiralities_Consistent>
1

> <s_lp_Variant>
CHEMBL3474_lig179-1

> <s_i_glide_gridfile>
glide-grid_1kvo

> <i_i_glide_lignum>
241

> <i_i_glide_rotatable_bonds>
5

> <r_i_docking_score>
-7.00701519579621

> <r_i_glide_ligand_efficiency>
-0.31850069071801

> <r_i_glide_ligand_efficiency_sa>
-0.892451461313235

> <r_i_glide_ligand_efficiency_ln>
-1.71277010094192

> <r_i_glide_gscore>
-7.00701519579621

> <r_i_glide_lipo>
-2.52208847361913

> <r_i_glide_hbond>
-0.32

> <r_i_glide_metal>
0

> <r_i_glide_rewards>
-1.7349058473506

> <r_i_glide_evdw>
-29.9602813720703

> <r_i_glide_ecoul>
-9.7680082321167

> <r_i_glide_erotb>
0.63320936411669

> <r_i_glide_esite>
-0.100014935522153

> <r_i_glide_emodel>
-58.819618811167

> <r_i_glide_energy>
-39.728289604187

> <r_i_glide_einternal>
3.00537371635437

> <i_i_glide_confnum>
4

> <i_i_glide_posenum>
371

> <r_i_glide_eff_state_penalty>
0

> <s_user_duplicate_titles>
CHEMBL3474_lig179

> <s_m_subgroup_title>
dock_pv

> <s_m_subgroupid>
dock_pv

> <b_m_subgroup_collapsed>
1

$$$$
CHEMBL3474_lig76
                    3D
 Schrodinger Suite 2021-1.
 46 48  0  0  1  0            999 V2000
  -40.3729   64.2316   34.7874 N   0  0  0  0  0  0
  -39.1646   64.1597   32.8622 C   0  0  0  0  0  0
  -39.5568   63.4391   33.9922 C   0  0  0  0  0  0
  -39.6855   65.4972   33.0304 C   0  0  0  0  0  0
  -40.4149   65.5144   34.2603 C   0  0  0  0  0  0
  -40.9978   63.8173   36.0562 C   0  0  0  0  0  0
  -38.3456   63.6642   31.6665 C   0  0  0  0  0  0
  -39.6050   66.6952   32.2787 C   0  0  0  0  0  0
  -36.9473   63.1084   31.9648 C   0  0  0  0  0  0
  -37.6149   68.6458   30.7391 C   0  0  0  0  0  0
  -38.9487   66.6143   31.0633 O   0  0  0  0  0  0
  -37.2251   69.5708   29.8179 O   0  0  0  0  0  0
  -42.1666   62.8290   35.9784 C   0  0  0  0  0  0
  -36.6848   62.5025   32.9966 O   0  0  0  0  0  0
  -37.0903   68.5056   31.8421 O   0  0  0  0  0  0
  -38.7605   67.7613   30.2216 C   0  0  0  0  0  0
  -36.0147   63.2980   31.0429 N   0  0  0  0  0  0
  -42.4309   62.0704   34.8308 C   0  0  0  0  0  0
  -41.0008   66.6878   34.7587 C   0  0  0  0  0  0
  -39.1921   62.0171   34.4053 C   0  0  0  0  0  0
  -43.4182   61.0908   34.8352 C   0  0  0  0  0  0
  -43.6149   60.0981   33.4432 Cl  0  0  0  0  0  0
  -40.8247   67.8559   34.0241 C   0  0  0  0  0  0
  -43.9821   61.6730   37.1050 C   0  0  0  0  0  0
  -40.1630   67.8639   32.8055 C   0  0  0  0  0  0
  -42.9575   62.6222   37.1151 C   0  0  0  0  0  0
  -44.2079   60.8991   35.9664 C   0  0  0  0  0  0
  -41.3354   64.7061   36.5891 H   0  0  0  0  0  0
  -40.2158   63.3874   36.6814 H   0  0  0  0  0  0
  -38.8952   62.8980   31.1363 H   0  0  0  0  0  0
  -38.2308   64.4359   30.9112 H   0  0  0  0  0  0
  -38.4972   67.3891   29.2310 H   0  0  0  0  0  0
  -39.6805   68.3362   30.1103 H   0  0  0  0  0  0
  -35.0918   62.9257   31.1905 H   0  0  0  0  0  0
  -36.2152   63.8314   30.2073 H   0  0  0  0  0  0
  -41.8555   62.1978   33.9282 H   0  0  0  0  0  0
  -41.5446   66.7131   35.6915 H   0  0  0  0  0  0
  -39.0572   61.3698   33.5383 H   0  0  0  0  0  0
  -38.2561   62.0035   34.9642 H   0  0  0  0  0  0
  -39.9128   61.5155   35.0446 H   0  0  0  0  0  0
  -41.2415   68.7790   34.4012 H   0  0  0  0  0  0
  -44.5858   61.5208   37.9882 H   0  0  0  0  0  0
  -40.0858   68.8010   32.2771 H   0  0  0  0  0  0
  -42.7731   63.1886   38.0171 H   0  0  0  0  0  0
  -44.9852   60.1492   35.9645 H   0  0  0  0  0  0
  -36.4752   70.0969   30.1235 H   0  0  0  0  0  0
  1  3  1  0  0  0
  1  5  1  0  0  0
  1  6  1  0  0  0
  2  3  2  0  0  0
  2  7  1  0  0  0
  2  4  1  0  0  0
  3 20  1  0  0  0
  4  5  1  0  0  0
  4  8  2  0  0  0
  5 19  2  0  0  0
  6 13  1  0  0  0
  6 28  1  0  0  0
  6 29  1  0  0  0
  7  9  1  0  0  0
  7 30  1  0  0  0
  7 31  1  0  0  0
  8 11  1  0  0  0
  8 25  1  0  0  0
  9 14  2  0  0  0
  9 17  1  0  0  0
 10 16  1  0  0  0
 10 12  1  0  0  0
 10 15  2  0  0  0
 11 16  1  0  0  0
 12 46  1  0  0  0
 13 18  1  0  0  0
 13 26  2  0  0  0
 16 32  1  0  0  0
 16 33  1  0  0  0
 17 34  1  0  0  0
 17 35  1  0  0  0
 18 21  2  0  0  0
 18 36  1  0  0  0
 19 23  1  0  0  0
 19 37  1  0  0  0
 20 38  1  0  0  0
 20 39  1  0  0  0
 20 40  1  0  0  0
 21 22  1  0  0  0
 21 27  1  0  0  0
 23 25  2  0  0  0
 23 41  1  0  0  0
 24 26  1  0  0  0
 24 27  2  0  0  0
 24 42  1  0  0  0
 25 43  1  0  0  0
 26 44  1  0  0  0
 27 45  1  0  0  0
M  END
> <s_m_entry_id>
68258

> <s_m_entry_name>
dock_pv.194

> <s_m_Source_Path>
/home/csk/Desktop/cluster/DUD-E-result/pa2ga

> <s_m_Source_File>
dock_pv.maegz

> <i_m_Source_File_Index>
194

> <chembl_id>
CHEMBL148479

> <chembl_pref_name>
None

> <i_lp_mmshare_version>
53161

> <i_f3d_flags>
0

> <r_lp_tautomer_probability>
1

> <s_lp_Force_Field>
OPLS_2005

> <r_lp_Energy>
12.141821

> <b_lp_Chiralities_Consistent>
1

> <s_lp_Variant>
CHEMBL3474_lig76-1

> <s_i_glide_gridfile>
glide-grid_1kvo

> <i_i_glide_lignum>
116

> <i_i_glide_rotatable_bonds>
8

> <r_i_docking_score>
-6.99798598559402

> <r_i_glide_ligand_efficiency>
-0.259184666133112

> <r_i_glide_ligand_efficiency_sa>
-0.777553997545105

> <r_i_glide_ligand_efficiency_ln>
-1.6290157666306

> <r_i_glide_gscore>
-6.99798598559402

> <r_i_glide_lipo>
-2.99621093254977

> <r_i_glide_hbond>
-0.182874396597381

> <r_i_glide_metal>
0

> <r_i_glide_rewards>
-0.997692070130698

> <r_i_glide_evdw>
-43.4426651000977

> <r_i_glide_ecoul>
-9.11558055877686

> <r_i_glide_erotb>
0.780589590210133

> <r_i_glide_esite>
-0.0623278377048884

> <r_i_glide_emodel>
-76.3567276916644

> <r_i_glide_energy>
-52.5582456588745

> <r_i_glide_einternal>
3.79247522354126

> <i_i_glide_confnum>
88

> <i_i_glide_posenum>
165

> <r_i_glide_eff_state_penalty>
0

> <s_user_duplicate_titles>
CHEMBL3474_lig76,246719

> <s_m_subgroup_title>
dock_pv

> <s_m_subgroupid>
dock_pv

> <b_m_subgroup_collapsed>
1

$$$$
CHEMBL3474_lig222
                    3D
 Schrodinger Suite 2021-1.
 58 61  0  0  1  0            999 V2000
  -39.4617   63.9242   33.2747 C   0  0  0  0  0  0
  -40.5836   63.2860   35.1265 N   0  0  0  0  0  0
  -40.0913   65.0892   33.8429 C   0  0  0  0  0  0
  -39.8161   62.8330   34.0585 C   0  0  0  0  0  0
  -40.8310   64.6642   34.9957 C   0  0  0  0  0  0
  -38.6751   63.9145   32.0338 C   0  0  0  0  0  0
  -40.0839   66.4557   33.5050 C   0  0  0  0  0  0
  -41.6159   65.5787   35.7574 C   0  0  0  0  0  0
  -37.2149   63.2859   32.0917 C   0  0  0  0  0  0
  -41.5801   66.9374   35.3578 C   0  0  0  0  0  0
  -40.8170   67.3475   34.2748 C   0  0  0  0  0  0
  -41.0802   62.4056   36.2016 C   0  0  0  0  0  0
  -39.2482   66.8333   32.4777 O   0  0  0  0  0  0
  -38.3128   68.7343   31.3390 C   0  0  0  0  0  0
  -39.0048   64.5711   31.0431 O   0  0  0  0  0  0
  -36.8149   62.6284   33.0426 O   0  0  0  0  0  0
  -37.2150   68.4980   31.8415 O   0  0  0  0  0  0
  -36.4515   63.5884   31.0430 N   0  0  0  0  0  0
  -39.5851   67.9312   31.6281 C   0  0  0  0  0  0
  -39.4972   61.3475   33.8489 C   0  0  0  0  0  0
  -42.5104   61.8911   36.0647 C   0  0  0  0  0  0
  -38.5529   69.7414   30.4531 O   0  0  0  0  0  0
  -42.5371   65.1399   36.9110 C   0  0  0  0  0  0
  -42.3577   68.0042   36.1263 C   0  0  0  0  0  0
  -42.9902   61.4222   34.8380 C   0  0  0  0  0  0
  -43.3294   61.8306   37.1974 C   0  0  0  0  0  0
  -38.4046   60.8004   34.7818 C   0  0  0  0  0  0
  -43.2572   66.2753   37.6637 C   0  0  0  0  0  0
  -43.6374   67.4366   36.7456 C   0  0  0  0  0  0
  -44.6275   61.3363   37.0983 C   0  0  0  0  0  0
  -44.2730   60.8980   34.7472 C   0  0  0  0  0  0
  -45.0945   60.8754   35.8698 C   0  0  0  0  0  0
  -40.7725   68.4039   34.0600 H   0  0  0  0  0  0
  -40.9179   62.9089   37.1503 H   0  0  0  0  0  0
  -40.4378   61.5361   36.2902 H   0  0  0  0  0  0
  -35.5033   63.2509   30.9873 H   0  0  0  0  0  0
  -36.8428   64.1115   30.2691 H   0  0  0  0  0  0
  -39.9528   67.5190   30.6877 H   0  0  0  0  0  0
  -40.3508   68.5987   32.0165 H   0  0  0  0  0  0
  -40.3765   60.7142   33.9375 H   0  0  0  0  0  0
  -39.1731   61.1873   32.8205 H   0  0  0  0  0  0
  -37.7480   70.2262   30.2462 H   0  0  0  0  0  0
  -43.2953   64.4806   36.4904 H   0  0  0  0  0  0
  -41.9910   64.5787   37.6605 H   0  0  0  0  0  0
  -41.7158   68.4068   36.9136 H   0  0  0  0  0  0
  -42.6079   68.8468   35.4795 H   0  0  0  0  0  0
  -42.3854   61.4627   33.9463 H   0  0  0  0  0  0
  -42.9683   62.1716   38.1572 H   0  0  0  0  0  0
  -37.7681   60.0994   34.2431 H   0  0  0  0  0  0
  -37.7540   61.5942   35.1478 H   0  0  0  0  0  0
  -38.8161   60.2712   35.6412 H   0  0  0  0  0  0
  -42.6086   66.6494   38.4570 H   0  0  0  0  0  0
  -44.1432   65.8850   38.1684 H   0  0  0  0  0  0
  -44.1558   68.2101   37.3140 H   0  0  0  0  0  0
  -44.3273   67.1016   35.9685 H   0  0  0  0  0  0
  -45.2668   61.3042   37.9697 H   0  0  0  0  0  0
  -44.6336   60.5231   33.8035 H   0  0  0  0  0  0
  -46.0975   60.4820   35.7892 H   0  0  0  0  0  0
  1  3  1  0  0  0
  1  4  2  0  0  0
  1  6  1  0  0  0
  2  4  1  0  0  0
  2 12  1  0  0  0
  2  5  1  0  0  0
  3  5  1  0  0  0
  3  7  2  0  0  0
  4 20  1  0  0  0
  5  8  2  0  0  0
  6  9  1  0  0  0
  6 15  2  0  0  0
  7 11  1  0  0  0
  7 13  1  0  0  0
  8 23  1  0  0  0
  8 10  1  0  0  0
  9 16  2  0  0  0
  9 18  1  0  0  0
 10 11  2  0  0  0
 10 24  1  0  0  0
 11 33  1  0  0  0
 12 21  1  0  0  0
 12 34  1  0  0  0
 12 35  1  0  0  0
 13 19  1  0  0  0
 14 19  1  0  0  0
 14 17  2  0  0  0
 14 22  1  0  0  0
 18 36  1  0  0  0
 18 37  1  0  0  0
 19 38  1  0  0  0
 19 39  1  0  0  0
 20 27  1  0  0  0
 20 40  1  0  0  0
 20 41  1  0  0  0
 21 25  2  0  0  0
 21 26  1  0  0  0
 22 42  1  0  0  0
 23 28  1  0  0  0
 23 43  1  0  0  0
 23 44  1  0  0  0
 24 29  1  0  0  0
 24 45  1  0  0  0
 24 46  1  0  0  0
 25 31  1  0  0  0
 25 47  1  0  0  0
 26 30  2  0  0  0
 26 48  1  0  0  0
 27 49  1  0  0  0
 27 50  1  0  0  0
 27 51  1  0  0  0
 28 29  1  0  0  0
 28 52  1  0  0  0
 28 53  1  0  0  0
 29 54  1  0  0  0
 29 55  1  0  0  0
 30 32  1  0  0  0
 30 56  1  0  0  0
 31 32  2  0  0  0
 31 57  1  0  0  0
 32 58  1  0  0  0
M  END
> <s_m_entry_id>
68259

> <s_m_entry_name>
dock_pv.195

> <s_m_Source_Path>
/home/csk/Desktop/cluster/DUD-E-result/pa2ga

> <s_m_Source_File>
dock_pv.maegz

> <i_m_Source_File_Index>
195

> <chembl_id>
CHEMBL435488

> <chembl_pref_name>
None

> <i_lp_mmshare_version>
53161

> <i_f3d_flags>
0

> <r_lp_tautomer_probability>
1

> <s_lp_Force_Field>
OPLS_2005

> <r_lp_Energy>
29.730638

> <b_lp_Chiralities_Consistent>
1

> <s_lp_Variant>
CHEMBL3474_lig222-1

> <s_i_glide_gridfile>
glide-grid_1kvo

> <i_i_glide_lignum>
284

> <i_i_glide_rotatable_bonds>
9

> <r_i_docking_score>
-6.98452465128423

> <r_i_glide_ligand_efficiency>
-0.218266395352632

> <r_i_glide_ligand_efficiency_sa>
-0.692952610383621

> <r_i_glide_ligand_efficiency_ln>
-1.56402546037382

> <r_i_glide_gscore>
-6.98452465128423

> <r_i_glide_lipo>
-3.35750499819474

> <r_i_glide_hbond>
-0.321479785363647

> <r_i_glide_metal>
0

> <r_i_glide_rewards>
-0.632012582890994

> <r_i_glide_evdw>
-46.6438026428223

> <r_i_glide_ecoul>
-5.86211347579956

> <r_i_glide_erotb>
0.633006575855691

> <r_i_glide_esite>
-0.0950267071795024

> <r_i_glide_emodel>
-77.6825957884035

> <r_i_glide_energy>
-52.5059161186218

> <r_i_glide_einternal>
3.57338857650757

> <i_i_glide_confnum>
14

> <i_i_glide_posenum>
184

> <r_i_glide_eff_state_penalty>
0

> <s_user_duplicate_titles>
CHEMBL3474_lig222,299389

> <s_m_subgroup_title>
dock_pv

> <s_m_subgroupid>
dock_pv

> <b_m_subgroup_collapsed>
1

$$$$
CHEMBL3474_lig55
                    3D
 Schrodinger Suite 2021-1.
 58 60  0  0  1  0            999 V2000
  -41.2146   64.1351   33.5555 N   0  0  0  0  0  0
  -41.5429   66.1253   34.5810 C   0  0  0  0  0  0
  -41.7317   64.7511   34.6809 C   0  0  0  0  0  0
  -40.8780   66.3518   33.3271 C   0  0  0  0  0  0
  -40.7019   65.0918   32.6962 C   0  0  0  0  0  0
  -41.9439   67.1855   35.5972 C   0  0  0  0  0  0
  -41.1452   62.6874   33.3347 C   0  0  0  0  0  0
  -40.0884   64.9704   31.4427 C   0  0  0  0  0  0
  -41.2012   67.0894   36.9367 C   0  0  0  0  0  0
  -40.4072   67.5017   32.6728 C   0  0  0  0  0  0
  -38.0014   71.2141   31.1991 C   0  0  0  0  0  0
  -40.1287   66.4991   37.0433 O   0  0  0  0  0  0
  -39.0750   71.4406   31.7545 O   0  0  0  0  0  0
  -39.7808   67.3934   31.4327 C   0  0  0  0  0  0
  -41.7586   67.6936   37.9822 N   0  0  0  0  0  0
  -39.6233   66.1353   30.8392 C   0  0  0  0  0  0
  -42.3726   63.9462   35.7954 C   0  0  0  0  0  0
  -36.8150   71.0306   31.8430 O   0  0  0  0  0  0
  -39.8350   62.0765   33.8922 C   0  0  0  0  0  0
  -39.3543   68.5789   30.8746 O   0  0  0  0  0  0
  -37.8455   71.0692   29.6808 C   0  0  0  0  0  0
  -38.7119   68.5985   29.6018 C   0  0  0  0  0  0
  -39.8234   60.5418   33.6919 C   0  0  0  0  0  0
  -38.5498   62.7266   33.3150 C   0  0  0  0  0  0
  -38.7829   70.0273   29.0255 C   0  0  0  0  0  0
  -38.4997   59.8845   34.1145 C   0  0  0  0  0  0
  -37.2621   62.0604   33.8062 C   0  0  0  0  0  0
  -37.2726   60.5631   33.4866 C   0  0  0  0  0  0
  -41.7720   68.1858   35.2040 H   0  0  0  0  0  0
  -43.0176   67.1242   35.7782 H   0  0  0  0  0  0
  -41.2421   62.4983   32.2652 H   0  0  0  0  0  0
  -42.0149   62.2168   33.7919 H   0  0  0  0  0  0
  -39.9531   64.0122   30.9618 H   0  0  0  0  0  0
  -40.5142   68.4732   33.1270 H   0  0  0  0  0  0
  -41.2935   67.6465   38.8747 H   0  0  0  0  0  0
  -42.6460   68.1638   37.8986 H   0  0  0  0  0  0
  -39.1316   66.0294   29.8857 H   0  0  0  0  0  0
  -42.7413   64.5796   36.6020 H   0  0  0  0  0  0
  -43.2269   63.3696   35.4412 H   0  0  0  0  0  0
  -41.6675   63.2444   36.2433 H   0  0  0  0  0  0
  -36.0849   70.8987   31.2187 H   0  0  0  0  0  0
  -39.7953   62.2354   34.9711 H   0  0  0  0  0  0
  -36.8153   70.8202   29.4246 H   0  0  0  0  0  0
  -38.0243   72.0473   29.2364 H   0  0  0  0  0  0
  -37.6790   68.2579   29.6892 H   0  0  0  0  0  0
  -39.2083   67.9338   28.9016 H   0  0  0  0  0  0
  -39.9810   60.3150   32.6431 H   0  0  0  0  0  0
  -40.6696   60.0805   34.2016 H   0  0  0  0  0  0
  -38.5157   63.7921   33.5396 H   0  0  0  0  0  0
  -38.5762   62.6595   32.2263 H   0  0  0  0  0  0
  -38.5439   69.9829   27.9620 H   0  0  0  0  0  0
  -39.8152   70.3803   29.0649 H   0  0  0  0  0  0
  -38.5105   58.8282   33.8444 H   0  0  0  0  0  0
  -38.4158   59.9521   35.1993 H   0  0  0  0  0  0
  -36.4123   62.5337   33.3229 H   0  0  0  0  0  0
  -37.1515   62.2068   34.8812 H   0  0  0  0  0  0
  -37.2949   60.4325   32.4032 H   0  0  0  0  0  0
  -36.3527   60.0986   33.8417 H   0  0  0  0  0  0
  1  3  1  0  0  0
  1  5  1  0  0  0
  1  7  1  0  0  0
  2  3  2  0  0  0
  2  6  1  0  0  0
  2  4  1  0  0  0
  3 17  1  0  0  0
  4  5  1  0  0  0
  4 10  2  0  0  0
  5  8  2  0  0  0
  6  9  1  0  0  0
  6 29  1  0  0  0
  6 30  1  0  0  0
  7 19  1  0  0  0
  7 31  1  0  0  0
  7 32  1  0  0  0
  8 16  1  0  0  0
  8 33  1  0  0  0
  9 12  2  0  0  0
  9 15  1  0  0  0
 10 14  1  0  0  0
 10 34  1  0  0  0
 11 21  1  0  0  0
 11 13  2  0  0  0
 11 18  1  0  0  0
 14 16  2  0  0  0
 14 20  1  0  0  0
 15 35  1  0  0  0
 15 36  1  0  0  0
 16 37  1  0  0  0
 17 38  1  0  0  0
 17 39  1  0  0  0
 17 40  1  0  0  0
 18 41  1  0  0  0
 19 23  1  0  0  0
 19 24  1  0  0  0
 19 42  1  0  0  0
 20 22  1  0  0  0
 21 25  1  0  0  0
 21 43  1  0  0  0
 21 44  1  0  0  0
 22 25  1  0  0  0
 22 45  1  0  0  0
 22 46  1  0  0  0
 23 26  1  0  0  0
 23 47  1  0  0  0
 23 48  1  0  0  0
 24 27  1  0  0  0
 24 49  1  0  0  0
 24 50  1  0  0  0
 25 51  1  0  0  0
 25 52  1  0  0  0
 26 28  1  0  0  0
 26 53  1  0  0  0
 26 54  1  0  0  0
 27 28  1  0  0  0
 27 55  1  0  0  0
 27 56  1  0  0  0
 28 57  1  0  0  0
 28 58  1  0  0  0
M  END
> <s_m_entry_id>
68260

> <s_m_entry_name>
dock_pv.196

> <s_m_Source_Path>
/home/csk/Desktop/cluster/DUD-E-result/pa2ga

> <s_m_Source_File>
dock_pv.maegz

> <i_m_Source_File_Index>
196

> <chembl_id>
CHEMBL146055

> <chembl_pref_name>
None

> <i_lp_mmshare_version>
53161

> <i_f3d_flags>
0

> <r_lp_tautomer_probability>
1

> <s_lp_Force_Field>
OPLS_2005

> <r_lp_Energy>
15.229297

> <b_lp_Chiralities_Consistent>
1

> <s_lp_Variant>
CHEMBL3474_lig55-1

> <s_i_glide_gridfile>
glide-grid_1kvo

> <i_i_glide_lignum>
95

> <i_i_glide_rotatable_bonds>
10

> <r_i_docking_score>
-6.97878395166863

> <r_i_glide_ligand_efficiency>
-0.249242283988165

> <r_i_glide_ligand_efficiency_sa>
-0.75684637004291

> <r_i_glide_ligand_efficiency_ln>
-1.61090824204566

> <r_i_glide_gscore>
-6.97878395166863

> <r_i_glide_lipo>
-3.24989927511726

> <r_i_glide_hbond>
-0.0369817769738685

> <r_i_glide_metal>
0

> <r_i_glide_rewards>
-1.14099910169252

> <r_i_glide_evdw>
-36.2578544616699

> <r_i_glide_ecoul>
-11.6887645721436

> <r_i_glide_erotb>
1.04244891312235

> <r_i_glide_esite>
-0.0271453021023062

> <r_i_glide_emodel>
-68.1618765383975

> <r_i_glide_energy>
-47.9466190338135

> <r_i_glide_einternal>
5.29881429672241

> <i_i_glide_confnum>
44

> <i_i_glide_posenum>
227

> <r_i_glide_eff_state_penalty>
0

> <s_user_duplicate_titles>
CHEMBL3474_lig55,246285

> <s_m_subgroup_title>
dock_pv

> <s_m_subgroupid>
dock_pv

> <b_m_subgroup_collapsed>
1

$$$$
CHEMBL3474_lig224
                    3D
 Schrodinger Suite 2021-1.
 57 60  0  0  1  0            999 V2000
  -40.8452   65.6544   34.9159 C   0  0  0  0  0  0
  -40.3832   63.4676   35.4051 N   0  0  0  0  0  0
  -40.0335   65.1128   33.8396 C   0  0  0  0  0  0
  -40.9433   64.6482   35.8872 C   0  0  0  0  0  0
  -39.6663   63.7847   34.2395 C   0  0  0  0  0  0
  -41.3347   67.0525   35.0156 C   0  0  0  0  0  0
  -39.5755   65.6007   32.5874 C   0  0  0  0  0  0
  -38.7000   63.0388   33.4757 C   0  0  0  0  0  0
  -42.6597   67.3817   35.8399 C   0  0  0  0  0  0
  -38.6710   64.8503   31.8377 C   0  0  0  0  0  0
  -38.1944   63.6091   32.2694 C   0  0  0  0  0  0
  -40.5561   62.1552   36.0836 C   0  0  0  0  0  0
  -40.0758   66.8201   32.1669 O   0  0  0  0  0  0
  -38.3794   68.0521   30.8594 C   0  0  0  0  0  0
  -40.8137   67.9858   34.3980 O   0  0  0  0  0  0
  -43.4999   66.5358   36.1317 O   0  0  0  0  0  0
  -37.6015   68.0957   31.8129 O   0  0  0  0  0  0
  -42.7753   68.6750   36.1568 N   0  0  0  0  0  0
  -39.7547   67.3571   30.8747 C   0  0  0  0  0  0
  -41.5033   64.7049   37.3084 C   0  0  0  0  0  0
  -38.1322   68.6184   29.6446 O   0  0  0  0  0  0
  -41.6213   61.2215   35.4517 C   0  0  0  0  0  0
  -38.1545   61.7826   33.8699 C   0  0  0  0  0  0
  -37.2099   62.9329   31.5092 C   0  0  0  0  0  0
  -43.0341   61.8536   35.4104 C   0  0  0  0  0  0
  -41.2550   60.6873   34.0474 C   0  0  0  0  0  0
  -37.2025   61.1324   33.0992 C   0  0  0  0  0  0
  -36.7300   61.7036   31.9269 C   0  0  0  0  0  0
  -42.2930   59.6685   33.5486 C   0  0  0  0  0  0
  -44.0855   60.8422   34.9115 C   0  0  0  0  0  0
  -43.7021   60.2788   33.5280 C   0  0  0  0  0  0
  -38.2901   65.2192   30.8972 H   0  0  0  0  0  0
  -40.8515   62.3090   37.1171 H   0  0  0  0  0  0
  -39.6163   61.6498   36.2255 H   0  0  0  0  0  0
  -43.5774   68.9878   36.6815 H   0  0  0  0  0  0
  -42.0583   69.3273   35.8753 H   0  0  0  0  0  0
  -39.8186   66.5970   30.0944 H   0  0  0  0  0  0
  -40.5175   68.0975   30.6406 H   0  0  0  0  0  0
  -41.6080   65.7189   37.6883 H   0  0  0  0  0  0
  -42.4800   64.2277   37.3871 H   0  0  0  0  0  0
  -40.8418   64.2350   38.0366 H   0  0  0  0  0  0
  -37.2886   69.0756   29.6308 H   0  0  0  0  0  0
  -41.6937   60.3450   36.1005 H   0  0  0  0  0  0
  -38.4226   61.2852   34.7739 H   0  0  0  0  0  0
  -36.8289   63.3762   30.5975 H   0  0  0  0  0  0
  -43.0316   62.7549   34.7962 H   0  0  0  0  0  0
  -43.3127   62.1935   36.4081 H   0  0  0  0  0  0
  -40.2850   60.1938   34.0812 H   0  0  0  0  0  0
  -41.1431   61.5062   33.3354 H   0  0  0  0  0  0
  -36.8121   60.1824   33.4367 H   0  0  0  0  0  0
  -35.9759   61.2032   31.3377 H   0  0  0  0  0  0
  -42.0233   59.2985   32.5600 H   0  0  0  0  0  0
  -42.2963   58.8005   34.2104 H   0  0  0  0  0  0
  -45.0734   61.2960   34.8800 H   0  0  0  0  0  0
  -44.1664   60.0231   35.6265 H   0  0  0  0  0  0
  -43.7520   61.0708   32.7793 H   0  0  0  0  0  0
  -44.4144   59.5218   33.2097 H   0  0  0  0  0  0
  1  3  1  0  0  0
  1  4  2  0  0  0
  1  6  1  0  0  0
  2  4  1  0  0  0
  2 12  1  0  0  0
  2  5  1  0  0  0
  3  5  1  0  0  0
  3  7  2  0  0  0
  4 20  1  0  0  0
  5  8  2  0  0  0
  6  9  1  0  0  0
  6 15  2  0  0  0
  7 10  1  0  0  0
  7 13  1  0  0  0
  8 23  1  0  0  0
  8 11  1  0  0  0
  9 16  2  0  0  0
  9 18  1  0  0  0
 10 11  2  0  0  0
 10 32  1  0  0  0
 11 24  1  0  0  0
 12 22  1  0  0  0
 12 33  1  0  0  0
 12 34  1  0  0  0
 13 19  1  0  0  0
 14 19  1  0  0  0
 14 17  2  0  0  0
 14 21  1  0  0  0
 18 35  1  0  0  0
 18 36  1  0  0  0
 19 37  1  0  0  0
 19 38  1  0  0  0
 20 39  1  0  0  0
 20 40  1  0  0  0
 20 41  1  0  0  0
 21 42  1  0  0  0
 22 25  1  0  0  0
 22 26  1  0  0  0
 22 43  1  0  0  0
 23 27  2  0  0  0
 23 44  1  0  0  0
 24 28  2  0  0  0
 24 45  1  0  0  0
 25 30  1  0  0  0
 25 46  1  0  0  0
 25 47  1  0  0  0
 26 29  1  0  0  0
 26 48  1  0  0  0
 26 49  1  0  0  0
 27 28  1  0  0  0
 27 50  1  0  0  0
 28 51  1  0  0  0
 29 31  1  0  0  0
 29 52  1  0  0  0
 29 53  1  0  0  0
 30 31  1  0  0  0
 30 54  1  0  0  0
 30 55  1  0  0  0
 31 56  1  0  0  0
 31 57  1  0  0  0
M  END
> <s_m_entry_id>
68261

> <s_m_entry_name>
dock_pv.197

> <s_m_Source_Path>
/home/csk/Desktop/cluster/DUD-E-result/pa2ga

> <s_m_Source_File>
dock_pv.maegz

> <i_m_Source_File_Index>
197

> <chembl_id>
CHEMBL425696

> <chembl_pref_name>
None

> <i_lp_mmshare_version>
53161

> <i_f3d_flags>
0

> <r_lp_tautomer_probability>
1

> <s_lp_Force_Field>
OPLS_2005

> <r_lp_Energy>
40.079256

> <b_lp_Chiralities_Consistent>
1

> <s_lp_Variant>
CHEMBL3474_lig224-1

> <s_i_glide_gridfile>
glide-grid_1kvo

> <i_i_glide_lignum>
286

> <i_i_glide_rotatable_bonds>
8

> <r_i_docking_score>
-6.9605224262569

> <r_i_glide_ligand_efficiency>
-0.224532981492158

> <r_i_glide_ligand_efficiency_sa>
-0.70534356307584

> <r_i_glide_ligand_efficiency_ln>
-1.56981112151521

> <r_i_glide_gscore>
-6.9605224262569

> <r_i_glide_lipo>
-3.52252413504294

> <r_i_glide_hbond>
0

> <r_i_glide_metal>
0

> <r_i_glide_rewards>
-1.09237132675629

> <r_i_glide_evdw>
-46.7702713012695

> <r_i_glide_ecoul>
-4.29471778869629

> <r_i_glide_erotb>
0.665967957565273

> <r_i_glide_esite>
-0.0288736886550157

> <r_i_glide_emodel>
-71.6327835282343

> <r_i_glide_energy>
-51.0649890899658

> <r_i_glide_einternal>
8.79612064361572

> <i_i_glide_confnum>
81

> <i_i_glide_posenum>
272

> <r_i_glide_eff_state_penalty>
0

> <s_user_duplicate_titles>
CHEMBL3474_lig224

> <s_m_subgroup_title>
dock_pv

> <s_m_subgroupid>
dock_pv

> <b_m_subgroup_collapsed>
1

$$$$
CHEMBL3474_lig145
                    3D
 Schrodinger Suite 2021-1.
 40 42  0  0  1  0            999 V2000
  -40.4152   64.0402   34.6553 N   0  0  0  0  0  0
  -40.6652   65.0859   33.7867 C   0  0  0  0  0  0
  -39.8492   64.9978   32.6683 C   0  0  0  0  0  0
  -39.0649   63.8055   32.8578 C   0  0  0  0  0  0
  -39.4223   63.2416   34.1174 C   0  0  0  0  0  0
  -39.8170   65.9381   31.4663 C   0  0  0  0  0  0
  -41.1196   63.7705   35.9139 C   0  0  0  0  0  0
  -38.8127   62.0817   34.6115 C   0  0  0  0  0  0
  -38.4052   66.3766   31.0489 C   0  0  0  0  0  0
  -38.0890   63.1572   32.0849 C   0  0  0  0  0  0
  -41.9901   66.4008   34.1821 Br  0  0  0  0  0  0
  -37.6371   66.9271   31.8402 O   0  0  0  0  0  0
  -37.4734   61.9998   32.5744 C   0  0  0  0  0  0
  -38.0150   66.0983   29.8064 N   0  0  0  0  0  0
  -37.8264   61.4975   33.8220 C   0  0  0  0  0  0
  -42.2395   62.7266   35.8599 C   0  0  0  0  0  0
  -36.5090   61.2985   31.8902 O   0  0  0  0  0  0
  -43.0999   62.6301   36.9578 C   0  0  0  0  0  0
  -42.4269   61.8750   34.7609 C   0  0  0  0  0  0
  -36.3606   61.5023   30.4916 C   0  0  0  0  0  0
  -43.4805   60.9638   34.7521 C   0  0  0  0  0  0
  -44.1507   61.7174   36.9506 C   0  0  0  0  0  0
  -44.3416   60.8959   35.8436 C   0  0  0  0  0  0
  -40.3162   65.4618   30.6209 H   0  0  0  0  0  0
  -40.3877   66.8454   31.6617 H   0  0  0  0  0  0
  -40.3818   63.4498   36.6501 H   0  0  0  0  0  0
  -41.5227   64.7084   36.2958 H   0  0  0  0  0  0
  -39.0870   61.6445   35.5597 H   0  0  0  0  0  0
  -37.8204   63.5567   31.1195 H   0  0  0  0  0  0
  -37.0489   66.2837   29.5548 H   0  0  0  0  0  0
  -38.5836   65.5395   29.1868 H   0  0  0  0  0  0
  -37.3333   60.6047   34.1789 H   0  0  0  0  0  0
  -42.9625   63.2698   37.8177 H   0  0  0  0  0  0
  -41.7789   61.9176   33.8989 H   0  0  0  0  0  0
  -35.6151   60.8070   30.1069 H   0  0  0  0  0  0
  -36.0208   62.5118   30.2571 H   0  0  0  0  0  0
  -37.2925   61.2980   29.9633 H   0  0  0  0  0  0
  -43.6351   60.3176   33.8998 H   0  0  0  0  0  0
  -44.8183   61.6507   37.7971 H   0  0  0  0  0  0
  -45.1608   60.1914   35.8336 H   0  0  0  0  0  0
  1  2  1  0  0  0
  1  5  1  0  0  0
  1  7  1  0  0  0
  2  3  2  0  0  0
  2 11  1  0  0  0
  3  6  1  0  0  0
  3  4  1  0  0  0
  4  5  1  0  0  0
  4 10  2  0  0  0
  5  8  2  0  0  0
  6  9  1  0  0  0
  6 24  1  0  0  0
  6 25  1  0  0  0
  7 16  1  0  0  0
  7 26  1  0  0  0
  7 27  1  0  0  0
  8 15  1  0  0  0
  8 28  1  0  0  0
  9 12  2  0  0  0
  9 14  1  0  0  0
 10 13  1  0  0  0
 10 29  1  0  0  0
 13 15  2  0  0  0
 13 17  1  0  0  0
 14 30  1  0  0  0
 14 31  1  0  0  0
 15 32  1  0  0  0
 16 18  2  0  0  0
 16 19  1  0  0  0
 17 20  1  0  0  0
 18 22  1  0  0  0
 18 33  1  0  0  0
 19 21  2  0  0  0
 19 34  1  0  0  0
 20 35  1  0  0  0
 20 36  1  0  0  0
 20 37  1  0  0  0
 21 23  1  0  0  0
 21 38  1  0  0  0
 22 23  2  0  0  0
 22 39  1  0  0  0
 23 40  1  0  0  0
M  END
> <s_m_entry_id>
68262

> <s_m_entry_name>
dock_pv.198

> <s_m_Source_Path>
/home/csk/Desktop/cluster/DUD-E-result/pa2ga

> <s_m_Source_File>
dock_pv.maegz

> <i_m_Source_File_Index>
198

> <chembl_id>
CHEMBL148929

> <chembl_pref_name>
None

> <i_lp_mmshare_version>
53161

> <i_f3d_flags>
0

> <r_lp_tautomer_probability>
1

> <s_lp_Force_Field>
OPLS_2005

> <r_lp_Energy>
10.654388

> <b_lp_Chiralities_Consistent>
1

> <s_lp_Variant>
CHEMBL3474_lig145-1

> <s_i_glide_gridfile>
glide-grid_1kvo

> <i_i_glide_lignum>
206

> <i_i_glide_rotatable_bonds>
5

> <r_i_docking_score>
-6.94778571002018

> <r_i_glide_ligand_efficiency>
-0.302077639566095

> <r_i_glide_ligand_efficiency_sa>
-0.859068623615651

> <r_i_glide_ligand_efficiency_ln>
-1.68003758372061

> <r_i_glide_gscore>
-6.94778571002018

> <r_i_glide_lipo>
-3.27162385521557

> <r_i_glide_hbond>
-0.154778843387069

> <r_i_glide_metal>
0

> <r_i_glide_rewards>
-0.995672352578326

> <r_i_glide_evdw>
-37.734375

> <r_i_glide_ecoul>
-6.29873037338257

> <r_i_glide_erotb>
0.41611162162878

> <r_i_glide_esite>
-0.110293974460611

> <r_i_glide_emodel>
-65.5260865331044

> <r_i_glide_energy>
-44.0331053733826

> <r_i_glide_einternal>
1.72152173519135

> <i_i_glide_confnum>
3

> <i_i_glide_posenum>
200

> <r_i_glide_eff_state_penalty>
0

> <s_user_duplicate_titles>
CHEMBL3474_lig145,247397

> <s_m_subgroup_title>
dock_pv

> <s_m_subgroupid>
dock_pv

> <b_m_subgroup_collapsed>
1

$$$$
CHEMBL3474_lig132
                    3D
 Schrodinger Suite 2021-1.
 42 44  0  0  1  0            999 V2000
  -39.6519   67.8034   32.1850 C   0  0  0  0  0  0
  -40.0449   65.5712   32.1291 N   0  0  0  0  0  0
  -39.4367   66.6218   31.4592 C   0  0  0  0  0  0
  -40.5299   67.4617   33.2929 C   0  0  0  0  0  0
  -40.6773   66.0398   33.2665 C   0  0  0  0  0  0
  -39.1532   69.1523   31.8428 C   0  0  0  0  0  0
  -37.7284   69.2741   31.1711 C   0  0  0  0  0  0
  -40.0469   64.1620   31.7232 C   0  0  0  0  0  0
  -41.2150   68.1687   34.3171 C   0  0  0  0  0  0
  -39.6747   70.2022   32.2170 O   0  0  0  0  0  0
  -36.8150   68.4981   31.4428 O   0  0  0  0  0  0
  -37.6150   70.3162   30.3470 N   0  0  0  0  0  0
  -38.7191   66.3839   30.1315 C   0  0  0  0  0  0
  -41.3980   65.3371   34.2436 C   0  0  0  0  0  0
  -38.9877   63.2943   32.3870 C   0  0  0  0  0  0
  -41.2150   69.5458   34.2431 O   0  0  0  0  0  0
  -41.9870   66.0697   35.2642 C   0  0  0  0  0  0
  -41.9101   67.4513   35.2991 C   0  0  0  0  0  0
  -39.3264   62.4881   33.4791 C   0  0  0  0  0  0
  -37.7027   63.2242   31.8426 C   0  0  0  0  0  0
  -42.0139   70.3035   35.1482 C   0  0  0  0  0  0
  -38.3925   61.6063   34.0129 C   0  0  0  0  0  0
  -36.7738   62.3302   32.3652 C   0  0  0  0  0  0
  -37.1266   61.5218   33.4429 C   0  0  0  0  0  0
  -39.9589   64.0824   30.6440 H   0  0  0  0  0  0
  -41.0371   63.7504   31.9273 H   0  0  0  0  0  0
  -36.7108   70.4988   29.9266 H   0  0  0  0  0  0
  -38.3904   70.9431   30.1884 H   0  0  0  0  0  0
  -38.6058   67.2931   29.5439 H   0  0  0  0  0  0
  -37.7193   65.9744   30.2730 H   0  0  0  0  0  0
  -39.2528   65.7091   29.4637 H   0  0  0  0  0  0
  -41.5203   64.2668   34.2148 H   0  0  0  0  0  0
  -42.5469   65.5539   36.0319 H   0  0  0  0  0  0
  -42.4273   67.9593   36.0988 H   0  0  0  0  0  0
  -40.3206   62.5045   33.8969 H   0  0  0  0  0  0
  -37.4362   63.8184   30.9809 H   0  0  0  0  0  0
  -41.9161   71.3623   34.9097 H   0  0  0  0  0  0
  -43.0700   70.0424   35.0664 H   0  0  0  0  0  0
  -41.6895   70.1700   36.1810 H   0  0  0  0  0  0
  -38.6550   60.9732   34.8484 H   0  0  0  0  0  0
  -35.7905   62.2498   31.9244 H   0  0  0  0  0  0
  -36.4151   60.8152   33.8427 H   0  0  0  0  0  0
  1  3  2  0  0  0
  1  4  1  0  0  0
  1  6  1  0  0  0
  2  3  1  0  0  0
  2  8  1  0  0  0
  2  5  1  0  0  0
  3 13  1  0  0  0
  4  5  1  0  0  0
  4  9  2  0  0  0
  5 14  2  0  0  0
  6  7  1  0  0  0
  6 10  2  0  0  0
  7 11  2  0  0  0
  7 12  1  0  0  0
  8 15  1  0  0  0
  8 25  1  0  0  0
  8 26  1  0  0  0
  9 16  1  0  0  0
  9 18  1  0  0  0
 12 27  1  0  0  0
 12 28  1  0  0  0
 13 29  1  0  0  0
 13 30  1  0  0  0
 13 31  1  0  0  0
 14 17  1  0  0  0
 14 32  1  0  0  0
 15 19  2  0  0  0
 15 20  1  0  0  0
 16 21  1  0  0  0
 17 18  2  0  0  0
 17 33  1  0  0  0
 18 34  1  0  0  0
 19 22  1  0  0  0
 19 35  1  0  0  0
 20 23  2  0  0  0
 20 36  1  0  0  0
 21 37  1  0  0  0
 21 38  1  0  0  0
 21 39  1  0  0  0
 22 24  2  0  0  0
 22 40  1  0  0  0
 23 24  1  0  0  0
 23 41  1  0  0  0
 24 42  1  0  0  0
M  END
> <s_m_entry_id>
68263

> <s_m_entry_name>
dock_pv.199

> <s_m_Source_Path>
/home/csk/Desktop/cluster/DUD-E-result/pa2ga

> <s_m_Source_File>
dock_pv.maegz

> <i_m_Source_File_Index>
199

> <chembl_id>
CHEMBL359308

> <chembl_pref_name>
None

> <i_lp_mmshare_version>
53161

> <i_f3d_flags>
0

> <r_lp_tautomer_probability>
1

> <s_lp_Force_Field>
OPLS_2005

> <r_lp_Energy>
22.40219

> <b_lp_Chiralities_Consistent>
1

> <s_lp_Variant>
CHEMBL3474_lig132-1

> <s_i_glide_gridfile>
glide-grid_1kvo

> <i_i_glide_lignum>
192

> <i_i_glide_rotatable_bonds>
5

> <r_i_docking_score>
-6.88575033635955

> <r_i_glide_ligand_efficiency>
-0.286906264014981

> <r_i_glide_ligand_efficiency_sa>
-0.827580871111522

> <r_i_glide_ligand_efficiency_ln>
-1.64807602198512

> <r_i_glide_gscore>
-6.88575033635955

> <r_i_glide_lipo>
-2.30323681052683

> <r_i_glide_hbond>
-0.225174560536621

> <r_i_glide_metal>
0

> <r_i_glide_rewards>
-1.74048821193964

> <r_i_glide_evdw>
-35.8336372375488

> <r_i_glide_ecoul>
-8.4910774230957

> <r_i_glide_erotb>
0.53984438598368

> <r_i_glide_esite>
-0.0913516639983411

> <r_i_glide_emodel>
-63.7650448460107

> <r_i_glide_energy>
-44.3247146606445

> <r_i_glide_einternal>
2.17515635490417

> <i_i_glide_confnum>
1

> <i_i_glide_posenum>
279

> <r_i_glide_eff_state_penalty>
0

> <s_user_duplicate_titles>
CHEMBL3474_lig132,247353

> <s_m_subgroup_title>
dock_pv

> <s_m_subgroupid>
dock_pv

> <b_m_subgroup_collapsed>
1

$$$$
CHEMBL3474_lig71
                    3D
 Schrodinger Suite 2021-1.
 37 39  0  0  1  0            999 V2000
  -40.0021   63.7973   34.3315 N   0  0  0  0  0  0
  -39.6275   65.0553   32.4638 C   0  0  0  0  0  0
  -40.4252   64.8693   33.5780 C   0  0  0  0  0  0
  -38.6944   63.9567   32.4950 C   0  0  0  0  0  0
  -38.9007   63.2288   33.7077 C   0  0  0  0  0  0
  -39.7450   66.1436   31.3998 C   0  0  0  0  0  0
  -40.6755   63.3014   35.5312 C   0  0  0  0  0  0
  -38.0744   62.1530   34.0745 C   0  0  0  0  0  0
  -38.3913   66.7312   30.9637 C   0  0  0  0  0  0
  -37.6891   63.5236   31.6185 C   0  0  0  0  0  0
  -37.6386   67.2965   31.7622 O   0  0  0  0  0  0
  -36.9334   62.4079   31.9457 C   0  0  0  0  0  0
  -38.0151   66.5422   29.7009 N   0  0  0  0  0  0
  -37.1028   61.7527   33.1566 C   0  0  0  0  0  0
  -41.6237   62.1337   35.2696 C   0  0  0  0  0  0
  -36.0156   61.9543   31.0461 O   0  0  0  0  0  0
  -41.1233   60.8934   34.8614 C   0  0  0  0  0  0
  -43.0019   62.3032   35.4383 C   0  0  0  0  0  0
  -43.8717   61.2503   35.1583 C   0  0  0  0  0  0
  -41.9896   59.8492   34.5713 C   0  0  0  0  0  0
  -43.3582   60.0357   34.7108 C   0  0  0  0  0  0
  -41.2860   65.4318   33.9062 H   0  0  0  0  0  0
  -40.2551   65.7338   30.5262 H   0  0  0  0  0  0
  -40.3802   66.9642   31.7364 H   0  0  0  0  0  0
  -39.9172   62.9854   36.2426 H   0  0  0  0  0  0
  -41.1940   64.1321   36.0126 H   0  0  0  0  0  0
  -38.1806   61.6323   35.0156 H   0  0  0  0  0  0
  -37.5234   64.0289   30.6798 H   0  0  0  0  0  0
  -37.0667   66.7893   29.4429 H   0  0  0  0  0  0
  -38.5797   66.0059   29.0588 H   0  0  0  0  0  0
  -36.4752   60.9053   33.3901 H   0  0  0  0  0  0
  -36.0836   62.4216   30.2096 H   0  0  0  0  0  0
  -40.0705   60.7132   34.7533 H   0  0  0  0  0  0
  -43.4034   63.2495   35.7696 H   0  0  0  0  0  0
  -44.9371   61.3764   35.2728 H   0  0  0  0  0  0
  -41.6007   58.8984   34.2409 H   0  0  0  0  0  0
  -44.0148   59.2200   34.4708 H   0  0  0  0  0  0
  1  3  1  0  0  0
  1  5  1  0  0  0
  1  7  1  0  0  0
  2  3  2  0  0  0
  2  6  1  0  0  0
  2  4  1  0  0  0
  3 22  1  0  0  0
  4  5  1  0  0  0
  4 10  2  0  0  0
  5  8  2  0  0  0
  6  9  1  0  0  0
  6 23  1  0  0  0
  6 24  1  0  0  0
  7 15  1  0  0  0
  7 25  1  0  0  0
  7 26  1  0  0  0
  8 14  1  0  0  0
  8 27  1  0  0  0
  9 11  2  0  0  0
  9 13  1  0  0  0
 10 12  1  0  0  0
 10 28  1  0  0  0
 12 14  2  0  0  0
 12 16  1  0  0  0
 13 29  1  0  0  0
 13 30  1  0  0  0
 14 31  1  0  0  0
 15 17  2  0  0  0
 15 18  1  0  0  0
 16 32  1  0  0  0
 17 20  1  0  0  0
 17 33  1  0  0  0
 18 19  2  0  0  0
 18 34  1  0  0  0
 19 21  1  0  0  0
 19 35  1  0  0  0
 20 21  2  0  0  0
 20 36  1  0  0  0
 21 37  1  0  0  0
M  END
> <s_m_entry_id>
68264

> <s_m_entry_name>
dock_pv.200

> <s_m_Source_Path>
/home/csk/Desktop/cluster/DUD-E-result/pa2ga

> <s_m_Source_File>
dock_pv.maegz

> <i_m_Source_File_Index>
200

> <chembl_id>
CHEMBL146901

> <chembl_pref_name>
None

> <i_lp_mmshare_version>
53161

> <i_f3d_flags>
0

> <r_lp_tautomer_probability>
1

> <s_lp_Force_Field>
OPLS_2005

> <r_lp_Energy>
8.225658

> <b_lp_Chiralities_Consistent>
1

> <s_lp_Variant>
CHEMBL3474_lig71-1

> <s_i_glide_gridfile>
glide-grid_1kvo

> <i_i_glide_lignum>
111

> <i_i_glide_rotatable_bonds>
5

> <r_i_docking_score>
-6.88315121086792

> <r_i_glide_ligand_efficiency>
-0.327769105279425

> <r_i_glide_ligand_efficiency_sa>
-0.904290107908504

> <r_i_glide_ligand_efficiency_ln>
-1.70184522817045

> <r_i_glide_gscore>
-6.88315121086792

> <r_i_glide_lipo>
-2.98135193815133

> <r_i_glide_hbond>
-0.10298821490216

> <r_i_glide_metal>
0

> <r_i_glide_rewards>
-1.70166385444957

> <r_i_glide_evdw>
-37.0086097717285

> <r_i_glide_ecoul>
-5.6528468132019

> <r_i_glide_erotb>
0.689415466515391

> <r_i_glide_esite>
-0.0882051593135458

> <r_i_glide_emodel>
-62.6878239771831

> <r_i_glide_energy>
-42.6614565849304

> <r_i_glide_einternal>
2.50801491737366

> <i_i_glide_confnum>
1

> <i_i_glide_posenum>
168

> <r_i_glide_eff_state_penalty>
0

> <s_user_duplicate_titles>
CHEMBL3474_lig71

> <s_m_subgroup_title>
dock_pv

> <s_m_subgroupid>
dock_pv

> <b_m_subgroup_collapsed>
1

$$$$
CHEMBL3474_lig210
                    3D
 Schrodinger Suite 2021-1.
 52 55  0  0  1  0            999 V2000
  -39.2993   63.7028   33.4450 C   0  0  0  0  0  0
  -40.5329   63.2609   35.2963 N   0  0  0  0  0  0
  -39.9985   64.9156   33.8366 C   0  0  0  0  0  0
  -39.6866   62.7050   34.3480 C   0  0  0  0  0  0
  -40.8127   64.5832   34.9679 C   0  0  0  0  0  0
  -38.4247   63.5625   32.2600 C   0  0  0  0  0  0
  -40.0044   66.2629   33.3897 C   0  0  0  0  0  0
  -41.6628   65.5303   35.5738 C   0  0  0  0  0  0
  -37.2395   62.5006   32.2661 C   0  0  0  0  0  0
  -41.6577   66.8291   35.0660 C   0  0  0  0  0  0
  -40.8149   67.1998   34.0307 C   0  0  0  0  0  0
  -41.1162   62.5312   36.4333 C   0  0  0  0  0  0
  -39.0878   66.6118   32.4232 O   0  0  0  0  0  0
  -38.2833   68.5519   31.2298 C   0  0  0  0  0  0
  -38.4922   64.3299   31.3010 O   0  0  0  0  0  0
  -36.7460   62.0783   33.3066 O   0  0  0  0  0  0
  -37.2167   68.4990   31.8428 O   0  0  0  0  0  0
  -36.8147   62.1588   31.0463 N   0  0  0  0  0  0
  -39.4421   67.5656   31.4183 C   0  0  0  0  0  0
  -39.3451   61.2178   34.4086 C   0  0  0  0  0  0
  -42.5059   61.9421   36.2026 C   0  0  0  0  0  0
  -38.5775   69.4886   30.2873 O   0  0  0  0  0  0
  -42.5769   65.4407   36.7790 C   0  0  0  0  0  0
  -42.5698   67.7170   35.8839 C   0  0  0  0  0  0
  -43.3812   66.7366   36.7294 C   0  0  0  0  0  0
  -42.8856   61.4478   34.9500 C   0  0  0  0  0  0
  -43.3981   61.8671   37.2766 C   0  0  0  0  0  0
  -44.6676   61.3265   37.0958 C   0  0  0  0  0  0
  -44.1477   60.8952   34.7730 C   0  0  0  0  0  0
  -45.0381   60.8474   35.8429 C   0  0  0  0  0  0
  -40.7736   68.2374   33.7389 H   0  0  0  0  0  0
  -41.1368   63.2151   37.2813 H   0  0  0  0  0  0
  -40.4397   61.7345   36.7420 H   0  0  0  0  0  0
  -36.0587   61.5009   30.9454 H   0  0  0  0  0  0
  -37.2404   62.5777   30.2227 H   0  0  0  0  0  0
  -39.5775   67.0180   30.4848 H   0  0  0  0  0  0
  -40.3653   68.1099   31.6128 H   0  0  0  0  0  0
  -39.1068   60.8064   33.4285 H   0  0  0  0  0  0
  -38.4890   61.0310   35.0580 H   0  0  0  0  0  0
  -40.1601   60.5959   34.7766 H   0  0  0  0  0  0
  -37.8358   70.0841   30.1505 H   0  0  0  0  0  0
  -43.2464   64.5826   36.7501 H   0  0  0  0  0  0
  -42.0016   65.3825   37.7039 H   0  0  0  0  0  0
  -41.9858   68.3741   36.5301 H   0  0  0  0  0  0
  -43.2211   68.3442   35.2740 H   0  0  0  0  0  0
  -43.6046   67.1266   37.7232 H   0  0  0  0  0  0
  -44.3402   66.5469   36.2446 H   0  0  0  0  0  0
  -42.2142   61.4864   34.1060 H   0  0  0  0  0  0
  -43.1132   62.2316   38.2532 H   0  0  0  0  0  0
  -45.3595   61.2761   37.9240 H   0  0  0  0  0  0
  -44.4355   60.5095   33.8062 H   0  0  0  0  0  0
  -46.0229   60.4271   35.6984 H   0  0  0  0  0  0
  1  3  1  0  0  0
  1  4  2  0  0  0
  1  6  1  0  0  0
  2  4  1  0  0  0
  2 12  1  0  0  0
  2  5  1  0  0  0
  3  5  2  0  0  0
  3  7  1  0  0  0
  4 20  1  0  0  0
  5  8  1  0  0  0
  6  9  1  0  0  0
  6 15  2  0  0  0
  7 11  2  0  0  0
  7 13  1  0  0  0
  8 23  1  0  0  0
  8 10  2  0  0  0
  9 16  2  0  0  0
  9 18  1  0  0  0
 10 11  1  0  0  0
 10 24  1  0  0  0
 11 31  1  0  0  0
 12 21  1  0  0  0
 12 32  1  0  0  0
 12 33  1  0  0  0
 13 19  1  0  0  0
 14 19  1  0  0  0
 14 17  2  0  0  0
 14 22  1  0  0  0
 18 34  1  0  0  0
 18 35  1  0  0  0
 19 36  1  0  0  0
 19 37  1  0  0  0
 20 38  1  0  0  0
 20 39  1  0  0  0
 20 40  1  0  0  0
 21 26  1  0  0  0
 21 27  2  0  0  0
 22 41  1  0  0  0
 23 25  1  0  0  0
 23 42  1  0  0  0
 23 43  1  0  0  0
 24 25  1  0  0  0
 24 44  1  0  0  0
 24 45  1  0  0  0
 25 46  1  0  0  0
 25 47  1  0  0  0
 26 29  2  0  0  0
 26 48  1  0  0  0
 27 28  1  0  0  0
 27 49  1  0  0  0
 28 30  2  0  0  0
 28 50  1  0  0  0
 29 30  1  0  0  0
 29 51  1  0  0  0
 30 52  1  0  0  0
M  END
> <s_m_entry_id>
68265

> <s_m_entry_name>
dock_pv.201

> <s_m_Source_Path>
/home/csk/Desktop/cluster/DUD-E-result/pa2ga

> <s_m_Source_File>
dock_pv.maegz

> <i_m_Source_File_Index>
201

> <chembl_id>
CHEMBL361552

> <chembl_pref_name>
None

> <i_lp_mmshare_version>
53161

> <i_f3d_flags>
0

> <r_lp_tautomer_probability>
1

> <s_lp_Force_Field>
OPLS_2005

> <r_lp_Energy>
55.492122

> <b_lp_Chiralities_Consistent>
1

> <s_lp_Variant>
CHEMBL3474_lig210-1

> <s_i_glide_gridfile>
glide-grid_1kvo

> <i_i_glide_lignum>
272

> <i_i_glide_rotatable_bonds>
8

> <r_i_docking_score>
-6.84268610197176

> <r_i_glide_ligand_efficiency>
-0.228089536732392

> <r_i_glide_ligand_efficiency_sa>
-0.708727221999338

> <r_i_glide_ligand_efficiency_ln>
-1.55473283940462

> <r_i_glide_gscore>
-6.84268610197176

> <r_i_glide_lipo>
-3.11539920036129

> <r_i_glide_hbond>
-0.349049742973273

> <r_i_glide_metal>
0

> <r_i_glide_rewards>
-1.02470360485634

> <r_i_glide_evdw>
-45.937915802002

> <r_i_glide_ecoul>
-4.88014459609985

> <r_i_glide_erotb>
0.71418361144494

> <r_i_glide_esite>
-0.0387996857107138

> <r_i_glide_emodel>
-74.129265733815

> <r_i_glide_energy>
-50.8180603981018

> <r_i_glide_einternal>
2.93997311592102

> <i_i_glide_confnum>
16

> <i_i_glide_posenum>
348

> <r_i_glide_eff_state_penalty>
0

> <s_user_duplicate_titles>
CHEMBL3474_lig210,299318

> <s_m_subgroup_title>
dock_pv

> <s_m_subgroupid>
dock_pv

> <b_m_subgroup_collapsed>
1

$$$$
CHEMBL3474_lig326
                    3D
 Schrodinger Suite 2021-1.
 40 42  0  0  1  0            999 V2000
  -38.6452   66.2301   31.9094 C   0  0  0  0  0  0
  -39.6361   66.3909   32.8679 C   0  0  0  0  0  0
  -40.0288   65.3235   33.6687 C   0  0  0  0  0  0
  -38.0268   64.9988   31.7327 C   0  0  0  0  0  0
  -38.3812   63.8763   32.5401 C   0  0  0  0  0  0
  -39.4120   64.0582   33.5192 C   0  0  0  0  0  0
  -39.8305   63.0495   34.3326 N   0  0  0  0  0  0
  -39.2703   61.8225   34.1907 C   0  0  0  0  0  0
  -38.2611   61.5566   33.2745 C   0  0  0  0  0  0
  -37.7835   62.5745   32.4418 C   0  0  0  0  0  0
  -36.6665   62.2584   31.5061 C   0  0  0  0  0  0
  -36.8145   61.0446   30.9292 O   0  0  0  0  0  0
  -35.7366   63.0334   31.2731 O   0  0  0  0  0  0
  -35.7858   60.4976   30.1196 C   0  0  0  0  0  0
  -38.2605   67.2859   31.1585 F   0  0  0  0  0  0
  -39.8232   60.7033   35.0738 C   0  0  0  0  0  0
  -41.3487   60.6529   35.1390 C   0  0  0  0  0  0
  -42.0488   61.3362   36.1464 C   0  0  0  0  0  0
  -43.4516   61.2668   36.1591 C   0  0  0  0  0  0
  -44.1345   60.5400   35.1860 C   0  0  0  0  0  0
  -43.4280   59.8635   34.1953 C   0  0  0  0  0  0
  -42.0395   59.9096   34.1795 C   0  0  0  0  0  0
  -41.3059   62.0581   37.0659 O   0  0  0  0  0  0
  -41.9672   62.7702   38.1069 C   0  0  0  0  0  0
  -40.1059   67.3551   32.9921 H   0  0  0  0  0  0
  -40.8017   65.4526   34.4142 H   0  0  0  0  0  0
  -37.2800   64.8997   30.9577 H   0  0  0  0  0  0
  -37.8450   60.5597   33.2245 H   0  0  0  0  0  0
  -36.0144   59.4675   29.8674 H   0  0  0  0  0  0
  -35.6770   61.0323   29.1872 H   0  0  0  0  0  0
  -34.8269   60.4968   30.6417 H   0  0  0  0  0  0
  -39.4727   59.7411   34.6952 H   0  0  0  0  0  0
  -39.3983   60.7788   36.0760 H   0  0  0  0  0  0
  -44.0303   61.7773   36.9130 H   0  0  0  0  0  0
  -45.2151   60.4981   35.1997 H   0  0  0  0  0  0
  -43.9585   59.2988   33.4395 H   0  0  0  0  0  0
  -41.5018   59.3861   33.4020 H   0  0  0  0  0  0
  -41.2221   63.2523   38.7384 H   0  0  0  0  0  0
  -42.6166   63.5502   37.7070 H   0  0  0  0  0  0
  -42.5538   62.1043   38.7418 H   0  0  0  0  0  0
  1 15  1  0  0  0
  1  2  2  0  0  0
  1  4  1  0  0  0
  2  3  1  0  0  0
  2 25  1  0  0  0
  3  6  2  0  0  0
  3 26  1  0  0  0
  4  5  2  0  0  0
  4 27  1  0  0  0
  5  6  1  0  0  0
  5 10  1  0  0  0
  6  7  1  0  0  0
  7  8  2  0  0  0
  8 16  1  0  0  0
  8  9  1  0  0  0
  9 10  2  0  0  0
  9 28  1  0  0  0
 10 11  1  0  0  0
 11 12  1  0  0  0
 11 13  2  0  0  0
 12 14  1  0  0  0
 14 29  1  0  0  0
 14 30  1  0  0  0
 14 31  1  0  0  0
 16 17  1  0  0  0
 16 32  1  0  0  0
 16 33  1  0  0  0
 17 18  2  0  0  0
 17 22  1  0  0  0
 18 19  1  0  0  0
 18 23  1  0  0  0
 19 20  2  0  0  0
 19 34  1  0  0  0
 20 21  1  0  0  0
 20 35  1  0  0  0
 21 22  2  0  0  0
 21 36  1  0  0  0
 22 37  1  0  0  0
 23 24  1  0  0  0
 24 38  1  0  0  0
 24 39  1  0  0  0
 24 40  1  0  0  0
M  END
> <s_m_entry_id>
68266

> <s_m_entry_name>
dock_pv.202

> <s_m_Source_Path>
/home/csk/Desktop/cluster/DUD-E-result/pa2ga

> <s_m_Source_File>
dock_pv.maegz

> <i_m_Source_File_Index>
202

> <chembl_id>
CHEMBL1814409

> <chembl_pref_name>
None

> <i_lp_mmshare_version>
53161

> <i_f3d_flags>
0

> <r_lp_tautomer_probability>
1

> <s_lp_Force_Field>
OPLS_2005

> <r_lp_Energy>
22.730792

> <b_lp_Chiralities_Consistent>
1

> <s_lp_Variant>
CHEMBL3474_lig326-1

> <s_i_glide_gridfile>
glide-grid_1kvo

> <i_i_glide_lignum>
415

> <i_i_glide_rotatable_bonds>
5

> <r_i_docking_score>
-6.8383177637149

> <r_i_glide_ligand_efficiency>
-0.284929906821454

> <r_i_glide_ligand_efficiency_sa>
-0.821880070491285

> <r_i_glide_ligand_efficiency_ln>
-1.63672323081233

> <r_i_glide_gscore>
-6.8383177637149

> <r_i_glide_lipo>
-3.40679777774759

> <r_i_glide_hbond>
0

> <r_i_glide_metal>
0

> <r_i_glide_rewards>
-1.57751323407775

> <r_i_glide_evdw>
-42.1420402526855

> <r_i_glide_ecoul>
-1.49708926677704

> <r_i_glide_erotb>
0.531163992839996

> <r_i_glide_esite>
-0.053505342078723

> <r_i_glide_emodel>
-61.7433337658651

> <r_i_glide_energy>
-43.6391295194626

> <r_i_glide_einternal>
1.9608907699585

> <i_i_glide_confnum>
5

> <i_i_glide_posenum>
134

> <r_i_glide_eff_state_penalty>
0

> <s_user_duplicate_titles>
CHEMBL3474_lig326

> <s_m_subgroup_title>
dock_pv

> <s_m_subgroupid>
dock_pv

> <b_m_subgroup_collapsed>
1

$$$$
CHEMBL3474_lig167
                    3D
 Schrodinger Suite 2021-1.
 42 44  0  0  1  0            999 V2000
  -40.5407   64.0165   34.5427 N   0  0  0  0  0  0
  -39.9752   64.9648   32.5505 C   0  0  0  0  0  0
  -40.8409   64.9980   33.6280 C   0  0  0  0  0  0
  -39.1131   63.8381   32.7969 C   0  0  0  0  0  0
  -39.4802   63.2734   34.0575 C   0  0  0  0  0  0
  -39.9510   65.9018   31.3534 C   0  0  0  0  0  0
  -41.2894   63.7550   35.7711 C   0  0  0  0  0  0
  -38.8180   62.1646   34.5975 C   0  0  0  0  0  0
  -39.2176   67.2146   31.6602 C   0  0  0  0  0  0
  -38.0674   63.2425   32.0748 C   0  0  0  0  0  0
  -39.7525   68.0543   32.3910 O   0  0  0  0  0  0
  -37.9972   67.3708   31.1114 N   0  0  0  0  0  0
  -37.4180   62.1171   32.6020 C   0  0  0  0  0  0
  -37.7804   61.6196   33.8477 C   0  0  0  0  0  0
  -37.2150   68.4914   31.4430 N   0  0  0  0  0  0
  -42.4106   62.7177   35.6704 C   0  0  0  0  0  0
  -36.4160   61.4352   31.9540 O   0  0  0  0  0  0
  -42.4442   61.7430   34.6625 C   0  0  0  0  0  0
  -43.4243   62.7485   36.6323 C   0  0  0  0  0  0
  -36.3390   61.5383   30.5412 C   0  0  0  0  0  0
  -43.4995   60.8371   34.6007 C   0  0  0  0  0  0
  -44.4769   61.8403   36.5733 C   0  0  0  0  0  0
  -44.5134   60.8957   35.5525 C   0  0  0  0  0  0
  -41.6615   65.6728   33.8275 H   0  0  0  0  0  0
  -39.5170   65.4181   30.4760 H   0  0  0  0  0  0
  -40.9659   66.1677   31.0555 H   0  0  0  0  0  0
  -40.5835   63.4366   36.5398 H   0  0  0  0  0  0
  -41.6996   64.7068   36.1141 H   0  0  0  0  0  0
  -39.1000   61.7289   35.5440 H   0  0  0  0  0  0
  -37.7911   63.6417   31.1105 H   0  0  0  0  0  0
  -37.4987   66.6229   30.6429 H   0  0  0  0  0  0
  -37.2559   60.7575   34.2345 H   0  0  0  0  0  0
  -37.2996   69.1493   30.6751 H   0  0  0  0  0  0
  -37.6840   68.9285   32.2285 H   0  0  0  0  0  0
  -41.6710   61.6859   33.9119 H   0  0  0  0  0  0
  -43.4056   63.4832   37.4243 H   0  0  0  0  0  0
  -35.6147   60.8192   30.1639 H   0  0  0  0  0  0
  -36.0146   62.5351   30.2434 H   0  0  0  0  0  0
  -37.2939   61.2981   30.0704 H   0  0  0  0  0  0
  -43.5354   60.0965   33.8151 H   0  0  0  0  0  0
  -45.2638   61.8711   37.3131 H   0  0  0  0  0  0
  -45.3358   60.1975   35.5001 H   0  0  0  0  0  0
  1  3  1  0  0  0
  1  5  1  0  0  0
  1  7  1  0  0  0
  2  3  2  0  0  0
  2  6  1  0  0  0
  2  4  1  0  0  0
  3 24  1  0  0  0
  4  5  1  0  0  0
  4 10  2  0  0  0
  5  8  2  0  0  0
  6  9  1  0  0  0
  6 25  1  0  0  0
  6 26  1  0  0  0
  7 16  1  0  0  0
  7 27  1  0  0  0
  7 28  1  0  0  0
  8 14  1  0  0  0
  8 29  1  0  0  0
  9 11  2  0  0  0
  9 12  1  0  0  0
 10 13  1  0  0  0
 10 30  1  0  0  0
 12 15  1  0  0  0
 12 31  1  0  0  0
 13 14  2  0  0  0
 13 17  1  0  0  0
 14 32  1  0  0  0
 15 33  1  0  0  0
 15 34  1  0  0  0
 16 18  2  0  0  0
 16 19  1  0  0  0
 17 20  1  0  0  0
 18 21  1  0  0  0
 18 35  1  0  0  0
 19 22  2  0  0  0
 19 36  1  0  0  0
 20 37  1  0  0  0
 20 38  1  0  0  0
 20 39  1  0  0  0
 21 23  2  0  0  0
 21 40  1  0  0  0
 22 23  1  0  0  0
 22 41  1  0  0  0
 23 42  1  0  0  0
M  END
> <s_m_entry_id>
68267

> <s_m_entry_name>
dock_pv.203

> <s_m_Source_Path>
/home/csk/Desktop/cluster/DUD-E-result/pa2ga

> <s_m_Source_File>
dock_pv.maegz

> <i_m_Source_File_Index>
203

> <chembl_id>
CHEMBL148881

> <chembl_pref_name>
None

> <i_lp_mmshare_version>
53161

> <i_f3d_flags>
0

> <r_lp_tautomer_probability>
1

> <s_lp_Force_Field>
OPLS_2005

> <r_lp_Energy>
14.686626

> <b_lp_Chiralities_Consistent>
1

> <s_lp_Variant>
CHEMBL3474_lig167-1

> <s_i_glide_gridfile>
glide-grid_1kvo

> <i_i_glide_lignum>
228

> <i_i_glide_rotatable_bonds>
6

> <r_i_docking_score>
-6.83245574545347

> <r_i_glide_ligand_efficiency>
-0.297063293280586

> <r_i_glide_ligand_efficiency_sa>
-0.844808489803655

> <r_i_glide_ligand_efficiency_ln>
-1.65214975253408

> <r_i_glide_gscore>
-6.83245574545347

> <r_i_glide_lipo>
-3.14182631095064

> <r_i_glide_hbond>
0

> <r_i_glide_metal>
0

> <r_i_glide_rewards>
-1.55809404388882

> <r_i_glide_evdw>
-40.0054931640625

> <r_i_glide_ecoul>
-5.5221381187439

> <r_i_glide_erotb>
0.773839146656886

> <r_i_glide_esite>
-0.0777791612561865

> <r_i_glide_emodel>
-65.4371902600571

> <r_i_glide_energy>
-45.5276312828064

> <r_i_glide_einternal>
2.83465528488159

> <i_i_glide_confnum>
1

> <i_i_glide_posenum>
39

> <r_i_glide_eff_state_penalty>
0

> <s_user_duplicate_titles>
CHEMBL3474_lig167

> <s_m_subgroup_title>
dock_pv

> <s_m_subgroupid>
dock_pv

> <b_m_subgroup_collapsed>
1

$$$$
CHEMBL3474_lig121
                    3D
 Schrodinger Suite 2021-1.
 42 44  0  0  1  0            999 V2000
  -39.6223   67.7410   32.3332 C   0  0  0  0  0  0
  -40.0819   65.5316   32.1668 N   0  0  0  0  0  0
  -39.4246   66.5927   31.5555 C   0  0  0  0  0  0
  -40.4975   67.3683   33.4173 C   0  0  0  0  0  0
  -40.7421   65.9727   33.3018 C   0  0  0  0  0  0
  -39.1260   69.1098   32.1104 C   0  0  0  0  0  0
  -37.7252   69.3262   31.3884 C   0  0  0  0  0  0
  -40.0764   64.1355   31.7239 C   0  0  0  0  0  0
  -41.5421   65.2822   34.2231 C   0  0  0  0  0  0
  -41.0893   68.0638   34.4901 C   0  0  0  0  0  0
  -39.6662   70.0927   32.6260 O   0  0  0  0  0  0
  -36.8150   68.4985   31.4430 O   0  0  0  0  0  0
  -37.6150   70.5125   30.7879 N   0  0  0  0  0  0
  -38.6862   66.3967   30.2348 C   0  0  0  0  0  0
  -41.8886   67.3816   35.4163 C   0  0  0  0  0  0
  -42.0984   66.0166   35.2660 C   0  0  0  0  0  0
  -39.0204   63.2670   32.3949 C   0  0  0  0  0  0
  -42.5088   67.9725   36.4986 O   0  0  0  0  0  0
  -37.7406   63.1792   31.8423 C   0  0  0  0  0  0
  -39.3504   62.4929   33.5124 C   0  0  0  0  0  0
  -42.2741   69.3467   36.7832 C   0  0  0  0  0  0
  -38.4141   61.6178   34.0562 C   0  0  0  0  0  0
  -36.8106   62.2936   32.3747 C   0  0  0  0  0  0
  -37.1548   61.5113   33.4731 C   0  0  0  0  0  0
  -41.0664   63.7125   31.9037 H   0  0  0  0  0  0
  -39.9679   64.0855   30.6432 H   0  0  0  0  0  0
  -41.7465   64.2265   34.1348 H   0  0  0  0  0  0
  -40.9204   69.1218   34.5928 H   0  0  0  0  0  0
  -36.7302   70.7526   30.3520 H   0  0  0  0  0  0
  -38.3792   71.1721   30.7917 H   0  0  0  0  0  0
  -38.5402   67.3303   29.6947 H   0  0  0  0  0  0
  -37.6990   65.9579   30.3779 H   0  0  0  0  0  0
  -39.2226   65.7626   29.5292 H   0  0  0  0  0  0
  -42.7225   65.5080   35.9872 H   0  0  0  0  0  0
  -37.4779   63.7543   30.9665 H   0  0  0  0  0  0
  -40.3380   62.5363   33.9444 H   0  0  0  0  0  0
  -42.8765   69.6406   37.6425 H   0  0  0  0  0  0
  -42.5570   69.9912   35.9498 H   0  0  0  0  0  0
  -41.2294   69.5218   37.0432 H   0  0  0  0  0  0
  -38.6689   61.0083   34.9114 H   0  0  0  0  0  0
  -35.8319   62.1996   31.9263 H   0  0  0  0  0  0
  -36.4363   60.8124   33.8763 H   0  0  0  0  0  0
  1  3  2  0  0  0
  1  4  1  0  0  0
  1  6  1  0  0  0
  2  3  1  0  0  0
  2  8  1  0  0  0
  2  5  1  0  0  0
  3 14  1  0  0  0
  4  5  1  0  0  0
  4 10  2  0  0  0
  5  9  2  0  0  0
  6  7  1  0  0  0
  6 11  2  0  0  0
  7 12  2  0  0  0
  7 13  1  0  0  0
  8 17  1  0  0  0
  8 25  1  0  0  0
  8 26  1  0  0  0
  9 16  1  0  0  0
  9 27  1  0  0  0
 10 15  1  0  0  0
 10 28  1  0  0  0
 13 29  1  0  0  0
 13 30  1  0  0  0
 14 31  1  0  0  0
 14 32  1  0  0  0
 14 33  1  0  0  0
 15 16  2  0  0  0
 15 18  1  0  0  0
 16 34  1  0  0  0
 17 19  2  0  0  0
 17 20  1  0  0  0
 18 21  1  0  0  0
 19 23  1  0  0  0
 19 35  1  0  0  0
 20 22  2  0  0  0
 20 36  1  0  0  0
 21 37  1  0  0  0
 21 38  1  0  0  0
 21 39  1  0  0  0
 22 24  1  0  0  0
 22 40  1  0  0  0
 23 24  2  0  0  0
 23 41  1  0  0  0
 24 42  1  0  0  0
M  END
> <s_m_entry_id>
68268

> <s_m_entry_name>
dock_pv.204

> <s_m_Source_Path>
/home/csk/Desktop/cluster/DUD-E-result/pa2ga

> <s_m_Source_File>
dock_pv.maegz

> <i_m_Source_File_Index>
204

> <chembl_id>
CHEMBL347543

> <chembl_pref_name>
None

> <i_lp_mmshare_version>
53161

> <i_f3d_flags>
0

> <r_lp_tautomer_probability>
1

> <s_lp_Force_Field>
OPLS_2005

> <r_lp_Energy>
20.097001

> <b_lp_Chiralities_Consistent>
1

> <s_lp_Variant>
CHEMBL3474_lig121-1

> <s_i_glide_gridfile>
glide-grid_1kvo

> <i_i_glide_lignum>
180

> <i_i_glide_rotatable_bonds>
5

> <r_i_docking_score>
-6.83228236318735

> <r_i_glide_ligand_efficiency>
-0.284678431799473

> <r_i_glide_ligand_efficiency_sa>
-0.821154691007262

> <r_i_glide_ligand_efficiency_ln>
-1.6352786825196

> <r_i_glide_gscore>
-6.83228236318735

> <r_i_glide_lipo>
-2.41337944101011

> <r_i_glide_hbond>
-0.249049500855147

> <r_i_glide_metal>
0

> <r_i_glide_rewards>
-1.68217022704904

> <r_i_glide_evdw>
-35.3325500488281

> <r_i_glide_ecoul>
-7.70377254486084

> <r_i_glide_erotb>
0.53984438598368

> <r_i_glide_esite>
-0.105334196086199

> <r_i_glide_emodel>
-62.5175804913713

> <r_i_glide_energy>
-43.036322593689

> <r_i_glide_einternal>
6.3611364364624

> <i_i_glide_confnum>
7

> <i_i_glide_posenum>
13

> <r_i_glide_eff_state_penalty>
0

> <s_user_duplicate_titles>
CHEMBL3474_lig121

> <s_m_subgroup_title>
dock_pv

> <s_m_subgroupid>
dock_pv

> <b_m_subgroup_collapsed>
1

$$$$
489884
                    3D
 Schrodinger Suite 2021-1.
 62 65  0  0  1  0            999 V2000
  -40.0253   59.4839   34.4768 C   0  0  0  0  0  0
  -39.1584   60.5379   35.1662 C   0  0  0  0  0  0
  -39.5318   61.9308   34.6915 C   0  0  0  0  0  0
  -39.0473   62.6469   33.5971 C   0  0  0  0  0  0
  -39.8759   63.8318   33.4879 C   0  0  0  0  0  0
  -40.6694   63.8848   34.6740 C   0  0  0  0  0  0
  -40.4565   62.7093   35.3707 N   0  0  0  0  0  0
  -41.2315   62.3236   36.5610 C   0  0  0  0  0  0
  -42.6516   61.8223   36.2937 C   0  0  0  0  0  0
  -43.5652   61.8005   37.3520 C   0  0  0  0  0  0
  -44.8641   61.3422   37.1495 C   0  0  0  0  0  0
  -45.2484   60.8983   35.8871 C   0  0  0  0  0  0
  -44.3420   60.8980   34.8299 C   0  0  0  0  0  0
  -43.0498   61.3677   35.0297 C   0  0  0  0  0  0
  -41.5233   64.9580   34.9639 C   0  0  0  0  0  0
  -41.6151   65.9764   34.0233 C   0  0  0  0  0  0
  -40.9313   65.9141   32.8175 C   0  0  0  0  0  0
  -40.0731   64.8458   32.5223 C   0  0  0  0  0  0
  -39.4408   64.6583   31.3073 O   0  0  0  0  0  0
  -39.4068   65.6954   30.3185 C   0  0  0  0  0  0
  -38.5912   66.9072   30.7919 C   0  0  0  0  0  0
  -37.9545   66.9048   31.8430 O   0  0  0  0  0  0
  -38.6380   68.0149   29.9272 N   0  0  0  0  0  0
  -37.6597   69.4502   30.1266 S   0  0  0  0  0  0
  -36.8150   69.2727   31.3177 O   0  0  0  0  0  0
  -37.0949   69.7439   28.8069 O   0  0  0  0  0  0
  -38.8096   70.7643   30.5191 C   0  0  0  0  0  0
  -39.1890   70.9693   31.8475 C   0  0  0  0  0  0
  -40.0143   72.0422   32.1766 C   0  0  0  0  0  0
  -40.4672   72.8955   31.1712 C   0  0  0  0  0  0
  -40.1082   72.6786   29.8429 C   0  0  0  0  0  0
  -39.2798   71.6116   29.5118 C   0  0  0  0  0  0
  -37.9337   62.2192   32.7233 C   0  0  0  0  0  0
  -37.6154   61.0345   32.5833 O   0  0  0  0  0  0
  -36.9625   63.3208   32.1172 C   0  0  0  0  0  0
  -36.8096   64.4195   32.6430 O   0  0  0  0  0  0
  -36.2863   62.9172   31.0429 N   0  0  0  0  0  0
  -39.6147   58.4976   34.6436 H   0  0  0  0  0  0
  -41.0452   59.4821   34.8597 H   0  0  0  0  0  0
  -40.0655   59.6393   33.3967 H   0  0  0  0  0  0
  -38.1114   60.3401   34.9406 H   0  0  0  0  0  0
  -39.2140   60.4113   36.2432 H   0  0  0  0  0  0
  -41.2866   63.2048   37.2018 H   0  0  0  0  0  0
  -40.6974   61.5830   37.1490 H   0  0  0  0  0  0
  -43.2719   62.1399   38.3345 H   0  0  0  0  0  0
  -45.5683   61.3318   37.9667 H   0  0  0  0  0  0
  -46.2543   60.5408   35.7273 H   0  0  0  0  0  0
  -44.6418   60.5443   33.8532 H   0  0  0  0  0  0
  -42.3692   61.3660   34.1929 H   0  0  0  0  0  0
  -42.1126   64.9937   35.8686 H   0  0  0  0  0  0
  -42.2738   66.8114   34.2176 H   0  0  0  0  0  0
  -41.0986   66.7042   32.1041 H   0  0  0  0  0  0
  -38.9268   65.2980   29.4263 H   0  0  0  0  0  0
  -40.4161   65.9847   30.0266 H   0  0  0  0  0  0
  -39.0205   67.8927   28.9870 H   0  0  0  0  0  0
  -38.8263   70.3159   32.6268 H   0  0  0  0  0  0
  -40.2919   72.2210   33.2056 H   0  0  0  0  0  0
  -41.0963   73.7372   31.4221 H   0  0  0  0  0  0
  -40.4600   73.3381   29.0615 H   0  0  0  0  0  0
  -38.9906   71.4679   28.4794 H   0  0  0  0  0  0
  -35.6711   63.5647   30.5699 H   0  0  0  0  0  0
  -36.4584   62.0015   30.6547 H   0  0  0  0  0  0
  1  2  1  0  0  0
  1 38  1  0  0  0
  1 39  1  0  0  0
  1 40  1  0  0  0
  2  3  1  0  0  0
  2 41  1  0  0  0
  2 42  1  0  0  0
  3  7  1  0  0  0
  3  4  2  0  0  0
  4  5  1  0  0  0
  4 33  1  0  0  0
  5 18  2  0  0  0
  5  6  1  0  0  0
  6  7  1  0  0  0
  6 15  2  0  0  0
  7  8  1  0  0  0
  8  9  1  0  0  0
  8 43  1  0  0  0
  8 44  1  0  0  0
  9 14  1  0  0  0
  9 10  2  0  0  0
 10 11  1  0  0  0
 10 45  1  0  0  0
 11 12  2  0  0  0
 11 46  1  0  0  0
 12 13  1  0  0  0
 12 47  1  0  0  0
 13 14  2  0  0  0
 13 48  1  0  0  0
 14 49  1  0  0  0
 15 16  1  0  0  0
 15 50  1  0  0  0
 16 17  2  0  0  0
 16 51  1  0  0  0
 17 18  1  0  0  0
 17 52  1  0  0  0
 18 19  1  0  0  0
 19 20  1  0  0  0
 20 21  1  0  0  0
 20 53  1  0  0  0
 20 54  1  0  0  0
 21 22  2  0  0  0
 21 23  1  0  0  0
 23 24  1  0  0  0
 23 55  1  0  0  0
 24 25  2  0  0  0
 24 26  2  0  0  0
 24 27  1  0  0  0
 27 32  1  0  0  0
 27 28  2  0  0  0
 28 29  1  0  0  0
 28 56  1  0  0  0
 29 30  2  0  0  0
 29 57  1  0  0  0
 30 31  1  0  0  0
 30 58  1  0  0  0
 31 32  2  0  0  0
 31 59  1  0  0  0
 32 60  1  0  0  0
 33 34  2  0  0  0
 33 35  1  0  0  0
 35 36  2  0  0  0
 35 37  1  0  0  0
 37 61  1  0  0  0
 37 62  1  0  0  0
M  END
> <s_m_entry_id>
68476

> <s_m_entry_name>
ligand_docking-pose.67

> <s_m_Source_Path>
/home/csk/Desktop/cluster/DUD-E-result/pa2ga

> <s_m_Source_File>
ligand_docking-pose.sdf

> <i_m_Source_File_Index>
67

> <i_lp_mmshare_version>
53161

> <r_lp_tautomer_probability>
1

> <s_lp_Force_Field>
OPLS_2005

> <r_lp_Energy>
21.975017

> <b_lp_Chiralities_Consistent>
1

> <s_lp_Variant>
489884-1

> <s_i_glide_gridfile>
glide-grid_1kvo

> <i_i_glide_lignum>
119

> <i_i_glide_rotatable_bonds>
11

> <r_i_docking_score>
-7.69215217275034

> <r_i_glide_ligand_efficiency>
-0.207896004668928

> <r_i_glide_ligand_efficiency_sa>
-0.692755608793863

> <r_i_glide_ligand_efficiency_ln>
-1.66824747663727

> <r_i_glide_gscore>
-7.69215217275034

> <r_i_glide_lipo>
-3.47534771749888

> <r_i_glide_hbond>
-0.32

> <r_i_glide_metal>
0

> <r_i_glide_rewards>
-0.431555594852087

> <r_i_glide_evdw>
-60.1672477722168

> <r_i_glide_ecoul>
-6.12039279937744

> <r_i_glide_erotb>
0.608866076084129

> <r_i_glide_esite>
-0.14769362796604

> <r_i_glide_emodel>
-103.305066686277

> <r_i_glide_energy>
-66.2876405715942

> <r_i_glide_einternal>
2.36783409118652

> <i_i_glide_confnum>
64

> <i_i_glide_posenum>
23

> <r_i_glide_eff_state_penalty>
0

> <i_f3d_flags>
0

> <s_user_duplicate_titles>
489884

> <s_m_subgroup_title>
dock_pv

> <s_m_subgroupid>
dock_pv1

> <b_m_subgroup_collapsed>
0

$$$$
490089
                    3D
 Schrodinger Suite 2021-1.
 68 72  0  0  1  0            999 V2000
  -39.5286   59.8479   33.9357 C   0  0  0  0  0  0
  -38.6510   61.0084   34.4241 C   0  0  0  0  0  0
  -39.2275   62.3998   34.1102 C   0  0  0  0  0  0
  -38.8614   63.2870   33.0936 C   0  0  0  0  0  0
  -39.6113   64.5229   33.2895 C   0  0  0  0  0  0
  -39.7254   65.7733   32.6110 C   0  0  0  0  0  0
  -40.4623   66.8059   33.1952 C   0  0  0  0  0  0
  -41.1834   66.6399   34.3877 C   0  0  0  0  0  0
  -41.8911   67.7320   34.9526 C   0  0  0  0  0  0
  -42.6590   67.5631   36.0957 C   0  0  0  0  0  0
  -42.7434   66.3167   36.6947 C   0  0  0  0  0  0
  -42.0415   65.2330   36.1766 C   0  0  0  0  0  0
  -41.2142   65.3625   35.0191 C   0  0  0  0  0  0
  -40.4019   64.3073   34.4707 C   0  0  0  0  0  0
  -40.1844   62.9956   34.9240 N   0  0  0  0  0  0
  -40.8071   62.3155   36.0793 C   0  0  0  0  0  0
  -42.2472   61.8388   35.8943 C   0  0  0  0  0  0
  -42.7145   61.3979   34.6504 C   0  0  0  0  0  0
  -44.0139   60.9154   34.5264 C   0  0  0  0  0  0
  -44.8502   60.8927   35.6394 C   0  0  0  0  0  0
  -44.3936   61.3214   36.8819 C   0  0  0  0  0  0
  -43.0890   61.7871   37.0097 C   0  0  0  0  0  0
  -39.1043   65.9044   31.3740 O   0  0  0  0  0  0
  -39.1442   67.1376   30.6119 C   0  0  0  0  0  0
  -38.1227   68.1828   31.1298 C   0  0  0  0  0  0
  -37.6150   68.0981   32.2419 O   0  0  0  0  0  0
  -37.6813   69.1997   30.2535 N   0  0  0  0  0  0
  -38.6045   70.0815   29.0420 S   0  0  0  0  0  0
  -37.8643   69.9718   27.7832 O   0  0  0  0  0  0
  -40.0162   69.6978   29.1315 O   0  0  0  0  0  0
  -38.5020   71.7987   29.5373 C   0  0  0  0  0  0
  -37.2940   72.3215   30.0020 C   0  0  0  0  0  0
  -37.2183   73.6550   30.3947 C   0  0  0  0  0  0
  -38.3501   74.4633   30.3103 C   0  0  0  0  0  0
  -39.5546   73.9504   29.8329 C   0  0  0  0  0  0
  -39.6300   72.6161   29.4432 C   0  0  0  0  0  0
  -37.8303   62.9611   32.0888 C   0  0  0  0  0  0
  -37.6149   61.8016   31.7154 O   0  0  0  0  0  0
  -36.7892   64.0665   31.6579 C   0  0  0  0  0  0
  -36.6513   65.1334   32.2430 O   0  0  0  0  0  0
  -36.0151   63.6979   30.6431 N   0  0  0  0  0  0
  -39.0106   58.8981   34.0656 H   0  0  0  0  0  0
  -40.4652   59.7829   34.4865 H   0  0  0  0  0  0
  -39.7660   59.9491   32.8761 H   0  0  0  0  0  0
  -37.6651   60.8864   33.9790 H   0  0  0  0  0  0
  -38.4245   60.8862   35.4809 H   0  0  0  0  0  0
  -40.5079   67.7756   32.7265 H   0  0  0  0  0  0
  -41.8438   68.7017   34.4790 H   0  0  0  0  0  0
  -43.2026   68.3989   36.5118 H   0  0  0  0  0  0
  -43.3568   66.1869   37.5748 H   0  0  0  0  0  0
  -42.1710   64.3071   36.6935 H   0  0  0  0  0  0
  -40.6860   62.9568   36.9504 H   0  0  0  0  0  0
  -40.2463   61.4275   36.3542 H   0  0  0  0  0  0
  -42.0760   61.4180   33.7791 H   0  0  0  0  0  0
  -44.3783   60.5694   33.5696 H   0  0  0  0  0  0
  -45.8614   60.5260   35.5368 H   0  0  0  0  0  0
  -45.0453   61.2882   37.7428 H   0  0  0  0  0  0
  -42.7351   62.1058   37.9797 H   0  0  0  0  0  0
  -38.8894   66.8859   29.5815 H   0  0  0  0  0  0
  -40.1516   67.5517   30.5736 H   0  0  0  0  0  0
  -36.8601   69.7293   30.5531 H   0  0  0  0  0  0
  -36.4151   71.7004   30.0558 H   0  0  0  0  0  0
  -36.2855   74.0634   30.7550 H   0  0  0  0  0  0
  -38.2901   75.5009   30.6049 H   0  0  0  0  0  0
  -40.4224   74.5874   29.7435 H   0  0  0  0  0  0
  -40.5577   72.2315   29.0431 H   0  0  0  0  0  0
  -36.1930   62.8209   30.1750 H   0  0  0  0  0  0
  -35.3727   64.3799   30.2445 H   0  0  0  0  0  0
  1  2  1  0  0  0
  1 42  1  0  0  0
  1 43  1  0  0  0
  1 44  1  0  0  0
  2  3  1  0  0  0
  2 45  1  0  0  0
  2 46  1  0  0  0
  3 15  1  0  0  0
  3  4  2  0  0  0
  4  5  1  0  0  0
  4 37  1  0  0  0
  5 14  2  0  0  0
  5  6  1  0  0  0
  6  7  2  0  0  0
  6 23  1  0  0  0
  7  8  1  0  0  0
  7 47  1  0  0  0
  8 13  1  0  0  0
  8  9  2  0  0  0
  9 10  1  0  0  0
  9 48  1  0  0  0
 10 11  2  0  0  0
 10 49  1  0  0  0
 11 12  1  0  0  0
 11 50  1  0  0  0
 12 13  2  0  0  0
 12 51  1  0  0  0
 13 14  1  0  0  0
 14 15  1  0  0  0
 15 16  1  0  0  0
 16 17  1  0  0  0
 16 52  1  0  0  0
 16 53  1  0  0  0
 17 22  1  0  0  0
 17 18  2  0  0  0
 18 19  1  0  0  0
 18 54  1  0  0  0
 19 20  2  0  0  0
 19 55  1  0  0  0
 20 21  1  0  0  0
 20 56  1  0  0  0
 21 22  2  0  0  0
 21 57  1  0  0  0
 22 58  1  0  0  0
 23 24  1  0  0  0
 24 25  1  0  0  0
 24 59  1  0  0  0
 24 60  1  0  0  0
 25 26  2  0  0  0
 25 27  1  0  0  0
 27 28  1  0  0  0
 27 61  1  0  0  0
 28 29  2  0  0  0
 28 30  2  0  0  0
 28 31  1  0  0  0
 31 36  1  0  0  0
 31 32  2  0  0  0
 32 33  1  0  0  0
 32 62  1  0  0  0
 33 34  2  0  0  0
 33 63  1  0  0  0
 34 35  1  0  0  0
 34 64  1  0  0  0
 35 36  2  0  0  0
 35 65  1  0  0  0
 36 66  1  0  0  0
 37 38  2  0  0  0
 37 39  1  0  0  0
 39 40  2  0  0  0
 39 41  1  0  0  0
 41 67  1  0  0  0
 41 68  1  0  0  0
M  END
> <s_m_entry_id>
68478

> <s_m_entry_name>
ligand_docking-pose.69

> <s_m_Source_Path>
/home/csk/Desktop/cluster/DUD-E-result/pa2ga

> <s_m_Source_File>
ligand_docking-pose.sdf

> <i_m_Source_File_Index>
69

> <i_lp_mmshare_version>
53161

> <r_lp_tautomer_probability>
1

> <s_lp_Force_Field>
OPLS_2005

> <r_lp_Energy>
37.133126

> <b_lp_Chiralities_Consistent>
1

> <s_lp_Variant>
490089-1

> <s_i_glide_gridfile>
glide-grid_1kvo

> <i_i_glide_lignum>
81

> <i_i_glide_rotatable_bonds>
11

> <r_i_docking_score>
-7.67473839489191

> <r_i_glide_ligand_efficiency>
-0.187188741338827

> <r_i_glide_ligand_efficiency_sa>
-0.64546744429109

> <r_i_glide_ligand_efficiency_ln>
-1.62822129083475

> <r_i_glide_gscore>
-7.67473839489191

> <r_i_glide_lipo>
-3.5604176208888

> <r_i_glide_hbond>
-0.293391115773322

> <r_i_glide_metal>
0

> <r_i_glide_rewards>
0.243823863081526

> <r_i_glide_evdw>
-53.8188247680664

> <r_i_glide_ecoul>
-10.5405788421631

> <r_i_glide_erotb>
0.424397481269086

> <r_i_glide_esite>
-0.217122937852613

> <r_i_glide_emodel>
-86.1412252127151

> <r_i_glide_energy>
-64.3594036102295

> <r_i_glide_einternal>
11.2526330947876

> <i_i_glide_confnum>
63

> <i_i_glide_posenum>
196

> <r_i_glide_eff_state_penalty>
0

> <i_f3d_flags>
0

> <s_user_duplicate_titles>
490089

> <s_m_subgroup_title>
dock_pv

> <s_m_subgroupid>
dock_pv1

> <b_m_subgroup_collapsed>
0

$$$$
268634
                    3D
 Schrodinger Suite 2021-1.
 77 79  0  0  1  0            999 V2000
  -46.0955   60.9888   37.6902 C   0  0  0  0  0  0
  -45.9127   61.4636   36.2396 C   0  0  0  0  0  0
  -44.7256   60.8111   35.5055 C   0  0  0  0  0  0
  -43.3451   61.2384   36.0282 C   0  0  0  0  0  0
  -42.1998   60.4348   35.3908 C   0  0  0  0  0  0
  -40.8283   60.8331   35.9616 C   0  0  0  0  0  0
  -39.6738   59.9153   35.5215 C   0  0  0  0  0  0
  -39.2296   59.9834   34.0480 C   0  0  0  0  0  0
  -38.6154   61.2694   33.6960 N   0  0  0  0  0  0
  -37.2145   61.4210   34.0930 C   0  0  0  0  0  0
  -39.3818   62.3131   33.2988 C   0  0  0  0  0  0
  -40.5785   62.1731   33.0429 O   0  0  0  0  0  0
  -38.7523   63.7216   33.2239 C   0  0  0  0  0  0
  -39.5104   64.6459   32.3635 N   0  0  0  0  0  0
  -38.8315   65.1596   31.2607 C   0  0  0  0  0  0
  -39.2167   66.3005   30.6457 C   0  0  0  0  0  0
  -40.4954   66.9099   31.0412 C   0  0  0  0  0  0
  -41.0129   67.6980   30.2569 O   0  0  0  0  0  0
  -41.0077   66.4980   32.2805 N   0  0  0  0  0  0
  -40.5951   65.4198   32.8359 C   0  0  0  0  0  0
  -41.4608   64.8522   34.3253 S   0  0  0  0  0  0
  -40.9858   66.1538   35.5055 C   0  0  0  0  0  0
  -42.0309   67.2538   35.5873 C   0  0  0  0  0  0
  -43.2448   67.0208   36.2416 C   0  0  0  0  0  0
  -44.2025   68.0311   36.3046 C   0  0  0  0  0  0
  -43.9406   69.2708   35.7260 C   0  0  0  0  0  0
  -42.7259   69.5134   35.0896 C   0  0  0  0  0  0
  -41.7748   68.4995   35.0113 C   0  0  0  0  0  0
  -44.8759   70.2467   35.7748 F   0  0  0  0  0  0
  -38.3385   67.0451   29.6316 C   0  0  0  0  0  0
  -38.0505   68.4993   30.0172 C   0  0  0  0  0  0
  -37.7075   68.8961   31.3643 C   0  0  0  0  0  0
  -37.6043   70.1313   31.7115 N   0  0  0  0  0  0
  -37.8439   71.1901   30.7994 C   0  0  0  0  0  0
  -37.8096   72.3826   31.1062 O   0  0  0  0  0  0
  -38.1570   70.8544   29.4832 N   0  0  0  0  0  0
  -38.2545   69.5198   29.1580 C   0  0  0  0  0  0
  -38.4715   71.9127   28.4982 C   0  0  0  0  0  0
  -37.2241   72.3681   27.7246 C   0  0  0  0  0  0
  -36.0839   72.0288   27.9614 O   0  0  0  0  0  0
  -37.6150   73.2079   26.7270 O   0  0  0  0  0  0
  -46.9937   61.4262   38.1284 H   0  0  0  0  0  0
  -45.2544   61.2814   38.3196 H   0  0  0  0  0  0
  -46.1980   59.9052   37.7443 H   0  0  0  0  0  0
  -46.8265   61.2432   35.6850 H   0  0  0  0  0  0
  -45.8088   62.5488   36.2248 H   0  0  0  0  0  0
  -44.8131   59.7297   35.5705 H   0  0  0  0  0  0
  -44.7871   61.0402   34.4401 H   0  0  0  0  0  0
  -43.1997   62.3044   35.8438 H   0  0  0  0  0  0
  -43.3066   61.1060   37.1103 H   0  0  0  0  0  0
  -42.3691   59.3705   35.5677 H   0  0  0  0  0  0
  -42.2115   60.5695   34.3093 H   0  0  0  0  0  0
  -40.6090   61.8769   35.7400 H   0  0  0  0  0  0
  -40.8799   60.7840   37.0453 H   0  0  0  0  0  0
  -38.8150   60.0983   36.1621 H   0  0  0  0  0  0
  -39.9896   58.8981   35.7264 H   0  0  0  0  0  0
  -38.5270   59.1758   33.8415 H   0  0  0  0  0  0
  -40.0918   59.7975   33.4038 H   0  0  0  0  0  0
  -36.6364   61.9676   33.3495 H   0  0  0  0  0  0
  -37.1446   61.9493   35.0427 H   0  0  0  0  0  0
  -36.7153   60.4618   34.2027 H   0  0  0  0  0  0
  -38.7211   64.1001   34.2430 H   0  0  0  0  0  0
  -37.7188   63.6551   32.8914 H   0  0  0  0  0  0
  -37.9115   64.6599   30.9809 H   0  0  0  0  0  0
  -40.8671   65.6953   36.4879 H   0  0  0  0  0  0
  -40.0117   66.5673   35.2450 H   0  0  0  0  0  0
  -43.4536   66.0572   36.6842 H   0  0  0  0  0  0
  -45.1488   67.8545   36.7965 H   0  0  0  0  0  0
  -42.5292   70.4780   34.6471 H   0  0  0  0  0  0
  -40.8427   68.6810   34.4981 H   0  0  0  0  0  0
  -37.3909   66.5240   29.5011 H   0  0  0  0  0  0
  -38.8148   67.0002   28.6506 H   0  0  0  0  0  0
  -37.5614   68.1525   32.1406 H   0  0  0  0  0  0
  -38.5786   69.3721   28.1376 H   0  0  0  0  0  0
  -39.2220   71.5392   27.8019 H   0  0  0  0  0  0
  -38.9342   72.7771   28.9773 H   0  0  0  0  0  0
  -38.5880   73.2977   26.6429 H   0  0  0  0  0  0
  1  2  1  0  0  0
  1 42  1  0  0  0
  1 43  1  0  0  0
  1 44  1  0  0  0
  2  3  1  0  0  0
  2 45  1  0  0  0
  2 46  1  0  0  0
  3  4  1  0  0  0
  3 47  1  0  0  0
  3 48  1  0  0  0
  4  5  1  0  0  0
  4 49  1  0  0  0
  4 50  1  0  0  0
  5  6  1  0  0  0
  5 51  1  0  0  0
  5 52  1  0  0  0
  6  7  1  0  0  0
  6 53  1  0  0  0
  6 54  1  0  0  0
  7  8  1  0  0  0
  7 55  1  0  0  0
  7 56  1  0  0  0
  8  9  1  0  0  0
  8 57  1  0  0  0
  8 58  1  0  0  0
  9 10  1  0  0  0
  9 11  1  0  0  0
 10 59  1  0  0  0
 10 60  1  0  0  0
 10 61  1  0  0  0
 11 12  2  0  0  0
 11 13  1  0  0  0
 13 14  1  0  0  0
 13 62  1  0  0  0
 13 63  1  0  0  0
 14 20  1  0  0  0
 14 15  1  0  0  0
 15 16  2  0  0  0
 15 64  1  0  0  0
 16 17  1  0  0  0
 16 30  1  0  0  0
 17 18  2  0  0  0
 17 19  1  0  0  0
 19 20  2  0  0  0
 20 21  1  0  0  0
 21 22  1  0  0  0
 22 23  1  0  0  0
 22 65  1  0  0  0
 22 66  1  0  0  0
 23 28  1  0  0  0
 23 24  2  0  0  0
 24 25  1  0  0  0
 24 67  1  0  0  0
 25 26  2  0  0  0
 25 68  1  0  0  0
 26 27  1  0  0  0
 26 29  1  0  0  0
 27 28  2  0  0  0
 27 69  1  0  0  0
 28 70  1  0  0  0
 30 31  1  0  0  0
 30 71  1  0  0  0
 30 72  1  0  0  0
 31 37  2  0  0  0
 31 32  1  0  0  0
 32 33  2  0  0  0
 32 73  1  0  0  0
 33 34  1  0  0  0
 34 35  2  0  0  0
 34 36  1  0  0  0
 36 37  1  0  0  0
 36 38  1  0  0  0
 37 74  1  0  0  0
 38 39  1  0  0  0
 38 75  1  0  0  0
 38 76  1  0  0  0
 39 40  2  0  0  0
 39 41  1  0  0  0
 41 77  1  0  0  0
M  END
> <s_m_entry_id>
68494

> <s_m_entry_name>
ligand_docking-pose.85

> <s_m_Source_Path>
/home/csk/Desktop/cluster/DUD-E-result/pa2ga

> <s_m_Source_File>
ligand_docking-pose.sdf

> <i_m_Source_File_Index>
85

> <i_lp_mmshare_version>
53161

> <r_lp_tautomer_probability>
1

> <s_lp_Force_Field>
OPLS_2005

> <r_lp_Energy>
33.510211

> <b_lp_Chiralities_Consistent>
1

> <s_lp_Variant>
268634-1

> <s_i_glide_gridfile>
glide-grid_1kvo

> <i_i_glide_lignum>
175

> <i_i_glide_rotatable_bonds>
18

> <r_i_docking_score>
-7.3760848642762

> <r_i_glide_ligand_efficiency>
-0.179904508884785

> <r_i_glide_ligand_efficiency_sa>
-0.6203498283912

> <r_i_glide_ligand_efficiency_ln>
-1.56486095044124

> <r_i_glide_gscore>
-7.3760848642762

> <r_i_glide_lipo>
-2.96619492125151

> <r_i_glide_hbond>
-0.0102279585406156

> <r_i_glide_metal>
0

> <r_i_glide_rewards>
-0.61782287010035

> <r_i_glide_evdw>
-52.1340408325195

> <r_i_glide_ecoul>
-13.0726861953735

> <r_i_glide_erotb>
0.871535570955071

> <r_i_glide_esite>
-0.0857697144067828

> <r_i_glide_emodel>
-81.7700667286721

> <r_i_glide_energy>
-65.2067270278931

> <r_i_glide_einternal>
14.0352392196655

> <i_i_glide_confnum>
35

> <i_i_glide_posenum>
292

> <r_i_glide_eff_state_penalty>
0

> <i_f3d_flags>
0

> <s_user_duplicate_titles>
268634

> <s_m_subgroup_title>
dock_pv

> <s_m_subgroupid>
dock_pv1

> <b_m_subgroup_collapsed>
0

$$$$
137539
                    3D
 Schrodinger Suite 2021-1.
 67 69  0  0  1  0            999 V2000
  -43.5193   60.8743   34.2640 C   0  0  0  0  0  0
  -42.7486   59.7996   35.0505 C   0  0  0  0  0  0
  -41.2493   60.0970   35.2506 C   0  0  0  0  0  0
  -40.4416   60.2240   33.9511 C   0  0  0  0  0  0
  -38.9544   60.5401   34.1971 C   0  0  0  0  0  0
  -38.2151   60.8763   32.8936 C   0  0  0  0  0  0
  -36.7979   61.4500   33.0940 C   0  0  0  0  0  0
  -36.2114   62.1013   31.8236 C   0  0  0  0  0  0
  -37.0877   63.1321   31.2753 N   0  0  0  0  0  0
  -37.2157   64.3877   31.7236 C   0  0  0  0  0  0
  -36.4440   64.8950   32.5392 O   0  0  0  0  0  0
  -38.4206   65.1790   31.1785 C   0  0  0  0  0  0
  -39.0310   65.9952   32.2510 N   0  0  0  0  0  0
  -39.8848   65.3505   33.1410 C   0  0  0  0  0  0
  -40.7694   66.0152   33.9232 C   0  0  0  0  0  0
  -40.8148   67.4903   33.8675 C   0  0  0  0  0  0
  -41.5629   68.0885   34.6411 O   0  0  0  0  0  0
  -39.9559   68.0876   32.9256 N   0  0  0  0  0  0
  -39.1192   67.3990   32.2310 C   0  0  0  0  0  0
  -37.8877   68.2542   31.2086 S   0  0  0  0  0  0
  -38.6139   69.9249   31.0865 C   0  0  0  0  0  0
  -38.0915   70.7015   29.8868 C   0  0  0  0  0  0
  -38.1091   70.1356   28.6039 C   0  0  0  0  0  0
  -37.6584   70.8749   27.5117 C   0  0  0  0  0  0
  -37.2090   72.1790   27.7011 C   0  0  0  0  0  0
  -37.1888   72.7457   28.9709 C   0  0  0  0  0  0
  -37.6283   72.0081   30.0658 C   0  0  0  0  0  0
  -36.7875   72.9045   26.6427 F   0  0  0  0  0  0
  -41.7755   65.2802   34.8138 C   0  0  0  0  0  0
  -41.3606   65.0797   36.2692 C   0  0  0  0  0  0
  -40.7812   66.0923   37.0497 C   0  0  0  0  0  0
  -40.4591   65.9210   38.3581 N   0  0  0  0  0  0
  -40.7436   64.7054   38.8877 C   0  0  0  0  0  0
  -41.2974   63.6551   38.2295 N   0  0  0  0  0  0
  -41.5993   63.8644   36.9227 C   0  0  0  0  0  0
  -44.5829   60.6383   34.2392 H   0  0  0  0  0  0
  -43.1806   60.9370   33.2296 H   0  0  0  0  0  0
  -43.4056   61.8579   34.7188 H   0  0  0  0  0  0
  -43.2111   59.6977   36.0317 H   0  0  0  0  0  0
  -42.8710   58.8360   34.5512 H   0  0  0  0  0  0
  -41.1378   61.0039   35.8434 H   0  0  0  0  0  0
  -40.8118   59.2995   35.8489 H   0  0  0  0  0  0
  -40.5293   59.3043   33.3737 H   0  0  0  0  0  0
  -40.8743   61.0145   33.3365 H   0  0  0  0  0  0
  -38.8766   61.3871   34.8832 H   0  0  0  0  0  0
  -38.4668   59.6982   34.6885 H   0  0  0  0  0  0
  -38.1791   59.9968   32.2472 H   0  0  0  0  0  0
  -38.8135   61.6122   32.3590 H   0  0  0  0  0  0
  -36.8159   62.1912   33.8939 H   0  0  0  0  0  0
  -36.1305   60.6601   33.4428 H   0  0  0  0  0  0
  -35.2156   62.4970   32.0043 H   0  0  0  0  0  0
  -36.1083   61.3429   31.0460 H   0  0  0  0  0  0
  -37.6165   62.8772   30.4498 H   0  0  0  0  0  0
  -38.0633   65.7557   30.3258 H   0  0  0  0  0  0
  -39.1656   64.4967   30.7560 H   0  0  0  0  0  0
  -39.8230   64.2685   33.1479 H   0  0  0  0  0  0
  -39.6994   69.8646   30.9908 H   0  0  0  0  0  0
  -38.4056   70.4606   32.0163 H   0  0  0  0  0  0
  -38.4681   69.1314   28.4484 H   0  0  0  0  0  0
  -37.6646   70.4445   26.5206 H   0  0  0  0  0  0
  -36.8362   73.7591   29.1030 H   0  0  0  0  0  0
  -37.6128   72.4580   31.0462 H   0  0  0  0  0  0
  -42.7436   65.7825   34.7966 H   0  0  0  0  0  0
  -41.9687   64.2997   34.3724 H   0  0  0  0  0  0
  -40.5776   67.0752   36.6504 H   0  0  0  0  0  0
  -40.4946   64.5604   39.9274 H   0  0  0  0  0  0
  -42.0645   63.0373   36.4062 H   0  0  0  0  0  0
  1  2  1  0  0  0
  1 36  1  0  0  0
  1 37  1  0  0  0
  1 38  1  0  0  0
  2  3  1  0  0  0
  2 39  1  0  0  0
  2 40  1  0  0  0
  3  4  1  0  0  0
  3 41  1  0  0  0
  3 42  1  0  0  0
  4  5  1  0  0  0
  4 43  1  0  0  0
  4 44  1  0  0  0
  5  6  1  0  0  0
  5 45  1  0  0  0
  5 46  1  0  0  0
  6  7  1  0  0  0
  6 47  1  0  0  0
  6 48  1  0  0  0
  7  8  1  0  0  0
  7 49  1  0  0  0
  7 50  1  0  0  0
  8  9  1  0  0  0
  8 51  1  0  0  0
  8 52  1  0  0  0
  9 10  1  0  0  0
  9 53  1  0  0  0
 10 11  2  0  0  0
 10 12  1  0  0  0
 12 13  1  0  0  0
 12 54  1  0  0  0
 12 55  1  0  0  0
 13 19  1  0  0  0
 13 14  1  0  0  0
 14 15  2  0  0  0
 14 56  1  0  0  0
 15 16  1  0  0  0
 15 29  1  0  0  0
 16 17  2  0  0  0
 16 18  1  0  0  0
 18 19  2  0  0  0
 19 20  1  0  0  0
 20 21  1  0  0  0
 21 22  1  0  0  0
 21 57  1  0  0  0
 21 58  1  0  0  0
 22 27  1  0  0  0
 22 23  2  0  0  0
 23 24  1  0  0  0
 23 59  1  0  0  0
 24 25  2  0  0  0
 24 60  1  0  0  0
 25 26  1  0  0  0
 25 28  1  0  0  0
 26 27  2  0  0  0
 26 61  1  0  0  0
 27 62  1  0  0  0
 29 30  1  0  0  0
 29 63  1  0  0  0
 29 64  1  0  0  0
 30 35  1  0  0  0
 30 31  2  0  0  0
 31 32  1  0  0  0
 31 65  1  0  0  0
 32 33  2  0  0  0
 33 34  1  0  0  0
 33 66  1  0  0  0
 34 35  2  0  0  0
 35 67  1  0  0  0
M  END
> <s_m_entry_id>
68498

> <s_m_entry_name>
ligand_docking-pose.89

> <s_m_Source_Path>
/home/csk/Desktop/cluster/DUD-E-result/pa2ga

> <s_m_Source_File>
ligand_docking-pose.sdf

> <i_m_Source_File_Index>
89

> <i_lp_mmshare_version>
53161

> <r_lp_tautomer_probability>
1

> <s_lp_Force_Field>
OPLS_2005

> <r_lp_Energy>
19.971813

> <b_lp_Chiralities_Consistent>
1

> <s_lp_Variant>
137539-1

> <s_i_glide_gridfile>
glide-grid_1kvo

> <i_i_glide_lignum>
176

> <i_i_glide_rotatable_bonds>
15

> <r_i_docking_score>
-7.32719463457212

> <r_i_glide_ligand_efficiency>
-0.209348418130632

> <r_i_glide_ligand_efficiency_sa>
-0.684792556826826

> <r_i_glide_ligand_efficiency_ln>
-1.60848184061185

> <r_i_glide_gscore>
-7.32719463457212

> <r_i_glide_lipo>
-3.58222312388742

> <r_i_glide_hbond>
-0.56192442584157

> <r_i_glide_metal>
0

> <r_i_glide_rewards>
-0.353793651074357

> <r_i_glide_evdw>
-56.0450553894043

> <r_i_glide_ecoul>
-6.684889793396

> <r_i_glide_erotb>
1.15333853349492

> <r_i_glide_esite>
-0.177605728784078

> <r_i_glide_emodel>
-90.002175694218

> <r_i_glide_energy>
-62.7299451828003

> <r_i_glide_einternal>
7.59581422805786

> <i_i_glide_confnum>
12

> <i_i_glide_posenum>
196

> <r_i_glide_eff_state_penalty>
0

> <i_f3d_flags>
0

> <s_user_duplicate_titles>
137539

> <s_m_subgroup_title>
dock_pv

> <s_m_subgroupid>
dock_pv1

> <b_m_subgroup_collapsed>
0

$$$$
247489
                    3D
 Schrodinger Suite 2021-1.
 56 59  0  0  1  0            999 V2000
  -37.6170   68.0334   29.9763 C   0  0  0  0  0  0
  -38.5102   67.5207   31.0955 C   0  0  0  0  0  0
  -38.7486   66.2037   31.4730 C   0  0  0  0  0  0
  -39.6176   66.2443   32.6091 C   0  0  0  0  0  0
  -40.1511   65.2513   33.4458 C   0  0  0  0  0  0
  -40.9808   65.6153   34.5110 C   0  0  0  0  0  0
  -41.3113   66.9556   34.6972 C   0  0  0  0  0  0
  -40.8100   67.9771   33.8893 C   0  0  0  0  0  0
  -39.9457   67.6074   32.8466 C   0  0  0  0  0  0
  -39.2651   68.3700   31.9031 N   0  0  0  0  0  0
  -39.2571   69.8493   31.9206 C   0  0  0  0  0  0
  -38.9722   70.5979   30.6226 C   0  0  0  0  0  0
  -37.9614   71.5641   30.6057 C   0  0  0  0  0  0
  -37.6135   72.1872   29.4121 C   0  0  0  0  0  0
  -38.2790   71.8393   28.2415 C   0  0  0  0  0  0
  -39.3060   70.8989   28.2511 C   0  0  0  0  0  0
  -39.6706   70.2981   29.4487 C   0  0  0  0  0  0
  -41.5092   64.7079   35.4075 O   0  0  0  0  0  0
  -40.7664   63.5250   35.7327 C   0  0  0  0  0  0
  -41.3273   62.2783   35.0265 C   0  0  0  0  0  0
  -42.7159   62.1052   35.1286 C   0  0  0  0  0  0
  -43.3558   60.9916   34.5950 C   0  0  0  0  0  0
  -42.6108   60.0167   33.9491 C   0  0  0  0  0  0
  -41.2308   60.1598   33.8430 C   0  0  0  0  0  0
  -40.5531   61.2776   34.3702 C   0  0  0  0  0  0
  -39.0447   61.3499   34.1807 C   0  0  0  0  0  0
  -38.3839   62.3753   34.2989 O   0  0  0  0  0  0
  -38.4481   60.1718   33.8420 O   0  0  0  0  0  0
  -38.2359   64.9328   30.8158 C   0  0  0  0  0  0
  -37.1813   64.1368   31.5892 C   0  0  0  0  0  0
  -36.6807   64.5487   32.6333 O   0  0  0  0  0  0
  -36.8105   62.9824   31.0444 N   0  0  0  0  0  0
  -36.9408   67.2974   29.5751 H   0  0  0  0  0  0
  -38.1878   68.3191   29.0959 H   0  0  0  0  0  0
  -36.9908   68.8732   30.2757 H   0  0  0  0  0  0
  -39.9138   64.2142   33.2687 H   0  0  0  0  0  0
  -41.9655   67.2136   35.5176 H   0  0  0  0  0  0
  -41.0707   69.0056   34.0867 H   0  0  0  0  0  0
  -38.5066   70.1398   32.6515 H   0  0  0  0  0  0
  -40.2139   70.2025   32.3026 H   0  0  0  0  0  0
  -37.4188   71.8160   31.5046 H   0  0  0  0  0  0
  -36.8261   72.9255   29.3927 H   0  0  0  0  0  0
  -38.0148   72.3217   27.3119 H   0  0  0  0  0  0
  -39.8222   70.6583   27.3355 H   0  0  0  0  0  0
  -40.4418   69.5436   29.4432 H   0  0  0  0  0  0
  -39.6978   63.6970   35.6510 H   0  0  0  0  0  0
  -40.9120   63.3603   36.8003 H   0  0  0  0  0  0
  -43.3128   62.8466   35.6380 H   0  0  0  0  0  0
  -44.4279   60.8846   34.6799 H   0  0  0  0  0  0
  -43.1021   59.1523   33.5253 H   0  0  0  0  0  0
  -40.6951   59.3781   33.3239 H   0  0  0  0  0  0
  -37.5055   60.3140   33.7484 H   0  0  0  0  0  0
  -39.0786   64.2630   30.6410 H   0  0  0  0  0  0
  -37.8073   65.1621   29.8418 H   0  0  0  0  0  0
  -36.1098   62.4088   31.4879 H   0  0  0  0  0  0
  -37.1755   62.7479   30.1265 H   0  0  0  0  0  0
  1  2  1  0  0  0
  1 33  1  0  0  0
  1 34  1  0  0  0
  1 35  1  0  0  0
  2 10  1  0  0  0
  2  3  2  0  0  0
  3  4  1  0  0  0
  3 29  1  0  0  0
  4  9  2  0  0  0
  4  5  1  0  0  0
  5  6  2  0  0  0
  5 36  1  0  0  0
  6  7  1  0  0  0
  6 18  1  0  0  0
  7  8  2  0  0  0
  7 37  1  0  0  0
  8  9  1  0  0  0
  8 38  1  0  0  0
  9 10  1  0  0  0
 10 11  1  0  0  0
 11 12  1  0  0  0
 11 39  1  0  0  0
 11 40  1  0  0  0
 12 17  1  0  0  0
 12 13  2  0  0  0
 13 14  1  0  0  0
 13 41  1  0  0  0
 14 15  2  0  0  0
 14 42  1  0  0  0
 15 16  1  0  0  0
 15 43  1  0  0  0
 16 17  2  0  0  0
 16 44  1  0  0  0
 17 45  1  0  0  0
 18 19  1  0  0  0
 19 20  1  0  0  0
 19 46  1  0  0  0
 19 47  1  0  0  0
 20 25  1  0  0  0
 20 21  2  0  0  0
 21 22  1  0  0  0
 21 48  1  0  0  0
 22 23  2  0  0  0
 22 49  1  0  0  0
 23 24  1  0  0  0
 23 50  1  0  0  0
 24 25  2  0  0  0
 24 51  1  0  0  0
 25 26  1  0  0  0
 26 27  2  0  0  0
 26 28  1  0  0  0
 28 52  1  0  0  0
 29 30  1  0  0  0
 29 53  1  0  0  0
 29 54  1  0  0  0
 30 31  2  0  0  0
 30 32  1  0  0  0
 32 55  1  0  0  0
 32 56  1  0  0  0
M  END
> <s_m_entry_id>
68512

> <s_m_entry_name>
ligand_docking-pose.103

> <s_m_Source_Path>
/home/csk/Desktop/cluster/DUD-E-result/pa2ga

> <s_m_Source_File>
ligand_docking-pose.sdf

> <i_m_Source_File_Index>
103

> <i_lp_mmshare_version>
53161

> <r_lp_tautomer_probability>
1

> <s_lp_Force_Field>
OPLS_2005

> <r_lp_Energy>
22.971981

> <b_lp_Chiralities_Consistent>
1

> <s_lp_Variant>
247489-1

> <s_i_glide_gridfile>
glide-grid_1kvo

> <i_i_glide_lignum>
41

> <i_i_glide_rotatable_bonds>
9

> <r_i_docking_score>
-7.12111012158569

> <r_i_glide_ligand_efficiency>
-0.222534691299553

> <r_i_glide_ligand_efficiency_sa>
-0.706503605320472

> <r_i_glide_ligand_efficiency_ln>
-1.59461067035362

> <r_i_glide_gscore>
-7.12111012158569

> <r_i_glide_lipo>
-2.62704632423391

> <r_i_glide_hbond>
-0.608

> <r_i_glide_metal>
0

> <r_i_glide_rewards>
-1.1218086971517

> <r_i_glide_evdw>
-47.1203842163086

> <r_i_glide_ecoul>
-7.14738750457764

> <r_i_glide_erotb>
0.757365387012312

> <r_i_glide_esite>
-0.0934931507103153

> <r_i_glide_emodel>
-75.2209752664629

> <r_i_glide_energy>
-54.2677717208862

> <r_i_glide_einternal>
9.68738842010498

> <i_i_glide_confnum>
129

> <i_i_glide_posenum>
244

> <r_i_glide_eff_state_penalty>
0

> <i_f3d_flags>
0

> <s_user_duplicate_titles>
247489

> <s_m_subgroup_title>
dock_pv

> <s_m_subgroupid>
dock_pv1

> <b_m_subgroup_collapsed>
0

$$$$
201210
                    3D
 Schrodinger Suite 2021-1.
 39 41  0  0  1  0            999 V2000
  -41.1074   66.2138   30.7209 C   0  0  0  0  0  0
  -40.6773   66.3415   32.1853 C   0  0  0  0  0  0
  -39.3033   67.0202   32.3870 C   0  0  0  0  0  0
  -38.1090   66.3562   31.6572 C   0  0  0  0  0  0
  -37.8571   64.8976   32.0149 C   0  0  0  0  0  0
  -37.0175   64.0978   31.2906 N   0  0  0  0  0  0
  -37.1362   62.8388   31.8099 C   0  0  0  0  0  0
  -38.0520   62.9644   32.8529 C   0  0  0  0  0  0
  -38.4180   64.2301   32.9987 N   0  0  0  0  0  0
  -38.5799   61.9013   33.6941 C   0  0  0  0  0  0
  -38.4102   61.8574   34.9389 N   0  0  0  0  0  0
  -38.9935   60.6756   35.4433 O   0  0  0  0  0  0
  -39.8338   60.0813   34.4688 C   0  0  2  0  0  0
  -39.3877   60.7609   33.1802 C   0  0  0  0  0  0
  -41.3226   60.2537   34.7745 C   0  0  0  0  0  0
  -41.7453   60.8713   35.9578 C   0  0  0  0  0  0
  -43.1007   61.0753   36.1922 C   0  0  0  0  0  0
  -44.0305   60.6706   35.2382 C   0  0  0  0  0  0
  -43.6150   60.0496   34.0634 C   0  0  0  0  0  0
  -42.2651   59.8248   33.8389 C   0  0  0  0  0  0
  -36.3086   61.4968   31.1234 Cl  0  0  0  0  0  0
  -36.4836   64.3675   30.4714 H   0  0  0  0  0  0
  -42.0680   65.7048   30.6502 H   0  0  0  0  0  0
  -40.3971   65.6215   30.1422 H   0  0  0  0  0  0
  -41.2041   67.1909   30.2451 H   0  0  0  0  0  0
  -41.4345   66.8983   32.7341 H   0  0  0  0  0  0
  -40.6882   65.3529   32.6420 H   0  0  0  0  0  0
  -39.3767   68.0588   32.0608 H   0  0  0  0  0  0
  -39.0873   67.0644   33.4545 H   0  0  0  0  0  0
  -38.2695   66.4400   30.5809 H   0  0  0  0  0  0
  -37.2154   66.9485   31.8424 H   0  0  0  0  0  0
  -39.6212   59.0108   34.4295 H   0  0  0  0  0  0
  -40.2464   61.1509   32.6430 H   0  0  0  0  0  0
  -38.8019   60.1034   32.5375 H   0  0  0  0  0  0
  -41.0285   61.2040   36.6950 H   0  0  0  0  0  0
  -43.4280   61.5551   37.1038 H   0  0  0  0  0  0
  -45.0838   60.8357   35.4094 H   0  0  0  0  0  0
  -44.3451   59.7326   33.3312 H   0  0  0  0  0  0
  -41.9548   59.3438   32.9218 H   0  0  0  0  0  0
  1  2  1  0  0  0
  1 23  1  0  0  0
  1 24  1  0  0  0
  1 25  1  0  0  0
  2  3  1  0  0  0
  2 26  1  0  0  0
  2 27  1  0  0  0
  3  4  1  0  0  0
  3 28  1  0  0  0
  3 29  1  0  0  0
  4  5  1  0  0  0
  4 30  1  0  0  0
  4 31  1  0  0  0
  5  9  2  0  0  0
  5  6  1  0  0  0
  6 22  1  0  0  0
  6  7  1  0  0  0
  7  8  2  0  0  0
  7 21  1  0  0  0
  8  9  1  0  0  0
  8 10  1  0  0  0
 10 14  1  0  0  0
 10 11  2  0  0  0
 11 12  1  0  0  0
 12 13  1  0  0  0
 13 14  1  0  0  0
 13 15  1  0  0  0
 13 32  1  0  0  0
 14 33  1  0  0  0
 14 34  1  0  0  0
 15 20  1  0  0  0
 15 16  2  0  0  0
 16 17  1  0  0  0
 16 35  1  0  0  0
 17 18  2  0  0  0
 17 36  1  0  0  0
 18 19  1  0  0  0
 18 37  1  0  0  0
 19 20  2  0  0  0
 19 38  1  0  0  0
 20 39  1  0  0  0
M  END
> <s_m_entry_id>
68516

> <s_m_entry_name>
ligand_docking-pose.107

> <s_m_Source_Path>
/home/csk/Desktop/cluster/DUD-E-result/pa2ga

> <s_m_Source_File>
ligand_docking-pose.sdf

> <i_m_Source_File_Index>
107

> <i_lp_mmshare_version>
53161

> <r_lp_tautomer_probability>
1

> <s_lp_Force_Field>
OPLS_2005

> <r_lp_Energy>
19.762654

> <b_lp_Chiralities_Consistent>
1

> <s_lp_Variant>
201210-2

> <s_i_glide_gridfile>
glide-grid_1kvo

> <i_i_glide_lignum>
134

> <i_i_glide_rotatable_bonds>
5

> <r_i_docking_score>
-7.00927376038228

> <r_i_glide_ligand_efficiency>
-0.333774940970585

> <r_i_glide_ligand_efficiency_sa>
-0.920859753179401

> <r_i_glide_ligand_efficiency_ln>
-1.73302877368327

> <r_i_glide_gscore>
-7.00927376038228

> <r_i_glide_lipo>
-3.31881899130219

> <r_i_glide_hbond>
-0.0625927031706331

> <r_i_glide_metal>
0

> <r_i_glide_rewards>
-1.803798156388

> <r_i_glide_evdw>
-40.0915603637695

> <r_i_glide_ecoul>
-3.04514622688293

> <r_i_glide_erotb>
0.798925460131511

> <r_i_glide_esite>
-0.161639417432041

> <r_i_glide_emodel>
-59.0930778869305

> <r_i_glide_energy>
-43.1367065906525

> <r_i_glide_einternal>
3.27456784248352

> <i_i_glide_confnum>
17

> <i_i_glide_posenum>
249

> <r_i_glide_eff_state_penalty>
0

> <i_f3d_flags>
0

> <s_user_duplicate_titles>
201210

> <s_m_subgroup_title>
dock_pv

> <s_m_subgroupid>
dock_pv1

> <b_m_subgroup_collapsed>
0

$$$$
138265
                    3D
 Schrodinger Suite 2021-1.
 74 76  0  0  1  0            999 V2000
  -48.4942   59.5422   35.8495 C   0  0  0  0  0  0
  -48.6475   60.0206   37.3014 C   0  0  0  0  0  0
  -47.3832   60.6956   37.8578 C   0  0  0  0  0  0
  -47.0790   62.0655   37.2157 C   0  0  0  0  0  0
  -45.7180   62.6641   37.6228 C   0  0  0  0  0  0
  -44.4894   61.8042   37.2656 C   0  0  0  0  0  0
  -44.3614   61.4597   35.7711 C   0  0  0  0  0  0
  -43.1012   60.6371   35.4630 C   0  0  0  0  0  0
  -42.9183   60.3627   33.9592 C   0  0  0  0  0  0
  -41.5081   59.8672   33.5689 C   0  0  0  0  0  0
  -40.4756   60.9846   33.2915 C   0  0  0  0  0  0
  -40.0057   61.7799   34.5121 C   0  0  0  0  0  0
  -39.4810   61.1694   35.4428 O   0  0  0  0  0  0
  -40.3985   63.1918   34.6202 C   0  0  0  0  0  0
  -40.8493   63.8007   35.8430 C   0  0  0  0  0  0
  -41.0261   63.3469   37.1635 C   0  0  0  0  0  0
  -41.4802   64.2266   38.1423 C   0  0  0  0  0  0
  -41.7913   65.5432   37.8269 C   0  0  0  0  0  0
  -41.6771   66.0280   36.5262 C   0  0  0  0  0  0
  -41.2062   65.1435   35.5417 C   0  0  0  0  0  0
  -41.0208   65.3256   34.1806 N   0  0  0  0  0  0
  -40.4409   64.1879   33.6252 C   0  0  0  0  0  0
  -40.0368   64.0999   32.2318 C   0  0  0  0  0  0
  -40.7179   64.4991   31.2902 O   0  0  0  0  0  0
  -38.8095   63.5258   32.0808 O   0  0  0  0  0  0
  -41.3821   66.5737   33.5012 C   0  0  0  0  0  0
  -40.3133   67.6714   33.6499 C   0  0  0  0  0  0
  -39.2565   67.4423   32.7102 O   0  0  0  0  0  0
  -38.9667   68.4028   31.7555 C   0  0  0  0  0  0
  -39.2291   69.7717   31.9259 C   0  0  0  0  0  0
  -39.0554   70.6691   30.8754 C   0  0  0  0  0  0
  -38.5957   70.2275   29.6295 C   0  0  0  0  0  0
  -38.2383   68.8795   29.4871 C   0  0  0  0  0  0
  -38.4258   67.9759   30.5355 C   0  0  0  0  0  0
  -38.0260   66.3149   30.2803 Cl  0  0  0  0  0  0
  -38.5182   71.1657   28.4477 C   0  0  0  0  0  0
  -38.0130   70.8347   27.3760 O   0  0  0  0  0  0
  -39.1298   72.3712   28.6430 O   0  0  0  0  0  0
  -49.3671   58.9714   35.5351 H   0  0  0  0  0  0
  -47.6224   58.8983   35.7399 H   0  0  0  0  0  0
  -48.3826   60.3750   35.1569 H   0  0  0  0  0  0
  -49.4883   60.7062   37.3814 H   0  0  0  0  0  0
  -48.8942   59.1636   37.9275 H   0  0  0  0  0  0
  -47.4906   60.8257   38.9350 H   0  0  0  0  0  0
  -46.5477   60.0091   37.7217 H   0  0  0  0  0  0
  -47.1227   61.9972   36.1301 H   0  0  0  0  0  0
  -47.8686   62.7679   37.4875 H   0  0  0  0  0  0
  -45.6115   63.6452   37.1557 H   0  0  0  0  0  0
  -45.7152   62.8511   38.6979 H   0  0  0  0  0  0
  -43.5968   62.3411   37.5884 H   0  0  0  0  0  0
  -44.4935   60.8869   37.8518 H   0  0  0  0  0  0
  -45.2353   60.8998   35.4334 H   0  0  0  0  0  0
  -44.3447   62.3854   35.1954 H   0  0  0  0  0  0
  -42.2431   61.1651   35.8640 H   0  0  0  0  0  0
  -43.1341   59.6909   36.0025 H   0  0  0  0  0  0
  -43.6555   59.6147   33.6552 H   0  0  0  0  0  0
  -43.1582   61.2539   33.3767 H   0  0  0  0  0  0
  -41.1305   59.1614   34.3119 H   0  0  0  0  0  0
  -41.6017   59.2985   32.6451 H   0  0  0  0  0  0
  -39.5926   60.5552   32.8198 H   0  0  0  0  0  0
  -40.9147   61.6716   32.5746 H   0  0  0  0  0  0
  -40.8153   62.3196   37.4247 H   0  0  0  0  0  0
  -41.6017   63.8790   39.1594 H   0  0  0  0  0  0
  -42.1466   66.1999   38.6082 H   0  0  0  0  0  0
  -41.9406   67.0514   36.3023 H   0  0  0  0  0  0
  -38.5591   63.5274   31.1508 H   0  0  0  0  0  0
  -41.6148   66.4028   32.4534 H   0  0  0  0  0  0
  -42.3237   66.8975   33.9419 H   0  0  0  0  0  0
  -40.8310   68.6182   33.5121 H   0  0  0  0  0  0
  -39.9027   67.6943   34.6597 H   0  0  0  0  0  0
  -39.5959   70.1637   32.8616 H   0  0  0  0  0  0
  -39.3069   71.7089   31.0373 H   0  0  0  0  0  0
  -37.8569   68.5114   28.5452 H   0  0  0  0  0  0
  -39.2755   72.8238   27.7909 H   0  0  0  0  0  0
  1  2  1  0  0  0
  1 39  1  0  0  0
  1 40  1  0  0  0
  1 41  1  0  0  0
  2  3  1  0  0  0
  2 42  1  0  0  0
  2 43  1  0  0  0
  3  4  1  0  0  0
  3 44  1  0  0  0
  3 45  1  0  0  0
  4  5  1  0  0  0
  4 46  1  0  0  0
  4 47  1  0  0  0
  5  6  1  0  0  0
  5 48  1  0  0  0
  5 49  1  0  0  0
  6  7  1  0  0  0
  6 50  1  0  0  0
  6 51  1  0  0  0
  7  8  1  0  0  0
  7 52  1  0  0  0
  7 53  1  0  0  0
  8  9  1  0  0  0
  8 54  1  0  0  0
  8 55  1  0  0  0
  9 10  1  0  0  0
  9 56  1  0  0  0
  9 57  1  0  0  0
 10 11  1  0  0  0
 10 58  1  0  0  0
 10 59  1  0  0  0
 11 12  1  0  0  0
 11 60  1  0  0  0
 11 61  1  0  0  0
 12 13  2  0  0  0
 12 14  1  0  0  0
 14 22  2  0  0  0
 14 15  1  0  0  0
 15 20  2  0  0  0
 15 16  1  0  0  0
 16 17  2  0  0  0
 16 62  1  0  0  0
 17 18  1  0  0  0
 17 63  1  0  0  0
 18 19  2  0  0  0
 18 64  1  0  0  0
 19 20  1  0  0  0
 19 65  1  0  0  0
 20 21  1  0  0  0
 21 22  1  0  0  0
 21 26  1  0  0  0
 22 23  1  0  0  0
 23 24  2  0  0  0
 23 25  1  0  0  0
 25 66  1  0  0  0
 26 27  1  0  0  0
 26 67  1  0  0  0
 26 68  1  0  0  0
 27 28  1  0  0  0
 27 69  1  0  0  0
 27 70  1  0  0  0
 28 29  1  0  0  0
 29 34  1  0  0  0
 29 30  2  0  0  0
 30 31  1  0  0  0
 30 71  1  0  0  0
 31 32  2  0  0  0
 31 72  1  0  0  0
 32 33  1  0  0  0
 32 36  1  0  0  0
 33 34  2  0  0  0
 33 73  1  0  0  0
 34 35  1  0  0  0
 36 37  2  0  0  0
 36 38  1  0  0  0
 38 74  1  0  0  0
M  END
> <s_m_entry_id>
68526

> <s_m_entry_name>
ligand_docking-pose.117

> <s_m_Source_Path>
/home/csk/Desktop/cluster/DUD-E-result/pa2ga

> <s_m_Source_File>
ligand_docking-pose.sdf

> <i_m_Source_File_Index>
117

> <i_lp_mmshare_version>
53161

> <r_lp_tautomer_probability>
0.99990000499975

> <s_lp_Force_Field>
OPLS_2005

> <r_lp_Energy>
32.362797

> <b_lp_Chiralities_Consistent>
1

> <s_lp_Variant>
138265-1

> <s_i_glide_gridfile>
glide-grid_1kvo

> <i_i_glide_lignum>
162

> <i_i_glide_rotatable_bonds>
19

> <r_i_docking_score>
-6.83310085225708

> <r_i_glide_ligand_efficiency>
-0.17981844348045

> <r_i_glide_ligand_efficiency_sa>
-0.604545183937112

> <r_i_glide_ligand_efficiency_ln>
-1.47341755320838

> <r_i_glide_gscore>
-6.83310085225708

> <r_i_glide_lipo>
-3.49415933819744

> <r_i_glide_hbond>
0

> <r_i_glide_metal>
0

> <r_i_glide_rewards>
-0.890549366438627

> <r_i_glide_evdw>
-52.5600776672363

> <r_i_glide_ecoul>
-5.98504257202148

> <r_i_glide_erotb>
1.12631324419438

> <r_i_glide_esite>
-0.0489451226503591

> <r_i_glide_emodel>
-76.3286544539452

> <r_i_glide_energy>
-58.5451202392578

> <r_i_glide_einternal>
14.2087202072144

> <i_i_glide_confnum>
24

> <i_i_glide_posenum>
44

> <r_i_glide_eff_state_penalty>
0

> <i_f3d_flags>
0

> <s_user_duplicate_titles>
138265

> <s_m_subgroup_title>
dock_pv

> <s_m_subgroupid>
dock_pv1

> <b_m_subgroup_collapsed>
0

$$$$
