CHEMBL5491_lig201
                    3D
 Schrodinger Suite 2021-1.
 52 57  0  0  1  0            999 V2000
    6.6034   55.0654   21.8645 C   0  0  0  0  0  0
    5.6787   54.7830   20.8657 C   0  0  0  0  0  0
    4.4190   54.2629   21.1619 C   0  0  0  0  0  0
    6.3160   54.8065   23.2007 C   0  0  0  0  0  0
    5.0263   54.3658   23.5489 C   0  0  0  0  0  0
    4.0872   54.0939   22.5147 C   0  0  0  0  0  0
    2.9065   53.6838   23.1190 N   0  0  0  0  0  0
    4.3787   54.1557   24.7842 C   0  0  0  0  0  0
    3.0479   53.7449   24.5000 C   0  0  0  0  0  0
    2.1258   53.4633   25.5232 C   0  0  0  0  0  0
    2.5403   53.5893   26.8564 C   0  0  0  0  0  0
    4.7624   54.2631   26.1342 C   0  0  0  0  0  0
    3.8651   53.9591   27.1287 C   0  0  0  0  0  0
    4.5997   54.0752   28.4224 C   0  0  0  0  0  0
    5.8296   54.5100   28.1021 N   0  0  0  0  0  0
    6.0366   54.6627   26.7859 C   0  0  0  0  0  0
    4.1983   53.8405   29.5587 O   0  0  0  0  0  0
    7.0739   55.0633   26.2748 O   0  0  0  0  0  0
    1.5750   53.2858   27.9488 C   0  0  0  0  0  0
    1.2512   54.2095   28.9665 C   0  0  0  0  0  0
    0.4660   53.8118   30.0464 C   0  0  0  0  0  0
   -0.0792   52.5303   30.0829 C   0  0  0  0  0  0
    0.1479   51.6494   29.0307 C   0  0  0  0  0  0
    0.9878   52.0151   27.9865 C   0  0  0  0  0  0
    7.8252   55.5798   21.5307 O   0  0  0  0  0  0
    1.6790   53.2908   22.4305 C   0  0  0  0  0  0
    1.3119   51.8141   22.7041 C   0  0  0  0  0  0
    1.7861   55.8577   28.9329 Cl  0  0  0  0  0  0
   -0.5593   51.6179   22.8509 S   0  0  0  0  0  0
   -0.6870   50.0518   23.7430 C   0  0  0  0  0  0
   -0.5926   50.0162   25.0564 N   0  0  0  0  0  0
   -0.7323   48.7128   25.2869 N   0  0  0  0  0  0
   -0.8992   48.0532   24.1024 C   0  0  0  0  0  0
   -0.8618   48.9014   23.1077 N   0  0  0  0  0  0
   -1.1252   51.4110   21.5121 O   0  0  0  0  0  0
   -1.0857   52.6629   23.7352 O   0  0  0  0  0  0
    5.9433   54.9663   19.8325 H   0  0  0  0  0  0
    3.7168   54.0606   20.3677 H   0  0  0  0  0  0
    7.0641   55.0240   23.9415 H   0  0  0  0  0  0
    1.1161   53.1542   25.2970 H   0  0  0  0  0  0
    6.5330   54.7356   28.7910 H   0  0  0  0  0  0
    0.2621   54.5050   30.8505 H   0  0  0  0  0  0
   -0.7028   52.2285   30.9133 H   0  0  0  0  0  0
   -0.3005   50.6654   29.0415 H   0  0  0  0  0  0
    1.2002   51.2923   27.2120 H   0  0  0  0  0  0
    8.4508   55.5364   22.2657 H   0  0  0  0  0  0
    1.7710   53.4593   21.3599 H   0  0  0  0  0  0
    0.9055   53.9718   22.7849 H   0  0  0  0  0  0
    1.7246   51.4420   23.6405 H   0  0  0  0  0  0
    1.6641   51.1448   21.9210 H   0  0  0  0  0  0
   -1.0459   46.9842   24.0674 H   0  0  0  0  0  0
   -0.7370   48.3102   26.2260 H   0  0  0  0  0  0
  1  2  2  0  0  0
  1  4  1  0  0  0
  1 25  1  0  0  0
  2  3  1  0  0  0
  2 37  1  0  0  0
  3  6  2  0  0  0
  3 38  1  0  0  0
  4  5  2  0  0  0
  4 39  1  0  0  0
  5  6  1  0  0  0
  5  8  1  0  0  0
  6  7  1  0  0  0
  7 26  1  0  0  0
  7  9  1  0  0  0
  8  9  2  0  0  0
  8 12  1  0  0  0
  9 10  1  0  0  0
 10 11  2  0  0  0
 10 40  1  0  0  0
 11 19  1  0  0  0
 11 13  1  0  0  0
 12 13  2  0  0  0
 12 16  1  0  0  0
 13 14  1  0  0  0
 14 17  2  0  0  0
 14 15  1  0  0  0
 15 16  1  0  0  0
 15 41  1  0  0  0
 16 18  2  0  0  0
 19 20  2  0  0  0
 19 24  1  0  0  0
 20 21  1  0  0  0
 20 28  1  0  0  0
 21 22  2  0  0  0
 21 42  1  0  0  0
 22 23  1  0  0  0
 22 43  1  0  0  0
 23 24  2  0  0  0
 23 44  1  0  0  0
 24 45  1  0  0  0
 25 46  1  0  0  0
 26 27  1  0  0  0
 26 47  1  0  0  0
 26 48  1  0  0  0
 27 29  1  0  0  0
 27 49  1  0  0  0
 27 50  1  0  0  0
 29 35  2  0  0  0
 29 36  2  0  0  0
 29 30  1  0  0  0
 30 31  2  0  0  0
 30 34  1  0  0  0
 31 32  1  0  0  0
 32 33  1  0  0  0
 32 52  1  0  0  0
 33 34  2  0  0  0
 33 51  1  0  0  0
M  END
> <s_m_entry_id>
46261

> <s_m_entry_name>
dock_pv.2

> <s_m_Source_Path>
/home/csk/Desktop/cluster/DUD-E-result/wee1

> <s_m_Source_File>
dock_pv.maegz

> <i_m_Source_File_Index>
2

> <chembl_id>
CHEMBL472209

> <chembl_pref_name>
None

> <i_lp_mmshare_version>
53161

> <r_lp_tautomer_probability>
0.948284485345604

> <s_lp_Force_Field>
OPLS_2005

> <r_lp_Energy>
74.122839

> <b_lp_Chiralities_Consistent>
1

> <s_lp_Variant>
CHEMBL5491_lig201-1

> <s_i_glide_gridfile>
glide-grid_3biz

> <i_i_glide_lignum>
207

> <i_i_glide_rotatable_bonds>
6

> <r_i_docking_score>
-11.983584973409

> <r_i_glide_ligand_efficiency>
-0.332877360372472

> <r_i_glide_ligand_efficiency_sa>
-1.09913682544105

> <r_i_glide_ligand_efficiency_ln>
-2.61449448214683

> <r_i_glide_gscore>
-11.983584973409

> <r_i_glide_lipo>
-3.65475534612276

> <r_i_glide_hbond>
-1.06335606483778

> <r_i_glide_metal>
0

> <r_i_glide_rewards>
-1.97475310159705

> <r_i_glide_evdw>
-53.4584541320801

> <r_i_glide_ecoul>
-17.5390968322754

> <r_i_glide_erotb>
0.211332210928791

> <r_i_glide_esite>
-0.198265440334869

> <r_i_glide_emodel>
-120.957469355338

> <r_i_glide_energy>
-70.9975509643555

> <r_i_glide_einternal>
3.76061320304871

> <i_i_glide_confnum>
3

> <i_i_glide_posenum>
250

> <r_i_glide_eff_state_penalty>
0

> <s_user_duplicate_titles>
CHEMBL5491_lig201,CHEMBL5491_lig201,451645

> <i_f3d_flags>
0

> <s_m_subgroup_title>
dock_pv

> <s_m_subgroupid>
dock_pv

> <b_m_subgroup_collapsed>
1

$$$$
CHEMBL5491_lig202
                    3D
 Schrodinger Suite 2021-1.
 51 56  0  0  1  0            999 V2000
    6.6104   55.0630   21.8596 C   0  0  0  0  0  0
    5.6721   54.7821   20.8765 C   0  0  0  0  0  0
    4.4176   54.2608   21.1868 C   0  0  0  0  0  0
    6.3380   54.8099   23.1968 C   0  0  0  0  0  0
    5.0545   54.3622   23.5626 C   0  0  0  0  0  0
    4.1010   54.0900   22.5432 C   0  0  0  0  0  0
    2.9278   53.6815   23.1713 N   0  0  0  0  0  0
    4.4249   54.1522   24.8061 C   0  0  0  0  0  0
    3.0892   53.7422   24.5503 C   0  0  0  0  0  0
    2.1835   53.4644   25.5917 C   0  0  0  0  0  0
    2.6161   53.6337   26.9147 C   0  0  0  0  0  0
    4.8354   54.2627   26.1453 C   0  0  0  0  0  0
    3.9494   53.9903   27.1569 C   0  0  0  0  0  0
    4.7007   54.1431   28.4364 C   0  0  0  0  0  0
    5.9349   54.5397   28.0880 N   0  0  0  0  0  0
    6.1206   54.6634   26.7692 C   0  0  0  0  0  0
    4.3086   53.9680   29.5867 O   0  0  0  0  0  0
    7.1495   55.0631   26.2429 O   0  0  0  0  0  0
    1.6640   53.3931   28.0331 C   0  0  0  0  0  0
    1.3583   54.3668   29.0090 C   0  0  0  0  0  0
    0.5987   54.0227   30.1266 C   0  0  0  0  0  0
    0.0775   52.7394   30.2517 C   0  0  0  0  0  0
    0.2726   51.8141   29.2333 C   0  0  0  0  0  0
    1.0776   52.1274   28.1450 C   0  0  0  0  0  0
    7.8334   55.5686   21.5136 O   0  0  0  0  0  0
    1.6799   53.3129   22.5010 C   0  0  0  0  0  0
    1.2785   51.8496   22.7766 C   0  0  0  0  0  0
    1.8928   56.0117   28.8866 Cl  0  0  0  0  0  0
   -0.5683   51.6950   22.6682 S   0  0  1  0  0  0
   -0.6717   50.0112   23.3837 C   0  0  0  0  0  0
   -0.6206   48.8629   22.7543 N   0  0  0  0  0  0
   -0.7210   47.8627   23.7234 N   0  0  0  0  0  0
   -0.7992   48.4591   24.8868 C   0  0  0  0  0  0
   -0.7791   49.8199   24.7372 N   0  0  0  0  0  0
   -1.1414   52.6202   23.7437 O   0  0  0  0  0  0
    5.9239   54.9632   19.8412 H   0  0  0  0  0  0
    3.7040   54.0573   20.3998 H   0  0  0  0  0  0
    7.0936   55.0320   23.9266 H   0  0  0  0  0  0
    1.1628   53.1755   25.3869 H   0  0  0  0  0  0
    6.6415   54.7927   28.7670 H   0  0  0  0  0  0
    0.4115   54.7529   30.9006 H   0  0  0  0  0  0
   -0.5073   52.4711   31.1186 H   0  0  0  0  0  0
   -0.1762   50.8325   29.2985 H   0  0  0  0  0  0
    1.2672   51.3690   27.4010 H   0  0  0  0  0  0
    8.4656   55.5205   22.2440 H   0  0  0  0  0  0
    1.7770   53.4618   21.4269 H   0  0  0  0  0  0
    0.9241   54.0141   22.8586 H   0  0  0  0  0  0
    1.5721   51.5141   23.7709 H   0  0  0  0  0  0
    1.7476   51.1702   22.0640 H   0  0  0  0  0  0
   -0.8718   47.9995   25.8652 H   0  0  0  0  0  0
   -0.8308   50.5232   25.4609 H   0  0  0  0  0  0
  1  2  2  0  0  0
  1  4  1  0  0  0
  1 25  1  0  0  0
  2  3  1  0  0  0
  2 36  1  0  0  0
  3  6  2  0  0  0
  3 37  1  0  0  0
  4  5  2  0  0  0
  4 38  1  0  0  0
  5  8  1  0  0  0
  5  6  1  0  0  0
  6  7  1  0  0  0
  7 26  1  0  0  0
  7  9  1  0  0  0
  8  9  1  0  0  0
  8 12  2  0  0  0
  9 10  2  0  0  0
 10 11  1  0  0  0
 10 39  1  0  0  0
 11 19  1  0  0  0
 11 13  2  0  0  0
 12 16  1  0  0  0
 12 13  1  0  0  0
 13 14  1  0  0  0
 14 17  2  0  0  0
 14 15  1  0  0  0
 15 16  1  0  0  0
 15 40  1  0  0  0
 16 18  2  0  0  0
 19 20  2  0  0  0
 19 24  1  0  0  0
 20 21  1  0  0  0
 20 28  1  0  0  0
 21 22  2  0  0  0
 21 41  1  0  0  0
 22 23  1  0  0  0
 22 42  1  0  0  0
 23 24  2  0  0  0
 23 43  1  0  0  0
 24 44  1  0  0  0
 25 45  1  0  0  0
 26 27  1  0  0  0
 26 46  1  0  0  0
 26 47  1  0  0  0
 27 29  1  0  0  0
 27 48  1  0  0  0
 27 49  1  0  0  0
 29 30  1  0  0  0
 29 35  2  0  0  0
 30 31  2  0  0  0
 30 34  1  0  0  0
 31 32  1  0  0  0
 32 33  2  0  0  0
 33 34  1  0  0  0
 33 50  1  0  0  0
 34 51  1  0  0  0
M  END
> <s_m_entry_id>
46262

> <s_m_entry_name>
dock_pv.3

> <s_m_Source_Path>
/home/csk/Desktop/cluster/DUD-E-result/wee1

> <s_m_Source_File>
dock_pv.maegz

> <i_m_Source_File_Index>
3

> <chembl_id>
CHEMBL472208

> <chembl_pref_name>
None

> <i_lp_mmshare_version>
53161

> <r_lp_tautomer_probability>
1

> <s_lp_Force_Field>
OPLS_2005

> <r_lp_Energy>
72.690249

> <b_lp_Chiralities_Consistent>
1

> <s_lp_Variant>
CHEMBL5491_lig202-2

> <s_i_glide_gridfile>
glide-grid_3biz

> <i_i_glide_lignum>
210

> <i_i_glide_rotatable_bonds>
6

> <r_i_docking_score>
-11.512421005344

> <r_i_glide_ligand_efficiency>
-0.328926314438401

> <r_i_glide_ligand_efficiency_sa>
-1.07593978441884

> <r_i_glide_ligand_efficiency_ln>
-2.52723191509102

> <r_i_glide_gscore>
-11.512421005344

> <r_i_glide_lipo>
-3.76572813941362

> <r_i_glide_hbond>
-0.84453213535963

> <r_i_glide_metal>
0

> <r_i_glide_rewards>
-1.99702336397423

> <r_i_glide_evdw>
-52.2643623352051

> <r_i_glide_ecoul>
-15.4475126266479

> <r_i_glide_erotb>
0.22377187173115

> <r_i_glide_esite>
-0.198564227570259

> <r_i_glide_emodel>
-112.089587221481

> <r_i_glide_energy>
-67.711874961853

> <r_i_glide_einternal>
5.24638795852661

> <i_i_glide_confnum>
21

> <i_i_glide_posenum>
275

> <r_i_glide_eff_state_penalty>
0

> <s_user_duplicate_titles>
CHEMBL5491_lig202,451644

> <i_f3d_flags>
0

> <s_m_subgroup_title>
dock_pv

> <s_m_subgroupid>
dock_pv

> <b_m_subgroup_collapsed>
1

$$$$
CHEMBL5491_lig157
                    3D
 Schrodinger Suite 2021-1.
 43 47  0  0  1  0            999 V2000
    6.8369   55.2741   21.9649 C   0  0  0  0  0  0
    5.9608   55.0171   20.9173 C   0  0  0  0  0  0
    4.6974   54.4679   21.1331 C   0  0  0  0  0  0
    6.4790   54.9961   23.2836 C   0  0  0  0  0  0
    5.1827   54.5221   23.5555 C   0  0  0  0  0  0
    4.3105   54.2637   22.4616 C   0  0  0  0  0  0
    3.1038   53.8516   22.9835 N   0  0  0  0  0  0
    4.4630   54.2430   24.7429 C   0  0  0  0  0  0
    3.1592   53.8312   24.3611 C   0  0  0  0  0  0
    2.1834   53.4644   25.2971 C   0  0  0  0  0  0
    2.5211   53.4631   26.6634 C   0  0  0  0  0  0
    4.7616   54.2630   26.1189 C   0  0  0  0  0  0
    3.8242   53.8485   27.0357 C   0  0  0  0  0  0
    4.5055   53.8585   28.3699 C   0  0  0  0  0  0
    5.7326   54.3575   28.1466 N   0  0  0  0  0  0
    5.9932   54.6351   26.8607 C   0  0  0  0  0  0
    4.0807   53.4953   29.4634 O   0  0  0  0  0  0
    7.0415   55.0950   26.4326 O   0  0  0  0  0  0
    8.0732   55.7883   21.6864 O   0  0  0  0  0  0
    1.4863   53.0510   27.6707 C   0  0  0  0  0  0
    0.6954   51.8989   27.4814 C   0  0  0  0  0  0
   -0.2177   51.5241   28.4793 C   0  0  0  0  0  0
   -0.2967   52.2241   29.6811 C   0  0  0  0  0  0
    0.4861   53.3563   29.8731 C   0  0  0  0  0  0
    1.3125   53.8003   28.8474 C   0  0  0  0  0  0
    0.8764   51.1803   26.3144 O   0  0  0  0  0  0
    0.2072   49.9386   26.1166 C   0  0  0  0  0  0
    0.4788   54.0166   31.0997 N   0  0  0  0  0  0
    6.2738   55.2287   19.9043 H   0  0  0  0  0  0
    4.0269   54.2748   20.3080 H   0  0  0  0  0  0
    7.1854   55.1994   24.0707 H   0  0  0  0  0  0
    2.2970   53.6078   22.4267 H   0  0  0  0  0  0
    1.1947   53.1782   24.9731 H   0  0  0  0  0  0
    6.4064   54.5161   28.8819 H   0  0  0  0  0  0
    8.6948   55.6359   22.4153 H   0  0  0  0  0  0
   -0.8512   50.6631   28.3565 H   0  0  0  0  0  0
   -0.9534   51.8615   30.4610 H   0  0  0  0  0  0
    1.8912   54.7001   29.0027 H   0  0  0  0  0  0
    0.5152   49.5187   25.1601 H   0  0  0  0  0  0
    0.4803   49.2177   26.8863 H   0  0  0  0  0  0
   -0.8770   50.0607   26.0907 H   0  0  0  0  0  0
    0.0056   53.5274   31.8484 H   0  0  0  0  0  0
    1.3542   54.4672   31.3619 H   0  0  0  0  0  0
  1  2  2  0  0  0
  1 19  1  0  0  0
  1  4  1  0  0  0
  2  3  1  0  0  0
  2 29  1  0  0  0
  3  6  2  0  0  0
  3 30  1  0  0  0
  4  5  2  0  0  0
  4 31  1  0  0  0
  5  8  1  0  0  0
  5  6  1  0  0  0
  6  7  1  0  0  0
  7  9  1  0  0  0
  7 32  1  0  0  0
  8  9  2  0  0  0
  8 12  1  0  0  0
  9 10  1  0  0  0
 10 11  2  0  0  0
 10 33  1  0  0  0
 11 13  1  0  0  0
 11 20  1  0  0  0
 12 16  1  0  0  0
 12 13  2  0  0  0
 13 14  1  0  0  0
 14 15  1  0  0  0
 14 17  2  0  0  0
 15 16  1  0  0  0
 15 34  1  0  0  0
 16 18  2  0  0  0
 19 35  1  0  0  0
 20 21  2  0  0  0
 20 25  1  0  0  0
 21 22  1  0  0  0
 21 26  1  0  0  0
 22 23  2  0  0  0
 22 36  1  0  0  0
 23 24  1  0  0  0
 23 37  1  0  0  0
 24 25  2  0  0  0
 24 28  1  0  0  0
 25 38  1  0  0  0
 26 27  1  0  0  0
 27 39  1  0  0  0
 27 40  1  0  0  0
 27 41  1  0  0  0
 28 42  1  0  0  0
 28 43  1  0  0  0
M  END
> <s_m_entry_id>
46263

> <s_m_entry_name>
dock_pv.4

> <s_m_Source_Path>
/home/csk/Desktop/cluster/DUD-E-result/wee1

> <s_m_Source_File>
dock_pv.maegz

> <i_m_Source_File_Index>
4

> <chembl_id>
CHEMBL424888

> <chembl_pref_name>
None

> <i_lp_mmshare_version>
53161

> <r_lp_tautomer_probability>
1

> <s_lp_Force_Field>
OPLS_2005

> <r_lp_Energy>
71.966905

> <b_lp_Chiralities_Consistent>
1

> <s_lp_Variant>
CHEMBL5491_lig157-1

> <s_i_glide_gridfile>
glide-grid_3biz

> <i_i_glide_lignum>
160

> <i_i_glide_rotatable_bonds>
3

> <r_i_docking_score>
-11.0053933231016

> <r_i_glide_ligand_efficiency>
-0.393049761539342

> <r_i_glide_ligand_efficiency_sa>
-1.19353056996303

> <r_i_glide_ligand_efficiency_ln>
-2.54036791136079

> <r_i_glide_gscore>
-11.0053933231016

> <r_i_glide_lipo>
-2.97043693274165

> <r_i_glide_hbond>
-0.925830438400598

> <r_i_glide_metal>
0

> <r_i_glide_rewards>
-2.5936377528544

> <r_i_glide_evdw>
-41.389533996582

> <r_i_glide_ecoul>
-16.9365711212158

> <r_i_glide_erotb>
0.0970379602928238

> <r_i_glide_esite>
-0.00256379138627406

> <r_i_glide_emodel>
-94.3903328511251

> <r_i_glide_energy>
-58.3261051177979

> <r_i_glide_einternal>
3.62074518203735

> <i_i_glide_confnum>
3

> <i_i_glide_posenum>
66

> <r_i_glide_eff_state_penalty>
0

> <s_user_duplicate_titles>
CHEMBL5491_lig157,355822

> <i_f3d_flags>
0

> <s_m_subgroup_title>
dock_pv

> <s_m_subgroupid>
dock_pv

> <b_m_subgroup_collapsed>
1

$$$$
CHEMBL5491_lig131
                    3D
 Schrodinger Suite 2021-1.
 39 43  0  0  1  0            999 V2000
    6.8228   55.2098   21.9851 C   0  0  0  0  0  0
    5.9222   54.9837   20.9502 C   0  0  0  0  0  0
    4.6466   54.4694   21.1839 C   0  0  0  0  0  0
    6.4790   54.9373   23.3085 C   0  0  0  0  0  0
    5.1722   54.4922   23.5980 C   0  0  0  0  0  0
    4.2772   54.2629   22.5162 C   0  0  0  0  0  0
    3.0726   53.8632   23.0539 N   0  0  0  0  0  0
    4.4636   54.2230   24.7947 C   0  0  0  0  0  0
    3.1483   53.8270   24.4308 C   0  0  0  0  0  0
    2.1841   53.4599   25.3789 C   0  0  0  0  0  0
    2.5381   53.4631   26.7391 C   0  0  0  0  0  0
    4.7802   54.2397   26.1656 C   0  0  0  0  0  0
    3.8489   53.8399   27.0970 C   0  0  0  0  0  0
    4.5486   53.8556   28.4210 C   0  0  0  0  0  0
    5.7796   54.3324   28.1796 N   0  0  0  0  0  0
    6.0230   54.6047   26.8909 C   0  0  0  0  0  0
    4.1376   53.5134   29.5256 O   0  0  0  0  0  0
    7.0687   55.0630   26.4492 O   0  0  0  0  0  0
    8.0729   55.6873   21.6868 O   0  0  0  0  0  0
    1.5107   53.0491   27.7461 C   0  0  0  0  0  0
    1.3435   53.7352   28.9599 C   0  0  0  0  0  0
    0.4881   53.2564   29.9493 C   0  0  0  0  0  0
   -0.3209   52.1542   29.6871 C   0  0  0  0  0  0
   -0.2397   51.5154   28.4532 C   0  0  0  0  0  0
    0.6887   51.9388   27.5040 C   0  0  0  0  0  0
    0.4790   53.8499   31.2112 N   0  0  0  0  0  0
    6.2277   55.1889   19.9352 H   0  0  0  0  0  0
    3.9616   54.2907   20.3667 H   0  0  0  0  0  0
    7.1980   55.1217   24.0858 H   0  0  0  0  0  0
    2.2520   53.6360   22.5117 H   0  0  0  0  0  0
    1.1909   53.1669   25.0679 H   0  0  0  0  0  0
    6.4601   54.4892   28.9059 H   0  0  0  0  0  0
    8.6985   55.5291   22.4127 H   0  0  0  0  0  0
    1.9361   54.6126   29.1706 H   0  0  0  0  0  0
   -0.9957   51.7721   30.4390 H   0  0  0  0  0  0
   -0.8686   50.6646   28.2456 H   0  0  0  0  0  0
    0.7744   51.3820   26.5819 H   0  0  0  0  0  0
    1.3308   54.3315   31.4867 H   0  0  0  0  0  0
   -0.0013   53.3309   31.9342 H   0  0  0  0  0  0
  1  2  2  0  0  0
  1 19  1  0  0  0
  1  4  1  0  0  0
  2  3  1  0  0  0
  2 27  1  0  0  0
  3  6  2  0  0  0
  3 28  1  0  0  0
  4  5  2  0  0  0
  4 29  1  0  0  0
  5  8  1  0  0  0
  5  6  1  0  0  0
  6  7  1  0  0  0
  7  9  1  0  0  0
  7 30  1  0  0  0
  8  9  2  0  0  0
  8 12  1  0  0  0
  9 10  1  0  0  0
 10 11  2  0  0  0
 10 31  1  0  0  0
 11 13  1  0  0  0
 11 20  1  0  0  0
 12 13  2  0  0  0
 12 16  1  0  0  0
 13 14  1  0  0  0
 14 15  1  0  0  0
 14 17  2  0  0  0
 15 16  1  0  0  0
 15 32  1  0  0  0
 16 18  2  0  0  0
 19 33  1  0  0  0
 20 21  2  0  0  0
 20 25  1  0  0  0
 21 22  1  0  0  0
 21 34  1  0  0  0
 22 23  2  0  0  0
 22 26  1  0  0  0
 23 24  1  0  0  0
 23 35  1  0  0  0
 24 25  2  0  0  0
 24 36  1  0  0  0
 25 37  1  0  0  0
 26 38  1  0  0  0
 26 39  1  0  0  0
M  END
> <s_m_entry_id>
46264

> <s_m_entry_name>
dock_pv.5

> <s_m_Source_Path>
/home/csk/Desktop/cluster/DUD-E-result/wee1

> <s_m_Source_File>
dock_pv.maegz

> <i_m_Source_File_Index>
5

> <chembl_id>
CHEMBL212797

> <chembl_pref_name>
None

> <i_lp_mmshare_version>
53161

> <r_lp_tautomer_probability>
1

> <s_lp_Force_Field>
OPLS_2005

> <r_lp_Energy>
68.595159

> <b_lp_Chiralities_Consistent>
1

> <s_lp_Variant>
CHEMBL5491_lig131-1

> <s_i_glide_gridfile>
glide-grid_3biz

> <i_i_glide_lignum>
133

> <i_i_glide_rotatable_bonds>
2

> <r_i_docking_score>
-10.992576933313

> <r_i_glide_ligand_efficiency>
-0.422791420512038

> <r_i_glide_ligand_efficiency_sa>
-1.252517919663

> <r_i_glide_ligand_efficiency_ln>
-2.58157062320167

> <r_i_glide_gscore>
-10.992576933313

> <r_i_glide_lipo>
-2.97149442177299

> <r_i_glide_hbond>
-0.930858145827538

> <r_i_glide_metal>
0

> <r_i_glide_rewards>
-2.7834903759705

> <r_i_glide_evdw>
-39.2157821655273

> <r_i_glide_ecoul>
-16.3907737731934

> <r_i_glide_erotb>
0.112671184513425

> <r_i_glide_esite>
0

> <r_i_glide_emodel>
-90.3763052751857

> <r_i_glide_energy>
-55.6065559387207

> <r_i_glide_einternal>
2.35804319381714

> <i_i_glide_confnum>
4

> <i_i_glide_posenum>
216

> <r_i_glide_eff_state_penalty>
0

> <s_user_duplicate_titles>
CHEMBL5491_lig131,356052

> <i_f3d_flags>
0

> <s_m_subgroup_title>
dock_pv

> <s_m_subgroupid>
dock_pv

> <b_m_subgroup_collapsed>
1

$$$$
CHEMBL5491_lig149
                    3D
 Schrodinger Suite 2021-1.
 39 43  0  0  1  0            999 V2000
    6.7670   55.2944   21.6432 C   0  0  0  0  0  0
    5.8473   54.9885   20.6453 C   0  0  0  0  0  0
    4.6013   54.4352   20.9369 C   0  0  0  0  0  0
    6.4790   55.0370   22.9844 C   0  0  0  0  0  0
    5.2063   54.5430   23.3309 C   0  0  0  0  0  0
    4.2802   54.2640   22.2872 C   0  0  0  0  0  0
    3.0992   53.8660   22.8755 N   0  0  0  0  0  0
    4.5535   54.2600   24.5570 C   0  0  0  0  0  0
    3.2237   53.8620   24.2492 C   0  0  0  0  0  0
    2.2909   53.5172   25.2382 C   0  0  0  0  0  0
    2.6977   53.5438   26.5834 C   0  0  0  0  0  0
    4.9286   54.2634   25.9129 C   0  0  0  0  0  0
    4.0336   53.8706   26.8800 C   0  0  0  0  0  0
    4.7906   53.8352   28.1679 C   0  0  0  0  0  0
    6.0132   54.3116   27.8874 N   0  0  0  0  0  0
    6.2014   54.6098   26.5932 C   0  0  0  0  0  0
    4.4167   53.4523   29.2729 O   0  0  0  0  0  0
    7.2291   55.0690   26.1125 O   0  0  0  0  0  0
    7.9802   55.8261   21.2872 O   0  0  0  0  0  0
    1.7050   53.1831   27.6435 C   0  0  0  0  0  0
    1.4435   53.9933   28.7725 C   0  0  0  0  0  0
    0.6283   53.5094   29.8089 C   0  0  0  0  0  0
   -0.0511   52.3043   29.6590 C   0  0  0  0  0  0
    0.0971   51.5690   28.4902 C   0  0  0  0  0  0
    0.9947   51.9828   27.5130 C   0  0  0  0  0  0
    2.0793   55.6082   28.8874 Cl  0  0  0  0  0  0
    0.4788   54.2042   31.0079 N   0  0  0  0  0  0
    6.1072   55.1779   19.6133 H   0  0  0  0  0  0
    3.8937   54.2166   20.1490 H   0  0  0  0  0  0
    7.2192   55.2653   23.7335 H   0  0  0  0  0  0
    2.2630   53.6201   22.3657 H   0  0  0  0  0  0
    1.2818   53.2373   24.9749 H   0  0  0  0  0  0
    6.7237   54.4501   28.5905 H   0  0  0  0  0  0
    8.6043   55.8462   22.0207 H   0  0  0  0  0  0
   -0.7045   51.9346   30.4378 H   0  0  0  0  0  0
   -0.4653   50.6625   28.3558 H   0  0  0  0  0  0
    1.1367   51.3530   26.6453 H   0  0  0  0  0  0
    1.2457   54.8253   31.2492 H   0  0  0  0  0  0
    0.0613   53.6858   31.7693 H   0  0  0  0  0  0
  1  2  2  0  0  0
  1 19  1  0  0  0
  1  4  1  0  0  0
  2  3  1  0  0  0
  2 28  1  0  0  0
  3  6  2  0  0  0
  3 29  1  0  0  0
  4  5  2  0  0  0
  4 30  1  0  0  0
  5  8  1  0  0  0
  5  6  1  0  0  0
  6  7  1  0  0  0
  7  9  1  0  0  0
  7 31  1  0  0  0
  8  9  2  0  0  0
  8 12  1  0  0  0
  9 10  1  0  0  0
 10 11  2  0  0  0
 10 32  1  0  0  0
 11 13  1  0  0  0
 11 20  1  0  0  0
 12 16  1  0  0  0
 12 13  2  0  0  0
 13 14  1  0  0  0
 14 15  1  0  0  0
 14 17  2  0  0  0
 15 16  1  0  0  0
 15 33  1  0  0  0
 16 18  2  0  0  0
 19 34  1  0  0  0
 20 21  2  0  0  0
 20 25  1  0  0  0
 21 22  1  0  0  0
 21 26  1  0  0  0
 22 23  2  0  0  0
 22 27  1  0  0  0
 23 24  1  0  0  0
 23 35  1  0  0  0
 24 25  2  0  0  0
 24 36  1  0  0  0
 25 37  1  0  0  0
 27 38  1  0  0  0
 27 39  1  0  0  0
M  END
> <s_m_entry_id>
46265

> <s_m_entry_name>
dock_pv.6

> <s_m_Source_Path>
/home/csk/Desktop/cluster/DUD-E-result/wee1

> <s_m_Source_File>
dock_pv.maegz

> <i_m_Source_File_Index>
6

> <chembl_id>
CHEMBL213313

> <chembl_pref_name>
None

> <i_lp_mmshare_version>
53161

> <r_lp_tautomer_probability>
1

> <s_lp_Force_Field>
OPLS_2005

> <r_lp_Energy>
69.75259

> <b_lp_Chiralities_Consistent>
1

> <s_lp_Variant>
CHEMBL5491_lig149-1

> <s_i_glide_gridfile>
glide-grid_3biz

> <i_i_glide_lignum>
152

> <i_i_glide_rotatable_bonds>
2

> <r_i_docking_score>
-10.9341360638144

> <r_i_glide_ligand_efficiency>
-0.404968002363496

> <r_i_glide_ligand_efficiency_sa>
-1.21490400575578

> <r_i_glide_ligand_efficiency_ln>
-2.54528661233464

> <r_i_glide_gscore>
-10.9341360638144

> <r_i_glide_lipo>
-3.38557483993244

> <r_i_glide_hbond>
-0.886018157650719

> <r_i_glide_metal>
0

> <r_i_glide_rewards>
-2.63420290345774

> <r_i_glide_evdw>
-43.9030532836914

> <r_i_glide_ecoul>
-12.7926683425903

> <r_i_glide_erotb>
0.0950159729002768

> <r_i_glide_esite>
-0.00930322010065633

> <r_i_glide_emodel>
-88.5614846242338

> <r_i_glide_energy>
-56.6957216262817

> <r_i_glide_einternal>
3.07242822647095

> <i_i_glide_confnum>
4

> <i_i_glide_posenum>
228

> <r_i_glide_eff_state_penalty>
0

> <s_user_duplicate_titles>
CHEMBL5491_lig149,355975

> <i_f3d_flags>
0

> <s_m_subgroup_title>
dock_pv

> <s_m_subgroupid>
dock_pv

> <b_m_subgroup_collapsed>
1

$$$$
CHEMBL5491_lig171
                    3D
 Schrodinger Suite 2021-1.
 46 50  0  0  1  0            999 V2000
    6.4650   54.9859   22.0448 C   0  0  0  0  0  0
    5.5475   54.6629   21.0539 C   0  0  0  0  0  0
    4.3029   54.1146   21.3573 C   0  0  0  0  0  0
    6.1734   54.7574   23.3855 C   0  0  0  0  0  0
    4.8921   54.2944   23.7412 C   0  0  0  0  0  0
    3.9685   53.9665   22.7136 C   0  0  0  0  0  0
    2.7988   53.5050   23.3115 N   0  0  0  0  0  0
    4.2454   54.0927   24.9758 C   0  0  0  0  0  0
    2.9240   53.6260   24.6999 C   0  0  0  0  0  0
    2.0258   53.3569   25.7490 C   0  0  0  0  0  0
    2.4372   53.5468   27.0703 C   0  0  0  0  0  0
    4.6361   54.2354   26.3226 C   0  0  0  0  0  0
    3.7511   53.9407   27.3258 C   0  0  0  0  0  0
    4.4796   54.0874   28.6168 C   0  0  0  0  0  0
    5.6985   54.5398   28.2885 N   0  0  0  0  0  0
    5.9055   54.6622   26.9674 C   0  0  0  0  0  0
    4.0793   53.8557   29.7543 O   0  0  0  0  0  0
    6.9396   55.0632   26.4507 O   0  0  0  0  0  0
    7.6794   55.5038   21.6871 O   0  0  0  0  0  0
    1.4769   53.2692   28.1706 C   0  0  0  0  0  0
    1.1640   54.2092   29.1761 C   0  0  0  0  0  0
    0.4047   53.8223   30.2780 C   0  0  0  0  0  0
   -0.1317   52.5404   30.3416 C   0  0  0  0  0  0
    0.0591   51.6544   29.2874 C   0  0  0  0  0  0
    0.8835   52.0033   28.2269 C   0  0  0  0  0  0
    1.6798   55.8618   29.1035 Cl  0  0  0  0  0  0
    1.6953   52.9028   22.5289 C   0  0  0  0  0  0
    0.3044   52.9945   23.1863 C   0  0  0  0  0  0
    2.0550   51.4443   22.1825 C   0  0  0  0  0  0
    5.8118   54.8248   20.0184 H   0  0  0  0  0  0
    3.6150   53.8635   20.5628 H   0  0  0  0  0  0
    6.9130   55.0090   24.1235 H   0  0  0  0  0  0
    1.0205   53.0160   25.5891 H   0  0  0  0  0  0
    6.4004   54.7882   28.9714 H   0  0  0  0  0  0
    8.3302   55.4633   22.4014 H   0  0  0  0  0  0
    0.2190   54.5218   31.0802 H   0  0  0  0  0  0
   -0.7209   52.2417   31.1964 H   0  0  0  0  0  0
   -0.3921   50.6734   29.3106 H   0  0  0  0  0  0
    1.0789   51.2690   27.4581 H   0  0  0  0  0  0
    1.6284   53.4589   21.5915 H   0  0  0  0  0  0
   -0.4731   52.8452   22.4383 H   0  0  0  0  0  0
    0.1487   52.1916   23.9062 H   0  0  0  0  0  0
    0.1310   53.9485   23.6869 H   0  0  0  0  0  0
    1.2949   50.9904   21.5460 H   0  0  0  0  0  0
    3.0020   51.3784   21.6461 H   0  0  0  0  0  0
    2.1426   50.8302   23.0795 H   0  0  0  0  0  0
  1  2  2  0  0  0
  1 19  1  0  0  0
  1  4  1  0  0  0
  2  3  1  0  0  0
  2 30  1  0  0  0
  3  6  2  0  0  0
  3 31  1  0  0  0
  4  5  2  0  0  0
  4 32  1  0  0  0
  5  8  1  0  0  0
  5  6  1  0  0  0
  6  7  1  0  0  0
  7  9  1  0  0  0
  7 27  1  0  0  0
  8  9  2  0  0  0
  8 12  1  0  0  0
  9 10  1  0  0  0
 10 11  2  0  0  0
 10 33  1  0  0  0
 11 13  1  0  0  0
 11 20  1  0  0  0
 12 16  1  0  0  0
 12 13  2  0  0  0
 13 14  1  0  0  0
 14 15  1  0  0  0
 14 17  2  0  0  0
 15 16  1  0  0  0
 15 34  1  0  0  0
 16 18  2  0  0  0
 19 35  1  0  0  0
 20 21  2  0  0  0
 20 25  1  0  0  0
 21 22  1  0  0  0
 21 26  1  0  0  0
 22 23  2  0  0  0
 22 36  1  0  0  0
 23 24  1  0  0  0
 23 37  1  0  0  0
 24 25  2  0  0  0
 24 38  1  0  0  0
 25 39  1  0  0  0
 27 28  1  0  0  0
 27 29  1  0  0  0
 27 40  1  0  0  0
 28 41  1  0  0  0
 28 42  1  0  0  0
 28 43  1  0  0  0
 29 44  1  0  0  0
 29 45  1  0  0  0
 29 46  1  0  0  0
M  END
> <s_m_entry_id>
46266

> <s_m_entry_name>
dock_pv.7

> <s_m_Source_Path>
/home/csk/Desktop/cluster/DUD-E-result/wee1

> <s_m_Source_File>
dock_pv.maegz

> <i_m_Source_File_Index>
7

> <chembl_id>
CHEMBL213525

> <chembl_pref_name>
None

> <i_lp_mmshare_version>
53161

> <r_lp_tautomer_probability>
1

> <s_lp_Force_Field>
OPLS_2005

> <r_lp_Energy>
72.179451

> <b_lp_Chiralities_Consistent>
1

> <s_lp_Variant>
CHEMBL5491_lig171-1

> <s_i_glide_gridfile>
glide-grid_3biz

> <i_i_glide_lignum>
175

> <i_i_glide_rotatable_bonds>
3

> <r_i_docking_score>
-10.902498528974

> <r_i_glide_ligand_efficiency>
-0.375948225137035

> <r_i_glide_ligand_efficiency_sa>
-1.1550320563788

> <r_i_glide_ligand_efficiency_ln>
-2.49639569962628

> <r_i_glide_gscore>
-10.902498528974

> <r_i_glide_lipo>
-3.81245688649512

> <r_i_glide_hbond>
-0.815042374142488

> <r_i_glide_metal>
0

> <r_i_glide_rewards>
-2.55903126544322

> <r_i_glide_evdw>
-45.9375381469727

> <r_i_glide_ecoul>
-10.0200109481812

> <r_i_glide_erotb>
0.0839105466826265

> <r_i_glide_esite>
0

> <r_i_glide_emodel>
-86.1862237023026

> <r_i_glide_energy>
-55.9575490951538

> <r_i_glide_einternal>
5.64306402206421

> <i_i_glide_confnum>
2

> <i_i_glide_posenum>
309

> <r_i_glide_eff_state_penalty>
0

> <s_user_duplicate_titles>
CHEMBL5491_lig171,355951

> <i_f3d_flags>
0

> <s_m_subgroup_title>
dock_pv

> <s_m_subgroupid>
dock_pv

> <b_m_subgroup_collapsed>
1

$$$$
CHEMBL5491_lig144
                    3D
 Schrodinger Suite 2021-1.
 39 43  0  0  1  0            999 V2000
    6.4624   54.9559   22.0641 C   0  0  0  0  0  0
    5.5113   54.6625   21.0908 C   0  0  0  0  0  0
    4.2521   54.1567   21.4184 C   0  0  0  0  0  0
    6.1973   54.7206   23.4098 C   0  0  0  0  0  0
    4.9101   54.2962   23.7886 C   0  0  0  0  0  0
    3.9536   54.0162   22.7782 C   0  0  0  0  0  0
    2.7873   53.6303   23.4098 N   0  0  0  0  0  0
    4.2723   54.1180   25.0345 C   0  0  0  0  0  0
    2.9329   53.7046   24.7817 C   0  0  0  0  0  0
    2.0143   53.4630   25.8183 C   0  0  0  0  0  0
    2.4290   53.7154   27.1378 C   0  0  0  0  0  0
    4.6754   54.2514   26.3728 C   0  0  0  0  0  0
    3.7778   54.0084   27.3768 C   0  0  0  0  0  0
    4.5286   54.1010   28.6590 C   0  0  0  0  0  0
    5.7602   54.5150   28.3269 N   0  0  0  0  0  0
    5.9555   54.6611   27.0074 C   0  0  0  0  0  0
    4.1245   53.8642   29.7936 O   0  0  0  0  0  0
    6.9860   55.0631   26.4831 O   0  0  0  0  0  0
    7.6789   55.4633   21.6869 O   0  0  0  0  0  0
    1.4662   53.6694   28.2801 C   0  0  0  0  0  0
    1.4032   54.6890   29.2612 C   0  0  0  0  0  0
    0.7846   54.4548   30.4825 C   0  0  0  0  0  0
    0.0790   53.2824   30.6796 C   0  0  0  0  0  0
   -0.1120   52.4164   29.6093 C   0  0  0  0  0  0
    0.6321   52.5595   28.4428 C   0  0  0  0  0  0
    2.0789   56.2612   29.0403 Cl  0  0  0  0  0  0
   -1.1098   51.4629   29.6870 N   0  0  0  0  0  0
    5.7561   54.8264   20.0512 H   0  0  0  0  0  0
    3.5284   53.9331   20.6472 H   0  0  0  0  0  0
    6.9580   54.9440   24.1364 H   0  0  0  0  0  0
    1.9401   53.3638   22.9302 H   0  0  0  0  0  0
    0.9958   53.1742   25.6052 H   0  0  0  0  0  0
    6.4712   54.7409   29.0078 H   0  0  0  0  0  0
    8.3301   55.4626   22.4020 H   0  0  0  0  0  0
    0.8311   55.1946   31.2686 H   0  0  0  0  0  0
   -0.4375   53.1227   31.6153 H   0  0  0  0  0  0
    0.5622   51.8092   27.6681 H   0  0  0  0  0  0
   -1.4827   51.2435   30.6058 H   0  0  0  0  0  0
   -1.1335   50.7324   28.9851 H   0  0  0  0  0  0
  1  2  2  0  0  0
  1 19  1  0  0  0
  1  4  1  0  0  0
  2  3  1  0  0  0
  2 28  1  0  0  0
  3  6  2  0  0  0
  3 29  1  0  0  0
  4  5  2  0  0  0
  4 30  1  0  0  0
  5  8  1  0  0  0
  5  6  1  0  0  0
  6  7  1  0  0  0
  7  9  1  0  0  0
  7 31  1  0  0  0
  8  9  2  0  0  0
  8 12  1  0  0  0
  9 10  1  0  0  0
 10 11  2  0  0  0
 10 32  1  0  0  0
 11 13  1  0  0  0
 11 20  1  0  0  0
 12 16  1  0  0  0
 12 13  2  0  0  0
 13 14  1  0  0  0
 14 15  1  0  0  0
 14 17  2  0  0  0
 15 16  1  0  0  0
 15 33  1  0  0  0
 16 18  2  0  0  0
 19 34  1  0  0  0
 20 21  2  0  0  0
 20 25  1  0  0  0
 21 22  1  0  0  0
 21 26  1  0  0  0
 22 23  2  0  0  0
 22 35  1  0  0  0
 23 24  1  0  0  0
 23 36  1  0  0  0
 24 25  2  0  0  0
 24 27  1  0  0  0
 25 37  1  0  0  0
 27 38  1  0  0  0
 27 39  1  0  0  0
M  END
> <s_m_entry_id>
46267

> <s_m_entry_name>
dock_pv.8

> <s_m_Source_Path>
/home/csk/Desktop/cluster/DUD-E-result/wee1

> <s_m_Source_File>
dock_pv.maegz

> <i_m_Source_File_Index>
8

> <chembl_id>
CHEMBL211140

> <chembl_pref_name>
None

> <i_lp_mmshare_version>
53161

> <r_lp_tautomer_probability>
1

> <s_lp_Force_Field>
OPLS_2005

> <r_lp_Energy>
68.255983

> <b_lp_Chiralities_Consistent>
1

> <s_lp_Variant>
CHEMBL5491_lig144-1

> <s_i_glide_gridfile>
glide-grid_3biz

> <i_i_glide_lignum>
147

> <i_i_glide_rotatable_bonds>
2

> <r_i_docking_score>
-10.8836318974367

> <r_i_glide_ligand_efficiency>
-0.40309747768284

> <r_i_glide_ligand_efficiency_sa>
-1.20929243171998

> <r_i_glide_ligand_efficiency_ln>
-2.53353007502816

> <r_i_glide_gscore>
-10.8836318974367

> <r_i_glide_lipo>
-3.6128566248784

> <r_i_glide_hbond>
-0.811889715522879

> <r_i_glide_metal>
0

> <r_i_glide_rewards>
-2.50379176783794

> <r_i_glide_evdw>
-42.0751113891602

> <r_i_glide_ecoul>
-12.5075092315674

> <r_i_glide_erotb>
0.0950159729002768

> <r_i_glide_esite>
-0.0702278079046261

> <r_i_glide_emodel>
-79.1922655847892

> <r_i_glide_energy>
-54.5826206207275

> <r_i_glide_einternal>
3.31296014785767

> <i_i_glide_confnum>
3

> <i_i_glide_posenum>
293

> <r_i_glide_eff_state_penalty>
0

> <s_user_duplicate_titles>
CHEMBL5491_lig144,355849

> <i_f3d_flags>
0

> <s_m_subgroup_title>
dock_pv

> <s_m_subgroupid>
dock_pv

> <b_m_subgroup_collapsed>
1

$$$$
CHEMBL5491_lig124
                    3D
 Schrodinger Suite 2021-1.
 41 45  0  0  1  0            999 V2000
    6.9298   55.3602   21.5418 C   0  0  0  0  0  0
    6.0651   55.0981   20.4835 C   0  0  0  0  0  0
    4.7996   54.5488   20.6910 C   0  0  0  0  0  0
    6.5681   55.0627   22.8526 C   0  0  0  0  0  0
    5.2772   54.5707   23.1143 C   0  0  0  0  0  0
    4.4081   54.3248   22.0170 C   0  0  0  0  0  0
    3.2053   53.8947   22.5342 N   0  0  0  0  0  0
    4.5634   54.2631   24.2980 C   0  0  0  0  0  0
    3.2618   53.8552   23.9139 C   0  0  0  0  0  0
    2.2885   53.4765   24.8503 C   0  0  0  0  0  0
    2.6309   53.4627   26.2140 C   0  0  0  0  0  0
    4.8672   54.2683   25.6715 C   0  0  0  0  0  0
    3.9386   53.8369   26.5912 C   0  0  0  0  0  0
    4.6459   53.8111   27.9140 C   0  0  0  0  0  0
    5.8563   54.3440   27.6944 N   0  0  0  0  0  0
    6.0884   54.6648   26.4145 C   0  0  0  0  0  0
    4.2627   53.3958   29.0038 O   0  0  0  0  0  0
    7.1112   55.1871   25.9906 O   0  0  0  0  0  0
    8.1743   55.8630   21.2869 O   0  0  0  0  0  0
    1.5968   53.0278   27.2074 C   0  0  0  0  0  0
    1.4421   53.6793   28.4380 C   0  0  0  0  0  0
    0.5784   53.1931   29.4237 C   0  0  0  0  0  0
   -0.2337   52.0958   29.1350 C   0  0  0  0  0  0
   -0.1701   51.4962   27.8800 C   0  0  0  0  0  0
    0.7557   51.9386   26.9367 C   0  0  0  0  0  0
    0.6051   53.7676   30.8300 C   0  0  0  0  0  0
    0.8736   55.1550   30.8864 O   0  0  0  0  0  0
    6.3814   55.3201   19.4735 H   0  0  0  0  0  0
    4.1333   54.3613   19.8607 H   0  0  0  0  0  0
    7.2713   55.2591   23.6449 H   0  0  0  0  0  0
    2.3948   53.6652   21.9769 H   0  0  0  0  0  0
    1.3030   53.1820   24.5256 H   0  0  0  0  0  0
    6.5265   54.4990   28.4319 H   0  0  0  0  0  0
    8.7536   55.8271   22.0577 H   0  0  0  0  0  0
    2.0579   54.5364   28.6676 H   0  0  0  0  0  0
   -0.9052   51.6940   29.8803 H   0  0  0  0  0  0
   -0.8141   50.6642   27.6508 H   0  0  0  0  0  0
    0.8243   51.4111   25.9964 H   0  0  0  0  0  0
    1.3763   53.2408   31.3934 H   0  0  0  0  0  0
   -0.3278   53.5861   31.3523 H   0  0  0  0  0  0
    1.5631   55.2702   31.5590 H   0  0  0  0  0  0
  1  2  2  0  0  0
  1 19  1  0  0  0
  1  4  1  0  0  0
  2  3  1  0  0  0
  2 28  1  0  0  0
  3  6  2  0  0  0
  3 29  1  0  0  0
  4  5  2  0  0  0
  4 30  1  0  0  0
  5  8  1  0  0  0
  5  6  1  0  0  0
  6  7  1  0  0  0
  7  9  1  0  0  0
  7 31  1  0  0  0
  8  9  2  0  0  0
  8 12  1  0  0  0
  9 10  1  0  0  0
 10 11  2  0  0  0
 10 32  1  0  0  0
 11 13  1  0  0  0
 11 20  1  0  0  0
 12 16  1  0  0  0
 12 13  2  0  0  0
 13 14  1  0  0  0
 14 15  1  0  0  0
 14 17  2  0  0  0
 15 16  1  0  0  0
 15 33  1  0  0  0
 16 18  2  0  0  0
 19 34  1  0  0  0
 20 21  2  0  0  0
 20 25  1  0  0  0
 21 22  1  0  0  0
 21 35  1  0  0  0
 22 23  2  0  0  0
 22 26  1  0  0  0
 23 24  1  0  0  0
 23 36  1  0  0  0
 24 25  2  0  0  0
 24 37  1  0  0  0
 25 38  1  0  0  0
 26 27  1  0  0  0
 26 39  1  0  0  0
 26 40  1  0  0  0
 27 41  1  0  0  0
M  END
> <s_m_entry_id>
46268

> <s_m_entry_name>
dock_pv.9

> <s_m_Source_Path>
/home/csk/Desktop/cluster/DUD-E-result/wee1

> <s_m_Source_File>
dock_pv.maegz

> <i_m_Source_File_Index>
9

> <chembl_id>
CHEMBL385349

> <chembl_pref_name>
None

> <i_lp_mmshare_version>
53161

> <r_lp_tautomer_probability>
1

> <s_lp_Force_Field>
OPLS_2005

> <r_lp_Energy>
67.097002

> <b_lp_Chiralities_Consistent>
1

> <s_lp_Variant>
CHEMBL5491_lig124-1

> <s_i_glide_gridfile>
glide-grid_3biz

> <i_i_glide_lignum>
126

> <i_i_glide_rotatable_bonds>
4

> <r_i_docking_score>
-10.8710545343442

> <r_i_glide_ligand_efficiency>
-0.402631649420156

> <r_i_glide_ligand_efficiency_sa>
-1.20789494693346

> <r_i_glide_ligand_efficiency_ln>
-2.53060227225427

> <r_i_glide_gscore>
-10.8710545343442

> <r_i_glide_lipo>
-2.95684978192309

> <r_i_glide_hbond>
-0.885001303597401

> <r_i_glide_metal>
0

> <r_i_glide_rewards>
-2.70578638046744

> <r_i_glide_evdw>
-40.6467895507812

> <r_i_glide_ecoul>
-16.6660614013672

> <r_i_glide_erotb>
0.208831619387858

> <r_i_glide_esite>
0

> <r_i_glide_emodel>
-92.1807203593755

> <r_i_glide_energy>
-57.3128509521484

> <r_i_glide_einternal>
2.7656090259552

> <i_i_glide_confnum>
2

> <i_i_glide_posenum>
297

> <r_i_glide_eff_state_penalty>
0

> <s_user_duplicate_titles>
CHEMBL5491_lig124,355550

> <i_f3d_flags>
0

> <s_m_subgroup_title>
dock_pv

> <s_m_subgroupid>
dock_pv

> <b_m_subgroup_collapsed>
1

$$$$
CHEMBL5491_lig212
                    3D
 Schrodinger Suite 2021-1.
 61 65  0  0  1  0            999 V2000
    6.4597   54.9743   22.0511 C   0  0  0  0  0  0
    5.5127   54.7080   21.0680 C   0  0  0  0  0  0
    4.2428   54.2274   21.3825 C   0  0  0  0  0  0
    6.1856   54.7246   23.3907 C   0  0  0  0  0  0
    4.8896   54.3207   23.7595 C   0  0  0  0  0  0
    3.9269   54.0721   22.7402 C   0  0  0  0  0  0
    2.7438   53.6954   23.3621 N   0  0  0  0  0  0
    4.2488   54.1329   25.0004 C   0  0  0  0  0  0
    2.9105   53.7323   24.7361 C   0  0  0  0  0  0
    1.9990   53.4626   25.7694 C   0  0  0  0  0  0
    2.4225   53.6167   27.0937 C   0  0  0  0  0  0
    4.6461   54.2493   26.3438 C   0  0  0  0  0  0
    3.7547   53.9684   27.3447 C   0  0  0  0  0  0
    4.4868   54.1043   28.6355 C   0  0  0  0  0  0
    5.7129   54.5338   28.3084 N   0  0  0  0  0  0
    5.9184   54.6624   26.9860 C   0  0  0  0  0  0
    4.0791   53.8890   29.7736 O   0  0  0  0  0  0
    6.9527   55.0633   26.4676 O   0  0  0  0  0  0
    1.4699   53.4131   28.2199 C   0  0  0  0  0  0
    0.8516   52.1668   28.4252 C   0  0  0  0  0  0
    0.1288   51.9283   29.5886 C   0  0  0  0  0  0
    0.0658   52.8947   30.5881 C   0  0  0  0  0  0
    0.5737   54.1649   30.3547 C   0  0  0  0  0  0
    1.2319   54.4413   29.1579 C   0  0  0  0  0  0
    7.6801   55.4688   21.6871 O   0  0  0  0  0  0
    1.4855   53.3368   22.7022 C   0  0  0  0  0  0
    1.1964   51.8110   22.6959 C   0  0  0  0  0  0
    2.0639   50.9699   21.7475 C   0  0  0  0  0  0
    1.4620   49.9184   21.1706 N   0  0  0  0  0  0
    3.2447   51.2549   21.5546 O   0  0  0  0  0  0
    2.1125   48.9803   20.2538 C   0  0  0  0  0  0
    1.1976   48.4732   19.1189 C   0  0  0  0  0  0
    0.3754   47.3059   19.4818 N   0  0  0  0  0  0
   -0.7086   47.6596   20.3975 C   0  0  0  0  0  0
   -0.1985   46.7196   18.2721 C   0  0  0  0  0  0
    0.9768   50.8708   27.2866 Cl  0  0  0  0  0  0
    1.7455   56.0761   28.8869 Cl  0  0  0  0  0  0
    5.7655   54.8785   20.0328 H   0  0  0  0  0  0
    3.5299   54.0190   20.5974 H   0  0  0  0  0  0
    6.9467   54.9202   24.1235 H   0  0  0  0  0  0
    0.9821   53.1661   25.5550 H   0  0  0  0  0  0
    6.4161   54.7796   28.9914 H   0  0  0  0  0  0
   -0.3598   50.9753   29.7165 H   0  0  0  0  0  0
   -0.4409   52.6752   31.5188 H   0  0  0  0  0  0
    0.4627   54.9320   31.1063 H   0  0  0  0  0  0
    8.3301   55.4556   22.4055 H   0  0  0  0  0  0
    1.4816   53.7429   21.6915 H   0  0  0  0  0  0
    0.6883   53.8603   23.2284 H   0  0  0  0  0  0
    0.1434   51.6560   22.4541 H   0  0  0  0  0  0
    1.3253   51.4003   23.6970 H   0  0  0  0  0  0
    0.5103   49.7093   21.4250 H   0  0  0  0  0  0
    2.4974   48.1363   20.8301 H   0  0  0  0  0  0
    2.9880   49.4391   19.7862 H   0  0  0  0  0  0
    1.8827   48.0879   18.3580 H   0  0  0  0  0  0
    0.6356   49.2813   18.6480 H   0  0  0  0  0  0
   -0.3208   48.0067   21.3536 H   0  0  0  0  0  0
   -1.3339   46.7926   20.6115 H   0  0  0  0  0  0
   -1.3478   48.4397   19.9839 H   0  0  0  0  0  0
    0.5907   46.3946   17.5911 H   0  0  0  0  0  0
   -0.7968   45.8392   18.5116 H   0  0  0  0  0  0
   -0.8333   47.4292   17.7377 H   0  0  0  0  0  0
  1  2  2  0  0  0
  1  4  1  0  0  0
  1 25  1  0  0  0
  2  3  1  0  0  0
  2 38  1  0  0  0
  3  6  2  0  0  0
  3 39  1  0  0  0
  4  5  2  0  0  0
  4 40  1  0  0  0
  5  6  1  0  0  0
  5  8  1  0  0  0
  6  7  1  0  0  0
  7 26  1  0  0  0
  7  9  1  0  0  0
  8  9  2  0  0  0
  8 12  1  0  0  0
  9 10  1  0  0  0
 10 11  2  0  0  0
 10 41  1  0  0  0
 11 19  1  0  0  0
 11 13  1  0  0  0
 12 13  2  0  0  0
 12 16  1  0  0  0
 13 14  1  0  0  0
 14 17  2  0  0  0
 14 15  1  0  0  0
 15 16  1  0  0  0
 15 42  1  0  0  0
 16 18  2  0  0  0
 19 20  2  0  0  0
 19 24  1  0  0  0
 20 21  1  0  0  0
 20 36  1  0  0  0
 21 22  2  0  0  0
 21 43  1  0  0  0
 22 23  1  0  0  0
 22 44  1  0  0  0
 23 24  2  0  0  0
 23 45  1  0  0  0
 24 37  1  0  0  0
 25 46  1  0  0  0
 26 27  1  0  0  0
 26 47  1  0  0  0
 26 48  1  0  0  0
 27 28  1  0  0  0
 27 49  1  0  0  0
 27 50  1  0  0  0
 28 29  1  0  0  0
 28 30  2  0  0  0
 29 31  1  0  0  0
 29 51  1  0  0  0
 31 32  1  0  0  0
 31 52  1  0  0  0
 31 53  1  0  0  0
 32 33  1  0  0  0
 32 54  1  0  0  0
 32 55  1  0  0  0
 33 34  1  0  0  0
 33 35  1  0  0  0
 34 56  1  0  0  0
 34 57  1  0  0  0
 34 58  1  0  0  0
 35 59  1  0  0  0
 35 60  1  0  0  0
 35 61  1  0  0  0
M  END
> <s_m_entry_id>
46269

> <s_m_entry_name>
dock_pv.10

> <s_m_Source_Path>
/home/csk/Desktop/cluster/DUD-E-result/wee1

> <s_m_Source_File>
dock_pv.maegz

> <i_m_Source_File_Index>
10

> <chembl_id>
CHEMBL461116

> <chembl_pref_name>
None

> <i_lp_mmshare_version>
53161

> <r_lp_tautomer_probability>
1

> <s_lp_Force_Field>
OPLS_2005

> <r_lp_Energy>
79.096301

> <b_lp_Chiralities_Consistent>
1

> <s_lp_Variant>
CHEMBL5491_lig212-1

> <s_i_glide_gridfile>
glide-grid_3biz

> <i_i_glide_lignum>
224

> <i_i_glide_rotatable_bonds>
9

> <r_i_docking_score>
-10.8252797159705

> <r_i_glide_ligand_efficiency>
-0.292575127458662

> <r_i_glide_ligand_efficiency_sa>
-0.974925231792396

> <r_i_glide_ligand_efficiency_ln>
-2.34774938983083

> <r_i_glide_gscore>
-10.8252797159705

> <r_i_glide_lipo>
-3.80874745293423

> <r_i_glide_hbond>
-0.816378062862864

> <r_i_glide_metal>
0

> <r_i_glide_rewards>
-2.08741409292151

> <r_i_glide_evdw>
-55.0676765441895

> <r_i_glide_ecoul>
-11.3828325271606

> <r_i_glide_erotb>
0.348068599031664

> <r_i_glide_esite>
0

> <r_i_glide_emodel>
-104.800620293305

> <r_i_glide_energy>
-66.4505090713501

> <r_i_glide_einternal>
2.97761559486389

> <i_i_glide_confnum>
58

> <i_i_glide_posenum>
24

> <r_i_glide_eff_state_penalty>
0

> <s_user_duplicate_titles>
CHEMBL5491_lig212,451515

> <i_f3d_flags>
0

> <s_m_subgroup_title>
dock_pv

> <s_m_subgroupid>
dock_pv

> <b_m_subgroup_collapsed>
1

$$$$
CHEMBL5491_lig174
                    3D
 Schrodinger Suite 2021-1.
 52 56  0  0  1  0            999 V2000
    6.4973   55.0322   22.0266 C   0  0  0  0  0  0
    5.5702   54.7656   21.0298 C   0  0  0  0  0  0
    4.3049   54.2628   21.3250 C   0  0  0  0  0  0
    6.2112   54.7746   23.3608 C   0  0  0  0  0  0
    4.9160   54.3503   23.7100 C   0  0  0  0  0  0
    3.9720   54.0907   22.6785 C   0  0  0  0  0  0
    2.7854   53.6945   23.2859 N   0  0  0  0  0  0
    4.2662   54.1527   24.9443 C   0  0  0  0  0  0
    2.9353   53.7417   24.6625 C   0  0  0  0  0  0
    2.0168   53.4586   25.6856 C   0  0  0  0  0  0
    2.4321   53.5867   27.0154 C   0  0  0  0  0  0
    4.6526   54.2595   26.2928 C   0  0  0  0  0  0
    3.7552   53.9534   27.2825 C   0  0  0  0  0  0
    4.4864   54.0535   28.5774 C   0  0  0  0  0  0
    5.7095   54.5066   28.2667 N   0  0  0  0  0  0
    5.9217   54.6603   26.9509 C   0  0  0  0  0  0
    4.0799   53.7914   29.7039 O   0  0  0  0  0  0
    6.9611   55.0639   26.4453 O   0  0  0  0  0  0
    7.7237   55.5301   21.6860 O   0  0  0  0  0  0
    1.4793   53.2911   28.1187 C   0  0  0  0  0  0
    1.1940   54.2167   29.1471 C   0  0  0  0  0  0
    0.4702   53.8158   30.2645 C   0  0  0  0  0  0
   -0.0732   52.5361   30.3258 C   0  0  0  0  0  0
    0.0949   51.6611   29.2593 C   0  0  0  0  0  0
    0.8879   52.0246   28.1763 C   0  0  0  0  0  0
    1.7185   55.8641   29.0862 Cl  0  0  0  0  0  0
    1.5556   53.2886   22.6009 C   0  0  0  0  0  0
    1.5021   51.7809   22.2702 C   0  0  0  0  0  0
    2.5543   51.3132   21.2405 C   0  0  0  0  0  0
    2.2202   49.9891   20.5276 C   0  0  0  0  0  0
    2.0297   48.7900   21.4660 C   0  0  0  0  0  0
    5.8352   54.9501   20.0007 H   0  0  0  0  0  0
    3.5992   54.0785   20.5280 H   0  0  0  0  0  0
    6.9607   54.9734   24.1031 H   0  0  0  0  0  0
    1.0108   53.1341   25.4608 H   0  0  0  0  0  0
    6.4075   54.7409   28.9572 H   0  0  0  0  0  0
    8.3697   55.4807   22.4044 H   0  0  0  0  0  0
    0.3072   54.5081   31.0796 H   0  0  0  0  0  0
   -0.6515   52.2324   31.1866 H   0  0  0  0  0  0
   -0.3506   50.6778   29.2866 H   0  0  0  0  0  0
    1.0666   51.3008   27.3924 H   0  0  0  0  0  0
    0.7016   53.5788   23.2129 H   0  0  0  0  0  0
    1.4695   53.8629   21.6871 H   0  0  0  0  0  0
    1.5877   51.1941   23.1847 H   0  0  0  0  0  0
    0.5077   51.5642   21.8745 H   0  0  0  0  0  0
    2.6528   52.0692   20.4621 H   0  0  0  0  0  0
    3.5339   51.2422   21.7154 H   0  0  0  0  0  0
    1.3225   50.1165   19.9215 H   0  0  0  0  0  0
    3.0170   49.7614   19.8184 H   0  0  0  0  0  0
    1.9205   47.8733   20.8864 H   0  0  0  0  0  0
    2.8791   48.6621   22.1306 H   0  0  0  0  0  0
    1.1410   48.9042   22.0877 H   0  0  0  0  0  0
  1  2  2  0  0  0
  1 19  1  0  0  0
  1  4  1  0  0  0
  2  3  1  0  0  0
  2 32  1  0  0  0
  3  6  2  0  0  0
  3 33  1  0  0  0
  4  5  2  0  0  0
  4 34  1  0  0  0
  5  8  1  0  0  0
  5  6  1  0  0  0
  6  7  1  0  0  0
  7  9  1  0  0  0
  7 27  1  0  0  0
  8  9  2  0  0  0
  8 12  1  0  0  0
  9 10  1  0  0  0
 10 11  2  0  0  0
 10 35  1  0  0  0
 11 13  1  0  0  0
 11 20  1  0  0  0
 12 16  1  0  0  0
 12 13  2  0  0  0
 13 14  1  0  0  0
 14 15  1  0  0  0
 14 17  2  0  0  0
 15 16  1  0  0  0
 15 36  1  0  0  0
 16 18  2  0  0  0
 19 37  1  0  0  0
 20 21  2  0  0  0
 20 25  1  0  0  0
 21 22  1  0  0  0
 21 26  1  0  0  0
 22 23  2  0  0  0
 22 38  1  0  0  0
 23 24  1  0  0  0
 23 39  1  0  0  0
 24 25  2  0  0  0
 24 40  1  0  0  0
 25 41  1  0  0  0
 27 28  1  0  0  0
 27 42  1  0  0  0
 27 43  1  0  0  0
 28 29  1  0  0  0
 28 44  1  0  0  0
 28 45  1  0  0  0
 29 30  1  0  0  0
 29 46  1  0  0  0
 29 47  1  0  0  0
 30 31  1  0  0  0
 30 48  1  0  0  0
 30 49  1  0  0  0
 31 50  1  0  0  0
 31 51  1  0  0  0
 31 52  1  0  0  0
M  END
> <s_m_entry_id>
46270

> <s_m_entry_name>
dock_pv.11

> <s_m_Source_Path>
/home/csk/Desktop/cluster/DUD-E-result/wee1

> <s_m_Source_File>
dock_pv.maegz

> <i_m_Source_File_Index>
11

> <chembl_id>
CHEMBL214137

> <chembl_pref_name>
None

> <i_lp_mmshare_version>
53161

> <r_lp_tautomer_probability>
1

> <s_lp_Force_Field>
OPLS_2005

> <r_lp_Energy>
68.95566

> <b_lp_Chiralities_Consistent>
1

> <s_lp_Variant>
CHEMBL5491_lig174-1

> <s_i_glide_gridfile>
glide-grid_3biz

> <i_i_glide_lignum>
178

> <i_i_glide_rotatable_bonds>
6

> <r_i_docking_score>
-10.7936060916989

> <r_i_glide_ligand_efficiency>
-0.348180841667706

> <r_i_glide_ligand_efficiency_sa>
-1.09376855829629

> <r_i_glide_ligand_efficiency_ln>
-2.43428895797911

> <r_i_glide_gscore>
-10.7936060916989

> <r_i_glide_lipo>
-3.85494589371875

> <r_i_glide_hbond>
-0.791789401763097

> <r_i_glide_metal>
0

> <r_i_glide_rewards>
-2.42316159131263

> <r_i_glide_evdw>
-49.1244316101074

> <r_i_glide_ecoul>
-10.4323673248291

> <r_i_glide_erotb>
0.29736747432534

> <r_i_glide_esite>
0

> <r_i_glide_emodel>
-94.050164365562

> <r_i_glide_energy>
-59.5567989349365

> <r_i_glide_einternal>
2.87726187705994

> <i_i_glide_confnum>
43

> <i_i_glide_posenum>
92

> <r_i_glide_eff_state_penalty>
0

> <s_user_duplicate_titles>
CHEMBL5491_lig174,355180

> <i_f3d_flags>
0

> <s_m_subgroup_title>
dock_pv

> <s_m_subgroupid>
dock_pv

> <b_m_subgroup_collapsed>
1

$$$$
CHEMBL5491_lig168
                    3D
 Schrodinger Suite 2021-1.
 42 46  0  0  1  0            999 V2000
    6.6692   55.1274   21.6102 C   0  0  0  0  0  0
    5.7236   54.8058   20.6397 C   0  0  0  0  0  0
    4.4833   54.2606   20.9722 C   0  0  0  0  0  0
    6.4207   54.8921   22.9567 C   0  0  0  0  0  0
    5.1567   54.4184   23.3432 C   0  0  0  0  0  0
    4.1992   54.1198   22.3345 C   0  0  0  0  0  0
    3.0439   53.7206   22.9713 N   0  0  0  0  0  0
    4.5398   54.1996   24.5948 C   0  0  0  0  0  0
    3.2099   53.7701   24.3408 C   0  0  0  0  0  0
    2.3139   53.4634   25.3719 C   0  0  0  0  0  0
    2.7460   53.6136   26.7002 C   0  0  0  0  0  0
    4.9479   54.3153   25.9346 C   0  0  0  0  0  0
    4.0680   54.0274   26.9497 C   0  0  0  0  0  0
    4.8128   54.2607   28.2289 C   0  0  0  0  0  0
    6.0454   54.6556   27.8740 N   0  0  0  0  0  0
    6.2363   54.7284   26.5486 C   0  0  0  0  0  0
    4.4232   54.1515   29.3852 O   0  0  0  0  0  0
    7.2723   55.0976   26.0044 O   0  0  0  0  0  0
    7.8774   55.6615   21.2448 O   0  0  0  0  0  0
    1.7365   53.3079   27.8149 C   0  0  1  0  0  0
    2.1407   52.0467   28.6241 C   0  0  0  0  0  0
    1.3084   51.8637   29.8073 N   0  0  1  0  0  0
    1.3283   53.0259   30.6836 C   0  0  0  0  0  0
    0.6560   54.2029   29.9651 C   0  0  0  0  0  0
    1.3708   54.5666   28.6543 C   0  0  0  0  0  0
    5.9593   54.9756   19.5985 H   0  0  0  0  0  0
    3.7545   54.0291   20.2073 H   0  0  0  0  0  0
    7.1796   55.1376   23.6788 H   0  0  0  0  0  0
    2.1938   53.4438   22.4986 H   0  0  0  0  0  0
    1.3119   53.1331   25.1448 H   0  0  0  0  0  0
    6.7501   54.9273   28.5488 H   0  0  0  0  0  0
    8.4974   55.7063   21.9810 H   0  0  0  0  0  0
    0.8207   53.0213   27.2923 H   0  0  0  0  0  0
    3.1785   52.0891   28.9513 H   0  0  0  0  0  0
    2.0415   51.1549   28.0023 H   0  0  0  0  0  0
    0.3569   51.7113   29.5064 H   0  0  0  0  0  0
    0.8198   52.7962   31.6208 H   0  0  0  0  0  0
    2.3649   53.2656   30.9231 H   0  0  0  0  0  0
   -0.3877   53.9597   29.7765 H   0  0  0  0  0  0
    0.6448   55.0693   30.6285 H   0  0  0  0  0  0
    0.6997   55.2029   28.0780 H   0  0  0  0  0  0
    2.2438   55.1778   28.8812 H   0  0  0  0  0  0
  1  2  2  0  0  0
  1 19  1  0  0  0
  1  4  1  0  0  0
  2  3  1  0  0  0
  2 26  1  0  0  0
  3  6  2  0  0  0
  3 27  1  0  0  0
  4  5  2  0  0  0
  4 28  1  0  0  0
  5  8  1  0  0  0
  5  6  1  0  0  0
  6  7  1  0  0  0
  7  9  1  0  0  0
  7 29  1  0  0  0
  8 12  1  0  0  0
  8  9  2  0  0  0
  9 10  1  0  0  0
 10 11  2  0  0  0
 10 30  1  0  0  0
 11 13  1  0  0  0
 11 20  1  0  0  0
 12 13  2  0  0  0
 12 16  1  0  0  0
 13 14  1  0  0  0
 14 15  1  0  0  0
 14 17  2  0  0  0
 15 16  1  0  0  0
 15 31  1  0  0  0
 16 18  2  0  0  0
 19 32  1  0  0  0
 20 21  1  0  0  0
 20 25  1  0  0  0
 20 33  1  0  0  0
 21 22  1  0  0  0
 21 34  1  0  0  0
 21 35  1  0  0  0
 22 23  1  0  0  0
 22 36  1  0  0  0
 23 24  1  0  0  0
 23 37  1  0  0  0
 23 38  1  0  0  0
 24 25  1  0  0  0
 24 39  1  0  0  0
 24 40  1  0  0  0
 25 41  1  0  0  0
 25 42  1  0  0  0
M  END
> <s_m_entry_id>
46271

> <s_m_entry_name>
dock_pv.12

> <s_m_Source_Path>
/home/csk/Desktop/cluster/DUD-E-result/wee1

> <s_m_Source_File>
dock_pv.maegz

> <i_m_Source_File_Index>
12

> <chembl_id>
CHEMBL211306

> <chembl_pref_name>
None

> <i_lp_mmshare_version>
53161

> <r_lp_tautomer_probability>
1

> <s_lp_Force_Field>
OPLS_2005

> <r_lp_Energy>
71.619905

> <b_lp_Chiralities_Consistent>
1

> <s_lp_Variant>
CHEMBL5491_lig168-2

> <s_i_glide_gridfile>
glide-grid_3biz

> <i_i_glide_lignum>
172

> <i_i_glide_rotatable_bonds>
2

> <r_i_docking_score>
-10.5872896184978

> <r_i_glide_ligand_efficiency>
-0.423491584739914

> <r_i_glide_ligand_efficiency_sa>
-1.23829690443474

> <r_i_glide_ligand_efficiency_ln>
-2.5095049150513

> <r_i_glide_gscore>
-10.5872896184978

> <r_i_glide_lipo>
-3.24802922163953

> <r_i_glide_hbond>
-0.847740746176839

> <r_i_glide_metal>
0

> <r_i_glide_rewards>
-2.92264298197038

> <r_i_glide_evdw>
-38.1196746826172

> <r_i_glide_ecoul>
-11.8690595626831

> <r_i_glide_erotb>
0.117465999822227

> <r_i_glide_esite>
0

> <r_i_glide_emodel>
-80.1531811840261

> <r_i_glide_energy>
-49.9887342453003

> <r_i_glide_einternal>
1.12138545513153

> <i_i_glide_confnum>
5

> <i_i_glide_posenum>
281

> <r_i_glide_eff_state_penalty>
0

> <s_user_duplicate_titles>
CHEMBL5491_lig168

> <i_f3d_flags>
0

> <s_m_subgroup_title>
dock_pv

> <s_m_subgroupid>
dock_pv

> <b_m_subgroup_collapsed>
1

$$$$
CHEMBL5491_lig205
                    3D
 Schrodinger Suite 2021-1.
 60 65  0  0  1  0            999 V2000
    6.5897   55.0645   22.0346 C   0  0  0  0  0  0
    5.6720   54.7744   21.0342 C   0  0  0  0  0  0
    4.4117   54.2583   21.3245 C   0  0  0  0  0  0
    6.2931   54.8258   23.3738 C   0  0  0  0  0  0
    5.0013   54.3838   23.7177 C   0  0  0  0  0  0
    4.0732   54.0998   22.6768 C   0  0  0  0  0  0
    2.8910   53.6864   23.2725 N   0  0  0  0  0  0
    4.3402   54.1692   24.9472 C   0  0  0  0  0  0
    3.0136   53.7521   24.6516 C   0  0  0  0  0  0
    2.0791   53.4629   25.6618 C   0  0  0  0  0  0
    2.4795   53.5847   26.9971 C   0  0  0  0  0  0
    4.7086   54.2632   26.3010 C   0  0  0  0  0  0
    3.8016   53.9478   27.2799 C   0  0  0  0  0  0
    4.5158   54.0444   28.5826 C   0  0  0  0  0  0
    5.7459   54.4916   28.2870 N   0  0  0  0  0  0
    5.9718   54.6596   26.9743 C   0  0  0  0  0  0
    4.0926   53.7839   29.7046 O   0  0  0  0  0  0
    7.0152   55.0658   26.4802 O   0  0  0  0  0  0
    1.5100   53.2927   28.0893 C   0  0  0  0  0  0
    1.2010   54.2267   29.1013 C   0  0  0  0  0  0
    0.4497   53.8402   30.2082 C   0  0  0  0  0  0
   -0.0769   52.5558   30.2794 C   0  0  0  0  0  0
    0.1201   51.6662   29.2297 C   0  0  0  0  0  0
    0.9272   52.0218   28.1535 C   0  0  0  0  0  0
    7.8123   55.5680   21.6869 O   0  0  0  0  0  0
    1.6944   53.2344   22.5722 C   0  0  0  0  0  0
    1.4767   51.7177   22.7825 C   0  0  0  0  0  0
    1.7303   55.8716   29.0365 Cl  0  0  0  0  0  0
    0.2015   51.1835   22.1260 C   0  0  0  0  0  0
   -0.1150   49.8659   22.5100 N   0  0  0  0  0  0
   -0.4439   51.8307   21.3029 O   0  0  0  0  0  0
   -1.1803   48.7933   21.6212 S   0  0  0  0  0  0
   -0.3286   48.4889   20.0765 C   0  0  0  0  0  0
   -2.4219   49.5126   21.3122 O   0  0  0  0  0  0
   -1.2074   47.5170   22.3411 O   0  0  0  0  0  0
   -1.0380   48.4954   18.8730 C   0  0  0  0  0  0
   -0.3635   48.2771   17.6741 C   0  0  0  0  0  0
    1.0127   48.0581   17.6860 C   0  0  0  0  0  0
    1.7217   48.0500   18.8851 C   0  0  0  0  0  0
    1.0506   48.2630   20.0838 C   0  0  0  0  0  0
    5.9426   54.9463   20.0024 H   0  0  0  0  0  0
    3.7165   54.0444   20.5256 H   0  0  0  0  0  0
    7.0334   55.0505   24.1213 H   0  0  0  0  0  0
    1.0704   53.1578   25.4257 H   0  0  0  0  0  0
    6.4383   54.7136   28.9876 H   0  0  0  0  0  0
    0.2664   54.5413   31.0099 H   0  0  0  0  0  0
   -0.6662   52.2580   31.1353 H   0  0  0  0  0  0
   -0.3206   50.6807   29.2687 H   0  0  0  0  0  0
    1.1239   51.2884   27.3841 H   0  0  0  0  0  0
    8.4595   55.4871   22.4018 H   0  0  0  0  0  0
    1.7841   53.4622   21.5109 H   0  0  0  0  0  0
    0.8622   53.8227   22.9528 H   0  0  0  0  0  0
    1.4384   51.4756   23.8448 H   0  0  0  0  0  0
    2.3195   51.1658   22.3637 H   0  0  0  0  0  0
    0.4584   49.3950   23.2129 H   0  0  0  0  0  0
   -2.1036   48.6756   18.8642 H   0  0  0  0  0  0
   -0.9018   48.2882   16.7377 H   0  0  0  0  0  0
    1.5439   47.9083   16.7566 H   0  0  0  0  0  0
    2.7931   47.8988   18.8763 H   0  0  0  0  0  0
    1.6076   48.2639   21.0092 H   0  0  0  0  0  0
  1  4  1  0  0  0
  1 25  1  0  0  0
  1  2  2  0  0  0
  2  3  1  0  0  0
  2 41  1  0  0  0
  3  6  2  0  0  0
  3 42  1  0  0  0
  4  5  2  0  0  0
  4 43  1  0  0  0
  5  6  1  0  0  0
  5  8  1  0  0  0
  6  7  1  0  0  0
  7 26  1  0  0  0
  7  9  1  0  0  0
  8  9  2  0  0  0
  8 12  1  0  0  0
  9 10  1  0  0  0
 10 11  2  0  0  0
 10 44  1  0  0  0
 11 19  1  0  0  0
 11 13  1  0  0  0
 12 13  2  0  0  0
 12 16  1  0  0  0
 13 14  1  0  0  0
 14 15  1  0  0  0
 14 17  2  0  0  0
 15 16  1  0  0  0
 15 45  1  0  0  0
 16 18  2  0  0  0
 19 20  2  0  0  0
 19 24  1  0  0  0
 20 21  1  0  0  0
 20 28  1  0  0  0
 21 22  2  0  0  0
 21 46  1  0  0  0
 22 23  1  0  0  0
 22 47  1  0  0  0
 23 24  2  0  0  0
 23 48  1  0  0  0
 24 49  1  0  0  0
 25 50  1  0  0  0
 26 27  1  0  0  0
 26 51  1  0  0  0
 26 52  1  0  0  0
 27 29  1  0  0  0
 27 53  1  0  0  0
 27 54  1  0  0  0
 29 30  1  0  0  0
 29 31  2  0  0  0
 30 32  1  0  0  0
 30 55  1  0  0  0
 32 33  1  0  0  0
 32 34  2  0  0  0
 32 35  2  0  0  0
 33 36  2  0  0  0
 33 40  1  0  0  0
 36 37  1  0  0  0
 36 56  1  0  0  0
 37 38  2  0  0  0
 37 57  1  0  0  0
 38 39  1  0  0  0
 38 58  1  0  0  0
 39 40  2  0  0  0
 39 59  1  0  0  0
 40 60  1  0  0  0
M  END
> <s_m_entry_id>
46272

> <s_m_entry_name>
dock_pv.13

> <s_m_Source_Path>
/home/csk/Desktop/cluster/DUD-E-result/wee1

> <s_m_Source_File>
dock_pv.maegz

> <i_m_Source_File_Index>
13

> <chembl_id>
CHEMBL515352

> <chembl_pref_name>
None

> <i_lp_mmshare_version>
53161

> <r_lp_tautomer_probability>
1

> <s_lp_Force_Field>
OPLS_2005

> <r_lp_Energy>
78.142198

> <b_lp_Chiralities_Consistent>
1

> <s_lp_Variant>
CHEMBL5491_lig205-1

> <s_i_glide_gridfile>
glide-grid_3biz

> <i_i_glide_lignum>
215

> <i_i_glide_rotatable_bonds>
8

> <r_i_docking_score>
-10.5179181023713

> <r_i_glide_ligand_efficiency>
-0.262947952559283

> <r_i_glide_ligand_efficiency_sa>
-0.899269347102752

> <r_i_glide_ligand_efficiency_ln>
-2.24316240272355

> <r_i_glide_gscore>
-10.5179181023713

> <r_i_glide_lipo>
-3.74588314390204

> <r_i_glide_hbond>
-0.786490579325785

> <r_i_glide_metal>
0

> <r_i_glide_rewards>
-1.34004164950333

> <r_i_glide_evdw>
-54.6510620117188

> <r_i_glide_ecoul>
-14.0882110595703

> <r_i_glide_erotb>
0.20036251892305

> <r_i_glide_esite>
-8.04890417220458e-05

> <r_i_glide_emodel>
-106.488332994636

> <r_i_glide_energy>
-68.7392730712891

> <r_i_glide_einternal>
6.00129270553589

> <i_i_glide_confnum>
5

> <i_i_glide_posenum>
345

> <r_i_glide_eff_state_penalty>
0

> <s_user_duplicate_titles>
CHEMBL5491_lig205

> <i_f3d_flags>
0

> <s_m_subgroup_title>
dock_pv

> <s_m_subgroupid>
dock_pv

> <b_m_subgroup_collapsed>
1

$$$$
CHEMBL5491_lig168
                    3D
 Schrodinger Suite 2021-1.
 42 46  0  0  1  0            999 V2000
    6.8590   55.3368   21.5799 C   0  0  0  0  0  0
    5.9626   55.0443   20.5571 C   0  0  0  0  0  0
    4.7181   54.4674   20.8181 C   0  0  0  0  0  0
    6.5473   55.0615   22.9049 C   0  0  0  0  0  0
    5.2825   54.5427   23.2212 C   0  0  0  0  0  0
    4.3784   54.2628   22.1620 C   0  0  0  0  0  0
    3.2018   53.8278   22.7370 N   0  0  0  0  0  0
    4.6183   54.2653   24.4373 C   0  0  0  0  0  0
    3.3015   53.8452   24.1157 C   0  0  0  0  0  0
    2.3611   53.5179   25.1027 C   0  0  0  0  0  0
    2.7331   53.6497   26.4532 C   0  0  0  0  0  0
    4.9647   54.3566   25.7969 C   0  0  0  0  0  0
    4.0441   54.0530   26.7714 C   0  0  0  0  0  0
    4.7350   54.2612   28.0849 C   0  0  0  0  0  0
    5.9794   54.6629   27.7858 N   0  0  0  0  0  0
    6.2182   54.7750   26.4732 C   0  0  0  0  0  0
    4.3086   54.1198   29.2276 O   0  0  0  0  0  0
    7.2640   55.1745   25.9792 O   0  0  0  0  0  0
    8.0841   55.8629   21.2862 O   0  0  0  0  0  0
    1.6741   53.3326   27.5203 C   0  0  2  0  0  0
    1.3090   54.5617   28.4096 C   0  0  0  0  0  0
    0.6365   54.2625   29.6774 N   0  0  1  0  0  0
    1.1746   53.1202   30.4086 C   0  0  0  0  0  0
    1.2071   51.8632   29.5296 C   0  0  0  0  0  0
    2.0410   52.0379   28.2704 C   0  0  0  0  0  0
    6.2434   55.2522   19.5355 H   0  0  0  0  0  0
    4.0281   54.2515   20.0152 H   0  0  0  0  0  0
    7.2722   55.2918   23.6633 H   0  0  0  0  0  0
    2.3750   53.5694   22.2153 H   0  0  0  0  0  0
    1.3672   53.1937   24.8294 H   0  0  0  0  0  0
    6.6603   54.9096   28.4919 H   0  0  0  0  0  0
    8.6798   55.8601   22.0438 H   0  0  0  0  0  0
    0.7605   53.1007   26.9692 H   0  0  0  0  0  0
    0.6385   55.2090   27.8428 H   0  0  0  0  0  0
    2.1797   55.1769   28.6314 H   0  0  0  0  0  0
    0.6558   55.0771   30.2768 H   0  0  0  0  0  0
    2.1763   53.3640   30.7715 H   0  0  0  0  0  0
    0.5513   52.9457   31.2882 H   0  0  0  0  0  0
    1.6783   51.0633   30.0869 H   0  0  0  0  0  0
    0.1927   51.5272   29.3071 H   0  0  0  0  0  0
    3.0981   51.9979   28.5319 H   0  0  0  0  0  0
    1.8452   51.1738   27.6339 H   0  0  0  0  0  0
  1  2  2  0  0  0
  1 19  1  0  0  0
  1  4  1  0  0  0
  2  3  1  0  0  0
  2 26  1  0  0  0
  3  6  2  0  0  0
  3 27  1  0  0  0
  4  5  2  0  0  0
  4 28  1  0  0  0
  5  8  1  0  0  0
  5  6  1  0  0  0
  6  7  1  0  0  0
  7  9  1  0  0  0
  7 29  1  0  0  0
  8 12  1  0  0  0
  8  9  2  0  0  0
  9 10  1  0  0  0
 10 11  2  0  0  0
 10 30  1  0  0  0
 11 13  1  0  0  0
 11 20  1  0  0  0
 12 13  2  0  0  0
 12 16  1  0  0  0
 13 14  1  0  0  0
 14 15  1  0  0  0
 14 17  2  0  0  0
 15 16  1  0  0  0
 15 31  1  0  0  0
 16 18  2  0  0  0
 19 32  1  0  0  0
 20 21  1  0  0  0
 20 25  1  0  0  0
 20 33  1  0  0  0
 21 22  1  0  0  0
 21 34  1  0  0  0
 21 35  1  0  0  0
 22 23  1  0  0  0
 22 36  1  0  0  0
 23 24  1  0  0  0
 23 37  1  0  0  0
 23 38  1  0  0  0
 24 25  1  0  0  0
 24 39  1  0  0  0
 24 40  1  0  0  0
 25 41  1  0  0  0
 25 42  1  0  0  0
M  END
> <s_m_entry_id>
46273

> <s_m_entry_name>
dock_pv.14

> <s_m_Source_Path>
/home/csk/Desktop/cluster/DUD-E-result/wee1

> <s_m_Source_File>
dock_pv.maegz

> <i_m_Source_File_Index>
14

> <chembl_id>
CHEMBL211306

> <chembl_pref_name>
None

> <i_lp_mmshare_version>
53161

> <r_lp_tautomer_probability>
1

> <s_lp_Force_Field>
OPLS_2005

> <r_lp_Energy>
71.619902

> <b_lp_Chiralities_Consistent>
1

> <s_lp_Variant>
CHEMBL5491_lig168-1

> <s_i_glide_gridfile>
glide-grid_3biz

> <i_i_glide_lignum>
171

> <i_i_glide_rotatable_bonds>
2

> <r_i_docking_score>
-10.4435762690158

> <r_i_glide_ligand_efficiency>
-0.417743050760631

> <r_i_glide_ligand_efficiency_sa>
-1.22148808912864

> <r_i_glide_ligand_efficiency_ln>
-2.4754405444825

> <r_i_glide_gscore>
-10.4435762690158

> <r_i_glide_lipo>
-3.28375581063629

> <r_i_glide_hbond>
-0.864

> <r_i_glide_metal>
0

> <r_i_glide_rewards>
-2.91777478332074

> <r_i_glide_evdw>
-37.404598236084

> <r_i_glide_ecoul>
-10.8352117538452

> <r_i_glide_erotb>
0.117465999822227

> <r_i_glide_esite>
0

> <r_i_glide_emodel>
-75.8264921125301

> <r_i_glide_energy>
-48.2398099899292

> <r_i_glide_einternal>
1.31593596935272

> <i_i_glide_confnum>
2

> <i_i_glide_posenum>
231

> <r_i_glide_eff_state_penalty>
0

> <s_user_duplicate_titles>
CHEMBL5491_lig168

> <i_f3d_flags>
0

> <s_m_subgroup_title>
dock_pv

> <s_m_subgroupid>
dock_pv

> <b_m_subgroup_collapsed>
1

$$$$
CHEMBL5491_lig123
                    3D
 Schrodinger Suite 2021-1.
 40 44  0  0  1  0            999 V2000
    6.8330   55.2541   21.9683 C   0  0  0  0  0  0
    5.9501   55.0136   20.9218 C   0  0  0  0  0  0
    4.6824   54.4742   21.1406 C   0  0  0  0  0  0
    6.4773   54.9754   23.2883 C   0  0  0  0  0  0
    5.1752   54.5106   23.5624 C   0  0  0  0  0  0
    4.2969   54.2647   22.4707 C   0  0  0  0  0  0
    3.0883   53.8615   22.9937 N   0  0  0  0  0  0
    4.4553   54.2327   24.7523 C   0  0  0  0  0  0
    3.1471   53.8317   24.3729 C   0  0  0  0  0  0
    2.1721   53.4627   25.3096 C   0  0  0  0  0  0
    2.5111   53.4636   26.6764 C   0  0  0  0  0  0
    4.7573   54.2462   26.1269 C   0  0  0  0  0  0
    3.8184   53.8398   27.0486 C   0  0  0  0  0  0
    4.5043   53.8526   28.3812 C   0  0  0  0  0  0
    5.7363   54.3330   28.1519 N   0  0  0  0  0  0
    5.9939   54.6063   26.8662 C   0  0  0  0  0  0
    4.0829   53.4997   29.4803 O   0  0  0  0  0  0
    7.0442   55.0636   26.4373 O   0  0  0  0  0  0
    8.0769   55.7523   21.6867 O   0  0  0  0  0  0
    1.4772   53.0316   27.6716 C   0  0  0  0  0  0
    1.3070   53.6828   28.9064 C   0  0  0  0  0  0
    0.4632   53.1609   29.8897 C   0  0  0  0  0  0
   -0.3281   52.0559   29.5938 C   0  0  0  0  0  0
   -0.2729   51.4815   28.3305 C   0  0  0  0  0  0
    0.6454   51.9377   27.3919 C   0  0  0  0  0  0
    0.4135   53.7784   31.2751 C   0  0  0  0  0  0
    6.2668   55.2243   19.9111 H   0  0  0  0  0  0
    4.0096   54.2930   20.3153 H   0  0  0  0  0  0
    7.1826   55.1685   24.0762 H   0  0  0  0  0  0
    2.2780   53.6240   22.4379 H   0  0  0  0  0  0
    1.1873   53.1648   24.9854 H   0  0  0  0  0  0
    6.4122   54.4893   28.8849 H   0  0  0  0  0  0
    8.6980   55.6046   22.4159 H   0  0  0  0  0  0
    1.8890   54.5626   29.1409 H   0  0  0  0  0  0
   -1.0016   51.6455   30.3362 H   0  0  0  0  0  0
   -0.9273   50.6620   28.0882 H   0  0  0  0  0  0
    0.7104   51.4194   26.4473 H   0  0  0  0  0  0
   -0.4743   53.4630   31.8241 H   0  0  0  0  0  0
    1.2811   53.4613   31.8496 H   0  0  0  0  0  0
    0.4106   54.8670   31.2206 H   0  0  0  0  0  0
  1  2  2  0  0  0
  1 19  1  0  0  0
  1  4  1  0  0  0
  2  3  1  0  0  0
  2 27  1  0  0  0
  3  6  2  0  0  0
  3 28  1  0  0  0
  4  5  2  0  0  0
  4 29  1  0  0  0
  5  8  1  0  0  0
  5  6  1  0  0  0
  6  7  1  0  0  0
  7  9  1  0  0  0
  7 30  1  0  0  0
  8  9  2  0  0  0
  8 12  1  0  0  0
  9 10  1  0  0  0
 10 11  2  0  0  0
 10 31  1  0  0  0
 11 13  1  0  0  0
 11 20  1  0  0  0
 12 13  2  0  0  0
 12 16  1  0  0  0
 13 14  1  0  0  0
 14 15  1  0  0  0
 14 17  2  0  0  0
 15 16  1  0  0  0
 15 32  1  0  0  0
 16 18  2  0  0  0
 19 33  1  0  0  0
 20 21  2  0  0  0
 20 25  1  0  0  0
 21 22  1  0  0  0
 21 34  1  0  0  0
 22 23  2  0  0  0
 22 26  1  0  0  0
 23 24  1  0  0  0
 23 35  1  0  0  0
 24 25  2  0  0  0
 24 36  1  0  0  0
 25 37  1  0  0  0
 26 38  1  0  0  0
 26 39  1  0  0  0
 26 40  1  0  0  0
M  END
> <s_m_entry_id>
46274

> <s_m_entry_name>
dock_pv.15

> <s_m_Source_Path>
/home/csk/Desktop/cluster/DUD-E-result/wee1

> <s_m_Source_File>
dock_pv.maegz

> <i_m_Source_File_Index>
15

> <chembl_id>
CHEMBL380048

> <chembl_pref_name>
None

> <i_lp_mmshare_version>
53161

> <r_lp_tautomer_probability>
1

> <s_lp_Force_Field>
OPLS_2005

> <r_lp_Energy>
66.783866

> <b_lp_Chiralities_Consistent>
1

> <s_lp_Variant>
CHEMBL5491_lig123-1

> <s_i_glide_gridfile>
glide-grid_3biz

> <i_i_glide_lignum>
125

> <i_i_glide_rotatable_bonds>
2

> <r_i_docking_score>
-10.3278613010885

> <r_i_glide_ligand_efficiency>
-0.397225434657249

> <r_i_glide_ligand_efficiency_sa>
-1.17677878716549

> <r_i_glide_ligand_efficiency_ln>
-2.42546433808363

> <r_i_glide_gscore>
-10.3278613010885

> <r_i_glide_lipo>
-2.99202592694735

> <r_i_glide_hbond>
-0.669845445420167

> <r_i_glide_metal>
0

> <r_i_glide_rewards>
-2.81360220242841

> <r_i_glide_evdw>
-39.9425735473633

> <r_i_glide_ecoul>
-13.1233854293823

> <r_i_glide_erotb>
0.113248765482952

> <r_i_glide_esite>
0

> <r_i_glide_emodel>
-83.4664943675891

> <r_i_glide_energy>
-53.0659589767456

> <r_i_glide_einternal>
2.72891569137573

> <i_i_glide_confnum>
4

> <i_i_glide_posenum>
163

> <r_i_glide_eff_state_penalty>
0

> <s_user_duplicate_titles>
CHEMBL5491_lig123,355518

> <i_f3d_flags>
0

> <s_m_subgroup_title>
dock_pv

> <s_m_subgroupid>
dock_pv

> <b_m_subgroup_collapsed>
1

$$$$
CHEMBL5491_lig271
                    3D
 Schrodinger Suite 2021-1.
 37 40  0  0  1  0            999 V2000
    6.4574   54.9663   22.0241 C   0  0  0  0  0  0
    5.5436   54.6646   21.0204 C   0  0  0  0  0  0
    4.2846   54.1356   21.3041 C   0  0  0  0  0  0
    6.1524   54.7197   23.3586 C   0  0  0  0  0  0
    4.8644   54.2631   23.6942 C   0  0  0  0  0  0
    3.9416   53.9685   22.6542 C   0  0  0  0  0  0
    2.7595   53.5370   23.2442 N   0  0  0  0  0  0
    4.2124   54.0377   24.9219 C   0  0  0  0  0  0
    2.8968   53.5620   24.6281 C   0  0  0  0  0  0
    1.9974   53.2096   25.6511 C   0  0  0  0  0  0
    2.4264   53.3504   26.9740 C   0  0  0  0  0  0
    4.5902   54.1732   26.2738 C   0  0  0  0  0  0
    3.7022   53.8267   27.2561 C   0  0  0  0  0  0
    4.3715   54.0455   28.5627 C   0  0  0  0  0  0
    5.5948   54.5197   28.2646 N   0  0  0  0  0  0
    5.8374   54.6383   26.9472 C   0  0  0  0  0  0
    7.6790   55.4839   21.6869 O   0  0  0  0  0  0
    3.9266   53.8457   29.6883 O   0  0  0  0  0  0
    6.8791   55.0632   26.4585 O   0  0  0  0  0  0
    1.5587   53.1265   22.5057 C   0  0  0  0  0  0
    1.6824   51.7267   21.8538 C   0  0  0  0  0  0
    1.6791   50.5536   22.8357 C   0  0  0  0  0  0
    1.0664   50.6157   23.8966 O   0  0  0  0  0  0
    2.3564   49.4644   22.4869 N   0  0  0  0  0  0
    5.8177   54.8419   19.9904 H   0  0  0  0  0  0
    3.5953   53.9072   20.5056 H   0  0  0  0  0  0
    6.8877   54.9430   24.1107 H   0  0  0  0  0  0
    1.0099   52.8274   25.4393 H   0  0  0  0  0  0
    1.7572   53.0751   27.7782 H   0  0  0  0  0  0
    6.2709   54.7876   28.9654 H   0  0  0  0  0  0
    8.3181   55.4626   22.4128 H   0  0  0  0  0  0
    0.6915   53.1822   23.1650 H   0  0  0  0  0  0
    1.3772   53.8614   21.7280 H   0  0  0  0  0  0
    0.8415   51.5790   21.1765 H   0  0  0  0  0  0
    2.5733   51.6865   21.2250 H   0  0  0  0  0  0
    2.4356   48.7085   23.1631 H   0  0  0  0  0  0
    2.8299   49.3993   21.5966 H   0  0  0  0  0  0
  1 17  1  0  0  0
  1  2  2  0  0  0
  1  4  1  0  0  0
  2  3  1  0  0  0
  2 25  1  0  0  0
  3  6  2  0  0  0
  3 26  1  0  0  0
  4  5  2  0  0  0
  4 27  1  0  0  0
  5  8  1  0  0  0
  5  6  1  0  0  0
  6  7  1  0  0  0
  7  9  1  0  0  0
  7 20  1  0  0  0
  8 12  1  0  0  0
  8  9  2  0  0  0
  9 10  1  0  0  0
 10 11  2  0  0  0
 10 28  1  0  0  0
 11 13  1  0  0  0
 11 29  1  0  0  0
 12 13  2  0  0  0
 12 16  1  0  0  0
 13 14  1  0  0  0
 14 15  1  0  0  0
 14 18  2  0  0  0
 15 16  1  0  0  0
 15 30  1  0  0  0
 16 19  2  0  0  0
 17 31  1  0  0  0
 20 21  1  0  0  0
 20 32  1  0  0  0
 20 33  1  0  0  0
 21 22  1  0  0  0
 21 34  1  0  0  0
 21 35  1  0  0  0
 22 23  2  0  0  0
 22 24  1  0  0  0
 24 36  1  0  0  0
 24 37  1  0  0  0
M  END
> <s_m_entry_id>
46275

> <s_m_entry_name>
dock_pv.16

> <s_m_Source_Path>
/home/csk/Desktop/cluster/DUD-E-result/wee1

> <s_m_Source_File>
dock_pv.maegz

> <i_m_Source_File_Index>
16

> <chembl_id>
CHEMBL484808

> <chembl_pref_name>
None

> <i_lp_mmshare_version>
53161

> <r_lp_tautomer_probability>
1

> <s_lp_Force_Field>
OPLS_2005

> <r_lp_Energy>
61.542854

> <b_lp_Chiralities_Consistent>
1

> <s_lp_Variant>
CHEMBL5491_lig271-1

> <s_i_glide_gridfile>
glide-grid_3biz

> <i_i_glide_lignum>
284

> <i_i_glide_rotatable_bonds>
4

> <r_i_docking_score>
-10.3242067309795

> <r_i_glide_ligand_efficiency>
-0.43017528045748

> <r_i_glide_ligand_efficiency_sa>
-1.24084022547885

> <r_i_glide_ligand_efficiency_ln>
-2.47105641770052

> <r_i_glide_gscore>
-10.3242067309795

> <r_i_glide_lipo>
-2.61220918001929

> <r_i_glide_hbond>
-1.15709897045653

> <r_i_glide_metal>
0

> <r_i_glide_rewards>
-3.20547550064577

> <r_i_glide_evdw>
-36.1849937438965

> <r_i_glide_ecoul>
-11.796010017395

> <r_i_glide_erotb>
0.250630237462266

> <r_i_glide_esite>
-0.0214021275161217

> <r_i_glide_emodel>
-76.8693549392119

> <r_i_glide_energy>
-47.9810037612915

> <r_i_glide_einternal>
0.981566190719604

> <i_i_glide_confnum>
2

> <i_i_glide_posenum>
361

> <r_i_glide_eff_state_penalty>
0

> <s_user_duplicate_titles>
CHEMBL5491_lig271,523470

> <i_f3d_flags>
0

> <s_m_subgroup_title>
dock_pv

> <s_m_subgroupid>
dock_pv

> <b_m_subgroup_collapsed>
1

$$$$
CHEMBL5491_lig153
                    3D
 Schrodinger Suite 2021-1.
 43 47  0  0  1  0            999 V2000
    6.8456   55.3218   21.9324 C   0  0  0  0  0  0
    5.9828   55.0522   20.8749 C   0  0  0  0  0  0
    4.7257   54.4791   21.0812 C   0  0  0  0  0  0
    6.4818   55.0317   23.2442 C   0  0  0  0  0  0
    5.1964   54.5328   23.5050 C   0  0  0  0  0  0
    4.3317   54.2671   22.4077 C   0  0  0  0  0  0
    3.1235   53.8603   22.9277 N   0  0  0  0  0  0
    4.4874   54.2379   24.6898 C   0  0  0  0  0  0
    3.1765   53.8450   24.3070 C   0  0  0  0  0  0
    2.1971   53.4999   25.2463 C   0  0  0  0  0  0
    2.5423   53.5092   26.6096 C   0  0  0  0  0  0
    4.7991   54.2333   26.0615 C   0  0  0  0  0  0
    3.8596   53.8299   26.9771 C   0  0  0  0  0  0
    4.5522   53.7640   28.2999 C   0  0  0  0  0  0
    5.7812   54.2629   28.0888 N   0  0  0  0  0  0
    6.0331   54.5848   26.8110 C   0  0  0  0  0  0
    4.1292   53.3444   29.3743 O   0  0  0  0  0  0
    7.0768   55.0704   26.3954 O   0  0  0  0  0  0
    8.0786   55.8605   21.6829 O   0  0  0  0  0  0
    1.5062   53.1240   27.6136 C   0  0  0  0  0  0
    1.1866   53.8824   28.7701 C   0  0  0  0  0  0
    0.3222   53.3331   29.7392 C   0  0  0  0  0  0
   -0.3210   52.1242   29.4905 C   0  0  0  0  0  0
   -0.1169   51.4630   28.2933 C   0  0  0  0  0  0
    0.8167   51.9298   27.3865 C   0  0  0  0  0  0
    1.7260   55.3001   28.9799 C   0  0  0  0  0  0
    0.0374   54.0200   31.0655 C   0  0  0  0  0  0
    6.3000   55.2752   19.8666 H   0  0  0  0  0  0
    4.0629   54.2840   20.2499 H   0  0  0  0  0  0
    7.1761   55.2445   24.0376 H   0  0  0  0  0  0
    2.3152   53.6224   22.3699 H   0  0  0  0  0  0
    1.2026   53.2209   24.9319 H   0  0  0  0  0  0
    6.4565   54.3961   28.8266 H   0  0  0  0  0  0
    8.6973   55.6907   22.4078 H   0  0  0  0  0  0
   -1.0060   51.6971   30.2102 H   0  0  0  0  0  0
   -0.6589   50.5620   28.0782 H   0  0  0  0  0  0
    1.0021   51.3430   26.4990 H   0  0  0  0  0  0
    2.2212   55.7092   28.1009 H   0  0  0  0  0  0
    2.4131   55.3335   29.8249 H   0  0  0  0  0  0
    0.9079   55.9841   29.2046 H   0  0  0  0  0  0
   -0.6885   53.4628   31.6616 H   0  0  0  0  0  0
    0.9262   54.0871   31.6769 H   0  0  0  0  0  0
   -0.3210   55.0345   30.9022 H   0  0  0  0  0  0
  1  2  2  0  0  0
  1 19  1  0  0  0
  1  4  1  0  0  0
  2  3  1  0  0  0
  2 28  1  0  0  0
  3  6  2  0  0  0
  3 29  1  0  0  0
  4  5  2  0  0  0
  4 30  1  0  0  0
  5  8  1  0  0  0
  5  6  1  0  0  0
  6  7  1  0  0  0
  7  9  1  0  0  0
  7 31  1  0  0  0
  8  9  2  0  0  0
  8 12  1  0  0  0
  9 10  1  0  0  0
 10 11  2  0  0  0
 10 32  1  0  0  0
 11 13  1  0  0  0
 11 20  1  0  0  0
 12 16  1  0  0  0
 12 13  2  0  0  0
 13 14  1  0  0  0
 14 15  1  0  0  0
 14 17  2  0  0  0
 15 16  1  0  0  0
 15 33  1  0  0  0
 16 18  2  0  0  0
 19 34  1  0  0  0
 20 21  2  0  0  0
 20 25  1  0  0  0
 21 22  1  0  0  0
 21 26  1  0  0  0
 22 23  2  0  0  0
 22 27  1  0  0  0
 23 24  1  0  0  0
 23 35  1  0  0  0
 24 25  2  0  0  0
 24 36  1  0  0  0
 25 37  1  0  0  0
 26 38  1  0  0  0
 26 39  1  0  0  0
 26 40  1  0  0  0
 27 41  1  0  0  0
 27 42  1  0  0  0
 27 43  1  0  0  0
M  END
> <s_m_entry_id>
46276

> <s_m_entry_name>
dock_pv.17

> <s_m_Source_Path>
/home/csk/Desktop/cluster/DUD-E-result/wee1

> <s_m_Source_File>
dock_pv.maegz

> <i_m_Source_File_Index>
17

> <chembl_id>
CHEMBL212945

> <chembl_pref_name>
None

> <i_lp_mmshare_version>
53161

> <r_lp_tautomer_probability>
1

> <s_lp_Force_Field>
OPLS_2005

> <r_lp_Energy>
68.136801

> <b_lp_Chiralities_Consistent>
1

> <s_lp_Variant>
CHEMBL5491_lig153-1

> <s_i_glide_gridfile>
glide-grid_3biz

> <i_i_glide_lignum>
156

> <i_i_glide_rotatable_bonds>
2

> <r_i_docking_score>
-10.3170402903309

> <r_i_glide_ligand_efficiency>
-0.382112603345589

> <r_i_glide_ligand_efficiency_sa>
-1.14633780877739

> <r_i_glide_ligand_efficiency_ln>
-2.40163688988661

> <r_i_glide_gscore>
-10.3170402903309

> <r_i_glide_lipo>
-3.2852664529266

> <r_i_glide_hbond>
-0.639067161098917

> <r_i_glide_metal>
0

> <r_i_glide_rewards>
-2.62120569077281

> <r_i_glide_evdw>
-40.1337394714355

> <r_i_glide_ecoul>
-12.4684114456177

> <r_i_glide_erotb>
0.10544770488185

> <r_i_glide_esite>
0

> <r_i_glide_emodel>
-75.0973336519583

> <r_i_glide_energy>
-52.6021509170532

> <r_i_glide_einternal>
2.40355253219604

> <i_i_glide_confnum>
1

> <i_i_glide_posenum>
93

> <r_i_glide_eff_state_penalty>
0

> <s_user_duplicate_titles>
CHEMBL5491_lig153,355946

> <i_f3d_flags>
0

> <s_m_subgroup_title>
dock_pv

> <s_m_subgroupid>
dock_pv

> <b_m_subgroup_collapsed>
1

$$$$
CHEMBL5491_lig175
                    3D
 Schrodinger Suite 2021-1.
 37 41  0  0  1  0            999 V2000
    8.0789   55.7320   21.6862 O   0  0  0  0  0  0
    6.8326   55.2418   21.9750 C   0  0  0  0  0  0
    5.9438   54.9996   20.9335 C   0  0  0  0  0  0
    4.6744   54.4684   21.1589 C   0  0  0  0  0  0
    4.2952   54.2627   22.4898 C   0  0  0  0  0  0
    5.1781   54.5078   23.5772 C   0  0  0  0  0  0
    6.4789   54.9697   23.2962 C   0  0  0  0  0  0
    4.4638   54.2344   24.7698 C   0  0  0  0  0  0
    3.1539   53.8296   24.3969 C   0  0  0  0  0  0
    3.0887   53.8595   23.0185 N   0  0  0  0  0  0
    4.7720   54.2583   26.1428 C   0  0  0  0  0  0
    6.0096   54.6220   26.8779 C   0  0  0  0  0  0
    7.0644   55.0635   26.4407 O   0  0  0  0  0  0
    3.8329   53.8664   27.0699 C   0  0  0  0  0  0
    4.5113   53.9025   28.4032 C   0  0  0  0  0  0
    4.0790   53.5793   29.5062 O   0  0  0  0  0  0
    5.7468   54.3730   28.1691 N   0  0  0  0  0  0
    2.5272   53.4888   26.7039 C   0  0  0  0  0  0
    2.1845   53.4630   25.3413 C   0  0  0  0  0  0
    1.4941   53.1026   27.7122 C   0  0  0  0  0  0
    1.2695   53.8764   28.8604 C   0  0  0  0  0  0
    0.3950   53.4410   29.8525 C   0  0  0  0  0  0
   -0.3209   52.2629   29.6663 C   0  0  0  0  0  0
   -0.1869   51.5433   28.4863 C   0  0  0  0  0  0
    0.7321   51.9437   27.5239 C   0  0  0  0  0  0
    8.7027   55.5770   22.4138 H   0  0  0  0  0  0
    6.2538   55.2077   19.9193 H   0  0  0  0  0  0
    3.9967   54.2858   20.3366 H   0  0  0  0  0  0
    7.1918   55.1628   24.0788 H   0  0  0  0  0  0
    2.2756   53.6242   22.4677 H   0  0  0  0  0  0
    6.4216   54.5431   28.9004 H   0  0  0  0  0  0
    1.1952   53.1619   25.0293 H   0  0  0  0  0  0
    1.8213   54.7922   29.0193 H   0  0  0  0  0  0
    0.2811   54.0106   30.7649 H   0  0  0  0  0  0
   -0.9934   51.9000   30.4310 H   0  0  0  0  0  0
   -0.7837   50.6631   28.3268 H   0  0  0  0  0  0
    0.8617   51.3335   26.6417 H   0  0  0  0  0  0
  1  2  1  0  0  0
  1 26  1  0  0  0
  2  3  1  0  0  0
  2  7  2  0  0  0
  3  4  2  0  0  0
  3 27  1  0  0  0
  4  5  1  0  0  0
  4 28  1  0  0  0
  5  6  2  0  0  0
  5 10  1  0  0  0
  6  7  1  0  0  0
  6  8  1  0  0  0
  7 29  1  0  0  0
  8  9  1  0  0  0
  8 11  2  0  0  0
  9 10  1  0  0  0
  9 19  2  0  0  0
 10 30  1  0  0  0
 11 12  1  0  0  0
 11 14  1  0  0  0
 12 13  2  0  0  0
 12 17  1  0  0  0
 14 15  1  0  0  0
 14 18  2  0  0  0
 15 16  2  0  0  0
 15 17  1  0  0  0
 17 31  1  0  0  0
 18 19  1  0  0  0
 18 20  1  0  0  0
 19 32  1  0  0  0
 20 21  2  0  0  0
 20 25  1  0  0  0
 21 22  1  0  0  0
 21 33  1  0  0  0
 22 23  2  0  0  0
 22 34  1  0  0  0
 23 24  1  0  0  0
 23 35  1  0  0  0
 24 25  2  0  0  0
 24 36  1  0  0  0
 25 37  1  0  0  0
M  END
> <s_m_entry_id>
46277

> <s_m_entry_name>
dock_pv.18

> <s_m_Source_Path>
/home/csk/Desktop/cluster/DUD-E-result/wee1

> <s_m_Source_File>
dock_pv.maegz

> <i_m_Source_File_Index>
18

> <chembl_id>
CHEMBL214253

> <chembl_pref_name>
None

> <i_lp_mmshare_version>
53161

> <r_lp_tautomer_probability>
1

> <s_lp_Force_Field>
OPLS_2005

> <r_lp_Energy>
66.671833

> <b_lp_Chiralities_Consistent>
1

> <s_lp_Variant>
CHEMBL5491_lig175-1

> <s_i_glide_gridfile>
glide-grid_3biz

> <i_i_glide_lignum>
179

> <i_i_glide_rotatable_bonds>
2

> <r_i_docking_score>
-10.2705810421727

> <r_i_glide_ligand_efficiency>
-0.410823241686908

> <r_i_glide_ligand_efficiency_sa>
-1.20125444467374

> <r_i_glide_ligand_efficiency_ln>
-2.43443549147208

> <r_i_glide_gscore>
-10.2705810421727

> <r_i_glide_lipo>
-2.98891526601641

> <r_i_glide_hbond>
-0.695638604481903

> <r_i_glide_metal>
0

> <r_i_glide_rewards>
-2.92177873704313

> <r_i_glide_evdw>
-37.7820167541504

> <r_i_glide_ecoul>
-12.6473445892334

> <r_i_glide_erotb>
0.121954091461262

> <r_i_glide_esite>
0

> <r_i_glide_emodel>
-80.3627364334913

> <r_i_glide_energy>
-50.4293613433838

> <r_i_glide_einternal>
1.18018186092377

> <i_i_glide_confnum>
4

> <i_i_glide_posenum>
304

> <r_i_glide_eff_state_penalty>
0

> <s_user_duplicate_titles>
CHEMBL5491_lig175,355217

> <i_f3d_flags>
0

> <s_m_subgroup_title>
dock_pv

> <s_m_subgroupid>
dock_pv

> <b_m_subgroup_collapsed>
1

$$$$
CHEMBL5491_lig166
                    3D
 Schrodinger Suite 2021-1.
 36 40  0  0  1  0            999 V2000
    6.4746   55.0515   22.0184 C   0  0  0  0  0  0
    5.5525   54.7730   21.0156 C   0  0  0  0  0  0
    4.2924   54.2548   21.3050 C   0  0  0  0  0  0
    6.1895   54.7771   23.3513 C   0  0  0  0  0  0
    4.8995   54.3395   23.6951 C   0  0  0  0  0  0
    3.9661   54.0833   22.6547 C   0  0  0  0  0  0
    2.7895   53.6828   23.2494 N   0  0  0  0  0  0
    4.2402   54.1228   24.9220 C   0  0  0  0  0  0
    2.9188   53.6998   24.6230 C   0  0  0  0  0  0
    1.9971   53.3744   25.6246 C   0  0  0  0  0  0
    2.4052   53.4543   26.9667 C   0  0  0  0  0  0
    4.6097   54.2219   26.2749 C   0  0  0  0  0  0
    3.7189   53.8655   27.2581 C   0  0  0  0  0  0
    4.4569   53.9814   28.5548 C   0  0  0  0  0  0
    5.6701   54.4688   28.2457 N   0  0  0  0  0  0
    5.8657   54.6623   26.9346 C   0  0  0  0  0  0
    4.0790   53.7043   29.6878 O   0  0  0  0  0  0
    6.8804   55.1234   26.4314 O   0  0  0  0  0  0
    7.6807   55.5837   21.6860 O   0  0  0  0  0  0
    1.4288   53.0775   28.0305 C   0  0  0  0  0  0
    1.2347   53.8725   29.1702 C   0  0  0  0  0  0
    0.3902   53.4227   30.1832 C   0  0  0  0  0  0
   -0.3206   52.2724   30.0863 N   0  0  0  0  0  0
   -0.1994   51.5527   28.9449 C   0  0  0  0  0  0
    0.6725   51.9023   27.9166 C   0  0  0  0  0  0
    5.8183   54.9660   19.9873 H   0  0  0  0  0  0
    3.5871   54.0481   20.5129 H   0  0  0  0  0  0
    6.9360   54.9870   24.0970 H   0  0  0  0  0  0
    1.9537   53.4241   22.7456 H   0  0  0  0  0  0
    0.9947   53.0576   25.3736 H   0  0  0  0  0  0
    6.3677   54.7008   28.9376 H   0  0  0  0  0  0
    8.3346   55.4979   22.3938 H   0  0  0  0  0  0
    1.7726   54.8008   29.3029 H   0  0  0  0  0  0
    0.2777   53.9859   31.0997 H   0  0  0  0  0  0
   -0.8059   50.6634   28.8758 H   0  0  0  0  0  0
    0.7624   51.2579   27.0541 H   0  0  0  0  0  0
  1  2  2  0  0  0
  1 19  1  0  0  0
  1  4  1  0  0  0
  2  3  1  0  0  0
  2 26  1  0  0  0
  3  6  2  0  0  0
  3 27  1  0  0  0
  4  5  2  0  0  0
  4 28  1  0  0  0
  5  8  1  0  0  0
  5  6  1  0  0  0
  6  7  1  0  0  0
  7  9  1  0  0  0
  7 29  1  0  0  0
  8 12  1  0  0  0
  8  9  2  0  0  0
  9 10  1  0  0  0
 10 11  2  0  0  0
 10 30  1  0  0  0
 11 13  1  0  0  0
 11 20  1  0  0  0
 12 13  2  0  0  0
 12 16  1  0  0  0
 13 14  1  0  0  0
 14 15  1  0  0  0
 14 17  2  0  0  0
 15 16  1  0  0  0
 15 31  1  0  0  0
 16 18  2  0  0  0
 19 32  1  0  0  0
 20 21  2  0  0  0
 20 25  1  0  0  0
 21 22  1  0  0  0
 21 33  1  0  0  0
 22 23  2  0  0  0
 22 34  1  0  0  0
 23 24  1  0  0  0
 24 25  2  0  0  0
 24 35  1  0  0  0
 25 36  1  0  0  0
M  END
> <s_m_entry_id>
46278

> <s_m_entry_name>
dock_pv.19

> <s_m_Source_Path>
/home/csk/Desktop/cluster/DUD-E-result/wee1

> <s_m_Source_File>
dock_pv.maegz

> <i_m_Source_File_Index>
19

> <chembl_id>
CHEMBL378347

> <chembl_pref_name>
None

> <i_lp_mmshare_version>
53161

> <r_lp_tautomer_probability>
1

> <s_lp_Force_Field>
OPLS_2005

> <r_lp_Energy>
62.128768

> <b_lp_Chiralities_Consistent>
1

> <s_lp_Variant>
CHEMBL5491_lig166-1

> <s_i_glide_gridfile>
glide-grid_3biz

> <i_i_glide_lignum>
169

> <i_i_glide_rotatable_bonds>
2

> <r_i_docking_score>
-10.2153336465844

> <r_i_glide_ligand_efficiency>
-0.408613345863374

> <r_i_glide_ligand_efficiency_sa>
-1.19479267009305

> <r_i_glide_ligand_efficiency_ln>
-2.4213402030868

> <r_i_glide_gscore>
-10.2153336465844

> <r_i_glide_lipo>
-3.10836266078226

> <r_i_glide_hbond>
-0.760064745699899

> <r_i_glide_metal>
0

> <r_i_glide_rewards>
-2.85841724855059

> <r_i_glide_evdw>
-41.3712425231934

> <r_i_glide_ecoul>
-10.2749013900757

> <r_i_glide_erotb>
0.121308343119413

> <r_i_glide_esite>
0

> <r_i_glide_emodel>
-82.365881761042

> <r_i_glide_energy>
-51.646143913269

> <r_i_glide_einternal>
0.778303265571594

> <i_i_glide_confnum>
2

> <i_i_glide_posenum>
194

> <r_i_glide_eff_state_penalty>
0

> <s_user_duplicate_titles>
CHEMBL5491_lig166,355592

> <i_f3d_flags>
0

> <s_m_subgroup_title>
dock_pv

> <s_m_subgroupid>
dock_pv

> <b_m_subgroup_collapsed>
1

$$$$
CHEMBL5491_lig272
                    3D
 Schrodinger Suite 2021-1.
 37 40  0  0  1  0            999 V2000
    6.4587   55.0312   22.0313 C   0  0  0  0  0  0
    5.5237   54.7939   21.0345 C   0  0  0  0  0  0
    4.2675   54.2625   21.3159 C   0  0  0  0  0  0
    6.1732   54.7279   23.3597 C   0  0  0  0  0  0
    4.8866   54.2629   23.6953 C   0  0  0  0  0  0
    3.9482   54.0061   22.6575 C   0  0  0  0  0  0
    2.7867   53.5147   23.2489 N   0  0  0  0  0  0
    4.2442   54.0116   24.9237 C   0  0  0  0  0  0
    2.9378   53.5130   24.6322 C   0  0  0  0  0  0
    2.0515   53.1239   25.6560 C   0  0  0  0  0  0
    2.4817   53.2630   26.9782 C   0  0  0  0  0  0
    4.6215   54.1418   26.2764 C   0  0  0  0  0  0
    3.7469   53.7661   27.2603 C   0  0  0  0  0  0
    4.4131   53.9950   28.5661 C   0  0  0  0  0  0
    5.6222   54.5051   28.2650 N   0  0  0  0  0  0
    5.8545   54.6386   26.9470 C   0  0  0  0  0  0
    7.6793   55.5424   21.6874 O   0  0  0  0  0  0
    3.9767   53.7786   29.6915 O   0  0  0  0  0  0
    6.8791   55.0937   26.4532 O   0  0  0  0  0  0
    1.5655   53.0918   22.5501 C   0  0  0  0  0  0
    1.6762   51.7189   21.8408 C   0  0  0  0  0  0
    2.1759   51.7319   20.3791 C   0  0  0  0  0  0
    1.4465   52.6629   19.5915 O   0  0  0  0  0  0
    5.7762   55.0227   20.0081 H   0  0  0  0  0  0
    3.5685   54.1120   20.5123 H   0  0  0  0  0  0
    6.9222   54.9164   24.1078 H   0  0  0  0  0  0
    1.0691   52.7299   25.4501 H   0  0  0  0  0  0
    1.8211   52.9675   27.7815 H   0  0  0  0  0  0
    6.2914   54.7922   28.9645 H   0  0  0  0  0  0
    8.3335   55.4619   22.3961 H   0  0  0  0  0  0
    0.7449   53.0674   23.2663 H   0  0  0  0  0  0
    1.2789   53.8627   21.8469 H   0  0  0  0  0  0
    2.2883   51.0365   22.4312 H   0  0  0  0  0  0
    0.6859   51.2623   21.8339 H   0  0  0  0  0  0
    3.2336   51.9824   20.3244 H   0  0  0  0  0  0
    2.0574   50.7441   19.9333 H   0  0  0  0  0  0
    1.6789   53.5718   19.8331 H   0  0  0  0  0  0
  1 17  1  0  0  0
  1  2  2  0  0  0
  1  4  1  0  0  0
  2  3  1  0  0  0
  2 24  1  0  0  0
  3  6  2  0  0  0
  3 25  1  0  0  0
  4  5  2  0  0  0
  4 26  1  0  0  0
  5  8  1  0  0  0
  5  6  1  0  0  0
  6  7  1  0  0  0
  7  9  1  0  0  0
  7 20  1  0  0  0
  8 12  1  0  0  0
  8  9  2  0  0  0
  9 10  1  0  0  0
 10 11  2  0  0  0
 10 27  1  0  0  0
 11 13  1  0  0  0
 11 28  1  0  0  0
 12 13  2  0  0  0
 12 16  1  0  0  0
 13 14  1  0  0  0
 14 15  1  0  0  0
 14 18  2  0  0  0
 15 16  1  0  0  0
 15 29  1  0  0  0
 16 19  2  0  0  0
 17 30  1  0  0  0
 20 21  1  0  0  0
 20 31  1  0  0  0
 20 32  1  0  0  0
 21 22  1  0  0  0
 21 33  1  0  0  0
 21 34  1  0  0  0
 22 23  1  0  0  0
 22 35  1  0  0  0
 22 36  1  0  0  0
 23 37  1  0  0  0
M  END
> <s_m_entry_id>
46279

> <s_m_entry_name>
dock_pv.20

> <s_m_Source_Path>
/home/csk/Desktop/cluster/DUD-E-result/wee1

> <s_m_Source_File>
dock_pv.maegz

> <i_m_Source_File_Index>
20

> <chembl_id>
CHEMBL509601

> <chembl_pref_name>
None

> <i_lp_mmshare_version>
53161

> <r_lp_tautomer_probability>
1

> <s_lp_Force_Field>
OPLS_2005

> <r_lp_Energy>
61.436004

> <b_lp_Chiralities_Consistent>
1

> <s_lp_Variant>
CHEMBL5491_lig272-1

> <s_i_glide_gridfile>
glide-grid_3biz

> <i_i_glide_lignum>
285

> <i_i_glide_rotatable_bonds>
5

> <r_i_docking_score>
-10.199336074699

> <r_i_glide_ligand_efficiency>
-0.443449394552131

> <r_i_glide_ligand_efficiency_sa>
-1.26111108908391

> <r_i_glide_ligand_efficiency_ln>
-2.46629194532859

> <r_i_glide_gscore>
-10.199336074699

> <r_i_glide_lipo>
-2.5938977437888

> <r_i_glide_hbond>
-1.17298476983762

> <r_i_glide_metal>
0

> <r_i_glide_rewards>
-3.18832298662741

> <r_i_glide_evdw>
-33.4046897888184

> <r_i_glide_ecoul>
-13.1866607666016

> <r_i_glide_erotb>
0.404103029985971

> <r_i_glide_esite>
0

> <r_i_glide_emodel>
-74.5744367671921

> <r_i_glide_energy>
-46.5913505554199

> <r_i_glide_einternal>
1.13003027439117

> <i_i_glide_confnum>
1

> <i_i_glide_posenum>
230

> <r_i_glide_eff_state_penalty>
0

> <s_user_duplicate_titles>
CHEMBL5491_lig272,524343

> <i_f3d_flags>
0

> <s_m_subgroup_title>
dock_pv

> <s_m_subgroupid>
dock_pv

> <b_m_subgroup_collapsed>
1

$$$$
CHEMBL5491_lig164
                    3D
 Schrodinger Suite 2021-1.
 35 39  0  0  1  0            999 V2000
    6.4593   54.9555   22.0683 C   0  0  0  0  0  0
    5.5115   54.6711   21.0899 C   0  0  0  0  0  0
    4.2509   54.1611   21.4055 C   0  0  0  0  0  0
    6.1825   54.7067   23.4127 C   0  0  0  0  0  0
    4.8945   54.2630   23.7835 C   0  0  0  0  0  0
    3.9491   53.9936   22.7596 C   0  0  0  0  0  0
    2.7837   53.5763   23.3716 N   0  0  0  0  0  0
    4.2455   54.0412   25.0254 C   0  0  0  0  0  0
    2.9294   53.5843   24.7448 C   0  0  0  0  0  0
    2.0322   53.2170   25.7599 C   0  0  0  0  0  0
    2.4498   53.3237   27.0958 C   0  0  0  0  0  0
    4.6161   54.1660   26.3761 C   0  0  0  0  0  0
    3.7396   53.8099   27.3770 C   0  0  0  0  0  0
    4.4597   54.0409   28.6661 C   0  0  0  0  0  0
    5.6698   54.5206   28.3357 N   0  0  0  0  0  0
    5.8676   54.6404   27.0169 C   0  0  0  0  0  0
    4.0737   53.8578   29.8154 O   0  0  0  0  0  0
    6.8809   55.0767   26.4874 O   0  0  0  0  0  0
    7.6780   55.4634   21.6878 O   0  0  0  0  0  0
    1.4477   52.8811   28.1277 C   0  0  0  0  0  0
    1.3474   53.4072   29.3984 N   0  0  0  0  0  0
    0.3395   52.8025   30.1034 C   0  0  0  0  0  0
   -0.2421   51.8638   29.2731 C   0  0  0  0  0  0
    0.4451   51.9099   28.0558 C   0  0  0  0  0  0
    5.7599   54.8452   20.0530 H   0  0  0  0  0  0
    3.5331   53.9467   20.6278 H   0  0  0  0  0  0
    6.9430   54.9187   24.1443 H   0  0  0  0  0  0
    1.9507   53.2988   22.8758 H   0  0  0  0  0  0
    1.0437   52.8577   25.5170 H   0  0  0  0  0  0
    6.3643   54.8023   29.0128 H   0  0  0  0  0  0
    8.3295   55.4623   22.4032 H   0  0  0  0  0  0
    1.9763   54.1026   29.7770 H   0  0  0  0  0  0
    0.1417   53.0726   31.1309 H   0  0  0  0  0  0
   -1.0589   51.1986   29.5231 H   0  0  0  0  0  0
    0.2325   51.2744   27.2081 H   0  0  0  0  0  0
  1  2  2  0  0  0
  1 19  1  0  0  0
  1  4  1  0  0  0
  2  3  1  0  0  0
  2 25  1  0  0  0
  3  6  2  0  0  0
  3 26  1  0  0  0
  4  5  2  0  0  0
  4 27  1  0  0  0
  5  8  1  0  0  0
  5  6  1  0  0  0
  6  7  1  0  0  0
  7  9  1  0  0  0
  7 28  1  0  0  0
  8 12  1  0  0  0
  8  9  2  0  0  0
  9 10  1  0  0  0
 10 11  2  0  0  0
 10 29  1  0  0  0
 11 13  1  0  0  0
 11 20  1  0  0  0
 12 13  2  0  0  0
 12 16  1  0  0  0
 13 14  1  0  0  0
 14 15  1  0  0  0
 14 17  2  0  0  0
 15 16  1  0  0  0
 15 30  1  0  0  0
 16 18  2  0  0  0
 19 31  1  0  0  0
 20 21  1  0  0  0
 20 24  2  0  0  0
 21 22  1  0  0  0
 21 32  1  0  0  0
 22 23  2  0  0  0
 22 33  1  0  0  0
 23 24  1  0  0  0
 23 34  1  0  0  0
 24 35  1  0  0  0
M  END
> <s_m_entry_id>
46280

> <s_m_entry_name>
dock_pv.21

> <s_m_Source_Path>
/home/csk/Desktop/cluster/DUD-E-result/wee1

> <s_m_Source_File>
dock_pv.maegz

> <i_m_Source_File_Index>
21

> <chembl_id>
CHEMBL379149

> <chembl_pref_name>
None

> <i_lp_mmshare_version>
53161

> <r_lp_tautomer_probability>
1

> <s_lp_Force_Field>
OPLS_2005

> <r_lp_Energy>
65.852818

> <b_lp_Chiralities_Consistent>
1

> <s_lp_Variant>
CHEMBL5491_lig164-1

> <s_i_glide_gridfile>
glide-grid_3biz

> <i_i_glide_lignum>
167

> <i_i_glide_rotatable_bonds>
2

> <r_i_docking_score>
-10.1350543533762

> <r_i_glide_ligand_efficiency>
-0.422293931390673

> <r_i_glide_ligand_efficiency_sa>
-1.21810648089285

> <r_i_glide_ligand_efficiency_ln>
-2.425783574103

> <r_i_glide_gscore>
-10.1350543533762

> <r_i_glide_lipo>
-2.91644718873313

> <r_i_glide_hbond>
-0.818115555403825

> <r_i_glide_metal>
0

> <r_i_glide_rewards>
-2.88969534990145

> <r_i_glide_evdw>
-40.5109786987305

> <r_i_glide_ecoul>
-10.7651414871216

> <r_i_glide_erotb>
0.129523898666999

> <r_i_glide_esite>
0

> <r_i_glide_emodel>
-81.6964873543227

> <r_i_glide_energy>
-51.2761201858521

> <r_i_glide_einternal>
0.652098059654236

> <i_i_glide_confnum>
2

> <i_i_glide_posenum>
4

> <r_i_glide_eff_state_penalty>
0

> <s_user_duplicate_titles>
CHEMBL5491_lig164,355558

> <i_f3d_flags>
0

> <s_m_subgroup_title>
dock_pv

> <s_m_subgroupid>
dock_pv

> <b_m_subgroup_collapsed>
1

$$$$
CHEMBL5491_lig165
                    3D
 Schrodinger Suite 2021-1.
 35 39  0  0  1  0            999 V2000
    6.4583   54.9559   22.0537 C   0  0  0  0  0  0
    5.5236   54.6630   21.0639 C   0  0  0  0  0  0
    4.2629   54.1510   21.3685 C   0  0  0  0  0  0
    6.1710   54.7125   23.3957 C   0  0  0  0  0  0
    4.8840   54.2635   23.7540 C   0  0  0  0  0  0
    3.9476   53.9903   22.7229 C   0  0  0  0  0  0
    2.7775   53.5751   23.3248 N   0  0  0  0  0  0
    4.2311   54.0400   24.9901 C   0  0  0  0  0  0
    2.9128   53.5894   24.7003 C   0  0  0  0  0  0
    2.0027   53.2400   25.7086 C   0  0  0  0  0  0
    2.4157   53.3411   27.0471 C   0  0  0  0  0  0
    4.6036   54.1519   26.3436 C   0  0  0  0  0  0
    3.7170   53.7918   27.3336 C   0  0  0  0  0  0
    4.4481   53.9505   28.6271 C   0  0  0  0  0  0
    5.6594   54.4398   28.3083 N   0  0  0  0  0  0
    5.8600   54.6084   26.9947 C   0  0  0  0  0  0
    4.0751   53.6981   29.7665 O   0  0  0  0  0  0
    6.8794   55.0624   26.4863 O   0  0  0  0  0  0
    7.6784   55.4638   21.6879 O   0  0  0  0  0  0
    1.4075   52.9408   28.0880 C   0  0  0  0  0  0
    0.5193   51.8649   28.0111 C   0  0  0  0  0  0
   -0.2344   51.8092   29.1556 N   0  0  0  0  0  0
    0.1408   52.8322   29.9795 C   0  0  0  0  0  0
    1.1295   53.5545   29.3273 C   0  0  0  0  0  0
    5.7824   54.8288   20.0286 H   0  0  0  0  0  0
    3.5524   53.9299   20.5866 H   0  0  0  0  0  0
    6.9193   54.9310   24.1359 H   0  0  0  0  0  0
    1.9446   53.3000   22.8246 H   0  0  0  0  0  0
    1.0099   52.8948   25.4622 H   0  0  0  0  0  0
    6.3555   54.6799   28.9999 H   0  0  0  0  0  0
    8.3236   55.4622   22.4090 H   0  0  0  0  0  0
    0.3738   51.1167   27.2455 H   0  0  0  0  0  0
   -0.9291   51.1035   29.3638 H   0  0  0  0  0  0
   -0.3198   52.9496   30.9514 H   0  0  0  0  0  0
    1.6243   54.4278   29.7274 H   0  0  0  0  0  0
  1  2  2  0  0  0
  1 19  1  0  0  0
  1  4  1  0  0  0
  2  3  1  0  0  0
  2 25  1  0  0  0
  3  6  2  0  0  0
  3 26  1  0  0  0
  4  5  2  0  0  0
  4 27  1  0  0  0
  5  8  1  0  0  0
  5  6  1  0  0  0
  6  7  1  0  0  0
  7  9  1  0  0  0
  7 28  1  0  0  0
  8 12  1  0  0  0
  8  9  2  0  0  0
  9 10  1  0  0  0
 10 11  2  0  0  0
 10 29  1  0  0  0
 11 13  1  0  0  0
 11 20  1  0  0  0
 12 13  2  0  0  0
 12 16  1  0  0  0
 13 14  1  0  0  0
 14 15  1  0  0  0
 14 17  2  0  0  0
 15 16  1  0  0  0
 15 30  1  0  0  0
 16 18  2  0  0  0
 19 31  1  0  0  0
 20 21  2  0  0  0
 20 24  1  0  0  0
 21 22  1  0  0  0
 21 32  1  0  0  0
 22 23  1  0  0  0
 22 33  1  0  0  0
 23 24  2  0  0  0
 23 34  1  0  0  0
 24 35  1  0  0  0
M  END
> <s_m_entry_id>
46281

> <s_m_entry_name>
dock_pv.22

> <s_m_Source_Path>
/home/csk/Desktop/cluster/DUD-E-result/wee1

> <s_m_Source_File>
dock_pv.maegz

> <i_m_Source_File_Index>
22

> <chembl_id>
CHEMBL213422

> <chembl_pref_name>
None

> <i_lp_mmshare_version>
53161

> <r_lp_tautomer_probability>
1

> <s_lp_Force_Field>
OPLS_2005

> <r_lp_Energy>
69.029209

> <b_lp_Chiralities_Consistent>
1

> <s_lp_Variant>
CHEMBL5491_lig165-1

> <s_i_glide_gridfile>
glide-grid_3biz

> <i_i_glide_lignum>
168

> <i_i_glide_rotatable_bonds>
2

> <r_i_docking_score>
-10.1344177629106

> <r_i_glide_ligand_efficiency>
-0.422267406787941

> <r_i_glide_ligand_efficiency_sa>
-1.21802997069914

> <r_i_glide_ligand_efficiency_ln>
-2.42563120879335

> <r_i_glide_gscore>
-10.1344177629106

> <r_i_glide_lipo>
-3.04093224740218

> <r_i_glide_hbond>
-0.752235971961524

> <r_i_glide_metal>
0

> <r_i_glide_rewards>
-2.90448815394134

> <r_i_glide_evdw>
-40.6979560852051

> <r_i_glide_ecoul>
-10.0777759552002

> <r_i_glide_erotb>
0.129523898666999

> <r_i_glide_esite>
-0.0197210907322641

> <r_i_glide_emodel>
-82.2385972606033

> <r_i_glide_energy>
-50.7757320404053

> <r_i_glide_einternal>
0.350590467453003

> <i_i_glide_confnum>
2

> <i_i_glide_posenum>
345

> <r_i_glide_eff_state_penalty>
0

> <s_user_duplicate_titles>
CHEMBL5491_lig165,355559

> <i_f3d_flags>
0

> <s_m_subgroup_title>
dock_pv

> <s_m_subgroupid>
dock_pv

> <b_m_subgroup_collapsed>
1

$$$$
CHEMBL5491_lig256
                    3D
 Schrodinger Suite 2021-1.
 36 39  0  0  1  0            999 V2000
    6.4561   54.9587   22.0385 C   0  0  0  0  0  0
    5.5360   54.6631   21.0380 C   0  0  0  0  0  0
    4.2808   54.1312   21.3286 C   0  0  0  0  0  0
    6.1569   54.7150   23.3747 C   0  0  0  0  0  0
    4.8681   54.2630   23.7169 C   0  0  0  0  0  0
    3.9430   53.9660   22.6794 C   0  0  0  0  0  0
    2.7634   53.5322   23.2710 N   0  0  0  0  0  0
    4.2149   54.0436   24.9472 C   0  0  0  0  0  0
    2.8979   53.5697   24.6542 C   0  0  0  0  0  0
    1.9935   53.2285   25.6773 C   0  0  0  0  0  0
    2.4186   53.3767   27.0002 C   0  0  0  0  0  0
    4.5897   54.1823   26.2996 C   0  0  0  0  0  0
    3.6963   53.8481   27.2826 C   0  0  0  0  0  0
    4.3627   54.0720   28.5902 C   0  0  0  0  0  0
    5.5907   54.5360   28.2892 N   0  0  0  0  0  0
    5.8360   54.6452   26.9718 C   0  0  0  0  0  0
    7.6790   55.4638   21.6870 O   0  0  0  0  0  0
    3.9133   53.8851   29.7141 O   0  0  0  0  0  0
    6.8790   55.0632   26.4841 O   0  0  0  0  0  0
    1.5732   53.1035   22.5268 C   0  0  0  0  0  0
    1.7262   51.6904   21.9031 C   0  0  0  0  0  0
    1.6798   50.5351   22.9076 C   0  0  0  0  0  0
    1.0565   50.5775   23.9650 O   0  0  0  0  0  0
    2.4061   49.4632   22.4871 O   0  0  0  0  0  0
    5.8081   54.8337   20.0063 H   0  0  0  0  0  0
    3.5868   53.9002   20.5302 H   0  0  0  0  0  0
    6.8978   54.9343   24.1228 H   0  0  0  0  0  0
    1.0024   52.8547   25.4661 H   0  0  0  0  0  0
    1.7437   53.1159   27.8032 H   0  0  0  0  0  0
    6.2681   54.8123   28.9866 H   0  0  0  0  0  0
    8.3179   55.4632   22.4128 H   0  0  0  0  0  0
    0.7018   53.1623   23.1783 H   0  0  0  0  0  0
    1.3915   53.8359   21.7428 H   0  0  0  0  0  0
    0.9302   51.5215   21.1791 H   0  0  0  0  0  0
    2.6562   51.6328   21.3332 H   0  0  0  0  0  0
    2.4353   48.7912   23.1805 H   0  0  0  0  0  0
  1 17  1  0  0  0
  1  2  2  0  0  0
  1  4  1  0  0  0
  2  3  1  0  0  0
  2 25  1  0  0  0
  3  6  2  0  0  0
  3 26  1  0  0  0
  4  5  2  0  0  0
  4 27  1  0  0  0
  5  8  1  0  0  0
  5  6  1  0  0  0
  6  7  1  0  0  0
  7  9  1  0  0  0
  7 20  1  0  0  0
  8 12  1  0  0  0
  8  9  2  0  0  0
  9 10  1  0  0  0
 10 11  2  0  0  0
 10 28  1  0  0  0
 11 13  1  0  0  0
 11 29  1  0  0  0
 12 13  2  0  0  0
 12 16  1  0  0  0
 13 14  1  0  0  0
 14 15  1  0  0  0
 14 18  2  0  0  0
 15 16  1  0  0  0
 15 30  1  0  0  0
 16 19  2  0  0  0
 17 31  1  0  0  0
 20 21  1  0  0  0
 20 32  1  0  0  0
 20 33  1  0  0  0
 21 22  1  0  0  0
 21 34  1  0  0  0
 21 35  1  0  0  0
 22 23  2  0  0  0
 22 24  1  0  0  0
 24 36  1  0  0  0
M  END
> <s_m_entry_id>
46282

> <s_m_entry_name>
dock_pv.23

> <s_m_Source_Path>
/home/csk/Desktop/cluster/DUD-E-result/wee1

> <s_m_Source_File>
dock_pv.maegz

> <i_m_Source_File_Index>
23

> <chembl_id>
CHEMBL520182

> <chembl_pref_name>
None

> <i_lp_mmshare_version>
53161

> <r_lp_tautomer_probability>
1

> <s_lp_Force_Field>
OPLS_2005

> <r_lp_Energy>
61.731717

> <b_lp_Chiralities_Consistent>
1

> <s_lp_Variant>
CHEMBL5491_lig256-1

> <s_i_glide_gridfile>
glide-grid_3biz

> <i_i_glide_lignum>
269

> <i_i_glide_rotatable_bonds>
5

> <r_i_docking_score>
-10.0541340196466

> <r_i_glide_ligand_efficiency>
-0.41892225081861

> <r_i_glide_ligand_efficiency_sa>
-1.20838087119061

> <r_i_glide_ligand_efficiency_ln>
-2.40641562504936

> <r_i_glide_gscore>
-10.0541340196466

> <r_i_glide_lipo>
-2.63304875368056

> <r_i_glide_hbond>
-0.852910975616876

> <r_i_glide_metal>
0

> <r_i_glide_rewards>
-3.17695665569078

> <r_i_glide_evdw>
-36.9290351867676

> <r_i_glide_ecoul>
-12.7913312911987

> <r_i_glide_erotb>
0.373933818359768

> <r_i_glide_esite>
0

> <r_i_glide_emodel>
-77.8224244551479

> <r_i_glide_energy>
-49.7203664779663

> <r_i_glide_einternal>
1.75017631053925

> <i_i_glide_confnum>
17

> <i_i_glide_posenum>
339

> <r_i_glide_eff_state_penalty>
0

> <s_user_duplicate_titles>
CHEMBL5491_lig256,523903

> <i_f3d_flags>
0

> <s_m_subgroup_title>
dock_pv

> <s_m_subgroupid>
dock_pv

> <b_m_subgroup_collapsed>
1

$$$$
CHEMBL5491_lig162
                    3D
 Schrodinger Suite 2021-1.
 34 38  0  0  1  0            999 V2000
    6.4611   54.9441   22.0365 C   0  0  0  0  0  0
    5.5294   54.6635   21.0418 C   0  0  0  0  0  0
    4.2631   54.1606   21.3396 C   0  0  0  0  0  0
    6.1762   54.6835   23.3734 C   0  0  0  0  0  0
    4.8811   54.2630   23.7255 C   0  0  0  0  0  0
    3.9418   54.0052   22.6919 C   0  0  0  0  0  0
    2.7639   53.6177   23.2943 N   0  0  0  0  0  0
    4.2226   54.0657   24.9593 C   0  0  0  0  0  0
    2.8976   53.6428   24.6686 C   0  0  0  0  0  0
    1.9796   53.3276   25.6764 C   0  0  0  0  0  0
    2.3960   53.4240   27.0145 C   0  0  0  0  0  0
    4.5947   54.1869   26.3112 C   0  0  0  0  0  0
    3.7027   53.8534   27.3024 C   0  0  0  0  0  0
    4.4301   54.0133   28.5975 C   0  0  0  0  0  0
    5.6479   54.4834   28.2793 N   0  0  0  0  0  0
    5.8546   54.6313   26.9633 C   0  0  0  0  0  0
    4.0471   53.7784   29.7378 O   0  0  0  0  0  0
    6.8806   55.0627   26.4535 O   0  0  0  0  0  0
    7.6791   55.4630   21.6870 O   0  0  0  0  0  0
    1.4035   53.0567   28.0774 C   0  0  0  0  0  0
    0.4344   51.6189   27.8862 S   0  0  0  0  0  0
   -0.3213   51.8630   29.4236 C   0  0  0  0  0  0
    0.1506   53.0026   30.0536 C   0  0  0  0  0  0
    1.0984   53.6868   29.2857 C   0  0  0  0  0  0
    5.7908   54.8422   20.0090 H   0  0  0  0  0  0
    3.5505   53.9519   20.5542 H   0  0  0  0  0  0
    6.9270   54.8892   24.1149 H   0  0  0  0  0  0
    1.9249   53.3590   22.7952 H   0  0  0  0  0  0
    0.9785   53.0064   25.4291 H   0  0  0  0  0  0
    6.3440   54.7319   28.9679 H   0  0  0  0  0  0
    8.3201   55.4627   22.4108 H   0  0  0  0  0  0
   -1.0524   51.1536   29.7895 H   0  0  0  0  0  0
   -0.1774   53.3262   31.0311 H   0  0  0  0  0  0
    1.5714   54.5997   29.6179 H   0  0  0  0  0  0
  1  2  2  0  0  0
  1 19  1  0  0  0
  1  4  1  0  0  0
  2  3  1  0  0  0
  2 25  1  0  0  0
  3  6  2  0  0  0
  3 26  1  0  0  0
  4  5  2  0  0  0
  4 27  1  0  0  0
  5  8  1  0  0  0
  5  6  1  0  0  0
  6  7  1  0  0  0
  7  9  1  0  0  0
  7 28  1  0  0  0
  8 12  1  0  0  0
  8  9  2  0  0  0
  9 10  1  0  0  0
 10 11  2  0  0  0
 10 29  1  0  0  0
 11 13  1  0  0  0
 11 20  1  0  0  0
 12 13  2  0  0  0
 12 16  1  0  0  0
 13 14  1  0  0  0
 14 15  1  0  0  0
 14 17  2  0  0  0
 15 16  1  0  0  0
 15 30  1  0  0  0
 16 18  2  0  0  0
 19 31  1  0  0  0
 20 21  1  0  0  0
 20 24  2  0  0  0
 21 22  1  0  0  0
 22 23  2  0  0  0
 22 32  1  0  0  0
 23 24  1  0  0  0
 23 33  1  0  0  0
 24 34  1  0  0  0
M  END
> <s_m_entry_id>
46283

> <s_m_entry_name>
dock_pv.24

> <s_m_Source_Path>
/home/csk/Desktop/cluster/DUD-E-result/wee1

> <s_m_Source_File>
dock_pv.maegz

> <i_m_Source_File_Index>
24

> <chembl_id>
CHEMBL209486

> <chembl_pref_name>
None

> <i_lp_mmshare_version>
53161

> <r_lp_tautomer_probability>
1

> <s_lp_Force_Field>
OPLS_2005

> <r_lp_Energy>
71.976512

> <b_lp_Chiralities_Consistent>
1

> <s_lp_Variant>
CHEMBL5491_lig162-1

> <s_i_glide_gridfile>
glide-grid_3biz

> <i_i_glide_lignum>
165

> <i_i_glide_rotatable_bonds>
2

> <r_i_docking_score>
-9.97681812424223

> <r_i_glide_ligand_efficiency>
-0.41570075517676

> <r_i_glide_ligand_efficiency_sa>
-1.19908846979004

> <r_i_glide_ligand_efficiency_ln>
-2.38791038348383

> <r_i_glide_gscore>
-9.97681812424223

> <r_i_glide_lipo>
-3.01363034806707

> <r_i_glide_hbond>
-0.770696838220249

> <r_i_glide_metal>
0

> <r_i_glide_rewards>
-2.81483596590855

> <r_i_glide_evdw>
-41.5672874450684

> <r_i_glide_ecoul>
-9.44922351837158

> <r_i_glide_erotb>
0.118092927962792

> <r_i_glide_esite>
0

> <r_i_glide_emodel>
-81.2302174360804

> <r_i_glide_energy>
-51.0165109634399

> <r_i_glide_einternal>
0.292480111122131

> <i_i_glide_confnum>
3

> <i_i_glide_posenum>
304

> <r_i_glide_eff_state_penalty>
0

> <s_user_duplicate_titles>
CHEMBL5491_lig162,355526

> <i_f3d_flags>
0

> <s_m_subgroup_title>
dock_pv

> <s_m_subgroupid>
dock_pv

> <b_m_subgroup_collapsed>
1

$$$$
CHEMBL5491_lig61
                    3D
 Schrodinger Suite 2021-1.
 42 45  0  0  1  0            999 V2000
    3.0851   53.6014   27.6036 C   0  0  0  0  0  0
    3.0511   53.6353   25.2040 N   0  0  0  0  0  0
    4.3301   54.2630   25.1788 C   0  0  0  0  0  0
    2.4299   53.1921   26.3466 C   0  0  0  0  0  0
    4.9558   54.4533   23.9875 N   0  0  0  0  0  0
    4.9656   54.5667   26.3876 C   0  0  0  0  0  0
    4.2632   54.2630   27.6220 C   0  0  0  0  0  0
    2.4113   53.3273   28.8964 C   0  0  0  0  0  0
    6.2041   54.9822   24.0240 C   0  0  0  0  0  0
    3.0072   52.5096   29.8729 C   0  0  0  0  0  0
    6.8790   55.3004   25.1564 N   0  0  0  0  0  0
    6.2620   55.0630   26.3373 C   0  0  0  0  0  0
    1.1788   53.9293   29.1845 C   0  0  0  0  0  0
    6.8790   55.2828   22.8382 N   0  0  0  0  0  0
    1.3862   52.5323   26.3359 O   0  0  0  0  0  0
    2.3513   52.2630   31.0843 C   0  0  0  0  0  0
    0.5127   53.6425   30.3721 C   0  0  0  0  0  0
    1.0850   52.7945   31.3144 C   0  0  0  0  0  0
    2.3810   53.3936   23.9081 C   0  0  0  0  0  0
    4.5919   51.8630   29.6229 Cl  0  0  0  0  0  0
    0.4790   55.0630   28.0870 Cl  0  0  0  0  0  0
    6.5389   55.2539   21.4753 C   0  0  0  0  0  0
    2.9744   51.5699   32.0870 O   0  0  0  0  0  0
    7.4569   55.8320   20.5946 C   0  0  0  0  0  0
    5.3734   54.6630   20.9667 C   0  0  0  0  0  0
    7.2129   55.8352   19.2241 C   0  0  0  0  0  0
    5.1299   54.6632   19.5959 C   0  0  0  0  0  0
    6.0481   55.2529   18.7313 C   0  0  0  0  0  0
    4.6937   54.5698   28.5668 H   0  0  0  0  0  0
    6.8123   55.2915   27.2403 H   0  0  0  0  0  0
    7.8356   55.5593   23.0223 H   0  0  0  0  0  0
   -0.4334   54.1083   30.5738 H   0  0  0  0  0  0
    0.5717   52.6092   32.2479 H   0  0  0  0  0  0
    2.3378   54.3182   23.3306 H   0  0  0  0  0  0
    2.9378   52.6630   23.3213 H   0  0  0  0  0  0
    1.3567   53.0289   24.0002 H   0  0  0  0  0  0
    2.6176   51.7888   32.9618 H   0  0  0  0  0  0
    8.3750   56.2630   20.9674 H   0  0  0  0  0  0
    4.6451   54.1884   21.6018 H   0  0  0  0  0  0
    7.9272   56.2781   18.5452 H   0  0  0  0  0  0
    4.2310   54.2069   19.2062 H   0  0  0  0  0  0
    5.8581   55.2508   17.6677 H   0  0  0  0  0  0
  1  4  1  0  0  0
  1  7  2  0  0  0
  1  8  1  0  0  0
  2  4  1  0  0  0
  2 19  1  0  0  0
  2  3  1  0  0  0
  3  6  1  0  0  0
  3  5  2  0  0  0
  4 15  2  0  0  0
  5  9  1  0  0  0
  6  7  1  0  0  0
  6 12  2  0  0  0
  7 29  1  0  0  0
  8 10  1  0  0  0
  8 13  2  0  0  0
  9 11  2  0  0  0
  9 14  1  0  0  0
 10 16  2  0  0  0
 10 20  1  0  0  0
 11 12  1  0  0  0
 12 30  1  0  0  0
 13 17  1  0  0  0
 13 21  1  0  0  0
 14 22  1  0  0  0
 14 31  1  0  0  0
 16 23  1  0  0  0
 16 18  1  0  0  0
 17 18  2  0  0  0
 17 32  1  0  0  0
 18 33  1  0  0  0
 19 34  1  0  0  0
 19 35  1  0  0  0
 19 36  1  0  0  0
 22 24  1  0  0  0
 22 25  2  0  0  0
 23 37  1  0  0  0
 24 26  2  0  0  0
 24 38  1  0  0  0
 25 27  1  0  0  0
 25 39  1  0  0  0
 26 28  1  0  0  0
 26 40  1  0  0  0
 27 28  2  0  0  0
 27 41  1  0  0  0
 28 42  1  0  0  0
M  END
> <s_m_entry_id>
46284

> <s_m_entry_name>
dock_pv.25

> <s_m_Source_Path>
/home/csk/Desktop/cluster/DUD-E-result/wee1

> <s_m_Source_File>
dock_pv.maegz

> <i_m_Source_File_Index>
25

> <chembl_id>
CHEMBL181233

> <chembl_pref_name>
None

> <i_lp_mmshare_version>
53161

> <r_lp_tautomer_probability>
0.999999999997365

> <s_lp_Force_Field>
OPLS_2005

> <r_lp_Energy>
28.195077

> <b_lp_Chiralities_Consistent>
1

> <s_lp_Variant>
CHEMBL5491_lig61-1

> <s_i_glide_gridfile>
glide-grid_3biz

> <i_i_glide_lignum>
59

> <i_i_glide_rotatable_bonds>
4

> <r_i_docking_score>
-9.92231100471586

> <r_i_glide_ligand_efficiency>
-0.354368250168423

> <r_i_glide_ligand_efficiency_sa>
-1.07607071924908

> <r_i_glide_ligand_efficiency_ln>
-2.29036071159867

> <r_i_glide_gscore>
-9.92231100471586

> <r_i_glide_lipo>
-3.12034730872797

> <r_i_glide_hbond>
-0.962399094885161

> <r_i_glide_metal>
0

> <r_i_glide_rewards>
-2.43863040596921

> <r_i_glide_evdw>
-38.9201240539551

> <r_i_glide_ecoul>
-11.25696849823

> <r_i_glide_erotb>
0.24256708702606

> <r_i_glide_esite>
-0.0089498047273252

> <r_i_glide_emodel>
-75.8513543314632

> <r_i_glide_energy>
-50.1770925521851

> <r_i_glide_einternal>
3.98952484130859

> <i_i_glide_confnum>
3

> <i_i_glide_posenum>
113

> <r_i_glide_eff_state_penalty>
0

> <s_user_duplicate_titles>
CHEMBL5491_lig61,303271

> <i_f3d_flags>
0

> <s_m_subgroup_title>
dock_pv

> <s_m_subgroupid>
dock_pv

> <b_m_subgroup_collapsed>
1

$$$$
CHEMBL5491_lig264
                    3D
 Schrodinger Suite 2021-1.
 41 44  0  0  1  0            999 V2000
    6.4513   54.9747   22.0563 C   0  0  0  0  0  0
    5.4954   54.7500   21.0760 C   0  0  0  0  0  0
    4.2263   54.2617   21.3825 C   0  0  0  0  0  0
    6.1765   54.6936   23.3936 C   0  0  0  0  0  0
    4.8839   54.2635   23.7548 C   0  0  0  0  0  0
    3.9210   54.0344   22.7328 C   0  0  0  0  0  0
    2.7485   53.5994   23.3468 N   0  0  0  0  0  0
    4.2535   54.0356   24.9957 C   0  0  0  0  0  0
    2.9310   53.5769   24.7253 C   0  0  0  0  0  0
    2.0526   53.2044   25.7592 C   0  0  0  0  0  0
    2.5000   53.3283   27.0758 C   0  0  0  0  0  0
    4.6495   54.1558   26.3447 C   0  0  0  0  0  0
    3.7771   53.8062   27.3406 C   0  0  0  0  0  0
    4.4594   54.0379   28.6380 C   0  0  0  0  0  0
    5.6786   54.5145   28.3205 N   0  0  0  0  0  0
    5.8981   54.6293   26.9986 C   0  0  0  0  0  0
    7.6782   55.4636   21.6877 O   0  0  0  0  0  0
    4.0248   53.8456   29.7685 O   0  0  0  0  0  0
    6.9218   55.0632   26.4845 O   0  0  0  0  0  0
    1.5029   53.2107   22.6709 C   0  0  0  0  0  0
    1.4981   51.7259   22.2372 C   0  0  0  0  0  0
    2.3753   51.3930   21.0154 C   0  0  0  0  0  0
    1.8928   52.1096   19.8384 N   0  0  2  0  0  0
    2.7704   51.8671   18.7028 C   0  0  0  0  0  0
    5.7341   54.9597   20.0430 H   0  0  0  0  0  0
    3.5076   54.0977   20.5974 H   0  0  0  0  0  0
    6.9435   54.8656   24.1305 H   0  0  0  0  0  0
    1.0587   52.8401   25.5567 H   0  0  0  0  0  0
    1.8377   53.0523   27.8850 H   0  0  0  0  0  0
    6.3634   54.7947   29.0086 H   0  0  0  0  0  0
    8.3243   55.4626   22.4067 H   0  0  0  0  0  0
    0.6653   53.4126   23.3395 H   0  0  0  0  0  0
    1.3501   53.8630   21.8158 H   0  0  0  0  0  0
    1.8064   51.1039   23.0774 H   0  0  0  0  0  0
    0.4707   51.4230   22.0221 H   0  0  0  0  0  0
    3.4136   51.6578   21.2196 H   0  0  0  0  0  0
    2.3432   50.3173   20.8271 H   0  0  0  0  0  0
    1.8256   53.1064   20.0179 H   0  0  0  0  0  0
    2.3802   52.3683   17.8148 H   0  0  0  0  0  0
    3.7731   52.2614   18.8856 H   0  0  0  0  0  0
    2.8566   50.8005   18.4758 H   0  0  0  0  0  0
  1 17  1  0  0  0
  1  2  2  0  0  0
  1  4  1  0  0  0
  2  3  1  0  0  0
  2 25  1  0  0  0
  3  6  2  0  0  0
  3 26  1  0  0  0
  4  5  2  0  0  0
  4 27  1  0  0  0
  5  8  1  0  0  0
  5  6  1  0  0  0
  6  7  1  0  0  0
  7  9  1  0  0  0
  7 20  1  0  0  0
  8 12  1  0  0  0
  8  9  2  0  0  0
  9 10  1  0  0  0
 10 11  2  0  0  0
 10 28  1  0  0  0
 11 13  1  0  0  0
 11 29  1  0  0  0
 12 13  2  0  0  0
 12 16  1  0  0  0
 13 14  1  0  0  0
 14 15  1  0  0  0
 14 18  2  0  0  0
 15 16  1  0  0  0
 15 30  1  0  0  0
 16 19  2  0  0  0
 17 31  1  0  0  0
 20 21  1  0  0  0
 20 32  1  0  0  0
 20 33  1  0  0  0
 21 22  1  0  0  0
 21 34  1  0  0  0
 21 35  1  0  0  0
 22 23  1  0  0  0
 22 36  1  0  0  0
 22 37  1  0  0  0
 23 24  1  0  0  0
 23 38  1  0  0  0
 24 39  1  0  0  0
 24 40  1  0  0  0
 24 41  1  0  0  0
M  END
> <s_m_entry_id>
46285

> <s_m_entry_name>
dock_pv.26

> <s_m_Source_Path>
/home/csk/Desktop/cluster/DUD-E-result/wee1

> <s_m_Source_File>
dock_pv.maegz

> <i_m_Source_File_Index>
26

> <chembl_id>
CHEMBL519887

> <chembl_pref_name>
None

> <i_lp_mmshare_version>
53161

> <r_lp_tautomer_probability>
1

> <s_lp_Force_Field>
OPLS_2005

> <r_lp_Energy>
62.684499

> <b_lp_Chiralities_Consistent>
1

> <s_lp_Variant>
CHEMBL5491_lig264-1

> <s_i_glide_gridfile>
glide-grid_3biz

> <i_i_glide_lignum>
277

> <i_i_glide_rotatable_bonds>
5

> <r_i_docking_score>
-9.83906834643864

> <r_i_glide_ligand_efficiency>
-0.40996118110161

> <r_i_glide_ligand_efficiency_sa>
-1.18253267332031

> <r_i_glide_ligand_efficiency_ln>
-2.35494054073

> <r_i_glide_gscore>
-9.83906834643864

> <r_i_glide_lipo>
-2.67621534586859

> <r_i_glide_hbond>
-0.971137893150137

> <r_i_glide_metal>
0

> <r_i_glide_rewards>
-3.13071146088074

> <r_i_glide_evdw>
-35.4882392883301

> <r_i_glide_ecoul>
-11.0829916000366

> <r_i_glide_erotb>
0.375857057882833

> <r_i_glide_esite>
0

> <r_i_glide_emodel>
-73.7952356509447

> <r_i_glide_energy>
-46.5712308883667

> <r_i_glide_einternal>
0.821560680866241

> <i_i_glide_confnum>
1

> <i_i_glide_posenum>
362

> <r_i_glide_eff_state_penalty>
0

> <s_user_duplicate_titles>
CHEMBL5491_lig264,523646

> <i_f3d_flags>
0

> <s_m_subgroup_title>
dock_pv

> <s_m_subgroupid>
dock_pv

> <b_m_subgroup_collapsed>
1

$$$$
CHEMBL5491_lig126
                    3D
 Schrodinger Suite 2021-1.
 38 42  0  0  1  0            999 V2000
    6.9668   55.3722   21.5347 C   0  0  0  0  0  0
    6.1105   55.1226   20.4675 C   0  0  0  0  0  0
    4.8457   54.5725   20.6606 C   0  0  0  0  0  0
    6.5914   55.0674   22.8420 C   0  0  0  0  0  0
    5.3008   54.5758   23.0888 C   0  0  0  0  0  0
    4.4432   54.3398   21.9819 C   0  0  0  0  0  0
    3.2360   53.9102   22.4863 N   0  0  0  0  0  0
    4.5787   54.2627   24.2659 C   0  0  0  0  0  0
    3.2791   53.8633   23.8645 C   0  0  0  0  0  0
    2.2933   53.4986   24.7860 C   0  0  0  0  0  0
    2.6238   53.4622   26.1539 C   0  0  0  0  0  0
    4.8661   54.2670   25.6443 C   0  0  0  0  0  0
    3.9244   53.8388   26.5517 C   0  0  0  0  0  0
    4.6155   53.8062   27.8838 C   0  0  0  0  0  0
    5.8310   54.3379   27.6794 N   0  0  0  0  0  0
    6.0798   54.6632   26.4035 C   0  0  0  0  0  0
    4.2173   53.3844   28.9647 O   0  0  0  0  0  0
    7.1092   55.1863   25.9937 O   0  0  0  0  0  0
    8.2185   55.8628   21.2867 O   0  0  0  0  0  0
    1.5853   52.9529   27.1027 C   0  0  0  0  0  0
    1.3782   53.5206   28.3697 C   0  0  0  0  0  0
    0.4776   52.9480   29.2728 C   0  0  0  0  0  0
   -0.3081   51.8632   28.8819 C   0  0  0  0  0  0
   -0.1704   51.3429   27.5996 C   0  0  0  0  0  0
    0.7830   51.8631   26.7345 C   0  0  0  0  0  0
    0.3574   53.4605   30.6249 C   0  0  0  0  0  0
    0.2486   53.8635   31.7011 N   0  0  0  0  0  0
    6.4387   55.3449   19.4626 H   0  0  0  0  0  0
    4.1859   54.3866   19.8240 H   0  0  0  0  0  0
    7.2787   55.2542   23.6458 H   0  0  0  0  0  0
    2.4319   53.6851   21.9169 H   0  0  0  0  0  0
    1.3094   53.2143   24.4426 H   0  0  0  0  0  0
    6.4966   54.4864   28.4236 H   0  0  0  0  0  0
    8.7884   55.8225   22.0639 H   0  0  0  0  0  0
    1.9545   54.3847   28.6699 H   0  0  0  0  0  0
   -1.0155   51.4034   29.5610 H   0  0  0  0  0  0
   -0.7720   50.5011   27.2885 H   0  0  0  0  0  0
    0.8924   51.3917   25.7695 H   0  0  0  0  0  0
  1  2  2  0  0  0
  1 19  1  0  0  0
  1  4  1  0  0  0
  2  3  1  0  0  0
  2 28  1  0  0  0
  3  6  2  0  0  0
  3 29  1  0  0  0
  4  5  2  0  0  0
  4 30  1  0  0  0
  5  8  1  0  0  0
  5  6  1  0  0  0
  6  7  1  0  0  0
  7  9  1  0  0  0
  7 31  1  0  0  0
  8  9  2  0  0  0
  8 12  1  0  0  0
  9 10  1  0  0  0
 10 11  2  0  0  0
 10 32  1  0  0  0
 11 13  1  0  0  0
 11 20  1  0  0  0
 12 16  1  0  0  0
 12 13  2  0  0  0
 13 14  1  0  0  0
 14 15  1  0  0  0
 14 17  2  0  0  0
 15 16  1  0  0  0
 15 33  1  0  0  0
 16 18  2  0  0  0
 19 34  1  0  0  0
 20 21  2  0  0  0
 20 25  1  0  0  0
 21 22  1  0  0  0
 21 35  1  0  0  0
 22 23  2  0  0  0
 22 26  1  0  0  0
 23 24  1  0  0  0
 23 36  1  0  0  0
 24 25  2  0  0  0
 24 37  1  0  0  0
 25 38  1  0  0  0
 26 27  3  0  0  0
M  END
> <s_m_entry_id>
46286

> <s_m_entry_name>
dock_pv.27

> <s_m_Source_Path>
/home/csk/Desktop/cluster/DUD-E-result/wee1

> <s_m_Source_File>
dock_pv.maegz

> <i_m_Source_File_Index>
27

> <chembl_id>
CHEMBL413579

> <chembl_pref_name>
None

> <i_lp_mmshare_version>
53161

> <r_lp_tautomer_probability>
1

> <s_lp_Force_Field>
OPLS_2005

> <r_lp_Energy>
65.779236

> <b_lp_Chiralities_Consistent>
1

> <s_lp_Variant>
CHEMBL5491_lig126-1

> <s_i_glide_gridfile>
glide-grid_3biz

> <i_i_glide_lignum>
128

> <i_i_glide_rotatable_bonds>
2

> <r_i_docking_score>
-9.8104523835285

> <r_i_glide_ligand_efficiency>
-0.363350088278833

> <r_i_glide_ligand_efficiency_sa>
-1.09005026363896

> <r_i_glide_ligand_efficiency_ln>
-2.28371157693738

> <r_i_glide_gscore>
-9.8104523835285

> <r_i_glide_lipo>
-2.83694539101221

> <r_i_glide_hbond>
-0.615766774234165

> <r_i_glide_metal>
0

> <r_i_glide_rewards>
-3.02878372130338

> <r_i_glide_evdw>
-41.3119468688965

> <r_i_glide_ecoul>
-9.44211006164551

> <r_i_glide_erotb>
0.152957355712914

> <r_i_glide_esite>
0

> <r_i_glide_emodel>
-78.2090969398061

> <r_i_glide_energy>
-50.754056930542

> <r_i_glide_einternal>
2.24327492713928

> <i_i_glide_confnum>
1

> <i_i_glide_posenum>
137

> <r_i_glide_eff_state_penalty>
0

> <s_user_duplicate_titles>
CHEMBL5491_lig126,355582

> <i_f3d_flags>
0

> <s_m_subgroup_title>
dock_pv

> <s_m_subgroupid>
dock_pv

> <b_m_subgroup_collapsed>
1

$$$$
CHEMBL5491_lig274
                    3D
 Schrodinger Suite 2021-1.
 30 33  0  0  1  0            999 V2000
    6.4601   54.9583   22.0480 C   0  0  0  0  0  0
    5.5323   54.6643   21.0552 C   0  0  0  0  0  0
    4.2793   54.1321   21.3555 C   0  0  0  0  0  0
    6.1749   54.7083   23.3878 C   0  0  0  0  0  0
    4.8859   54.2636   23.7407 C   0  0  0  0  0  0
    3.9579   53.9630   22.7092 C   0  0  0  0  0  0
    2.7945   53.5070   23.3076 N   0  0  0  0  0  0
    4.2356   54.0431   24.9743 C   0  0  0  0  0  0
    2.9206   53.5587   24.6895 C   0  0  0  0  0  0
    2.0200   53.2134   25.7148 C   0  0  0  0  0  0
    2.4487   53.3649   27.0362 C   0  0  0  0  0  0
    4.6092   54.1838   26.3264 C   0  0  0  0  0  0
    3.7257   53.8393   27.3118 C   0  0  0  0  0  0
    4.3988   54.0598   28.6144 C   0  0  0  0  0  0
    5.6191   54.5394   28.3081 N   0  0  0  0  0  0
    5.8507   54.6611   26.9897 C   0  0  0  0  0  0
    7.6796   55.4676   21.6871 O   0  0  0  0  0  0
    3.9602   53.8580   29.7421 O   0  0  0  0  0  0
    6.8795   55.0958   26.4856 O   0  0  0  0  0  0
    1.6266   53.0483   22.5689 C   0  0  0  0  0  0
    5.7952   54.8413   20.0225 H   0  0  0  0  0  0
    3.5797   53.8998   20.5647 H   0  0  0  0  0  0
    6.9240   54.9188   24.1299 H   0  0  0  0  0  0
    1.0290   52.8367   25.5092 H   0  0  0  0  0  0
    1.7776   53.1066   27.8423 H   0  0  0  0  0  0
    6.2991   54.8165   29.0023 H   0  0  0  0  0  0
    8.3240   55.4624   22.4077 H   0  0  0  0  0  0
    0.8367   52.7190   23.2415 H   0  0  0  0  0  0
    1.2551   53.8625   21.9530 H   0  0  0  0  0  0
    1.9113   52.2143   21.9272 H   0  0  0  0  0  0
  1  4  1  0  0  0
  1 17  1  0  0  0
  1  2  2  0  0  0
  2  3  1  0  0  0
  2 21  1  0  0  0
  3  6  2  0  0  0
  3 22  1  0  0  0
  4  5  2  0  0  0
  4 23  1  0  0  0
  5  6  1  0  0  0
  5  8  1  0  0  0
  6  7  1  0  0  0
  7  9  1  0  0  0
  7 20  1  0  0  0
  8 12  1  0  0  0
  8  9  2  0  0  0
  9 10  1  0  0  0
 10 11  2  0  0  0
 10 24  1  0  0  0
 11 13  1  0  0  0
 11 25  1  0  0  0
 12 13  2  0  0  0
 12 16  1  0  0  0
 13 14  1  0  0  0
 14 15  1  0  0  0
 14 18  2  0  0  0
 15 16  1  0  0  0
 15 26  1  0  0  0
 16 19  2  0  0  0
 17 27  1  0  0  0
 20 28  1  0  0  0
 20 29  1  0  0  0
 20 30  1  0  0  0
M  END
> <s_m_entry_id>
46287

> <s_m_entry_name>
dock_pv.28

> <s_m_Source_Path>
/home/csk/Desktop/cluster/DUD-E-result/wee1

> <s_m_Source_File>
dock_pv.maegz

> <i_m_Source_File_Index>
28

> <chembl_id>
CHEMBL507613

> <chembl_pref_name>
None

> <i_lp_mmshare_version>
53161

> <r_lp_tautomer_probability>
1

> <s_lp_Force_Field>
OPLS_2005

> <r_lp_Energy>
57.589635

> <b_lp_Chiralities_Consistent>
1

> <s_lp_Variant>
CHEMBL5491_lig274-1

> <s_i_glide_gridfile>
glide-grid_3biz

> <i_i_glide_lignum>
287

> <i_i_glide_rotatable_bonds>
1

> <r_i_docking_score>
-9.79484859604983

> <r_i_glide_ligand_efficiency>
-0.489742429802492

> <r_i_glide_ligand_efficiency_sa>
-1.3293654777224

> <r_i_glide_ligand_efficiency_ln>
-2.45132754786342

> <r_i_glide_gscore>
-9.79484859604983

> <r_i_glide_lipo>
-2.57028262630356

> <r_i_glide_hbond>
-0.796653938131664

> <r_i_glide_metal>
0

> <r_i_glide_rewards>
-3.48756388326866

> <r_i_glide_evdw>
-32.6078491210938

> <r_i_glide_ecoul>
-8.7330379486084

> <r_i_glide_erotb>
0

> <r_i_glide_esite>
0

> <r_i_glide_emodel>
-64.8742732725511

> <r_i_glide_energy>
-41.3408870697021

> <r_i_glide_einternal>
0.225366443395615

> <i_i_glide_confnum>
1

> <i_i_glide_posenum>
47

> <r_i_glide_eff_state_penalty>
0

> <s_user_duplicate_titles>
CHEMBL5491_lig274,524295

> <i_f3d_flags>
0

> <s_m_subgroup_title>
dock_pv

> <s_m_subgroupid>
dock_pv

> <b_m_subgroup_collapsed>
1

$$$$
CHEMBL5491_lig163
                    3D
 Schrodinger Suite 2021-1.
 34 38  0  0  1  0            999 V2000
    6.8376   55.3408   21.5817 C   0  0  0  0  0  0
    5.9628   55.0573   20.5389 C   0  0  0  0  0  0
    4.7067   54.4938   20.7677 C   0  0  0  0  0  0
    6.4857   55.0629   22.9027 C   0  0  0  0  0  0
    5.2059   54.5573   23.1864 C   0  0  0  0  0  0
    4.3311   54.2890   22.0998 C   0  0  0  0  0  0
    3.1353   53.8610   22.6335 N   0  0  0  0  0  0
    4.5078   54.2594   24.3838 C   0  0  0  0  0  0
    3.2013   53.8396   24.0128 C   0  0  0  0  0  0
    2.2371   53.4622   24.9588 C   0  0  0  0  0  0
    2.6003   53.4619   26.3148 C   0  0  0  0  0  0
    4.8214   54.2777   25.7586 C   0  0  0  0  0  0
    3.8944   53.8644   26.6867 C   0  0  0  0  0  0
    4.5716   53.9085   28.0193 C   0  0  0  0  0  0
    5.7999   54.3975   27.7867 N   0  0  0  0  0  0
    6.0534   54.6628   26.4955 C   0  0  0  0  0  0
    4.1445   53.5834   29.1240 O   0  0  0  0  0  0
    7.0933   55.1403   26.0610 O   0  0  0  0  0  0
    8.0712   55.8615   21.2924 O   0  0  0  0  0  0
    1.5764   52.9613   27.2889 C   0  0  0  0  0  0
    1.2445   53.5590   28.5053 C   0  0  0  0  0  0
    0.0810   52.6632   29.4252 S   0  0  0  0  0  0
   -0.0459   51.5064   28.1489 C   0  0  0  0  0  0
    0.8069   51.7990   27.0954 C   0  0  0  0  0  0
    6.2712   55.2641   19.5255 H   0  0  0  0  0  0
    4.0353   54.2834   19.9472 H   0  0  0  0  0  0
    7.1909   55.2765   23.6885 H   0  0  0  0  0  0
    2.3214   53.6193   22.0863 H   0  0  0  0  0  0
    1.2521   53.1420   24.6486 H   0  0  0  0  0  0
    6.4697   54.5721   28.5221 H   0  0  0  0  0  0
    8.6628   55.8537   22.0540 H   0  0  0  0  0  0
    1.6628   54.4638   28.9240 H   0  0  0  0  0  0
   -0.7200   50.6640   28.2342 H   0  0  0  0  0  0
    0.8789   51.1729   26.2184 H   0  0  0  0  0  0
  1  2  2  0  0  0
  1 19  1  0  0  0
  1  4  1  0  0  0
  2  3  1  0  0  0
  2 25  1  0  0  0
  3  6  2  0  0  0
  3 26  1  0  0  0
  4  5  2  0  0  0
  4 27  1  0  0  0
  5  8  1  0  0  0
  5  6  1  0  0  0
  6  7  1  0  0  0
  7  9  1  0  0  0
  7 28  1  0  0  0
  8 12  1  0  0  0
  8  9  2  0  0  0
  9 10  1  0  0  0
 10 11  2  0  0  0
 10 29  1  0  0  0
 11 13  1  0  0  0
 11 20  1  0  0  0
 12 13  2  0  0  0
 12 16  1  0  0  0
 13 14  1  0  0  0
 14 15  1  0  0  0
 14 17  2  0  0  0
 15 16  1  0  0  0
 15 30  1  0  0  0
 16 18  2  0  0  0
 19 31  1  0  0  0
 20 21  2  0  0  0
 20 24  1  0  0  0
 21 22  1  0  0  0
 21 32  1  0  0  0
 22 23  1  0  0  0
 23 24  2  0  0  0
 23 33  1  0  0  0
 24 34  1  0  0  0
M  END
> <s_m_entry_id>
46288

> <s_m_entry_name>
dock_pv.29

> <s_m_Source_Path>
/home/csk/Desktop/cluster/DUD-E-result/wee1

> <s_m_Source_File>
dock_pv.maegz

> <i_m_Source_File_Index>
29

> <chembl_id>
CHEMBL377839

> <chembl_pref_name>
None

> <i_lp_mmshare_version>
53161

> <r_lp_tautomer_probability>
1

> <s_lp_Force_Field>
OPLS_2005

> <r_lp_Energy>
71.661612

> <b_lp_Chiralities_Consistent>
1

> <s_lp_Variant>
CHEMBL5491_lig163-1

> <s_i_glide_gridfile>
glide-grid_3biz

> <i_i_glide_lignum>
166

> <i_i_glide_rotatable_bonds>
2

> <r_i_docking_score>
-9.78676783991347

> <r_i_glide_ligand_efficiency>
-0.407781993329728

> <r_i_glide_ligand_efficiency_sa>
-1.17624680807174

> <r_i_glide_ligand_efficiency_ln>
-2.34242262960466

> <r_i_glide_gscore>
-9.78676783991347

> <r_i_glide_lipo>
-2.87242356454583

> <r_i_glide_hbond>
-0.66724000806424

> <r_i_glide_metal>
0

> <r_i_glide_rewards>
-2.88187219068855

> <r_i_glide_evdw>
-38.8153343200684

> <r_i_glide_ecoul>
-10.2837219238281

> <r_i_glide_erotb>
0.118092927962792

> <r_i_glide_esite>
0

> <r_i_glide_emodel>
-77.3096801120487

> <r_i_glide_energy>
-49.0990562438965

> <r_i_glide_einternal>
0.15353399515152

> <i_i_glide_confnum>
3

> <i_i_glide_posenum>
362

> <r_i_glide_eff_state_penalty>
0

> <s_user_duplicate_titles>
CHEMBL5491_lig163,355527

> <i_f3d_flags>
0

> <s_m_subgroup_title>
dock_pv

> <s_m_subgroupid>
dock_pv

> <b_m_subgroup_collapsed>
1

$$$$
CHEMBL5491_lig273
                    3D
 Schrodinger Suite 2021-1.
 34 37  0  0  1  0            999 V2000
    6.4534   54.9599   22.0456 C   0  0  0  0  0  0
    5.5281   54.6621   21.0536 C   0  0  0  0  0  0
    4.2773   54.1200   21.3489 C   0  0  0  0  0  0
    6.1581   54.7201   23.3850 C   0  0  0  0  0  0
    4.8716   54.2632   23.7353 C   0  0  0  0  0  0
    3.9429   53.9554   22.7020 C   0  0  0  0  0  0
    2.7701   53.5124   23.3045 N   0  0  0  0  0  0
    4.2195   54.0480   24.9699 C   0  0  0  0  0  0
    2.9058   53.5699   24.6857 C   0  0  0  0  0  0
    2.0027   53.2326   25.7108 C   0  0  0  0  0  0
    2.4276   53.3860   27.0314 C   0  0  0  0  0  0
    4.5934   54.1917   26.3195 C   0  0  0  0  0  0
    3.7048   53.8603   27.3082 C   0  0  0  0  0  0
    4.3764   54.0840   28.6118 C   0  0  0  0  0  0
    5.6019   54.5505   28.3068 N   0  0  0  0  0  0
    5.8404   54.6537   26.9864 C   0  0  0  0  0  0
    7.6790   55.4633   21.6872 O   0  0  0  0  0  0
    3.9344   53.8947   29.7402 O   0  0  0  0  0  0
    6.8818   55.0634   26.4857 O   0  0  0  0  0  0
    1.5765   53.0316   22.5986 C   0  0  0  0  0  0
    1.5468   51.4992   22.4411 C   0  0  0  0  0  0
    1.3074   50.8592   23.6785 O   0  0  0  0  0  0
    5.7899   54.8329   20.0202 H   0  0  0  0  0  0
    3.5849   53.8814   20.5539 H   0  0  0  0  0  0
    6.8987   54.9521   24.1304 H   0  0  0  0  0  0
    1.0169   52.8500   25.4940 H   0  0  0  0  0  0
    1.7549   53.1193   27.8349 H   0  0  0  0  0  0
    6.2842   54.8185   29.0030 H   0  0  0  0  0  0
    8.3185   55.4626   22.4130 H   0  0  0  0  0  0
    0.6667   53.4267   23.0483 H   0  0  0  0  0  0
    1.6121   53.4617   21.6006 H   0  0  0  0  0  0
    0.8134   51.1941   21.6955 H   0  0  0  0  0  0
    2.5145   51.1469   22.0765 H   0  0  0  0  0  0
    1.4438   49.9112   23.5829 H   0  0  0  0  0  0
  1 17  1  0  0  0
  1  2  2  0  0  0
  1  4  1  0  0  0
  2  3  1  0  0  0
  2 23  1  0  0  0
  3  6  2  0  0  0
  3 24  1  0  0  0
  4  5  2  0  0  0
  4 25  1  0  0  0
  5  6  1  0  0  0
  5  8  1  0  0  0
  6  7  1  0  0  0
  7  9  1  0  0  0
  7 20  1  0  0  0
  8 12  1  0  0  0
  8  9  2  0  0  0
  9 10  1  0  0  0
 10 11  2  0  0  0
 10 26  1  0  0  0
 11 13  1  0  0  0
 11 27  1  0  0  0
 12 13  2  0  0  0
 12 16  1  0  0  0
 13 14  1  0  0  0
 14 15  1  0  0  0
 14 18  2  0  0  0
 15 16  1  0  0  0
 15 28  1  0  0  0
 16 19  2  0  0  0
 17 29  1  0  0  0
 20 21  1  0  0  0
 20 30  1  0  0  0
 20 31  1  0  0  0
 21 22  1  0  0  0
 21 32  1  0  0  0
 21 33  1  0  0  0
 22 34  1  0  0  0
M  END
> <s_m_entry_id>
46289

> <s_m_entry_name>
dock_pv.30

> <s_m_Source_Path>
/home/csk/Desktop/cluster/DUD-E-result/wee1

> <s_m_Source_File>
dock_pv.maegz

> <i_m_Source_File_Index>
30

> <chembl_id>
CHEMBL475325

> <chembl_pref_name>
None

> <i_lp_mmshare_version>
53161

> <r_lp_tautomer_probability>
1

> <s_lp_Force_Field>
OPLS_2005

> <r_lp_Energy>
58.774888

> <b_lp_Chiralities_Consistent>
1

> <s_lp_Variant>
CHEMBL5491_lig273-1

> <s_i_glide_gridfile>
glide-grid_3biz

> <i_i_glide_lignum>
286

> <i_i_glide_rotatable_bonds>
4

> <r_i_docking_score>
-9.64889917699923

> <r_i_glide_ligand_efficiency>
-0.438586326227238

> <r_i_glide_ligand_efficiency_sa>
-1.22893613471014

> <r_i_glide_ligand_efficiency_ln>
-2.35854291100756

> <r_i_glide_gscore>
-9.64889917699923

> <r_i_glide_lipo>
-2.6662362671415

> <r_i_glide_hbond>
-0.790316346481822

> <r_i_glide_metal>
0

> <r_i_glide_rewards>
-3.279378511531

> <r_i_glide_evdw>
-34.881591796875

> <r_i_glide_ecoul>
-9.74021244049072

> <r_i_glide_erotb>
0.292143404072442

> <r_i_glide_esite>
0

> <r_i_glide_emodel>
-69.4950899706139

> <r_i_glide_energy>
-44.6218042373657

> <r_i_glide_einternal>
0.504998803138733

> <i_i_glide_confnum>
3

> <i_i_glide_posenum>
185

> <r_i_glide_eff_state_penalty>
0

> <s_user_duplicate_titles>
CHEMBL5491_lig273,524296

> <i_f3d_flags>
0

> <s_m_subgroup_title>
dock_pv

> <s_m_subgroupid>
dock_pv

> <b_m_subgroup_collapsed>
1

$$$$
CHEMBL5491_lig129
                    3D
 Schrodinger Suite 2021-1.
 41 45  0  0  1  0            999 V2000
    6.8414   55.3435   21.5715 C   0  0  0  0  0  0
    5.9601   55.0608   20.5326 C   0  0  0  0  0  0
    4.7040   54.5034   20.7686 C   0  0  0  0  0  0
    6.5012   55.0632   22.8925 C   0  0  0  0  0  0
    5.2233   54.5554   23.1810 C   0  0  0  0  0  0
    4.3373   54.2899   22.1036 C   0  0  0  0  0  0
    3.1445   53.8637   22.6488 N   0  0  0  0  0  0
    4.5371   54.2543   24.3819 C   0  0  0  0  0  0
    3.2253   53.8365   24.0282 C   0  0  0  0  0  0
    2.2730   53.4631   24.9888 C   0  0  0  0  0  0
    2.6411   53.4787   26.3463 C   0  0  0  0  0  0
    4.8669   54.2698   25.7512 C   0  0  0  0  0  0
    3.9507   53.8623   26.6920 C   0  0  0  0  0  0
    4.6585   53.8958   28.0130 C   0  0  0  0  0  0
    5.8798   54.3922   27.7607 N   0  0  0  0  0  0
    6.1057   54.6632   26.4680 C   0  0  0  0  0  0
    4.2606   53.5504   29.1207 O   0  0  0  0  0  0
    7.1369   55.1472   26.0172 O   0  0  0  0  0  0
    8.0751   55.8621   21.2867 O   0  0  0  0  0  0
    1.6268   53.0892   27.3717 C   0  0  0  0  0  0
    1.4057   53.8760   28.5132 C   0  0  0  0  0  0
    0.5401   53.4621   29.5263 C   0  0  0  0  0  0
   -0.1893   52.2770   29.3619 C   0  0  0  0  0  0
   -0.0515   51.5395   28.1920 C   0  0  0  0  0  0
    0.8641   51.9261   27.2154 C   0  0  0  0  0  0
    0.4197   54.2652   30.6378 O   0  0  0  0  0  0
    0.4927   53.6104   31.9014 C   0  0  0  0  0  0
    6.2627   55.2654   19.5143 H   0  0  0  0  0  0
    4.0261   54.2978   19.9519 H   0  0  0  0  0  0
    7.2124   55.2786   23.6712 H   0  0  0  0  0  0
    2.3265   53.6211   22.1076 H   0  0  0  0  0  0
    1.2807   53.1562   24.6941 H   0  0  0  0  0  0
    6.5613   54.5675   28.4860 H   0  0  0  0  0  0
    8.6647   55.8468   22.0490 H   0  0  0  0  0  0
    1.9546   54.7954   28.6507 H   0  0  0  0  0  0
   -0.8852   51.9415   30.1187 H   0  0  0  0  0  0
   -0.6555   50.6628   28.0477 H   0  0  0  0  0  0
    0.9778   51.3083   26.3360 H   0  0  0  0  0  0
    0.4704   54.3537   32.6989 H   0  0  0  0  0  0
   -0.3216   52.9131   32.0768 H   0  0  0  0  0  0
    1.4340   53.0615   31.9977 H   0  0  0  0  0  0
  1  2  2  0  0  0
  1 19  1  0  0  0
  1  4  1  0  0  0
  2  3  1  0  0  0
  2 28  1  0  0  0
  3  6  2  0  0  0
  3 29  1  0  0  0
  4  5  2  0  0  0
  4 30  1  0  0  0
  5  8  1  0  0  0
  5  6  1  0  0  0
  6  7  1  0  0  0
  7  9  1  0  0  0
  7 31  1  0  0  0
  8  9  2  0  0  0
  8 12  1  0  0  0
  9 10  1  0  0  0
 10 11  2  0  0  0
 10 32  1  0  0  0
 11 13  1  0  0  0
 11 20  1  0  0  0
 12 16  1  0  0  0
 12 13  2  0  0  0
 13 14  1  0  0  0
 14 15  1  0  0  0
 14 17  2  0  0  0
 15 16  1  0  0  0
 15 33  1  0  0  0
 16 18  2  0  0  0
 19 34  1  0  0  0
 20 21  2  0  0  0
 20 25  1  0  0  0
 21 22  1  0  0  0
 21 35  1  0  0  0
 22 23  2  0  0  0
 22 26  1  0  0  0
 23 24  1  0  0  0
 23 36  1  0  0  0
 24 25  2  0  0  0
 24 37  1  0  0  0
 25 38  1  0  0  0
 26 27  1  0  0  0
 27 39  1  0  0  0
 27 40  1  0  0  0
 27 41  1  0  0  0
M  END
> <s_m_entry_id>
46290

> <s_m_entry_name>
dock_pv.31

> <s_m_Source_Path>
/home/csk/Desktop/cluster/DUD-E-result/wee1

> <s_m_Source_File>
dock_pv.maegz

> <i_m_Source_File_Index>
31

> <chembl_id>
CHEMBL213475

> <chembl_pref_name>
None

> <i_lp_mmshare_version>
53161

> <r_lp_tautomer_probability>
1

> <s_lp_Force_Field>
OPLS_2005

> <r_lp_Energy>
69.980814

> <b_lp_Chiralities_Consistent>
1

> <s_lp_Variant>
CHEMBL5491_lig129-1

> <s_i_glide_gridfile>
glide-grid_3biz

> <i_i_glide_lignum>
131

> <i_i_glide_rotatable_bonds>
3

> <r_i_docking_score>
-9.60336632712299

> <r_i_glide_ligand_efficiency>
-0.355680234337888

> <r_i_glide_ligand_efficiency_sa>
-1.0670407018414

> <r_i_glide_ligand_efficiency_ln>
-2.23550535708665

> <r_i_glide_gscore>
-9.60336632712299

> <r_i_glide_lipo>
-3.06199181623947

> <r_i_glide_hbond>
-0.684652411771394

> <r_i_glide_metal>
0

> <r_i_glide_rewards>
-2.10878300081655

> <r_i_glide_evdw>
-42.8450622558594

> <r_i_glide_ecoul>
-11.4006786346436

> <r_i_glide_erotb>
0.104415809693929

> <r_i_glide_esite>
0

> <r_i_glide_emodel>
-81.0632402963349

> <r_i_glide_energy>
-54.2457408905029

> <r_i_glide_einternal>
5.58750867843628

> <i_i_glide_confnum>
2

> <i_i_glide_posenum>
360

> <r_i_glide_eff_state_penalty>
0

> <s_user_duplicate_titles>
CHEMBL5491_lig129,356003

> <i_f3d_flags>
0

> <s_m_subgroup_title>
dock_pv

> <s_m_subgroupid>
dock_pv

> <b_m_subgroup_collapsed>
1

$$$$
CHEMBL5491_lig64
                    3D
 Schrodinger Suite 2021-1.
 42 45  0  0  1  0            999 V2000
    2.8131   53.8385   27.7118 C   0  0  0  0  0  0
    2.9133   53.7885   25.3213 N   0  0  0  0  0  0
    4.2563   54.2630   25.3538 C   0  0  0  0  0  0
    2.1836   53.4630   26.4370 C   0  0  0  0  0  0
    4.9065   54.4831   24.1827 N   0  0  0  0  0  0
    4.8897   54.4597   26.5875 C   0  0  0  0  0  0
    2.0046   53.7440   28.9448 C   0  0  0  0  0  0
    4.0986   54.2506   27.7973 C   0  0  0  0  0  0
    6.1884   54.9118   24.2583 C   0  0  0  0  0  0
    1.4217   54.8847   29.5207 C   0  0  0  0  0  0
    1.8095   52.5008   29.5644 C   0  0  0  0  0  0
    6.8790   55.1095   25.4111 N   0  0  0  0  0  0
    1.0714   52.4069   30.7418 C   0  0  0  0  0  0
    0.6369   54.7648   30.6613 C   0  0  0  0  0  0
    6.2215   54.8689   26.5743 C   0  0  0  0  0  0
    6.8790   55.2375   23.0897 N   0  0  0  0  0  0
    1.0946   52.8851   26.3943 O   0  0  0  0  0  0
    0.4790   53.5358   31.2871 C   0  0  0  0  0  0
    1.6790   56.4718   28.8870 Cl  0  0  0  0  0  0
    2.4790   51.0630   28.8870 Cl  0  0  0  0  0  0
    2.2998   53.5522   23.9966 C   0  0  0  0  0  0
    6.5658   55.2448   21.7202 C   0  0  0  0  0  0
   -0.2103   53.4630   32.4620 O   0  0  0  0  0  0
    7.5020   55.8428   20.8728 C   0  0  0  0  0  0
    5.4134   54.6630   21.1740 C   0  0  0  0  0  0
    7.2897   55.8733   19.4974 C   0  0  0  0  0  0
    5.2022   54.6885   19.7978 C   0  0  0  0  0  0
    6.1382   55.2980   18.9665 C   0  0  0  0  0  0
    4.5178   54.5035   28.7627 H   0  0  0  0  0  0
    0.9819   51.4648   31.2501 H   0  0  0  0  0  0
    0.2104   55.6481   31.1009 H   0  0  0  0  0  0
    6.7655   55.0399   27.4936 H   0  0  0  0  0  0
    7.8481   55.4630   23.2870 H   0  0  0  0  0  0
    2.2958   54.4763   23.4170 H   0  0  0  0  0  0
    2.8787   52.8146   23.4398 H   0  0  0  0  0  0
    1.2699   53.1941   24.0379 H   0  0  0  0  0  0
   -0.6319   52.6052   32.6489 H   0  0  0  0  0  0
    8.4126   56.2630   21.2753 H   0  0  0  0  0  0
    4.6753   54.1713   21.7848 H   0  0  0  0  0  0
    8.0192   56.3292   18.8440 H   0  0  0  0  0  0
    4.3143   54.2373   19.3781 H   0  0  0  0  0  0
    5.9731   55.3158   17.8989 H   0  0  0  0  0  0
  1  4  1  0  0  0
  1  7  1  0  0  0
  1  8  2  0  0  0
  2  4  1  0  0  0
  2 21  1  0  0  0
  2  3  1  0  0  0
  3  6  1  0  0  0
  3  5  2  0  0  0
  4 17  2  0  0  0
  5  9  1  0  0  0
  6  8  1  0  0  0
  6 15  2  0  0  0
  7 10  1  0  0  0
  7 11  2  0  0  0
  8 29  1  0  0  0
  9 12  2  0  0  0
  9 16  1  0  0  0
 10 14  2  0  0  0
 10 19  1  0  0  0
 11 13  1  0  0  0
 11 20  1  0  0  0
 12 15  1  0  0  0
 13 18  2  0  0  0
 13 30  1  0  0  0
 14 18  1  0  0  0
 14 31  1  0  0  0
 15 32  1  0  0  0
 16 22  1  0  0  0
 16 33  1  0  0  0
 18 23  1  0  0  0
 21 34  1  0  0  0
 21 35  1  0  0  0
 21 36  1  0  0  0
 22 24  1  0  0  0
 22 25  2  0  0  0
 23 37  1  0  0  0
 24 26  2  0  0  0
 24 38  1  0  0  0
 25 27  1  0  0  0
 25 39  1  0  0  0
 26 28  1  0  0  0
 26 40  1  0  0  0
 27 28  2  0  0  0
 27 41  1  0  0  0
 28 42  1  0  0  0
M  END
> <s_m_entry_id>
46291

> <s_m_entry_name>
dock_pv.32

> <s_m_Source_Path>
/home/csk/Desktop/cluster/DUD-E-result/wee1

> <s_m_Source_File>
dock_pv.maegz

> <i_m_Source_File_Index>
32

> <chembl_id>
CHEMBL179898

> <chembl_pref_name>
None

> <i_lp_mmshare_version>
53161

> <r_lp_tautomer_probability>
0.999999999997365

> <s_lp_Force_Field>
OPLS_2005

> <r_lp_Energy>
23.775503

> <b_lp_Chiralities_Consistent>
1

> <s_lp_Variant>
CHEMBL5491_lig64-1

> <s_i_glide_gridfile>
glide-grid_3biz

> <i_i_glide_lignum>
62

> <i_i_glide_rotatable_bonds>
4

> <r_i_docking_score>
-9.5859049865575

> <r_i_glide_ligand_efficiency>
-0.342353749519911

> <r_i_glide_ligand_efficiency_sa>
-1.03958761911774

> <r_i_glide_ligand_efficiency_ln>
-2.21270832529784

> <r_i_glide_gscore>
-9.5859049865575

> <r_i_glide_lipo>
-3.35913576365083

> <r_i_glide_hbond>
-0.655553662140849

> <r_i_glide_metal>
0

> <r_i_glide_rewards>
-2.46802424404405

> <r_i_glide_evdw>
-40.113826751709

> <r_i_glide_ecoul>
-8.83957004547119

> <r_i_glide_erotb>
0.24256708702606

> <r_i_glide_esite>
-0.0141315593417034

> <r_i_glide_emodel>
-74.4967501670206

> <r_i_glide_energy>
-48.9533967971802

> <r_i_glide_einternal>
2.94377660751343

> <i_i_glide_confnum>
1

> <i_i_glide_posenum>
95

> <r_i_glide_eff_state_penalty>
0

> <s_user_duplicate_titles>
CHEMBL5491_lig64,303312

> <i_f3d_flags>
0

> <s_m_subgroup_title>
dock_pv

> <s_m_subgroupid>
dock_pv

> <b_m_subgroup_collapsed>
1

$$$$
CHEMBL5491_lig270
                    3D
 Schrodinger Suite 2021-1.
 41 44  0  0  1  0            999 V2000
    6.4692   55.0412   22.0312 C   0  0  0  0  0  0
    5.5473   54.7886   21.0262 C   0  0  0  0  0  0
    4.2923   54.2517   21.3027 C   0  0  0  0  0  0
    6.1821   54.7397   23.3606 C   0  0  0  0  0  0
    4.8992   54.2630   23.6910 C   0  0  0  0  0  0
    3.9700   54.0016   22.6454 C   0  0  0  0  0  0
    2.8065   53.5110   23.2265 N   0  0  0  0  0  0
    4.2516   54.0025   24.9163 C   0  0  0  0  0  0
    2.9420   53.5187   24.6089 C   0  0  0  0  0  0
    2.0370   53.1442   25.6218 C   0  0  0  0  0  0
    2.4580   53.2595   26.9493 C   0  0  0  0  0  0
    4.6186   54.1147   26.2752 C   0  0  0  0  0  0
    3.7305   53.7367   27.2475 C   0  0  0  0  0  0
    4.3904   53.9347   28.5614 C   0  0  0  0  0  0
    5.6069   54.4358   28.2764 N   0  0  0  0  0  0
    5.8495   54.5965   26.9635 C   0  0  0  0  0  0
    7.6817   55.5651   21.6872 O   0  0  0  0  0  0
    3.9450   53.7048   29.6821 O   0  0  0  0  0  0
    6.8791   55.0628   26.4849 O   0  0  0  0  0  0
    1.6021   53.0937   22.5037 C   0  0  0  0  0  0
    1.3684   51.5638   22.5121 C   0  0  0  0  0  0
    2.4081   50.7557   21.8601 N   0  0  0  0  0  0
    2.5464   51.0423   20.4303 C   0  0  0  0  0  0
    2.0831   49.3380   22.0125 C   0  0  0  0  0  0
    5.8099   55.0125   20.0010 H   0  0  0  0  0  0
    3.5999   54.0677   20.4967 H   0  0  0  0  0  0
    6.9235   54.9379   24.1154 H   0  0  0  0  0  0
    1.0494   52.7724   25.3955 H   0  0  0  0  0  0
    1.7785   52.9727   27.7428 H   0  0  0  0  0  0
    6.2735   54.7029   28.9869 H   0  0  0  0  0  0
    8.3375   55.4735   22.3939 H   0  0  0  0  0  0
    0.7587   53.6016   22.9670 H   0  0  0  0  0  0
    1.6450   53.4614   21.4824 H   0  0  0  0  0  0
    1.2455   51.2341   23.5460 H   0  0  0  0  0  0
    0.4110   51.3635   22.0273 H   0  0  0  0  0  0
    2.8979   52.0574   20.2593 H   0  0  0  0  0  0
    3.2796   50.3776   19.9697 H   0  0  0  0  0  0
    1.6017   50.9162   19.8967 H   0  0  0  0  0  0
    1.9719   49.0685   23.0611 H   0  0  0  0  0  0
    1.1526   49.0789   21.5029 H   0  0  0  0  0  0
    2.8762   48.7118   21.6009 H   0  0  0  0  0  0
  1 17  1  0  0  0
  1  2  2  0  0  0
  1  4  1  0  0  0
  2  3  1  0  0  0
  2 25  1  0  0  0
  3  6  2  0  0  0
  3 26  1  0  0  0
  4  5  2  0  0  0
  4 27  1  0  0  0
  5  8  1  0  0  0
  5  6  1  0  0  0
  6  7  1  0  0  0
  7  9  1  0  0  0
  7 20  1  0  0  0
  8 12  1  0  0  0
  8  9  2  0  0  0
  9 10  1  0  0  0
 10 11  2  0  0  0
 10 28  1  0  0  0
 11 13  1  0  0  0
 11 29  1  0  0  0
 12 13  2  0  0  0
 12 16  1  0  0  0
 13 14  1  0  0  0
 14 15  1  0  0  0
 14 18  2  0  0  0
 15 16  1  0  0  0
 15 30  1  0  0  0
 16 19  2  0  0  0
 17 31  1  0  0  0
 20 21  1  0  0  0
 20 32  1  0  0  0
 20 33  1  0  0  0
 21 22  1  0  0  0
 21 34  1  0  0  0
 21 35  1  0  0  0
 22 23  1  0  0  0
 22 24  1  0  0  0
 23 36  1  0  0  0
 23 37  1  0  0  0
 23 38  1  0  0  0
 24 39  1  0  0  0
 24 40  1  0  0  0
 24 41  1  0  0  0
M  END
> <s_m_entry_id>
46292

> <s_m_entry_name>
dock_pv.33

> <s_m_Source_Path>
/home/csk/Desktop/cluster/DUD-E-result/wee1

> <s_m_Source_File>
dock_pv.maegz

> <i_m_Source_File_Index>
33

> <chembl_id>
CHEMBL520181

> <chembl_pref_name>
None

> <i_lp_mmshare_version>
53161

> <r_lp_tautomer_probability>
1

> <s_lp_Force_Field>
OPLS_2005

> <r_lp_Energy>
62.248393

> <b_lp_Chiralities_Consistent>
1

> <s_lp_Variant>
CHEMBL5491_lig270-1

> <s_i_glide_gridfile>
glide-grid_3biz

> <i_i_glide_lignum>
283

> <i_i_glide_rotatable_bonds>
4

> <r_i_docking_score>
-9.55510631857998

> <r_i_glide_ligand_efficiency>
-0.398129429940833

> <r_i_glide_ligand_efficiency_sa>
-1.14840399730123

> <r_i_glide_ligand_efficiency_ln>
-2.28697539729502

> <r_i_glide_gscore>
-9.55510631857998

> <r_i_glide_lipo>
-2.65399805691109

> <r_i_glide_hbond>
-0.734603585030032

> <r_i_glide_metal>
0

> <r_i_glide_rewards>
-3.0927175852734

> <r_i_glide_evdw>
-37.0973739624023

> <r_i_glide_ecoul>
-9.79659843444824

> <r_i_glide_erotb>
0.250571371921888

> <r_i_glide_esite>
0

> <r_i_glide_emodel>
-73.1328922646068

> <r_i_glide_energy>
-46.8939723968506

> <r_i_glide_einternal>
0.461689114570618

> <i_i_glide_confnum>
7

> <i_i_glide_posenum>
313

> <r_i_glide_eff_state_penalty>
0

> <s_user_duplicate_titles>
CHEMBL5491_lig270,523527

> <i_f3d_flags>
0

> <s_m_subgroup_title>
dock_pv

> <s_m_subgroupid>
dock_pv

> <b_m_subgroup_collapsed>
1

$$$$
CHEMBL5491_lig283
                    3D
 Schrodinger Suite 2021-1.
 48 52  0  0  1  0            999 V2000
    6.4576   54.9568   22.0407 C   0  0  0  0  0  0
    5.5343   54.6644   21.0429 C   0  0  0  0  0  0
    4.2696   54.1564   21.3385 C   0  0  0  0  0  0
    6.1623   54.7094   23.3784 C   0  0  0  0  0  0
    4.8749   54.2630   23.7244 C   0  0  0  0  0  0
    3.9399   53.9881   22.6913 C   0  0  0  0  0  0
    2.7637   53.5588   23.2875 N   0  0  0  0  0  0
    4.2234   54.0386   24.9569 C   0  0  0  0  0  0
    2.9039   53.5737   24.6685 C   0  0  0  0  0  0
    2.0062   53.2126   25.6895 C   0  0  0  0  0  0
    2.4372   53.3449   27.0119 C   0  0  0  0  0  0
    4.5990   54.1666   26.3078 C   0  0  0  0  0  0
    3.7155   53.8144   27.2920 C   0  0  0  0  0  0
    4.3869   54.0255   28.5984 C   0  0  0  0  0  0
    5.6095   54.5011   28.2988 N   0  0  0  0  0  0
    5.8427   54.6317   26.9810 C   0  0  0  0  0  0
    3.9400   53.8215   29.7210 O   0  0  0  0  0  0
    6.8791   55.0634   26.4854 O   0  0  0  0  0  0
    7.6789   55.4693   21.6882 O   0  0  0  0  0  0
    1.5812   53.1014   22.5634 C   0  0  0  0  0  0
    1.8563   51.7272   21.9057 C   0  0  0  0  0  0
    0.6059   51.0048   21.3693 C   0  0  0  0  0  0
    0.7266   49.7038   20.9903 N   0  0  0  0  0  0
   -0.4814   51.5908   21.4055 O   0  0  0  0  0  0
   -0.4768   48.8995   20.6941 C   0  0  0  0  0  0
   -0.3456   48.3774   19.2498 C   0  0  0  0  0  0
    0.8680   47.6463   19.1136 O   0  0  0  0  0  0
    2.0120   48.4718   19.3172 C   0  0  0  0  0  0
    2.0354   49.0535   20.7519 C   0  0  0  0  0  0
    5.7975   54.8462   20.0114 H   0  0  0  0  0  0
    3.5680   53.9496   20.5440 H   0  0  0  0  0  0
    6.9037   54.9240   24.1279 H   0  0  0  0  0  0
    1.0141   52.8431   25.4790 H   0  0  0  0  0  0
    1.7662   53.0741   27.8141 H   0  0  0  0  0  0
    6.2869   54.7706   28.9969 H   0  0  0  0  0  0
    8.3213   55.4635   22.4096 H   0  0  0  0  0  0
    1.3293   53.8545   21.8153 H   0  0  0  0  0  0
    0.7341   53.0574   23.2494 H   0  0  0  0  0  0
    2.3363   51.0707   22.6350 H   0  0  0  0  0  0
    2.5438   51.8641   21.0708 H   0  0  0  0  0  0
   -1.4242   49.4177   20.8621 H   0  0  0  0  0  0
   -0.4240   48.0534   21.3798 H   0  0  0  0  0  0
   -1.1865   47.7256   19.0111 H   0  0  0  0  0  0
   -0.3865   49.2007   18.5319 H   0  0  0  0  0  0
    2.9033   47.8755   19.1342 H   0  0  0  0  0  0
    2.0360   49.2762   18.5774 H   0  0  0  0  0  0
    2.1001   48.2538   21.4850 H   0  0  0  0  0  0
    2.8928   49.7175   20.8517 H   0  0  0  0  0  0
  1  2  2  0  0  0
  1 19  1  0  0  0
  1  4  1  0  0  0
  2  3  1  0  0  0
  2 30  1  0  0  0
  3  6  2  0  0  0
  3 31  1  0  0  0
  4  5  2  0  0  0
  4 32  1  0  0  0
  5  8  1  0  0  0
  5  6  1  0  0  0
  6  7  1  0  0  0
  7 20  1  0  0  0
  7  9  1  0  0  0
  8  9  2  0  0  0
  8 12  1  0  0  0
  9 10  1  0  0  0
 10 11  2  0  0  0
 10 33  1  0  0  0
 11 13  1  0  0  0
 11 34  1  0  0  0
 12 16  1  0  0  0
 12 13  2  0  0  0
 13 14  1  0  0  0
 14 17  2  0  0  0
 14 15  1  0  0  0
 15 16  1  0  0  0
 15 35  1  0  0  0
 16 18  2  0  0  0
 19 36  1  0  0  0
 20 21  1  0  0  0
 20 37  1  0  0  0
 20 38  1  0  0  0
 21 22  1  0  0  0
 21 39  1  0  0  0
 21 40  1  0  0  0
 22 23  1  0  0  0
 22 24  2  0  0  0
 23 25  1  0  0  0
 23 29  1  0  0  0
 25 26  1  0  0  0
 25 41  1  0  0  0
 25 42  1  0  0  0
 26 27  1  0  0  0
 26 43  1  0  0  0
 26 44  1  0  0  0
 27 28  1  0  0  0
 28 29  1  0  0  0
 28 45  1  0  0  0
 28 46  1  0  0  0
 29 47  1  0  0  0
 29 48  1  0  0  0
M  END
> <s_m_entry_id>
46293

> <s_m_entry_name>
dock_pv.34

> <s_m_Source_Path>
/home/csk/Desktop/cluster/DUD-E-result/wee1

> <s_m_Source_File>
dock_pv.maegz

> <i_m_Source_File_Index>
34

> <chembl_id>
CHEMBL488572

> <chembl_pref_name>
None

> <i_lp_mmshare_version>
53161

> <r_lp_tautomer_probability>
1

> <s_lp_Force_Field>
OPLS_2005

> <r_lp_Energy>
80.355583

> <b_lp_Chiralities_Consistent>
1

> <s_lp_Variant>
CHEMBL5491_lig283-1

> <s_i_glide_gridfile>
glide-grid_3biz

> <i_i_glide_lignum>
296

> <i_i_glide_rotatable_bonds>
5

> <r_i_docking_score>
-9.49316061567763

> <r_i_glide_ligand_efficiency>
-0.327350366057849

> <r_i_glide_ligand_efficiency_sa>
-1.00572403640509

> <r_i_glide_ligand_efficiency_ln>
-2.17369305520735

> <r_i_glide_gscore>
-9.49316061567763

> <r_i_glide_lipo>
-2.64189674356605

> <r_i_glide_hbond>
-0.770529925686252

> <r_i_glide_metal>
0

> <r_i_glide_rewards>
-2.65560843654758

> <r_i_glide_evdw>
-41.0145645141602

> <r_i_glide_ecoul>
-10.9298057556152

> <r_i_glide_erotb>
0.265073579172551

> <r_i_glide_esite>
0

> <r_i_glide_emodel>
-79.5905552413243

> <r_i_glide_energy>
-51.9443702697754

> <r_i_glide_einternal>
4.36406946182251

> <i_i_glide_confnum>
4

> <i_i_glide_posenum>
343

> <r_i_glide_eff_state_penalty>
0

> <s_user_duplicate_titles>
CHEMBL5491_lig283,523589

> <i_f3d_flags>
0

> <s_m_subgroup_title>
dock_pv

> <s_m_subgroupid>
dock_pv

> <b_m_subgroup_collapsed>
1

$$$$
CHEMBL5491_lig263
                    3D
 Schrodinger Suite 2021-1.
 51 55  0  0  1  0            999 V2000
    6.3198   54.9391   22.0854 C   0  0  0  0  0  0
    5.3525   54.6414   21.1296 C   0  0  0  0  0  0
    4.1038   54.1241   21.4771 C   0  0  0  0  0  0
    6.0770   54.7022   23.4363 C   0  0  0  0  0  0
    4.7979   54.2630   23.8362 C   0  0  0  0  0  0
    3.8230   53.9686   22.8408 C   0  0  0  0  0  0
    2.6661   53.5523   23.4895 N   0  0  0  0  0  0
    4.1930   54.0423   25.0944 C   0  0  0  0  0  0
    2.8708   53.5643   24.8601 C   0  0  0  0  0  0
    2.0101   53.2014   25.9141 C   0  0  0  0  0  0
    2.4825   53.3493   27.2190 C   0  0  0  0  0  0
    4.6113   54.1803   26.4319 C   0  0  0  0  0  0
    3.7629   53.8370   27.4492 C   0  0  0  0  0  0
    4.4741   54.0772   28.7277 C   0  0  0  0  0  0
    5.6789   54.5612   28.3775 N   0  0  0  0  0  0
    5.8724   54.6594   27.0499 C   0  0  0  0  0  0
    7.5249   55.4627   21.6870 O   0  0  0  0  0  0
    4.0726   53.8882   29.8707 O   0  0  0  0  0  0
    6.8859   55.0728   26.5009 O   0  0  0  0  0  0
    1.4250   53.1143   22.8518 C   0  0  0  0  0  0
    1.3882   51.5763   22.6558 C   0  0  0  0  0  0
    1.6936   51.1107   21.2099 C   0  0  0  0  0  0
    0.6179   51.4990   20.1678 C   0  0  0  0  0  0
    0.8820   51.3354   18.8441 N   0  0  0  0  0  0
   -0.4923   51.8633   20.5667 O   0  0  0  0  0  0
   -0.0597   51.8284   17.8235 C   0  0  0  0  0  0
    0.5406   53.1579   17.2987 C   0  0  0  0  0  0
    1.8630   52.9439   16.7964 O   0  0  0  0  0  0
    2.7677   52.4132   17.7694 C   0  0  0  0  0  0
    2.2298   51.0702   18.3160 C   0  0  0  0  0  0
    5.5761   54.8117   20.0866 H   0  0  0  0  0  0
    3.3696   53.8952   20.7188 H   0  0  0  0  0  0
    6.8478   54.9257   24.1521 H   0  0  0  0  0  0
    1.0146   52.8214   25.7360 H   0  0  0  0  0  0
    1.8406   53.0794   28.0460 H   0  0  0  0  0  0
    6.3780   54.8518   29.0483 H   0  0  0  0  0  0
    8.1948   55.4631   22.3836 H   0  0  0  0  0  0
    1.2820   53.6620   21.9216 H   0  0  0  0  0  0
    0.5955   53.4262   23.4866 H   0  0  0  0  0  0
    0.4064   51.2009   22.9536 H   0  0  0  0  0  0
    2.0789   51.0864   23.3451 H   0  0  0  0  0  0
    1.7725   50.0236   21.1987 H   0  0  0  0  0  0
    2.6661   51.5065   20.9181 H   0  0  0  0  0  0
   -1.1052   51.8642   18.1389 H   0  0  0  0  0  0
   -0.0287   51.0778   17.0301 H   0  0  0  0  0  0
   -0.0880   53.5583   16.5034 H   0  0  0  0  0  0
    0.5547   53.9179   18.0838 H   0  0  0  0  0  0
    3.7496   52.2643   17.3183 H   0  0  0  0  0  0
    2.9169   53.1338   18.5749 H   0  0  0  0  0  0
    2.0608   50.4018   17.4694 H   0  0  0  0  0  0
    2.8902   50.4812   18.9522 H   0  0  0  0  0  0
  1 17  1  0  0  0
  1  2  2  0  0  0
  1  4  1  0  0  0
  2  3  1  0  0  0
  2 31  1  0  0  0
  3  6  2  0  0  0
  3 32  1  0  0  0
  4  5  2  0  0  0
  4 33  1  0  0  0
  5  8  1  0  0  0
  5  6  1  0  0  0
  6  7  1  0  0  0
  7 20  1  0  0  0
  7  9  1  0  0  0
  8  9  2  0  0  0
  8 12  1  0  0  0
  9 10  1  0  0  0
 10 11  2  0  0  0
 10 34  1  0  0  0
 11 13  1  0  0  0
 11 35  1  0  0  0
 12 16  1  0  0  0
 12 13  2  0  0  0
 13 14  1  0  0  0
 14 18  2  0  0  0
 14 15  1  0  0  0
 15 16  1  0  0  0
 15 36  1  0  0  0
 16 19  2  0  0  0
 17 37  1  0  0  0
 20 21  1  0  0  0
 20 38  1  0  0  0
 20 39  1  0  0  0
 21 22  1  0  0  0
 21 40  1  0  0  0
 21 41  1  0  0  0
 22 23  1  0  0  0
 22 42  1  0  0  0
 22 43  1  0  0  0
 23 24  1  0  0  0
 23 25  2  0  0  0
 24 26  1  0  0  0
 24 30  1  0  0  0
 26 27  1  0  0  0
 26 44  1  0  0  0
 26 45  1  0  0  0
 27 28  1  0  0  0
 27 46  1  0  0  0
 27 47  1  0  0  0
 28 29  1  0  0  0
 29 30  1  0  0  0
 29 48  1  0  0  0
 29 49  1  0  0  0
 30 50  1  0  0  0
 30 51  1  0  0  0
M  END
> <s_m_entry_id>
46294

> <s_m_entry_name>
dock_pv.35

> <s_m_Source_Path>
/home/csk/Desktop/cluster/DUD-E-result/wee1

> <s_m_Source_File>
dock_pv.maegz

> <i_m_Source_File_Index>
35

> <chembl_id>
CHEMBL520049

> <chembl_pref_name>
None

> <i_lp_mmshare_version>
53161

> <r_lp_tautomer_probability>
1

> <s_lp_Force_Field>
OPLS_2005

> <r_lp_Energy>
79.971476

> <b_lp_Chiralities_Consistent>
1

> <s_lp_Variant>
CHEMBL5491_lig263-1

> <s_i_glide_gridfile>
glide-grid_3biz

> <i_i_glide_lignum>
276

> <i_i_glide_rotatable_bonds>
6

> <r_i_docking_score>
-9.47757624122695

> <r_i_glide_ligand_efficiency>
-0.315919208040898

> <r_i_glide_ligand_efficiency_sa>
-0.981634431366968

> <r_i_glide_ligand_efficiency_ln>
-2.15340858847091

> <r_i_glide_gscore>
-9.47757624122695

> <r_i_glide_lipo>
-2.71906187038576

> <r_i_glide_hbond>
-0.841117461118358

> <r_i_glide_metal>
0

> <r_i_glide_rewards>
-2.54389975006894

> <r_i_glide_evdw>
-40.5923767089844

> <r_i_glide_ecoul>
-10.9454984664917

> <r_i_glide_erotb>
0.331830002945005

> <r_i_glide_esite>
-0.0338835571759205

> <r_i_glide_emodel>
-78.6274474896607

> <r_i_glide_energy>
-51.5378751754761

> <r_i_glide_einternal>
5.39785194396973

> <i_i_glide_confnum>
14

> <i_i_glide_posenum>
366

> <r_i_glide_eff_state_penalty>
0

> <s_user_duplicate_titles>
CHEMBL5491_lig263,523718

> <i_f3d_flags>
0

> <s_m_subgroup_title>
dock_pv

> <s_m_subgroupid>
dock_pv

> <b_m_subgroup_collapsed>
1

$$$$
CHEMBL5491_lig202
                    3D
 Schrodinger Suite 2021-1.
 51 56  0  0  1  0            999 V2000
    0.5245   52.6629   30.8542 C   0  0  0  0  0  0
   -0.4710   51.8926   30.2619 C   0  0  0  0  0  0
   -0.5513   51.7074   28.8870 C   0  0  0  0  0  0
    1.5508   53.1909   30.0902 C   0  0  0  0  0  0
    1.5566   52.9629   28.7085 C   0  0  0  0  0  0
    0.4718   52.2638   28.1165 C   0  0  0  0  0  0
    0.6567   52.2899   26.7483 N   0  0  0  0  0  0
    2.4677   53.2753   27.6896 C   0  0  0  0  0  0
    1.8828   52.8726   26.4715 C   0  0  0  0  0  0
    2.5356   53.0633   25.2559 C   0  0  0  0  0  0
    3.7662   53.7502   25.2263 C   0  0  0  0  0  0
    3.7520   53.8384   27.6555 C   0  0  0  0  0  0
    4.3841   54.0692   26.4559 C   0  0  0  0  0  0
    5.7168   54.6718   26.8074 C   0  0  0  0  0  0
    5.7818   54.6631   28.1431 N   0  0  0  0  0  0
    4.6608   54.2628   28.7449 C   0  0  0  0  0  0
    6.6061   55.1392   26.0987 O   0  0  0  0  0  0
    4.4762   54.2630   29.9508 O   0  0  0  0  0  0
    4.3918   54.0118   23.8862 C   0  0  0  0  0  0
    3.6323   54.4024   22.7637 C   0  0  0  0  0  0
    4.2641   54.6589   21.5445 C   0  0  0  0  0  0
    5.6499   54.6509   21.4405 C   0  0  0  0  0  0
    6.4056   54.2727   22.5399 C   0  0  0  0  0  0
    5.7741   53.8633   23.7043 C   0  0  0  0  0  0
    0.5084   52.9116   32.1984 O   0  0  0  0  0  0
   -0.2736   51.7554   25.7585 C   0  0  0  0  0  0
   -0.1522   50.2243   25.6580 C   0  0  0  0  0  0
    1.9189   54.6630   22.8548 Cl  0  0  0  0  0  0
   -0.8836   49.5990   24.0716 S   0  0  2  0  0  0
    0.3642   50.3392   22.9430 C   0  0  0  0  0  0
    0.1995   51.3372   22.1087 N   0  0  0  0  0  0
    1.4175   51.5341   21.4595 N   0  0  0  0  0  0
    2.2514   50.6429   21.9342 C   0  0  0  0  0  0
    1.6487   49.8631   22.8863 N   0  0  0  0  0  0
   -2.1598   50.4061   23.8231 O   0  0  0  0  0  0
   -1.2295   51.4477   30.8869 H   0  0  0  0  0  0
   -1.3596   51.1349   28.4534 H   0  0  0  0  0  0
    2.3134   53.7724   30.5737 H   0  0  0  0  0  0
    2.0987   52.6685   24.3529 H   0  0  0  0  0  0
    6.5748   55.0256   28.6569 H   0  0  0  0  0  0
    3.6791   54.9256   20.6779 H   0  0  0  0  0  0
    6.1293   54.9184   20.5101 H   0  0  0  0  0  0
    7.4846   54.2630   22.4871 H   0  0  0  0  0  0
    6.3966   53.4634   24.4871 H   0  0  0  0  0  0
    1.2855   53.3870   32.5152 H   0  0  0  0  0  0
   -0.0845   52.2515   24.8072 H   0  0  0  0  0  0
   -1.2851   52.0400   26.0508 H   0  0  0  0  0  0
   -0.6772   49.7571   26.4869 H   0  0  0  0  0  0
    0.8792   49.8862   25.7054 H   0  0  0  0  0  0
    3.2787   50.4886   21.6437 H   0  0  0  0  0  0
    2.0538   49.0989   23.4174 H   0  0  0  0  0  0
  1  2  2  0  0  0
  1  4  1  0  0  0
  1 25  1  0  0  0
  2  3  1  0  0  0
  2 36  1  0  0  0
  3  6  2  0  0  0
  3 37  1  0  0  0
  4  5  2  0  0  0
  4 38  1  0  0  0
  5  8  1  0  0  0
  5  6  1  0  0  0
  6  7  1  0  0  0
  7 26  1  0  0  0
  7  9  1  0  0  0
  8  9  1  0  0  0
  8 12  2  0  0  0
  9 10  2  0  0  0
 10 11  1  0  0  0
 10 39  1  0  0  0
 11 19  1  0  0  0
 11 13  2  0  0  0
 12 16  1  0  0  0
 12 13  1  0  0  0
 13 14  1  0  0  0
 14 17  2  0  0  0
 14 15  1  0  0  0
 15 16  1  0  0  0
 15 40  1  0  0  0
 16 18  2  0  0  0
 19 20  2  0  0  0
 19 24  1  0  0  0
 20 21  1  0  0  0
 20 28  1  0  0  0
 21 22  2  0  0  0
 21 41  1  0  0  0
 22 23  1  0  0  0
 22 42  1  0  0  0
 23 24  2  0  0  0
 23 43  1  0  0  0
 24 44  1  0  0  0
 25 45  1  0  0  0
 26 27  1  0  0  0
 26 46  1  0  0  0
 26 47  1  0  0  0
 27 29  1  0  0  0
 27 48  1  0  0  0
 27 49  1  0  0  0
 29 30  1  0  0  0
 29 35  2  0  0  0
 30 31  2  0  0  0
 30 34  1  0  0  0
 31 32  1  0  0  0
 32 33  2  0  0  0
 33 34  1  0  0  0
 33 50  1  0  0  0
 34 51  1  0  0  0
M  END
> <s_m_entry_id>
46295

> <s_m_entry_name>
dock_pv.36

> <s_m_Source_Path>
/home/csk/Desktop/cluster/DUD-E-result/wee1

> <s_m_Source_File>
dock_pv.maegz

> <i_m_Source_File_Index>
36

> <chembl_id>
CHEMBL472208

> <chembl_pref_name>
None

> <i_lp_mmshare_version>
53161

> <r_lp_tautomer_probability>
1

> <s_lp_Force_Field>
OPLS_2005

> <r_lp_Energy>
69.193571

> <b_lp_Chiralities_Consistent>
1

> <s_lp_Variant>
CHEMBL5491_lig202-1

> <s_i_glide_gridfile>
glide-grid_3biz

> <i_i_glide_lignum>
209

> <i_i_glide_rotatable_bonds>
6

> <r_i_docking_score>
-9.44305780025043

> <r_i_glide_ligand_efficiency>
-0.269801651435727

> <r_i_glide_ligand_efficiency_sa>
-0.882539091398739

> <r_i_glide_ligand_efficiency_ln>
-2.07296076453112

> <r_i_glide_gscore>
-9.44305780025043

> <r_i_glide_lipo>
-2.74385168018106

> <r_i_glide_hbond>
-0.938402195223854

> <r_i_glide_metal>
0

> <r_i_glide_rewards>
-1.90447611249034

> <r_i_glide_evdw>
-39.0615119934082

> <r_i_glide_ecoul>
-13.9880342483521

> <r_i_glide_erotb>
0.22377187173115

> <r_i_glide_esite>
-0.0288189471631052

> <r_i_glide_emodel>
-79.1441952320068

> <r_i_glide_energy>
-53.0495462417603

> <r_i_glide_einternal>
11.8087539672852

> <i_i_glide_confnum>
9

> <i_i_glide_posenum>
334

> <r_i_glide_eff_state_penalty>
0

> <s_user_duplicate_titles>
CHEMBL5491_lig202

> <i_f3d_flags>
0

> <s_m_subgroup_title>
dock_pv

> <s_m_subgroupid>
dock_pv

> <b_m_subgroup_collapsed>
1

$$$$
CHEMBL5491_lig282
                    3D
 Schrodinger Suite 2021-1.
 44 47  0  0  1  0            999 V2000
    6.2889   54.9245   22.0870 C   0  0  0  0  0  0
    5.3252   54.6169   21.1332 C   0  0  0  0  0  0
    4.0787   54.0963   21.4845 C   0  0  0  0  0  0
    6.0475   54.6880   23.4379 C   0  0  0  0  0  0
    4.7659   54.2632   23.8432 C   0  0  0  0  0  0
    3.7888   53.9652   22.8512 C   0  0  0  0  0  0
    2.6226   53.5784   23.5077 N   0  0  0  0  0  0
    4.1659   54.0565   25.1047 C   0  0  0  0  0  0
    2.8306   53.6099   24.8796 C   0  0  0  0  0  0
    1.9619   53.2926   25.9415 C   0  0  0  0  0  0
    2.4480   53.4197   27.2433 C   0  0  0  0  0  0
    4.5938   54.1918   26.4404 C   0  0  0  0  0  0
    3.7433   53.8668   27.4642 C   0  0  0  0  0  0
    4.4696   54.0827   28.7362 C   0  0  0  0  0  0
    5.6791   54.5459   28.3799 N   0  0  0  0  0  0
    5.8665   54.6493   27.0517 C   0  0  0  0  0  0
    4.0748   53.8910   29.8817 O   0  0  0  0  0  0
    6.8803   55.0630   26.5027 O   0  0  0  0  0  0
    7.4880   55.4629   21.6870 O   0  0  0  0  0  0
    1.3457   53.2114   22.8843 C   0  0  0  0  0  0
    1.0170   51.7056   23.0360 C   0  0  0  0  0  0
    1.9145   50.7641   22.2101 C   0  0  0  0  0  0
    1.7864   50.9962   20.7699 N   0  0  0  0  0  0
    2.8800   50.3299   20.0744 C   0  0  0  0  0  0
    0.5161   50.5091   20.2373 C   0  0  0  0  0  0
    5.5457   54.7794   20.0893 H   0  0  0  0  0  0
    3.3494   53.8629   20.7217 H   0  0  0  0  0  0
    6.8171   54.9148   24.1529 H   0  0  0  0  0  0
    0.9488   52.9574   25.7743 H   0  0  0  0  0  0
    1.8042   53.1746   28.0761 H   0  0  0  0  0  0
    6.3888   54.8180   29.0488 H   0  0  0  0  0  0
    8.1576   55.4627   22.3835 H   0  0  0  0  0  0
    0.5689   53.8159   23.3516 H   0  0  0  0  0  0
    1.3634   53.4970   21.8317 H   0  0  0  0  0  0
    1.0982   51.4086   24.0807 H   0  0  0  0  0  0
   -0.0300   51.5323   22.7927 H   0  0  0  0  0  0
    2.9517   50.9568   22.4869 H   0  0  0  0  0  0
    1.7177   49.7172   22.4604 H   0  0  0  0  0  0
    2.8404   50.5219   19.0016 H   0  0  0  0  0  0
    3.8385   50.7128   20.4309 H   0  0  0  0  0  0
    2.8743   49.2498   20.2269 H   0  0  0  0  0  0
    0.4709   50.6510   19.1553 H   0  0  0  0  0  0
    0.3758   49.4479   20.4446 H   0  0  0  0  0  0
   -0.3276   51.0534   20.6602 H   0  0  0  0  0  0
  1  2  2  0  0  0
  1 19  1  0  0  0
  1  4  1  0  0  0
  2  3  1  0  0  0
  2 26  1  0  0  0
  3  6  2  0  0  0
  3 27  1  0  0  0
  4  5  2  0  0  0
  4 28  1  0  0  0
  5  8  1  0  0  0
  5  6  1  0  0  0
  6  7  1  0  0  0
  7  9  1  0  0  0
  7 20  1  0  0  0
  8 12  1  0  0  0
  8  9  2  0  0  0
  9 10  1  0  0  0
 10 11  2  0  0  0
 10 29  1  0  0  0
 11 13  1  0  0  0
 11 30  1  0  0  0
 12 13  2  0  0  0
 12 16  1  0  0  0
 13 14  1  0  0  0
 14 15  1  0  0  0
 14 17  2  0  0  0
 15 16  1  0  0  0
 15 31  1  0  0  0
 16 18  2  0  0  0
 19 32  1  0  0  0
 20 21  1  0  0  0
 20 33  1  0  0  0
 20 34  1  0  0  0
 21 22  1  0  0  0
 21 35  1  0  0  0
 21 36  1  0  0  0
 22 23  1  0  0  0
 22 37  1  0  0  0
 22 38  1  0  0  0
 23 24  1  0  0  0
 23 25  1  0  0  0
 24 39  1  0  0  0
 24 40  1  0  0  0
 24 41  1  0  0  0
 25 42  1  0  0  0
 25 43  1  0  0  0
 25 44  1  0  0  0
M  END
> <s_m_entry_id>
46296

> <s_m_entry_name>
dock_pv.37

> <s_m_Source_Path>
/home/csk/Desktop/cluster/DUD-E-result/wee1

> <s_m_Source_File>
dock_pv.maegz

> <i_m_Source_File_Index>
37

> <chembl_id>
CHEMBL488573

> <chembl_pref_name>
None

> <i_lp_mmshare_version>
53161

> <r_lp_tautomer_probability>
1

> <s_lp_Force_Field>
OPLS_2005

> <r_lp_Energy>
66.654075

> <b_lp_Chiralities_Consistent>
1

> <s_lp_Variant>
CHEMBL5491_lig282-1

> <s_i_glide_gridfile>
glide-grid_3biz

> <i_i_glide_lignum>
295

> <i_i_glide_rotatable_bonds>
5

> <r_i_docking_score>
-9.43114224332443

> <r_i_glide_ligand_efficiency>
-0.377245689732977

> <r_i_glide_ligand_efficiency_sa>
-1.10307308726002

> <r_i_glide_ligand_efficiency_ln>
-2.2354633401942

> <r_i_glide_gscore>
-9.43114224332443

> <r_i_glide_lipo>
-2.8403964899693

> <r_i_glide_hbond>
-0.834003540868219

> <r_i_glide_metal>
0

> <r_i_glide_rewards>
-3.03354073759769

> <r_i_glide_evdw>
-37.951717376709

> <r_i_glide_ecoul>
-7.82862281799316

> <r_i_glide_erotb>
0.348677816645206

> <r_i_glide_esite>
0

> <r_i_glide_emodel>
-71.6658501598006

> <r_i_glide_energy>
-45.7803401947021

> <r_i_glide_einternal>
1.15887272357941

> <i_i_glide_confnum>
8

> <i_i_glide_posenum>
291

> <r_i_glide_eff_state_penalty>
0

> <s_user_duplicate_titles>
CHEMBL5491_lig282,523590

> <i_f3d_flags>
0

> <s_m_subgroup_title>
dock_pv

> <s_m_subgroupid>
dock_pv

> <b_m_subgroup_collapsed>
1

$$$$
CHEMBL5491_lig62
                    3D
 Schrodinger Suite 2021-1.
 43 46  0  0  1  0            999 V2000
    3.1247   53.5842   27.5268 C   0  0  0  0  0  0
    3.0558   53.6155   25.1261 N   0  0  0  0  0  0
    4.3332   54.2467   25.0800 C   0  0  0  0  0  0
    2.4491   53.1776   26.2789 C   0  0  0  0  0  0
    4.9553   54.4134   23.8819 N   0  0  0  0  0  0
    4.9760   54.5680   26.2798 C   0  0  0  0  0  0
    4.2926   54.2636   27.5237 C   0  0  0  0  0  0
    2.4973   53.2843   28.8387 C   0  0  0  0  0  0
    6.2041   54.9456   23.9030 C   0  0  0  0  0  0
    3.1608   52.4976   29.8020 C   0  0  0  0  0  0
    6.8818   55.2817   25.0269 N   0  0  0  0  0  0
    6.2722   55.0628   26.2141 C   0  0  0  0  0  0
    1.2537   53.8442   29.1652 C   0  0  0  0  0  0
    6.8720   55.2427   22.7120 N   0  0  0  0  0  0
    1.3998   52.5257   26.2824 O   0  0  0  0  0  0
    2.5684   52.2630   31.0507 C   0  0  0  0  0  0
    0.6376   53.5333   30.3749 C   0  0  0  0  0  0
    1.2788   52.7222   31.3041 C   0  0  0  0  0  0
    2.3731   53.3648   23.8397 C   0  0  0  0  0  0
    4.7427   51.8630   29.4724 Cl  0  0  0  0  0  0
    3.2698   51.6415   32.0862 N   0  0  0  0  0  0
    0.4790   54.9552   28.0896 Cl  0  0  0  0  0  0
    6.4993   55.2420   21.3560 C   0  0  0  0  0  0
    7.4000   55.8325   20.4659 C   0  0  0  0  0  0
    5.3237   54.6631   20.8597 C   0  0  0  0  0  0
    7.1306   55.8573   19.0999 C   0  0  0  0  0  0
    5.0561   54.6809   19.4932 C   0  0  0  0  0  0
    5.9589   55.2815   18.6206 C   0  0  0  0  0  0
    4.7382   54.5694   28.4619 H   0  0  0  0  0  0
    6.8284   55.3012   27.1107 H   0  0  0  0  0  0
    7.8277   55.5265   22.8884 H   0  0  0  0  0  0
   -0.3211   53.9585   30.6182 H   0  0  0  0  0  0
    0.8068   52.5357   32.2590 H   0  0  0  0  0  0
    2.2865   54.2940   23.2748 H   0  0  0  0  0  0
    2.9480   52.6642   23.2327 H   0  0  0  0  0  0
    1.3665   52.9563   23.9400 H   0  0  0  0  0  0
    4.2750   51.6437   31.9839 H   0  0  0  0  0  0
    2.8791   51.8017   33.0158 H   0  0  0  0  0  0
    8.3238   56.2627   20.8263 H   0  0  0  0  0  0
    4.6052   54.1810   21.5005 H   0  0  0  0  0  0
    7.8329   56.3107   18.4149 H   0  0  0  0  0  0
    4.1511   54.2276   19.1128 H   0  0  0  0  0  0
    5.7511   55.2933   17.5608 H   0  0  0  0  0  0
  1  4  1  0  0  0
  1  7  2  0  0  0
  1  8  1  0  0  0
  2  4  1  0  0  0
  2 19  1  0  0  0
  2  3  1  0  0  0
  3  6  1  0  0  0
  3  5  2  0  0  0
  4 15  2  0  0  0
  5  9  1  0  0  0
  6  7  1  0  0  0
  6 12  2  0  0  0
  7 29  1  0  0  0
  8 10  1  0  0  0
  8 13  2  0  0  0
  9 11  2  0  0  0
  9 14  1  0  0  0
 10 16  2  0  0  0
 10 20  1  0  0  0
 11 12  1  0  0  0
 12 30  1  0  0  0
 13 17  1  0  0  0
 13 22  1  0  0  0
 14 23  1  0  0  0
 14 31  1  0  0  0
 16 21  1  0  0  0
 16 18  1  0  0  0
 17 18  2  0  0  0
 17 32  1  0  0  0
 18 33  1  0  0  0
 19 34  1  0  0  0
 19 35  1  0  0  0
 19 36  1  0  0  0
 21 37  1  0  0  0
 21 38  1  0  0  0
 23 24  1  0  0  0
 23 25  2  0  0  0
 24 26  2  0  0  0
 24 39  1  0  0  0
 25 27  1  0  0  0
 25 40  1  0  0  0
 26 28  1  0  0  0
 26 41  1  0  0  0
 27 28  2  0  0  0
 27 42  1  0  0  0
 28 43  1  0  0  0
M  END
> <s_m_entry_id>
46297

> <s_m_entry_name>
dock_pv.38

> <s_m_Source_Path>
/home/csk/Desktop/cluster/DUD-E-result/wee1

> <s_m_Source_File>
dock_pv.maegz

> <i_m_Source_File_Index>
38

> <chembl_id>
CHEMBL181476

> <chembl_pref_name>
None

> <i_lp_mmshare_version>
53161

> <r_lp_tautomer_probability>
1

> <s_lp_Force_Field>
OPLS_2005

> <r_lp_Energy>
30.073292

> <b_lp_Chiralities_Consistent>
1

> <s_lp_Variant>
CHEMBL5491_lig62-1

> <s_i_glide_gridfile>
glide-grid_3biz

> <i_i_glide_lignum>
60

> <i_i_glide_rotatable_bonds>
3

> <r_i_docking_score>
-9.41608526814417

> <r_i_glide_ligand_efficiency>
-0.336288759576578

> <r_i_glide_ligand_efficiency_sa>
-1.02117073756173

> <r_i_glide_ligand_efficiency_ln>
-2.17350894816445

> <r_i_glide_gscore>
-9.41608526814417

> <r_i_glide_lipo>
-3.11695418680917

> <r_i_glide_hbond>
-0.70317881423677

> <r_i_glide_metal>
0

> <r_i_glide_rewards>
-2.42984487450017

> <r_i_glide_evdw>
-38.0218276977539

> <r_i_glide_ecoul>
-9.36378383636475

> <r_i_glide_erotb>
0.243613898104045

> <r_i_glide_esite>
-0.104062330359705

> <r_i_glide_emodel>
-68.6333262620483

> <r_i_glide_energy>
-47.3856115341187

> <r_i_glide_einternal>
4.11886072158813

> <i_i_glide_confnum>
6

> <i_i_glide_posenum>
133

> <r_i_glide_eff_state_penalty>
0

> <s_user_duplicate_titles>
CHEMBL5491_lig62

> <i_f3d_flags>
0

> <s_m_subgroup_title>
dock_pv

> <s_m_subgroupid>
dock_pv

> <b_m_subgroup_collapsed>
1

$$$$
CHEMBL5491_lig86
                    3D
 Schrodinger Suite 2021-1.
 27 30  0  0  1  0            999 V2000
    6.4580   54.9532   22.0340 C   0  0  0  0  0  0
    5.5344   54.6662   21.0339 C   0  0  0  0  0  0
    4.2716   54.1517   21.3256 C   0  0  0  0  0  0
    6.1670   54.7030   23.3726 C   0  0  0  0  0  0
    4.8762   54.2634   23.7155 C   0  0  0  0  0  0
    3.9449   53.9902   22.6783 C   0  0  0  0  0  0
    2.7688   53.5827   23.2763 N   0  0  0  0  0  0
    4.2172   54.0561   24.9458 C   0  0  0  0  0  0
    2.8946   53.6072   24.6516 C   0  0  0  0  0  0
    1.9800   53.2706   25.6613 C   0  0  0  0  0  0
    2.4065   53.4007   26.9868 C   0  0  0  0  0  0
    4.5889   54.1884   26.2982 C   0  0  0  0  0  0
    3.6900   53.8563   27.2765 C   0  0  0  0  0  0
    4.3597   54.0581   28.5851 C   0  0  0  0  0  0
    5.5895   54.5200   28.2913 N   0  0  0  0  0  0
    5.8351   54.6418   26.9745 C   0  0  0  0  0  0
    3.9089   53.8562   29.7074 O   0  0  0  0  0  0
    6.8785   55.0629   26.4851 O   0  0  0  0  0  0
    7.6791   55.4633   21.6869 O   0  0  0  0  0  0
    5.8051   54.8368   20.0011 H   0  0  0  0  0  0
    3.5665   53.9322   20.5359 H   0  0  0  0  0  0
    6.9091   54.9210   24.1206 H   0  0  0  0  0  0
    1.9370   53.3114   22.7705 H   0  0  0  0  0  0
    0.9838   52.9208   25.4359 H   0  0  0  0  0  0
    1.7281   53.1359   27.7858 H   0  0  0  0  0  0
    6.2650   54.7843   28.9935 H   0  0  0  0  0  0
    8.3125   55.4631   22.4177 H   0  0  0  0  0  0
  1  4  1  0  0  0
  1  2  2  0  0  0
  1 19  1  0  0  0
  2  3  1  0  0  0
  2 20  1  0  0  0
  3  6  2  0  0  0
  3 21  1  0  0  0
  4  5  2  0  0  0
  4 22  1  0  0  0
  5  6  1  0  0  0
  5  8  1  0  0  0
  6  7  1  0  0  0
  7  9  1  0  0  0
  7 23  1  0  0  0
  8  9  2  0  0  0
  8 12  1  0  0  0
  9 10  1  0  0  0
 10 11  2  0  0  0
 10 24  1  0  0  0
 11 13  1  0  0  0
 11 25  1  0  0  0
 12 13  2  0  0  0
 12 16  1  0  0  0
 13 14  1  0  0  0
 14 15  1  0  0  0
 14 17  2  0  0  0
 15 16  1  0  0  0
 15 26  1  0  0  0
 16 18  2  0  0  0
 19 27  1  0  0  0
M  END
> <s_m_entry_id>
46298

> <s_m_entry_name>
dock_pv.39

> <s_m_Source_Path>
/home/csk/Desktop/cluster/DUD-E-result/wee1

> <s_m_Source_File>
dock_pv.maegz

> <i_m_Source_File_Index>
39

> <chembl_id>
CHEMBL209907

> <chembl_pref_name>
None

> <i_lp_mmshare_version>
53161

> <r_lp_tautomer_probability>
1

> <s_lp_Force_Field>
OPLS_2005

> <r_lp_Energy>
57.976547

> <b_lp_Chiralities_Consistent>
1

> <s_lp_Variant>
CHEMBL5491_lig86-1

> <s_i_glide_gridfile>
glide-grid_3biz

> <i_i_glide_lignum>
86

> <i_i_glide_rotatable_bonds>
1

> <r_i_docking_score>
-9.41174394140872

> <r_i_glide_ligand_efficiency>
-0.495354944284669

> <r_i_glide_ligand_efficiency_sa>
-1.32180594873445

> <r_i_glide_ligand_efficiency_ln>
-2.38607923487199

> <r_i_glide_gscore>
-9.41174394140872

> <r_i_glide_lipo>
-2.44025122300776

> <r_i_glide_hbond>
-0.766724028354765

> <r_i_glide_metal>
0

> <r_i_glide_rewards>
-3.35058020013226

> <r_i_glide_evdw>
-31.64528465271

> <r_i_glide_ecoul>
-8.47949504852295

> <r_i_glide_erotb>
0

> <r_i_glide_esite>
0

> <r_i_glide_emodel>
-62.7352820142023

> <r_i_glide_energy>
-40.1247797012329

> <r_i_glide_einternal>
0.221661373972893

> <i_i_glide_confnum>
1

> <i_i_glide_posenum>
359

> <r_i_glide_eff_state_penalty>
0

> <s_user_duplicate_titles>
CHEMBL5491_lig86,355122

> <i_f3d_flags>
0

> <s_m_subgroup_title>
dock_pv

> <s_m_subgroupid>
dock_pv

> <b_m_subgroup_collapsed>
1

$$$$
CHEMBL5491_lig249
                    3D
 Schrodinger Suite 2021-1.
 47 51  0  0  1  0            999 V2000
    0.4456   52.4614   30.7051 C   0  0  0  0  0  0
   -0.6200   51.8630   30.0448 C   0  0  0  0  0  0
   -0.6828   51.7793   28.6572 C   0  0  0  0  0  0
    1.4997   53.0081   29.9894 C   0  0  0  0  0  0
    1.4949   52.9264   28.5831 C   0  0  0  0  0  0
    0.3890   52.3152   27.9341 C   0  0  0  0  0  0
    0.6182   52.3627   26.5685 N   0  0  0  0  0  0
    0.4790   52.4826   32.0742 O   0  0  0  0  0  0
    2.4095   53.3072   27.5786 C   0  0  0  0  0  0
    1.8301   52.9943   26.3254 C   0  0  0  0  0  0
    2.4796   53.2863   25.1185 C   0  0  0  0  0  0
    3.7651   53.8624   25.1469 C   0  0  0  0  0  0
    4.4474   54.0941   23.8289 C   0  0  0  0  0  0
    3.7106   54.4217   22.6790 C   0  0  0  0  0  0
    4.3506   54.6625   21.4666 C   0  0  0  0  0  0
    5.7351   54.6626   21.4020 C   0  0  0  0  0  0
    6.4790   54.3101   22.5213 C   0  0  0  0  0  0
    5.8307   53.9416   23.6872 C   0  0  0  0  0  0
    3.6962   53.8650   27.5842 C   0  0  0  0  0  0
    4.3610   54.1225   26.4047 C   0  0  0  0  0  0
    5.6947   54.6913   26.8103 C   0  0  0  0  0  0
    5.7168   54.6630   28.1479 N   0  0  0  0  0  0
    4.5746   54.2635   28.7085 C   0  0  0  0  0  0
    6.6166   55.1520   26.1399 O   0  0  0  0  0  0
    4.3480   54.2627   29.9079 O   0  0  0  0  0  0
   -0.2513   51.7660   25.5552 C   0  0  0  0  0  0
    0.0930   50.2696   25.3653 C   0  0  0  0  0  0
   -0.9090   49.5359   24.4727 C   0  0  0  0  0  0
   -1.3500   48.3523   24.8869 N   0  0  0  0  0  0
   -1.2845   50.0260   23.4111 O   0  0  0  0  0  0
   -1.4110   51.4030   30.6200 H   0  0  0  0  0  0
   -1.5125   51.2806   28.1760 H   0  0  0  0  0  0
    2.2979   53.4628   30.5470 H   0  0  0  0  0  0
   -0.3727   52.2147   32.4647 H   0  0  0  0  0  0
    2.0182   53.0151   24.1816 H   0  0  0  0  0  0
    2.6353   54.5147   22.7079 H   0  0  0  0  0  0
    3.7700   54.8884   20.5848 H   0  0  0  0  0  0
    6.2321   54.8982   20.4718 H   0  0  0  0  0  0
    7.5575   54.2630   22.4868 H   0  0  0  0  0  0
    6.4361   53.5447   24.4834 H   0  0  0  0  0  0
    6.4965   55.0150   28.6887 H   0  0  0  0  0  0
   -1.2858   51.8990   25.8755 H   0  0  0  0  0  0
   -0.1469   52.3223   24.6230 H   0  0  0  0  0  0
    1.0677   50.1639   24.8877 H   0  0  0  0  0  0
    0.1568   49.7675   26.3339 H   0  0  0  0  0  0
   -2.0125   47.8473   24.3232 H   0  0  0  0  0  0
   -1.1209   48.0255   25.8227 H   0  0  0  0  0  0
  1  2  2  0  0  0
  1  8  1  0  0  0
  1  4  1  0  0  0
  2  3  1  0  0  0
  2 31  1  0  0  0
  3  6  2  0  0  0
  3 32  1  0  0  0
  4  5  2  0  0  0
  4 33  1  0  0  0
  5  9  1  0  0  0
  5  6  1  0  0  0
  6  7  1  0  0  0
  7 10  1  0  0  0
  7 26  1  0  0  0
  8 34  1  0  0  0
  9 10  2  0  0  0
  9 19  1  0  0  0
 10 11  1  0  0  0
 11 12  2  0  0  0
 11 35  1  0  0  0
 12 13  1  0  0  0
 12 20  1  0  0  0
 13 14  2  0  0  0
 13 18  1  0  0  0
 14 15  1  0  0  0
 14 36  1  0  0  0
 15 16  2  0  0  0
 15 37  1  0  0  0
 16 17  1  0  0  0
 16 38  1  0  0  0
 17 18  2  0  0  0
 17 39  1  0  0  0
 18 40  1  0  0  0
 19 20  2  0  0  0
 19 23  1  0  0  0
 20 21  1  0  0  0
 21 22  1  0  0  0
 21 24  2  0  0  0
 22 23  1  0  0  0
 22 41  1  0  0  0
 23 25  2  0  0  0
 26 27  1  0  0  0
 26 42  1  0  0  0
 26 43  1  0  0  0
 27 28  1  0  0  0
 27 44  1  0  0  0
 27 45  1  0  0  0
 28 29  1  0  0  0
 28 30  2  0  0  0
 29 46  1  0  0  0
 29 47  1  0  0  0
M  END
> <s_m_entry_id>
46299

> <s_m_entry_name>
dock_pv.40

> <s_m_Source_Path>
/home/csk/Desktop/cluster/DUD-E-result/wee1

> <s_m_Source_File>
dock_pv.maegz

> <i_m_Source_File_Index>
40

> <chembl_id>
CHEMBL512012

> <chembl_pref_name>
None

> <i_lp_mmshare_version>
53161

> <r_lp_tautomer_probability>
1

> <s_lp_Force_Field>
OPLS_2005

> <r_lp_Energy>
68.186021

> <b_lp_Chiralities_Consistent>
1

> <s_lp_Variant>
CHEMBL5491_lig249-1

> <s_i_glide_gridfile>
glide-grid_3biz

> <i_i_glide_lignum>
262

> <i_i_glide_rotatable_bonds>
5

> <r_i_docking_score>
-9.37737199607249

> <r_i_glide_ligand_efficiency>
-0.31257906653575

> <r_i_glide_ligand_efficiency_sa>
-0.971255835119451

> <r_i_glide_ligand_efficiency_ln>
-2.13064109215911

> <r_i_glide_gscore>
-9.37737199607249

> <r_i_glide_lipo>
-2.8838087926449

> <r_i_glide_hbond>
-0.649589162214679

> <r_i_glide_metal>
0

> <r_i_glide_rewards>
-2.33699832256561

> <r_i_glide_evdw>
-36.4762725830078

> <r_i_glide_ecoul>
-12.0558032989502

> <r_i_glide_erotb>
0.257947407937271

> <r_i_glide_esite>
-0.132739002591645

> <r_i_glide_emodel>
-71.7270100836137

> <r_i_glide_energy>
-48.532075881958

> <r_i_glide_einternal>
9.59854125976562

> <i_i_glide_confnum>
7

> <i_i_glide_posenum>
65

> <r_i_glide_eff_state_penalty>
0

> <s_user_duplicate_titles>
CHEMBL5491_lig249,451843

> <i_f3d_flags>
0

> <s_m_subgroup_title>
dock_pv

> <s_m_subgroupid>
dock_pv

> <b_m_subgroup_collapsed>
1

$$$$
CHEMBL5491_lig310
                    3D
 Schrodinger Suite 2021-1.
 41 45  0  0  1  0            999 V2000
    0.6013   53.0651   31.3663 C   0  0  0  0  0  0
    0.2808   54.0227   30.4077 C   0  0  0  0  0  0
    1.1289   54.2611   29.3319 C   0  0  0  0  0  0
    2.3242   53.5448   29.2059 C   0  0  0  0  0  0
    2.6839   52.6382   30.2220 C   0  0  0  0  0  0
    1.8109   52.3848   31.2810 C   0  0  0  0  0  0
    4.2205   51.8629   30.2446 Cl  0  0  0  0  0  0
    3.1082   53.7319   28.0384 N   0  0  0  0  0  0
    4.3486   54.3131   28.1241 C   0  0  0  0  0  0
    4.9999   54.5270   26.7764 C   0  0  0  0  0  0
    4.3563   54.2628   25.5611 C   0  0  0  0  0  0
    4.9331   54.4904   24.3527 N   0  0  0  0  0  0
    6.1904   55.0052   24.3746 C   0  0  0  0  0  0
    6.8791   55.3122   25.5025 N   0  0  0  0  0  0
    6.2850   55.0629   26.6957 C   0  0  0  0  0  0
    3.0846   53.6692   25.6208 N   0  0  0  0  0  0
    2.4781   53.3542   26.8248 C   0  0  0  0  0  0
    1.3323   52.7220   26.6469 N   0  0  0  0  0  0
    1.1698   52.6464   25.3375 C   0  0  0  0  0  0
    2.2189   53.2313   24.6492 C   0  0  0  0  0  0
    4.8767   54.6699   29.1801 O   0  0  0  0  0  0
    6.8784   55.2757   23.1834 N   0  0  0  0  0  0
    6.5423   55.2432   21.8193 C   0  0  0  0  0  0
    7.4633   55.8162   20.9379 C   0  0  0  0  0  0
    7.2225   55.8146   19.5670 C   0  0  0  0  0  0
    6.0572   55.2340   19.0741 C   0  0  0  0  0  0
    5.1338   54.6539   19.9398 C   0  0  0  0  0  0
    5.3724   54.6622   21.3118 C   0  0  0  0  0  0
   -0.0580   52.8856   32.2021 H   0  0  0  0  0  0
   -0.6309   54.5862   30.4860 H   0  0  0  0  0  0
    0.8467   54.9848   28.5808 H   0  0  0  0  0  0
    2.0861   51.6994   32.0689 H   0  0  0  0  0  0
    6.8510   55.3111   27.5853 H   0  0  0  0  0  0
    0.3057   52.1637   24.9029 H   0  0  0  0  0  0
    2.4455   53.3429   23.5984 H   0  0  0  0  0  0
    7.8519   55.5059   23.3496 H   0  0  0  0  0  0
    8.3800   56.2493   21.3127 H   0  0  0  0  0  0
    7.9396   56.2519   18.8877 H   0  0  0  0  0  0
    5.8693   55.2273   18.0101 H   0  0  0  0  0  0
    4.2327   54.2015   19.5502 H   0  0  0  0  0  0
    4.6414   54.1965   21.9507 H   0  0  0  0  0  0
  1  2  2  0  0  0
  1  6  1  0  0  0
  1 29  1  0  0  0
  2  3  1  0  0  0
  2 30  1  0  0  0
  3  4  2  0  0  0
  3 31  1  0  0  0
  4  5  1  0  0  0
  4  8  1  0  0  0
  5  6  2  0  0  0
  5  7  1  0  0  0
  6 32  1  0  0  0
  8 17  1  0  0  0
  8  9  1  0  0  0
  9 10  1  0  0  0
  9 21  2  0  0  0
 10 11  2  0  0  0
 10 15  1  0  0  0
 11 16  1  0  0  0
 11 12  1  0  0  0
 12 13  2  0  0  0
 13 14  1  0  0  0
 13 22  1  0  0  0
 14 15  2  0  0  0
 15 33  1  0  0  0
 16 17  1  0  0  0
 16 20  1  0  0  0
 17 18  2  0  0  0
 18 19  1  0  0  0
 19 20  2  0  0  0
 19 34  1  0  0  0
 20 35  1  0  0  0
 22 23  1  0  0  0
 22 36  1  0  0  0
 23 24  2  0  0  0
 23 28  1  0  0  0
 24 25  1  0  0  0
 24 37  1  0  0  0
 25 26  2  0  0  0
 25 38  1  0  0  0
 26 27  1  0  0  0
 26 39  1  0  0  0
 27 28  2  0  0  0
 27 40  1  0  0  0
 28 41  1  0  0  0
M  END
> <s_m_entry_id>
46301

> <s_m_entry_name>
dock_pv.42

> <s_m_Source_Path>
/home/csk/Desktop/cluster/DUD-E-result/wee1

> <s_m_Source_File>
dock_pv.maegz

> <i_m_Source_File_Index>
42

> <chembl_id>
CHEMBL3355519

> <chembl_pref_name>
None

> <i_lp_mmshare_version>
53161

> <r_lp_tautomer_probability>
1

> <s_lp_Force_Field>
OPLS_2005

> <r_lp_Energy>
31.435621

> <b_lp_Chiralities_Consistent>
1

> <s_lp_Variant>
CHEMBL5491_lig310-1

> <s_i_glide_gridfile>
glide-grid_3biz

> <i_i_glide_lignum>
327

> <i_i_glide_rotatable_bonds>
3

> <r_i_docking_score>
-9.30222343595119

> <r_i_glide_ligand_efficiency>
-0.332222265569686

> <r_i_glide_ligand_efficiency_sa>
-1.00882246671992

> <r_i_glide_ligand_efficiency_ln>
-2.14722629416564

> <r_i_glide_gscore>
-9.30222343595119

> <r_i_glide_lipo>
-2.73148289165328

> <r_i_glide_hbond>
-0.601496509172388

> <r_i_glide_metal>
0

> <r_i_glide_rewards>
-3.22482767724352

> <r_i_glide_evdw>
-46.3585090637207

> <r_i_glide_ecoul>
-4.53443479537964

> <r_i_glide_erotb>
0.270712826558407

> <r_i_glide_esite>
-0.0170385119474326

> <r_i_glide_emodel>
-77.1728136487011

> <r_i_glide_energy>
-50.8929438591003

> <r_i_glide_einternal>
3.39255952835083

> <i_i_glide_confnum>
14

> <i_i_glide_posenum>
90

> <r_i_glide_eff_state_penalty>
0

> <s_user_duplicate_titles>
CHEMBL5491_lig310

> <i_f3d_flags>
0

> <s_m_subgroup_title>
dock_pv

> <s_m_subgroupid>
dock_pv

> <b_m_subgroup_collapsed>
1

$$$$
CHEMBL5491_lig66
                    3D
 Schrodinger Suite 2021-1.
 43 46  0  0  1  0            999 V2000
    3.1512   53.6812   27.4092 C   0  0  0  0  0  0
    3.0654   53.6712   25.0089 N   0  0  0  0  0  0
    4.3594   54.2611   24.9443 C   0  0  0  0  0  0
    2.4526   53.2788   26.1733 C   0  0  0  0  0  0
    4.9776   54.3921   23.7408 N   0  0  0  0  0  0
    5.0145   54.5926   26.1368 C   0  0  0  0  0  0
    2.5601   53.3653   28.7293 C   0  0  0  0  0  0
    4.3371   54.3271   27.3897 C   0  0  0  0  0  0
    6.2299   54.9168   23.7469 C   0  0  0  0  0  0
    3.2521   52.5468   29.6414 C   0  0  0  0  0  0
    1.3136   53.8983   29.1064 C   0  0  0  0  0  0
    6.9215   55.2585   24.8626 N   0  0  0  0  0  0
    0.7238   53.5077   30.3124 C   0  0  0  0  0  0
    2.7023   52.2624   30.8830 C   0  0  0  0  0  0
    6.3175   55.0643   26.0575 C   0  0  0  0  0  0
    6.8775   55.2140   22.5448 N   0  0  0  0  0  0
    1.3824   52.6608   26.1938 O   0  0  0  0  0  0
    1.4180   52.6775   31.1911 C   0  0  0  0  0  0
    4.8004   51.8631   29.2871 Cl  0  0  0  0  0  0
    0.5066   55.0572   28.0963 Cl  0  0  0  0  0  0
    2.3693   53.4136   23.7298 C   0  0  0  0  0  0
    0.8787   52.2896   32.4069 N   0  0  0  0  0  0
    6.4818   55.2349   21.1965 C   0  0  0  0  0  0
    7.3655   55.8479   20.3044 C   0  0  0  0  0  0
    5.2969   54.6631   20.7107 C   0  0  0  0  0  0
    7.0657   55.9109   18.9461 C   0  0  0  0  0  0
    4.9973   54.7233   19.3511 C   0  0  0  0  0  0
    5.8796   55.3518   18.4776 C   0  0  0  0  0  0
    4.8090   54.6170   28.3200 H   0  0  0  0  0  0
   -0.2506   53.8821   30.5817 H   0  0  0  0  0  0
    3.2588   51.6696   31.5938 H   0  0  0  0  0  0
    6.8782   55.3075   26.9493 H   0  0  0  0  0  0
    7.8299   55.5141   22.7137 H   0  0  0  0  0  0
    2.3256   54.3264   23.1335 H   0  0  0  0  0  0
    2.9076   52.6655   23.1483 H   0  0  0  0  0  0
    1.3442   53.0594   23.8460 H   0  0  0  0  0  0
    1.4984   52.2621   33.2174 H   0  0  0  0  0  0
   -0.1307   52.2898   32.5410 H   0  0  0  0  0  0
    8.2989   56.2641   20.6564 H   0  0  0  0  0  0
    4.5963   54.1588   21.3534 H   0  0  0  0  0  0
    7.7528   56.3827   18.2593 H   0  0  0  0  0  0
    4.0829   54.2841   18.9790 H   0  0  0  0  0  0
    5.6475   55.3960   17.4230 H   0  0  0  0  0  0
  1  4  1  0  0  0
  1  7  1  0  0  0
  1  8  2  0  0  0
  2  4  1  0  0  0
  2 21  1  0  0  0
  2  3  1  0  0  0
  3  6  1  0  0  0
  3  5  2  0  0  0
  4 17  2  0  0  0
  5  9  1  0  0  0
  6  8  1  0  0  0
  6 15  2  0  0  0
  7 10  1  0  0  0
  7 11  2  0  0  0
  8 29  1  0  0  0
  9 12  2  0  0  0
  9 16  1  0  0  0
 10 14  2  0  0  0
 10 19  1  0  0  0
 11 13  1  0  0  0
 11 20  1  0  0  0
 12 15  1  0  0  0
 13 18  2  0  0  0
 13 30  1  0  0  0
 14 18  1  0  0  0
 14 31  1  0  0  0
 15 32  1  0  0  0
 16 23  1  0  0  0
 16 33  1  0  0  0
 18 22  1  0  0  0
 21 34  1  0  0  0
 21 35  1  0  0  0
 21 36  1  0  0  0
 22 37  1  0  0  0
 22 38  1  0  0  0
 23 24  1  0  0  0
 23 25  2  0  0  0
 24 26  2  0  0  0
 24 39  1  0  0  0
 25 27  1  0  0  0
 25 40  1  0  0  0
 26 28  1  0  0  0
 26 41  1  0  0  0
 27 28  2  0  0  0
 27 42  1  0  0  0
 28 43  1  0  0  0
M  END
> <s_m_entry_id>
46302

> <s_m_entry_name>
dock_pv.43

> <s_m_Source_Path>
/home/csk/Desktop/cluster/DUD-E-result/wee1

> <s_m_Source_File>
dock_pv.maegz

> <i_m_Source_File_Index>
43

> <chembl_id>
CHEMBL181982

> <chembl_pref_name>
None

> <i_lp_mmshare_version>
53161

> <r_lp_tautomer_probability>
1

> <s_lp_Force_Field>
OPLS_2005

> <r_lp_Energy>
23.253515

> <b_lp_Chiralities_Consistent>
1

> <s_lp_Variant>
CHEMBL5491_lig66-1

> <s_i_glide_gridfile>
glide-grid_3biz

> <i_i_glide_lignum>
64

> <i_i_glide_rotatable_bonds>
3

> <r_i_docking_score>
-9.26640991831566

> <r_i_glide_ligand_efficiency>
-0.330943211368417

> <r_i_glide_ligand_efficiency_sa>
-1.00493850484223

> <r_i_glide_ligand_efficiency_ln>
-2.13895948276479

> <r_i_glide_gscore>
-9.26640991831566

> <r_i_glide_lipo>
-3.10631376633464

> <r_i_glide_hbond>
-0.75631597797996

> <r_i_glide_metal>
0

> <r_i_glide_rewards>
-2.41301475800913

> <r_i_glide_evdw>
-40.8851470947266

> <r_i_glide_ecoul>
-8.10843753814697

> <r_i_glide_erotb>
0.34801985443435

> <r_i_glide_esite>
-0.0782622849679136

> <r_i_glide_emodel>
-69.8635915890077

> <r_i_glide_energy>
-48.9935846328735

> <r_i_glide_einternal>
3.76731586456299

> <i_i_glide_confnum>
6

> <i_i_glide_posenum>
204

> <r_i_glide_eff_state_penalty>
0

> <s_user_duplicate_titles>
CHEMBL5491_lig66

> <i_f3d_flags>
0

> <s_m_subgroup_title>
dock_pv

> <s_m_subgroupid>
dock_pv

> <b_m_subgroup_collapsed>
1

$$$$
CHEMBL5491_lig199
                    3D
 Schrodinger Suite 2021-1.
 51 56  0  0  1  0            999 V2000
    0.4242   52.4333   30.8081 C   0  0  0  0  0  0
   -0.6565   51.8629   30.1421 C   0  0  0  0  0  0
   -0.7209   51.7881   28.7579 C   0  0  0  0  0  0
    1.4823   52.9705   30.1082 C   0  0  0  0  0  0
    1.4821   52.8839   28.7103 C   0  0  0  0  0  0
    0.3718   52.2895   28.0513 C   0  0  0  0  0  0
    0.6237   52.3119   26.6955 N   0  0  0  0  0  0
    2.4096   53.2528   27.7281 C   0  0  0  0  0  0
    1.8686   52.8766   26.4832 C   0  0  0  0  0  0
    2.5718   53.0700   25.3005 C   0  0  0  0  0  0
    3.7929   53.7696   25.3179 C   0  0  0  0  0  0
    3.6863   53.8283   27.7501 C   0  0  0  0  0  0
    4.3634   54.0757   26.5761 C   0  0  0  0  0  0
    5.6828   54.6631   26.9900 C   0  0  0  0  0  0
    5.6791   54.6631   28.3306 N   0  0  0  0  0  0
    4.5342   54.2612   28.8842 C   0  0  0  0  0  0
    6.6158   55.0987   26.3196 O   0  0  0  0  0  0
    4.2895   54.2630   30.0804 O   0  0  0  0  0  0
    4.4350   54.0537   23.9868 C   0  0  0  0  0  0
    3.6781   54.4135   22.8477 C   0  0  0  0  0  0
    4.3013   54.6628   21.6274 C   0  0  0  0  0  0
    5.6830   54.6529   21.5235 C   0  0  0  0  0  0
    6.4453   54.2966   22.6286 C   0  0  0  0  0  0
    5.8208   53.9281   23.8127 C   0  0  0  0  0  0
    0.4790   52.4413   32.1702 O   0  0  0  0  0  0
   -0.2531   51.7696   25.6603 C   0  0  0  0  0  0
   -0.1421   50.2320   25.6046 C   0  0  0  0  0  0
    1.9645   54.6338   22.8891 Cl  0  0  0  0  0  0
   -0.6165   49.6090   24.2785 C   0  0  0  0  0  0
    0.2717   49.9880   23.1101 C   0  0  0  0  0  0
    0.0068   50.8954   22.2018 N   0  0  0  0  0  0
    1.1313   50.9365   21.3798 N   0  0  0  0  0  0
    2.0794   50.0312   21.8193 N   0  0  0  0  0  0
    1.5190   49.4632   22.8870 N   0  0  0  0  0  0
   -1.4547   51.4119   30.7141 H   0  0  0  0  0  0
   -1.5570   51.3095   28.2678 H   0  0  0  0  0  0
    2.2828   53.4059   30.6757 H   0  0  0  0  0  0
    2.1748   52.6694   24.3818 H   0  0  0  0  0  0
    6.4494   55.0273   28.8764 H   0  0  0  0  0  0
    3.7034   54.9047   20.7603 H   0  0  0  0  0  0
    6.1602   54.8956   20.5851 H   0  0  0  0  0  0
    7.5230   54.2632   22.5560 H   0  0  0  0  0  0
    6.4448   53.5422   24.6008 H   0  0  0  0  0  0
   -0.4194   52.2586   32.5118 H   0  0  0  0  0  0
    0.0155   52.2286   24.7099 H   0  0  0  0  0  0
   -1.2784   52.0830   25.8610 H   0  0  0  0  0  0
   -0.7299   49.8241   26.4259 H   0  0  0  0  0  0
    0.8792   49.9059   25.7974 H   0  0  0  0  0  0
   -1.6508   49.9012   24.0916 H   0  0  0  0  0  0
   -0.6420   48.5237   24.3874 H   0  0  0  0  0  0
    1.9895   48.7649   23.4597 H   0  0  0  0  0  0
  1  2  2  0  0  0
  1  4  1  0  0  0
  1 25  1  0  0  0
  2  3  1  0  0  0
  2 35  1  0  0  0
  3  6  2  0  0  0
  3 36  1  0  0  0
  4  5  2  0  0  0
  4 37  1  0  0  0
  5  8  1  0  0  0
  5  6  1  0  0  0
  6  7  1  0  0  0
  7 26  1  0  0  0
  7  9  1  0  0  0
  8  9  2  0  0  0
  8 12  1  0  0  0
  9 10  1  0  0  0
 10 11  2  0  0  0
 10 38  1  0  0  0
 11 19  1  0  0  0
 11 13  1  0  0  0
 12 16  1  0  0  0
 12 13  2  0  0  0
 13 14  1  0  0  0
 14 17  2  0  0  0
 14 15  1  0  0  0
 15 16  1  0  0  0
 15 39  1  0  0  0
 16 18  2  0  0  0
 19 20  2  0  0  0
 19 24  1  0  0  0
 20 21  1  0  0  0
 20 28  1  0  0  0
 21 22  2  0  0  0
 21 40  1  0  0  0
 22 23  1  0  0  0
 22 41  1  0  0  0
 23 24  2  0  0  0
 23 42  1  0  0  0
 24 43  1  0  0  0
 25 44  1  0  0  0
 26 27  1  0  0  0
 26 45  1  0  0  0
 26 46  1  0  0  0
 27 29  1  0  0  0
 27 47  1  0  0  0
 27 48  1  0  0  0
 29 30  1  0  0  0
 29 49  1  0  0  0
 29 50  1  0  0  0
 30 31  2  0  0  0
 30 34  1  0  0  0
 31 32  1  0  0  0
 32 33  2  0  0  0
 33 34  1  0  0  0
 34 51  1  0  0  0
M  END
> <s_m_entry_id>
46303

> <s_m_entry_name>
dock_pv.44

> <s_m_Source_Path>
/home/csk/Desktop/cluster/DUD-E-result/wee1

> <s_m_Source_File>
dock_pv.maegz

> <i_m_Source_File_Index>
44

> <chembl_id>
CHEMBL471329

> <chembl_pref_name>
None

> <i_lp_mmshare_version>
53161

> <r_lp_tautomer_probability>
0.3

> <s_lp_Force_Field>
OPLS_2005

> <r_lp_Energy>
70.398778

> <b_lp_Chiralities_Consistent>
1

> <s_lp_Variant>
CHEMBL5491_lig199-1

> <s_i_glide_gridfile>
glide-grid_3biz

> <i_i_glide_lignum>
204

> <i_i_glide_rotatable_bonds>
6

> <r_i_docking_score>
-9.1906365283454

> <r_i_glide_ligand_efficiency>
-0.270312839068982

> <r_i_glide_ligand_efficiency_sa>
-0.875708662455342

> <r_i_glide_ligand_efficiency_ln>
-2.03046939773424

> <r_i_glide_gscore>
-9.1906365283454

> <r_i_glide_lipo>
-2.80444303452227

> <r_i_glide_hbond>
-0.97706978172958

> <r_i_glide_metal>
0

> <r_i_glide_rewards>
-1.85041985334396

> <r_i_glide_evdw>
-31.9148559570312

> <r_i_glide_ecoul>
-14.6799478530884

> <r_i_glide_erotb>
0.253223892489651

> <r_i_glide_esite>
-0.0141927754244172

> <r_i_glide_emodel>
-68.2903760479264

> <r_i_glide_energy>
-46.5948038101196

> <r_i_glide_einternal>
12.9410696029663

> <i_i_glide_confnum>
29

> <i_i_glide_posenum>
350

> <r_i_glide_eff_state_penalty>
0

> <s_user_duplicate_titles>
CHEMBL5491_lig199,451712

> <i_f3d_flags>
0

> <s_m_subgroup_title>
dock_pv

> <s_m_subgroupid>
dock_pv

> <b_m_subgroup_collapsed>
1

$$$$
CHEMBL5491_lig257
                    3D
 Schrodinger Suite 2021-1.
 51 54  0  0  1  0            999 V2000
    6.3115   54.9260   22.1231 C   0  0  0  0  0  0
    5.3351   54.6548   21.1703 C   0  0  0  0  0  0
    4.0782   54.1605   21.5209 C   0  0  0  0  0  0
    6.0740   54.6666   23.4722 C   0  0  0  0  0  0
    4.7853   54.2624   23.8787 C   0  0  0  0  0  0
    3.7972   54.0049   22.8862 C   0  0  0  0  0  0
    2.6292   53.6312   23.5420 N   0  0  0  0  0  0
    4.1806   54.0607   25.1400 C   0  0  0  0  0  0
    2.8468   53.6176   24.9097 C   0  0  0  0  0  0
    1.9827   53.2708   25.9655 C   0  0  0  0  0  0
    2.4650   53.3935   27.2693 C   0  0  0  0  0  0
    4.6019   54.1964   26.4771 C   0  0  0  0  0  0
    3.7530   53.8607   27.4979 C   0  0  0  0  0  0
    4.4731   54.0829   28.7745 C   0  0  0  0  0  0
    5.6790   54.5611   28.4202 N   0  0  0  0  0  0
    5.8668   54.6629   27.0919 C   0  0  0  0  0  0
    7.5109   55.4618   21.7233 O   0  0  0  0  0  0
    4.0784   53.8853   29.9182 O   0  0  0  0  0  0
    6.8790   55.0746   26.5411 O   0  0  0  0  0  0
    1.3427   53.3065   22.9262 C   0  0  0  0  0  0
    1.0640   51.7826   22.8869 C   0  0  0  0  0  0
    1.8587   50.9948   21.8412 C   0  0  0  0  0  0
    1.7871   51.4483   20.5812 N   0  0  0  0  0  0
    2.4789   49.9845   22.1685 O   0  0  0  0  0  0
    2.4160   50.8475   19.4057 C   0  0  0  0  0  0
    2.8481   51.9297   18.3916 C   0  0  0  0  0  0
    1.7563   52.8355   18.0002 N   0  0  0  0  0  0
    2.2974   53.9878   17.2858 C   0  0  0  0  0  0
    0.7581   52.1588   17.1742 C   0  0  0  0  0  0
    5.5555   54.8376   20.1284 H   0  0  0  0  0  0
    3.3404   53.9577   20.7587 H   0  0  0  0  0  0
    6.8539   54.8628   24.1863 H   0  0  0  0  0  0
    0.9780   52.9166   25.7883 H   0  0  0  0  0  0
    1.8260   53.1269   28.0990 H   0  0  0  0  0  0
    6.3839   54.8415   29.0897 H   0  0  0  0  0  0
    8.1826   55.4646   22.4188 H   0  0  0  0  0  0
    1.2941   53.7554   21.9344 H   0  0  0  0  0  0
    0.5668   53.8135   23.5015 H   0  0  0  0  0  0
    0.0072   51.6057   22.6941 H   0  0  0  0  0  0
    1.2488   51.3433   23.8699 H   0  0  0  0  0  0
    1.2700   52.2941   20.3889 H   0  0  0  0  0  0
    1.7031   50.1599   18.9485 H   0  0  0  0  0  0
    3.2789   50.2466   19.6909 H   0  0  0  0  0  0
    3.2821   51.4614   17.5060 H   0  0  0  0  0  0
    3.6543   52.5050   18.8479 H   0  0  0  0  0  0
    2.9980   54.5326   17.9175 H   0  0  0  0  0  0
    1.5069   54.6853   17.0145 H   0  0  0  0  0  0
    2.8190   53.6884   16.3761 H   0  0  0  0  0  0
    0.2525   51.3763   17.7394 H   0  0  0  0  0  0
   -0.0122   52.8559   16.8384 H   0  0  0  0  0  0
    1.2097   51.6979   16.2924 H   0  0  0  0  0  0
  1 17  1  0  0  0
  1  2  2  0  0  0
  1  4  1  0  0  0
  2  3  1  0  0  0
  2 30  1  0  0  0
  3  6  2  0  0  0
  3 31  1  0  0  0
  4  5  2  0  0  0
  4 32  1  0  0  0
  5  8  1  0  0  0
  5  6  1  0  0  0
  6  7  1  0  0  0
  7  9  1  0  0  0
  7 20  1  0  0  0
  8  9  2  0  0  0
  8 12  1  0  0  0
  9 10  1  0  0  0
 10 11  2  0  0  0
 10 33  1  0  0  0
 11 13  1  0  0  0
 11 34  1  0  0  0
 12 16  1  0  0  0
 12 13  2  0  0  0
 13 14  1  0  0  0
 14 15  1  0  0  0
 14 18  2  0  0  0
 15 16  1  0  0  0
 15 35  1  0  0  0
 16 19  2  0  0  0
 17 36  1  0  0  0
 20 21  1  0  0  0
 20 37  1  0  0  0
 20 38  1  0  0  0
 21 22  1  0  0  0
 21 39  1  0  0  0
 21 40  1  0  0  0
 22 23  1  0  0  0
 22 24  2  0  0  0
 23 25  1  0  0  0
 23 41  1  0  0  0
 25 26  1  0  0  0
 25 42  1  0  0  0
 25 43  1  0  0  0
 26 27  1  0  0  0
 26 44  1  0  0  0
 26 45  1  0  0  0
 27 28  1  0  0  0
 27 29  1  0  0  0
 28 46  1  0  0  0
 28 47  1  0  0  0
 28 48  1  0  0  0
 29 49  1  0  0  0
 29 50  1  0  0  0
 29 51  1  0  0  0
M  END
> <s_m_entry_id>
46304

> <s_m_entry_name>
dock_pv.45

> <s_m_Source_Path>
/home/csk/Desktop/cluster/DUD-E-result/wee1

> <s_m_Source_File>
dock_pv.maegz

> <i_m_Source_File_Index>
45

> <chembl_id>
CHEMBL483801

> <chembl_pref_name>
None

> <i_lp_mmshare_version>
53161

> <r_lp_tautomer_probability>
1

> <s_lp_Force_Field>
OPLS_2005

> <r_lp_Energy>
66.85581

> <b_lp_Chiralities_Consistent>
1

> <s_lp_Variant>
CHEMBL5491_lig257-1

> <s_i_glide_gridfile>
glide-grid_3biz

> <i_i_glide_lignum>
270

> <i_i_glide_rotatable_bonds>
8

> <r_i_docking_score>
-9.02225379089787

> <r_i_glide_ligand_efficiency>
-0.311112199686133

> <r_i_glide_ligand_efficiency_sa>
-0.955835244698983

> <r_i_glide_ligand_efficiency_ln>
-2.06586733349955

> <r_i_glide_gscore>
-9.02225379089787

> <r_i_glide_lipo>
-2.73945286759593

> <r_i_glide_hbond>
-0.833863392284699

> <r_i_glide_metal>
0

> <r_i_glide_rewards>
-2.77002580202695

> <r_i_glide_evdw>
-41.7673492431641

> <r_i_glide_ecoul>
-7.36920595169067

> <r_i_glide_erotb>
0.527658493632677

> <r_i_glide_esite>
-0.0128218677111612

> <r_i_glide_emodel>
-72.2141116317445

> <r_i_glide_energy>
-49.1365551948547

> <r_i_glide_einternal>
7.96585035324097

> <i_i_glide_confnum>
84

> <i_i_glide_posenum>
173

> <r_i_glide_eff_state_penalty>
0

> <s_user_duplicate_titles>
CHEMBL5491_lig257,523843

> <i_f3d_flags>
0

> <s_m_subgroup_title>
dock_pv

> <s_m_subgroupid>
dock_pv

> <b_m_subgroup_collapsed>
1

$$$$
CHEMBL5491_lig348
                    3D
 Schrodinger Suite 2021-1.
 36 39  0  0  1  0            999 V2000
    5.5653   55.0887   18.1466 F   0  0  0  0  0  0
    2.9961   53.7528   25.8739 N   0  0  0  0  0  0
    4.8544   54.4992   24.7060 N   0  0  0  0  0  0
    1.1782   53.6519   30.4887 N   0  0  0  0  0  0
    6.8649   55.0973   23.5378 N   0  0  0  0  0  0
    4.9639   54.3120   27.0989 N   0  0  0  0  0  0
    0.1963   52.9188   31.0393 N   0  0  0  0  0  0
    6.8791   55.0605   25.8590 N   0  0  0  0  0  0
    1.3229   53.3948   29.1436 C   0  0  0  0  0  0
    0.3437   52.4209   28.8398 C   0  0  0  0  0  0
    2.1124   53.3678   26.8930 C   0  0  0  0  0  0
    4.3086   54.2305   25.9142 C   0  0  0  0  0  0
    2.2050   53.8957   28.1875 C   0  0  0  0  0  0
    6.1576   54.8797   24.7297 C   0  0  0  0  0  0
    0.2416   51.9353   27.5296 C   0  0  0  0  0  0
    1.1297   52.4281   26.5708 C   0  0  0  0  0  0
   -0.3155   52.1888   30.0828 C   0  0  0  0  0  0
    6.4797   55.0637   22.1854 C   0  0  0  0  0  0
    6.2421   54.7343   27.0079 C   0  0  0  0  0  0
    7.2961   55.7472   21.2819 C   0  0  0  0  0  0
    5.3554   54.3690   21.7107 C   0  0  0  0  0  0
    5.8654   55.0761   19.4640 C   0  0  0  0  0  0
    6.9910   55.7566   19.9231 C   0  0  0  0  0  0
    5.0494   54.3789   20.3514 C   0  0  0  0  0  0
    2.6782   53.5924   24.9314 H   0  0  0  0  0  0
    1.7380   54.2613   31.0753 H   0  0  0  0  0  0
    7.8471   55.2958   23.6871 H   0  0  0  0  0  0
    2.9315   54.6476   28.4528 H   0  0  0  0  0  0
   -0.4900   51.1814   27.2754 H   0  0  0  0  0  0
    1.0685   52.0420   25.5637 H   0  0  0  0  0  0
   -1.1179   51.4915   30.2927 H   0  0  0  0  0  0
    6.7976   54.8256   27.9310 H   0  0  0  0  0  0
    8.1809   56.2608   21.6283 H   0  0  0  0  0  0
    4.7172   53.8008   22.3671 H   0  0  0  0  0  0
    7.6271   56.2794   19.2231 H   0  0  0  0  0  0
    4.1831   53.8490   19.9830 H   0  0  0  0  0  0
  1 22  1  0  0  0
  2 11  1  0  0  0
  2 12  1  0  0  0
  2 25  1  0  0  0
  3 12  2  0  0  0
  3 14  1  0  0  0
  4  7  1  0  0  0
  4  9  1  0  0  0
  4 26  1  0  0  0
  5 14  1  0  0  0
  5 18  1  0  0  0
  5 27  1  0  0  0
  6 12  1  0  0  0
  6 19  2  0  0  0
  7 17  2  0  0  0
  8 14  2  0  0  0
  8 19  1  0  0  0
  9 10  1  0  0  0
  9 13  2  0  0  0
 10 15  2  0  0  0
 10 17  1  0  0  0
 11 13  1  0  0  0
 11 16  2  0  0  0
 13 28  1  0  0  0
 15 16  1  0  0  0
 15 29  1  0  0  0
 16 30  1  0  0  0
 17 31  1  0  0  0
 18 20  2  0  0  0
 18 21  1  0  0  0
 19 32  1  0  0  0
 20 23  1  0  0  0
 20 33  1  0  0  0
 21 24  2  0  0  0
 21 34  1  0  0  0
 22 23  2  0  0  0
 22 24  1  0  0  0
 23 35  1  0  0  0
 24 36  1  0  0  0
M  END
> <s_m_entry_id>
46305

> <s_m_entry_name>
dock_pv.46

> <s_m_Source_Path>
/home/csk/Desktop/cluster/DUD-E-result/wee1

> <s_m_Source_File>
dock_pv.maegz

> <i_m_Source_File_Index>
46

> <chembl_id>
CHEMBL1995201

> <chembl_pref_name>
None

> <i_lp_mmshare_version>
53161

> <r_lp_tautomer_probability>
0.99999997749453

> <s_lp_Force_Field>
OPLS_2005

> <r_lp_Energy>
3.448144

> <b_lp_Chiralities_Consistent>
1

> <s_lp_Variant>
CHEMBL5491_lig348-1

> <s_i_glide_gridfile>
glide-grid_3biz

> <i_i_glide_lignum>
367

> <i_i_glide_rotatable_bonds>
4

> <r_i_docking_score>
-8.92736584081469

> <r_i_glide_ligand_efficiency>
-0.371973576700612

> <r_i_glide_ligand_efficiency_sa>
-1.0729574611877

> <r_i_glide_ligand_efficiency_ln>
-2.13672829583223

> <r_i_glide_gscore>
-8.92736584081469

> <r_i_glide_lipo>
-1.77745510535215

> <r_i_glide_hbond>
-0.864

> <r_i_glide_metal>
0

> <r_i_glide_rewards>
-3.24286808484273

> <r_i_glide_evdw>
-39.8368835449219

> <r_i_glide_ecoul>
-10.2801647186279

> <r_i_glide_erotb>
0.50675011768545

> <r_i_glide_esite>
-0.0159238832649823

> <r_i_glide_emodel>
-75.7387278313727

> <r_i_glide_energy>
-50.1170482635498

> <r_i_glide_einternal>
2.46897602081299

> <i_i_glide_confnum>
19

> <i_i_glide_posenum>
363

> <r_i_glide_eff_state_penalty>
0

> <s_user_duplicate_titles>
CHEMBL5491_lig348

> <i_f3d_flags>
0

> <s_m_subgroup_title>
dock_pv

> <s_m_subgroupid>
dock_pv

> <b_m_subgroup_collapsed>
1

$$$$
CHEMBL5491_lig87
                    3D
 Schrodinger Suite 2021-1.
 27 30  0  0  1  0            999 V2000
    6.4607   54.9540   22.0385 C   0  0  0  0  0  0
    5.5334   54.6637   21.0418 C   0  0  0  0  0  0
    4.2723   54.1461   21.3390 C   0  0  0  0  0  0
    6.1711   54.7066   23.3780 C   0  0  0  0  0  0
    4.8821   54.2633   23.7270 C   0  0  0  0  0  0
    3.9513   53.9849   22.6907 C   0  0  0  0  0  0
    2.7793   53.5719   23.2889 N   0  0  0  0  0  0
    4.2231   54.0528   24.9590 C   0  0  0  0  0  0
    2.9056   53.6008   24.6644 C   0  0  0  0  0  0
    1.9884   53.2661   25.6689 C   0  0  0  0  0  0
    2.3987   53.4057   26.9985 C   0  0  0  0  0  0
    4.5886   54.1892   26.3133 C   0  0  0  0  0  0
    3.6875   53.8613   27.2972 C   0  0  0  0  0  0
    4.3679   54.0874   28.6028 C   0  0  0  0  0  0
    5.5969   54.5426   28.2988 N   0  0  0  0  0  0
    5.8370   54.6483   26.9805 C   0  0  0  0  0  0
    3.9362   53.9142   29.7378 O   0  0  0  0  0  0
    6.8790   55.0635   26.4832 O   0  0  0  0  0  0
    7.6792   55.4686   21.6870 O   0  0  0  0  0  0
    1.0176   52.9043   28.4960 I   0  0  0  0  0  0
    5.7989   54.8369   20.0087 H   0  0  0  0  0  0
    3.5659   53.9248   20.5509 H   0  0  0  0  0  0
    6.9147   54.9254   24.1246 H   0  0  0  0  0  0
    1.9479   53.2988   22.7863 H   0  0  0  0  0  0
    0.9960   52.9124   25.4354 H   0  0  0  0  0  0
    6.2746   54.8170   28.9946 H   0  0  0  0  0  0
    8.3193   55.4634   22.4128 H   0  0  0  0  0  0
  1  4  1  0  0  0
  1  2  2  0  0  0
  1 19  1  0  0  0
  2  3  1  0  0  0
  2 21  1  0  0  0
  3  6  2  0  0  0
  3 22  1  0  0  0
  4  5  2  0  0  0
  4 23  1  0  0  0
  5  6  1  0  0  0
  5  8  1  0  0  0
  6  7  1  0  0  0
  7  9  1  0  0  0
  7 24  1  0  0  0
  8 12  1  0  0  0
  8  9  2  0  0  0
  9 10  1  0  0  0
 10 11  2  0  0  0
 10 25  1  0  0  0
 11 13  1  0  0  0
 11 20  1  0  0  0
 12 13  2  0  0  0
 12 16  1  0  0  0
 13 14  1  0  0  0
 14 15  1  0  0  0
 14 17  2  0  0  0
 15 16  1  0  0  0
 15 26  1  0  0  0
 16 18  2  0  0  0
 19 27  1  0  0  0
M  END
> <s_m_entry_id>
46306

> <s_m_entry_name>
dock_pv.47

> <s_m_Source_Path>
/home/csk/Desktop/cluster/DUD-E-result/wee1

> <s_m_Source_File>
dock_pv.maegz

> <i_m_Source_File_Index>
47

> <chembl_id>
CHEMBL210056

> <chembl_pref_name>
None

> <i_lp_mmshare_version>
53161

> <r_lp_tautomer_probability>
1

> <s_lp_Force_Field>
OPLS_2005

> <r_lp_Energy>
58.795948

> <b_lp_Chiralities_Consistent>
1

> <s_lp_Variant>
CHEMBL5491_lig87-1

> <s_i_glide_gridfile>
glide-grid_3biz

> <i_i_glide_lignum>
87

> <i_i_glide_rotatable_bonds>
1

> <r_i_docking_score>
-8.9232440074578

> <r_i_glide_ligand_efficiency>
-0.44616220037289

> <r_i_glide_ligand_efficiency_sa>
-1.21107053534157

> <r_i_glide_ligand_efficiency_ln>
-2.23319366678215

> <r_i_glide_gscore>
-8.9232440074578

> <r_i_glide_lipo>
-2.62962898813322

> <r_i_glide_hbond>
-0.786617192009217

> <r_i_glide_metal>
0

> <r_i_glide_rewards>
-2.48914318444732

> <r_i_glide_evdw>
-34.2098236083984

> <r_i_glide_ecoul>
-8.7157564163208

> <r_i_glide_erotb>
0

> <r_i_glide_esite>
0

> <r_i_glide_emodel>
-66.412969530747

> <r_i_glide_energy>
-42.9255800247192

> <r_i_glide_einternal>
0.232860773801804

> <i_i_glide_confnum>
1

> <i_i_glide_posenum>
285

> <r_i_glide_eff_state_penalty>
0

> <s_user_duplicate_titles>
CHEMBL5491_lig87

> <i_f3d_flags>
0

> <s_m_subgroup_title>
dock_pv

> <s_m_subgroupid>
dock_pv

> <b_m_subgroup_collapsed>
1

$$$$
CHEMBL5491_lig258
                    3D
 Schrodinger Suite 2021-1.
 48 52  0  0  1  0            999 V2000
    6.4802   55.0625   22.0063 C   0  0  0  0  0  0
    5.5730   54.8160   20.9919 C   0  0  0  0  0  0
    4.3248   54.2630   21.2502 C   0  0  0  0  0  0
    6.1812   54.7460   23.3260 C   0  0  0  0  0  0
    4.8989   54.2631   23.6407 C   0  0  0  0  0  0
    3.9788   53.9987   22.5866 C   0  0  0  0  0  0
    2.8148   53.4862   23.1648 N   0  0  0  0  0  0
    4.2440   54.0156   24.8613 C   0  0  0  0  0  0
    2.9354   53.5356   24.5527 C   0  0  0  0  0  0
    2.0225   53.1898   25.5684 C   0  0  0  0  0  0
    2.4367   53.3248   26.8963 C   0  0  0  0  0  0
    4.6076   54.1439   26.2202 C   0  0  0  0  0  0
    3.7111   53.7916   27.1937 C   0  0  0  0  0  0
    4.3686   53.9983   28.5094 C   0  0  0  0  0  0
    5.5923   54.4812   28.2238 N   0  0  0  0  0  0
    5.8417   54.6173   26.9096 C   0  0  0  0  0  0
    7.6843   55.6191   21.6871 O   0  0  0  0  0  0
    3.9164   53.7879   29.6324 O   0  0  0  0  0  0
    6.8790   55.0636   26.4317 O   0  0  0  0  0  0
    1.5747   53.0891   22.4732 C   0  0  0  0  0  0
    1.7535   52.2485   21.1860 C   0  0  0  0  0  0
    2.6497   51.0008   21.3058 C   0  0  0  0  0  0
    1.8944   49.8156   21.6955 N   0  0  0  0  0  0
    1.2649   49.0572   20.6973 C   0  0  0  0  0  0
   -0.0376   48.6136   20.9315 C   0  0  0  0  0  0
   -0.6964   47.8414   19.9788 C   0  0  0  0  0  0
   -0.0509   47.5118   18.7882 C   0  0  0  0  0  0
    1.2488   47.9500   18.5437 C   0  0  0  0  0  0
    1.9052   48.7226   19.4974 C   0  0  0  0  0  0
    5.8398   55.0579   19.9731 H   0  0  0  0  0  0
    3.6636   54.1126   20.4180 H   0  0  0  0  0  0
    6.9138   54.9458   24.0873 H   0  0  0  0  0  0
    1.0318   52.8178   25.3522 H   0  0  0  0  0  0
    1.7550   53.0534   27.6897 H   0  0  0  0  0  0
    6.2605   54.7462   28.9324 H   0  0  0  0  0  0
    8.3355   55.5334   22.3973 H   0  0  0  0  0  0
    1.0245   54.0005   22.2564 H   0  0  0  0  0  0
    0.9710   52.5011   23.1640 H   0  0  0  0  0  0
    2.0967   52.8627   20.3621 H   0  0  0  0  0  0
    0.7635   51.9468   20.8407 H   0  0  0  0  0  0
    3.4669   51.1542   22.0096 H   0  0  0  0  0  0
    3.1614   50.8481   20.3553 H   0  0  0  0  0  0
    1.4231   49.8670   22.5893 H   0  0  0  0  0  0
   -0.5392   48.8593   21.8549 H   0  0  0  0  0  0
   -1.7038   47.4965   20.1630 H   0  0  0  0  0  0
   -0.5601   46.9133   18.0461 H   0  0  0  0  0  0
    1.7546   47.6986   17.6220 H   0  0  0  0  0  0
    2.9156   49.0409   19.2933 H   0  0  0  0  0  0
  1 17  1  0  0  0
  1  2  2  0  0  0
  1  4  1  0  0  0
  2  3  1  0  0  0
  2 30  1  0  0  0
  3  6  2  0  0  0
  3 31  1  0  0  0
  4  5  2  0  0  0
  4 32  1  0  0  0
  5  6  1  0  0  0
  5  8  1  0  0  0
  6  7  1  0  0  0
  7 20  1  0  0  0
  7  9  1  0  0  0
  8  9  2  0  0  0
  8 12  1  0  0  0
  9 10  1  0  0  0
 10 11  2  0  0  0
 10 33  1  0  0  0
 11 13  1  0  0  0
 11 34  1  0  0  0
 12 13  2  0  0  0
 12 16  1  0  0  0
 13 14  1  0  0  0
 14 18  2  0  0  0
 14 15  1  0  0  0
 15 16  1  0  0  0
 15 35  1  0  0  0
 16 19  2  0  0  0
 17 36  1  0  0  0
 20 21  1  0  0  0
 20 37  1  0  0  0
 20 38  1  0  0  0
 21 22  1  0  0  0
 21 39  1  0  0  0
 21 40  1  0  0  0
 22 23  1  0  0  0
 22 41  1  0  0  0
 22 42  1  0  0  0
 23 24  1  0  0  0
 23 43  1  0  0  0
 24 25  2  0  0  0
 24 29  1  0  0  0
 25 26  1  0  0  0
 25 44  1  0  0  0
 26 27  2  0  0  0
 26 45  1  0  0  0
 27 28  1  0  0  0
 27 46  1  0  0  0
 28 29  2  0  0  0
 28 47  1  0  0  0
 29 48  1  0  0  0
M  END
> <s_m_entry_id>
46307

> <s_m_entry_name>
dock_pv.48

> <s_m_Source_Path>
/home/csk/Desktop/cluster/DUD-E-result/wee1

> <s_m_Source_File>
dock_pv.maegz

> <i_m_Source_File_Index>
48

> <chembl_id>
CHEMBL483800

> <chembl_pref_name>
None

> <i_lp_mmshare_version>
53161

> <r_lp_tautomer_probability>
1

> <s_lp_Force_Field>
OPLS_2005

> <r_lp_Energy>
65.186582

> <b_lp_Chiralities_Consistent>
1

> <s_lp_Variant>
CHEMBL5491_lig258-1

> <s_i_glide_gridfile>
glide-grid_3biz

> <i_i_glide_lignum>
271

> <i_i_glide_rotatable_bonds>
6

> <r_i_docking_score>
-8.8712418641693

> <r_i_glide_ligand_efficiency>
-0.305904891867907

> <r_i_glide_ligand_efficiency_sa>
-0.939836745290477

> <r_i_glide_ligand_efficiency_ln>
-2.03128943161077

> <r_i_glide_gscore>
-8.8712418641693

> <r_i_glide_lipo>
-2.59767376339466

> <r_i_glide_hbond>
-0.744097595800083

> <r_i_glide_metal>
0

> <r_i_glide_rewards>
-2.44280643222661

> <r_i_glide_evdw>
-42.0448570251465

> <r_i_glide_ecoul>
-9.00731086730957

> <r_i_glide_erotb>
0.36667540860581

> <r_i_glide_esite>
0

> <r_i_glide_emodel>
-72.3920587321605

> <r_i_glide_energy>
-51.0521678924561

> <r_i_glide_einternal>
10.7441654205322

> <i_i_glide_confnum>
28

> <i_i_glide_posenum>
314

> <r_i_glide_eff_state_penalty>
0

> <s_user_duplicate_titles>
CHEMBL5491_lig258,523842

> <i_f3d_flags>
0

> <s_m_subgroup_title>
dock_pv

> <s_m_subgroupid>
dock_pv

> <b_m_subgroup_collapsed>
1

$$$$
CHEMBL5491_lig156
                    3D
 Schrodinger Suite 2021-1.
 43 47  0  0  1  0            999 V2000
    1.1881   52.9032   29.9262 C   0  0  0  0  0  0
    0.0871   52.2743   29.3514 C   0  0  0  0  0  0
   -0.0345   52.1193   27.9685 C   0  0  0  0  0  0
    2.2347   53.3715   29.1367 C   0  0  0  0  0  0
    2.1622   53.2245   27.7371 C   0  0  0  0  0  0
    1.0050   52.6218   27.1768 C   0  0  0  0  0  0
    1.1489   52.6638   25.8051 N   0  0  0  0  0  0
    3.0366   53.5319   26.6619 C   0  0  0  0  0  0
    2.3417   53.2697   25.4624 C   0  0  0  0  0  0
    2.8836   53.5602   24.2059 C   0  0  0  0  0  0
    4.2372   53.9527   24.0992 C   0  0  0  0  0  0
    4.3540   54.0051   26.5540 C   0  0  0  0  0  0
    4.9419   54.2072   25.3134 C   0  0  0  0  0  0
    6.3459   54.6577   25.6222 C   0  0  0  0  0  0
    6.4576   54.6654   26.9593 N   0  0  0  0  0  0
    5.3528   54.3040   27.6118 C   0  0  0  0  0  0
    7.2736   54.9754   24.8868 O   0  0  0  0  0  0
    5.2445   54.2605   28.8323 O   0  0  0  0  0  0
    1.2280   53.0617   31.2874 O   0  0  0  0  0  0
    4.8246   54.0193   22.6902 C   0  0  0  0  0  0
    4.4367   53.1114   21.6650 C   0  0  0  0  0  0
    4.8784   53.3057   20.3429 C   0  0  0  0  0  0
    5.7092   54.3642   20.0158 C   0  0  0  0  0  0
    6.1514   55.2193   21.0102 C   0  0  0  0  0  0
    5.7289   55.0294   22.3212 C   0  0  0  0  0  0
    3.6199   52.0404   21.9870 O   0  0  0  0  0  0
    3.2172   51.1103   20.9844 C   0  0  0  0  0  0
    6.1312   54.5350   18.7018 N   0  0  0  0  0  0
   -0.6972   51.9000   29.9941 H   0  0  0  0  0  0
   -0.9004   51.6337   27.5404 H   0  0  0  0  0  0
    3.0731   53.8467   29.6131 H   0  0  0  0  0  0
    0.4754   52.3054   25.1441 H   0  0  0  0  0  0
    2.2879   53.3837   23.3254 H   0  0  0  0  0  0
    7.2940   54.9276   27.4542 H   0  0  0  0  0  0
    1.9132   53.6586   31.6229 H   0  0  0  0  0  0
    4.5845   52.6363   19.5484 H   0  0  0  0  0  0
    6.8210   56.0333   20.7741 H   0  0  0  0  0  0
    6.0790   55.7503   23.0404 H   0  0  0  0  0  0
    2.6423   50.3069   21.4461 H   0  0  0  0  0  0
    2.5861   51.5876   20.2326 H   0  0  0  0  0  0
    4.0759   50.6552   20.4894 H   0  0  0  0  0  0
    5.9096   53.8102   18.0339 H   0  0  0  0  0  0
    6.8459   55.2156   18.4963 H   0  0  0  0  0  0
  1  2  2  0  0  0
  1 19  1  0  0  0
  1  4  1  0  0  0
  2  3  1  0  0  0
  2 29  1  0  0  0
  3  6  2  0  0  0
  3 30  1  0  0  0
  4  5  2  0  0  0
  4 31  1  0  0  0
  5  8  1  0  0  0
  5  6  1  0  0  0
  6  7  1  0  0  0
  7  9  1  0  0  0
  7 32  1  0  0  0
  8  9  2  0  0  0
  8 12  1  0  0  0
  9 10  1  0  0  0
 10 11  2  0  0  0
 10 33  1  0  0  0
 11 13  1  0  0  0
 11 20  1  0  0  0
 12 16  1  0  0  0
 12 13  2  0  0  0
 13 14  1  0  0  0
 14 15  1  0  0  0
 14 17  2  0  0  0
 15 16  1  0  0  0
 15 34  1  0  0  0
 16 18  2  0  0  0
 19 35  1  0  0  0
 20 21  2  0  0  0
 20 25  1  0  0  0
 21 22  1  0  0  0
 21 26  1  0  0  0
 22 23  2  0  0  0
 22 36  1  0  0  0
 23 24  1  0  0  0
 23 28  1  0  0  0
 24 25  2  0  0  0
 24 37  1  0  0  0
 25 38  1  0  0  0
 26 27  1  0  0  0
 27 39  1  0  0  0
 27 40  1  0  0  0
 27 41  1  0  0  0
 28 42  1  0  0  0
 28 43  1  0  0  0
M  END
> <s_m_entry_id>
46308

> <s_m_entry_name>
dock_pv.49

> <s_m_Source_Path>
/home/csk/Desktop/cluster/DUD-E-result/wee1

> <s_m_Source_File>
dock_pv.maegz

> <i_m_Source_File_Index>
49

> <chembl_id>
CHEMBL384089

> <chembl_pref_name>
None

> <i_lp_mmshare_version>
53161

> <r_lp_tautomer_probability>
1

> <s_lp_Force_Field>
OPLS_2005

> <r_lp_Energy>
70.507042

> <b_lp_Chiralities_Consistent>
1

> <s_lp_Variant>
CHEMBL5491_lig156-1

> <s_i_glide_gridfile>
glide-grid_3biz

> <i_i_glide_lignum>
159

> <i_i_glide_rotatable_bonds>
3

> <r_i_docking_score>
-8.73217286086557

> <r_i_glide_ligand_efficiency>
-0.311863316459485

> <r_i_glide_ligand_efficiency_sa>
-0.947000706441575

> <r_i_glide_ligand_efficiency_ln>
-2.01564188402371

> <r_i_glide_gscore>
-8.73217286086557

> <r_i_glide_lipo>
-2.93059788930731

> <r_i_glide_hbond>
-0.507655347662982

> <r_i_glide_metal>
0

> <r_i_glide_rewards>
-2.60011098484848

> <r_i_glide_evdw>
-39.1251678466797

> <r_i_glide_ecoul>
-5.84117269515991

> <r_i_glide_erotb>
0.138625657561177

> <r_i_glide_esite>
0

> <r_i_glide_emodel>
-62.4073940962481

> <r_i_glide_energy>
-44.9663405418396

> <r_i_glide_einternal>
8.27934741973877

> <i_i_glide_confnum>
1

> <i_i_glide_posenum>
354

> <r_i_glide_eff_state_penalty>
0

> <s_user_duplicate_titles>
CHEMBL5491_lig156,355821

> <i_f3d_flags>
0

> <s_m_subgroup_title>
dock_pv

> <s_m_subgroupid>
dock_pv

> <b_m_subgroup_collapsed>
1

$$$$
CHEMBL5491_lig8
                    3D
 Schrodinger Suite 2021-1.
 31 33  0  0  1  0            999 V2000
    3.2183   53.4643   22.6472 C   0  0  0  0  0  0
    4.4939   53.8610   22.2635 C   0  0  0  0  0  0
    5.4220   54.2702   23.2207 C   0  0  0  0  0  0
    2.8640   53.4713   23.9862 C   0  0  0  0  0  0
    3.7854   53.8850   24.9376 C   0  0  0  0  0  0
    5.0744   54.3055   24.5826 C   0  0  0  0  0  0
    5.9946   54.7917   25.6595 C   0  0  0  0  0  0
    5.4574   54.6614   27.0018 C   0  0  0  0  0  0
    4.2042   54.2160   27.2354 C   0  0  0  0  0  0
    3.3526   53.8471   26.2412 O   0  0  0  0  0  0
    7.1008   55.2721   25.4219 O   0  0  0  0  0  0
    2.3041   53.0630   21.7191 O   0  0  0  0  0  0
    6.6567   54.6630   22.7801 O   0  0  0  0  0  0
    3.5185   54.0203   28.5969 C   0  0  0  0  0  0
    2.1538   54.7150   28.5951 C   0  0  0  0  0  0
    0.9690   54.0681   28.5551 C   0  0  0  0  0  0
    0.8220   52.6130   28.5990 C   0  0  0  0  0  0
    2.0920   51.9093   28.7853 C   0  0  0  0  0  0
    3.2937   52.5243   28.8273 C   0  0  0  0  0  0
   -0.2650   52.0491   28.5118 O   0  0  0  0  0  0
    4.2566   54.5215   29.6864 O   0  0  0  0  0  0
    4.7742   53.8524   21.2200 H   0  0  0  0  0  0
    1.8791   53.1530   24.2899 H   0  0  0  0  0  0
    6.0786   54.9311   27.8435 H   0  0  0  0  0  0
    2.5415   53.3387   20.8297 H   0  0  0  0  0  0
    7.2244   54.9418   23.5091 H   0  0  0  0  0  0
    2.1318   55.7945   28.5461 H   0  0  0  0  0  0
    0.0798   54.6630   28.4839 H   0  0  0  0  0  0
    2.0785   50.8376   28.8872 H   0  0  0  0  0  0
    4.1669   51.9006   28.9529 H   0  0  0  0  0  0
    3.7320   54.3832   30.4818 H   0  0  0  0  0  0
  1 12  1  0  0  0
  1  2  2  0  0  0
  1  4  1  0  0  0
  2  3  1  0  0  0
  2 22  1  0  0  0
  3 13  1  0  0  0
  3  6  2  0  0  0
  4  5  2  0  0  0
  4 23  1  0  0  0
  5  6  1  0  0  0
  5 10  1  0  0  0
  6  7  1  0  0  0
  7 11  2  0  0  0
  7  8  1  0  0  0
  8  9  2  0  0  0
  8 24  1  0  0  0
  9 10  1  0  0  0
  9 14  1  0  0  0
 12 25  1  0  0  0
 13 26  1  0  0  0
 14 15  1  0  0  0
 14 19  1  0  0  0
 14 21  1  0  0  0
 15 16  2  0  0  0
 15 27  1  0  0  0
 16 17  1  0  0  0
 16 28  1  0  0  0
 17 18  1  0  0  0
 17 20  2  0  0  0
 18 19  2  0  0  0
 18 29  1  0  0  0
 19 30  1  0  0  0
 21 31  1  0  0  0
M  END
> <s_m_entry_id>
46309

> <s_m_entry_name>
dock_pv.50

> <s_m_Source_Path>
/home/csk/Desktop/cluster/DUD-E-result/wee1

> <s_m_Source_File>
dock_pv.maegz

> <i_m_Source_File_Index>
50

> <chembl_id>
CHEMBL414890

> <chembl_pref_name>
PROTOAPIGENONE

> <i_lp_mmshare_version>
53161

> <r_lp_tautomer_probability>
1

> <s_lp_Force_Field>
OPLS_2005

> <r_lp_Energy>
-4.174448

> <b_lp_Chiralities_Consistent>
1

> <s_lp_Variant>
CHEMBL5491_lig8-1

> <s_i_glide_gridfile>
glide-grid_3biz

> <i_i_glide_lignum>
8

> <i_i_glide_rotatable_bonds>
4

> <r_i_docking_score>
-8.71430876390126

> <r_i_glide_ligand_efficiency>
-0.414967083995298

> <r_i_glide_ligand_efficiency_sa>
-1.14486271927515

> <r_i_glide_ligand_efficiency_ln>
-2.1545952329557

> <r_i_glide_gscore>
-8.71430876390126

> <r_i_glide_lipo>
-3.34152427419149

> <r_i_glide_hbond>
-0.461656793042613

> <r_i_glide_metal>
0

> <r_i_glide_rewards>
-2.28533512801771

> <r_i_glide_evdw>
-36.4412536621094

> <r_i_glide_ecoul>
-6.83559560775757

> <r_i_glide_erotb>
0.22160945561966

> <r_i_glide_esite>
0

> <r_i_glide_emodel>
-63.0318031433376

> <r_i_glide_energy>
-43.2768492698669

> <r_i_glide_einternal>
1.56635141372681

> <i_i_glide_confnum>
2

> <i_i_glide_posenum>
154

> <r_i_glide_eff_state_penalty>
0

> <s_user_duplicate_titles>
CHEMBL5491_lig8

> <i_f3d_flags>
0

> <s_m_subgroup_title>
dock_pv

> <s_m_subgroupid>
dock_pv

> <b_m_subgroup_collapsed>
1

$$$$
CHEMBL5491_lig63
                    3D
 Schrodinger Suite 2021-1.
 41 44  0  0  1  0            999 V2000
    2.7890   53.8405   27.6960 C   0  0  0  0  0  0
    2.8777   53.7452   25.3071 N   0  0  0  0  0  0
    4.2285   54.1966   25.3236 C   0  0  0  0  0  0
    2.1455   53.4612   26.4322 C   0  0  0  0  0  0
    4.8851   54.3502   24.1461 N   0  0  0  0  0  0
    4.8682   54.4191   26.5487 C   0  0  0  0  0  0
    2.0007   53.7433   28.9421 C   0  0  0  0  0  0
    4.0783   54.2468   27.7653 C   0  0  0  0  0  0
    6.1824   54.7337   24.2058 C   0  0  0  0  0  0
    1.8413   52.5034   29.5799 C   0  0  0  0  0  0
    1.4378   54.8856   29.5336 C   0  0  0  0  0  0
    6.8790   54.9599   25.3503 N   0  0  0  0  0  0
    0.7254   54.7729   30.7220 C   0  0  0  0  0  0
    1.1930   52.4172   30.8083 C   0  0  0  0  0  0
    6.2118   54.7882   26.5210 C   0  0  0  0  0  0
    6.8790   54.9863   23.0216 N   0  0  0  0  0  0
    1.0427   52.9090   26.4091 O   0  0  0  0  0  0
    0.6441   53.5520   31.3824 C   0  0  0  0  0  0
    2.4793   51.0630   28.8870 Cl  0  0  0  0  0  0
    1.6788   56.4693   28.8870 Cl  0  0  0  0  0  0
    2.2607   53.4732   23.9909 C   0  0  0  0  0  0
    0.0790   53.4990   33.0063 Cl  0  0  0  0  0  0
    6.4826   55.0794   21.6760 C   0  0  0  0  0  0
    5.3218   54.4926   21.1541 C   0  0  0  0  0  0
    7.3186   55.8165   20.8319 C   0  0  0  0  0  0
    5.0014   54.6533   19.8082 C   0  0  0  0  0  0
    6.9990   55.9778   19.4866 C   0  0  0  0  0  0
    5.8396   55.3973   18.9814 C   0  0  0  0  0  0
    4.5096   54.5010   28.7240 H   0  0  0  0  0  0
    0.3657   55.6658   31.2035 H   0  0  0  0  0  0
    1.1646   51.4893   31.3559 H   0  0  0  0  0  0
    6.7626   54.9705   27.4344 H   0  0  0  0  0  0
    7.8559   55.1981   23.1954 H   0  0  0  0  0  0
    2.1975   54.3954   23.4120 H   0  0  0  0  0  0
    2.8733   52.7695   23.4249 H   0  0  0  0  0  0
    1.2540   53.0535   24.0451 H   0  0  0  0  0  0
    4.6625   53.8958   21.7619 H   0  0  0  0  0  0
    8.2279   56.2596   21.2158 H   0  0  0  0  0  0
    4.1063   54.1996   19.4078 H   0  0  0  0  0  0
    7.6477   56.5447   18.8357 H   0  0  0  0  0  0
    5.5883   55.5185   17.9380 H   0  0  0  0  0  0
  1  4  1  0  0  0
  1  7  1  0  0  0
  1  8  2  0  0  0
  2  4  1  0  0  0
  2 21  1  0  0  0
  2  3  1  0  0  0
  3  6  1  0  0  0
  3  5  2  0  0  0
  4 17  2  0  0  0
  5  9  1  0  0  0
  6  8  1  0  0  0
  6 15  2  0  0  0
  7 10  1  0  0  0
  7 11  2  0  0  0
  8 29  1  0  0  0
  9 12  2  0  0  0
  9 16  1  0  0  0
 10 14  2  0  0  0
 10 19  1  0  0  0
 11 13  1  0  0  0
 11 20  1  0  0  0
 12 15  1  0  0  0
 13 18  2  0  0  0
 13 30  1  0  0  0
 14 18  1  0  0  0
 14 31  1  0  0  0
 15 32  1  0  0  0
 16 23  1  0  0  0
 16 33  1  0  0  0
 18 22  1  0  0  0
 21 34  1  0  0  0
 21 35  1  0  0  0
 21 36  1  0  0  0
 23 24  1  0  0  0
 23 25  2  0  0  0
 24 26  2  0  0  0
 24 37  1  0  0  0
 25 27  1  0  0  0
 25 38  1  0  0  0
 26 28  1  0  0  0
 26 39  1  0  0  0
 27 28  2  0  0  0
 27 40  1  0  0  0
 28 41  1  0  0  0
M  END
> <s_m_entry_id>
46310

> <s_m_entry_name>
dock_pv.51

> <s_m_Source_Path>
/home/csk/Desktop/cluster/DUD-E-result/wee1

> <s_m_Source_File>
dock_pv.maegz

> <i_m_Source_File_Index>
51

> <chembl_id>
CHEMBL362005

> <chembl_pref_name>
None

> <i_lp_mmshare_version>
53161

> <r_lp_tautomer_probability>
1

> <s_lp_Force_Field>
OPLS_2005

> <r_lp_Energy>
24.099745

> <b_lp_Chiralities_Consistent>
1

> <s_lp_Variant>
CHEMBL5491_lig63-1

> <s_i_glide_gridfile>
glide-grid_3biz

> <i_i_glide_lignum>
61

> <i_i_glide_rotatable_bonds>
3

> <r_i_docking_score>
-8.69465222884195

> <r_i_glide_ligand_efficiency>
-0.310523293887212

> <r_i_glide_ligand_efficiency_sa>
-0.942931608681068

> <r_i_glide_ligand_efficiency_ln>
-2.00698102049903

> <r_i_glide_gscore>
-8.69465222884195

> <r_i_glide_lipo>
-3.29043841141567

> <r_i_glide_hbond>
-0.482740458985857

> <r_i_glide_metal>
0

> <r_i_glide_rewards>
-2.3105422324502

> <r_i_glide_evdw>
-43.5021171569824

> <r_i_glide_ecoul>
-4.36691522598267

> <r_i_glide_erotb>
0.224147500038255

> <r_i_glide_esite>
-0.00493548428195845

> <r_i_glide_emodel>
-66.9150953848742

> <r_i_glide_energy>
-47.8690323829651

> <r_i_glide_einternal>
3.43882179260254

> <i_i_glide_confnum>
7

> <i_i_glide_posenum>
45

> <r_i_glide_eff_state_penalty>
0

> <s_user_duplicate_titles>
CHEMBL5491_lig63

> <i_f3d_flags>
0

> <s_m_subgroup_title>
dock_pv

> <s_m_subgroupid>
dock_pv

> <b_m_subgroup_collapsed>
1

$$$$
CHEMBL5491_lig286
                    3D
 Schrodinger Suite 2021-1.
 59 64  0  0  1  0            999 V2000
    5.5353   54.5768   21.4084 C   0  0  0  0  0  0
    4.4539   54.0418   20.7043 C   0  0  0  0  0  0
    3.3679   53.4630   21.3734 C   0  0  0  0  0  0
    5.5665   54.5520   22.7970 C   0  0  0  0  0  0
    4.4431   54.0823   23.5007 C   0  0  0  0  0  0
    3.3436   53.5578   22.7710 C   0  0  0  0  0  0
    2.3537   53.2238   23.6847 N   0  0  0  0  0  0
    4.1241   53.9843   24.8725 C   0  0  0  0  0  0
    2.8182   53.4299   24.9740 C   0  0  0  0  0  0
    2.2195   53.1482   26.2170 C   0  0  0  0  0  0
    2.9342   53.4489   27.3864 C   0  0  0  0  0  0
    4.7988   54.2882   26.0668 C   0  0  0  0  0  0
    4.1988   54.0284   27.2728 C   0  0  0  0  0  0
    5.0973   54.5563   28.3264 C   0  0  0  0  0  0
    6.2055   54.9535   27.6870 N   0  0  0  0  0  0
    6.1232   54.9014   26.3491 C   0  0  0  0  0  0
    4.8790   54.6630   29.5276 O   0  0  0  0  0  0
    6.9758   55.3183   25.5745 O   0  0  0  0  0  0
    2.3229   53.2050   28.7286 C   0  0  0  0  0  0
    1.1578   53.8758   29.1171 C   0  0  0  0  0  0
    0.5800   53.6637   30.3680 C   0  0  0  0  0  0
    1.2059   52.8290   31.2867 C   0  0  0  0  0  0
    2.4202   52.2373   30.9546 C   0  0  0  0  0  0
    2.9481   52.3759   29.6698 C   0  0  0  0  0  0
    0.4790   55.0630   28.0870 Cl  0  0  0  0  0  0
    4.4063   54.2393   18.8742 S   0  0  2  0  0  0
    3.6949   52.5967   18.3861 C   0  0  0  0  0  0
    2.2020   52.7253   18.0223 C   0  0  0  0  0  0
    1.4867   51.3688   17.8420 C   0  0  0  0  0  0
    1.2698   50.6961   19.1178 N   0  0  0  0  0  0
    1.0638   52.6359   23.3569 C   0  0  0  0  0  0
    0.2445   50.9433   20.0014 C   0  0  0  0  0  0
    0.3923   50.1234   21.1105 C   0  0  0  0  0  0
    1.5612   49.3839   20.9251 C   0  0  0  0  0  0
    2.0790   49.7451   19.6919 C   0  0  0  0  0  0
    5.8613   54.2758   18.4001 O   0  0  0  0  0  0
    6.5808   55.1634   20.7456 O   0  0  0  0  0  0
    2.5248   53.0664   20.8298 H   0  0  0  0  0  0
    6.4261   54.9582   23.3021 H   0  0  0  0  0  0
    1.2345   52.7092   26.2813 H   0  0  0  0  0  0
    6.9820   55.3644   28.1919 H   0  0  0  0  0  0
   -0.3209   54.1863   30.6476 H   0  0  0  0  0  0
    0.7869   52.6957   32.2745 H   0  0  0  0  0  0
    2.9412   51.6523   31.6980 H   0  0  0  0  0  0
    3.8781   51.8849   29.4213 H   0  0  0  0  0  0
    3.8624   51.8691   19.1808 H   0  0  0  0  0  0
    4.2577   52.2513   17.5195 H   0  0  0  0  0  0
    2.1235   53.2909   17.0927 H   0  0  0  0  0  0
    1.6686   53.3216   18.7629 H   0  0  0  0  0  0
    2.0656   50.7047   17.1963 H   0  0  0  0  0  0
    0.5183   51.5020   17.3585 H   0  0  0  0  0  0
    1.1354   51.5530   23.4550 H   0  0  0  0  0  0
    0.3013   53.0125   24.0389 H   0  0  0  0  0  0
    0.7751   52.8946   22.3384 H   0  0  0  0  0  0
   -0.5103   51.6749   19.7571 H   0  0  0  0  0  0
   -0.2632   50.0758   21.9682 H   0  0  0  0  0  0
    1.9837   48.6631   21.6106 H   0  0  0  0  0  0
    2.9632   49.4093   19.1690 H   0  0  0  0  0  0
    6.5003   54.9953   19.7928 H   0  0  0  0  0  0
  1  2  2  0  0  0
  1  4  1  0  0  0
  1 37  1  0  0  0
  2 26  1  0  0  0
  2  3  1  0  0  0
  3  6  2  0  0  0
  3 38  1  0  0  0
  4  5  2  0  0  0
  4 39  1  0  0  0
  5  6  1  0  0  0
  5  8  1  0  0  0
  6  7  1  0  0  0
  7 31  1  0  0  0
  7  9  1  0  0  0
  8  9  1  0  0  0
  8 12  2  0  0  0
  9 10  2  0  0  0
 10 11  1  0  0  0
 10 40  1  0  0  0
 11 19  1  0  0  0
 11 13  2  0  0  0
 12 13  1  0  0  0
 12 16  1  0  0  0
 13 14  1  0  0  0
 14 17  2  0  0  0
 14 15  1  0  0  0
 15 16  1  0  0  0
 15 41  1  0  0  0
 16 18  2  0  0  0
 19 20  2  0  0  0
 19 24  1  0  0  0
 20 21  1  0  0  0
 20 25  1  0  0  0
 21 22  2  0  0  0
 21 42  1  0  0  0
 22 23  1  0  0  0
 22 43  1  0  0  0
 23 24  2  0  0  0
 23 44  1  0  0  0
 24 45  1  0  0  0
 26 27  1  0  0  0
 26 36  2  0  0  0
 27 28  1  0  0  0
 27 46  1  0  0  0
 27 47  1  0  0  0
 28 29  1  0  0  0
 28 48  1  0  0  0
 28 49  1  0  0  0
 29 30  1  0  0  0
 29 50  1  0  0  0
 29 51  1  0  0  0
 30 32  1  0  0  0
 30 35  1  0  0  0
 31 52  1  0  0  0
 31 53  1  0  0  0
 31 54  1  0  0  0
 32 33  2  0  0  0
 32 55  1  0  0  0
 33 34  1  0  0  0
 33 56  1  0  0  0
 34 35  2  0  0  0
 34 57  1  0  0  0
 35 58  1  0  0  0
 37 59  1  0  0  0
M  END
> <s_m_entry_id>
46311

> <s_m_entry_name>
dock_pv.52

> <s_m_Source_Path>
/home/csk/Desktop/cluster/DUD-E-result/wee1

> <s_m_Source_File>
dock_pv.maegz

> <i_m_Source_File_Index>
52

> <chembl_id>
CHEMBL475524

> <chembl_pref_name>
None

> <i_lp_mmshare_version>
53161

> <r_lp_tautomer_probability>
1

> <s_lp_Force_Field>
OPLS_2005

> <r_lp_Energy>
66.786825

> <b_lp_Chiralities_Consistent>
1

> <s_lp_Variant>
CHEMBL5491_lig286-2

> <s_i_glide_gridfile>
glide-grid_3biz

> <i_i_glide_lignum>
300

> <i_i_glide_rotatable_bonds>
7

> <r_i_docking_score>
-8.69222426983942

> <r_i_glide_ligand_efficiency>
-0.23492498026593

> <r_i_glide_ligand_efficiency_sa>
-0.782822151797392

> <r_i_glide_ligand_efficiency_ln>
-1.88513966947954

> <r_i_glide_gscore>
-8.69222426983942

> <r_i_glide_lipo>
-3.00373932927811

> <r_i_glide_hbond>
-0.608

> <r_i_glide_metal>
0

> <r_i_glide_rewards>
-1.98531416401223

> <r_i_glide_evdw>
-45.4939231872559

> <r_i_glide_ecoul>
-6.94880437850952

> <r_i_glide_erotb>
0.255028878290395

> <r_i_glide_esite>
-0.03318283870025

> <r_i_glide_emodel>
-69.2392481679625

> <r_i_glide_energy>
-52.4427275657654

> <r_i_glide_einternal>
7.36183452606201

> <i_i_glide_confnum>
36

> <i_i_glide_posenum>
57

> <r_i_glide_eff_state_penalty>
0

> <s_user_duplicate_titles>
CHEMBL5491_lig286,524297

> <i_f3d_flags>
0

> <s_m_subgroup_title>
dock_pv

> <s_m_subgroupid>
dock_pv

> <b_m_subgroup_collapsed>
1

$$$$
CHEMBL5491_lig247
                    3D
 Schrodinger Suite 2021-1.
 47 51  0  0  1  0            999 V2000
    5.3820   54.4706   21.1574 C   0  0  0  0  0  0
    4.3361   53.7888   20.5489 C   0  0  0  0  0  0
    3.2790   53.2539   21.2870 C   0  0  0  0  0  0
    5.4498   54.5707   22.5420 C   0  0  0  0  0  0
    4.3845   54.0811   23.3220 C   0  0  0  0  0  0
    3.2824   53.4630   22.6739 C   0  0  0  0  0  0
    2.3302   53.1769   23.6464 N   0  0  0  0  0  0
    6.3533   55.0592   20.3892 O   0  0  0  0  0  0
    4.1373   54.0339   24.7106 C   0  0  0  0  0  0
    2.8501   53.4630   24.9036 C   0  0  0  0  0  0
    2.3121   53.2576   26.1893 C   0  0  0  0  0  0
    3.0795   53.6060   27.3153 C   0  0  0  0  0  0
    2.5090   53.3527   28.6907 C   0  0  0  0  0  0
    1.2733   53.9066   29.0740 C   0  0  0  0  0  0
    0.6671   53.5801   30.2875 C   0  0  0  0  0  0
    1.3071   52.7364   31.1850 C   0  0  0  0  0  0
    2.5774   52.2630   30.8794 C   0  0  0  0  0  0
    3.1617   52.5427   29.6420 C   0  0  0  0  0  0
    4.8744   54.3901   25.8509 C   0  0  0  0  0  0
    4.3506   54.1656   27.1025 C   0  0  0  0  0  0
    5.3624   54.6630   28.0698 C   0  0  0  0  0  0
    6.4156   55.0587   27.3418 N   0  0  0  0  0  0
    6.2203   55.0050   26.0202 C   0  0  0  0  0  0
    5.2764   54.7645   29.2870 O   0  0  0  0  0  0
    7.0140   55.4142   25.1821 O   0  0  0  0  0  0
    1.0120   52.5877   23.4051 C   0  0  0  0  0  0
    1.0197   51.0592   23.6582 C   0  0  0  0  0  0
   -0.3592   50.4779   23.9887 C   0  0  0  0  0  0
   -0.3930   49.3920   24.7596 N   0  0  0  0  0  0
   -1.3877   51.0010   23.5684 O   0  0  0  0  0  0
    0.4790   55.0625   28.0870 Cl  0  0  0  0  0  0
    4.7118   51.8630   29.3350 Cl  0  0  0  0  0  0
    4.3214   53.6971   19.4723 H   0  0  0  0  0  0
    2.4587   52.7659   20.7818 H   0  0  0  0  0  0
    6.2929   55.0666   22.9880 H   0  0  0  0  0  0
    7.0551   55.4630   20.9036 H   0  0  0  0  0  0
    1.3356   52.8132   26.3179 H   0  0  0  0  0  0
   -0.2892   54.0064   30.5499 H   0  0  0  0  0  0
    0.8517   52.5085   32.1391 H   0  0  0  0  0  0
    3.1086   51.6740   31.6124 H   0  0  0  0  0  0
    7.2337   55.4498   27.7880 H   0  0  0  0  0  0
    0.3054   53.1027   24.0593 H   0  0  0  0  0  0
    0.7022   52.8155   22.3841 H   0  0  0  0  0  0
    1.4095   50.5367   22.7841 H   0  0  0  0  0  0
    1.6790   50.8210   24.4870 H   0  0  0  0  0  0
   -1.2834   49.0135   25.0470 H   0  0  0  0  0  0
    0.4540   48.9615   25.1022 H   0  0  0  0  0  0
  1  2  2  0  0  0
  1  8  1  0  0  0
  1  4  1  0  0  0
  2  3  1  0  0  0
  2 33  1  0  0  0
  3  6  2  0  0  0
  3 34  1  0  0  0
  4  5  2  0  0  0
  4 35  1  0  0  0
  5  9  1  0  0  0
  5  6  1  0  0  0
  6  7  1  0  0  0
  7 10  1  0  0  0
  7 26  1  0  0  0
  8 36  1  0  0  0
  9 10  2  0  0  0
  9 19  1  0  0  0
 10 11  1  0  0  0
 11 12  2  0  0  0
 11 37  1  0  0  0
 12 13  1  0  0  0
 12 20  1  0  0  0
 13 18  1  0  0  0
 13 14  2  0  0  0
 14 15  1  0  0  0
 14 31  1  0  0  0
 15 16  2  0  0  0
 15 38  1  0  0  0
 16 17  1  0  0  0
 16 39  1  0  0  0
 17 18  2  0  0  0
 17 40  1  0  0  0
 18 32  1  0  0  0
 19 20  2  0  0  0
 19 23  1  0  0  0
 20 21  1  0  0  0
 21 22  1  0  0  0
 21 24  2  0  0  0
 22 23  1  0  0  0
 22 41  1  0  0  0
 23 25  2  0  0  0
 26 27  1  0  0  0
 26 42  1  0  0  0
 26 43  1  0  0  0
 27 28  1  0  0  0
 27 44  1  0  0  0
 27 45  1  0  0  0
 28 29  1  0  0  0
 28 30  2  0  0  0
 29 46  1  0  0  0
 29 47  1  0  0  0
M  END
> <s_m_entry_id>
46312

> <s_m_entry_name>
dock_pv.53

> <s_m_Source_Path>
/home/csk/Desktop/cluster/DUD-E-result/wee1

> <s_m_Source_File>
dock_pv.maegz

> <i_m_Source_File_Index>
53

> <chembl_id>
CHEMBL470113

> <chembl_pref_name>
None

> <i_lp_mmshare_version>
53161

> <r_lp_tautomer_probability>
1

> <s_lp_Force_Field>
OPLS_2005

> <r_lp_Energy>
66.357541

> <b_lp_Chiralities_Consistent>
1

> <s_lp_Variant>
CHEMBL5491_lig247-1

> <s_i_glide_gridfile>
glide-grid_3biz

> <i_i_glide_lignum>
260

> <i_i_glide_rotatable_bonds>
5

> <r_i_docking_score>
-8.4828557990212

> <r_i_glide_ligand_efficiency>
-0.265089243719413

> <r_i_glide_ligand_efficiency_sa>
-0.841605887719039

> <r_i_glide_ligand_efficiency_ln>
-1.89954264731665

> <r_i_glide_gscore>
-8.4828557990212

> <r_i_glide_lipo>
-3.1892779366809

> <r_i_glide_hbond>
-0.550454993153954

> <r_i_glide_metal>
0

> <r_i_glide_rewards>
-2.11071461045637

> <r_i_glide_evdw>
-43.5237655639648

> <r_i_glide_ecoul>
-3.84668827056885

> <r_i_glide_erotb>
0.193331827872987

> <r_i_glide_esite>
-0.0725485678193922

> <r_i_glide_emodel>
-65.8502316057206

> <r_i_glide_energy>
-47.3704538345337

> <r_i_glide_einternal>
7.19863271713257

> <i_i_glide_confnum>
17

> <i_i_glide_posenum>
122

> <r_i_glide_eff_state_penalty>
0

> <s_user_duplicate_titles>
CHEMBL5491_lig247,451845

> <i_f3d_flags>
0

> <s_m_subgroup_title>
dock_pv

> <s_m_subgroupid>
dock_pv

> <b_m_subgroup_collapsed>
1

$$$$
CHEMBL5491_lig353
                    3D
 Schrodinger Suite 2021-1.
 36 39  0  0  1  0            999 V2000
   -0.3210   52.2630   30.5829 F   0  0  0  0  0  0
    6.6952   55.1599   23.9083 N   0  0  0  0  0  0
    4.7692   54.5390   25.1660 N   0  0  0  0  0  0
    5.3050   54.2829   18.5893 N   0  0  0  0  0  0
    2.9579   53.8090   26.4119 N   0  0  0  0  0  0
    6.8789   55.0025   26.2192 N   0  0  0  0  0  0
    4.3373   53.3754   18.7994 N   0  0  0  0  0  0
    5.0063   54.2621   27.5408 N   0  0  0  0  0  0
    4.9834   53.8771   20.8566 C   0  0  0  0  0  0
    5.7146   54.5894   19.8576 C   0  0  0  0  0  0
    6.3159   54.9368   22.5729 C   0  0  0  0  0  0
    6.0786   54.8867   25.1321 C   0  0  0  0  0  0
    5.2804   54.0622   22.2125 C   0  0  0  0  0  0
    4.2866   54.2357   26.3905 C   0  0  0  0  0  0
    6.7441   55.4640   20.2274 C   0  0  0  0  0  0
    7.0378   55.6082   21.5845 C   0  0  0  0  0  0
    4.0745   53.0836   20.1142 C   0  0  0  0  0  0
    2.1333   53.4447   27.4839 C   0  0  0  0  0  0
    6.2893   54.6587   27.3885 C   0  0  0  0  0  0
    1.2642   52.3630   27.3127 C   0  0  0  0  0  0
    2.1571   54.1377   28.6988 C   0  0  0  0  0  0
    0.4765   52.6506   29.5677 C   0  0  0  0  0  0
    0.4393   51.9594   28.3595 C   0  0  0  0  0  0
    1.3283   53.7386   29.7424 C   0  0  0  0  0  0
    7.6562   55.4535   24.0139 H   0  0  0  0  0  0
    3.8611   52.9328   18.0238 H   0  0  0  0  0  0
    2.5507   53.7521   25.4923 H   0  0  0  0  0  0
    4.7354   53.5013   22.9510 H   0  0  0  0  0  0
    7.3197   55.9951   19.4803 H   0  0  0  0  0  0
    7.8488   56.2625   21.8717 H   0  0  0  0  0  0
    3.3108   52.3651   20.3727 H   0  0  0  0  0  0
    6.8965   54.6635   28.2804 H   0  0  0  0  0  0
    1.2386   51.8205   26.3780 H   0  0  0  0  0  0
    2.8166   54.9819   28.8402 H   0  0  0  0  0  0
   -0.2239   51.1124   28.2396 H   0  0  0  0  0  0
    1.3491   54.2623   30.6868 H   0  0  0  0  0  0
  1 22  1  0  0  0
  2 11  1  0  0  0
  2 12  1  0  0  0
  2 25  1  0  0  0
  3 12  2  0  0  0
  3 14  1  0  0  0
  4  7  1  0  0  0
  4 10  2  0  0  0
  5 14  1  0  0  0
  5 18  1  0  0  0
  5 27  1  0  0  0
  6 12  1  0  0  0
  6 19  2  0  0  0
  7 17  1  0  0  0
  7 26  1  0  0  0
  8 14  2  0  0  0
  8 19  1  0  0  0
  9 13  1  0  0  0
  9 17  2  0  0  0
  9 10  1  0  0  0
 10 15  1  0  0  0
 11 13  2  0  0  0
 11 16  1  0  0  0
 13 28  1  0  0  0
 15 29  1  0  0  0
 15 16  2  0  0  0
 16 30  1  0  0  0
 17 31  1  0  0  0
 18 20  2  0  0  0
 18 21  1  0  0  0
 19 32  1  0  0  0
 20 23  1  0  0  0
 20 33  1  0  0  0
 21 24  2  0  0  0
 21 34  1  0  0  0
 22 23  2  0  0  0
 22 24  1  0  0  0
 23 35  1  0  0  0
 24 36  1  0  0  0
M  END
> <s_m_entry_id>
46313

> <s_m_entry_name>
dock_pv.54

> <s_m_Source_Path>
/home/csk/Desktop/cluster/DUD-E-result/wee1

> <s_m_Source_File>
dock_pv.maegz

> <i_m_Source_File_Index>
54

> <chembl_id>
CHEMBL1971556

> <chembl_pref_name>
None

> <i_lp_mmshare_version>
53161

> <r_lp_tautomer_probability>
0.0168294947427589

> <s_lp_Force_Field>
OPLS_2005

> <r_lp_Energy>
16.652589

> <b_lp_Chiralities_Consistent>
1

> <s_lp_Variant>
CHEMBL5491_lig353-2

> <s_i_glide_gridfile>
glide-grid_3biz

> <i_i_glide_lignum>
375

> <i_i_glide_rotatable_bonds>
4

> <r_i_docking_score>
-8.42413240036242

> <r_i_glide_ligand_efficiency>
-0.351005516681768

> <r_i_glide_ligand_efficiency_sa>
-1.01247511014705

> <r_i_glide_ligand_efficiency_ln>
-2.01628144165411

> <r_i_glide_gscore>
-8.42413240036242

> <r_i_glide_lipo>
-2.07630928760153

> <r_i_glide_hbond>
-0.587147997748737

> <r_i_glide_metal>
0

> <r_i_glide_rewards>
-3.19381345699074

> <r_i_glide_evdw>
-40.8770332336426

> <r_i_glide_ecoul>
-6.5363597869873

> <r_i_glide_erotb>
0.50675011768545

> <r_i_glide_esite>
-0.0493061459766436

> <r_i_glide_emodel>
-70.1104389573477

> <r_i_glide_energy>
-47.4133930206299

> <r_i_glide_einternal>
3.44246339797974

> <i_i_glide_confnum>
12

> <i_i_glide_posenum>
310

> <r_i_glide_eff_state_penalty>
0

> <s_user_duplicate_titles>
CHEMBL5491_lig353,CHEMBL5491_lig353

> <i_f3d_flags>
0

> <s_m_subgroup_title>
dock_pv

> <s_m_subgroupid>
dock_pv

> <b_m_subgroup_collapsed>
1

$$$$
CHEMBL5491_lig346
                    3D
 Schrodinger Suite 2021-1.
 43 46  0  0  1  0            999 V2000
    6.6529   54.9467   24.0667 N   0  0  0  0  0  0
    5.1021   54.2940   18.7680 N   0  0  0  0  0  0
    4.7139   54.4036   25.3330 N   0  0  0  0  0  0
    4.1874   53.3301   18.9604 N   0  0  0  0  0  0
    6.8679   54.6631   26.3723 N   0  0  0  0  0  0
    2.7888   53.8628   26.4896 N   0  0  0  0  0  0
    4.8892   53.7499   21.0184 C   0  0  0  0  0  0
    5.5472   54.5525   20.0338 C   0  0  0  0  0  0
    6.2349   54.7792   22.7369 C   0  0  0  0  0  0
    5.2285   53.8779   22.3710 C   0  0  0  0  0  0
    6.0470   54.6504   25.2923 C   0  0  0  0  0  0
    6.5437   55.4617   20.4142 C   0  0  0  0  0  0
    6.8865   55.5395   21.7629 C   0  0  0  0  0  0
    3.9931   52.9521   20.2652 C   0  0  0  0  0  0
    4.1662   54.1187   26.5376 C   0  0  0  0  0  0
    4.9429   54.0816   27.7036 C   0  0  0  0  0  0
    6.3032   54.3549   27.5679 C   0  0  0  0  0  0
    1.9012   53.5808   27.6173 C   0  0  0  0  0  0
    2.2210   52.2164   28.2595 C   0  0  0  0  0  0
    1.8003   54.7648   28.6102 C   0  0  0  0  0  0
    1.3142   51.9445   29.4682 C   0  0  0  0  0  0
    0.8785   54.4125   29.7949 C   0  0  0  0  0  0
    1.3020   53.1039   30.4754 C   0  0  0  0  0  0
    7.6149   55.2413   24.1477 H   0  0  0  0  0  0
    3.7022   52.9095   18.1797 H   0  0  0  0  0  0
    2.3727   53.8907   25.5708 H   0  0  0  0  0  0
    4.7372   53.2603   23.1051 H   0  0  0  0  0  0
    7.0575   56.0604   19.6759 H   0  0  0  0  0  0
    7.6758   56.2171   22.0576 H   0  0  0  0  0  0
    3.2824   52.1781   20.5101 H   0  0  0  0  0  0
    4.5345   53.8519   28.6731 H   0  0  0  0  0  0
    6.9572   54.3395   28.4280 H   0  0  0  0  0  0
    0.9194   53.4750   27.1538 H   0  0  0  0  0  0
    2.0752   51.4225   27.5266 H   0  0  0  0  0  0
    3.2618   52.1420   28.5685 H   0  0  0  0  0  0
    2.7747   55.0560   28.9981 H   0  0  0  0  0  0
    1.4076   55.6438   28.0979 H   0  0  0  0  0  0
    0.2982   51.7222   29.1372 H   0  0  0  0  0  0
    1.6793   51.0630   29.9717 H   0  0  0  0  0  0
   -0.1453   54.2796   29.4408 H   0  0  0  0  0  0
    0.8641   55.2271   30.5204 H   0  0  0  0  0  0
    0.6305   52.8745   31.3044 H   0  0  0  0  0  0
    2.2973   53.2213   30.9065 H   0  0  0  0  0  0
  1  9  1  0  0  0
  1 11  1  0  0  0
  1 24  1  0  0  0
  2  4  1  0  0  0
  2  8  2  0  0  0
  3 11  2  0  0  0
  3 15  1  0  0  0
  4 14  1  0  0  0
  4 25  1  0  0  0
  5 11  1  0  0  0
  5 17  2  0  0  0
  6 15  1  0  0  0
  6 18  1  0  0  0
  6 26  1  0  0  0
  7 10  1  0  0  0
  7 14  2  0  0  0
  7  8  1  0  0  0
  8 12  1  0  0  0
  9 10  2  0  0  0
  9 13  1  0  0  0
 10 27  1  0  0  0
 12 28  1  0  0  0
 12 13  2  0  0  0
 13 29  1  0  0  0
 14 30  1  0  0  0
 15 16  2  0  0  0
 16 17  1  0  0  0
 16 31  1  0  0  0
 17 32  1  0  0  0
 18 19  1  0  0  0
 18 20  1  0  0  0
 18 33  1  0  0  0
 19 21  1  0  0  0
 19 34  1  0  0  0
 19 35  1  0  0  0
 20 22  1  0  0  0
 20 36  1  0  0  0
 20 37  1  0  0  0
 21 23  1  0  0  0
 21 38  1  0  0  0
 21 39  1  0  0  0
 22 23  1  0  0  0
 22 40  1  0  0  0
 22 41  1  0  0  0
 23 42  1  0  0  0
 23 43  1  0  0  0
M  END
> <s_m_entry_id>
46314

> <s_m_entry_name>
dock_pv.55

> <s_m_Source_Path>
/home/csk/Desktop/cluster/DUD-E-result/wee1

> <s_m_Source_File>
dock_pv.maegz

> <i_m_Source_File_Index>
55

> <chembl_id>
CHEMBL1964648

> <chembl_pref_name>
None

> <i_lp_mmshare_version>
53161

> <r_lp_tautomer_probability>
0.01682948890584

> <s_lp_Force_Field>
OPLS_2005

> <r_lp_Energy>
23.163022

> <b_lp_Chiralities_Consistent>
1

> <s_lp_Variant>
CHEMBL5491_lig346-2

> <s_i_glide_gridfile>
glide-grid_3biz

> <i_i_glide_lignum>
364

> <i_i_glide_rotatable_bonds>
4

> <r_i_docking_score>
-8.41211387107516

> <r_i_glide_ligand_efficiency>
-0.365744081351094

> <r_i_glide_ligand_efficiency_sa>
-1.04012751494342

> <r_i_glide_ligand_efficiency_ln>
-2.03412541085737

> <r_i_glide_gscore>
-8.41211387107516

> <r_i_glide_lipo>
-3.12829794292575

> <r_i_glide_hbond>
-0.513429601773349

> <r_i_glide_metal>
0

> <r_i_glide_rewards>
-2.64970370865877

> <r_i_glide_evdw>
-41.0892601013184

> <r_i_glide_ecoul>
-3.88273048400879

> <r_i_glide_erotb>
0.544717367365354

> <r_i_glide_esite>
-0.028527407415405

> <r_i_glide_emodel>
-64.0014157669337

> <r_i_glide_energy>
-44.9719905853271

> <r_i_glide_einternal>
7.33183813095093

> <i_i_glide_confnum>
29

> <i_i_glide_posenum>
243

> <r_i_glide_eff_state_penalty>
0

> <s_user_duplicate_titles>
CHEMBL5491_lig346,CHEMBL5491_lig346

> <i_f3d_flags>
0

> <s_m_subgroup_title>
dock_pv

> <s_m_subgroupid>
dock_pv

> <b_m_subgroup_collapsed>
1

$$$$
CHEMBL5491_lig372
                    3D
 Schrodinger Suite 2021-1.
 60 64  0  0  1  0            999 V2000
    2.9663   54.2412   28.7850 F   0  0  0  0  0  0
    4.3979   52.6436   29.0852 F   0  0  0  0  0  0
    4.8567   54.6694   29.6862 F   0  0  0  0  0  0
    4.8037   54.2659   24.9957 N   0  0  0  0  0  0
    2.8868   53.4988   26.1723 N   0  0  0  0  0  0
    6.8684   54.7985   26.1036 N   0  0  0  0  0  0
    6.7398   54.8467   23.7609 N   0  0  0  0  0  0
   -0.7600   51.5601   22.4948 N   0  0  0  0  0  0
    5.0163   54.3403   18.4450 N   0  0  0  0  0  0
   -1.5422   50.8118   23.2935 N   0  0  0  0  0  0
    2.5450   54.3109   16.8417 N   0  0  0  0  0  0
    4.9009   54.1643   27.3887 C   0  0  0  0  0  0
    4.1995   54.0114   26.1805 C   0  0  0  0  0  0
    4.2631   53.9291   28.7593 C   0  0  0  0  0  0
    6.1101   54.6306   24.9935 C   0  0  0  0  0  0
    1.9953   53.1074   25.1549 C   0  0  0  0  0  0
    6.2465   54.5561   27.2886 C   0  0  0  0  0  0
    0.0642   51.7941   24.5462 C   0  0  0  0  0  0
    0.2423   52.1958   23.2025 C   0  0  0  0  0  0
    0.9460   52.2638   25.5294 C   0  0  0  0  0  0
    6.2531   54.7107   22.4491 C   0  0  0  0  0  0
    2.1192   53.5142   23.8198 C   0  0  0  0  0  0
    1.2648   53.0639   22.8120 C   0  0  0  0  0  0
    5.3927   54.4862   19.7786 C   0  0  0  0  0  0
   -1.0733   50.9348   24.5097 C   0  0  0  0  0  0
    5.2845   53.7650   22.0933 C   0  0  0  0  0  0
    6.7834   55.5442   21.4655 C   0  0  0  0  0  0
    4.8576   53.6599   20.7763 C   0  0  0  0  0  0
    6.3499   55.4434   20.1445 C   0  0  0  0  0  0
    4.3961   53.1146   17.9133 C   0  0  0  0  0  0
    4.6329   55.4787   17.5879 C   0  0  0  0  0  0
    2.8629   53.2446   17.7947 C   0  0  0  0  0  0
    3.1017   55.5747   17.3376 C   0  0  0  0  0  0
    1.1139   54.3816   16.5267 C   0  0  0  0  0  0
    0.1524   54.6846   17.6861 C   0  0  0  0  0  0
    2.5590   53.2805   27.1005 H   0  0  0  0  0  0
    7.7327   55.0610   23.8230 H   0  0  0  0  0  0
   -0.9300   51.5877   21.5012 H   0  0  0  0  0  0
    6.8635   54.6633   28.1690 H   0  0  0  0  0  0
    0.8209   51.9527   26.5550 H   0  0  0  0  0  0
    2.8861   54.2100   23.5288 H   0  0  0  0  0  0
    1.3905   53.3880   21.7891 H   0  0  0  0  0  0
   -1.5308   50.4127   25.3385 H   0  0  0  0  0  0
    4.8837   53.0745   22.8168 H   0  0  0  0  0  0
    7.5465   56.2633   21.7232 H   0  0  0  0  0  0
    4.1121   52.9158   20.5427 H   0  0  0  0  0  0
    6.7901   56.0842   19.3949 H   0  0  0  0  0  0
    4.8286   52.8777   16.9408 H   0  0  0  0  0  0
    4.6310   52.2650   18.5470 H   0  0  0  0  0  0
    5.1648   55.4071   16.6378 H   0  0  0  0  0  0
    4.9561   56.4146   18.0431 H   0  0  0  0  0  0
    2.4305   53.4563   18.7749 H   0  0  0  0  0  0
    2.4473   52.2968   17.4498 H   0  0  0  0  0  0
    2.9053   56.3652   16.6116 H   0  0  0  0  0  0
    2.6088   55.8651   18.2584 H   0  0  0  0  0  0
    0.8236   53.4318   16.0770 H   0  0  0  0  0  0
    0.9713   55.1443   15.7653 H   0  0  0  0  0  0
   -0.8830   54.6479   17.3488 H   0  0  0  0  0  0
    0.3190   55.6818   18.0864 H   0  0  0  0  0  0
    0.2494   53.9577   18.4925 H   0  0  0  0  0  0
  1 14  1  0  0  0
  2 14  1  0  0  0
  3 14  1  0  0  0
  4 13  2  0  0  0
  4 15  1  0  0  0
  5 13  1  0  0  0
  5 16  1  0  0  0
  5 36  1  0  0  0
  6 15  2  0  0  0
  6 17  1  0  0  0
  7 15  1  0  0  0
  7 21  1  0  0  0
  7 37  1  0  0  0
  8 10  1  0  0  0
  8 19  1  0  0  0
  8 38  1  0  0  0
  9 24  1  0  0  0
  9 30  1  0  0  0
  9 31  1  0  0  0
 10 25  2  0  0  0
 11 32  1  0  0  0
 11 33  1  0  0  0
 11 34  1  0  0  0
 12 13  1  0  0  0
 12 14  1  0  0  0
 12 17  2  0  0  0
 16 20  1  0  0  0
 16 22  2  0  0  0
 17 39  1  0  0  0
 18 19  1  0  0  0
 18 20  2  0  0  0
 18 25  1  0  0  0
 19 23  2  0  0  0
 20 40  1  0  0  0
 21 26  2  0  0  0
 21 27  1  0  0  0
 22 23  1  0  0  0
 22 41  1  0  0  0
 23 42  1  0  0  0
 24 28  2  0  0  0
 24 29  1  0  0  0
 25 43  1  0  0  0
 26 28  1  0  0  0
 26 44  1  0  0  0
 27 29  2  0  0  0
 27 45  1  0  0  0
 28 46  1  0  0  0
 29 47  1  0  0  0
 30 32  1  0  0  0
 30 48  1  0  0  0
 30 49  1  0  0  0
 31 33  1  0  0  0
 31 50  1  0  0  0
 31 51  1  0  0  0
 32 52  1  0  0  0
 32 53  1  0  0  0
 33 54  1  0  0  0
 33 55  1  0  0  0
 34 35  1  0  0  0
 34 56  1  0  0  0
 34 57  1  0  0  0
 35 58  1  0  0  0
 35 59  1  0  0  0
 35 60  1  0  0  0
M  END
> <s_m_entry_id>
46316

> <s_m_entry_name>
dock_pv.57

> <s_m_Source_Path>
/home/csk/Desktop/cluster/DUD-E-result/wee1

> <s_m_Source_File>
dock_pv.maegz

> <i_m_Source_File_Index>
57

> <chembl_id>
CHEMBL1971914

> <chembl_pref_name>
None

> <i_lp_mmshare_version>
53161

> <r_lp_tautomer_probability>
0.983170142140339

> <s_lp_Force_Field>
OPLS_2005

> <r_lp_Energy>
40.741318

> <b_lp_Chiralities_Consistent>
1

> <s_lp_Variant>
CHEMBL5491_lig372-1

> <s_i_glide_gridfile>
glide-grid_3biz

> <i_i_glide_lignum>
421

> <i_i_glide_rotatable_bonds>
7

> <r_i_docking_score>
-8.39961214705655

> <r_i_glide_ligand_efficiency>
-0.23998891848733

> <r_i_glide_ligand_efficiency_sa>
-0.785019665152161

> <r_i_glide_ligand_efficiency_ln>
-1.84390128562651

> <r_i_glide_gscore>
-8.39961214705655

> <r_i_glide_lipo>
-3.05835922410124

> <r_i_glide_hbond>
-0.558035730081358

> <r_i_glide_metal>
0

> <r_i_glide_rewards>
-2.18526123091674

> <r_i_glide_evdw>
-43.7718162536621

> <r_i_glide_ecoul>
-4.70303106307983

> <r_i_glide_erotb>
0.305094317867618

> <r_i_glide_esite>
-0.00900480767975654

> <r_i_glide_emodel>
-67.0629505445621

> <r_i_glide_energy>
-48.4748473167419

> <r_i_glide_einternal>
9.83768749237061

> <i_i_glide_confnum>
60

> <i_i_glide_posenum>
35

> <r_i_glide_eff_state_penalty>
0

> <s_user_duplicate_titles>
CHEMBL5491_lig372

> <i_f3d_flags>
0

> <s_m_subgroup_title>
dock_pv

> <s_m_subgroupid>
dock_pv

> <b_m_subgroup_collapsed>
1

$$$$
CHEMBL5491_lig53
                    3D
 Schrodinger Suite 2021-1.
 41 44  0  0  1  0            999 V2000
    5.3128   54.2508   27.1034 N   0  0  0  0  0  0
    2.9813   53.8911   27.5651 C   0  0  0  0  0  0
    5.0614   54.2727   25.7001 C   0  0  0  0  0  0
    4.3471   54.1032   28.0707 C   0  0  0  0  0  0
    6.0785   54.5616   24.8364 N   0  0  0  0  0  0
    3.7555   54.0530   25.2427 C   0  0  0  0  0  0
    2.7033   53.8596   26.2418 C   0  0  0  0  0  0
    1.9031   53.6371   28.5543 C   0  0  0  0  0  0
    5.7746   54.5830   23.5136 C   0  0  0  0  0  0
    4.5594   54.2634   22.9902 N   0  0  0  0  0  0
    3.5515   54.0241   23.8646 C   0  0  0  0  0  0
    6.8005   55.0618   22.6881 N   0  0  0  0  0  0
    4.5840   54.1526   29.2796 O   0  0  0  0  0  0
    1.4713   54.6261   29.4607 C   0  0  0  0  0  0
    1.3360   52.3548   28.6400 C   0  0  0  0  0  0
    6.7145   54.3650   27.5464 C   0  0  0  0  0  0
    2.0262   56.2630   29.3602 Cl  0  0  0  0  0  0
    1.6787   51.3871   27.7592 F   0  0  0  0  0  0
    6.8811   55.4495   21.3371 C   0  0  0  0  0  0
    0.0791   53.0063   30.5889 C   0  0  0  0  0  0
    0.4134   52.0531   29.6360 C   0  0  0  0  0  0
    0.5848   54.2978   30.4862 C   0  0  0  0  0  0
    8.1321   55.8630   20.8799 C   0  0  0  0  0  0
    5.8095   55.3995   20.4362 C   0  0  0  0  0  0
    8.3195   56.2288   19.5492 C   0  0  0  0  0  0
    5.9892   55.7737   19.1063 C   0  0  0  0  0  0
    7.2435   56.1881   18.6693 C   0  0  0  0  0  0
    1.6885   53.6754   25.9163 H   0  0  0  0  0  0
    2.5791   53.8231   23.4395 H   0  0  0  0  0  0
    7.6575   55.2084   23.2021 H   0  0  0  0  0  0
    7.2888   53.5706   27.0738 H   0  0  0  0  0  0
    7.1327   55.3252   27.2467 H   0  0  0  0  0  0
    6.8584   54.2630   28.6239 H   0  0  0  0  0  0
   -0.6000   52.7470   31.3876 H   0  0  0  0  0  0
   -0.0225   51.0654   29.6853 H   0  0  0  0  0  0
    0.3046   55.0435   31.2158 H   0  0  0  0  0  0
    8.9735   55.8959   21.5546 H   0  0  0  0  0  0
    4.8297   55.0623   20.7269 H   0  0  0  0  0  0
    9.2960   56.5394   19.2066 H   0  0  0  0  0  0
    5.1604   55.7304   18.4155 H   0  0  0  0  0  0
    7.3833   56.4721   17.6362 H   0  0  0  0  0  0
  1  3  1  0  0  0
  1  4  1  0  0  0
  1 16  1  0  0  0
  2  4  1  0  0  0
  2  7  2  0  0  0
  2  8  1  0  0  0
  3  5  2  0  0  0
  3  6  1  0  0  0
  4 13  2  0  0  0
  5  9  1  0  0  0
  6 11  2  0  0  0
  6  7  1  0  0  0
  7 28  1  0  0  0
  8 14  1  0  0  0
  8 15  2  0  0  0
  9 12  1  0  0  0
  9 10  2  0  0  0
 10 11  1  0  0  0
 11 29  1  0  0  0
 12 19  1  0  0  0
 12 30  1  0  0  0
 14 17  1  0  0  0
 14 22  2  0  0  0
 15 18  1  0  0  0
 15 21  1  0  0  0
 16 31  1  0  0  0
 16 32  1  0  0  0
 16 33  1  0  0  0
 19 23  2  0  0  0
 19 24  1  0  0  0
 20 21  2  0  0  0
 20 22  1  0  0  0
 20 34  1  0  0  0
 21 35  1  0  0  0
 22 36  1  0  0  0
 23 25  1  0  0  0
 23 37  1  0  0  0
 24 26  2  0  0  0
 24 38  1  0  0  0
 25 27  2  0  0  0
 25 39  1  0  0  0
 26 27  1  0  0  0
 26 40  1  0  0  0
 27 41  1  0  0  0
M  END
> <s_m_entry_id>
46317

> <s_m_entry_name>
dock_pv.58

> <s_m_Source_Path>
/home/csk/Desktop/cluster/DUD-E-result/wee1

> <s_m_Source_File>
dock_pv.maegz

> <i_m_Source_File_Index>
58

> <chembl_id>
CHEMBL181733

> <chembl_pref_name>
None

> <i_lp_mmshare_version>
53161

> <r_lp_tautomer_probability>
1

> <s_lp_Force_Field>
OPLS_2005

> <r_lp_Energy>
26.996967

> <b_lp_Chiralities_Consistent>
1

> <s_lp_Variant>
CHEMBL5491_lig53-1

> <s_i_glide_gridfile>
glide-grid_3biz

> <i_i_glide_lignum>
51

> <i_i_glide_rotatable_bonds>
3

> <r_i_docking_score>
-8.32600704088906

> <r_i_glide_ligand_efficiency>
-0.308370631144039

> <r_i_glide_ligand_efficiency_sa>
-0.925111892415779

> <r_i_glide_ligand_efficiency_ln>
-1.93815717416507

> <r_i_glide_gscore>
-8.32600704088906

> <r_i_glide_lipo>
-3.36340175382078

> <r_i_glide_hbond>
-0.32

> <r_i_glide_metal>
0

> <r_i_glide_rewards>
-2.23033170510483

> <r_i_glide_evdw>
-46.2698249816895

> <r_i_glide_ecoul>
-3.3348171710968

> <r_i_glide_erotb>
0.401440242785546

> <r_i_glide_esite>
0

> <r_i_glide_emodel>
-71.2215488076673

> <r_i_glide_energy>
-49.6046421527863

> <r_i_glide_einternal>
1.78269338607788

> <i_i_glide_confnum>
2

> <i_i_glide_posenum>
180

> <r_i_glide_eff_state_penalty>
0

> <s_user_duplicate_titles>
CHEMBL5491_lig53

> <i_f3d_flags>
0

> <s_m_subgroup_title>
dock_pv

> <s_m_subgroupid>
dock_pv

> <b_m_subgroup_collapsed>
1

$$$$
CHEMBL5491_lig80
                    3D
 Schrodinger Suite 2021-1.
 52 55  0  0  1  0            999 V2000
    4.3560   54.4875   26.0021 N   0  0  0  0  0  0
    2.7754   53.4070   27.4623 C   0  0  0  0  0  0
    3.6603   54.0153   24.8533 C   0  0  0  0  0  0
    3.9823   54.2411   27.3033 C   0  0  0  0  0  0
    4.1683   54.2626   23.6175 N   0  0  0  0  0  0
    2.4984   53.2511   25.0208 C   0  0  0  0  0  0
    2.0837   52.9462   26.3893 C   0  0  0  0  0  0
    2.2675   53.1095   28.8393 C   0  0  0  0  0  0
    3.5230   53.7176   22.5563 C   0  0  0  0  0  0
    2.3804   52.9896   22.6325 N   0  0  0  0  0  0
    7.2029   57.9974   16.7586 C   0  0  0  0  0  0
    1.8737   52.7643   23.8730 C   0  0  0  0  0  0
    4.0482   53.8646   21.2687 N   0  0  0  0  0  0
    4.6093   54.6638   28.2765 O   0  0  0  0  0  0
    7.8022   58.1989   18.1800 C   0  0  2  0  0  0
    3.0543   52.4542   29.8122 C   0  0  0  0  0  0
    0.9648   53.4959   29.2114 C   0  0  0  0  0  0
    7.4112   56.9724   16.1156 O   0  0  0  0  0  0
    8.2799   56.8627   18.8392 C   0  0  0  0  0  0
    5.5957   55.2569   25.7720 C   0  0  0  0  0  0
    5.1388   54.5646   20.7281 C   0  0  0  0  0  0
    7.1790   56.0304   19.4983 C   0  0  0  0  0  0
    6.8814   58.9912   19.0336 N   0  0  0  0  0  0
    6.4931   59.0611   16.2827 O   0  0  0  0  0  0
    4.6375   51.8630   29.4609 Cl  0  0  0  0  0  0
   -0.0932   54.2633   28.0873 Cl  0  0  0  0  0  0
    6.1567   55.1386   21.4979 C   0  0  0  0  0  0
    5.1760   54.6915   19.3396 C   0  0  0  0  0  0
    7.1730   55.8635   20.8872 C   0  0  0  0  0  0
    6.1908   55.4164   18.7259 C   0  0  0  0  0  0
    1.2782   52.6499   31.4460 C   0  0  0  0  0  0
    2.5709   52.2631   31.1081 C   0  0  0  0  0  0
    0.4755   53.2595   30.4943 C   0  0  0  0  0  0
    1.2018   52.3369   26.5453 H   0  0  0  0  0  0
    0.9807   52.1551   23.9339 H   0  0  0  0  0  0
    3.4431   53.4511   20.5749 H   0  0  0  0  0  0
    8.6985   58.7928   17.9994 H   0  0  0  0  0  0
    8.8163   56.2389   18.1216 H   0  0  0  0  0  0
    9.0555   57.0755   19.5761 H   0  0  0  0  0  0
    6.1617   55.4640   26.6801 H   0  0  0  0  0  0
    6.2638   54.7043   25.1119 H   0  0  0  0  0  0
    5.3636   56.2046   25.2876 H   0  0  0  0  0  0
    6.6497   59.9265   18.6789 H   0  0  0  0  0  0
    6.0101   58.5031   19.1865 H   0  0  0  0  0  0
    6.4100   59.8155   16.8805 H   0  0  0  0  0  0
    6.1890   55.0394   22.5698 H   0  0  0  0  0  0
    4.4062   54.2410   18.7297 H   0  0  0  0  0  0
    7.9531   56.2898   21.5011 H   0  0  0  0  0  0
    6.1928   55.5009   17.6511 H   0  0  0  0  0  0
    0.9063   52.4883   32.4472 H   0  0  0  0  0  0
    3.1959   51.8030   31.8611 H   0  0  0  0  0  0
   -0.5254   53.5539   30.7564 H   0  0  0  0  0  0
  1  3  1  0  0  0
  1  4  1  0  0  0
  1 20  1  0  0  0
  2  4  1  0  0  0
  2  7  2  0  0  0
  2  8  1  0  0  0
  3  5  2  0  0  0
  3  6  1  0  0  0
  4 14  2  0  0  0
  5  9  1  0  0  0
  6 12  2  0  0  0
  6  7  1  0  0  0
  7 34  1  0  0  0
  8 16  2  0  0  0
  8 17  1  0  0  0
  9 13  1  0  0  0
  9 10  2  0  0  0
 10 12  1  0  0  0
 11 15  1  0  0  0
 11 18  2  0  0  0
 11 24  1  0  0  0
 12 35  1  0  0  0
 13 21  1  0  0  0
 13 36  1  0  0  0
 15 19  1  0  0  0
 15 23  1  0  0  0
 15 37  1  0  0  0
 16 25  1  0  0  0
 16 32  1  0  0  0
 17 26  1  0  0  0
 17 33  2  0  0  0
 19 22  1  0  0  0
 19 38  1  0  0  0
 19 39  1  0  0  0
 20 40  1  0  0  0
 20 41  1  0  0  0
 20 42  1  0  0  0
 21 27  1  0  0  0
 21 28  2  0  0  0
 22 30  2  0  0  0
 22 29  1  0  0  0
 23 43  1  0  0  0
 23 44  1  0  0  0
 24 45  1  0  0  0
 27 29  2  0  0  0
 27 46  1  0  0  0
 28 30  1  0  0  0
 28 47  1  0  0  0
 29 48  1  0  0  0
 30 49  1  0  0  0
 31 33  1  0  0  0
 31 32  2  0  0  0
 31 50  1  0  0  0
 32 51  1  0  0  0
 33 52  1  0  0  0
M  END
> <s_m_entry_id>
46318

> <s_m_entry_name>
dock_pv.59

> <s_m_Source_Path>
/home/csk/Desktop/cluster/DUD-E-result/wee1

> <s_m_Source_File>
dock_pv.maegz

> <i_m_Source_File_Index>
59

> <chembl_id>
CHEMBL435732

> <chembl_pref_name>
None

> <i_lp_mmshare_version>
53161

> <r_lp_tautomer_probability>
1

> <s_lp_Force_Field>
OPLS_2005

> <r_lp_Energy>
26.008531

> <b_lp_Chiralities_Consistent>
1

> <s_lp_Variant>
CHEMBL5491_lig80-1

> <s_i_glide_gridfile>
glide-grid_3biz

> <i_i_glide_lignum>
78

> <i_i_glide_rotatable_bonds>
7

> <r_i_docking_score>
-8.28109415294419

> <r_i_glide_ligand_efficiency>
-0.250942247058915

> <r_i_glide_ligand_efficiency_sa>
-0.804905871349644

> <r_i_glide_ligand_efficiency_ln>
-1.841672462404

> <r_i_glide_gscore>
-8.28109415294419

> <r_i_glide_lipo>
-3.04689839366164

> <r_i_glide_hbond>
-0.237549373819636

> <r_i_glide_metal>
0

> <r_i_glide_rewards>
-1.01016665304636

> <r_i_glide_evdw>
-41.9746856689453

> <r_i_glide_ecoul>
-15.9596748352051

> <r_i_glide_erotb>
0.519410975263592

> <r_i_glide_esite>
-0.0132051989521194

> <r_i_glide_emodel>
-79.7486103861531

> <r_i_glide_energy>
-57.9343605041504

> <r_i_glide_einternal>
9.81058883666992

> <i_i_glide_confnum>
4

> <i_i_glide_posenum>
39

> <r_i_glide_eff_state_penalty>
0

> <s_user_duplicate_titles>
CHEMBL5491_lig80,303192

> <i_f3d_flags>
0

> <s_m_subgroup_title>
dock_pv

> <s_m_subgroupid>
dock_pv

> <b_m_subgroup_collapsed>
1

$$$$
CHEMBL5491_lig56
                    3D
 Schrodinger Suite 2021-1.
 42 45  0  0  1  0            999 V2000
    5.3302   54.2635   27.1088 N   0  0  0  0  0  0
    3.0003   53.8947   27.5703 C   0  0  0  0  0  0
    5.0806   54.2700   25.7033 C   0  0  0  0  0  0
    4.3642   54.1232   28.0767 C   0  0  0  0  0  0
    6.0935   54.5691   24.8368 N   0  0  0  0  0  0
    3.7775   54.0341   25.2467 C   0  0  0  0  0  0
    2.7293   53.8331   26.2459 C   0  0  0  0  0  0
    1.9204   53.6361   28.5625 C   0  0  0  0  0  0
    5.7862   54.5871   23.5144 C   0  0  0  0  0  0
    4.5720   54.2633   22.9944 N   0  0  0  0  0  0
    3.5679   54.0093   23.8700 C   0  0  0  0  0  0
    6.8072   55.0635   22.6824 N   0  0  0  0  0  0
    4.5990   54.1875   29.2870 O   0  0  0  0  0  0
    1.5052   54.6332   29.4671 C   0  0  0  0  0  0
    1.3009   52.3742   28.6302 C   0  0  0  0  0  0
    6.7300   54.3948   27.5534 C   0  0  0  0  0  0
    2.0781   56.2635   29.3648 Cl  0  0  0  0  0  0
    6.8794   55.4473   21.3296 C   0  0  0  0  0  0
    1.5859   51.3830   27.7302 O   0  0  0  0  0  0
    0.0789   53.0449   30.5937 C   0  0  0  0  0  0
    0.6087   54.3238   30.4872 C   0  0  0  0  0  0
    0.3779   52.0897   29.6317 C   0  0  0  0  0  0
    8.1263   55.8629   20.8650 C   0  0  0  0  0  0
    5.8030   55.3979   20.4336 C   0  0  0  0  0  0
    8.3064   56.2305   19.5344 C   0  0  0  0  0  0
    5.9744   55.7756   19.1027 C   0  0  0  0  0  0
    7.2261   56.1918   18.6596 C   0  0  0  0  0  0
    1.7186   53.6226   25.9218 H   0  0  0  0  0  0
    2.5960   53.8056   23.4467 H   0  0  0  0  0  0
    7.6654   55.2128   23.1954 H   0  0  0  0  0  0
    7.3263   53.6282   27.0632 H   0  0  0  0  0  0
    7.1275   55.3721   27.2831 H   0  0  0  0  0  0
    6.8754   54.2627   28.6267 H   0  0  0  0  0  0
    1.0271   50.6089   27.8405 H   0  0  0  0  0  0
   -0.5973   52.8013   31.4002 H   0  0  0  0  0  0
    0.3438   55.0723   31.2183 H   0  0  0  0  0  0
   -0.0896   51.1169   29.6867 H   0  0  0  0  0  0
    8.9714   55.8975   21.5353 H   0  0  0  0  0  0
    4.8245   55.0631   20.7313 H   0  0  0  0  0  0
    9.2810   56.5416   19.1872 H   0  0  0  0  0  0
    5.1407   55.7358   18.4157 H   0  0  0  0  0  0
    7.3603   56.4772   17.6257 H   0  0  0  0  0  0
  1  3  1  0  0  0
  1  4  1  0  0  0
  1 16  1  0  0  0
  2  4  1  0  0  0
  2  7  2  0  0  0
  2  8  1  0  0  0
  3  5  2  0  0  0
  3  6  1  0  0  0
  4 13  2  0  0  0
  5  9  1  0  0  0
  6 11  2  0  0  0
  6  7  1  0  0  0
  7 28  1  0  0  0
  8 14  1  0  0  0
  8 15  2  0  0  0
  9 12  1  0  0  0
  9 10  2  0  0  0
 10 11  1  0  0  0
 11 29  1  0  0  0
 12 18  1  0  0  0
 12 30  1  0  0  0
 14 17  1  0  0  0
 14 21  2  0  0  0
 15 19  1  0  0  0
 15 22  1  0  0  0
 16 31  1  0  0  0
 16 32  1  0  0  0
 16 33  1  0  0  0
 18 23  2  0  0  0
 18 24  1  0  0  0
 19 34  1  0  0  0
 20 22  2  0  0  0
 20 21  1  0  0  0
 20 35  1  0  0  0
 21 36  1  0  0  0
 22 37  1  0  0  0
 23 25  1  0  0  0
 23 38  1  0  0  0
 24 26  2  0  0  0
 24 39  1  0  0  0
 25 27  2  0  0  0
 25 40  1  0  0  0
 26 27  1  0  0  0
 26 41  1  0  0  0
 27 42  1  0  0  0
M  END
> <s_m_entry_id>
46319

> <s_m_entry_name>
dock_pv.60

> <s_m_Source_Path>
/home/csk/Desktop/cluster/DUD-E-result/wee1

> <s_m_Source_File>
dock_pv.maegz

> <i_m_Source_File_Index>
60

> <chembl_id>
CHEMBL434907

> <chembl_pref_name>
None

> <i_lp_mmshare_version>
53161

> <r_lp_tautomer_probability>
0.999999999997365

> <s_lp_Force_Field>
OPLS_2005

> <r_lp_Energy>
26.18853

> <b_lp_Chiralities_Consistent>
1

> <s_lp_Variant>
CHEMBL5491_lig56-1

> <s_i_glide_gridfile>
glide-grid_3biz

> <i_i_glide_lignum>
54

> <i_i_glide_rotatable_bonds>
4

> <r_i_docking_score>
-8.21815289918291

> <r_i_glide_ligand_efficiency>
-0.304376033303071

> <r_i_glide_ligand_efficiency_sa>
-0.913128098906039

> <r_i_glide_ligand_efficiency_ln>
-1.91305050809037

> <r_i_glide_gscore>
-8.21815289918291

> <r_i_glide_lipo>
-3.3357472420142

> <r_i_glide_hbond>
-0.32

> <r_i_glide_metal>
0

> <r_i_glide_rewards>
-2.06595287794698

> <r_i_glide_evdw>
-46.8062324523926

> <r_i_glide_ecoul>
-3.74246335029602

> <r_i_glide_erotb>
0.405228345942295

> <r_i_glide_esite>
0

> <r_i_glide_emodel>
-72.5108638898514

> <r_i_glide_energy>
-50.5486958026886

> <r_i_glide_einternal>
2.5812087059021

> <i_i_glide_confnum>
9

> <i_i_glide_posenum>
122

> <r_i_glide_eff_state_penalty>
0

> <s_user_duplicate_titles>
CHEMBL5491_lig56

> <i_f3d_flags>
0

> <s_m_subgroup_title>
dock_pv

> <s_m_subgroupid>
dock_pv

> <b_m_subgroup_collapsed>
1

$$$$
CHEMBL5491_lig296
                    3D
 Schrodinger Suite 2021-1.
 32 35  0  0  1  0            999 V2000
    2.3526   53.5132   27.2436 C   0  0  0  0  0  0
    2.7523   53.5920   28.5791 C   0  0  0  0  0  0
    4.0559   53.9807   28.8937 C   0  0  0  0  0  0
    3.1626   53.7968   26.1877 N   0  0  0  0  0  0
    4.4182   54.1624   26.4729 C   0  0  0  0  0  0
    4.8885   54.2601   27.8047 C   0  0  0  0  0  0
    6.1992   54.6629   27.6876 N   0  0  0  0  0  0
    6.5592   54.8345   26.4027 N   0  0  0  0  0  0
    5.5339   54.5191   25.6464 C   0  0  0  0  0  0
    5.6067   54.5743   24.1881 C   0  0  0  0  0  0
    6.6981   55.0688   23.5103 N   0  0  0  0  0  0
    4.6798   54.1771   23.2384 C   0  0  0  0  0  0
    5.2161   54.4623   21.9437 C   0  0  0  0  0  0
    6.4883   55.0630   22.1482 C   0  0  0  0  0  0
    7.2980   55.4935   21.0917 C   0  0  0  0  0  0
    6.8096   55.3090   19.7862 C   0  0  0  0  0  0
    5.5618   54.7221   19.5774 C   0  0  0  0  0  0
    4.7598   54.2861   20.6313 C   0  0  0  0  0  0
    7.5073   55.6624   18.6486 O   0  0  0  0  0  0
    8.8617   56.0863   18.7613 C   0  0  0  0  0  0
    1.3459   53.2106   26.9942 H   0  0  0  0  0  0
    2.0546   53.3525   29.3693 H   0  0  0  0  0  0
    4.3934   54.0592   29.9160 H   0  0  0  0  0  0
    6.8398   54.9058   28.4372 H   0  0  0  0  0  0
    7.5367   55.3766   23.9861 H   0  0  0  0  0  0
    3.7217   53.7327   23.4626 H   0  0  0  0  0  0
    8.2675   55.9260   21.2831 H   0  0  0  0  0  0
    5.2107   54.5892   18.5634 H   0  0  0  0  0  0
    3.7957   53.8371   20.4384 H   0  0  0  0  0  0
    9.2666   56.2827   17.7685 H   0  0  0  0  0  0
    9.4761   55.3100   19.2192 H   0  0  0  0  0  0
    8.9512   57.0077   19.3370 H   0  0  0  0  0  0
  1  4  1  0  0  0
  1  2  2  0  0  0
  1 21  1  0  0  0
  2  3  1  0  0  0
  2 22  1  0  0  0
  3  6  2  0  0  0
  3 23  1  0  0  0
  4  5  2  0  0  0
  5  6  1  0  0  0
  5  9  1  0  0  0
  6  7  1  0  0  0
  7  8  1  0  0  0
  7 24  1  0  0  0
  8  9  2  0  0  0
  9 10  1  0  0  0
 10 11  1  0  0  0
 10 12  2  0  0  0
 11 14  1  0  0  0
 11 25  1  0  0  0
 12 13  1  0  0  0
 12 26  1  0  0  0
 13 14  2  0  0  0
 13 18  1  0  0  0
 14 15  1  0  0  0
 15 16  2  0  0  0
 15 27  1  0  0  0
 16 17  1  0  0  0
 16 19  1  0  0  0
 17 18  2  0  0  0
 17 28  1  0  0  0
 18 29  1  0  0  0
 19 20  1  0  0  0
 20 30  1  0  0  0
 20 31  1  0  0  0
 20 32  1  0  0  0
M  END
> <s_m_entry_id>
46321

> <s_m_entry_name>
dock_pv.62

> <s_m_Source_Path>
/home/csk/Desktop/cluster/DUD-E-result/wee1

> <s_m_Source_File>
dock_pv.maegz

> <i_m_Source_File_Index>
62

> <chembl_id>
CHEMBL1288582

> <chembl_pref_name>
None

> <i_lp_mmshare_version>
53161

> <r_lp_tautomer_probability>
0.979080134072448

> <s_lp_Force_Field>
OPLS_2005

> <r_lp_Energy>
18.530142

> <b_lp_Chiralities_Consistent>
1

> <s_lp_Variant>
CHEMBL5491_lig296-1

> <s_i_glide_gridfile>
glide-grid_3biz

> <i_i_glide_lignum>
312

> <i_i_glide_rotatable_bonds>
2

> <r_i_docking_score>
-8.18954059641665

> <r_i_glide_ligand_efficiency>
-0.409477029820833

> <r_i_glide_ligand_efficiency_sa>
-1.11149166222672

> <r_i_glide_ligand_efficiency_ln>
-2.04957190215662

> <r_i_glide_gscore>
-8.18954059641665

> <r_i_glide_lipo>
-3.00384923635011

> <r_i_glide_hbond>
-0.534893014589155

> <r_i_glide_metal>
0

> <r_i_glide_rewards>
-2.40111251047388

> <r_i_glide_evdw>
-33.3002281188965

> <r_i_glide_ecoul>
-5.08542251586914

> <r_i_glide_erotb>
0.178138948321687

> <r_i_glide_esite>
0

> <r_i_glide_emodel>
-58.3143225743274

> <r_i_glide_energy>
-38.3856506347656

> <r_i_glide_einternal>
0.256440788507462

> <i_i_glide_confnum>
1

> <i_i_glide_posenum>
399

> <r_i_glide_eff_state_penalty>
0

> <s_user_duplicate_titles>
CHEMBL5491_lig296

> <i_f3d_flags>
0

> <s_m_subgroup_title>
dock_pv

> <s_m_subgroupid>
dock_pv

> <b_m_subgroup_collapsed>
1

$$$$
CHEMBL5491_lig279
                    3D
 Schrodinger Suite 2021-1.
 52 57  0  0  1  0            999 V2000
    0.8524   52.3632   29.0361 C   0  0  0  0  0  0
   -0.2095   51.8804   28.2799 C   0  0  0  0  0  0
   -0.2267   51.9877   26.8903 C   0  0  0  0  0  0
    1.9595   52.9455   28.4238 C   0  0  0  0  0  0
    1.9941   53.0625   27.0198 C   0  0  0  0  0  0
    0.8793   52.5929   26.2712 C   0  0  0  0  0  0
    1.1299   52.8607   24.9317 N   0  0  0  0  0  0
    2.9564   53.5368   26.0919 C   0  0  0  0  0  0
    2.3822   53.4456   24.8017 C   0  0  0  0  0  0
    3.0698   53.8635   23.6562 C   0  0  0  0  0  0
    4.4406   54.1734   23.7384 C   0  0  0  0  0  0
    4.2727   54.0308   26.1812 C   0  0  0  0  0  0
    4.9927   54.3276   25.0355 C   0  0  0  0  0  0
    6.3277   54.8013   25.5178 C   0  0  0  0  0  0
    6.3122   54.6910   26.8569 N   0  0  0  0  0  0
    5.1511   54.2616   27.3598 C   0  0  0  0  0  0
    7.2769   55.2435   24.8877 O   0  0  0  0  0  0
    4.9151   54.1127   28.5541 O   0  0  0  0  0  0
    0.8124   52.2640   30.4010 O   0  0  0  0  0  0
    0.2224   52.5381   23.8295 C   0  0  0  0  0  0
    0.1931   51.0204   23.5515 C   0  0  0  0  0  0
    5.1688   54.2610   22.4049 C   0  0  0  0  0  0
    4.8809   53.3375   21.3650 C   0  0  0  0  0  0
    5.3022   53.5665   20.0552 C   0  0  0  0  0  0
    6.1051   54.6626   19.7583 C   0  0  0  0  0  0
    6.5310   55.4977   20.7856 C   0  0  0  0  0  0
    6.0789   55.2904   22.0882 C   0  0  0  0  0  0
    4.0486   51.8448   21.6431 Cl  0  0  0  0  0  0
   -0.7927   50.6553   21.9752 S   0  0  0  0  0  0
    0.4624   50.3165   20.8536 N   0  0  0  0  0  0
   -1.4570   51.8716   21.4902 O   0  0  0  0  0  0
   -1.5287   49.3978   22.1433 O   0  0  0  0  0  0
    1.0427   51.1470   19.9289 C   0  0  0  0  0  0
    2.0433   50.3643   19.3681 C   0  0  0  0  0  0
    2.0791   49.1766   19.9452 N   0  0  0  0  0  0
    1.0954   49.1403   20.9158 N   0  0  0  0  0  0
   -1.0493   51.4113   28.7749 H   0  0  0  0  0  0
   -1.0695   51.6116   26.3280 H   0  0  0  0  0  0
    2.7657   53.2928   29.0458 H   0  0  0  0  0  0
    2.5925   53.8053   22.6902 H   0  0  0  0  0  0
    7.0865   54.9436   27.4522 H   0  0  0  0  0  0
    0.0012   51.8766   30.7409 H   0  0  0  0  0  0
    0.5399   53.0823   22.9377 H   0  0  0  0  0  0
   -0.7740   52.9100   24.0853 H   0  0  0  0  0  0
   -0.3007   50.4735   24.3576 H   0  0  0  0  0  0
    1.1933   50.5952   23.4253 H   0  0  0  0  0  0
    5.0398   52.8674   19.2716 H   0  0  0  0  0  0
    6.4430   54.8269   18.7462 H   0  0  0  0  0  0
    7.1948   56.3205   20.5677 H   0  0  0  0  0  0
    6.3978   56.0035   22.8298 H   0  0  0  0  0  0
    0.7025   52.1599   19.7642 H   0  0  0  0  0  0
    2.7400   50.6409   18.5870 H   0  0  0  0  0  0
  1  2  2  0  0  0
  1 19  1  0  0  0
  1  4  1  0  0  0
  2  3  1  0  0  0
  2 37  1  0  0  0
  3  6  2  0  0  0
  3 38  1  0  0  0
  4  5  2  0  0  0
  4 39  1  0  0  0
  5  8  1  0  0  0
  5  6  1  0  0  0
  6  7  1  0  0  0
  7 20  1  0  0  0
  7  9  1  0  0  0
  8  9  2  0  0  0
  8 12  1  0  0  0
  9 10  1  0  0  0
 10 11  2  0  0  0
 10 40  1  0  0  0
 11 13  1  0  0  0
 11 22  1  0  0  0
 12 13  2  0  0  0
 12 16  1  0  0  0
 13 14  1  0  0  0
 14 17  2  0  0  0
 14 15  1  0  0  0
 15 16  1  0  0  0
 15 41  1  0  0  0
 16 18  2  0  0  0
 19 42  1  0  0  0
 20 21  1  0  0  0
 20 43  1  0  0  0
 20 44  1  0  0  0
 21 29  1  0  0  0
 21 45  1  0  0  0
 21 46  1  0  0  0
 22 23  2  0  0  0
 22 27  1  0  0  0
 23 24  1  0  0  0
 23 28  1  0  0  0
 24 25  2  0  0  0
 24 47  1  0  0  0
 25 26  1  0  0  0
 25 48  1  0  0  0
 26 27  2  0  0  0
 26 49  1  0  0  0
 27 50  1  0  0  0
 29 30  1  0  0  0
 29 31  2  0  0  0
 29 32  2  0  0  0
 30 33  1  0  0  0
 30 36  1  0  0  0
 33 34  2  0  0  0
 33 51  1  0  0  0
 34 35  1  0  0  0
 34 52  1  0  0  0
 35 36  2  0  0  0
M  END
> <s_m_entry_id>
46322

> <s_m_entry_name>
dock_pv.63

> <s_m_Source_Path>
/home/csk/Desktop/cluster/DUD-E-result/wee1

> <s_m_Source_File>
dock_pv.maegz

> <i_m_Source_File_Index>
63

> <chembl_id>
CHEMBL487757

> <chembl_pref_name>
None

> <i_lp_mmshare_version>
53161

> <r_lp_tautomer_probability>
1

> <s_lp_Force_Field>
OPLS_2005

> <r_lp_Energy>
68.002386

> <b_lp_Chiralities_Consistent>
1

> <s_lp_Variant>
CHEMBL5491_lig279-1

> <s_i_glide_gridfile>
glide-grid_3biz

> <i_i_glide_lignum>
292

> <i_i_glide_rotatable_bonds>
6

> <r_i_docking_score>
-8.17031029876692

> <r_i_glide_ligand_efficiency>
-0.226953063854637

> <r_i_glide_ligand_efficiency_sa>
-0.749382504866605

> <r_i_glide_ligand_efficiency_ln>
-1.78254097091589

> <r_i_glide_gscore>
-8.17031029876692

> <r_i_glide_lipo>
-3.05189191504796

> <r_i_glide_hbond>
-0.279564236238642

> <r_i_glide_metal>
0

> <r_i_glide_rewards>
-1.90206505380528

> <r_i_glide_evdw>
-50.6152763366699

> <r_i_glide_ecoul>
-4.17139291763306

> <r_i_glide_erotb>
0.301903158469701

> <r_i_glide_esite>
-0.0822194976662857

> <r_i_glide_emodel>
-71.6576995159077

> <r_i_glide_energy>
-54.786669254303

> <r_i_glide_einternal>
8.10775089263916

> <i_i_glide_confnum>
40

> <i_i_glide_posenum>
234

> <r_i_glide_eff_state_penalty>
0

> <s_user_duplicate_titles>
CHEMBL5491_lig279,523651

> <i_f3d_flags>
0

> <s_m_subgroup_title>
dock_pv

> <s_m_subgroupid>
dock_pv

> <b_m_subgroup_collapsed>
1

$$$$
CHEMBL5491_lig49
                    3D
 Schrodinger Suite 2021-1.
 41 44  0  0  1  0            999 V2000
    5.2885   54.2302   27.1092 N   0  0  0  0  0  0
    2.9599   53.8731   27.5840 C   0  0  0  0  0  0
    5.0271   54.2646   25.7081 C   0  0  0  0  0  0
    4.3326   54.0518   28.0794 C   0  0  0  0  0  0
    6.0393   54.5562   24.8404 N   0  0  0  0  0  0
    3.7189   54.0416   25.2576 C   0  0  0  0  0  0
    2.6716   53.8495   26.2628 C   0  0  0  0  0  0
    1.8839   53.6972   28.5943 C   0  0  0  0  0  0
    5.7286   54.5791   23.5196 C   0  0  0  0  0  0
    4.5118   54.2595   23.0011 N   0  0  0  0  0  0
    3.5074   54.0166   23.8802 C   0  0  0  0  0  0
    6.7510   55.0601   22.6924 N   0  0  0  0  0  0
    4.5779   54.0488   29.2869 O   0  0  0  0  0  0
    1.4896   54.7700   29.4202 C   0  0  0  0  0  0
    1.2873   52.4388   28.8005 C   0  0  0  0  0  0
    6.6919   54.3612   27.5436 C   0  0  0  0  0  0
    1.6785   51.0632   27.8266 Cl  0  0  0  0  0  0
    2.0763   56.3784   29.1792 Cl  0  0  0  0  0  0
    6.8310   55.4416   21.3402 C   0  0  0  0  0  0
    0.0790   53.2962   30.7078 C   0  0  0  0  0  0
    0.3630   52.2627   29.8272 C   0  0  0  0  0  0
    0.6199   54.5561   30.4871 C   0  0  0  0  0  0
    8.0802   55.8623   20.8853 C   0  0  0  0  0  0
    5.7590   55.3900   20.4390 C   0  0  0  0  0  0
    5.9376   55.7695   19.1110 C   0  0  0  0  0  0
    8.2671   56.2315   19.5562 C   0  0  0  0  0  0
    7.1911   56.1896   18.6748 C   0  0  0  0  0  0
    1.6488   53.6992   25.9462 H   0  0  0  0  0  0
    2.5312   53.8191   23.4604 H   0  0  0  0  0  0
    7.6079   55.2079   23.2082 H   0  0  0  0  0  0
    7.2815   53.5841   27.0600 H   0  0  0  0  0  0
    7.0906   55.3330   27.2517 H   0  0  0  0  0  0
    6.8447   54.2553   28.6193 H   0  0  0  0  0  0
   -0.5845   53.1183   31.5426 H   0  0  0  0  0  0
   -0.1225   51.3090   29.9602 H   0  0  0  0  0  0
    0.3801   55.3698   31.1544 H   0  0  0  0  0  0
    8.9220   55.8967   21.5604 H   0  0  0  0  0  0
    4.7762   55.0616   20.7334 H   0  0  0  0  0  0
    5.1062   55.7318   18.4216 H   0  0  0  0  0  0
    9.2427   56.5475   19.2145 H   0  0  0  0  0  0
    7.3307   56.4792   17.6433 H   0  0  0  0  0  0
  1  3  1  0  0  0
  1  4  1  0  0  0
  1 16  1  0  0  0
  2  4  1  0  0  0
  2  7  2  0  0  0
  2  8  1  0  0  0
  3  5  2  0  0  0
  3  6  1  0  0  0
  4 13  2  0  0  0
  5  9  1  0  0  0
  6 11  2  0  0  0
  6  7  1  0  0  0
  7 28  1  0  0  0
  8 14  1  0  0  0
  8 15  2  0  0  0
  9 12  1  0  0  0
  9 10  2  0  0  0
 10 11  1  0  0  0
 11 29  1  0  0  0
 12 19  1  0  0  0
 12 30  1  0  0  0
 14 18  1  0  0  0
 14 22  2  0  0  0
 15 17  1  0  0  0
 15 21  1  0  0  0
 16 31  1  0  0  0
 16 32  1  0  0  0
 16 33  1  0  0  0
 19 23  2  0  0  0
 19 24  1  0  0  0
 20 21  2  0  0  0
 20 22  1  0  0  0
 20 34  1  0  0  0
 21 35  1  0  0  0
 22 36  1  0  0  0
 23 26  1  0  0  0
 23 37  1  0  0  0
 24 25  2  0  0  0
 24 38  1  0  0  0
 25 27  1  0  0  0
 25 39  1  0  0  0
 26 27  2  0  0  0
 26 40  1  0  0  0
 27 41  1  0  0  0
M  END
> <s_m_entry_id>
46323

> <s_m_entry_name>
dock_pv.64

> <s_m_Source_Path>
/home/csk/Desktop/cluster/DUD-E-result/wee1

> <s_m_Source_File>
dock_pv.maegz

> <i_m_Source_File_Index>
64

> <chembl_id>
CHEMBL301612

> <chembl_pref_name>
None

> <i_lp_mmshare_version>
53161

> <r_lp_tautomer_probability>
1

> <s_lp_Force_Field>
OPLS_2005

> <r_lp_Energy>
26.323427

> <b_lp_Chiralities_Consistent>
1

> <s_lp_Variant>
CHEMBL5491_lig49-1

> <s_i_glide_gridfile>
glide-grid_3biz

> <i_i_glide_lignum>
47

> <i_i_glide_rotatable_bonds>
3

> <r_i_docking_score>
-8.13271640946871

> <r_i_glide_ligand_efficiency>
-0.301211718869211

> <r_i_glide_ligand_efficiency_sa>
-0.90363515561489

> <r_i_glide_ligand_efficiency_ln>
-1.89316230181552

> <r_i_glide_gscore>
-8.13271640946871

> <r_i_glide_lipo>
-3.48275080099727

> <r_i_glide_hbond>
-0.32

> <r_i_glide_metal>
0

> <r_i_glide_rewards>
-1.91082057570661

> <r_i_glide_evdw>
-46.1368141174316

> <r_i_glide_ecoul>
-3.22922325134277

> <r_i_glide_erotb>
0.372079160808161

> <r_i_glide_esite>
0

> <r_i_glide_emodel>
-69.6394683588661

> <r_i_glide_energy>
-49.3660373687744

> <r_i_glide_einternal>
3.16078281402588

> <i_i_glide_confnum>
2

> <i_i_glide_posenum>
129

> <r_i_glide_eff_state_penalty>
0

> <s_user_duplicate_titles>
CHEMBL5491_lig49

> <i_f3d_flags>
0

> <s_m_subgroup_title>
dock_pv

> <s_m_subgroupid>
dock_pv

> <b_m_subgroup_collapsed>
1

$$$$
CHEMBL5491_lig141
                    3D
 Schrodinger Suite 2021-1.
 39 43  0  0  1  0            999 V2000
    4.8319   54.6034   21.1109 C   0  0  0  0  0  0
    6.0864   55.0589   21.4994 C   0  0  0  0  0  0
    6.4792   55.0641   22.8377 C   0  0  0  0  0  0
    3.9098   54.1545   22.0527 C   0  0  0  0  0  0
    4.2445   54.2015   23.4164 C   0  0  0  0  0  0
    5.5351   54.6630   23.7882 C   0  0  0  0  0  0
    5.5832   54.6859   25.1659 N   0  0  0  0  0  0
    3.5575   53.8651   24.6032 C   0  0  0  0  0  0
    4.3904   54.2382   25.6927 C   0  0  0  0  0  0
    3.9881   54.0963   27.0259 C   0  0  0  0  0  0
    2.7634   53.4632   27.2881 C   0  0  0  0  0  0
    2.3206   53.2640   24.8963 C   0  0  0  0  0  0
    1.9637   53.0445   26.2063 C   0  0  0  0  0  0
    0.6859   52.2631   26.1685 C   0  0  0  0  0  0
    0.3644   52.1488   24.8702 N   0  0  0  0  0  0
    1.2443   52.7101   24.0272 C   0  0  0  0  0  0
    0.0252   51.8032   27.0942 O   0  0  0  0  0  0
    1.1414   52.7199   22.8046 O   0  0  0  0  0  0
    4.4793   54.6326   19.7885 O   0  0  0  0  0  0
    2.3489   53.2257   28.7043 C   0  0  0  0  0  0
    3.1691   52.5636   29.6430 C   0  0  0  0  0  0
    2.6839   52.2631   30.9133 C   0  0  0  0  0  0
    1.3778   52.5887   31.2575 C   0  0  0  0  0  0
    0.5755   53.2915   30.3695 C   0  0  0  0  0  0
    1.0720   53.6350   29.1165 C   0  0  0  0  0  0
    4.7768   52.0438   29.2830 Cl  0  0  0  0  0  0
    0.8790   52.1902   32.4870 N   0  0  0  0  0  0
    6.7766   55.4061   20.7444 H   0  0  0  0  0  0
    7.4511   55.4367   23.1199 H   0  0  0  0  0  0
    2.9403   53.8225   21.7218 H   0  0  0  0  0  0
    6.3745   54.9900   25.7129 H   0  0  0  0  0  0
    4.6296   54.4134   27.8357 H   0  0  0  0  0  0
   -0.4588   51.6589   24.5576 H   0  0  0  0  0  0
    3.5397   54.4693   19.6522 H   0  0  0  0  0  0
    3.3169   51.7567   31.6266 H   0  0  0  0  0  0
   -0.4307   53.5609   30.6416 H   0  0  0  0  0  0
    0.4263   54.1645   28.4320 H   0  0  0  0  0  0
    1.5091   52.2532   33.2862 H   0  0  0  0  0  0
   -0.1253   52.2474   32.6482 H   0  0  0  0  0  0
  1  2  2  0  0  0
  1 19  1  0  0  0
  1  4  1  0  0  0
  2  3  1  0  0  0
  2 28  1  0  0  0
  3  6  2  0  0  0
  3 29  1  0  0  0
  4  5  2  0  0  0
  4 30  1  0  0  0
  5  8  1  0  0  0
  5  6  1  0  0  0
  6  7  1  0  0  0
  7  9  1  0  0  0
  7 31  1  0  0  0
  8  9  2  0  0  0
  8 12  1  0  0  0
  9 10  1  0  0  0
 10 11  2  0  0  0
 10 32  1  0  0  0
 11 13  1  0  0  0
 11 20  1  0  0  0
 12 16  1  0  0  0
 12 13  2  0  0  0
 13 14  1  0  0  0
 14 15  1  0  0  0
 14 17  2  0  0  0
 15 16  1  0  0  0
 15 33  1  0  0  0
 16 18  2  0  0  0
 19 34  1  0  0  0
 20 21  2  0  0  0
 20 25  1  0  0  0
 21 22  1  0  0  0
 21 26  1  0  0  0
 22 23  2  0  0  0
 22 35  1  0  0  0
 23 24  1  0  0  0
 23 27  1  0  0  0
 24 25  2  0  0  0
 24 36  1  0  0  0
 25 37  1  0  0  0
 27 38  1  0  0  0
 27 39  1  0  0  0
M  END
> <s_m_entry_id>
46324

> <s_m_entry_name>
dock_pv.65

> <s_m_Source_Path>
/home/csk/Desktop/cluster/DUD-E-result/wee1

> <s_m_Source_File>
dock_pv.maegz

> <i_m_Source_File_Index>
65

> <chembl_id>
CHEMBL213075

> <chembl_pref_name>
None

> <i_lp_mmshare_version>
53161

> <r_lp_tautomer_probability>
1

> <s_lp_Force_Field>
OPLS_2005

> <r_lp_Energy>
66.862718

> <b_lp_Chiralities_Consistent>
1

> <s_lp_Variant>
CHEMBL5491_lig141-1

> <s_i_glide_gridfile>
glide-grid_3biz

> <i_i_glide_lignum>
144

> <i_i_glide_rotatable_bonds>
2

> <r_i_docking_score>
-8.12245684279653

> <r_i_glide_ligand_efficiency>
-0.30083173491839

> <r_i_glide_ligand_efficiency_sa>
-0.902495203763677

> <r_i_glide_ligand_efficiency_ln>
-1.89077404383641

> <r_i_glide_gscore>
-8.12245684279653

> <r_i_glide_lipo>
-3.363672535484

> <r_i_glide_hbond>
-0.609112942589089

> <r_i_glide_metal>
0

> <r_i_glide_rewards>
-1.10066889769788

> <r_i_glide_evdw>
-37.8222999572754

> <r_i_glide_ecoul>
-8.02411937713623

> <r_i_glide_erotb>
0.135737104143253

> <r_i_glide_esite>
-0.090006666734602

> <r_i_glide_emodel>
-64.0179849288884

> <r_i_glide_energy>
-45.8464193344116

> <r_i_glide_einternal>
1.5054714679718

> <i_i_glide_confnum>
3

> <i_i_glide_posenum>
50

> <r_i_glide_eff_state_penalty>
0

> <s_user_duplicate_titles>
CHEMBL5491_lig141,356007

> <i_f3d_flags>
0

> <s_m_subgroup_title>
dock_pv

> <s_m_subgroupid>
dock_pv

> <b_m_subgroup_collapsed>
1

$$$$
CHEMBL5491_lig267
                    3D
 Schrodinger Suite 2021-1.
 42 46  0  0  1  0            999 V2000
    0.9212   52.2547   21.4979 C   0  0  0  0  0  0
   -0.1485   51.7053   22.1960 C   0  0  0  0  0  0
   -0.2205   51.7514   23.5883 C   0  0  0  0  0  0
    1.9896   52.8377   22.1711 C   0  0  0  0  0  0
    1.9491   52.9235   23.5724 C   0  0  0  0  0  0
    0.8262   52.3916   24.2691 C   0  0  0  0  0  0
    0.9976   52.6651   25.6212 N   0  0  0  0  0  0
    2.8304   53.4653   24.5281 C   0  0  0  0  0  0
    2.1773   53.3789   25.7937 C   0  0  0  0  0  0
    2.7316   53.9554   26.9478 C   0  0  0  0  0  0
    4.0144   54.4929   26.8579 C   0  0  0  0  0  0
    4.1193   54.0451   24.4831 C   0  0  0  0  0  0
    4.6820   54.5132   25.6401 C   0  0  0  0  0  0
    6.0480   54.9877   25.3209 C   0  0  0  0  0  0
    6.2033   54.7805   24.0013 N   0  0  0  0  0  0
    5.1264   54.2405   23.3966 C   0  0  0  0  0  0
    0.9057   52.2452   20.1286 O   0  0  0  0  0  0
    6.8792   55.4623   26.0852 O   0  0  0  0  0  0
    5.0496   53.9605   22.2043 O   0  0  0  0  0  0
    0.0265   52.3758   26.6855 C   0  0  0  0  0  0
    0.5221   51.3159   27.6951 C   0  0  0  0  0  0
    0.6367   51.8746   29.1257 C   0  0  0  0  0  0
    1.9213   51.9956   29.7248 N   0  0  0  0  0  0
   -0.3697   52.2338   29.7328 O   0  0  0  0  0  0
    3.1599   51.8595   29.1518 C   0  0  0  0  0  0
    4.0788   52.0039   30.1674 C   0  0  0  0  0  0
    3.4958   52.2630   31.3179 N   0  0  0  0  0  0
    2.2119   52.2633   31.0450 C   0  0  0  0  0  0
   -0.9531   51.2430   21.6433 H   0  0  0  0  0  0
   -1.0693   51.3269   24.1026 H   0  0  0  0  0  0
    2.8082   53.2576   21.6098 H   0  0  0  0  0  0
    2.2075   53.9641   27.8900 H   0  0  0  0  0  0
    4.4807   54.8895   27.7489 H   0  0  0  0  0  0
    7.0578   55.0020   23.5114 H   0  0  0  0  0  0
    1.6163   52.7645   19.7423 H   0  0  0  0  0  0
   -0.9125   52.0506   26.2369 H   0  0  0  0  0  0
   -0.2079   53.3141   27.1933 H   0  0  0  0  0  0
    1.4283   50.8112   27.3647 H   0  0  0  0  0  0
   -0.2204   50.5185   27.7339 H   0  0  0  0  0  0
    3.2830   51.6339   28.1027 H   0  0  0  0  0  0
    5.1451   51.8715   30.0739 H   0  0  0  0  0  0
    1.4155   52.4428   31.7556 H   0  0  0  0  0  0
  1 17  1  0  0  0
  1  2  2  0  0  0
  1  4  1  0  0  0
  2  3  1  0  0  0
  2 29  1  0  0  0
  3  6  2  0  0  0
  3 30  1  0  0  0
  4  5  2  0  0  0
  4 31  1  0  0  0
  5  8  1  0  0  0
  5  6  1  0  0  0
  6  7  1  0  0  0
  7 20  1  0  0  0
  7  9  1  0  0  0
  8  9  2  0  0  0
  8 12  1  0  0  0
  9 10  1  0  0  0
 10 11  2  0  0  0
 10 32  1  0  0  0
 11 13  1  0  0  0
 11 33  1  0  0  0
 12 16  1  0  0  0
 12 13  2  0  0  0
 13 14  1  0  0  0
 14 15  1  0  0  0
 14 18  2  0  0  0
 15 16  1  0  0  0
 15 34  1  0  0  0
 16 19  2  0  0  0
 17 35  1  0  0  0
 20 21  1  0  0  0
 20 36  1  0  0  0
 20 37  1  0  0  0
 21 22  1  0  0  0
 21 38  1  0  0  0
 21 39  1  0  0  0
 22 23  1  0  0  0
 22 24  2  0  0  0
 23 25  1  0  0  0
 23 28  1  0  0  0
 25 26  2  0  0  0
 25 40  1  0  0  0
 26 27  1  0  0  0
 26 41  1  0  0  0
 27 28  2  0  0  0
 28 42  1  0  0  0
M  END
> <s_m_entry_id>
46325

> <s_m_entry_name>
dock_pv.66

> <s_m_Source_Path>
/home/csk/Desktop/cluster/DUD-E-result/wee1

> <s_m_Source_File>
dock_pv.maegz

> <i_m_Source_File_Index>
66

> <chembl_id>
CHEMBL488571

> <chembl_pref_name>
None

> <i_lp_mmshare_version>
53161

> <r_lp_tautomer_probability>
1

> <s_lp_Force_Field>
OPLS_2005

> <r_lp_Energy>
67.294627

> <b_lp_Chiralities_Consistent>
1

> <s_lp_Variant>
CHEMBL5491_lig267-1

> <s_i_glide_gridfile>
glide-grid_3biz

> <i_i_glide_lignum>
280

> <i_i_glide_rotatable_bonds>
5

> <r_i_docking_score>
-8.11842868255447

> <r_i_glide_ligand_efficiency>
-0.289943881519803

> <r_i_glide_ligand_efficiency_sa>
-0.880440392107921

> <r_i_glide_ligand_efficiency_ln>
-1.8739717073574

> <r_i_glide_gscore>
-8.11842868255447

> <r_i_glide_lipo>
-1.83066049257596

> <r_i_glide_hbond>
-0.48011936294501

> <r_i_glide_metal>
0

> <r_i_glide_rewards>
-2.98518720744145

> <r_i_glide_evdw>
-39.7294921875

> <r_i_glide_ecoul>
-7.85589790344238

> <r_i_glide_erotb>
0.413915328602497

> <r_i_glide_esite>
-0.071517653303194

> <r_i_glide_emodel>
-67.0833646518057

> <r_i_glide_energy>
-47.5853900909424

> <r_i_glide_einternal>
7.60375595092773

> <i_i_glide_confnum>
1

> <i_i_glide_posenum>
301

> <r_i_glide_eff_state_penalty>
0

> <s_user_duplicate_titles>
CHEMBL5491_lig267,523587

> <i_f3d_flags>
0

> <s_m_subgroup_title>
dock_pv

> <s_m_subgroupid>
dock_pv

> <b_m_subgroup_collapsed>
1

$$$$
CHEMBL5491_lig252
                    3D
 Schrodinger Suite 2021-1.
 47 51  0  0  1  0            999 V2000
    2.9483   52.4515   18.7432 C   0  0  0  0  0  0
    1.7712   51.7373   18.9323 C   0  0  0  0  0  0
    1.1900   51.6052   20.1907 C   0  0  0  0  0  0
    3.6030   53.0596   19.8103 C   0  0  0  0  0  0
    3.0595   52.9423   21.1039 C   0  0  0  0  0  0
    1.8425   52.2179   21.2697 C   0  0  0  0  0  0
    1.5132   52.2494   22.6138 N   0  0  0  0  0  0
    3.4920   52.5174   17.4902 O   0  0  0  0  0  0
    3.4691   53.3870   22.3827 C   0  0  0  0  0  0
    2.4790   52.9631   23.3070 C   0  0  0  0  0  0
    2.5851   53.2261   24.6770 C   0  0  0  0  0  0
    3.7373   53.8630   25.1663 C   0  0  0  0  0  0
    3.8559   54.0099   26.6541 C   0  0  0  0  0  0
    2.7215   54.2635   27.4434 C   0  0  0  0  0  0
    2.8279   54.4714   28.8138 C   0  0  0  0  0  0
    4.0798   54.4239   29.4124 C   0  0  0  0  0  0
    5.2094   54.1285   28.6585 C   0  0  0  0  0  0
    5.0834   53.8618   27.3060 C   0  0  0  0  0  0
    4.5909   54.0764   22.8858 C   0  0  0  0  0  0
    4.7287   54.2824   24.2458 C   0  0  0  0  0  0
    6.0395   55.0080   24.4242 C   0  0  0  0  0  0
    6.5674   55.1103   23.1959 N   0  0  0  0  0  0
    5.7816   54.6614   22.2079 C   0  0  0  0  0  0
    6.5731   55.4633   25.4326 O   0  0  0  0  0  0
    6.0452   54.7407   21.0130 O   0  0  0  0  0  0
    0.4105   51.5081   23.2320 C   0  0  0  0  0  0
    0.8620   50.0673   23.5826 C   0  0  0  0  0  0
   -0.1217   49.2632   24.4528 C   0  0  0  0  0  0
   -0.3391   49.9170   25.6870 O   0  0  0  0  0  0
    1.3014   51.2651   18.0827 H   0  0  0  0  0  0
    0.2767   51.0426   20.3133 H   0  0  0  0  0  0
    4.5192   53.5912   19.6217 H   0  0  0  0  0  0
    3.7920   51.6412   17.2123 H   0  0  0  0  0  0
    1.8319   52.8569   25.3567 H   0  0  0  0  0  0
    1.7409   54.3305   26.9972 H   0  0  0  0  0  0
    1.9517   54.6875   29.4099 H   0  0  0  0  0  0
    4.1714   54.6193   30.4723 H   0  0  0  0  0  0
    6.1893   54.1026   29.1105 H   0  0  0  0  0  0
    5.9676   53.5663   26.7641 H   0  0  0  0  0  0
    7.4766   55.5155   23.0292 H   0  0  0  0  0  0
    0.0864   52.0475   24.1227 H   0  0  0  0  0  0
   -0.4482   51.5034   22.5604 H   0  0  0  0  0  0
    1.0400   49.5134   22.6614 H   0  0  0  0  0  0
    1.8274   50.0895   24.0870 H   0  0  0  0  0  0
   -1.0926   49.1851   23.9618 H   0  0  0  0  0  0
    0.2476   48.2519   24.6292 H   0  0  0  0  0  0
   -0.7206   49.2911   26.3216 H   0  0  0  0  0  0
  1  2  2  0  0  0
  1  8  1  0  0  0
  1  4  1  0  0  0
  2  3  1  0  0  0
  2 30  1  0  0  0
  3  6  2  0  0  0
  3 31  1  0  0  0
  4  5  2  0  0  0
  4 32  1  0  0  0
  5  9  1  0  0  0
  5  6  1  0  0  0
  6  7  1  0  0  0
  7 10  1  0  0  0
  7 26  1  0  0  0
  8 33  1  0  0  0
  9 10  2  0  0  0
  9 19  1  0  0  0
 10 11  1  0  0  0
 11 12  2  0  0  0
 11 34  1  0  0  0
 12 13  1  0  0  0
 12 20  1  0  0  0
 13 14  2  0  0  0
 13 18  1  0  0  0
 14 15  1  0  0  0
 14 35  1  0  0  0
 15 16  2  0  0  0
 15 36  1  0  0  0
 16 17  1  0  0  0
 16 37  1  0  0  0
 17 18  2  0  0  0
 17 38  1  0  0  0
 18 39  1  0  0  0
 19 20  2  0  0  0
 19 23  1  0  0  0
 20 21  1  0  0  0
 21 22  1  0  0  0
 21 24  2  0  0  0
 22 23  1  0  0  0
 22 40  1  0  0  0
 23 25  2  0  0  0
 26 27  1  0  0  0
 26 41  1  0  0  0
 26 42  1  0  0  0
 27 28  1  0  0  0
 27 43  1  0  0  0
 27 44  1  0  0  0
 28 29  1  0  0  0
 28 45  1  0  0  0
 28 46  1  0  0  0
 29 47  1  0  0  0
M  END
> <s_m_entry_id>
46326

> <s_m_entry_name>
dock_pv.67

> <s_m_Source_Path>
/home/csk/Desktop/cluster/DUD-E-result/wee1

> <s_m_Source_File>
dock_pv.maegz

> <i_m_Source_File_Index>
67

> <chembl_id>
CHEMBL470117

> <chembl_pref_name>
None

> <i_lp_mmshare_version>
53161

> <r_lp_tautomer_probability>
1

> <s_lp_Force_Field>
OPLS_2005

> <r_lp_Energy>
68.69872

> <b_lp_Chiralities_Consistent>
1

> <s_lp_Variant>
CHEMBL5491_lig252-1

> <s_i_glide_gridfile>
glide-grid_3biz

> <i_i_glide_lignum>
265

> <i_i_glide_rotatable_bonds>
6

> <r_i_docking_score>
-8.08558104361585

> <r_i_glide_ligand_efficiency>
-0.278813139435029

> <r_i_glide_ligand_efficiency_sa>
-0.856602298547057

> <r_i_glide_ligand_efficiency_ln>
-1.85139302634346

> <r_i_glide_gscore>
-8.08558104361585

> <r_i_glide_lipo>
-2.72129889779425

> <r_i_glide_hbond>
-0.337892569777546

> <r_i_glide_metal>
0

> <r_i_glide_rewards>
-2.43715174716551

> <r_i_glide_evdw>
-36.5119323730469

> <r_i_glide_ecoul>
-7.52427768707275

> <r_i_glide_erotb>
0.365000442834711

> <r_i_glide_esite>
0

> <r_i_glide_emodel>
-63.8037806887232

> <r_i_glide_energy>
-44.0362100601196

> <r_i_glide_einternal>
6.73839378356934

> <i_i_glide_confnum>
66

> <i_i_glide_posenum>
257

> <r_i_glide_eff_state_penalty>
0

> <s_user_duplicate_titles>
CHEMBL5491_lig252,451781

> <i_f3d_flags>
0

> <s_m_subgroup_title>
dock_pv

> <s_m_subgroupid>
dock_pv

> <b_m_subgroup_collapsed>
1

$$$$
CHEMBL5491_lig178
                    3D
 Schrodinger Suite 2021-1.
 64 69  0  0  1  0            999 V2000
    4.8288   54.6115   21.0506 C   0  0  0  0  0  0
    6.1007   55.0741   21.3948 C   0  0  0  0  0  0
    6.5299   55.0630   22.7218 C   0  0  0  0  0  0
    3.9472   54.1571   22.0299 C   0  0  0  0  0  0
    4.3228   54.2062   23.3837 C   0  0  0  0  0  0
    5.6276   54.6626   23.7101 C   0  0  0  0  0  0
    5.7385   54.6653   25.0905 N   0  0  0  0  0  0
    3.6752   53.8643   24.5939 C   0  0  0  0  0  0
    4.5765   54.1690   25.6485 C   0  0  0  0  0  0
    4.2622   53.9368   26.9904 C   0  0  0  0  0  0
    3.0583   53.2924   27.2961 C   0  0  0  0  0  0
    2.4336   53.2960   24.9345 C   0  0  0  0  0  0
    2.1627   52.9838   26.2484 C   0  0  0  0  0  0
    0.8790   52.2128   26.2381 C   0  0  0  0  0  0
    0.4476   52.2404   24.9671 N   0  0  0  0  0  0
    1.2775   52.8538   24.1072 C   0  0  0  0  0  0
    2.8327   52.9277   28.7288 C   0  0  0  0  0  0
    1.6721   53.2864   29.4307 C   0  0  0  0  0  0
    1.4865   52.9236   30.7628 C   0  0  0  0  0  0
    2.4981   52.2627   31.4421 C   0  0  0  0  0  0
    3.6844   51.9503   30.7875 C   0  0  0  0  0  0
    3.8420   52.2625   29.4396 C   0  0  0  0  0  0
    0.3137   51.6372   27.1639 O   0  0  0  0  0  0
    1.0802   52.9749   22.9017 O   0  0  0  0  0  0
    4.3841   54.6397   19.7586 O   0  0  0  0  0  0
    0.4782   54.2636   28.7011 Cl  0  0  0  0  0  0
    7.2266   55.8638   20.2346 S   0  0  0  0  0  0
    6.9375   55.2112   18.4718 C   0  0  0  0  0  0
    8.0435   55.7195   17.5224 C   0  0  0  0  0  0
    8.0210   57.2553   17.2935 C   0  0  0  0  0  0
    9.3466   57.8696   17.1849 N   0  0  0  0  0  0
   10.2111   57.6694   18.3430 C   0  0  0  0  0  0
   11.2900   58.7535   18.2632 C   0  0  0  0  0  0
   10.6863   59.8140   17.3419 C   0  0  0  0  0  0
    9.2584   59.3224   17.1082 C   0  0  0  0  0  0
    6.8910   55.0944   25.8661 C   0  0  0  0  0  0
    8.5766   55.4741   20.6433 O   0  0  0  0  0  0
    6.8730   57.2858   20.2792 O   0  0  0  0  0  0
    7.5107   55.4452   22.9718 H   0  0  0  0  0  0
    2.9689   53.8175   21.7350 H   0  0  0  0  0  0
    4.9670   54.1814   27.7707 H   0  0  0  0  0  0
   -0.4095   51.7964   24.6765 H   0  0  0  0  0  0
    0.5808   53.2008   31.2848 H   0  0  0  0  0  0
    2.3675   52.0127   32.4862 H   0  0  0  0  0  0
    4.4818   51.4635   31.3300 H   0  0  0  0  0  0
    4.7663   51.9916   28.9489 H   0  0  0  0  0  0
    3.4312   54.5127   19.6917 H   0  0  0  0  0  0
    5.9630   55.5632   18.1364 H   0  0  0  0  0  0
    6.9210   54.1219   18.5246 H   0  0  0  0  0  0
    7.8903   55.2443   16.5511 H   0  0  0  0  0  0
    9.0167   55.3452   17.8373 H   0  0  0  0  0  0
    7.4314   57.7688   18.0496 H   0  0  0  0  0  0
    7.5055   57.4512   16.3527 H   0  0  0  0  0  0
   10.6537   56.6771   18.2867 H   0  0  0  0  0  0
    9.6675   57.7000   19.2867 H   0  0  0  0  0  0
   12.2190   58.3575   17.8520 H   0  0  0  0  0  0
   11.5083   59.1557   19.2561 H   0  0  0  0  0  0
   10.7015   60.8099   17.7885 H   0  0  0  0  0  0
   11.2272   59.8845   16.3959 H   0  0  0  0  0  0
    8.5485   59.7383   17.8266 H   0  0  0  0  0  0
    8.8638   59.6087   16.1349 H   0  0  0  0  0  0
    7.2756   54.2471   26.4333 H   0  0  0  0  0  0
    7.6740   55.4879   25.2185 H   0  0  0  0  0  0
    6.5791   55.8631   26.5691 H   0  0  0  0  0  0
  1  2  2  0  0  0
  1  4  1  0  0  0
  1 25  1  0  0  0
  2  3  1  0  0  0
  2 27  1  0  0  0
  3  6  2  0  0  0
  3 39  1  0  0  0
  4  5  2  0  0  0
  4 40  1  0  0  0
  5  6  1  0  0  0
  5  8  1  0  0  0
  6  7  1  0  0  0
  7  9  1  0  0  0
  7 36  1  0  0  0
  8  9  2  0  0  0
  8 12  1  0  0  0
  9 10  1  0  0  0
 10 11  2  0  0  0
 10 41  1  0  0  0
 11 13  1  0  0  0
 11 17  1  0  0  0
 12 13  2  0  0  0
 12 16  1  0  0  0
 13 14  1  0  0  0
 14 15  1  0  0  0
 14 23  2  0  0  0
 15 16  1  0  0  0
 15 42  1  0  0  0
 16 24  2  0  0  0
 17 18  2  0  0  0
 17 22  1  0  0  0
 18 19  1  0  0  0
 18 26  1  0  0  0
 19 20  2  0  0  0
 19 43  1  0  0  0
 20 21  1  0  0  0
 20 44  1  0  0  0
 21 22  2  0  0  0
 21 45  1  0  0  0
 22 46  1  0  0  0
 25 47  1  0  0  0
 27 28  1  0  0  0
 27 37  2  0  0  0
 27 38  2  0  0  0
 28 29  1  0  0  0
 28 48  1  0  0  0
 28 49  1  0  0  0
 29 30  1  0  0  0
 29 50  1  0  0  0
 29 51  1  0  0  0
 30 31  1  0  0  0
 30 52  1  0  0  0
 30 53  1  0  0  0
 31 32  1  0  0  0
 31 35  1  0  0  0
 32 33  1  0  0  0
 32 54  1  0  0  0
 32 55  1  0  0  0
 33 34  1  0  0  0
 33 56  1  0  0  0
 33 57  1  0  0  0
 34 35  1  0  0  0
 34 58  1  0  0  0
 34 59  1  0  0  0
 35 60  1  0  0  0
 35 61  1  0  0  0
 36 62  1  0  0  0
 36 63  1  0  0  0
 36 64  1  0  0  0
M  END
> <s_m_entry_id>
46327

> <s_m_entry_name>
dock_pv.68

> <s_m_Source_Path>
/home/csk/Desktop/cluster/DUD-E-result/wee1

> <s_m_Source_File>
dock_pv.maegz

> <i_m_Source_File_Index>
68

> <chembl_id>
CHEMBL257857

> <chembl_pref_name>
None

> <i_lp_mmshare_version>
53161

> <r_lp_tautomer_probability>
1

> <s_lp_Force_Field>
OPLS_2005

> <r_lp_Energy>
87.594588

> <b_lp_Chiralities_Consistent>
1

> <s_lp_Variant>
CHEMBL5491_lig178-1

> <s_i_glide_gridfile>
glide-grid_3biz

> <i_i_glide_lignum>
182

> <i_i_glide_rotatable_bonds>
7

> <r_i_docking_score>
-8.01538594383014

> <r_i_glide_ligand_efficiency>
-0.210931209048162

> <r_i_glide_ligand_efficiency_sa>
-0.709145536486431

> <r_i_glide_ligand_efficiency_ln>
-1.72835299825525

> <r_i_glide_gscore>
-8.01538594383014

> <r_i_glide_lipo>
-3.35754280277666

> <r_i_glide_hbond>
-0.28835691309016

> <r_i_glide_metal>
0

> <r_i_glide_rewards>
-1.02693116544051

> <r_i_glide_evdw>
-46.5895462036133

> <r_i_glide_ecoul>
-7.89901304244995

> <r_i_glide_erotb>
0.269477202023855

> <r_i_glide_esite>
-0.0977029979985067

> <r_i_glide_emodel>
-67.1469091281094

> <r_i_glide_energy>
-54.4885592460632

> <r_i_glide_einternal>
16.2449684143066

> <i_i_glide_confnum>
75

> <i_i_glide_posenum>
238

> <r_i_glide_eff_state_penalty>
0

> <s_user_duplicate_titles>
CHEMBL5491_lig178,436126

> <i_f3d_flags>
0

> <s_m_subgroup_title>
dock_pv

> <s_m_subgroupid>
dock_pv

> <b_m_subgroup_collapsed>
1

$$$$
CHEMBL5491_lig357
                    3D
 Schrodinger Suite 2021-1.
 34 36  0  0  1  0            999 V2000
    5.9592   55.2669   18.0454 F   0  0  0  0  0  0
    4.8501   54.6525   24.6077 N   0  0  0  0  0  0
    2.9600   53.8217   25.6510 N   0  0  0  0  0  0
    6.8772   55.2916   23.5123 N   0  0  0  0  0  0
    4.9118   54.2631   26.9761 N   0  0  0  0  0  0
    6.8789   55.0556   25.8286 N   0  0  0  0  0  0
    1.6921   52.2632   31.2866 N   0  0  0  0  0  0
    4.2777   54.2744   25.7762 C   0  0  0  0  0  0
    6.1600   54.9967   24.6792 C   0  0  0  0  0  0
    2.0820   53.1388   26.5140 C   0  0  0  0  0  0
    6.5766   55.2608   22.1396 C   0  0  0  0  0  0
    6.2049   54.6645   26.9398 C   0  0  0  0  0  0
    2.2243   53.1212   27.9081 C   0  0  0  0  0  0
    1.3440   52.3772   28.7012 C   0  0  0  0  0  0
    5.4304   54.6630   21.5987 C   0  0  0  0  0  0
    7.5177   55.8406   21.2842 C   0  0  0  0  0  0
    1.0296   52.4257   25.9308 C   0  0  0  0  0  0
    6.1631   55.2599   19.3819 C   0  0  0  0  0  0
    5.2264   54.6634   20.2204 C   0  0  0  0  0  0
    7.3102   55.8470   19.9068 C   0  0  0  0  0  0
    0.3002   51.6657   28.1028 C   0  0  0  0  0  0
    0.1417   51.6939   26.7190 C   0  0  0  0  0  0
    1.5349   52.3188   30.1412 C   0  0  0  0  0  0
    2.6583   53.8564   24.6905 H   0  0  0  0  0  0
    7.8622   55.4599   23.6905 H   0  0  0  0  0  0
    6.7414   54.6879   27.8790 H   0  0  0  0  0  0
    3.0180   53.6735   28.3876 H   0  0  0  0  0  0
    4.6937   54.1802   22.2193 H   0  0  0  0  0  0
    8.4273   56.2648   21.6824 H   0  0  0  0  0  0
    0.9022   52.4185   24.8577 H   0  0  0  0  0  0
    4.3436   54.2029   19.8007 H   0  0  0  0  0  0
    8.0411   56.2887   19.2463 H   0  0  0  0  0  0
   -0.3841   51.0724   28.6969 H   0  0  0  0  0  0
   -0.6584   51.1297   26.2601 H   0  0  0  0  0  0
  1 18  1  0  0  0
  2  8  2  0  0  0
  2  9  1  0  0  0
  3  8  1  0  0  0
  3 10  1  0  0  0
  3 24  1  0  0  0
  4  9  1  0  0  0
  4 11  1  0  0  0
  4 25  1  0  0  0
  5  8  1  0  0  0
  5 12  2  0  0  0
  6  9  2  0  0  0
  6 12  1  0  0  0
  7 23  3  0  0  0
 10 13  1  0  0  0
 10 17  2  0  0  0
 11 15  2  0  0  0
 11 16  1  0  0  0
 12 26  1  0  0  0
 13 14  2  0  0  0
 13 27  1  0  0  0
 14 21  1  0  0  0
 14 23  1  0  0  0
 15 19  1  0  0  0
 15 28  1  0  0  0
 16 20  2  0  0  0
 16 29  1  0  0  0
 17 22  1  0  0  0
 17 30  1  0  0  0
 18 19  2  0  0  0
 18 20  1  0  0  0
 19 31  1  0  0  0
 20 32  1  0  0  0
 21 22  2  0  0  0
 21 33  1  0  0  0
 22 34  1  0  0  0
M  END
> <s_m_entry_id>
46328

> <s_m_entry_name>
dock_pv.69

> <s_m_Source_Path>
/home/csk/Desktop/cluster/DUD-E-result/wee1

> <s_m_Source_File>
dock_pv.maegz

> <i_m_Source_File_Index>
69

> <chembl_id>
CHEMBL1974582

> <chembl_pref_name>
None

> <i_lp_mmshare_version>
53161

> <r_lp_tautomer_probability>
0.99999997749453

> <s_lp_Force_Field>
OPLS_2005

> <r_lp_Energy>
2.043648

> <b_lp_Chiralities_Consistent>
1

> <s_lp_Variant>
CHEMBL5491_lig357-1

> <s_i_glide_gridfile>
glide-grid_3biz

> <i_i_glide_lignum>
380

> <i_i_glide_rotatable_bonds>
4

> <r_i_docking_score>
-8.00192046119049

> <r_i_glide_ligand_efficiency>
-0.347909585269152

> <r_i_glide_ligand_efficiency_sa>
-0.989408580486698

> <r_i_glide_ligand_efficiency_ln>
-1.93493692491906

> <r_i_glide_gscore>
-8.00192046119049

> <r_i_glide_lipo>
-1.48545719828475

> <r_i_glide_hbond>
-0.663213542459124

> <r_i_glide_metal>
0

> <r_i_glide_rewards>
-3.66270927681021

> <r_i_glide_evdw>
-38.5872840881348

> <r_i_glide_ecoul>
-5.26237154006958

> <r_i_glide_erotb>
0.551235782551471

> <r_i_glide_esite>
-0.023056290770703

> <r_i_glide_emodel>
-64.7702817397488

> <r_i_glide_energy>
-43.8496556282043

> <r_i_glide_einternal>
1.35292053222656

> <i_i_glide_confnum>
25

> <i_i_glide_posenum>
264

> <r_i_glide_eff_state_penalty>
0

> <s_user_duplicate_titles>
CHEMBL5491_lig357

> <i_f3d_flags>
0

> <s_m_subgroup_title>
dock_pv

> <s_m_subgroupid>
dock_pv

> <b_m_subgroup_collapsed>
1

$$$$
CHEMBL5491_lig134
                    3D
 Schrodinger Suite 2021-1.
 41 45  0  0  1  0            999 V2000
    5.7762   54.7975   19.8843 C   0  0  0  0  0  0
    6.9132   55.4630   20.3353 C   0  0  0  0  0  0
    7.1985   55.5823   21.6956 C   0  0  0  0  0  0
    4.8525   54.2633   20.7814 C   0  0  0  0  0  0
    5.0665   54.4216   22.1621 C   0  0  0  0  0  0
    6.2607   55.0617   22.5956 C   0  0  0  0  0  0
    6.2457   55.0629   23.9767 N   0  0  0  0  0  0
    4.3052   54.1113   23.3185 C   0  0  0  0  0  0
    5.0489   54.5551   24.4477 C   0  0  0  0  0  0
    4.5593   54.4459   25.7579 C   0  0  0  0  0  0
    3.2969   53.8624   25.9599 C   0  0  0  0  0  0
    3.0531   53.5081   23.5562 C   0  0  0  0  0  0
    2.5725   53.4006   24.8433 C   0  0  0  0  0  0
    1.2811   52.6480   24.7506 C   0  0  0  0  0  0
    1.0852   52.4174   23.4432 N   0  0  0  0  0  0
    2.0771   52.8442   22.6474 C   0  0  0  0  0  0
    0.5335   52.2630   25.6448 O   0  0  0  0  0  0
    2.1312   52.6630   21.4351 O   0  0  0  0  0  0
    5.5686   54.6685   18.5375 O   0  0  0  0  0  0
    2.8181   53.6558   27.3615 C   0  0  0  0  0  0
    3.6354   52.9889   28.2824 C   0  0  0  0  0  0
    3.1676   52.6820   29.5570 C   0  0  0  0  0  0
    1.8690   53.0443   29.9342 C   0  0  0  0  0  0
    1.0743   53.7671   29.0479 C   0  0  0  0  0  0
    1.5483   54.0742   27.7787 C   0  0  0  0  0  0
    1.2790   52.6629   31.2877 C   0  0  0  0  0  0
    2.1261   51.8629   32.0870 O   0  0  0  0  0  0
    7.6089   55.8624   19.6121 H   0  0  0  0  0  0
    8.0979   56.0758   22.0326 H   0  0  0  0  0  0
    3.9646   53.7814   20.4052 H   0  0  0  0  0  0
    6.9868   55.4378   24.5500 H   0  0  0  0  0  0
    5.1423   54.7879   26.6007 H   0  0  0  0  0  0
    0.2936   51.9011   23.0950 H   0  0  0  0  0  0
    4.8048   54.1287   18.3161 H   0  0  0  0  0  0
    4.6229   52.6592   27.9925 H   0  0  0  0  0  0
    3.8115   52.1417   30.2349 H   0  0  0  0  0  0
    0.0766   54.0659   29.3318 H   0  0  0  0  0  0
    0.8862   54.6012   27.1122 H   0  0  0  0  0  0
    0.3473   52.1174   31.1269 H   0  0  0  0  0  0
    0.9971   53.5644   31.8317 H   0  0  0  0  0  0
    2.0790   52.1732   33.0081 H   0  0  0  0  0  0
  1  2  2  0  0  0
  1 19  1  0  0  0
  1  4  1  0  0  0
  2  3  1  0  0  0
  2 28  1  0  0  0
  3  6  2  0  0  0
  3 29  1  0  0  0
  4  5  2  0  0  0
  4 30  1  0  0  0
  5  8  1  0  0  0
  5  6  1  0  0  0
  6  7  1  0  0  0
  7  9  1  0  0  0
  7 31  1  0  0  0
  8  9  2  0  0  0
  8 12  1  0  0  0
  9 10  1  0  0  0
 10 11  2  0  0  0
 10 32  1  0  0  0
 11 13  1  0  0  0
 11 20  1  0  0  0
 12 16  1  0  0  0
 12 13  2  0  0  0
 13 14  1  0  0  0
 14 15  1  0  0  0
 14 17  2  0  0  0
 15 16  1  0  0  0
 15 33  1  0  0  0
 16 18  2  0  0  0
 19 34  1  0  0  0
 20 21  2  0  0  0
 20 25  1  0  0  0
 21 22  1  0  0  0
 21 35  1  0  0  0
 22 23  2  0  0  0
 22 36  1  0  0  0
 23 24  1  0  0  0
 23 26  1  0  0  0
 24 25  2  0  0  0
 24 37  1  0  0  0
 25 38  1  0  0  0
 26 27  1  0  0  0
 26 39  1  0  0  0
 26 40  1  0  0  0
 27 41  1  0  0  0
M  END
> <s_m_entry_id>
46329

> <s_m_entry_name>
dock_pv.70

> <s_m_Source_Path>
/home/csk/Desktop/cluster/DUD-E-result/wee1

> <s_m_Source_File>
dock_pv.maegz

> <i_m_Source_File_Index>
70

> <chembl_id>
CHEMBL215762

> <chembl_pref_name>
None

> <i_lp_mmshare_version>
53161

> <r_lp_tautomer_probability>
1

> <s_lp_Force_Field>
OPLS_2005

> <r_lp_Energy>
65.20568

> <b_lp_Chiralities_Consistent>
1

> <s_lp_Variant>
CHEMBL5491_lig134-1

> <s_i_glide_gridfile>
glide-grid_3biz

> <i_i_glide_lignum>
136

> <i_i_glide_rotatable_bonds>
4

> <r_i_docking_score>
-7.9283756369187

> <r_i_glide_ligand_efficiency>
-0.2936435421081

> <r_i_glide_ligand_efficiency_sa>
-0.880930625356499

> <r_i_glide_ligand_efficiency_ln>
-1.8455951387868

> <r_i_glide_gscore>
-7.9283756369187

> <r_i_glide_lipo>
-3.39833656409827

> <r_i_glide_hbond>
-0.505885576265472

> <r_i_glide_metal>
0

> <r_i_glide_rewards>
-1.42666221399821

> <r_i_glide_evdw>
-36.8840408325195

> <r_i_glide_ecoul>
-7.01080083847046

> <r_i_glide_erotb>
0.298330884839798

> <r_i_glide_esite>
0

> <r_i_glide_emodel>
-62.8319817345559

> <r_i_glide_energy>
-43.89484167099

> <r_i_glide_einternal>
0.578313887119293

> <i_i_glide_confnum>
3

> <i_i_glide_posenum>
83

> <r_i_glide_eff_state_penalty>
0

> <s_user_duplicate_titles>
CHEMBL5491_lig134

> <i_f3d_flags>
0

> <s_m_subgroup_title>
dock_pv

> <s_m_subgroupid>
dock_pv

> <b_m_subgroup_collapsed>
1

$$$$
CHEMBL5491_lig362
                    3D
 Schrodinger Suite 2021-1.
 43 46  0  0  1  0            999 V2000
    6.4796   54.9734   23.8154 N   0  0  0  0  0  0
    6.8186   55.8037   18.9884 N   0  0  0  0  0  0
    4.6425   54.3590   25.2334 N   0  0  0  0  0  0
    6.0842   55.3928   17.9396 N   0  0  0  0  0  0
    6.8788   54.6717   26.0715 N   0  0  0  0  0  0
    2.8793   53.6622   26.5947 N   0  0  0  0  0  0
    6.3379   55.3095   20.1859 C   0  0  0  0  0  0
    5.2199   54.5153   19.8368 C   0  0  0  0  0  0
    6.0369   54.7976   22.4979 C   0  0  0  0  0  0
    6.7667   55.4634   21.5079 C   0  0  0  0  0  0
    5.9608   54.6555   25.0751 C   0  0  0  0  0  0
    4.5092   53.8518   20.8440 C   0  0  0  0  0  0
    4.9305   54.0043   22.1656 C   0  0  0  0  0  0
    4.2368   53.9907   26.4753 C   0  0  0  0  0  0
    5.1346   54.6323   18.4176 C   0  0  0  0  0  0
    5.1325   53.9374   27.5531 C   0  0  0  0  0  0
    6.4559   54.2905   27.3001 C   0  0  0  0  0  0
    2.2807   53.2194   27.8513 C   0  0  0  0  0  0
    1.9227   54.4312   28.7355 C   0  0  0  0  0  0
    1.0087   52.3998   27.5636 C   0  0  0  0  0  0
    1.3693   53.9404   30.0870 C   0  0  0  0  0  0
    0.4209   51.8612   28.8834 C   0  0  0  0  0  0
    0.1785   52.9682   29.9348 C   0  0  0  0  0  0
    7.4460   55.2633   23.8620 H   0  0  0  0  0  0
    7.6230   56.3960   18.8413 H   0  0  0  0  0  0
    2.2794   53.8519   25.8046 H   0  0  0  0  0  0
    7.6321   56.0640   21.7516 H   0  0  0  0  0  0
    3.6539   53.2378   20.6016 H   0  0  0  0  0  0
    4.3832   53.4781   22.9314 H   0  0  0  0  0  0
    4.4079   54.1707   17.7632 H   0  0  0  0  0  0
    4.8350   53.6460   28.5478 H   0  0  0  0  0  0
    7.1985   54.2623   28.0838 H   0  0  0  0  0  0
    2.9972   52.5870   28.3778 H   0  0  0  0  0  0
    2.7989   55.0566   28.9092 H   0  0  0  0  0  0
    1.1878   55.0639   28.2362 H   0  0  0  0  0  0
    0.2620   53.0108   27.0527 H   0  0  0  0  0  0
    1.2327   51.5633   26.8993 H   0  0  0  0  0  0
    2.1691   53.4435   30.6406 H   0  0  0  0  0  0
    1.0710   54.7937   30.6988 H   0  0  0  0  0  0
    1.1092   51.1179   29.2886 H   0  0  0  0  0  0
   -0.5106   51.3255   28.6889 H   0  0  0  0  0  0
   -0.0479   52.5113   30.9003 H   0  0  0  0  0  0
   -0.7105   53.5351   29.6707 H   0  0  0  0  0  0
  1  9  1  0  0  0
  1 11  1  0  0  0
  1 24  1  0  0  0
  2  4  1  0  0  0
  2  7  1  0  0  0
  2 25  1  0  0  0
  3 11  2  0  0  0
  3 14  1  0  0  0
  4 15  2  0  0  0
  5 11  1  0  0  0
  5 17  2  0  0  0
  6 14  1  0  0  0
  6 18  1  0  0  0
  6 26  1  0  0  0
  7  8  1  0  0  0
  7 10  2  0  0  0
  8 12  2  0  0  0
  8 15  1  0  0  0
  9 10  1  0  0  0
  9 13  2  0  0  0
 10 27  1  0  0  0
 12 13  1  0  0  0
 12 28  1  0  0  0
 13 29  1  0  0  0
 14 16  2  0  0  0
 15 30  1  0  0  0
 16 17  1  0  0  0
 16 31  1  0  0  0
 17 32  1  0  0  0
 18 19  1  0  0  0
 18 20  1  0  0  0
 18 33  1  0  0  0
 19 21  1  0  0  0
 19 34  1  0  0  0
 19 35  1  0  0  0
 20 22  1  0  0  0
 20 36  1  0  0  0
 20 37  1  0  0  0
 21 23  1  0  0  0
 21 38  1  0  0  0
 21 39  1  0  0  0
 22 23  1  0  0  0
 22 40  1  0  0  0
 22 41  1  0  0  0
 23 42  1  0  0  0
 23 43  1  0  0  0
M  END
> <s_m_entry_id>
46330

> <s_m_entry_name>
dock_pv.71

> <s_m_Source_Path>
/home/csk/Desktop/cluster/DUD-E-result/wee1

> <s_m_Source_File>
dock_pv.maegz

> <i_m_Source_File_Index>
71

> <chembl_id>
CHEMBL1968015

> <chembl_pref_name>
None

> <i_lp_mmshare_version>
53161

> <r_lp_tautomer_probability>
0.999999624730965

> <s_lp_Force_Field>
OPLS_2005

> <r_lp_Energy>
9.121397

> <b_lp_Chiralities_Consistent>
1

> <s_lp_Variant>
CHEMBL5491_lig362-1

> <s_i_glide_gridfile>
glide-grid_3biz

> <i_i_glide_lignum>
387

> <i_i_glide_rotatable_bonds>
4

> <r_i_docking_score>
-7.88514199287279

> <r_i_glide_ligand_efficiency>
-0.342832260559686

> <r_i_glide_ligand_efficiency_sa>
-0.974969344414557

> <r_i_glide_ligand_efficiency_ln>
-1.90669883239123

> <r_i_glide_gscore>
-7.88514199287279

> <r_i_glide_lipo>
-2.73290840322043

> <r_i_glide_hbond>
-0.446820537299011

> <r_i_glide_metal>
0

> <r_i_glide_rewards>
-2.62839595555015

> <r_i_glide_evdw>
-41.9815521240234

> <r_i_glide_ecoul>
-3.48437905311584

> <r_i_glide_erotb>
0.544717367365354

> <r_i_glide_esite>
0

> <r_i_glide_emodel>
-63.6976415992027

> <r_i_glide_energy>
-45.4659311771393

> <r_i_glide_einternal>
4.47838020324707

> <i_i_glide_confnum>
31

> <i_i_glide_posenum>
350

> <r_i_glide_eff_state_penalty>
0

> <s_user_duplicate_titles>
CHEMBL5491_lig362

> <i_f3d_flags>
0

> <s_m_subgroup_title>
dock_pv

> <s_m_subgroupid>
dock_pv

> <b_m_subgroup_collapsed>
1

$$$$
CHEMBL5491_lig139
                    3D
 Schrodinger Suite 2021-1.
 39 43  0  0  1  0            999 V2000
    4.9199   54.6016   21.1718 C   0  0  0  0  0  0
    6.1524   55.0630   21.6208 C   0  0  0  0  0  0
    6.4791   55.0747   22.9759 C   0  0  0  0  0  0
    3.9500   54.1606   22.0694 C   0  0  0  0  0  0
    4.2217   54.2051   23.4485 C   0  0  0  0  0  0
    5.4956   54.6630   23.8789 C   0  0  0  0  0  0
    5.4931   54.6622   25.2563 N   0  0  0  0  0  0
    3.4849   53.8630   24.6055 C   0  0  0  0  0  0
    4.2856   54.1993   25.7300 C   0  0  0  0  0  0
    3.8472   54.0187   27.0452 C   0  0  0  0  0  0
    2.6015   53.4092   27.2548 C   0  0  0  0  0  0
    2.2329   53.2664   24.8465 C   0  0  0  0  0  0
    1.8292   53.0232   26.1403 C   0  0  0  0  0  0
    0.5424   52.2629   26.0426 C   0  0  0  0  0  0
    0.2656   52.1774   24.7316 N   0  0  0  0  0  0
    1.1827   52.7397   23.9301 C   0  0  0  0  0  0
   -0.1589   51.7962   26.9343 O   0  0  0  0  0  0
    1.1243   52.7699   22.7047 O   0  0  0  0  0  0
    4.6524   54.6031   19.8293 O   0  0  0  0  0  0
    2.1750   53.1495   28.6596 C   0  0  0  0  0  0
    0.8834   53.4756   29.0869 C   0  0  0  0  0  0
    0.4533   53.1256   30.3597 C   0  0  0  0  0  0
    1.3311   52.5055   31.2373 C   0  0  0  0  0  0
    2.6509   52.2630   30.8681 C   0  0  0  0  0  0
    3.0641   52.5662   29.5736 C   0  0  0  0  0  0
    0.8790   52.1048   32.4868 N   0  0  0  0  0  0
    6.8804   55.4051   20.9000 H   0  0  0  0  0  0
    7.4332   55.4505   23.3073 H   0  0  0  0  0  0
    2.9988   53.8251   21.6925 H   0  0  0  0  0  0
    6.2642   54.9541   25.8369 H   0  0  0  0  0  0
    4.4712   54.3001   27.8813 H   0  0  0  0  0  0
   -0.5535   51.7069   24.3814 H   0  0  0  0  0  0
    3.7489   54.3458   19.6252 H   0  0  0  0  0  0
    0.1870   53.9521   28.4127 H   0  0  0  0  0  0
   -0.5632   53.3239   30.6562 H   0  0  0  0  0  0
    3.3433   51.8179   31.5674 H   0  0  0  0  0  0
    4.0742   52.3256   29.2756 H   0  0  0  0  0  0
   -0.1236   52.1294   32.6680 H   0  0  0  0  0  0
    1.5245   52.2068   33.2683 H   0  0  0  0  0  0
  1  2  2  0  0  0
  1 19  1  0  0  0
  1  4  1  0  0  0
  2  3  1  0  0  0
  2 27  1  0  0  0
  3  6  2  0  0  0
  3 28  1  0  0  0
  4  5  2  0  0  0
  4 29  1  0  0  0
  5  8  1  0  0  0
  5  6  1  0  0  0
  6  7  1  0  0  0
  7  9  1  0  0  0
  7 30  1  0  0  0
  8  9  2  0  0  0
  8 12  1  0  0  0
  9 10  1  0  0  0
 10 11  2  0  0  0
 10 31  1  0  0  0
 11 13  1  0  0  0
 11 20  1  0  0  0
 12 13  2  0  0  0
 12 16  1  0  0  0
 13 14  1  0  0  0
 14 15  1  0  0  0
 14 17  2  0  0  0
 15 16  1  0  0  0
 15 32  1  0  0  0
 16 18  2  0  0  0
 19 33  1  0  0  0
 20 21  2  0  0  0
 20 25  1  0  0  0
 21 22  1  0  0  0
 21 34  1  0  0  0
 22 23  2  0  0  0
 22 35  1  0  0  0
 23 24  1  0  0  0
 23 26  1  0  0  0
 24 25  2  0  0  0
 24 36  1  0  0  0
 25 37  1  0  0  0
 26 38  1  0  0  0
 26 39  1  0  0  0
M  END
> <s_m_entry_id>
46331

> <s_m_entry_name>
dock_pv.72

> <s_m_Source_Path>
/home/csk/Desktop/cluster/DUD-E-result/wee1

> <s_m_Source_File>
dock_pv.maegz

> <i_m_Source_File_Index>
72

> <chembl_id>
CHEMBL211929

> <chembl_pref_name>
None

> <i_lp_mmshare_version>
53161

> <r_lp_tautomer_probability>
1

> <s_lp_Force_Field>
OPLS_2005

> <r_lp_Energy>
66.135051

> <b_lp_Chiralities_Consistent>
1

> <s_lp_Variant>
CHEMBL5491_lig139-1

> <s_i_glide_gridfile>
glide-grid_3biz

> <i_i_glide_lignum>
142

> <i_i_glide_rotatable_bonds>
2

> <r_i_docking_score>
-7.88205040203235

> <r_i_glide_ligand_efficiency>
-0.303155784693552

> <r_i_glide_ligand_efficiency_sa>
-0.898097819294236

> <r_i_glide_ligand_efficiency_ln>
-1.85107367380044

> <r_i_glide_gscore>
-7.88205040203235

> <r_i_glide_lipo>
-3.31299885045547

> <r_i_glide_hbond>
-0.471262275125784

> <r_i_glide_metal>
0

> <r_i_glide_rewards>
-1.2932020955692

> <r_i_glide_evdw>
-36.0874900817871

> <r_i_glide_ecoul>
-7.12567710876465

> <r_i_glide_erotb>
0.160958835019179

> <r_i_glide_esite>
-0.0923199454970217

> <r_i_glide_emodel>
-60.2289032080064

> <r_i_glide_energy>
-43.2131671905518

> <r_i_glide_einternal>
1.53233432769775

> <i_i_glide_confnum>
4

> <i_i_glide_posenum>
35

> <r_i_glide_eff_state_penalty>
0

> <s_user_duplicate_titles>
CHEMBL5491_lig139,355914

> <i_f3d_flags>
0

> <s_m_subgroup_title>
dock_pv

> <s_m_subgroupid>
dock_pv

> <b_m_subgroup_collapsed>
1

$$$$
CHEMBL5491_lig242
                    3D
 Schrodinger Suite 2021-1.
 48 52  0  0  1  0            999 V2000
   -1.0165   51.6813   29.0080 C   0  0  0  0  0  0
   -0.3210   52.3117   30.0330 C   0  0  0  0  0  0
    0.8025   53.0853   29.7847 C   0  0  0  0  0  0
   -0.5495   51.7118   27.6988 C   0  0  0  0  0  0
    0.6040   52.4589   27.4032 C   0  0  0  0  0  0
    1.2481   53.1575   28.4578 C   0  0  0  0  0  0
    2.3070   53.8578   27.9142 N   0  0  0  0  0  0
   -2.2045   51.0630   29.2870 O   0  0  0  0  0  0
    1.3382   52.7040   26.2204 C   0  0  0  0  0  0
    2.3908   53.5990   26.5499 C   0  0  0  0  0  0
    3.2857   54.0807   25.5786 C   0  0  0  0  0  0
    3.2169   53.5826   24.2643 C   0  0  0  0  0  0
    4.2377   54.0400   23.2406 C   0  0  0  0  0  0
    5.6169   54.2646   23.4961 C   0  0  0  0  0  0
    6.4770   54.7022   22.4870 C   0  0  0  0  0  0
    6.0135   54.8994   21.1931 C   0  0  0  0  0  0
    4.6775   54.6630   20.9108 C   0  0  0  0  0  0
    3.8076   54.2874   21.9312 C   0  0  0  0  0  0
    1.2428   52.2639   24.8882 C   0  0  0  0  0  0
    2.1802   52.6630   23.9586 C   0  0  0  0  0  0
    1.9013   51.8398   22.7318 C   0  0  0  0  0  0
    0.7663   51.1716   22.9795 N   0  0  0  0  0  0
    0.2830   51.3435   24.2154 C   0  0  0  0  0  0
    2.5473   51.7295   21.6940 O   0  0  0  0  0  0
   -0.7342   50.8137   24.6494 O   0  0  0  0  0  0
    3.2018   54.7009   28.7062 C   0  0  0  0  0  0
    4.3594   53.9328   29.3913 C   0  0  1  0  0  0
    6.3649   54.0715   25.0332 Cl  0  0  0  0  0  0
    3.8976   52.7974   30.1047 O   0  0  0  0  0  0
    5.4748   53.5116   28.4170 C   0  0  0  0  0  0
    6.1636   54.6630   27.9722 O   0  0  0  0  0  0
   -0.7027   52.2469   31.0424 H   0  0  0  0  0  0
    1.2892   53.6115   30.5929 H   0  0  0  0  0  0
   -1.1000   51.1824   26.9408 H   0  0  0  0  0  0
   -2.1995   50.1248   29.0429 H   0  0  0  0  0  0
    4.0357   54.8053   25.8532 H   0  0  0  0  0  0
    7.5204   54.8794   22.7027 H   0  0  0  0  0  0
    6.6876   55.2213   20.4128 H   0  0  0  0  0  0
    4.2962   54.8158   19.9112 H   0  0  0  0  0  0
    2.7625   54.1954   21.6870 H   0  0  0  0  0  0
    0.3421   50.5515   22.3084 H   0  0  0  0  0  0
    3.6046   55.4630   28.0533 H   0  0  0  0  0  0
    2.6071   55.2383   29.4465 H   0  0  0  0  0  0
    4.7961   54.6140   30.1240 H   0  0  0  0  0  0
    3.2891   53.0954   30.7879 H   0  0  0  0  0  0
    6.1890   52.8377   28.8870 H   0  0  0  0  0  0
    5.0686   52.9572   27.5703 H   0  0  0  0  0  0
    6.7141   55.0162   28.6851 H   0  0  0  0  0  0
  1  2  2  0  0  0
  1  8  1  0  0  0
  1  4  1  0  0  0
  2  3  1  0  0  0
  2 32  1  0  0  0
  3  6  2  0  0  0
  3 33  1  0  0  0
  4  5  2  0  0  0
  4 34  1  0  0  0
  5  9  1  0  0  0
  5  6  1  0  0  0
  6  7  1  0  0  0
  7 10  1  0  0  0
  7 26  1  0  0  0
  8 35  1  0  0  0
  9 10  2  0  0  0
  9 19  1  0  0  0
 10 11  1  0  0  0
 11 12  2  0  0  0
 11 36  1  0  0  0
 12 13  1  0  0  0
 12 20  1  0  0  0
 13 18  1  0  0  0
 13 14  2  0  0  0
 14 15  1  0  0  0
 14 28  1  0  0  0
 15 16  2  0  0  0
 15 37  1  0  0  0
 16 17  1  0  0  0
 16 38  1  0  0  0
 17 18  2  0  0  0
 17 39  1  0  0  0
 18 40  1  0  0  0
 19 20  2  0  0  0
 19 23  1  0  0  0
 20 21  1  0  0  0
 21 22  1  0  0  0
 21 24  2  0  0  0
 22 23  1  0  0  0
 22 41  1  0  0  0
 23 25  2  0  0  0
 26 27  1  0  0  0
 26 42  1  0  0  0
 26 43  1  0  0  0
 27 29  1  0  0  0
 27 30  1  0  0  0
 27 44  1  0  0  0
 29 45  1  0  0  0
 30 31  1  0  0  0
 30 46  1  0  0  0
 30 47  1  0  0  0
 31 48  1  0  0  0
M  END
> <s_m_entry_id>
46332

> <s_m_entry_name>
dock_pv.73

> <s_m_Source_Path>
/home/csk/Desktop/cluster/DUD-E-result/wee1

> <s_m_Source_File>
dock_pv.maegz

> <i_m_Source_File_Index>
73

> <chembl_id>
CHEMBL520904

> <chembl_pref_name>
None

> <i_lp_mmshare_version>
53161

> <r_lp_tautomer_probability>
1

> <s_lp_Force_Field>
OPLS_2005

> <r_lp_Energy>
74.258928

> <b_lp_Chiralities_Consistent>
1

> <s_lp_Variant>
CHEMBL5491_lig242-2

> <s_i_glide_gridfile>
glide-grid_3biz

> <i_i_glide_lignum>
255

> <i_i_glide_rotatable_bonds>
7

> <r_i_docking_score>
-7.87979999867366

> <r_i_glide_ligand_efficiency>
-0.254187096731408

> <r_i_glide_ligand_efficiency_sa>
-0.798498426845574

> <r_i_glide_ligand_efficiency_ln>
-1.77713638656939

> <r_i_glide_gscore>
-7.87979999867366

> <r_i_glide_lipo>
-3.52861906859079

> <r_i_glide_hbond>
-0.456960635831874

> <r_i_glide_metal>
0

> <r_i_glide_rewards>
-0.908565151128894

> <r_i_glide_evdw>
-35.5626106262207

> <r_i_glide_ecoul>
-10.8063926696777

> <r_i_glide_erotb>
0.417879698230842

> <r_i_glide_esite>
-0.00444540959024732

> <r_i_glide_emodel>
-61.805707524733

> <r_i_glide_energy>
-46.3690032958984

> <r_i_glide_einternal>
13.9271574020386

> <i_i_glide_confnum>
60

> <i_i_glide_posenum>
166

> <r_i_glide_eff_state_penalty>
0

> <s_user_duplicate_titles>
CHEMBL5491_lig242,451913

> <i_f3d_flags>
0

> <s_m_subgroup_title>
dock_pv

> <s_m_subgroupid>
dock_pv

> <b_m_subgroup_collapsed>
1

$$$$
CHEMBL5491_lig12
                    3D
 Schrodinger Suite 2021-1.
 44 46  0  0  1  0            999 V2000
    0.0404   52.2563   21.2864 O   0  0  0  0  0  0
    6.8788   55.2657   25.7380 O   0  0  0  0  0  0
    4.1269   53.9665   22.8037 N   0  0  0  0  0  0
    4.4532   54.2639   21.5283 N   0  0  0  0  0  0
    1.9945   53.0624   22.0867 N   0  0  0  0  0  0
    2.4741   53.2568   24.3229 N   0  0  0  0  0  0
    5.1928   53.9153   24.9981 N   0  0  0  0  0  0
    5.2015   54.2210   23.6463 C   0  0  0  0  0  0
    2.8540   53.4322   23.0942 C   0  0  0  0  0  0
    5.6794   54.7318   21.5368 C   0  0  0  0  0  0
    6.2048   54.7185   22.8282 C   0  0  0  0  0  0
    0.7796   52.4924   22.2317 C   0  0  0  0  0  0
    1.2709   52.6679   24.5951 C   0  0  0  0  0  0
    0.4237   52.2867   23.6153 C   0  0  0  0  0  0
    6.0715   54.3527   25.9146 C   0  0  0  0  0  0
    6.3312   55.1740   20.2510 C   0  0  0  0  0  0
    6.0320   53.6205   27.2587 C   0  0  0  0  0  0
    0.9514   52.5782   26.0718 C   0  0  0  0  0  0
    5.3368   54.4072   28.3939 C   0  0  0  0  0  0
    3.9081   53.9841   28.7477 C   0  0  0  0  0  0
    3.5826   52.6339   28.9131 C   0  0  0  0  0  0
    2.9278   54.9569   28.9712 C   0  0  0  0  0  0
    2.2889   52.2613   29.2707 C   0  0  0  0  0  0
    1.6358   54.5878   29.3381 C   0  0  0  0  0  0
    1.3232   53.2395   29.4892 C   0  0  0  0  0  0
    2.2382   53.2694   21.1304 H   0  0  0  0  0  0
    4.4065   53.3648   25.3158 H   0  0  0  0  0  0
    7.1991   55.0186   23.1287 H   0  0  0  0  0  0
   -0.5334   51.8453   23.8361 H   0  0  0  0  0  0
    7.3596   55.4996   20.4094 H   0  0  0  0  0  0
    6.3612   54.3666   19.5180 H   0  0  0  0  0  0
    5.7942   56.0053   19.7928 H   0  0  0  0  0  0
    7.0702   53.4341   27.5394 H   0  0  0  0  0  0
    5.6011   52.6292   27.1312 H   0  0  0  0  0  0
   -0.1221   52.6617   26.2424 H   0  0  0  0  0  0
    1.2797   51.6194   26.4708 H   0  0  0  0  0  0
    1.4387   53.3771   26.6323 H   0  0  0  0  0  0
    5.3463   55.4630   28.1524 H   0  0  0  0  0  0
    5.9475   54.3321   29.2870 H   0  0  0  0  0  0
    4.3284   51.8640   28.7766 H   0  0  0  0  0  0
    3.1666   56.0050   28.8873 H   0  0  0  0  0  0
    2.0335   51.2171   29.3717 H   0  0  0  0  0  0
    0.8807   55.3389   29.5203 H   0  0  0  0  0  0
    0.3225   52.9516   29.7755 H   0  0  0  0  0  0
  1 12  2  0  0  0
  2 15  2  0  0  0
  3  4  1  0  0  0
  3  8  1  0  0  0
  3  9  1  0  0  0
  4 10  2  0  0  0
  5  9  1  0  0  0
  5 12  1  0  0  0
  5 26  1  0  0  0
  6  9  2  0  0  0
  6 13  1  0  0  0
  7  8  1  0  0  0
  7 15  1  0  0  0
  7 27  1  0  0  0
  8 11  2  0  0  0
 10 11  1  0  0  0
 10 16  1  0  0  0
 11 28  1  0  0  0
 12 14  1  0  0  0
 13 14  2  0  0  0
 13 18  1  0  0  0
 14 29  1  0  0  0
 15 17  1  0  0  0
 16 30  1  0  0  0
 16 31  1  0  0  0
 16 32  1  0  0  0
 17 19  1  0  0  0
 17 33  1  0  0  0
 17 34  1  0  0  0
 18 35  1  0  0  0
 18 36  1  0  0  0
 18 37  1  0  0  0
 19 20  1  0  0  0
 19 38  1  0  0  0
 19 39  1  0  0  0
 20 21  2  0  0  0
 20 22  1  0  0  0
 21 23  1  0  0  0
 21 40  1  0  0  0
 22 24  2  0  0  0
 22 41  1  0  0  0
 23 25  2  0  0  0
 23 42  1  0  0  0
 24 25  1  0  0  0
 24 43  1  0  0  0
 25 44  1  0  0  0
M  END
> <s_m_entry_id>
46333

> <s_m_entry_name>
dock_pv.74

> <s_m_Source_Path>
/home/csk/Desktop/cluster/DUD-E-result/wee1

> <s_m_Source_File>
dock_pv.maegz

> <i_m_Source_File_Index>
74

> <chembl_id>
CHEMBL1731310

> <chembl_pref_name>
None

> <i_lp_mmshare_version>
53161

> <r_lp_tautomer_probability>
1

> <s_lp_Force_Field>
OPLS_2005

> <r_lp_Energy>
25.28171

> <b_lp_Chiralities_Consistent>
1

> <s_lp_Variant>
CHEMBL5491_lig12-1

> <s_i_glide_gridfile>
glide-grid_3biz

> <i_i_glide_lignum>
12

> <i_i_glide_rotatable_bonds>
6

> <r_i_docking_score>
-7.8702419992822

> <r_i_glide_ligand_efficiency>
-0.314809679971288

> <r_i_glide_ligand_efficiency_sa>
-0.920509087409493

> <r_i_glide_ligand_efficiency_ln>
-1.8654832059505

> <r_i_glide_gscore>
-7.8702419992822

> <r_i_glide_lipo>
-3.36907819352964

> <r_i_glide_hbond>
-0.359558326516241

> <r_i_glide_metal>
0

> <r_i_glide_rewards>
-2.03520816041098

> <r_i_glide_evdw>
-42.0867881774902

> <r_i_glide_ecoul>
-5.54819202423096

> <r_i_glide_erotb>
0.830170893683822

> <r_i_glide_esite>
0

> <r_i_glide_emodel>
-68.4135103801543

> <r_i_glide_energy>
-47.6349802017212

> <r_i_glide_einternal>
6.04165601730347

> <i_i_glide_confnum>
35

> <i_i_glide_posenum>
354

> <r_i_glide_eff_state_penalty>
0

> <s_user_duplicate_titles>
CHEMBL5491_lig12

> <i_f3d_flags>
0

> <s_m_subgroup_title>
dock_pv

> <s_m_subgroupid>
dock_pv

> <b_m_subgroup_collapsed>
1

$$$$
CHEMBL5491_lig374
                    3D
 Schrodinger Suite 2021-1.
 47 51  0  0  1  0            999 V2000
    4.2690   53.8519   18.1094 C   0  0  0  0  0  0
    4.7896   54.9689   18.7517 C   0  0  0  0  0  0
    4.8943   54.9792   20.1405 C   0  0  0  0  0  0
    4.4856   53.8807   20.9189 C   0  0  0  0  0  0
    4.0473   52.7206   20.2445 C   0  0  0  0  0  0
    3.9020   52.7371   18.8556 C   0  0  0  0  0  0
    3.6792   51.2449   21.0720 Cl  0  0  0  0  0  0
    4.5165   53.9734   22.3450 N   0  0  0  0  0  0
    5.6707   54.3496   23.0018 C   0  0  0  0  0  0
    5.5171   54.4250   24.5038 C   0  0  0  0  0  0
    4.3059   54.1888   25.1535 C   0  0  0  0  0  0
    4.1619   54.2481   26.4920 N   0  0  0  0  0  0
    5.2584   54.5798   27.2151 C   0  0  0  0  0  0
    6.4791   54.8618   26.6813 N   0  0  0  0  0  0
    6.5930   54.7821   25.3236 C   0  0  0  0  0  0
    3.1937   53.8629   24.3740 N   0  0  0  0  0  0
    3.2592   53.7949   22.9976 C   0  0  0  0  0  0
    2.0757   53.5133   22.4863 N   0  0  0  0  0  0
    1.2635   53.3267   23.5069 C   0  0  0  0  0  0
    1.9075   53.5199   24.7117 C   0  0  0  0  0  0
    6.7261   54.6635   22.4467 O   0  0  0  0  0  0
    5.1398   54.6628   28.6150 N   0  0  0  0  0  0
    3.9493   54.2453   29.3804 C   0  0  0  0  0  0
    2.7018   55.1268   29.0712 C   0  0  0  0  0  0
    1.4009   54.5830   29.6984 C   0  0  0  0  0  0
    1.1960   53.0818   29.4433 C   0  0  0  0  0  0
    2.4099   52.2624   29.9111 C   0  0  0  0  0  0
    3.7121   52.7188   29.2322 C   0  0  0  0  0  0
    4.1709   53.8363   17.0339 H   0  0  0  0  0  0
    5.0958   55.8324   18.1783 H   0  0  0  0  0  0
    5.2830   55.8649   20.6166 H   0  0  0  0  0  0
    3.5329   51.8613   18.3424 H   0  0  0  0  0  0
    7.5597   55.0044   24.8886 H   0  0  0  0  0  0
    0.2260   53.0530   23.3654 H   0  0  0  0  0  0
    1.5909   53.4596   25.7421 H   0  0  0  0  0  0
    5.9744   54.9119   29.1260 H   0  0  0  0  0  0
    4.2121   54.4109   30.4257 H   0  0  0  0  0  0
    2.8791   56.1363   29.4401 H   0  0  0  0  0  0
    2.5235   55.2444   28.0067 H   0  0  0  0  0  0
    1.3988   54.7679   30.7729 H   0  0  0  0  0  0
    0.5453   55.1280   29.3059 H   0  0  0  0  0  0
    0.2982   52.7380   29.9555 H   0  0  0  0  0  0
    1.0245   52.9107   28.3789 H   0  0  0  0  0  0
    2.5112   52.3389   30.9955 H   0  0  0  0  0  0
    2.2325   51.2123   29.6854 H   0  0  0  0  0  0
    3.6752   52.4187   28.1849 H   0  0  0  0  0  0
    4.5543   52.1740   29.6602 H   0  0  0  0  0  0
  1  2  2  0  0  0
  1  6  1  0  0  0
  1 29  1  0  0  0
  2  3  1  0  0  0
  2 30  1  0  0  0
  3  4  2  0  0  0
  3 31  1  0  0  0
  4  5  1  0  0  0
  4  8  1  0  0  0
  5  6  2  0  0  0
  5  7  1  0  0  0
  6 32  1  0  0  0
  8 17  1  0  0  0
  8  9  1  0  0  0
  9 10  1  0  0  0
  9 21  2  0  0  0
 10 11  2  0  0  0
 10 15  1  0  0  0
 11 16  1  0  0  0
 11 12  1  0  0  0
 12 13  2  0  0  0
 13 14  1  0  0  0
 13 22  1  0  0  0
 14 15  2  0  0  0
 15 33  1  0  0  0
 16 17  1  0  0  0
 16 20  1  0  0  0
 17 18  2  0  0  0
 18 19  1  0  0  0
 19 20  2  0  0  0
 19 34  1  0  0  0
 20 35  1  0  0  0
 22 23  1  0  0  0
 22 36  1  0  0  0
 23 24  1  0  0  0
 23 28  1  0  0  0
 23 37  1  0  0  0
 24 25  1  0  0  0
 24 38  1  0  0  0
 24 39  1  0  0  0
 25 26  1  0  0  0
 25 40  1  0  0  0
 25 41  1  0  0  0
 26 27  1  0  0  0
 26 42  1  0  0  0
 26 43  1  0  0  0
 27 28  1  0  0  0
 27 44  1  0  0  0
 27 45  1  0  0  0
 28 46  1  0  0  0
 28 47  1  0  0  0
M  END
> <s_m_entry_id>
46334

> <s_m_entry_name>
dock_pv.75

> <s_m_Source_Path>
/home/csk/Desktop/cluster/DUD-E-result/wee1

> <s_m_Source_File>
dock_pv.maegz

> <i_m_Source_File_Index>
75

> <chembl_id>
CHEMBL3355520

> <chembl_pref_name>
None

> <i_lp_mmshare_version>
53161

> <r_lp_tautomer_probability>
1

> <s_lp_Force_Field>
OPLS_2005

> <r_lp_Energy>
31.425975

> <b_lp_Chiralities_Consistent>
1

> <s_lp_Variant>
CHEMBL5491_lig374-1

> <s_i_glide_gridfile>
glide-grid_3biz

> <i_i_glide_lignum>
424

> <i_i_glide_rotatable_bonds>
3

> <r_i_docking_score>
-7.84730987728752

> <r_i_glide_ligand_efficiency>
-0.280261067045983

> <r_i_glide_ligand_efficiency_sa>
-0.85103766449266

> <r_i_glide_ligand_efficiency_ln>
-1.81138952670777

> <r_i_glide_gscore>
-7.84730987728752

> <r_i_glide_lipo>
-2.58801439650585

> <r_i_glide_hbond>
-0.134049267172784

> <r_i_glide_metal>
0

> <r_i_glide_rewards>
-3.12114717562099

> <r_i_glide_evdw>
-45.8663063049316

> <r_i_glide_ecoul>
-0.57959508895874

> <r_i_glide_erotb>
0.376155540602491

> <r_i_glide_esite>
0

> <r_i_glide_emodel>
-64.3250827908641

> <r_i_glide_energy>
-46.4459013938904

> <r_i_glide_einternal>
7.43203258514404

> <i_i_glide_confnum>
11

> <i_i_glide_posenum>
35

> <r_i_glide_eff_state_penalty>
0

> <s_user_duplicate_titles>
CHEMBL5491_lig374

> <i_f3d_flags>
0

> <s_m_subgroup_title>
dock_pv

> <s_m_subgroupid>
dock_pv

> <b_m_subgroup_collapsed>
1

$$$$
CHEMBL5491_lig206
                    3D
 Schrodinger Suite 2021-1.
 53 57  0  0  1  0            999 V2000
    3.0600   53.7052   28.8871 C   0  0  0  0  0  0
    1.7384   53.2801   28.8353 C   0  0  0  0  0  0
    1.0990   53.0406   27.6193 C   0  0  0  0  0  0
    3.7858   53.9316   27.7270 C   0  0  0  0  0  0
    3.1779   53.7181   26.4792 C   0  0  0  0  0  0
    1.8375   53.2460   26.4404 C   0  0  0  0  0  0
    1.4979   53.0631   25.1032 N   0  0  0  0  0  0
    3.6239   53.8630   25.1488 C   0  0  0  0  0  0
    2.5651   53.4574   24.2977 C   0  0  0  0  0  0
    2.7013   53.4781   22.8997 C   0  0  0  0  0  0
    3.9429   53.8168   22.3219 C   0  0  0  0  0  0
    4.8257   54.2887   24.5550 C   0  0  0  0  0  0
    4.9732   54.2629   23.1804 C   0  0  0  0  0  0
    6.3427   54.8120   22.9077 C   0  0  0  0  0  0
    6.8790   55.0589   24.1032 N   0  0  0  0  0  0
    6.0908   54.8080   25.1478 C   0  0  0  0  0  0
    6.9175   55.0630   21.8542 O   0  0  0  0  0  0
    6.4119   55.0003   26.3162 O   0  0  0  0  0  0
    4.0790   53.7041   20.8199 C   0  0  0  0  0  0
    3.5399   52.6250   20.0809 C   0  0  0  0  0  0
    3.5334   52.6573   18.6827 C   0  0  0  0  0  0
    4.1209   53.6998   17.9799 C   0  0  0  0  0  0
    4.7085   54.7389   18.6825 C   0  0  0  0  0  0
    4.6752   54.7307   20.0735 C   0  0  0  0  0  0
    3.6785   53.9056   30.0870 O   0  0  0  0  0  0
    0.2015   52.5653   24.6135 C   0  0  0  0  0  0
    0.2034   51.0848   24.1588 C   0  0  0  0  0  0
    2.8793   51.2069   20.8339 Cl  0  0  0  0  0  0
    0.1476   50.0459   25.2972 C   0  0  0  0  0  0
   -0.2411   48.7310   24.9702 N   0  0  0  0  0  0
    0.4790   50.3297   26.4419 O   0  0  0  0  0  0
   -1.3370   48.2346   23.6948 S   0  0  0  0  0  0
   -0.3634   48.5032   22.1065 C   0  0  0  0  0  0
   -2.4704   49.1650   23.6869 O   0  0  0  0  0  0
   -1.5658   46.7956   23.8591 O   0  0  0  0  0  0
    1.1957   53.1102   29.7540 H   0  0  0  0  0  0
    0.0792   52.6855   27.6051 H   0  0  0  0  0  0
    4.8050   54.2595   27.8209 H   0  0  0  0  0  0
    1.8709   53.1936   22.2712 H   0  0  0  0  0  0
    7.8289   55.3961   24.1827 H   0  0  0  0  0  0
    3.1171   51.8244   18.1331 H   0  0  0  0  0  0
    4.1310   53.6915   16.8999 H   0  0  0  0  0  0
    5.1659   55.5626   18.1541 H   0  0  0  0  0  0
    5.0741   55.5990   20.5627 H   0  0  0  0  0  0
    3.0782   54.0391   30.8302 H   0  0  0  0  0  0
   -0.1255   53.2187   23.8040 H   0  0  0  0  0  0
   -0.5472   52.6631   25.3999 H   0  0  0  0  0  0
    1.0751   50.8738   23.5382 H   0  0  0  0  0  0
   -0.6676   50.9626   23.5207 H   0  0  0  0  0  0
   -0.1868   48.0473   25.7363 H   0  0  0  0  0  0
   -0.7779   47.8585   21.3334 H   0  0  0  0  0  0
    0.6795   48.2634   22.2919 H   0  0  0  0  0  0
   -0.4504   49.5418   21.7965 H   0  0  0  0  0  0
  1  2  2  0  0  0
  1  4  1  0  0  0
  1 25  1  0  0  0
  2  3  1  0  0  0
  2 36  1  0  0  0
  3  6  2  0  0  0
  3 37  1  0  0  0
  4  5  2  0  0  0
  4 38  1  0  0  0
  5  8  1  0  0  0
  5  6  1  0  0  0
  6  7  1  0  0  0
  7 26  1  0  0  0
  7  9  1  0  0  0
  8  9  2  0  0  0
  8 12  1  0  0  0
  9 10  1  0  0  0
 10 11  2  0  0  0
 10 39  1  0  0  0
 11 19  1  0  0  0
 11 13  1  0  0  0
 12 16  1  0  0  0
 12 13  2  0  0  0
 13 14  1  0  0  0
 14 17  2  0  0  0
 14 15  1  0  0  0
 15 16  1  0  0  0
 15 40  1  0  0  0
 16 18  2  0  0  0
 19 20  2  0  0  0
 19 24  1  0  0  0
 20 21  1  0  0  0
 20 28  1  0  0  0
 21 22  2  0  0  0
 21 41  1  0  0  0
 22 23  1  0  0  0
 22 42  1  0  0  0
 23 24  2  0  0  0
 23 43  1  0  0  0
 24 44  1  0  0  0
 25 45  1  0  0  0
 26 27  1  0  0  0
 26 46  1  0  0  0
 26 47  1  0  0  0
 27 29  1  0  0  0
 27 48  1  0  0  0
 27 49  1  0  0  0
 29 30  1  0  0  0
 29 31  2  0  0  0
 30 32  1  0  0  0
 30 50  1  0  0  0
 32 33  1  0  0  0
 32 34  2  0  0  0
 32 35  2  0  0  0
 33 51  1  0  0  0
 33 52  1  0  0  0
 33 53  1  0  0  0
M  END
> <s_m_entry_id>
46335

> <s_m_entry_name>
dock_pv.76

> <s_m_Source_Path>
/home/csk/Desktop/cluster/DUD-E-result/wee1

> <s_m_Source_File>
dock_pv.maegz

> <i_m_Source_File_Index>
76

> <chembl_id>
CHEMBL460940

> <chembl_pref_name>
None

> <i_lp_mmshare_version>
53161

> <r_lp_tautomer_probability>
1

> <s_lp_Force_Field>
OPLS_2005

> <r_lp_Energy>
70.120222

> <b_lp_Chiralities_Consistent>
1

> <s_lp_Variant>
CHEMBL5491_lig206-1

> <s_i_glide_gridfile>
glide-grid_3biz

> <i_i_glide_lignum>
216

> <i_i_glide_rotatable_bonds>
7

> <r_i_docking_score>
-7.80024551137872

> <r_i_glide_ligand_efficiency>
-0.222864157467963

> <r_i_glide_ligand_efficiency_sa>
-0.729003436378066

> <r_i_glide_ligand_efficiency_ln>
-1.71232700686945

> <r_i_glide_gscore>
-7.80024551137872

> <r_i_glide_lipo>
-2.48231011976052

> <r_i_glide_hbond>
-0.765363224692101

> <r_i_glide_metal>
0

> <r_i_glide_rewards>
-0.996575286214696

> <r_i_glide_evdw>
-46.6323432922363

> <r_i_glide_ecoul>
-9.29412078857422

> <r_i_glide_erotb>
0.391035419709568

> <r_i_glide_esite>
-0.221297017523019

> <r_i_glide_emodel>
-78.2008413868452

> <r_i_glide_energy>
-55.9264640808105

> <r_i_glide_einternal>
9.14999771118164

> <i_i_glide_confnum>
68

> <i_i_glide_posenum>
151

> <r_i_glide_eff_state_penalty>
0

> <s_user_duplicate_titles>
CHEMBL5491_lig206

> <i_f3d_flags>
0

> <s_m_subgroup_title>
dock_pv

> <s_m_subgroupid>
dock_pv

> <b_m_subgroup_collapsed>
1

$$$$
CHEMBL5491_lig343
                    3D
 Schrodinger Suite 2021-1.
 65 69  0  0  1  0            999 V2000
    4.1406   54.0197   24.5999 N   0  0  0  0  0  0
    5.4436   54.3600   24.6620 C   0  0  0  0  0  0
    6.1488   54.6073   25.7986 N   0  0  0  0  0  0
    3.4345   53.8629   25.7404 C   0  0  0  0  0  0
    4.0357   54.1193   26.9745 C   0  0  0  0  0  0
    5.4126   54.4748   26.9142 C   0  0  0  0  0  0
    5.8232   54.6630   28.2129 N   0  0  0  0  0  0
    4.7565   54.4923   29.0664 C   0  0  0  0  0  0
    3.6420   54.1130   28.3527 C   0  0  0  0  0  0
    6.1273   54.5004   23.4471 N   0  0  0  0  0  0
    2.1302   53.3513   25.6838 N   0  0  0  0  0  0
    5.6866   54.3467   22.1110 C   0  0  0  0  0  0
    1.3577   52.9205   24.5876 C   0  0  0  0  0  0
    6.2723   55.1427   21.1089 C   0  0  0  0  0  0
    5.7970   55.0648   19.7916 C   0  0  0  0  0  0
    4.7313   53.3871   21.7395 C   0  0  0  0  0  0
    1.5768   53.4787   23.3215 C   0  0  0  0  0  0
    0.8788   53.0395   22.2152 C   0  0  0  0  0  0
   -0.1423   52.1129   22.3656 C   0  0  0  0  0  0
   -0.4094   51.5621   23.6146 C   0  0  0  0  0  0
    0.3564   51.9297   24.7374 C   0  0  0  0  0  0
    7.3087   55.9889   21.4437 O   0  0  0  0  0  0
    8.4005   56.0457   20.5262 C   0  0  0  0  0  0
    0.0652   51.2842   26.0709 C   0  0  0  0  0  0
    0.0785   49.9505   26.0871 N   0  0  0  0  0  0
   -0.1692   51.9583   27.0713 O   0  0  0  0  0  0
   -1.4160   50.6600   23.7090 F   0  0  0  0  0  0
    4.3443   53.2388   20.4023 C   0  0  0  0  0  0
    4.8329   54.1246   19.4460 C   0  0  0  0  0  0
    4.0787   53.9680   18.1608 C   0  0  0  0  0  0
    3.3162   52.6713   18.3728 C   0  0  0  0  0  0
    3.3710   52.3969   19.8151 N   0  0  0  0  0  0
    2.8733   51.2342   20.3250 C   0  0  0  0  0  0
    1.9485   50.3660   19.4197 C   0  0  0  0  0  0
    3.1229   50.8707   21.4760 O   0  0  0  0  0  0
    1.5592   49.0848   20.0165 N   0  0  0  0  0  0
    0.5166   49.2065   21.0314 C   0  0  0  0  0  0
    1.1529   48.1102   19.0078 C   0  0  0  0  0  0
    6.7354   54.9668   28.5351 H   0  0  0  0  0  0
    4.8785   54.6592   30.1267 H   0  0  0  0  0  0
    2.6699   53.8941   28.7732 H   0  0  0  0  0  0
    7.0862   54.7992   23.5477 H   0  0  0  0  0  0
    1.7429   53.1047   26.5841 H   0  0  0  0  0  0
    6.1749   55.7385   19.0377 H   0  0  0  0  0  0
    4.3120   52.7351   22.4875 H   0  0  0  0  0  0
    2.2881   54.2690   23.1519 H   0  0  0  0  0  0
    1.0872   53.4630   21.2455 H   0  0  0  0  0  0
   -0.7231   51.8108   21.5066 H   0  0  0  0  0  0
    9.2790   56.4281   21.0393 H   0  0  0  0  0  0
    8.6654   55.0627   20.1329 H   0  0  0  0  0  0
    8.1852   56.7088   19.6881 H   0  0  0  0  0  0
   -0.2100   49.4441   26.9226 H   0  0  0  0  0  0
    0.3279   49.4305   25.2604 H   0  0  0  0  0  0
    4.6834   53.9413   17.2539 H   0  0  0  0  0  0
    3.3667   54.7867   18.0460 H   0  0  0  0  0  0
    3.9200   51.8881   17.9097 H   0  0  0  0  0  0
    2.3437   52.5997   17.8815 H   0  0  0  0  0  0
    2.4805   50.1813   18.4866 H   0  0  0  0  0  0
    1.0699   50.9566   19.1527 H   0  0  0  0  0  0
    0.8941   49.7479   21.8956 H   0  0  0  0  0  0
    0.1877   48.2416   21.4012 H   0  0  0  0  0  0
   -0.3618   49.7236   20.6432 H   0  0  0  0  0  0
    1.9594   47.9483   18.2899 H   0  0  0  0  0  0
    0.9273   47.1446   19.4641 H   0  0  0  0  0  0
    0.2702   48.4461   18.4590 H   0  0  0  0  0  0
  1  4  1  0  0  0
  1  2  2  0  0  0
  2 10  1  0  0  0
  2  3  1  0  0  0
  3  6  2  0  0  0
  4 11  1  0  0  0
  4  5  2  0  0  0
  5  9  1  0  0  0
  5  6  1  0  0  0
  6  7  1  0  0  0
  7  8  1  0  0  0
  7 39  1  0  0  0
  8  9  2  0  0  0
  8 40  1  0  0  0
  9 41  1  0  0  0
 10 12  1  0  0  0
 10 42  1  0  0  0
 11 13  1  0  0  0
 11 43  1  0  0  0
 12 14  2  0  0  0
 12 16  1  0  0  0
 13 21  1  0  0  0
 13 17  2  0  0  0
 14 22  1  0  0  0
 14 15  1  0  0  0
 15 29  2  0  0  0
 15 44  1  0  0  0
 16 28  2  0  0  0
 16 45  1  0  0  0
 17 18  1  0  0  0
 17 46  1  0  0  0
 18 19  2  0  0  0
 18 47  1  0  0  0
 19 20  1  0  0  0
 19 48  1  0  0  0
 20 21  2  0  0  0
 20 27  1  0  0  0
 21 24  1  0  0  0
 22 23  1  0  0  0
 23 49  1  0  0  0
 23 50  1  0  0  0
 23 51  1  0  0  0
 24 25  1  0  0  0
 24 26  2  0  0  0
 25 52  1  0  0  0
 25 53  1  0  0  0
 28 29  1  0  0  0
 28 32  1  0  0  0
 29 30  1  0  0  0
 30 31  1  0  0  0
 30 54  1  0  0  0
 30 55  1  0  0  0
 31 32  1  0  0  0
 31 56  1  0  0  0
 31 57  1  0  0  0
 32 33  1  0  0  0
 33 34  1  0  0  0
 33 35  2  0  0  0
 34 36  1  0  0  0
 34 58  1  0  0  0
 34 59  1  0  0  0
 36 37  1  0  0  0
 36 38  1  0  0  0
 37 60  1  0  0  0
 37 61  1  0  0  0
 37 62  1  0  0  0
 38 63  1  0  0  0
 38 64  1  0  0  0
 38 65  1  0  0  0
M  END
> <s_m_entry_id>
46336

> <s_m_entry_name>
dock_pv.77

> <s_m_Source_Path>
/home/csk/Desktop/cluster/DUD-E-result/wee1

> <s_m_Source_File>
dock_pv.maegz

> <i_m_Source_File_Index>
77

> <chembl_id>
CHEMBL461876

> <chembl_pref_name>
None

> <i_lp_mmshare_version>
53161

> <r_lp_tautomer_probability>
1

> <s_lp_Force_Field>
OPLS_2005

> <r_lp_Energy>
57.370475

> <b_lp_Chiralities_Consistent>
1

> <s_lp_Variant>
CHEMBL5491_lig343-1

> <s_i_glide_gridfile>
glide-grid_3biz

> <i_i_glide_lignum>
360

> <i_i_glide_rotatable_bonds>
9

> <r_i_docking_score>
-7.79950828970145

> <r_i_glide_ligand_efficiency>
-0.205250218150038

> <r_i_glide_ligand_efficiency_sa>
-0.69004618482385

> <r_i_glide_ligand_efficiency_ln>
-1.68180342554792

> <r_i_glide_gscore>
-7.79950828970145

> <r_i_glide_lipo>
-2.12196381020916

> <r_i_glide_hbond>
-0.447696223886769

> <r_i_glide_metal>
0

> <r_i_glide_rewards>
-1.50888893886562

> <r_i_glide_evdw>
-49.3822402954102

> <r_i_glide_ecoul>
-9.96635341644287

> <r_i_glide_erotb>
0.458313865761396

> <r_i_glide_esite>
-0.215208155264366

> <r_i_glide_emodel>
-82.9268439531443

> <r_i_glide_energy>
-59.348593711853

> <r_i_glide_einternal>
11.1893634796143

> <i_i_glide_confnum>
22

> <i_i_glide_posenum>
167

> <r_i_glide_eff_state_penalty>
0

> <s_user_duplicate_titles>
CHEMBL5491_lig343

> <i_f3d_flags>
0

> <s_m_subgroup_title>
dock_pv

> <s_m_subgroupid>
dock_pv

> <b_m_subgroup_collapsed>
1

$$$$
CHEMBL5491_lig45
                    3D
 Schrodinger Suite 2021-1.
 44 47  0  0  1  0            999 V2000
    5.0362   54.2798   25.3567 C   0  0  0  0  0  0
    5.2440   54.2472   26.7629 N   0  0  0  0  0  0
    4.3051   53.8626   27.6853 C   0  0  0  0  0  0
    2.9599   53.6021   27.1443 C   0  0  0  0  0  0
    3.7805   53.9167   24.8453 C   0  0  0  0  0  0
    2.7060   53.5623   25.8020 C   0  0  0  0  0  0
    6.0694   54.6457   24.5436 N   0  0  0  0  0  0
    5.8324   54.6455   23.2102 C   0  0  0  0  0  0
    1.9101   53.2918   28.1556 C   0  0  0  0  0  0
    4.6666   54.2628   22.6298 N   0  0  0  0  0  0
    3.6502   53.9132   23.4520 C   0  0  0  0  0  0
    4.5619   53.7334   28.8868 O   0  0  0  0  0  0
    6.8791   55.1275   22.4181 N   0  0  0  0  0  0
    1.4551   54.2330   29.1040 C   0  0  0  0  0  0
    6.5893   54.5826   27.2693 C   0  0  0  0  0  0
    1.3563   53.1980   25.1767 C   0  0  0  0  0  0
    2.0328   55.8623   29.1394 Cl  0  0  0  0  0  0
    7.0002   55.4723   21.0566 C   0  0  0  0  0  0
    1.3561   52.0038   28.1690 C   0  0  0  0  0  0
    0.5173   53.8594   30.0678 C   0  0  0  0  0  0
    8.2656   55.8628   20.6145 C   0  0  0  0  0  0
    5.9387   55.4500   20.1385 C   0  0  0  0  0  0
    0.3890   51.6549   29.1055 C   0  0  0  0  0  0
   -0.0039   52.5687   30.0768 C   0  0  0  0  0  0
    6.1445   55.8054   18.8076 C   0  0  0  0  0  0
    8.4784   56.2149   19.2843 C   0  0  0  0  0  0
    7.4160   56.1838   18.3853 C   0  0  0  0  0  0
    2.7313   53.6340   22.9565 H   0  0  0  0  0  0
    7.7236   55.2826   22.9549 H   0  0  0  0  0  0
    7.2791   53.8023   26.9530 H   0  0  0  0  0  0
    6.9205   55.5360   26.8603 H   0  0  0  0  0  0
    6.6599   54.6613   28.3555 H   0  0  0  0  0  0
    1.0185   53.9723   24.4892 H   0  0  0  0  0  0
    1.4454   52.2590   24.6292 H   0  0  0  0  0  0
    0.5649   53.0624   25.9106 H   0  0  0  0  0  0
    1.6767   51.2634   27.4507 H   0  0  0  0  0  0
    0.2017   54.5705   30.8176 H   0  0  0  0  0  0
    9.0983   55.8763   21.2986 H   0  0  0  0  0  0
    4.9417   55.1581   20.4195 H   0  0  0  0  0  0
   -0.0387   50.6638   29.0933 H   0  0  0  0  0  0
   -0.7201   52.2759   30.8307 H   0  0  0  0  0  0
    5.3231   55.7812   18.1049 H   0  0  0  0  0  0
    9.4654   56.5007   18.9545 H   0  0  0  0  0  0
    7.5819   56.4504   17.3515 H   0  0  0  0  0  0
  1  2  1  0  0  0
  1  5  1  0  0  0
  1  7  2  0  0  0
  2  3  1  0  0  0
  2 15  1  0  0  0
  3 12  2  0  0  0
  3  4  1  0  0  0
  4  6  2  0  0  0
  4  9  1  0  0  0
  5  6  1  0  0  0
  5 11  2  0  0  0
  6 16  1  0  0  0
  7  8  1  0  0  0
  8 10  2  0  0  0
  8 13  1  0  0  0
  9 14  1  0  0  0
  9 19  2  0  0  0
 10 11  1  0  0  0
 11 28  1  0  0  0
 13 18  1  0  0  0
 13 29  1  0  0  0
 14 17  1  0  0  0
 14 20  2  0  0  0
 15 30  1  0  0  0
 15 31  1  0  0  0
 15 32  1  0  0  0
 16 33  1  0  0  0
 16 34  1  0  0  0
 16 35  1  0  0  0
 18 21  2  0  0  0
 18 22  1  0  0  0
 19 23  1  0  0  0
 19 36  1  0  0  0
 20 24  1  0  0  0
 20 37  1  0  0  0
 21 26  1  0  0  0
 21 38  1  0  0  0
 22 25  2  0  0  0
 22 39  1  0  0  0
 23 24  2  0  0  0
 23 40  1  0  0  0
 24 41  1  0  0  0
 25 27  1  0  0  0
 25 42  1  0  0  0
 26 27  2  0  0  0
 26 43  1  0  0  0
 27 44  1  0  0  0
M  END
> <s_m_entry_id>
46337

> <s_m_entry_name>
dock_pv.78

> <s_m_Source_Path>
/home/csk/Desktop/cluster/DUD-E-result/wee1

> <s_m_Source_File>
dock_pv.maegz

> <i_m_Source_File_Index>
78

> <chembl_id>
CHEMBL360799

> <chembl_pref_name>
None

> <i_lp_mmshare_version>
53161

> <r_lp_tautomer_probability>
1

> <s_lp_Force_Field>
OPLS_2005

> <r_lp_Energy>
30.474947

> <b_lp_Chiralities_Consistent>
1

> <s_lp_Variant>
CHEMBL5491_lig45-1

> <s_i_glide_gridfile>
glide-grid_3biz

> <i_i_glide_lignum>
43

> <i_i_glide_rotatable_bonds>
3

> <r_i_docking_score>
-7.79834835985744

> <r_i_glide_ligand_efficiency>
-0.288827717031757

> <r_i_glide_ligand_efficiency_sa>
-0.866483150143342

> <r_i_glide_ligand_efficiency_ln>
-1.81532693235414

> <r_i_glide_gscore>
-7.79834835985744

> <r_i_glide_lipo>
-3.02227635077979

> <r_i_glide_hbond>
-0.32

> <r_i_glide_metal>
0

> <r_i_glide_rewards>
-2.02597598466813

> <r_i_glide_evdw>
-46.7082672119141

> <r_i_glide_ecoul>
-3.35811853408813

> <r_i_glide_erotb>
0.40903511629941

> <r_i_glide_esite>
0

> <r_i_glide_emodel>
-70.7918206509978

> <r_i_glide_energy>
-50.0663857460022

> <r_i_glide_einternal>
3.96210908889771

> <i_i_glide_confnum>
1

> <i_i_glide_posenum>
99

> <r_i_glide_eff_state_penalty>
0

> <s_user_duplicate_titles>
CHEMBL5491_lig45,302578

> <i_f3d_flags>
0

> <s_m_subgroup_title>
dock_pv

> <s_m_subgroupid>
dock_pv

> <b_m_subgroup_collapsed>
1

$$$$
CHEMBL5491_lig226
                    3D
 Schrodinger Suite 2021-1.
 59 64  0  0  1  0            999 V2000
    3.6673   52.8829   18.5644 C   0  0  0  0  0  0
    2.4798   52.1607   18.6194 C   0  0  0  0  0  0
    1.8066   51.9494   19.8204 C   0  0  0  0  0  0
    4.2497   53.3989   19.7189 C   0  0  0  0  0  0
    3.6011   53.2184   20.9539 C   0  0  0  0  0  0
    2.3651   52.5098   20.9781 C   0  0  0  0  0  0
    1.8953   52.5402   22.2782 N   0  0  0  0  0  0
    3.8965   53.6017   22.2835 C   0  0  0  0  0  0
    2.8145   53.1861   23.0879 C   0  0  0  0  0  0
    2.7799   53.4174   24.4671 C   0  0  0  0  0  0
    3.8938   53.9828   25.1045 C   0  0  0  0  0  0
    4.9635   54.2626   22.9199 C   0  0  0  0  0  0
    4.9743   54.4173   24.2957 C   0  0  0  0  0  0
    6.2671   55.1150   24.6149 C   0  0  0  0  0  0
    6.8790   55.3071   23.4374 N   0  0  0  0  0  0
    6.1863   54.9017   22.3696 C   0  0  0  0  0  0
    6.7424   55.4870   25.6856 O   0  0  0  0  0  0
    6.5327   55.0635   21.2037 O   0  0  0  0  0  0
    3.8451   54.0816   26.6041 C   0  0  0  0  0  0
    5.0009   53.9511   27.3809 C   0  0  0  0  0  0
    4.9770   54.1828   28.7469 C   0  0  0  0  0  0
    3.7665   54.4083   29.3921 C   0  0  0  0  0  0
    2.5826   54.4239   28.6675 C   0  0  0  0  0  0
    2.6273   54.2620   27.2874 C   0  0  0  0  0  0
    4.2908   53.0627   17.3609 O   0  0  0  0  0  0
    0.6611   51.9270   22.7562 C   0  0  0  0  0  0
    0.9128   50.4870   23.2504 C   0  0  0  0  0  0
   -0.2467   49.8226   24.0357 C   0  0  0  0  0  0
   -0.6227   50.4544   25.3079 N   0  0  0  0  0  0
   -1.6783   51.4766   25.2516 C   0  0  0  0  0  0
   -1.9993   52.0694   26.6391 C   0  0  0  0  0  0
   -0.8009   52.4808   27.2888 O   0  0  0  0  0  0
    0.0341   51.3625   27.5672 C   0  0  0  0  0  0
    0.4781   50.6659   26.2615 C   0  0  0  0  0  0
    2.0669   51.7524   17.7091 H   0  0  0  0  0  0
    0.8800   51.3965   19.8392 H   0  0  0  0  0  0
    5.1799   53.9331   19.6320 H   0  0  0  0  0  0
    1.9321   53.0816   25.0362 H   0  0  0  0  0  0
    7.8060   55.7022   23.3644 H   0  0  0  0  0  0
    5.9456   53.6877   26.9358 H   0  0  0  0  0  0
    5.9081   54.1945   29.2870 H   0  0  0  0  0  0
    3.7437   54.5613   30.4609 H   0  0  0  0  0  0
    1.6378   54.5713   29.1724 H   0  0  0  0  0  0
    1.6863   54.2634   26.7603 H   0  0  0  0  0  0
    4.1745   52.2931   16.7970 H   0  0  0  0  0  0
   -0.0970   51.9598   21.9718 H   0  0  0  0  0  0
    0.2943   52.5644   23.5555 H   0  0  0  0  0  0
    1.8363   50.4068   23.8236 H   0  0  0  0  0  0
    1.1017   49.8718   22.3708 H   0  0  0  0  0  0
    0.0227   48.7870   24.2541 H   0  0  0  0  0  0
   -1.1309   49.7606   23.3988 H   0  0  0  0  0  0
   -2.5744   51.0291   24.8179 H   0  0  0  0  0  0
   -1.4133   52.2923   24.5871 H   0  0  0  0  0  0
   -2.6539   52.9349   26.5326 H   0  0  0  0  0  0
   -2.5429   51.3446   27.2489 H   0  0  0  0  0  0
    0.9088   51.7084   28.1169 H   0  0  0  0  0  0
   -0.4771   50.6640   28.2306 H   0  0  0  0  0  0
    1.2662   51.2651   25.8113 H   0  0  0  0  0  0
    0.9299   49.6990   26.4862 H   0  0  0  0  0  0
  1  2  2  0  0  0
  1  4  1  0  0  0
  1 25  1  0  0  0
  2  3  1  0  0  0
  2 35  1  0  0  0
  3  6  2  0  0  0
  3 36  1  0  0  0
  4  5  2  0  0  0
  4 37  1  0  0  0
  5  8  1  0  0  0
  5  6  1  0  0  0
  6  7  1  0  0  0
  7 26  1  0  0  0
  7  9  1  0  0  0
  8  9  2  0  0  0
  8 12  1  0  0  0
  9 10  1  0  0  0
 10 11  2  0  0  0
 10 38  1  0  0  0
 11 19  1  0  0  0
 11 13  1  0  0  0
 12 16  1  0  0  0
 12 13  2  0  0  0
 13 14  1  0  0  0
 14 17  2  0  0  0
 14 15  1  0  0  0
 15 16  1  0  0  0
 15 39  1  0  0  0
 16 18  2  0  0  0
 19 20  2  0  0  0
 19 24  1  0  0  0
 20 21  1  0  0  0
 20 40  1  0  0  0
 21 22  2  0  0  0
 21 41  1  0  0  0
 22 23  1  0  0  0
 22 42  1  0  0  0
 23 24  2  0  0  0
 23 43  1  0  0  0
 24 44  1  0  0  0
 25 45  1  0  0  0
 26 27  1  0  0  0
 26 46  1  0  0  0
 26 47  1  0  0  0
 27 28  1  0  0  0
 27 48  1  0  0  0
 27 49  1  0  0  0
 28 29  1  0  0  0
 28 50  1  0  0  0
 28 51  1  0  0  0
 29 30  1  0  0  0
 29 34  1  0  0  0
 30 31  1  0  0  0
 30 52  1  0  0  0
 30 53  1  0  0  0
 31 32  1  0  0  0
 31 54  1  0  0  0
 31 55  1  0  0  0
 32 33  1  0  0  0
 33 34  1  0  0  0
 33 56  1  0  0  0
 33 57  1  0  0  0
 34 58  1  0  0  0
 34 59  1  0  0  0
M  END
> <s_m_entry_id>
46338

> <s_m_entry_name>
dock_pv.79

> <s_m_Source_Path>
/home/csk/Desktop/cluster/DUD-E-result/wee1

> <s_m_Source_File>
dock_pv.maegz

> <i_m_Source_File_Index>
79

> <chembl_id>
CHEMBL510668

> <chembl_pref_name>
None

> <i_lp_mmshare_version>
53161

> <r_lp_tautomer_probability>
1

> <s_lp_Force_Field>
OPLS_2005

> <r_lp_Energy>
87.870657

> <b_lp_Chiralities_Consistent>
1

> <s_lp_Variant>
CHEMBL5491_lig226-1

> <s_i_glide_gridfile>
glide-grid_3biz

> <i_i_glide_lignum>
238

> <i_i_glide_rotatable_bonds>
6

> <r_i_docking_score>
-7.75648052306892

> <r_i_glide_ligand_efficiency>
-0.228131780090262

> <r_i_glide_ligand_efficiency_sa>
-0.739058406158125

> <r_i_glide_ligand_efficiency_ln>
-1.71362410945528

> <r_i_glide_gscore>
-7.75648052306892

> <r_i_glide_lipo>
-2.70069182849911

> <r_i_glide_hbond>
-0.492805593084914

> <r_i_glide_metal>
0

> <r_i_glide_rewards>
-2.08913557200918

> <r_i_glide_evdw>
-41.5830345153809

> <r_i_glide_ecoul>
-4.28584241867065

> <r_i_glide_erotb>
0.271108304763633

> <r_i_glide_esite>
-0.0229277456697079

> <r_i_glide_emodel>
-60.4991422497551

> <r_i_glide_energy>
-45.8688769340515

> <r_i_glide_einternal>
10.3881855010986

> <i_i_glide_confnum>
32

> <i_i_glide_posenum>
278

> <r_i_glide_eff_state_penalty>
0

> <s_user_duplicate_titles>
CHEMBL5491_lig226,452166

> <i_f3d_flags>
0

> <s_m_subgroup_title>
dock_pv

> <s_m_subgroupid>
dock_pv

> <b_m_subgroup_collapsed>
1

$$$$
CHEMBL5491_lig150
                    3D
 Schrodinger Suite 2021-1.
 38 42  0  0  1  0            999 V2000
    5.3005   54.5643   21.5688 C   0  0  0  0  0  0
    6.4790   55.0919   22.0869 C   0  0  0  0  0  0
    6.6849   55.2255   23.4597 C   0  0  0  0  0  0
    4.2740   54.1436   22.4112 C   0  0  0  0  0  0
    4.4407   54.2621   23.8033 C   0  0  0  0  0  0
    5.6578   54.8009   24.3052 C   0  0  0  0  0  0
    5.5588   54.8394   25.6769 N   0  0  0  0  0  0
    3.6373   53.9246   24.9165 C   0  0  0  0  0  0
    4.3508   54.3169   26.0804 C   0  0  0  0  0  0
    3.8404   54.1397   27.3681 C   0  0  0  0  0  0
    2.6250   53.4569   27.5138 C   0  0  0  0  0  0
    2.3889   53.2960   25.0939 C   0  0  0  0  0  0
    1.9249   53.0477   26.3653 C   0  0  0  0  0  0
    0.6608   52.2629   26.2135 C   0  0  0  0  0  0
    0.4548   52.1586   24.8898 N   0  0  0  0  0  0
    1.3968   52.7419   24.1307 C   0  0  0  0  0  0
   -0.0740   51.8007   27.0807 O   0  0  0  0  0  0
    1.3972   52.7715   22.9037 O   0  0  0  0  0  0
    5.1531   54.4667   20.2115 O   0  0  0  0  0  0
    2.1397   53.1661   28.8936 C   0  0  0  0  0  0
    2.9327   52.4787   29.8347 C   0  0  0  0  0  0
    2.4525   52.2630   31.1319 C   0  0  0  0  0  0
    1.1676   52.6631   31.4823 C   0  0  0  0  0  0
    0.3759   53.3236   30.5531 C   0  0  0  0  0  0
    0.8661   53.5978   29.2812 C   0  0  0  0  0  0
    4.4970   51.8632   29.4100 Cl  0  0  0  0  0  0
    3.2384   51.6776   32.0870 O   0  0  0  0  0  0
    7.2537   55.4179   21.4075 H   0  0  0  0  0  0
    7.5905   55.6710   23.8438 H   0  0  0  0  0  0
    3.3701   53.7432   21.9848 H   0  0  0  0  0  0
    6.2716   55.1834   26.3030 H   0  0  0  0  0  0
    4.3986   54.4616   28.2362 H   0  0  0  0  0  0
   -0.3351   51.6686   24.5014 H   0  0  0  0  0  0
    4.3024   54.1111   19.9405 H   0  0  0  0  0  0
    0.7831   52.4807   32.4766 H   0  0  0  0  0  0
   -0.6209   53.6209   30.8223 H   0  0  0  0  0  0
    0.2363   54.1250   28.5791 H   0  0  0  0  0  0
    2.8791   51.8271   32.9739 H   0  0  0  0  0  0
  1  2  2  0  0  0
  1 19  1  0  0  0
  1  4  1  0  0  0
  2  3  1  0  0  0
  2 28  1  0  0  0
  3  6  2  0  0  0
  3 29  1  0  0  0
  4  5  2  0  0  0
  4 30  1  0  0  0
  5  8  1  0  0  0
  5  6  1  0  0  0
  6  7  1  0  0  0
  7  9  1  0  0  0
  7 31  1  0  0  0
  8  9  2  0  0  0
  8 12  1  0  0  0
  9 10  1  0  0  0
 10 11  2  0  0  0
 10 32  1  0  0  0
 11 13  1  0  0  0
 11 20  1  0  0  0
 12 16  1  0  0  0
 12 13  2  0  0  0
 13 14  1  0  0  0
 14 15  1  0  0  0
 14 17  2  0  0  0
 15 16  1  0  0  0
 15 33  1  0  0  0
 16 18  2  0  0  0
 19 34  1  0  0  0
 20 21  2  0  0  0
 20 25  1  0  0  0
 21 22  1  0  0  0
 21 26  1  0  0  0
 22 23  2  0  0  0
 22 27  1  0  0  0
 23 24  1  0  0  0
 23 35  1  0  0  0
 24 25  2  0  0  0
 24 36  1  0  0  0
 25 37  1  0  0  0
 27 38  1  0  0  0
M  END
> <s_m_entry_id>
46339

> <s_m_entry_name>
dock_pv.80

> <s_m_Source_Path>
/home/csk/Desktop/cluster/DUD-E-result/wee1

> <s_m_Source_File>
dock_pv.maegz

> <i_m_Source_File_Index>
80

> <chembl_id>
CHEMBL213585

> <chembl_pref_name>
None

> <i_lp_mmshare_version>
53161

> <r_lp_tautomer_probability>
0.999999999997365

> <s_lp_Force_Field>
OPLS_2005

> <r_lp_Energy>
68.165708

> <b_lp_Chiralities_Consistent>
1

> <s_lp_Variant>
CHEMBL5491_lig150-1

> <s_i_glide_gridfile>
glide-grid_3biz

> <i_i_glide_lignum>
153

> <i_i_glide_rotatable_bonds>
3

> <r_i_docking_score>
-7.72789008336463

> <r_i_glide_ligand_efficiency>
-0.286218151235727

> <r_i_glide_ligand_efficiency_sa>
-0.858654452763853

> <r_i_glide_ligand_efficiency_ln>
-1.79892540718208

> <r_i_glide_gscore>
-7.72789008336463

> <r_i_glide_lipo>
-3.32760654273915

> <r_i_glide_hbond>
-0.59336497390056

> <r_i_glide_metal>
0

> <r_i_glide_rewards>
-1.09063317168474

> <r_i_glide_evdw>
-37.8250885009766

> <r_i_glide_ecoul>
-6.40091133117676

> <r_i_glide_erotb>
0.13510572968516

> <r_i_glide_esite>
0

> <r_i_glide_emodel>
-62.9406058076225

> <r_i_glide_energy>
-44.2259998321533

> <r_i_glide_einternal>
1.20144176483154

> <i_i_glide_confnum>
2

> <i_i_glide_posenum>
264

> <r_i_glide_eff_state_penalty>
0

> <s_user_duplicate_titles>
CHEMBL5491_lig150,355945

> <i_f3d_flags>
0

> <s_m_subgroup_title>
dock_pv

> <s_m_subgroupid>
dock_pv

> <b_m_subgroup_collapsed>
1

$$$$
CHEMBL5491_lig65
                    3D
 Schrodinger Suite 2021-1.
 48 51  0  0  1  0            999 V2000
    4.5308   54.2611   26.1418 N   0  0  0  0  0  0
    2.5045   53.7220   27.3287 C   0  0  0  0  0  0
    3.8806   54.0542   24.8864 C   0  0  0  0  0  0
    3.9460   54.0421   27.3714 C   0  0  0  0  0  0
    4.5579   54.2627   23.7206 N   0  0  0  0  0  0
    2.5548   53.6092   24.8787 C   0  0  0  0  0  0
    1.8805   53.4629   26.1578 C   0  0  0  0  0  0
    1.7008   53.6730   28.5910 C   0  0  0  0  0  0
    3.8842   54.0183   22.5630 C   0  0  0  0  0  0
    1.0251   52.4949   28.9872 C   0  0  0  0  0  0
    1.5786   54.8109   29.4213 C   0  0  0  0  0  0
    2.6132   53.5532   22.4859 N   0  0  0  0  0  0
    1.9529   53.3568   23.6502 C   0  0  0  0  0  0
    4.4723   54.2622   21.3189 N   0  0  0  0  0  0
    4.5695   54.1010   28.4357 O   0  0  0  0  0  0
    0.8780   54.7298   30.6225 C   0  0  0  0  0  0
    0.3236   52.4434   30.1947 C   0  0  0  0  0  0
    0.2934   53.5404   31.0363 C   0  0  0  0  0  0
    5.9532   54.6607   26.1080 C   0  0  0  0  0  0
    5.6848   54.8205   20.8877 C   0  0  0  0  0  0
   -0.3164   53.4648   32.2618 O   0  0  0  0  0  0
    2.1511   56.1695   29.0491 C   0  0  0  0  0  0
    1.0458   51.2160   28.1757 C   0  0  0  0  0  0
    5.9283   54.8146   19.5116 C   0  0  0  0  0  0
    6.6413   55.3672   21.7526 C   0  0  0  0  0  0
    7.1185   55.3299   19.0027 C   0  0  0  0  0  0
    7.8368   55.8630   21.2452 C   0  0  0  0  0  0
    8.0718   55.8502   19.8738 C   0  0  0  0  0  0
    0.8296   53.2337   26.1627 H   0  0  0  0  0  0
    0.9341   53.0045   23.5790 H   0  0  0  0  0  0
    3.8361   54.0394   20.5675 H   0  0  0  0  0  0
    0.8280   55.5886   31.2758 H   0  0  0  0  0  0
   -0.1849   51.5389   30.4967 H   0  0  0  0  0  0
    6.0654   55.5954   25.5572 H   0  0  0  0  0  0
    6.3998   54.8094   27.0928 H   0  0  0  0  0  0
    6.5391   53.8978   25.5939 H   0  0  0  0  0  0
   -0.8390   52.6648   32.4649 H   0  0  0  0  0  0
    2.0793   56.3195   27.9769 H   0  0  0  0  0  0
    1.5988   56.9865   29.5144 H   0  0  0  0  0  0
    3.1966   56.2449   29.3424 H   0  0  0  0  0  0
    1.0316   51.3291   27.0989 H   0  0  0  0  0  0
    1.9407   50.6627   28.4460 H   0  0  0  0  0  0
    0.1352   50.6618   28.3904 H   0  0  0  0  0  0
    5.2008   54.4005   18.8280 H   0  0  0  0  0  0
    6.4994   55.4004   22.8190 H   0  0  0  0  0  0
    7.3052   55.3161   17.9387 H   0  0  0  0  0  0
    8.5801   56.2631   21.9179 H   0  0  0  0  0  0
    9.0039   56.2367   19.4856 H   0  0  0  0  0  0
  1  3  1  0  0  0
  1  4  1  0  0  0
  1 19  1  0  0  0
  2  4  1  0  0  0
  2  7  2  0  0  0
  2  8  1  0  0  0
  3  5  2  0  0  0
  3  6  1  0  0  0
  4 15  2  0  0  0
  5  9  1  0  0  0
  6 13  2  0  0  0
  6  7  1  0  0  0
  7 29  1  0  0  0
  8 10  1  0  0  0
  8 11  2  0  0  0
  9 14  1  0  0  0
  9 12  2  0  0  0
 10 17  2  0  0  0
 10 23  1  0  0  0
 11 16  1  0  0  0
 11 22  1  0  0  0
 12 13  1  0  0  0
 13 30  1  0  0  0
 14 20  1  0  0  0
 14 31  1  0  0  0
 16 18  2  0  0  0
 16 32  1  0  0  0
 17 18  1  0  0  0
 17 33  1  0  0  0
 18 21  1  0  0  0
 19 34  1  0  0  0
 19 35  1  0  0  0
 19 36  1  0  0  0
 20 24  1  0  0  0
 20 25  2  0  0  0
 21 37  1  0  0  0
 22 38  1  0  0  0
 22 39  1  0  0  0
 22 40  1  0  0  0
 23 41  1  0  0  0
 23 42  1  0  0  0
 23 43  1  0  0  0
 24 26  2  0  0  0
 24 44  1  0  0  0
 25 27  1  0  0  0
 25 45  1  0  0  0
 26 28  1  0  0  0
 26 46  1  0  0  0
 27 28  2  0  0  0
 27 47  1  0  0  0
 28 48  1  0  0  0
M  END
> <s_m_entry_id>
46340

> <s_m_entry_name>
dock_pv.81

> <s_m_Source_Path>
/home/csk/Desktop/cluster/DUD-E-result/wee1

> <s_m_Source_File>
dock_pv.maegz

> <i_m_Source_File_Index>
81

> <chembl_id>
CHEMBL369732

> <chembl_pref_name>
None

> <i_lp_mmshare_version>
53161

> <r_lp_tautomer_probability>
0.999999999997365

> <s_lp_Force_Field>
OPLS_2005

> <r_lp_Energy>
26.328439

> <b_lp_Chiralities_Consistent>
1

> <s_lp_Variant>
CHEMBL5491_lig65-1

> <s_i_glide_gridfile>
glide-grid_3biz

> <i_i_glide_lignum>
63

> <i_i_glide_rotatable_bonds>
4

> <r_i_docking_score>
-7.69864069112384

> <r_i_glide_ligand_efficiency>
-0.274951453254423

> <r_i_glide_ligand_efficiency_sa>
-0.834914549826199

> <r_i_glide_ligand_efficiency_ln>
-1.77707231342421

> <r_i_glide_gscore>
-7.69864069112384

> <r_i_glide_lipo>
-3.39204451638503

> <r_i_glide_hbond>
-0.16

> <r_i_glide_metal>
0

> <r_i_glide_rewards>
-1.79467846654113

> <r_i_glide_evdw>
-39.9565773010254

> <r_i_glide_ecoul>
-5.14565658569336

> <r_i_glide_erotb>
0.417759644707591

> <r_i_glide_esite>
0

> <r_i_glide_emodel>
-62.970610223505

> <r_i_glide_energy>
-45.1022338867188

> <r_i_glide_einternal>
3.54947209358215

> <i_i_glide_confnum>
10

> <i_i_glide_posenum>
102

> <r_i_glide_eff_state_penalty>
0

> <s_user_duplicate_titles>
CHEMBL5491_lig65,303333

> <i_f3d_flags>
0

> <s_m_subgroup_title>
dock_pv

> <s_m_subgroupid>
dock_pv

> <b_m_subgroup_collapsed>
1

$$$$
CHEMBL5491_lig259
                    3D
 Schrodinger Suite 2021-1.
 53 57  0  0  1  0            999 V2000
    2.9235   53.0955   29.6782 C   0  0  0  0  0  0
    4.0582   53.8919   29.6870 C   0  0  0  0  0  0
    4.6492   54.3667   28.5164 C   0  0  0  0  0  0
    2.3023   52.7671   28.4807 C   0  0  0  0  0  0
    2.8032   53.3069   27.2789 C   0  0  0  0  0  0
    3.9869   54.0984   27.3099 C   0  0  0  0  0  0
    4.2611   54.5086   26.0090 N   0  0  0  0  0  0
    2.3530   53.2703   25.9456 C   0  0  0  0  0  0
    3.2271   54.0944   25.1757 C   0  0  0  0  0  0
    2.9594   54.3779   23.8235 C   0  0  0  0  0  0
    1.8462   53.7838   23.2317 C   0  0  0  0  0  0
    1.2639   52.6619   25.2893 C   0  0  0  0  0  0
    1.0284   52.9371   23.9672 C   0  0  0  0  0  0
   -0.2132   52.2277   23.5685 C   0  0  0  0  0  0
   -0.5985   51.5486   24.6654 N   0  0  0  0  0  0
    0.1827   51.7436   25.7442 C   0  0  0  0  0  0
    2.3929   52.6584   30.8652 O   0  0  0  0  0  0
   -0.7959   52.2520   22.4870 O   0  0  0  0  0  0
   -0.0039   51.2539   26.8519 O   0  0  0  0  0  0
    5.4245   55.3124   25.6017 C   0  0  0  0  0  0
    6.5835   54.4816   25.0089 C   0  0  0  0  0  0
    6.3022   53.7347   23.6919 C   0  0  0  0  0  0
    5.9073   54.5782   22.5614 N   0  0  0  0  0  0
    5.3885   53.7082   21.4861 C   0  0  0  0  0  0
    4.9928   54.5044   20.2210 C   0  0  0  0  0  0
    6.0899   55.3713   19.7660 N   0  0  0  0  0  0
    5.6647   56.1477   18.6044 C   0  0  0  0  0  0
    6.5028   56.2577   20.8591 C   0  0  0  0  0  0
    7.0021   55.4198   22.0592 C   0  0  0  0  0  0
    4.4790   54.1589   30.6429 H   0  0  0  0  0  0
    5.5401   54.9754   28.5677 H   0  0  0  0  0  0
    1.4125   52.1621   28.5078 H   0  0  0  0  0  0
    3.5682   55.0595   23.2522 H   0  0  0  0  0  0
    1.6272   53.9942   22.1930 H   0  0  0  0  0  0
   -1.4138   50.9570   24.6888 H   0  0  0  0  0  0
    2.5386   53.2875   31.5878 H   0  0  0  0  0  0
    5.7987   55.8615   26.4607 H   0  0  0  0  0  0
    5.0919   56.0584   24.8918 H   0  0  0  0  0  0
    6.8779   53.7373   25.7492 H   0  0  0  0  0  0
    7.4660   55.1081   24.8875 H   0  0  0  0  0  0
    5.4745   53.0629   23.8941 H   0  0  0  0  0  0
    7.1587   53.1164   23.4176 H   0  0  0  0  0  0
    4.4959   53.1954   21.8478 H   0  0  0  0  0  0
    6.0786   52.9098   21.2225 H   0  0  0  0  0  0
    4.7549   53.7952   19.4247 H   0  0  0  0  0  0
    4.0786   55.0630   20.4124 H   0  0  0  0  0  0
    6.4787   56.7773   18.2420 H   0  0  0  0  0  0
    5.3736   55.4904   17.7828 H   0  0  0  0  0  0
    4.8145   56.7912   18.8362 H   0  0  0  0  0  0
    7.3078   56.9024   20.5093 H   0  0  0  0  0  0
    5.6798   56.9050   21.1672 H   0  0  0  0  0  0
    7.8656   54.8168   21.7749 H   0  0  0  0  0  0
    7.3416   56.0929   22.8460 H   0  0  0  0  0  0
  1 17  1  0  0  0
  1  2  2  0  0  0
  1  4  1  0  0  0
  2  3  1  0  0  0
  2 30  1  0  0  0
  3  6  2  0  0  0
  3 31  1  0  0  0
  4  5  2  0  0  0
  4 32  1  0  0  0
  5  8  1  0  0  0
  5  6  1  0  0  0
  6  7  1  0  0  0
  7  9  1  0  0  0
  7 20  1  0  0  0
  8  9  2  0  0  0
  8 12  1  0  0  0
  9 10  1  0  0  0
 10 11  2  0  0  0
 10 33  1  0  0  0
 11 13  1  0  0  0
 11 34  1  0  0  0
 12 16  1  0  0  0
 12 13  2  0  0  0
 13 14  1  0  0  0
 14 15  1  0  0  0
 14 18  2  0  0  0
 15 16  1  0  0  0
 15 35  1  0  0  0
 16 19  2  0  0  0
 17 36  1  0  0  0
 20 21  1  0  0  0
 20 37  1  0  0  0
 20 38  1  0  0  0
 21 22  1  0  0  0
 21 39  1  0  0  0
 21 40  1  0  0  0
 22 23  1  0  0  0
 22 41  1  0  0  0
 22 42  1  0  0  0
 23 29  1  0  0  0
 23 24  1  0  0  0
 24 25  1  0  0  0
 24 43  1  0  0  0
 24 44  1  0  0  0
 25 26  1  0  0  0
 25 45  1  0  0  0
 25 46  1  0  0  0
 26 27  1  0  0  0
 26 28  1  0  0  0
 27 47  1  0  0  0
 27 48  1  0  0  0
 27 49  1  0  0  0
 28 29  1  0  0  0
 28 50  1  0  0  0
 28 51  1  0  0  0
 29 52  1  0  0  0
 29 53  1  0  0  0
M  END
> <s_m_entry_id>
46341

> <s_m_entry_name>
dock_pv.82

> <s_m_Source_Path>
/home/csk/Desktop/cluster/DUD-E-result/wee1

> <s_m_Source_File>
dock_pv.maegz

> <i_m_Source_File_Index>
82

> <chembl_id>
CHEMBL483953

> <chembl_pref_name>
None

> <i_lp_mmshare_version>
53161

> <r_lp_tautomer_probability>
1

> <s_lp_Force_Field>
OPLS_2005

> <r_lp_Energy>
86.201384

> <b_lp_Chiralities_Consistent>
1

> <s_lp_Variant>
CHEMBL5491_lig259-1

> <s_i_glide_gridfile>
glide-grid_3biz

> <i_i_glide_lignum>
272

> <i_i_glide_rotatable_bonds>
5

> <r_i_docking_score>
-7.68846652755997

> <r_i_glide_ligand_efficiency>
-0.265119535433103

> <r_i_glide_ligand_efficiency_sa>
-0.81453120861488

> <r_i_glide_ligand_efficiency_ln>
-1.76046387212194

> <r_i_glide_gscore>
-7.68846652755997

> <r_i_glide_lipo>
-3.8434584493476

> <r_i_glide_hbond>
-0.32

> <r_i_glide_metal>
0

> <r_i_glide_rewards>
-1.11214155804154

> <r_i_glide_evdw>
-39.6658363342285

> <r_i_glide_ecoul>
-6.01275205612183

> <r_i_glide_erotb>
0.507081412611588

> <r_i_glide_esite>
-0.0347433076527266

> <r_i_glide_emodel>
-64.4512710056685

> <r_i_glide_energy>
-45.6785883903503

> <r_i_glide_einternal>
2.15486979484558

> <i_i_glide_confnum>
7

> <i_i_glide_posenum>
21

> <r_i_glide_eff_state_penalty>
0

> <s_user_duplicate_titles>
CHEMBL5491_lig259,523777

> <i_f3d_flags>
0

> <s_m_subgroup_title>
dock_pv

> <s_m_subgroupid>
dock_pv

> <b_m_subgroup_collapsed>
1

$$$$
CHEMBL5491_lig289
                    3D
 Schrodinger Suite 2021-1.
 65 70  0  0  1  0            999 V2000
    3.2665   52.6351   20.9137 C   0  0  0  0  0  0
    4.2111   53.8991   21.0124 C   0  0  1  0  0  0
    4.5579   54.2630   22.4532 C   0  0  0  0  0  0
    2.3275   52.5175   22.1132 C   0  0  0  0  0  0
    2.6055   53.0645   23.3125 C   0  0  0  0  0  0
    3.7761   53.8982   23.4868 C   0  0  0  0  0  0
    3.8692   54.2085   24.8172 N   0  0  0  0  0  0
    1.9706   52.9630   24.6412 C   0  0  0  0  0  0
    2.8064   53.6427   25.5274 C   0  0  0  0  0  0
    2.5072   53.6965   26.8937 C   0  0  0  0  0  0
    1.3196   53.1434   27.4014 C   0  0  0  0  0  0
    0.8109   52.3602   25.1431 C   0  0  0  0  0  0
    0.4838   52.4671   26.4811 C   0  0  0  0  0  0
   -0.8762   51.8625   26.6322 C   0  0  0  0  0  0
   -1.1764   51.3352   25.4352 N   0  0  0  0  0  0
   -0.2836   51.6036   24.4692 C   0  0  0  0  0  0
   -1.6224   51.8599   27.6065 O   0  0  0  0  0  0
   -0.4083   51.2929   23.2886 O   0  0  0  0  0  0
    0.9725   53.2969   28.8551 C   0  0  0  0  0  0
    1.0608   54.5184   29.5633 C   0  0  0  0  0  0
    0.6362   54.6089   30.8865 C   0  0  0  0  0  0
    0.1592   53.4961   31.5568 C   0  0  0  0  0  0
    0.0903   52.2898   30.8874 C   0  0  0  0  0  0
    0.5125   52.1811   29.5667 C   0  0  0  0  0  0
    1.6796   55.9765   28.8870 Cl  0  0  0  0  0  0
    5.4279   53.8109   20.2698 O   0  0  0  0  0  0
    5.3227   54.0781   18.8748 C   0  0  0  0  0  0
    6.7109   53.9334   18.2300 C   0  0  0  0  0  0
    7.8288   54.8062   18.8532 C   0  0  0  0  0  0
    7.6010   56.2254   18.6359 N   0  0  0  0  0  0
    4.9103   55.0128   25.4482 C   0  0  0  0  0  0
    6.8795   57.0678   19.4488 C   0  0  0  0  0  0
    6.8786   58.3353   18.8868 C   0  0  0  0  0  0
    7.5818   58.2620   17.6859 C   0  0  0  0  0  0
    8.0121   56.9532   17.5446 C   0  0  0  0  0  0
    4.0379   51.4629   20.8857 O   0  0  0  0  0  0
    2.4953   52.6630   19.7368 O   0  0  0  0  0  0
    5.9529   54.2183   26.2442 C   0  0  0  0  0  0
    6.8790   55.0631   26.8871 O   0  0  0  0  0  0
    3.6797   54.7737   20.6405 H   0  0  0  0  0  0
    5.4223   54.8852   22.6272 H   0  0  0  0  0  0
    1.4972   51.8415   22.0138 H   0  0  0  0  0  0
    3.1836   54.2019   27.5652 H   0  0  0  0  0  0
   -2.0284   50.8235   25.2677 H   0  0  0  0  0  0
    0.7427   55.5457   31.4091 H   0  0  0  0  0  0
   -0.1544   53.5648   32.5887 H   0  0  0  0  0  0
   -0.3208   51.4625   31.4241 H   0  0  0  0  0  0
    0.4393   51.2158   29.0847 H   0  0  0  0  0  0
    4.9295   55.0813   18.7045 H   0  0  0  0  0  0
    4.6374   53.3752   18.3998 H   0  0  0  0  0  0
    6.6321   54.1499   17.1642 H   0  0  0  0  0  0
    6.9957   52.8837   18.2821 H   0  0  0  0  0  0
    8.8050   54.5454   18.4412 H   0  0  0  0  0  0
    7.9027   54.6631   19.9308 H   0  0  0  0  0  0
    4.4551   55.7653   26.0872 H   0  0  0  0  0  0
    5.4307   55.6526   24.7376 H   0  0  0  0  0  0
    6.4281   56.6855   20.3527 H   0  0  0  0  0  0
    6.4006   59.2227   19.2780 H   0  0  0  0  0  0
    7.7422   59.0772   16.9933 H   0  0  0  0  0  0
    8.5778   56.4760   16.7592 H   0  0  0  0  0  0
    4.3543   51.3434   19.9811 H   0  0  0  0  0  0
    2.0775   53.5329   19.6873 H   0  0  0  0  0  0
    6.4039   53.4630   25.6010 H   0  0  0  0  0  0
    5.4614   53.5297   26.9327 H   0  0  0  0  0  0
    6.6238   55.1874   27.8084 H   0  0  0  0  0  0
  1  4  1  0  0  0
  1 36  1  0  0  0
  1 37  1  0  0  0
  1  2  1  0  0  0
  2 26  1  0  0  0
  2  3  1  0  0  0
  2 40  1  0  0  0
  3  6  2  0  0  0
  3 41  1  0  0  0
  4  5  2  0  0  0
  4 42  1  0  0  0
  5  6  1  0  0  0
  5  8  1  0  0  0
  6  7  1  0  0  0
  7 31  1  0  0  0
  7  9  1  0  0  0
  8  9  2  0  0  0
  8 12  1  0  0  0
  9 10  1  0  0  0
 10 11  2  0  0  0
 10 43  1  0  0  0
 11 19  1  0  0  0
 11 13  1  0  0  0
 12 13  2  0  0  0
 12 16  1  0  0  0
 13 14  1  0  0  0
 14 15  1  0  0  0
 14 17  2  0  0  0
 15 16  1  0  0  0
 15 44  1  0  0  0
 16 18  2  0  0  0
 19 20  2  0  0  0
 19 24  1  0  0  0
 20 21  1  0  0  0
 20 25  1  0  0  0
 21 22  2  0  0  0
 21 45  1  0  0  0
 22 23  1  0  0  0
 22 46  1  0  0  0
 23 24  2  0  0  0
 23 47  1  0  0  0
 24 48  1  0  0  0
 26 27  1  0  0  0
 27 28  1  0  0  0
 27 49  1  0  0  0
 27 50  1  0  0  0
 28 29  1  0  0  0
 28 51  1  0  0  0
 28 52  1  0  0  0
 29 30  1  0  0  0
 29 53  1  0  0  0
 29 54  1  0  0  0
 30 32  1  0  0  0
 30 35  1  0  0  0
 31 38  1  0  0  0
 31 55  1  0  0  0
 31 56  1  0  0  0
 32 33  2  0  0  0
 32 57  1  0  0  0
 33 34  1  0  0  0
 33 58  1  0  0  0
 34 35  2  0  0  0
 34 59  1  0  0  0
 35 60  1  0  0  0
 36 61  1  0  0  0
 37 62  1  0  0  0
 38 39  1  0  0  0
 38 63  1  0  0  0
 38 64  1  0  0  0
 39 65  1  0  0  0
M  END
> <s_m_entry_id>
46342

> <s_m_entry_name>
dock_pv.83

> <s_m_Source_Path>
/home/csk/Desktop/cluster/DUD-E-result/wee1

> <s_m_Source_File>
dock_pv.maegz

> <i_m_Source_File_Index>
83

> <chembl_id>
CHEMBL469822

> <chembl_pref_name>
None

> <i_lp_mmshare_version>
53161

> <r_lp_tautomer_probability>
1

> <s_lp_Force_Field>
OPLS_2005

> <r_lp_Energy>
78.83576

> <b_lp_Chiralities_Consistent>
1

> <s_lp_Variant>
CHEMBL5491_lig289-1

> <s_i_glide_gridfile>
glide-grid_3biz

> <i_i_glide_lignum>
303

> <i_i_glide_rotatable_bonds>
11

> <r_i_docking_score>
-7.6612671451156

> <r_i_glide_ligand_efficiency>
-0.196442747310656

> <r_i_glide_ligand_efficiency_sa>
-0.666178891763509

> <r_i_glide_ligand_efficiency_ln>
-1.64279315391355

> <r_i_glide_gscore>
-7.6612671451156

> <r_i_glide_lipo>
-3.09503473108456

> <r_i_glide_hbond>
-0.324581952160356

> <r_i_glide_metal>
0

> <r_i_glide_rewards>
-0.424727979036457

> <r_i_glide_evdw>
-46.8380012512207

> <r_i_glide_ecoul>
-12.4438962936401

> <r_i_glide_erotb>
0.482979976513621

> <r_i_glide_esite>
-0.0914179527407948

> <r_i_glide_emodel>
-81.1856165018709

> <r_i_glide_energy>
-59.2818975448608

> <r_i_glide_einternal>
8.64809131622314

> <i_i_glide_confnum>
28

> <i_i_glide_posenum>
120

> <r_i_glide_eff_state_penalty>
0

> <s_user_duplicate_titles>
CHEMBL5491_lig289

> <i_f3d_flags>
0

> <s_m_subgroup_title>
dock_pv

> <s_m_subgroupid>
dock_pv

> <b_m_subgroup_collapsed>
1

$$$$
CHEMBL5491_lig59
                    3D
 Schrodinger Suite 2021-1.
 44 47  0  0  1  0            999 V2000
    2.8261   53.4887   26.8028 C   0  0  0  0  0  0
    5.1781   53.9533   26.4960 N   0  0  0  0  0  0
    4.9708   54.2683   25.1199 C   0  0  0  0  0  0
    4.2069   53.4600   27.3378 C   0  0  0  0  0  0
    6.0413   54.5227   24.3113 N   0  0  0  0  0  0
    1.6828   53.0115   27.6568 C   0  0  0  0  0  0
    3.6725   54.1893   24.6022 C   0  0  0  0  0  0
    2.5900   53.8617   25.5215 C   0  0  0  0  0  0
    1.4662   53.5171   28.9653 C   0  0  0  0  0  0
    0.5480   52.8782   29.8250 C   0  0  0  0  0  0
    5.7864   54.6626   22.9834 C   0  0  0  0  0  0
    0.4789   53.1905   31.2876 C   0  0  0  0  0  0
    4.5709   54.4944   22.4009 N   0  0  0  0  0  0
   -0.2721   51.8630   29.3388 C   0  0  0  0  0  0
    0.8144   51.9916   27.1925 C   0  0  0  0  0  0
    3.5181   54.2629   23.2201 C   0  0  0  0  0  0
    6.8792   55.0731   22.2137 N   0  0  0  0  0  0
    4.4677   53.0179   28.4622 O   0  0  0  0  0  0
    0.0791   54.2630   31.7132 O   0  0  0  0  0  0
   -0.1669   51.4630   28.0204 C   0  0  0  0  0  0
    2.3201   54.9367   29.5146 Cl  0  0  0  0  0  0
    6.5513   54.0666   27.0284 C   0  0  0  0  0  0
    0.8842   52.1712   32.0870 O   0  0  0  0  0  0
    0.8777   51.3243   25.5940 Cl  0  0  0  0  0  0
    7.0481   55.4635   20.8711 C   0  0  0  0  0  0
    8.3315   55.8629   20.4937 C   0  0  0  0  0  0
    6.0245   55.4726   19.9127 C   0  0  0  0  0  0
    8.5977   56.2627   19.1877 C   0  0  0  0  0  0
    6.2844   55.8824   18.6076 C   0  0  0  0  0  0
    7.5701   56.2774   18.2502 C   0  0  0  0  0  0
    1.5767   53.8676   25.1454 H   0  0  0  0  0  0
   -0.9872   51.3621   29.9799 H   0  0  0  0  0  0
    2.5536   54.1425   22.7477 H   0  0  0  0  0  0
    7.7275   55.1254   22.7647 H   0  0  0  0  0  0
   -0.8069   50.6677   27.6613 H   0  0  0  0  0  0
    7.0291   54.9780   26.6683 H   0  0  0  0  0  0
    6.5916   54.1071   28.1201 H   0  0  0  0  0  0
    7.1464   53.2120   26.7042 H   0  0  0  0  0  0
    0.8288   52.4393   33.0088 H   0  0  0  0  0  0
    9.1392   55.8636   21.2107 H   0  0  0  0  0  0
    5.0165   55.1677   20.1394 H   0  0  0  0  0  0
    9.5973   56.5632   18.9079 H   0  0  0  0  0  0
    5.4922   55.8884   17.8737 H   0  0  0  0  0  0
    7.7739   56.5909   17.2361 H   0  0  0  0  0  0
  1  4  1  0  0  0
  1  6  1  0  0  0
  1  8  2  0  0  0
  2  4  1  0  0  0
  2 22  1  0  0  0
  2  3  1  0  0  0
  3  7  1  0  0  0
  3  5  2  0  0  0
  4 18  2  0  0  0
  5 11  1  0  0  0
  6  9  1  0  0  0
  6 15  2  0  0  0
  7  8  1  0  0  0
  7 16  2  0  0  0
  8 31  1  0  0  0
  9 10  2  0  0  0
  9 21  1  0  0  0
 10 12  1  0  0  0
 10 14  1  0  0  0
 11 13  2  0  0  0
 11 17  1  0  0  0
 12 19  2  0  0  0
 12 23  1  0  0  0
 13 16  1  0  0  0
 14 20  2  0  0  0
 14 32  1  0  0  0
 15 20  1  0  0  0
 15 24  1  0  0  0
 16 33  1  0  0  0
 17 25  1  0  0  0
 17 34  1  0  0  0
 20 35  1  0  0  0
 22 36  1  0  0  0
 22 37  1  0  0  0
 22 38  1  0  0  0
 23 39  1  0  0  0
 25 26  1  0  0  0
 25 27  2  0  0  0
 26 28  2  0  0  0
 26 40  1  0  0  0
 27 29  1  0  0  0
 27 41  1  0  0  0
 28 30  1  0  0  0
 28 42  1  0  0  0
 29 30  2  0  0  0
 29 43  1  0  0  0
 30 44  1  0  0  0
M  END
> <s_m_entry_id>
46343

> <s_m_entry_name>
dock_pv.84

> <s_m_Source_Path>
/home/csk/Desktop/cluster/DUD-E-result/wee1

> <s_m_Source_File>
dock_pv.maegz

> <i_m_Source_File_Index>
84

> <chembl_id>
CHEMBL182044

> <chembl_pref_name>
None

> <i_lp_mmshare_version>
53161

> <r_lp_tautomer_probability>
1

> <s_lp_Force_Field>
OPLS_2005

> <r_lp_Energy>
31.086284

> <b_lp_Chiralities_Consistent>
1

> <s_lp_Variant>
CHEMBL5491_lig59-1

> <s_i_glide_gridfile>
glide-grid_3biz

> <i_i_glide_lignum>
57

> <i_i_glide_rotatable_bonds>
5

> <r_i_docking_score>
-7.63626505790909

> <r_i_glide_ligand_efficiency>
-0.25454216859697

> <r_i_glide_ligand_efficiency_sa>
-0.790921699503799

> <r_i_glide_ligand_efficiency_ln>
-1.73504262492885

> <r_i_glide_gscore>
-7.63626505790909

> <r_i_glide_lipo>
-2.65732769910198

> <r_i_glide_hbond>
-0.32

> <r_i_glide_metal>
0

> <r_i_glide_rewards>
-1.63212794617692

> <r_i_glide_evdw>
-47.4989356994629

> <r_i_glide_ecoul>
-7.0811653137207

> <r_i_glide_erotb>
0.410312169401056

> <r_i_glide_esite>
0

> <r_i_glide_emodel>
-68.5185776853488

> <r_i_glide_energy>
-54.5801010131836

> <r_i_glide_einternal>
11.2277126312256

> <i_i_glide_confnum>
22

> <i_i_glide_posenum>
166

> <r_i_glide_eff_state_penalty>
0

> <s_user_duplicate_titles>
CHEMBL5491_lig59

> <i_f3d_flags>
0

> <s_m_subgroup_title>
dock_pv

> <s_m_subgroupid>
dock_pv

> <b_m_subgroup_collapsed>
1

$$$$
CHEMBL5491_lig234
                    3D
 Schrodinger Suite 2021-1.
 50 55  0  0  1  0            999 V2000
    4.0201   53.4512   28.6212 N   0  0  0  0  0  0
    4.4788   52.2630   29.1122 C   0  0  0  0  0  0
    3.8788   51.8658   30.2070 N   0  0  0  0  0  0
    3.0460   52.8453   30.4873 C   0  0  0  0  0  0
    3.1392   53.8844   29.5778 C   0  0  0  0  0  0
   -0.5674   51.1265   26.0616 C   0  0  0  0  0  0
   -0.1683   51.7699   27.2264 C   0  0  0  0  0  0
    0.8891   52.6780   27.2352 C   0  0  0  0  0  0
    0.0931   51.3471   24.8592 C   0  0  0  0  0  0
    1.1756   52.2418   24.8228 C   0  0  0  0  0  0
    1.5578   52.9119   26.0225 C   0  0  0  0  0  0
    2.6066   53.7665   25.7070 N   0  0  0  0  0  0
    2.0508   52.6535   23.7957 C   0  0  0  0  0  0
    2.9083   53.6265   24.3590 C   0  0  0  0  0  0
    3.8787   54.2719   23.5909 C   0  0  0  0  0  0
    4.0800   53.9020   22.2529 C   0  0  0  0  0  0
    2.2351   52.3130   22.4382 C   0  0  0  0  0  0
    3.2287   52.9244   21.7011 C   0  0  0  0  0  0
    3.1537   52.3400   20.3273 C   0  0  0  0  0  0
    2.1763   51.4223   20.3677 N   0  0  0  0  0  0
    1.5531   51.3259   21.5521 C   0  0  0  0  0  0
    3.8100   52.6156   19.3289 O   0  0  0  0  0  0
    0.6243   50.5623   21.7987 O   0  0  0  0  0  0
    5.2037   54.5737   21.5042 C   0  0  0  0  0  0
    6.4748   54.7784   22.0870 C   0  0  0  0  0  0
    7.4743   55.4636   21.3869 C   0  0  0  0  0  0
    7.2509   55.9289   20.0961 C   0  0  0  0  0  0
    6.0137   55.7253   19.5007 C   0  0  0  0  0  0
    5.0092   55.0629   20.2018 C   0  0  0  0  0  0
   -1.6261   50.2630   26.0870 O   0  0  0  0  0  0
    3.2787   54.7118   26.6156 C   0  0  0  0  0  0
    4.4615   54.1240   27.4115 C   0  0  0  0  0  0
    6.8895   54.1242   23.6378 Cl  0  0  0  0  0  0
    5.2571   51.7429   28.5806 H   0  0  0  0  0  0
    2.4187   52.8274   31.3681 H   0  0  0  0  0  0
    2.6470   54.8439   29.5220 H   0  0  0  0  0  0
   -0.6987   51.5714   28.1471 H   0  0  0  0  0  0
    1.1542   53.1845   28.1478 H   0  0  0  0  0  0
   -0.2419   50.8207   23.9817 H   0  0  0  0  0  0
    4.4935   55.0356   24.0392 H   0  0  0  0  0  0
    1.9322   50.8594   19.5673 H   0  0  0  0  0  0
    8.4483   55.6127   21.8251 H   0  0  0  0  0  0
    8.0377   56.4352   19.5562 H   0  0  0  0  0  0
    5.8244   56.0909   18.5012 H   0  0  0  0  0  0
    4.0431   54.9803   19.7273 H   0  0  0  0  0  0
   -1.5617   49.6213   26.8164 H   0  0  0  0  0  0
    3.6520   55.5448   26.0215 H   0  0  0  0  0  0
    2.5311   55.1403   27.2870 H   0  0  0  0  0  0
    5.0426   53.4292   26.8011 H   0  0  0  0  0  0
    5.1435   54.9162   27.7238 H   0  0  0  0  0  0
  1  5  1  0  0  0
  1  2  1  0  0  0
  1 32  1  0  0  0
  2  3  2  0  0  0
  2 34  1  0  0  0
  3  4  1  0  0  0
  4  5  2  0  0  0
  4 35  1  0  0  0
  5 36  1  0  0  0
  6  9  1  0  0  0
  6  7  2  0  0  0
  6 30  1  0  0  0
  7  8  1  0  0  0
  7 37  1  0  0  0
  8 11  2  0  0  0
  8 38  1  0  0  0
  9 10  2  0  0  0
  9 39  1  0  0  0
 10 11  1  0  0  0
 10 13  1  0  0  0
 11 12  1  0  0  0
 12 14  1  0  0  0
 12 31  1  0  0  0
 13 17  1  0  0  0
 13 14  2  0  0  0
 14 15  1  0  0  0
 15 16  2  0  0  0
 15 40  1  0  0  0
 16 18  1  0  0  0
 16 24  1  0  0  0
 17 18  2  0  0  0
 17 21  1  0  0  0
 18 19  1  0  0  0
 19 20  1  0  0  0
 19 22  2  0  0  0
 20 21  1  0  0  0
 20 41  1  0  0  0
 21 23  2  0  0  0
 24 25  2  0  0  0
 24 29  1  0  0  0
 25 26  1  0  0  0
 25 33  1  0  0  0
 26 27  2  0  0  0
 26 42  1  0  0  0
 27 28  1  0  0  0
 27 43  1  0  0  0
 28 29  2  0  0  0
 28 44  1  0  0  0
 29 45  1  0  0  0
 30 46  1  0  0  0
 31 32  1  0  0  0
 31 47  1  0  0  0
 31 48  1  0  0  0
 32 49  1  0  0  0
 32 50  1  0  0  0
M  END
> <s_m_entry_id>
46344

> <s_m_entry_name>
dock_pv.85

> <s_m_Source_Path>
/home/csk/Desktop/cluster/DUD-E-result/wee1

> <s_m_Source_File>
dock_pv.maegz

> <i_m_Source_File_Index>
85

> <chembl_id>
CHEMBL529897

> <chembl_pref_name>
None

> <i_lp_mmshare_version>
53161

> <r_lp_tautomer_probability>
1

> <s_lp_Force_Field>
OPLS_2005

> <r_lp_Energy>
72.644571

> <b_lp_Chiralities_Consistent>
1

> <s_lp_Variant>
CHEMBL5491_lig234-1

> <s_i_glide_gridfile>
glide-grid_3biz

> <i_i_glide_lignum>
246

> <i_i_glide_rotatable_bonds>
5

> <r_i_docking_score>
-7.61776701369901

> <r_i_glide_ligand_efficiency>
-0.230841424657546

> <r_i_glide_ligand_efficiency_sa>
-0.740431793511248

> <r_i_glide_ligand_efficiency_ln>
-1.69415194115999

> <r_i_glide_gscore>
-7.61776701369901

> <r_i_glide_lipo>
-2.62156716370505

> <r_i_glide_hbond>
-0.389675026436196

> <r_i_glide_metal>
0

> <r_i_glide_rewards>
-2.02359820231297

> <r_i_glide_evdw>
-38.2475280761719

> <r_i_glide_ecoul>
-6.73613595962524

> <r_i_glide_erotb>
0.385178463410628

> <r_i_glide_esite>
-0.0453082869030445

> <r_i_glide_emodel>
-63.0236826006015

> <r_i_glide_energy>
-44.9836640357971

> <r_i_glide_einternal>
7.61800193786621

> <i_i_glide_confnum>
5

> <i_i_glide_posenum>
227

> <r_i_glide_eff_state_penalty>
0

> <s_user_duplicate_titles>
CHEMBL5491_lig234,452038

> <i_f3d_flags>
0

> <s_m_subgroup_title>
dock_pv

> <s_m_subgroupid>
dock_pv

> <b_m_subgroup_collapsed>
1

$$$$
CHEMBL5491_lig127
                    3D
 Schrodinger Suite 2021-1.
 42 46  0  0  1  0            999 V2000
    2.6110   53.7006   29.2976 C   0  0  0  0  0  0
    3.8710   54.1385   29.6873 C   0  0  0  0  0  0
    4.8754   54.4257   28.7685 C   0  0  0  0  0  0
    2.3077   53.5140   27.9510 C   0  0  0  0  0  0
    3.2892   53.8057   26.9833 C   0  0  0  0  0  0
    4.5599   54.2666   27.4190 C   0  0  0  0  0  0
    5.3207   54.5104   26.2994 N   0  0  0  0  0  0
    3.3329   53.7360   25.5697 C   0  0  0  0  0  0
    4.6066   54.2073   25.1643 C   0  0  0  0  0  0
    4.9949   54.2628   23.8242 C   0  0  0  0  0  0
    4.0861   53.8539   22.8350 C   0  0  0  0  0  0
    2.4565   53.2842   24.5657 C   0  0  0  0  0  0
    2.8230   53.3580   23.2372 C   0  0  0  0  0  0
    1.6649   52.7979   22.4634 C   0  0  0  0  0  0
    0.7587   52.4151   23.3740 N   0  0  0  0  0  0
    1.1297   52.6130   24.6442 C   0  0  0  0  0  0
    1.5036   52.6613   21.2567 O   0  0  0  0  0  0
    0.4801   52.2687   25.6273 O   0  0  0  0  0  0
    1.6627   53.4650   30.2554 O   0  0  0  0  0  0
    4.5517   53.9444   21.4140 C   0  0  0  0  0  0
    5.2829   55.0608   20.9819 C   0  0  0  0  0  0
    5.7404   55.2016   19.6656 C   0  0  0  0  0  0
    5.4403   54.1866   18.7488 C   0  0  0  0  0  0
    4.7299   53.0631   19.1584 C   0  0  0  0  0  0
    4.3303   52.9254   20.4834 C   0  0  0  0  0  0
    6.5342   56.4154   19.2852 C   0  0  0  0  0  0
    6.8788   57.2855   20.0869 O   0  0  0  0  0  0
    6.9147   56.5980   17.8168 C   0  0  0  0  0  0
    4.0830   54.2615   30.7372 H   0  0  0  0  0  0
    5.8448   54.7751   29.0952 H   0  0  0  0  0  0
    1.3268   53.1650   27.6794 H   0  0  0  0  0  0
    6.2710   54.8404   26.3157 H   0  0  0  0  0  0
    5.9851   54.6075   23.5621 H   0  0  0  0  0  0
   -0.1086   51.9654   23.1262 H   0  0  0  0  0  0
    1.9452   53.7761   31.1240 H   0  0  0  0  0  0
    5.4914   55.8517   21.6870 H   0  0  0  0  0  0
    5.7538   54.2394   17.7161 H   0  0  0  0  0  0
    4.4954   52.2808   18.4517 H   0  0  0  0  0  0
    3.8311   52.0139   20.7692 H   0  0  0  0  0  0
    7.5566   55.7815   17.4868 H   0  0  0  0  0  0
    7.4353   57.5442   17.6653 H   0  0  0  0  0  0
    6.0203   56.5905   17.1957 H   0  0  0  0  0  0
  1  2  2  0  0  0
  1 19  1  0  0  0
  1  4  1  0  0  0
  2  3  1  0  0  0
  2 29  1  0  0  0
  3  6  2  0  0  0
  3 30  1  0  0  0
  4  5  2  0  0  0
  4 31  1  0  0  0
  5  8  1  0  0  0
  5  6  1  0  0  0
  6  7  1  0  0  0
  7  9  1  0  0  0
  7 32  1  0  0  0
  8  9  2  0  0  0
  8 12  1  0  0  0
  9 10  1  0  0  0
 10 11  2  0  0  0
 10 33  1  0  0  0
 11 13  1  0  0  0
 11 20  1  0  0  0
 12 16  1  0  0  0
 12 13  2  0  0  0
 13 14  1  0  0  0
 14 15  1  0  0  0
 14 17  2  0  0  0
 15 16  1  0  0  0
 15 34  1  0  0  0
 16 18  2  0  0  0
 19 35  1  0  0  0
 20 21  2  0  0  0
 20 25  1  0  0  0
 21 22  1  0  0  0
 21 36  1  0  0  0
 22 23  2  0  0  0
 22 26  1  0  0  0
 23 24  1  0  0  0
 23 37  1  0  0  0
 24 25  2  0  0  0
 24 38  1  0  0  0
 25 39  1  0  0  0
 26 27  2  0  0  0
 26 28  1  0  0  0
 28 40  1  0  0  0
 28 41  1  0  0  0
 28 42  1  0  0  0
M  END
> <s_m_entry_id>
46345

> <s_m_entry_name>
dock_pv.86

> <s_m_Source_Path>
/home/csk/Desktop/cluster/DUD-E-result/wee1

> <s_m_Source_File>
dock_pv.maegz

> <i_m_Source_File_Index>
86

> <chembl_id>
CHEMBL379322

> <chembl_pref_name>
None

> <i_lp_mmshare_version>
53161

> <r_lp_tautomer_probability>
0.99995

> <s_lp_Force_Field>
OPLS_2005

> <r_lp_Energy>
72.241715

> <b_lp_Chiralities_Consistent>
1

> <s_lp_Variant>
CHEMBL5491_lig127-1

> <s_i_glide_gridfile>
glide-grid_3biz

> <i_i_glide_lignum>
129

> <i_i_glide_rotatable_bonds>
3

> <r_i_docking_score>
-7.61289003655101

> <r_i_glide_ligand_efficiency>
-0.271888929876822

> <r_i_glide_ligand_efficiency_sa>
-0.825614925121993

> <r_i_glide_ligand_efficiency_ln>
-1.75727854460018

> <r_i_glide_gscore>
-7.61289003655101

> <r_i_glide_lipo>
-2.93394996659581

> <r_i_glide_hbond>
-0.608

> <r_i_glide_metal>
0

> <r_i_glide_rewards>
-1.36416874931267

> <r_i_glide_evdw>
-37.5004425048828

> <r_i_glide_ecoul>
-6.48261165618896

> <r_i_glide_erotb>
0.140642553029954

> <r_i_glide_esite>
0

> <r_i_glide_emodel>
-60.8546358704371

> <r_i_glide_energy>
-43.9830541610718

> <r_i_glide_einternal>
3.30108213424683

> <i_i_glide_confnum>
1

> <i_i_glide_posenum>
2

> <r_i_glide_eff_state_penalty>
0

> <s_user_duplicate_titles>
CHEMBL5491_lig127

> <i_f3d_flags>
0

> <s_m_subgroup_title>
dock_pv

> <s_m_subgroupid>
dock_pv

> <b_m_subgroup_collapsed>
1

$$$$
CHEMBL5491_lig225
                    3D
 Schrodinger Suite 2021-1.
 59 64  0  0  1  0            999 V2000
    0.9153   52.3432   28.9128 C   0  0  0  0  0  0
   -0.1418   51.8623   28.1504 C   0  0  0  0  0  0
   -0.1420   51.9511   26.7597 C   0  0  0  0  0  0
    2.0316   52.9100   28.3039 C   0  0  0  0  0  0
    2.0771   53.0205   26.8994 C   0  0  0  0  0  0
    0.9674   52.5561   26.1452 C   0  0  0  0  0  0
    1.2187   52.8497   24.8102 N   0  0  0  0  0  0
    3.0402   53.5030   25.9807 C   0  0  0  0  0  0
    2.4798   53.4247   24.6833 C   0  0  0  0  0  0
    3.1803   53.8627   23.5443 C   0  0  0  0  0  0
    4.5404   54.2240   23.6470 C   0  0  0  0  0  0
    4.3430   54.0153   26.0944 C   0  0  0  0  0  0
    5.0631   54.3668   24.9637 C   0  0  0  0  0  0
    6.3569   54.9069   25.4899 C   0  0  0  0  0  0
    6.3400   54.7406   26.8192 N   0  0  0  0  0  0
    5.2006   54.2358   27.2934 C   0  0  0  0  0  0
    7.2790   55.4429   24.9040 O   0  0  0  0  0  0
    4.9730   54.0320   28.4813 O   0  0  0  0  0  0
    5.3050   54.4073   22.3312 C   0  0  0  0  0  0
    5.0921   53.5628   21.2051 C   0  0  0  0  0  0
    5.6340   53.8631   19.9503 C   0  0  0  0  0  0
    6.4618   54.9678   19.7810 C   0  0  0  0  0  0
    6.7796   55.7465   20.8805 C   0  0  0  0  0  0
    6.2174   55.4629   22.1217 C   0  0  0  0  0  0
    0.8627   52.2634   30.2781 O   0  0  0  0  0  0
    0.2541   52.6578   23.7257 C   0  0  0  0  0  0
    0.6839   51.6308   22.6575 C   0  0  0  0  0  0
    0.8736   50.1820   23.1676 C   0  0  0  0  0  0
    0.8478   49.1590   22.1141 N   0  0  0  0  0  0
    1.9067   49.3149   21.1053 C   0  0  0  0  0  0
    1.8532   48.1929   20.0469 C   0  0  0  0  0  0
    0.5501   48.1107   19.4737 O   0  0  0  0  0  0
   -0.4608   47.8458   20.4417 C   0  0  0  0  0  0
   -0.4815   48.9484   21.5238 C   0  0  0  0  0  0
    4.2094   52.0759   21.2869 Cl  0  0  0  0  0  0
   -0.9888   51.4004   28.6396 H   0  0  0  0  0  0
   -0.9821   51.5701   26.1995 H   0  0  0  0  0  0
    2.8310   53.2577   28.9330 H   0  0  0  0  0  0
    2.7084   53.8348   22.5747 H   0  0  0  0  0  0
    7.0949   55.0120   27.4312 H   0  0  0  0  0  0
    5.4316   53.2160   19.1061 H   0  0  0  0  0  0
    6.8881   55.1870   18.8120 H   0  0  0  0  0  0
    7.4516   56.5835   20.7723 H   0  0  0  0  0  0
    6.4778   56.1586   22.9010 H   0  0  0  0  0  0
    0.0468   51.8779   30.6113 H   0  0  0  0  0  0
    0.0831   53.6341   23.2870 H   0  0  0  0  0  0
   -0.7072   52.3582   24.1440 H   0  0  0  0  0  0
    1.6411   51.9559   22.2615 H   0  0  0  0  0  0
    0.0194   51.6773   21.7969 H   0  0  0  0  0  0
    0.1400   49.9448   23.9393 H   0  0  0  0  0  0
    1.8351   50.1065   23.6784 H   0  0  0  0  0  0
    2.8765   49.3075   21.6034 H   0  0  0  0  0  0
    1.8266   50.2849   20.6124 H   0  0  0  0  0  0
    2.5721   48.3958   19.2513 H   0  0  0  0  0  0
    2.1358   47.2360   20.4863 H   0  0  0  0  0  0
   -1.4241   47.8116   19.9346 H   0  0  0  0  0  0
   -0.3216   46.8591   20.8844 H   0  0  0  0  0  0
   -0.8622   49.8710   21.0866 H   0  0  0  0  0  0
   -1.1822   48.6801   22.3153 H   0  0  0  0  0  0
  1  2  2  0  0  0
  1  4  1  0  0  0
  1 25  1  0  0  0
  2  3  1  0  0  0
  2 36  1  0  0  0
  3  6  2  0  0  0
  3 37  1  0  0  0
  4  5  2  0  0  0
  4 38  1  0  0  0
  5  8  1  0  0  0
  5  6  1  0  0  0
  6  7  1  0  0  0
  7 26  1  0  0  0
  7  9  1  0  0  0
  8  9  2  0  0  0
  8 12  1  0  0  0
  9 10  1  0  0  0
 10 11  2  0  0  0
 10 39  1  0  0  0
 11 19  1  0  0  0
 11 13  1  0  0  0
 12 16  1  0  0  0
 12 13  2  0  0  0
 13 14  1  0  0  0
 14 17  2  0  0  0
 14 15  1  0  0  0
 15 16  1  0  0  0
 15 40  1  0  0  0
 16 18  2  0  0  0
 19 20  2  0  0  0
 19 24  1  0  0  0
 20 21  1  0  0  0
 20 35  1  0  0  0
 21 22  2  0  0  0
 21 41  1  0  0  0
 22 23  1  0  0  0
 22 42  1  0  0  0
 23 24  2  0  0  0
 23 43  1  0  0  0
 24 44  1  0  0  0
 25 45  1  0  0  0
 26 27  1  0  0  0
 26 46  1  0  0  0
 26 47  1  0  0  0
 27 28  1  0  0  0
 27 48  1  0  0  0
 27 49  1  0  0  0
 28 29  1  0  0  0
 28 50  1  0  0  0
 28 51  1  0  0  0
 29 30  1  0  0  0
 29 34  1  0  0  0
 30 31  1  0  0  0
 30 52  1  0  0  0
 30 53  1  0  0  0
 31 32  1  0  0  0
 31 54  1  0  0  0
 31 55  1  0  0  0
 32 33  1  0  0  0
 33 34  1  0  0  0
 33 56  1  0  0  0
 33 57  1  0  0  0
 34 58  1  0  0  0
 34 59  1  0  0  0
M  END
> <s_m_entry_id>
46346

> <s_m_entry_name>
dock_pv.87

> <s_m_Source_Path>
/home/csk/Desktop/cluster/DUD-E-result/wee1

> <s_m_Source_File>
dock_pv.maegz

> <i_m_Source_File_Index>
87

> <chembl_id>
CHEMBL486661

> <chembl_pref_name>
None

> <i_lp_mmshare_version>
53161

> <r_lp_tautomer_probability>
1

> <s_lp_Force_Field>
OPLS_2005

> <r_lp_Energy>
88.919528

> <b_lp_Chiralities_Consistent>
1

> <s_lp_Variant>
CHEMBL5491_lig225-1

> <s_i_glide_gridfile>
glide-grid_3biz

> <i_i_glide_lignum>
237

> <i_i_glide_rotatable_bonds>
6

> <r_i_docking_score>
-7.60687035198417

> <r_i_glide_ligand_efficiency>
-0.217339152913833

> <r_i_glide_ligand_efficiency_sa>
-0.710930780138831

> <r_i_glide_ligand_efficiency_ln>
-1.66987686765192

> <r_i_glide_gscore>
-7.60687035198417

> <r_i_glide_lipo>
-3.1814572192111

> <r_i_glide_hbond>
-0.300695954896059

> <r_i_glide_metal>
0

> <r_i_glide_rewards>
-2.00798995865494

> <r_i_glide_evdw>
-48.1051940917969

> <r_i_glide_ecoul>
-0.336760461330414

> <r_i_glide_erotb>
0.339046554567333

> <r_i_glide_esite>
0

> <r_i_glide_emodel>
-61.4408766006456

> <r_i_glide_energy>
-48.4419545531273

> <r_i_glide_einternal>
12.2441110610962

> <i_i_glide_confnum>
40

> <i_i_glide_posenum>
317

> <r_i_glide_eff_state_penalty>
0

> <s_user_duplicate_titles>
CHEMBL5491_lig225,451194

> <i_f3d_flags>
0

> <s_m_subgroup_title>
dock_pv

> <s_m_subgroupid>
dock_pv

> <b_m_subgroup_collapsed>
1

$$$$
CHEMBL5491_lig3
                    3D
 Schrodinger Suite 2021-1.
 26 28  0  0  1  0            999 V2000
    3.2923   53.8937   23.3516 C   0  0  0  0  0  0
    4.3090   54.2627   22.4764 C   0  0  0  0  0  0
    5.5762   54.6393   22.9362 C   0  0  0  0  0  0
    3.4691   53.8840   24.7423 C   0  0  0  0  0  0
    4.7367   54.2844   25.2271 C   0  0  0  0  0  0
    5.7747   54.6618   24.3313 C   0  0  0  0  0  0
    6.8783   55.0383   25.0342 N   0  0  0  0  0  0
    6.4974   54.8541   26.3644 O   0  0  0  0  0  0
    5.1906   54.3822   26.5085 N   0  0  0  0  0  0
    2.3620   53.4629   25.6342 N   0  3  0  0  0  0
    2.4597   53.6606   26.8401 O   0  0  0  0  0  0
    1.3771   52.9388   25.1231 O   0  5  0  0  0  0
    6.8976   55.1427   21.8467 S   0  0  0  0  0  0
    6.2260   55.2819   20.1967 C   0  0  0  0  0  0
    5.6791   54.1781   19.5298 C   0  0  0  0  0  0
    5.1759   54.3354   18.2375 C   0  0  0  0  0  0
    5.2420   55.5825   17.6145 C   0  0  0  0  0  0
    5.8325   56.6501   18.2936 C   0  0  0  0  0  0
    6.3146   56.4730   19.5427 N   0  3  0  0  0  0
    6.8790   57.4631   20.0873 O   0  5  0  0  0  0
    2.3382   53.6134   22.9257 H   0  0  0  0  0  0
    4.0632   54.2662   21.4279 H   0  0  0  0  0  0
    5.6380   53.2067   20.0022 H   0  0  0  0  0  0
    4.7426   53.4896   17.7212 H   0  0  0  0  0  0
    4.8566   55.7136   16.6130 H   0  0  0  0  0  0
    5.9451   57.6424   17.8782 H   0  0  0  0  0  0
  1  2  1  0  0  0
  1  4  2  0  0  0
  1 21  1  0  0  0
  2  3  2  0  0  0
  2 22  1  0  0  0
  3 13  1  0  0  0
  3  6  1  0  0  0
  4  5  1  0  0  0
  4 10  1  0  0  0
  5  6  1  0  0  0
  5  9  2  0  0  0
  6  7  2  0  0  0
  7  8  1  0  0  0
  8  9  1  0  0  0
 10 11  2  0  0  0
 10 12  1  0  0  0
 13 14  1  0  0  0
 14 15  2  0  0  0
 14 19  1  0  0  0
 15 16  1  0  0  0
 15 23  1  0  0  0
 16 17  2  0  0  0
 16 24  1  0  0  0
 17 18  1  0  0  0
 17 25  1  0  0  0
 18 19  2  0  0  0
 18 26  1  0  0  0
 19 20  1  0  0  0
M  CHG  4  10   1  12  -1  19   1  20  -1
M  END
> <s_m_entry_id>
46347

> <s_m_entry_name>
dock_pv.88

> <s_m_Source_Path>
/home/csk/Desktop/cluster/DUD-E-result/wee1

> <s_m_Source_File>
dock_pv.maegz

> <i_m_Source_File_Index>
88

> <chembl_id>
CHEMBL505670

> <chembl_pref_name>
None

> <i_lp_mmshare_version>
53161

> <r_lp_tautomer_probability>
1

> <s_lp_Force_Field>
OPLS_2005

> <r_lp_Energy>
18.662752

> <b_lp_Chiralities_Consistent>
1

> <s_lp_Variant>
CHEMBL5491_lig3-1

> <s_i_glide_gridfile>
glide-grid_3biz

> <i_i_glide_lignum>
3

> <i_i_glide_rotatable_bonds>
3

> <r_i_docking_score>
-7.60277531666592

> <r_i_glide_ligand_efficiency>
-0.380138765833296

> <r_i_glide_ligand_efficiency_sa>
-1.03185536169816

> <r_i_glide_ligand_efficiency_ln>
-1.90272390544917

> <r_i_glide_gscore>
-7.60277531666592

> <r_i_glide_lipo>
-1.85429497365048

> <r_i_glide_hbond>
-0.16

> <r_i_glide_metal>
0

> <r_i_glide_rewards>
-1.87802865646934

> <r_i_glide_evdw>
-28.8109741210938

> <r_i_glide_ecoul>
-18.0165500640869

> <r_i_glide_erotb>
0.432579529121618

> <r_i_glide_esite>
0

> <r_i_glide_emodel>
-64.6795274714901

> <r_i_glide_energy>
-46.8275241851807

> <r_i_glide_einternal>
0.95899224281311

> <i_i_glide_confnum>
4

> <i_i_glide_posenum>
236

> <r_i_glide_eff_state_penalty>
0

> <s_user_duplicate_titles>
CHEMBL5491_lig3

> <i_f3d_flags>
0

> <s_m_subgroup_title>
dock_pv

> <s_m_subgroupid>
dock_pv

> <b_m_subgroup_collapsed>
1

$$$$
CHEMBL5491_lig118
                    3D
 Schrodinger Suite 2021-1.
 42 46  0  0  1  0            999 V2000
    3.0624   53.3838   29.2742 C   0  0  0  0  0  0
    1.7496   52.9311   29.2012 C   0  0  0  0  0  0
    1.0957   52.7897   27.9792 C   0  0  0  0  0  0
    3.7735   53.7420   28.1320 C   0  0  0  0  0  0
    3.1509   53.6255   26.8782 C   0  0  0  0  0  0
    1.8158   53.1322   26.8294 C   0  0  0  0  0  0
    1.4551   53.0632   25.5038 N   0  0  0  0  0  0
    3.5726   53.8553   25.5438 C   0  0  0  0  0  0
    2.4811   53.5179   24.7051 C   0  0  0  0  0  0
    2.5470   53.6193   23.3165 C   0  0  0  0  0  0
    3.7889   53.8630   22.7096 C   0  0  0  0  0  0
    4.7698   54.2631   24.9212 C   0  0  0  0  0  0
    4.8714   54.2406   23.5416 C   0  0  0  0  0  0
    6.2747   54.6627   23.2302 C   0  0  0  0  0  0
    6.8785   54.8599   24.4090 N   0  0  0  0  0  0
    6.0912   54.6737   25.4771 C   0  0  0  0  0  0
    6.8232   54.8452   22.1510 O   0  0  0  0  0  0
    6.4466   54.8195   26.6428 O   0  0  0  0  0  0
    3.6790   53.4630   30.4870 O   0  0  0  0  0  0
    3.8781   53.6718   21.2142 C   0  0  0  0  0  0
    3.3136   52.5587   20.5352 C   0  0  0  0  0  0
    3.3747   52.4652   19.1416 C   0  0  0  0  0  0
    4.0019   53.4518   18.3894 C   0  0  0  0  0  0
    4.5673   54.5456   19.0295 C   0  0  0  0  0  0
    4.4960   54.6463   20.4165 C   0  0  0  0  0  0
    2.4786   51.1625   21.3922 S   0  0  2  0  0  0
    2.8682   49.8888   20.6452 O   0  0  0  0  0  0
    0.7653   51.5683   20.8055 C   0  0  0  0  0  0
    1.2284   52.6600   30.1083 H   0  0  0  0  0  0
    0.0843   52.4114   27.9326 H   0  0  0  0  0  0
    4.7909   54.0838   28.2306 H   0  0  0  0  0  0
    0.5662   52.7230   25.1677 H   0  0  0  0  0  0
    1.6781   53.3978   22.7213 H   0  0  0  0  0  0
    7.8544   55.1160   24.4589 H   0  0  0  0  0  0
    3.1271   53.8256   31.1943 H   0  0  0  0  0  0
    2.9679   51.5995   18.6364 H   0  0  0  0  0  0
    4.0606   53.3557   17.3151 H   0  0  0  0  0  0
    5.0589   55.3163   18.4544 H   0  0  0  0  0  0
    4.9348   55.5070   20.8778 H   0  0  0  0  0  0
    0.4860   52.5915   21.0485 H   0  0  0  0  0  0
    0.7040   51.4444   19.7251 H   0  0  0  0  0  0
    0.0504   50.8862   21.2634 H   0  0  0  0  0  0
  1  2  2  0  0  0
  1 19  1  0  0  0
  1  4  1  0  0  0
  2  3  1  0  0  0
  2 29  1  0  0  0
  3  6  2  0  0  0
  3 30  1  0  0  0
  4  5  2  0  0  0
  4 31  1  0  0  0
  5  8  1  0  0  0
  5  6  1  0  0  0
  6  7  1  0  0  0
  7  9  1  0  0  0
  7 32  1  0  0  0
  8  9  2  0  0  0
  8 12  1  0  0  0
  9 10  1  0  0  0
 10 11  2  0  0  0
 10 33  1  0  0  0
 11 13  1  0  0  0
 11 20  1  0  0  0
 12 16  1  0  0  0
 12 13  2  0  0  0
 13 14  1  0  0  0
 14 15  1  0  0  0
 14 17  2  0  0  0
 15 16  1  0  0  0
 15 34  1  0  0  0
 16 18  2  0  0  0
 19 35  1  0  0  0
 20 21  2  0  0  0
 20 25  1  0  0  0
 21 22  1  0  0  0
 21 26  1  0  0  0
 22 23  2  0  0  0
 22 36  1  0  0  0
 23 24  1  0  0  0
 23 37  1  0  0  0
 24 25  2  0  0  0
 24 38  1  0  0  0
 25 39  1  0  0  0
 26 27  2  0  0  0
 26 28  1  0  0  0
 28 40  1  0  0  0
 28 41  1  0  0  0
 28 42  1  0  0  0
M  END
> <s_m_entry_id>
46348

> <s_m_entry_name>
dock_pv.89

> <s_m_Source_Path>
/home/csk/Desktop/cluster/DUD-E-result/wee1

> <s_m_Source_File>
dock_pv.maegz

> <i_m_Source_File_Index>
89

> <chembl_id>
CHEMBL209785

> <chembl_pref_name>
None

> <i_lp_mmshare_version>
53161

> <r_lp_tautomer_probability>
1

> <s_lp_Force_Field>
OPLS_2005

> <r_lp_Energy>
64.511802

> <b_lp_Chiralities_Consistent>
1

> <s_lp_Variant>
CHEMBL5491_lig118-1

> <s_i_glide_gridfile>
glide-grid_3biz

> <i_i_glide_lignum>
119

> <i_i_glide_rotatable_bonds>
3

> <r_i_docking_score>
-7.5800616179987

> <r_i_glide_ligand_efficiency>
-0.270716486357096

> <r_i_glide_ligand_efficiency_sa>
-0.822054696063802

> <r_i_glide_ligand_efficiency_ln>
-1.74970078171405

> <r_i_glide_gscore>
-7.5800616179987

> <r_i_glide_lipo>
-2.52902356231685

> <r_i_glide_hbond>
-0.593321102405014

> <r_i_glide_metal>
0

> <r_i_glide_rewards>
-1.76273647893856

> <r_i_glide_evdw>
-39.7000389099121

> <r_i_glide_ecoul>
-5.58626842498779

> <r_i_glide_erotb>
0.127961734905502

> <r_i_glide_esite>
0

> <r_i_glide_emodel>
-60.6338503279421

> <r_i_glide_energy>
-45.2863073348999

> <r_i_glide_einternal>
6.2182445526123

> <i_i_glide_confnum>
2

> <i_i_glide_posenum>
261

> <r_i_glide_eff_state_penalty>
0

> <s_user_duplicate_titles>
CHEMBL5491_lig118,355611

> <i_f3d_flags>
0

> <s_m_subgroup_title>
dock_pv

> <s_m_subgroupid>
dock_pv

> <b_m_subgroup_collapsed>
1

$$$$
CHEMBL5491_lig125
                    3D
 Schrodinger Suite 2021-1.
 42 46  0  0  1  0            999 V2000
    5.5309   54.6978   19.7245 C   0  0  0  0  0  0
    6.7519   55.2978   20.0199 C   0  0  0  0  0  0
    7.1886   55.4655   21.3338 C   0  0  0  0  0  0
    4.6788   54.2628   20.7378 C   0  0  0  0  0  0
    5.0625   54.4481   22.0783 C   0  0  0  0  0  0
    6.3279   55.0379   22.3501 C   0  0  0  0  0  0
    6.4802   55.0632   23.7185 N   0  0  0  0  0  0
    4.4372   54.1889   23.3239 C   0  0  0  0  0  0
    5.3463   54.5869   24.3437 C   0  0  0  0  0  0
    5.0475   54.4635   25.7061 C   0  0  0  0  0  0
    3.8089   53.9162   26.0689 C   0  0  0  0  0  0
    3.1993   53.6462   23.7241 C   0  0  0  0  0  0
    2.9073   53.5211   25.0632 C   0  0  0  0  0  0
    1.5711   52.8592   25.1510 C   0  0  0  0  0  0
    1.1746   52.6665   23.8837 N   0  0  0  0  0  0
    2.0593   53.0667   22.9583 C   0  0  0  0  0  0
    0.9316   52.5252   26.1442 O   0  0  0  0  0  0
    1.9145   52.9325   21.7482 O   0  0  0  0  0  0
    5.1662   54.5380   18.4148 O   0  0  0  0  0  0
    3.5286   53.6819   27.5108 C   0  0  0  0  0  0
    2.3874   54.2038   28.1310 C   0  0  0  0  0  0
    2.0676   53.8822   29.4520 C   0  0  0  0  0  0
    2.9238   53.0378   30.1710 C   0  0  0  0  0  0
    4.0789   52.5392   29.5806 C   0  0  0  0  0  0
    4.3871   52.8753   28.2656 C   0  0  0  0  0  0
    0.7881   54.4704   30.0398 C   0  0  0  0  0  0
    0.4783   54.0172   31.3832 N   0  0  0  0  0  0
    7.3884   55.6172   19.2069 H   0  0  0  0  0  0
    8.1519   55.9072   21.5493 H   0  0  0  0  0  0
    3.7290   53.8241   20.4817 H   0  0  0  0  0  0
    7.3121   55.3947   24.1850 H   0  0  0  0  0  0
    5.7589   54.7589   26.4641 H   0  0  0  0  0  0
    0.3050   52.2148   23.6484 H   0  0  0  0  0  0
    4.3414   54.0569   18.3052 H   0  0  0  0  0  0
    1.7154   54.8314   27.5673 H   0  0  0  0  0  0
    2.7123   52.7698   31.1957 H   0  0  0  0  0  0
    4.7344   51.8861   30.1398 H   0  0  0  0  0  0
    5.2745   52.4556   27.8126 H   0  0  0  0  0  0
   -0.0490   54.2146   29.3902 H   0  0  0  0  0  0
    0.8797   55.5569   30.0590 H   0  0  0  0  0  0
    0.3609   53.0130   31.4224 H   0  0  0  0  0  0
    1.2415   54.2637   32.0115 H   0  0  0  0  0  0
  1  2  2  0  0  0
  1 19  1  0  0  0
  1  4  1  0  0  0
  2  3  1  0  0  0
  2 28  1  0  0  0
  3  6  2  0  0  0
  3 29  1  0  0  0
  4  5  2  0  0  0
  4 30  1  0  0  0
  5  8  1  0  0  0
  5  6  1  0  0  0
  6  7  1  0  0  0
  7  9  1  0  0  0
  7 31  1  0  0  0
  8  9  2  0  0  0
  8 12  1  0  0  0
  9 10  1  0  0  0
 10 11  2  0  0  0
 10 32  1  0  0  0
 11 13  1  0  0  0
 11 20  1  0  0  0
 12 16  1  0  0  0
 12 13  2  0  0  0
 13 14  1  0  0  0
 14 15  1  0  0  0
 14 17  2  0  0  0
 15 16  1  0  0  0
 15 33  1  0  0  0
 16 18  2  0  0  0
 19 34  1  0  0  0
 20 21  2  0  0  0
 20 25  1  0  0  0
 21 22  1  0  0  0
 21 35  1  0  0  0
 22 23  2  0  0  0
 22 26  1  0  0  0
 23 24  1  0  0  0
 23 36  1  0  0  0
 24 25  2  0  0  0
 24 37  1  0  0  0
 25 38  1  0  0  0
 26 27  1  0  0  0
 26 39  1  0  0  0
 26 40  1  0  0  0
 27 41  1  0  0  0
 27 42  1  0  0  0
M  END
> <s_m_entry_id>
46349

> <s_m_entry_name>
dock_pv.90

> <s_m_Source_Path>
/home/csk/Desktop/cluster/DUD-E-result/wee1

> <s_m_Source_File>
dock_pv.maegz

> <i_m_Source_File_Index>
90

> <chembl_id>
CHEMBL385828

> <chembl_pref_name>
None

> <i_lp_mmshare_version>
53161

> <r_lp_tautomer_probability>
1

> <s_lp_Force_Field>
OPLS_2005

> <r_lp_Energy>
67.456781

> <b_lp_Chiralities_Consistent>
1

> <s_lp_Variant>
CHEMBL5491_lig125-1

> <s_i_glide_gridfile>
glide-grid_3biz

> <i_i_glide_lignum>
127

> <i_i_glide_rotatable_bonds>
3

> <r_i_docking_score>
-7.5630004938833

> <r_i_glide_ligand_efficiency>
-0.280111129403085

> <r_i_glide_ligand_efficiency_sa>
-0.840333387286055

> <r_i_glide_ligand_efficiency_ln>
-1.76054182916817

> <r_i_glide_gscore>
-7.5630004938833

> <r_i_glide_lipo>
-3.3622919733793

> <r_i_glide_hbond>
-0.360330433992528

> <r_i_glide_metal>
0

> <r_i_glide_rewards>
-1.46039614433561

> <r_i_glide_evdw>
-38.664134979248

> <r_i_glide_ecoul>
-3.97782492637634

> <r_i_glide_erotb>
0.149898545742985

> <r_i_glide_esite>
0

> <r_i_glide_emodel>
-61.1846696663281

> <r_i_glide_energy>
-42.6419599056244

> <r_i_glide_einternal>
0.37191104888916

> <i_i_glide_confnum>
4

> <i_i_glide_posenum>
379

> <r_i_glide_eff_state_penalty>
0

> <s_user_duplicate_titles>
CHEMBL5491_lig125

> <i_f3d_flags>
0

> <s_m_subgroup_title>
dock_pv

> <s_m_subgroupid>
dock_pv

> <b_m_subgroup_collapsed>
1

$$$$
CHEMBL5491_lig128
                    3D
 Schrodinger Suite 2021-1.
 38 42  0  0  1  0            999 V2000
    5.0309   54.5858   20.7776 C   0  0  0  0  0  0
    6.2640   55.0631   21.2070 C   0  0  0  0  0  0
    6.6126   55.0863   22.5570 C   0  0  0  0  0  0
    4.0795   54.1351   21.6901 C   0  0  0  0  0  0
    4.3688   54.1932   23.0646 C   0  0  0  0  0  0
    5.6458   54.6630   23.4759 C   0  0  0  0  0  0
    5.6578   54.6674   24.8552 N   0  0  0  0  0  0
    3.6426   53.8631   24.2320 C   0  0  0  0  0  0
    4.4509   54.2171   25.3484 C   0  0  0  0  0  0
    4.0138   54.0592   26.6709 C   0  0  0  0  0  0
    2.7566   53.4760   26.8883 C   0  0  0  0  0  0
    2.3961   53.2573   24.4894 C   0  0  0  0  0  0
    1.9963   53.0472   25.7878 C   0  0  0  0  0  0
    0.7228   52.2631   25.7260 C   0  0  0  0  0  0
    0.4400   52.1366   24.4191 N   0  0  0  0  0  0
    1.3466   52.6894   23.5960 C   0  0  0  0  0  0
    0.0393   51.8221   26.6449 O   0  0  0  0  0  0
    1.2835   52.6799   22.3706 O   0  0  0  0  0  0
    4.7436   54.5796   19.4399 O   0  0  0  0  0  0
    2.2610   53.3318   28.2828 C   0  0  0  0  0  0
    2.9997   52.6379   29.2514 C   0  0  0  0  0  0
    2.5139   52.5112   30.5536 C   0  0  0  0  0  0
    1.2791   53.0604   30.8945 C   0  0  0  0  0  0
    0.5490   53.7713   29.9485 C   0  0  0  0  0  0
    1.0407   53.9110   28.6539 C   0  0  0  0  0  0
    3.2478   51.8631   31.5111 O   0  0  0  0  0  0
    6.9775   55.4091   20.4730 H   0  0  0  0  0  0
    7.5746   55.4647   22.8692 H   0  0  0  0  0  0
    3.1252   53.7882   21.3306 H   0  0  0  0  0  0
    6.4360   54.9670   25.4223 H   0  0  0  0  0  0
    4.6318   54.3608   27.5047 H   0  0  0  0  0  0
   -0.3738   51.6452   24.0852 H   0  0  0  0  0  0
    3.8533   54.2720   19.2478 H   0  0  0  0  0  0
    3.9512   52.1958   28.9945 H   0  0  0  0  0  0
    0.8983   52.9663   31.9016 H   0  0  0  0  0  0
   -0.3916   54.2191   30.2212 H   0  0  0  0  0  0
    0.4626   54.4647   27.9290 H   0  0  0  0  0  0
    2.9028   52.0555   32.3910 H   0  0  0  0  0  0
  1  2  2  0  0  0
  1 19  1  0  0  0
  1  4  1  0  0  0
  2  3  1  0  0  0
  2 27  1  0  0  0
  3  6  2  0  0  0
  3 28  1  0  0  0
  4  5  2  0  0  0
  4 29  1  0  0  0
  5  8  1  0  0  0
  5  6  1  0  0  0
  6  7  1  0  0  0
  7  9  1  0  0  0
  7 30  1  0  0  0
  8  9  2  0  0  0
  8 12  1  0  0  0
  9 10  1  0  0  0
 10 11  2  0  0  0
 10 31  1  0  0  0
 11 13  1  0  0  0
 11 20  1  0  0  0
 12 13  2  0  0  0
 12 16  1  0  0  0
 13 14  1  0  0  0
 14 15  1  0  0  0
 14 17  2  0  0  0
 15 16  1  0  0  0
 15 32  1  0  0  0
 16 18  2  0  0  0
 19 33  1  0  0  0
 20 21  2  0  0  0
 20 25  1  0  0  0
 21 22  1  0  0  0
 21 34  1  0  0  0
 22 23  2  0  0  0
 22 26  1  0  0  0
 23 24  1  0  0  0
 23 35  1  0  0  0
 24 25  2  0  0  0
 24 36  1  0  0  0
 25 37  1  0  0  0
 26 38  1  0  0  0
M  END
> <s_m_entry_id>
46350

> <s_m_entry_name>
dock_pv.91

> <s_m_Source_Path>
/home/csk/Desktop/cluster/DUD-E-result/wee1

> <s_m_Source_File>
dock_pv.maegz

> <i_m_Source_File_Index>
91

> <chembl_id>
CHEMBL214140

> <chembl_pref_name>
None

> <i_lp_mmshare_version>
53161

> <r_lp_tautomer_probability>
0.999999999997365

> <s_lp_Force_Field>
OPLS_2005

> <r_lp_Energy>
66.021964

> <b_lp_Chiralities_Consistent>
1

> <s_lp_Variant>
CHEMBL5491_lig128-1

> <s_i_glide_gridfile>
glide-grid_3biz

> <i_i_glide_lignum>
130

> <i_i_glide_rotatable_bonds>
3

> <r_i_docking_score>
-7.51494425493735

> <r_i_glide_ligand_efficiency>
-0.28903631749759

> <r_i_glide_ligand_efficiency_sa>
-0.85626895328362

> <r_i_glide_ligand_efficiency_ln>
-1.76485999972869

> <r_i_glide_gscore>
-7.51494425493735

> <r_i_glide_lipo>
-3.09229566769792

> <r_i_glide_hbond>
-0.4283220860104

> <r_i_glide_metal>
0

> <r_i_glide_rewards>
-1.39018719111118

> <r_i_glide_evdw>
-38.2522010803223

> <r_i_glide_ecoul>
-5.67781352996826

> <r_i_glide_erotb>
0.160142773393499

> <r_i_glide_esite>
0

> <r_i_glide_emodel>
-62.6760202519198

> <r_i_glide_energy>
-43.9300146102905

> <r_i_glide_einternal>
0.52100682258606

> <i_i_glide_confnum>
2

> <i_i_glide_posenum>
249

> <r_i_glide_eff_state_penalty>
0

> <s_user_duplicate_titles>
CHEMBL5491_lig128,355972

> <i_f3d_flags>
0

> <s_m_subgroup_title>
dock_pv

> <s_m_subgroupid>
dock_pv

> <b_m_subgroup_collapsed>
1

$$$$
CHEMBL5491_lig235
                    3D
 Schrodinger Suite 2021-1.
 50 55  0  0  1  0            999 V2000
    0.7403   49.4691   22.1953 N   0  0  0  0  0  0
    1.9131   49.0632   21.6059 C   0  0  0  0  0  0
    1.7345   48.4005   20.4867 N   0  0  0  0  0  0
    0.4251   48.3592   20.3260 C   0  0  0  0  0  0
   -0.2423   49.0047   21.3577 C   0  0  0  0  0  0
    2.9642   52.5976   18.6017 C   0  0  0  0  0  0
    1.6971   52.0480   18.7491 C   0  0  0  0  0  0
    1.0916   51.9284   19.9978 C   0  0  0  0  0  0
    3.6776   53.0609   19.7029 C   0  0  0  0  0  0
    3.0892   52.9939   20.9804 C   0  0  0  0  0  0
    1.8010   52.4019   21.1120 C   0  0  0  0  0  0
    1.4727   52.4085   22.4592 N   0  0  0  0  0  0
    3.4948   53.4181   22.2646 C   0  0  0  0  0  0
    2.4769   53.0404   23.1788 C   0  0  0  0  0  0
    2.5846   53.2855   24.5548 C   0  0  0  0  0  0
    3.7664   53.8632   25.0488 C   0  0  0  0  0  0
    4.6282   54.0750   22.7768 C   0  0  0  0  0  0
    4.7626   54.2654   24.1351 C   0  0  0  0  0  0
    6.0795   54.9601   24.3331 C   0  0  0  0  0  0
    6.6136   55.0779   23.1069 N   0  0  0  0  0  0
    5.8208   54.6629   22.1091 C   0  0  0  0  0  0
    6.6129   55.3776   25.3592 O   0  0  0  0  0  0
    6.0739   54.7729   20.9148 O   0  0  0  0  0  0
    3.9390   53.9281   26.5311 C   0  0  0  0  0  0
    5.1579   53.5770   27.1209 C   0  0  0  0  0  0
    5.3525   53.7063   28.4851 C   0  0  0  0  0  0
    4.3020   54.1354   29.2893 C   0  0  0  0  0  0
    3.0535   54.4026   28.7434 C   0  0  0  0  0  0
    2.8742   54.2852   27.3688 C   0  0  0  0  0  0
    3.5215   52.6633   17.3536 O   0  0  0  0  0  0
    0.2962   51.7656   23.0509 C   0  0  0  0  0  0
    0.5674   50.2777   23.3954 C   0  0  0  0  0  0
    2.8641   49.3129   22.0531 H   0  0  0  0  0  0
   -0.0244   47.8747   19.4705 H   0  0  0  0  0  0
   -1.2891   49.1802   21.5597 H   0  0  0  0  0  0
    1.1790   51.6870   17.8732 H   0  0  0  0  0  0
    0.1119   51.4837   20.0869 H   0  0  0  0  0  0
    4.6558   53.4806   19.5493 H   0  0  0  0  0  0
    1.8168   52.9492   25.2354 H   0  0  0  0  0  0
    7.5285   55.4736   22.9494 H   0  0  0  0  0  0
    5.9788   53.2181   26.5195 H   0  0  0  0  0  0
    6.3269   53.4788   28.8874 H   0  0  0  0  0  0
    4.4499   54.2495   30.3538 H   0  0  0  0  0  0
    2.2369   54.7105   29.3819 H   0  0  0  0  0  0
    1.9009   54.5033   26.9600 H   0  0  0  0  0  0
    4.4627   52.4639   17.3726 H   0  0  0  0  0  0
    0.0130   52.3192   23.9463 H   0  0  0  0  0  0
   -0.5454   51.8677   22.3663 H   0  0  0  0  0  0
    1.4540   50.1679   24.0221 H   0  0  0  0  0  0
   -0.2608   49.8539   23.9631 H   0  0  0  0  0  0
  1  5  1  0  0  0
  1  2  1  0  0  0
  1 32  1  0  0  0
  2  3  2  0  0  0
  2 33  1  0  0  0
  3  4  1  0  0  0
  4  5  2  0  0  0
  4 34  1  0  0  0
  5 35  1  0  0  0
  6  9  1  0  0  0
  6  7  2  0  0  0
  6 30  1  0  0  0
  7  8  1  0  0  0
  7 36  1  0  0  0
  8 11  2  0  0  0
  8 37  1  0  0  0
  9 10  2  0  0  0
  9 38  1  0  0  0
 10 11  1  0  0  0
 10 13  1  0  0  0
 11 12  1  0  0  0
 12 14  1  0  0  0
 12 31  1  0  0  0
 13 17  1  0  0  0
 13 14  2  0  0  0
 14 15  1  0  0  0
 15 16  2  0  0  0
 15 39  1  0  0  0
 16 18  1  0  0  0
 16 24  1  0  0  0
 17 18  2  0  0  0
 17 21  1  0  0  0
 18 19  1  0  0  0
 19 20  1  0  0  0
 19 22  2  0  0  0
 20 21  1  0  0  0
 20 40  1  0  0  0
 21 23  2  0  0  0
 24 25  2  0  0  0
 24 29  1  0  0  0
 25 26  1  0  0  0
 25 41  1  0  0  0
 26 27  2  0  0  0
 26 42  1  0  0  0
 27 28  1  0  0  0
 27 43  1  0  0  0
 28 29  2  0  0  0
 28 44  1  0  0  0
 29 45  1  0  0  0
 30 46  1  0  0  0
 31 32  1  0  0  0
 31 47  1  0  0  0
 31 48  1  0  0  0
 32 49  1  0  0  0
 32 50  1  0  0  0
M  END
> <s_m_entry_id>
46351

> <s_m_entry_name>
dock_pv.92

> <s_m_Source_Path>
/home/csk/Desktop/cluster/DUD-E-result/wee1

> <s_m_Source_File>
dock_pv.maegz

> <i_m_Source_File_Index>
92

> <chembl_id>
CHEMBL488899

> <chembl_pref_name>
None

> <i_lp_mmshare_version>
53161

> <r_lp_tautomer_probability>
1

> <s_lp_Force_Field>
OPLS_2005

> <r_lp_Energy>
70.848377

> <b_lp_Chiralities_Consistent>
1

> <s_lp_Variant>
CHEMBL5491_lig235-1

> <s_i_glide_gridfile>
glide-grid_3biz

> <i_i_glide_lignum>
247

> <i_i_glide_rotatable_bonds>
5

> <r_i_docking_score>
-7.51484372846698

> <r_i_glide_ligand_efficiency>
-0.234838866514593

> <r_i_glide_ligand_efficiency_sa>
-0.745566926635257

> <r_i_glide_ligand_efficiency_ln>
-1.68277835770711

> <r_i_glide_gscore>
-7.51484372846698

> <r_i_glide_lipo>
-2.65173676946012

> <r_i_glide_hbond>
-0.224429785005851

> <r_i_glide_metal>
0

> <r_i_glide_rewards>
-2.44657211283039

> <r_i_glide_evdw>
-40.7186508178711

> <r_i_glide_ecoul>
-3.11338949203491

> <r_i_glide_erotb>
0.310835903528164

> <r_i_glide_esite>
0

> <r_i_glide_emodel>
-64.1576124245899

> <r_i_glide_energy>
-43.832040309906

> <r_i_glide_einternal>
2.9642813205719

> <i_i_glide_confnum>
32

> <i_i_glide_posenum>
152

> <r_i_glide_eff_state_penalty>
0

> <s_user_duplicate_titles>
CHEMBL5491_lig235,452037

> <i_f3d_flags>
0

> <s_m_subgroup_title>
dock_pv

> <s_m_subgroupid>
dock_pv

> <b_m_subgroup_collapsed>
1

$$$$
CHEMBL5491_lig160
                    3D
 Schrodinger Suite 2021-1.
 38 42  0  0  1  0            999 V2000
    5.2793   54.6276   21.2690 C   0  0  0  0  0  0
    6.4790   55.1508   21.7382 C   0  0  0  0  0  0
    6.7567   55.2416   23.1009 C   0  0  0  0  0  0
    4.2998   54.1771   22.1517 C   0  0  0  0  0  0
    4.5340   54.2629   23.5371 C   0  0  0  0  0  0
    5.7765   54.7862   23.9893 C   0  0  0  0  0  0
    5.7456   54.7929   25.3666 N   0  0  0  0  0  0
    3.7777   53.9228   24.6833 C   0  0  0  0  0  0
    4.5551   54.2724   25.8220 C   0  0  0  0  0  0
    4.1053   54.0719   27.1321 C   0  0  0  0  0  0
    2.8821   53.4128   27.3225 C   0  0  0  0  0  0
    2.5269   53.3184   24.9060 C   0  0  0  0  0  0
    2.1318   53.0316   26.1915 C   0  0  0  0  0  0
    0.8772   52.2279   26.0735 C   0  0  0  0  0  0
    0.5794   52.1996   24.7646 N   0  0  0  0  0  0
    1.4732   52.8199   23.9792 C   0  0  0  0  0  0
    0.2236   51.6838   26.9589 O   0  0  0  0  0  0
    1.3986   52.9111   22.7578 O   0  0  0  0  0  0
    5.0581   54.5705   19.9192 O   0  0  0  0  0  0
    2.4006   53.1636   28.7225 C   0  0  0  0  0  0
    3.1774   52.4716   29.6797 C   0  0  0  0  0  0
    2.6816   52.2631   30.9758 C   0  0  0  0  0  0
    1.3941   52.6630   31.3085 C   0  0  0  0  0  0
    0.6414   53.3831   30.3939 C   0  0  0  0  0  0
    1.1482   53.6598   29.1282 C   0  0  0  0  0  0
    0.2086   54.6629   28.0871 Cl  0  0  0  0  0  0
    4.7511   51.8632   29.2864 Cl  0  0  0  0  0  0
    3.4510   51.7099   31.9653 O   0  0  0  0  0  0
    7.2124   55.5001   21.0264 H   0  0  0  0  0  0
    7.6764   55.6881   23.4451 H   0  0  0  0  0  0
    3.3742   53.7915   21.7595 H   0  0  0  0  0  0
    6.4889   55.1212   25.9617 H   0  0  0  0  0  0
    4.7013   54.3801   27.9800 H   0  0  0  0  0  0
   -0.2319   51.7244   24.4023 H   0  0  0  0  0  0
    4.1964   54.2130   19.6858 H   0  0  0  0  0  0
    1.0048   52.4990   32.3042 H   0  0  0  0  0  0
   -0.3210   53.7621   30.6894 H   0  0  0  0  0  0
    3.0480   51.8436   32.8332 H   0  0  0  0  0  0
  1  2  2  0  0  0
  1 19  1  0  0  0
  1  4  1  0  0  0
  2  3  1  0  0  0
  2 29  1  0  0  0
  3  6  2  0  0  0
  3 30  1  0  0  0
  4  5  2  0  0  0
  4 31  1  0  0  0
  5  8  1  0  0  0
  5  6  1  0  0  0
  6  7  1  0  0  0
  7  9  1  0  0  0
  7 32  1  0  0  0
  8  9  2  0  0  0
  8 12  1  0  0  0
  9 10  1  0  0  0
 10 11  2  0  0  0
 10 33  1  0  0  0
 11 13  1  0  0  0
 11 20  1  0  0  0
 12 16  1  0  0  0
 12 13  2  0  0  0
 13 14  1  0  0  0
 14 15  1  0  0  0
 14 17  2  0  0  0
 15 16  1  0  0  0
 15 34  1  0  0  0
 16 18  2  0  0  0
 19 35  1  0  0  0
 20 21  2  0  0  0
 20 25  1  0  0  0
 21 22  1  0  0  0
 21 27  1  0  0  0
 22 23  2  0  0  0
 22 28  1  0  0  0
 23 24  1  0  0  0
 23 36  1  0  0  0
 24 25  2  0  0  0
 24 37  1  0  0  0
 25 26  1  0  0  0
 28 38  1  0  0  0
M  END
> <s_m_entry_id>
46352

> <s_m_entry_name>
dock_pv.93

> <s_m_Source_Path>
/home/csk/Desktop/cluster/DUD-E-result/wee1

> <s_m_Source_File>
dock_pv.maegz

> <i_m_Source_File_Index>
93

> <chembl_id>
CHEMBL386048

> <chembl_pref_name>
None

> <i_lp_mmshare_version>
53161

> <r_lp_tautomer_probability>
0.999999999997365

> <s_lp_Force_Field>
OPLS_2005

> <r_lp_Energy>
67.794046

> <b_lp_Chiralities_Consistent>
1

> <s_lp_Variant>
CHEMBL5491_lig160-1

> <s_i_glide_gridfile>
glide-grid_3biz

> <i_i_glide_lignum>
163

> <i_i_glide_rotatable_bonds>
3

> <r_i_docking_score>
-7.50503368634626

> <r_i_glide_ligand_efficiency>
-0.268036917369509

> <r_i_glide_ligand_efficiency_sa>
-0.813917946435753

> <r_i_glide_ligand_efficiency_ln>
-1.73238213217287

> <r_i_glide_gscore>
-7.50503368634626

> <r_i_glide_lipo>
-3.37236851659956

> <r_i_glide_hbond>
-0.608

> <r_i_glide_metal>
0

> <r_i_glide_rewards>
-0.910858150689494

> <r_i_glide_evdw>
-36.8035163879395

> <r_i_glide_ecoul>
-5.9277515411377

> <r_i_glide_erotb>
0.115531531510422

> <r_i_glide_esite>
0

> <r_i_glide_emodel>
-59.072298429045

> <r_i_glide_energy>
-42.7312679290771

> <r_i_glide_einternal>
2.6467559337616

> <i_i_glide_confnum>
2

> <i_i_glide_posenum>
55

> <r_i_glide_eff_state_penalty>
0

> <s_user_duplicate_titles>
CHEMBL5491_lig160,355884

> <i_f3d_flags>
0

> <s_m_subgroup_title>
dock_pv

> <s_m_subgroupid>
dock_pv

> <b_m_subgroup_collapsed>
1

$$$$
CHEMBL5491_lig94
                    3D
 Schrodinger Suite 2021-1.
 40 44  0  0  1  0            999 V2000
    5.9720   54.6732   26.2091 C   0  0  0  0  0  0
    5.9725   54.6640   24.8181 C   0  0  0  0  0  0
    4.8529   54.2633   24.0853 C   0  0  0  0  0  0
    4.8488   54.2857   26.9290 C   0  0  0  0  0  0
    3.7072   53.8633   26.2331 C   0  0  0  0  0  0
    3.7281   53.8633   24.8141 C   0  0  0  0  0  0
    2.5113   53.3735   24.3902 N   0  0  0  0  0  0
    2.4606   53.3419   26.6424 C   0  0  0  0  0  0
    1.7555   52.9569   25.4693 C   0  0  0  0  0  0
    0.5309   52.2607   25.5050 C   0  0  0  0  0  0
   -0.0207   52.0015   26.7816 C   0  0  0  0  0  0
    1.8572   53.0949   27.8856 C   0  0  0  0  0  0
    0.6487   52.4452   27.9357 C   0  0  0  0  0  0
    0.2859   52.3439   29.3795 C   0  0  0  0  0  0
    1.2969   52.9112   30.0590 N   0  0  0  0  0  0
    2.2825   53.3914   29.2836 C   0  0  0  0  0  0
   -0.7203   51.8633   29.8864 O   0  0  0  0  0  0
    3.2973   53.9544   29.6870 O   0  0  0  0  0  0
    7.0921   55.0630   26.8860 O   0  0  0  0  0  0
   -0.0955   51.8137   24.2283 C   0  0  0  0  0  0
    0.5923   50.9306   23.3877 C   0  0  0  0  0  0
    0.0295   50.5161   22.1852 C   0  0  0  0  0  0
   -1.2285   50.9860   21.8169 C   0  0  0  0  0  0
   -1.9245   51.8625   22.6431 C   0  0  0  0  0  0
   -1.3590   52.2754   23.8462 C   0  0  0  0  0  0
   -1.3151   51.1938   26.8799 C   0  0  0  0  0  0
    6.8645   54.9691   24.2901 H   0  0  0  0  0  0
    4.8719   54.2499   23.0053 H   0  0  0  0  0  0
    4.8881   54.2821   28.0035 H   0  0  0  0  0  0
    2.2462   53.2423   23.4234 H   0  0  0  0  0  0
    1.3095   52.9867   31.0642 H   0  0  0  0  0  0
    6.9777   55.1242   27.8421 H   0  0  0  0  0  0
    1.5662   50.5563   23.6740 H   0  0  0  0  0  0
    0.5678   49.8354   21.5428 H   0  0  0  0  0  0
   -1.6665   50.6598   20.8837 H   0  0  0  0  0  0
   -2.8972   52.2226   22.3523 H   0  0  0  0  0  0
   -1.8998   52.9613   24.4823 H   0  0  0  0  0  0
   -1.4063   50.6673   27.8272 H   0  0  0  0  0  0
   -2.1867   51.8364   26.7471 H   0  0  0  0  0  0
   -1.3467   50.4043   26.1282 H   0  0  0  0  0  0
  1  2  2  0  0  0
  1 19  1  0  0  0
  1  4  1  0  0  0
  2  3  1  0  0  0
  2 27  1  0  0  0
  3  6  2  0  0  0
  3 28  1  0  0  0
  4  5  2  0  0  0
  4 29  1  0  0  0
  5  8  1  0  0  0
  5  6  1  0  0  0
  6  7  1  0  0  0
  7  9  1  0  0  0
  7 30  1  0  0  0
  8  9  2  0  0  0
  8 12  1  0  0  0
  9 10  1  0  0  0
 10 11  2  0  0  0
 10 20  1  0  0  0
 11 13  1  0  0  0
 11 26  1  0  0  0
 12 13  2  0  0  0
 12 16  1  0  0  0
 13 14  1  0  0  0
 14 15  1  0  0  0
 14 17  2  0  0  0
 15 16  1  0  0  0
 15 31  1  0  0  0
 16 18  2  0  0  0
 19 32  1  0  0  0
 20 21  2  0  0  0
 20 25  1  0  0  0
 21 22  1  0  0  0
 21 33  1  0  0  0
 22 23  2  0  0  0
 22 34  1  0  0  0
 23 24  1  0  0  0
 23 35  1  0  0  0
 24 25  2  0  0  0
 24 36  1  0  0  0
 25 37  1  0  0  0
 26 38  1  0  0  0
 26 39  1  0  0  0
 26 40  1  0  0  0
M  END
> <s_m_entry_id>
46353

> <s_m_entry_name>
dock_pv.94

> <s_m_Source_Path>
/home/csk/Desktop/cluster/DUD-E-result/wee1

> <s_m_Source_File>
dock_pv.maegz

> <i_m_Source_File_Index>
94

> <chembl_id>
CHEMBL211157

> <chembl_pref_name>
None

> <i_lp_mmshare_version>
53161

> <r_lp_tautomer_probability>
1

> <s_lp_Force_Field>
OPLS_2005

> <r_lp_Energy>
70.344098

> <b_lp_Chiralities_Consistent>
1

> <s_lp_Variant>
CHEMBL5491_lig94-1

> <s_i_glide_gridfile>
glide-grid_3biz

> <i_i_glide_lignum>
94

> <i_i_glide_rotatable_bonds>
2

> <r_i_docking_score>
-7.50126133849628

> <r_i_glide_ligand_efficiency>
-0.288510051480626

> <r_i_glide_ligand_efficiency_sa>
-0.854709892279121

> <r_i_glide_ligand_efficiency_ln>
-1.76164661169982

> <r_i_glide_gscore>
-7.50126133849628

> <r_i_glide_lipo>
-2.20663287000752

> <r_i_glide_hbond>
-0.475401655399735

> <r_i_glide_metal>
0

> <r_i_glide_rewards>
-2.09835716976193

> <r_i_glide_evdw>
-37.3383827209473

> <r_i_glide_ecoul>
-6.7715630531311

> <r_i_glide_erotb>
0.161783950689932

> <r_i_glide_esite>
0

> <r_i_glide_emodel>
-62.200619400664

> <r_i_glide_energy>
-44.1099457740784

> <r_i_glide_einternal>
0.234617635607719

> <i_i_glide_confnum>
1

> <i_i_glide_posenum>
331

> <r_i_glide_eff_state_penalty>
0

> <s_user_duplicate_titles>
CHEMBL5491_lig94

> <i_f3d_flags>
0

> <s_m_subgroup_title>
dock_pv

> <s_m_subgroupid>
dock_pv

> <b_m_subgroup_collapsed>
1

$$$$
CHEMBL5491_lig370
                    3D
 Schrodinger Suite 2021-1.
 50 53  0  0  1  0            999 V2000
    3.0353   52.0216   21.6869 S   0  0  0  0  0  0
    5.2012   54.0749   22.1603 N   0  0  0  0  0  0
    2.3208   51.7237   19.2523 N   0  0  0  0  0  0
    6.4790   55.0643   23.9064 N   0  0  0  0  0  0
    6.9974   55.6016   21.6876 N   0  0  0  0  0  0
    3.5843   53.5128   28.4496 N   0  0  0  0  0  0
    1.2152   50.2414   20.7137 N   0  0  0  0  0  0
    2.3967   52.2630   30.8391 N   0  0  0  0  0  0
    3.8359   52.9925   20.4604 C   0  0  0  0  0  0
    4.9394   53.9482   20.8305 C   0  0  0  0  0  0
    3.2529   52.6624   19.2238 C   0  0  0  0  0  0
    2.1011   51.2568   20.4493 C   0  0  0  0  0  0
    6.2078   54.9022   22.5403 C   0  0  0  0  0  0
    5.7012   54.6482   19.8858 C   0  0  0  0  0  0
    5.7138   54.7447   25.0420 C   0  0  0  0  0  0
    4.2760   53.9832   27.3369 C   0  0  0  0  0  0
    6.7295   55.4636   20.3627 C   0  0  0  0  0  0
    3.5503   53.2162   17.8458 C   0  0  0  0  0  0
    6.3729   54.5489   26.2533 C   0  0  0  0  0  0
    4.3209   54.6333   25.0003 C   0  0  0  0  0  0
    5.6651   54.1569   27.3856 C   0  0  0  0  0  0
    3.6117   54.2552   26.1355 C   0  0  0  0  0  0
    3.8970   53.9214   29.8220 C   0  0  0  0  0  0
    2.2367   52.9135   28.3999 C   0  0  0  0  0  0
    3.7688   52.7443   30.8128 C   0  0  0  0  0  0
    1.9463   51.8656   29.5055 C   0  0  0  0  0  0
    1.0992   49.4966   21.9618 C   0  0  0  0  0  0
    7.3680   55.5115   24.0826 H   0  0  0  0  0  0
    0.8940   49.7031   19.9221 H   0  0  0  0  0  0
    1.7840   52.9251   31.3011 H   0  0  0  0  0  0
    5.5375   54.5564   18.8258 H   0  0  0  0  0  0
    7.3637   56.0090   19.6782 H   0  0  0  0  0  0
    3.5316   54.3048   17.8409 H   0  0  0  0  0  0
    4.5316   52.8936   17.4996 H   0  0  0  0  0  0
    2.8339   52.8969   17.0887 H   0  0  0  0  0  0
    7.4396   54.6628   26.3250 H   0  0  0  0  0  0
    3.7713   54.8245   24.0919 H   0  0  0  0  0  0
    6.2162   53.9555   28.2917 H   0  0  0  0  0  0
    2.5395   54.1533   26.0625 H   0  0  0  0  0  0
    4.8789   54.3814   29.8984 H   0  0  0  0  0  0
    3.2088   54.7242   30.0883 H   0  0  0  0  0  0
    1.5017   53.7150   28.4810 H   0  0  0  0  0  0
    2.0737   52.4436   27.4292 H   0  0  0  0  0  0
    4.0624   53.0626   31.8126 H   0  0  0  0  0  0
    4.4445   51.9362   30.5219 H   0  0  0  0  0  0
    0.8744   51.6667   29.5434 H   0  0  0  0  0  0
    2.4375   50.9337   29.2238 H   0  0  0  0  0  0
    0.2013   48.8786   21.9486 H   0  0  0  0  0  0
    1.0465   50.1628   22.8229 H   0  0  0  0  0  0
    1.9594   48.8372   22.0904 H   0  0  0  0  0  0
  1  9  1  0  0  0
  1 12  1  0  0  0
  2 10  1  0  0  0
  2 13  2  0  0  0
  3 11  1  0  0  0
  3 12  2  0  0  0
  4 13  1  0  0  0
  4 15  1  0  0  0
  4 28  1  0  0  0
  5 13  1  0  0  0
  5 17  2  0  0  0
  6 16  1  0  0  0
  6 23  1  0  0  0
  6 24  1  0  0  0
  7 12  1  0  0  0
  7 27  1  0  0  0
  7 29  1  0  0  0
  8 25  1  0  0  0
  8 26  1  0  0  0
  8 30  1  0  0  0
  9 10  1  0  0  0
  9 11  2  0  0  0
 10 14  2  0  0  0
 11 18  1  0  0  0
 14 17  1  0  0  0
 14 31  1  0  0  0
 15 19  2  0  0  0
 15 20  1  0  0  0
 16 21  2  0  0  0
 16 22  1  0  0  0
 17 32  1  0  0  0
 18 33  1  0  0  0
 18 34  1  0  0  0
 18 35  1  0  0  0
 19 21  1  0  0  0
 19 36  1  0  0  0
 20 22  2  0  0  0
 20 37  1  0  0  0
 21 38  1  0  0  0
 22 39  1  0  0  0
 23 25  1  0  0  0
 23 40  1  0  0  0
 23 41  1  0  0  0
 24 26  1  0  0  0
 24 42  1  0  0  0
 24 43  1  0  0  0
 25 44  1  0  0  0
 25 45  1  0  0  0
 26 46  1  0  0  0
 26 47  1  0  0  0
 27 48  1  0  0  0
 27 49  1  0  0  0
 27 50  1  0  0  0
M  END
> <s_m_entry_id>
46354

> <s_m_entry_name>
dock_pv.95

> <s_m_Source_Path>
/home/csk/Desktop/cluster/DUD-E-result/wee1

> <s_m_Source_File>
dock_pv.maegz

> <i_m_Source_File_Index>
95

> <chembl_id>
CHEMBL1999484

> <chembl_pref_name>
None

> <i_lp_mmshare_version>
53161

> <r_lp_tautomer_probability>
0.999999987636

> <s_lp_Force_Field>
OPLS_2005

> <r_lp_Energy>
28.52283

> <b_lp_Chiralities_Consistent>
1

> <s_lp_Variant>
CHEMBL5491_lig370-1

> <s_i_glide_gridfile>
glide-grid_3biz

> <i_i_glide_lignum>
404

> <i_i_glide_rotatable_bonds>
5

> <r_i_docking_score>
-7.50089274085587

> <r_i_glide_ligand_efficiency>
-0.277810842253921

> <r_i_glide_ligand_efficiency_sa>
-0.833432525846144

> <r_i_glide_ligand_efficiency_ln>
-1.74608416818971

> <r_i_glide_gscore>
-7.50089274085587

> <r_i_glide_lipo>
-2.70501665460977

> <r_i_glide_hbond>
-0.354700939006066

> <r_i_glide_metal>
0

> <r_i_glide_rewards>
-2.31977100537698

> <r_i_glide_evdw>
-44.6418075561523

> <r_i_glide_ecoul>
-2.78377294540405

> <r_i_glide_erotb>
0.533503962674976

> <r_i_glide_esite>
-0.00525178491980628

> <r_i_glide_emodel>
-66.9650581338879

> <r_i_glide_energy>
-47.4255805015564

> <r_i_glide_einternal>
2.30142903327942

> <i_i_glide_confnum>
46

> <i_i_glide_posenum>
184

> <r_i_glide_eff_state_penalty>
0

> <s_user_duplicate_titles>
CHEMBL5491_lig370

> <i_f3d_flags>
0

> <s_m_subgroup_title>
dock_pv

> <s_m_subgroupid>
dock_pv

> <b_m_subgroup_collapsed>
1

$$$$
CHEMBL5491_lig151
                    3D
 Schrodinger Suite 2021-1.
 39 43  0  0  1  0            999 V2000
    5.2042   54.5796   21.2079 C   0  0  0  0  0  0
    6.4171   55.0632   21.6872 C   0  0  0  0  0  0
    6.6864   55.1478   23.0518 C   0  0  0  0  0  0
    4.2022   54.1668   22.0832 C   0  0  0  0  0  0
    4.4233   54.2577   23.4706 C   0  0  0  0  0  0
    5.6788   54.7423   23.9321 C   0  0  0  0  0  0
    5.6192   54.7947   25.3064 N   0  0  0  0  0  0
    3.6546   53.9236   24.6105 C   0  0  0  0  0  0
    4.4032   54.3223   25.7495 C   0  0  0  0  0  0
    3.9126   54.1878   27.0518 C   0  0  0  0  0  0
    2.7054   53.4994   27.2470 C   0  0  0  0  0  0
    2.4102   53.3025   24.8311 C   0  0  0  0  0  0
    1.9833   53.0631   26.1190 C   0  0  0  0  0  0
    0.7242   52.2630   26.0030 C   0  0  0  0  0  0
    0.4778   52.1537   24.6862 N   0  0  0  0  0  0
    1.3946   52.7374   23.8986 C   0  0  0  0  0  0
    0.0204   51.7890   26.8898 O   0  0  0  0  0  0
    1.3648   52.7555   22.6724 O   0  0  0  0  0  0
    4.9930   54.5258   19.8587 O   0  0  0  0  0  0
    2.2539   53.2266   28.6472 C   0  0  0  0  0  0
    3.0948   52.6142   29.5983 C   0  0  0  0  0  0
    2.6366   52.3266   30.8785 C   0  0  0  0  0  0
    1.3261   52.6109   31.2262 C   0  0  0  0  0  0
    0.4800   53.2353   30.3164 C   0  0  0  0  0  0
    0.9516   53.5655   29.0463 C   0  0  0  0  0  0
    4.8789   52.0920   29.2088 Br  0  0  0  0  0  0
    0.8787   52.2357   32.4821 N   0  0  0  0  0  0
    7.1679   55.3874   20.9819 H   0  0  0  0  0  0
    7.6183   55.5656   23.4020 H   0  0  0  0  0  0
    3.2655   53.8067   21.6850 H   0  0  0  0  0  0
    6.3613   55.1244   25.9048 H   0  0  0  0  0  0
    4.4934   54.5331   27.8949 H   0  0  0  0  0  0
   -0.3175   51.6538   24.3239 H   0  0  0  0  0  0
    4.1216   54.1991   19.6204 H   0  0  0  0  0  0
    3.2993   51.8630   31.5928 H   0  0  0  0  0  0
   -0.5385   53.4589   30.5881 H   0  0  0  0  0  0
    0.2819   54.0482   28.3508 H   0  0  0  0  0  0
    1.5397   52.2632   33.2570 H   0  0  0  0  0  0
   -0.1198   52.2627   32.6784 H   0  0  0  0  0  0
  1  2  2  0  0  0
  1 19  1  0  0  0
  1  4  1  0  0  0
  2  3  1  0  0  0
  2 28  1  0  0  0
  3  6  2  0  0  0
  3 29  1  0  0  0
  4  5  2  0  0  0
  4 30  1  0  0  0
  5  8  1  0  0  0
  5  6  1  0  0  0
  6  7  1  0  0  0
  7  9  1  0  0  0
  7 31  1  0  0  0
  8  9  2  0  0  0
  8 12  1  0  0  0
  9 10  1  0  0  0
 10 11  2  0  0  0
 10 32  1  0  0  0
 11 13  1  0  0  0
 11 20  1  0  0  0
 12 16  1  0  0  0
 12 13  2  0  0  0
 13 14  1  0  0  0
 14 15  1  0  0  0
 14 17  2  0  0  0
 15 16  1  0  0  0
 15 33  1  0  0  0
 16 18  2  0  0  0
 19 34  1  0  0  0
 20 21  2  0  0  0
 20 25  1  0  0  0
 21 22  1  0  0  0
 21 26  1  0  0  0
 22 23  2  0  0  0
 22 35  1  0  0  0
 23 24  1  0  0  0
 23 27  1  0  0  0
 24 25  2  0  0  0
 24 36  1  0  0  0
 25 37  1  0  0  0
 27 38  1  0  0  0
 27 39  1  0  0  0
M  END
> <s_m_entry_id>
46355

> <s_m_entry_name>
dock_pv.96

> <s_m_Source_Path>
/home/csk/Desktop/cluster/DUD-E-result/wee1

> <s_m_Source_File>
dock_pv.maegz

> <i_m_Source_File_Index>
96

> <chembl_id>
CHEMBL378066

> <chembl_pref_name>
None

> <i_lp_mmshare_version>
53161

> <r_lp_tautomer_probability>
1

> <s_lp_Force_Field>
OPLS_2005

> <r_lp_Energy>
66.351646

> <b_lp_Chiralities_Consistent>
1

> <s_lp_Variant>
CHEMBL5491_lig151-1

> <s_i_glide_gridfile>
glide-grid_3biz

> <i_i_glide_lignum>
154

> <i_i_glide_rotatable_bonds>
2

> <r_i_docking_score>
-7.48214029935371

> <r_i_glide_ligand_efficiency>
-0.277116307383471

> <r_i_glide_ligand_efficiency_sa>
-0.831348921237082

> <r_i_glide_ligand_efficiency_ln>
-1.74171890896617

> <r_i_glide_gscore>
-7.48214029935371

> <r_i_glide_lipo>
-3.41376845163067

> <r_i_glide_hbond>
-0.456

> <r_i_glide_metal>
0

> <r_i_glide_rewards>
-0.810122031531084

> <r_i_glide_evdw>
-37.2638893127441

> <r_i_glide_ecoul>
-6.41235971450806

> <r_i_glide_erotb>
0.111109768144579

> <r_i_glide_esite>
-0.088311161523115

> <r_i_glide_emodel>
-59.9017151891732

> <r_i_glide_energy>
-43.6762490272522

> <r_i_glide_einternal>
1.34185361862183

> <i_i_glide_confnum>
1

> <i_i_glide_posenum>
57

> <r_i_glide_eff_state_penalty>
0

> <s_user_duplicate_titles>
CHEMBL5491_lig151,355915

> <i_f3d_flags>
0

> <s_m_subgroup_title>
dock_pv

> <s_m_subgroupid>
dock_pv

> <b_m_subgroup_collapsed>
1

$$$$
CHEMBL5491_lig254
                    3D
 Schrodinger Suite 2021-1.
 44 48  0  0  1  0            999 V2000
    4.7417   54.2632   21.6021 C   0  0  0  0  0  0
    5.9963   54.6758   22.0334 C   0  0  0  0  0  0
    6.3057   54.8025   23.3854 C   0  0  0  0  0  0
    3.7480   53.9246   22.5158 C   0  0  0  0  0  0
    4.0162   54.0400   23.8919 C   0  0  0  0  0  0
    5.2908   54.5150   24.3106 C   0  0  0  0  0  0
    5.2652   54.6310   25.6940 N   0  0  0  0  0  0
    4.4789   54.2115   20.2602 O   0  0  0  0  0  0
    3.2786   53.7330   25.0547 C   0  0  0  0  0  0
    4.0465   54.1692   26.1684 C   0  0  0  0  0  0
    3.5653   54.0647   27.4798 C   0  0  0  0  0  0
    2.3764   53.3635   27.7052 C   0  0  0  0  0  0
    1.9550   53.1248   29.1143 C   0  0  0  0  0  0
    2.7851   52.4728   30.0487 C   0  0  0  0  0  0
    2.3528   52.2630   31.3558 C   0  0  0  0  0  0
    1.0816   52.6612   31.7443 C   0  0  0  0  0  0
    0.2588   53.3010   30.8343 C   0  0  0  0  0  0
    0.6940   53.5553   29.5388 C   0  0  0  0  0  0
    2.0504   53.0891   25.3090 C   0  0  0  0  0  0
    1.6425   52.8875   26.6070 C   0  0  0  0  0  0
    0.3802   52.0904   26.5430 C   0  0  0  0  0  0
    0.1339   51.9028   25.2356 N   0  0  0  0  0  0
    1.0364   52.4632   24.4128 C   0  0  0  0  0  0
   -0.3245   51.6790   27.4591 O   0  0  0  0  0  0
    0.9934   52.4267   23.1869 O   0  0  0  0  0  0
    6.3691   55.1310   26.5180 C   0  0  0  0  0  0
    7.1166   54.0394   27.2868 C   0  0  0  0  0  0
    6.4817   53.7082   28.4864 O   0  0  0  0  0  0
    4.3414   51.8630   29.6324 Cl  0  0  0  0  0  0
    6.7452   54.9322   21.2982 H   0  0  0  0  0  0
    7.2789   55.1536   23.6858 H   0  0  0  0  0  0
    2.7888   53.5956   22.1541 H   0  0  0  0  0  0
    3.5457   54.0856   20.0609 H   0  0  0  0  0  0
    4.1317   54.4389   28.3181 H   0  0  0  0  0  0
    2.9954   51.7847   32.0815 H   0  0  0  0  0  0
    0.7386   52.4800   32.7534 H   0  0  0  0  0  0
   -0.7209   53.5825   31.1504 H   0  0  0  0  0  0
    0.0333   54.0590   28.8492 H   0  0  0  0  0  0
   -0.6597   51.3772   24.9044 H   0  0  0  0  0  0
    7.0566   55.6378   25.8434 H   0  0  0  0  0  0
    6.0080   55.8630   27.2244 H   0  0  0  0  0  0
    7.2769   53.1396   26.6911 H   0  0  0  0  0  0
    8.0790   54.4341   27.5658 H   0  0  0  0  0  0
    6.6923   54.3914   29.1330 H   0  0  0  0  0  0
  1  2  2  0  0  0
  1  8  1  0  0  0
  1  4  1  0  0  0
  2  3  1  0  0  0
  2 30  1  0  0  0
  3  6  2  0  0  0
  3 31  1  0  0  0
  4  5  2  0  0  0
  4 32  1  0  0  0
  5  9  1  0  0  0
  5  6  1  0  0  0
  6  7  1  0  0  0
  7 10  1  0  0  0
  7 26  1  0  0  0
  8 33  1  0  0  0
  9 10  2  0  0  0
  9 19  1  0  0  0
 10 11  1  0  0  0
 11 12  2  0  0  0
 11 34  1  0  0  0
 12 13  1  0  0  0
 12 20  1  0  0  0
 13 14  2  0  0  0
 13 18  1  0  0  0
 14 15  1  0  0  0
 14 29  1  0  0  0
 15 16  2  0  0  0
 15 35  1  0  0  0
 16 17  1  0  0  0
 16 36  1  0  0  0
 17 18  2  0  0  0
 17 37  1  0  0  0
 18 38  1  0  0  0
 19 20  2  0  0  0
 19 23  1  0  0  0
 20 21  1  0  0  0
 21 22  1  0  0  0
 21 24  2  0  0  0
 22 23  1  0  0  0
 22 39  1  0  0  0
 23 25  2  0  0  0
 26 27  1  0  0  0
 26 40  1  0  0  0
 26 41  1  0  0  0
 27 28  1  0  0  0
 27 42  1  0  0  0
 27 43  1  0  0  0
 28 44  1  0  0  0
M  END
> <s_m_entry_id>
46356

> <s_m_entry_name>
dock_pv.97

> <s_m_Source_Path>
/home/csk/Desktop/cluster/DUD-E-result/wee1

> <s_m_Source_File>
dock_pv.maegz

> <i_m_Source_File_Index>
97

> <chembl_id>
CHEMBL511991

> <chembl_pref_name>
None

> <i_lp_mmshare_version>
53161

> <r_lp_tautomer_probability>
1

> <s_lp_Force_Field>
OPLS_2005

> <r_lp_Energy>
69.936656

> <b_lp_Chiralities_Consistent>
1

> <s_lp_Variant>
CHEMBL5491_lig254-1

> <s_i_glide_gridfile>
glide-grid_3biz

> <i_i_glide_lignum>
267

> <i_i_glide_rotatable_bonds>
5

> <r_i_docking_score>
-7.46206945836472

> <r_i_glide_ligand_efficiency>
-0.257312739943611

> <r_i_glide_ligand_efficiency_sa>
-0.790546259504749

> <r_i_glide_ligand_efficiency_ln>
-1.70862468421056

> <r_i_glide_gscore>
-7.46206945836472

> <r_i_glide_lipo>
-3.8210243725384

> <r_i_glide_hbond>
-0.280063051271434

> <r_i_glide_metal>
0

> <r_i_glide_rewards>
-1.19934674058633

> <r_i_glide_evdw>
-42.556999206543

> <r_i_glide_ecoul>
-2.45093536376953

> <r_i_glide_erotb>
0.356479666647327

> <r_i_glide_esite>
-0.0226246957233005

> <r_i_glide_emodel>
-62.3770909791365

> <r_i_glide_energy>
-45.0079345703125

> <r_i_glide_einternal>
2.80156803131104

> <i_i_glide_confnum>
18

> <i_i_glide_posenum>
333

> <r_i_glide_eff_state_penalty>
0

> <s_user_duplicate_titles>
CHEMBL5491_lig254,451709

> <i_f3d_flags>
0

> <s_m_subgroup_title>
dock_pv

> <s_m_subgroupid>
dock_pv

> <b_m_subgroup_collapsed>
1

$$$$
CHEMBL5491_lig17
                    3D
 Schrodinger Suite 2021-1.
 45 47  0  0  1  0            999 V2000
    0.1082   52.2627   21.6480 O   0  0  0  0  0  0
    4.5892   52.9832   28.2879 O   0  0  0  0  0  0
    6.8789   55.0629   26.4721 O   0  0  0  0  0  0
    4.0487   53.9996   23.4995 N   0  0  0  0  0  0
    4.4662   54.2625   22.2402 N   0  0  0  0  0  0
    1.9691   53.1228   22.6106 N   0  0  0  0  0  0
    2.2929   53.2512   24.8846 N   0  0  0  0  0  0
    4.9575   54.0450   25.7891 N   0  0  0  0  0  0
    5.0674   54.2607   24.4149 C   0  0  0  0  0  0
    2.7549   53.4656   23.6913 C   0  0  0  0  0  0
    5.7116   54.6628   22.3130 C   0  0  0  0  0  0
    6.1473   54.6644   23.6355 C   0  0  0  0  0  0
    0.7606   52.5218   22.6509 C   0  0  0  0  0  0
    1.0856   52.6286   25.0455 C   0  0  0  0  0  0
    5.8822   54.3816   26.7159 C   0  0  0  0  0  0
    0.3129   52.2690   23.9975 C   0  0  0  0  0  0
    6.4539   55.0645   21.0612 C   0  0  0  0  0  0
    5.6858   53.8998   28.1653 C   0  0  0  0  0  0
    3.4045   53.3730   28.8825 C   0  0  0  0  0  0
    0.6972   52.4152   26.4894 C   0  0  0  0  0  0
    3.0142   54.7060   29.0823 C   0  0  0  0  0  0
    1.7914   55.0130   29.6864 C   0  0  0  0  0  0
    2.5417   52.3538   29.2905 C   0  0  0  0  0  0
    0.9428   53.9791   30.0873 C   0  0  0  0  0  0
    1.3189   52.6517   29.8932 C   0  0  0  0  0  0
    1.4073   56.4614   29.9253 C   0  0  0  0  0  0
    2.2930   53.3270   21.6784 H   0  0  0  0  0  0
    4.1061   53.5949   26.1034 H   0  0  0  0  0  0
    7.1365   54.9361   23.9756 H   0  0  0  0  0  0
   -0.6362   51.7787   24.1360 H   0  0  0  0  0  0
    7.5205   55.1977   21.2453 H   0  0  0  0  0  0
    6.3512   54.3241   20.2664 H   0  0  0  0  0  0
    6.0784   56.0082   20.6640 H   0  0  0  0  0  0
    5.6464   54.7440   28.8541 H   0  0  0  0  0  0
    6.5798   53.3420   28.4462 H   0  0  0  0  0  0
   -0.3582   52.1596   26.5809 H   0  0  0  0  0  0
    1.2780   51.5948   26.9092 H   0  0  0  0  0  0
    0.8785   53.3163   27.0754 H   0  0  0  0  0  0
    3.6515   55.5143   28.7705 H   0  0  0  0  0  0
    2.8226   51.3234   29.1312 H   0  0  0  0  0  0
    0.0006   54.1990   30.5663 H   0  0  0  0  0  0
    0.6577   51.8574   30.2074 H   0  0  0  0  0  0
    0.4794   56.5533   30.4880 H   0  0  0  0  0  0
    1.3048   56.9921   28.9786 H   0  0  0  0  0  0
    2.1833   56.9646   30.5019 H   0  0  0  0  0  0
  1 13  2  0  0  0
  2 18  1  0  0  0
  2 19  1  0  0  0
  3 15  2  0  0  0
  4  5  1  0  0  0
  4  9  1  0  0  0
  4 10  1  0  0  0
  5 11  2  0  0  0
  6 10  1  0  0  0
  6 13  1  0  0  0
  6 27  1  0  0  0
  7 10  2  0  0  0
  7 14  1  0  0  0
  8  9  1  0  0  0
  8 15  1  0  0  0
  8 28  1  0  0  0
  9 12  2  0  0  0
 11 12  1  0  0  0
 11 17  1  0  0  0
 12 29  1  0  0  0
 13 16  1  0  0  0
 14 16  2  0  0  0
 14 20  1  0  0  0
 15 18  1  0  0  0
 16 30  1  0  0  0
 17 31  1  0  0  0
 17 32  1  0  0  0
 17 33  1  0  0  0
 18 34  1  0  0  0
 18 35  1  0  0  0
 19 21  2  0  0  0
 19 23  1  0  0  0
 20 36  1  0  0  0
 20 37  1  0  0  0
 20 38  1  0  0  0
 21 22  1  0  0  0
 21 39  1  0  0  0
 22 24  2  0  0  0
 22 26  1  0  0  0
 23 25  2  0  0  0
 23 40  1  0  0  0
 24 25  1  0  0  0
 24 41  1  0  0  0
 25 42  1  0  0  0
 26 43  1  0  0  0
 26 44  1  0  0  0
 26 45  1  0  0  0
M  END
> <s_m_entry_id>
46357

> <s_m_entry_name>
dock_pv.98

> <s_m_Source_Path>
/home/csk/Desktop/cluster/DUD-E-result/wee1

> <s_m_Source_File>
dock_pv.maegz

> <i_m_Source_File_Index>
98

> <chembl_id>
CHEMBL1699889

> <chembl_pref_name>
None

> <i_lp_mmshare_version>
53161

> <r_lp_tautomer_probability>
1

> <s_lp_Force_Field>
OPLS_2005

> <r_lp_Energy>
26.386994

> <b_lp_Chiralities_Consistent>
1

> <s_lp_Variant>
CHEMBL5491_lig17-1

> <s_i_glide_gridfile>
glide-grid_3biz

> <i_i_glide_lignum>
17

> <i_i_glide_rotatable_bonds>
6

> <r_i_docking_score>
-7.45507919499123

> <r_i_glide_ligand_efficiency>
-0.28673381519197

> <r_i_glide_ligand_efficiency_sa>
-0.84944779926313

> <r_i_glide_ligand_efficiency_ln>
-1.75080088683363

> <r_i_glide_gscore>
-7.45507919499123

> <r_i_glide_lipo>
-3.09825669209268

> <r_i_glide_hbond>
-0.32

> <r_i_glide_metal>
0

> <r_i_glide_rewards>
-1.96508020279681

> <r_i_glide_evdw>
-48.1788711547852

> <r_i_glide_ecoul>
-3.86890506744385

> <r_i_glide_erotb>
0.91753701775409

> <r_i_glide_esite>
0

> <r_i_glide_emodel>
-71.5553113435818

> <r_i_glide_energy>
-52.047776222229

> <r_i_glide_einternal>
6.12056255340576

> <i_i_glide_confnum>
71

> <i_i_glide_posenum>
337

> <r_i_glide_eff_state_penalty>
0

> <s_user_duplicate_titles>
CHEMBL5491_lig17

> <i_f3d_flags>
0

> <s_m_subgroup_title>
dock_pv

> <s_m_subgroupid>
dock_pv

> <b_m_subgroup_collapsed>
1

$$$$
CHEMBL5491_lig298
                    3D
 Schrodinger Suite 2021-1.
 42 44  0  0  1  0            999 V2000
    0.5413   51.8631   29.4186 N   0  0  0  0  0  0
   -0.4835   51.6086   28.5695 C   0  0  0  0  0  0
   -0.4637   51.9929   27.2299 C   0  0  0  0  0  0
    0.6705   52.6605   26.7601 C   0  0  0  0  0  0
    1.7728   52.9125   27.5981 C   0  0  0  0  0  0
    1.6413   52.4859   28.9289 C   0  0  0  0  0  0
   -1.8930   51.7007   26.1798 S   0  0  0  0  0  0
   -1.8615   49.9989   25.6881 N   0  0  1  0  0  0
   -1.7582   52.5433   24.9867 O   0  0  0  0  0  0
   -3.0548   51.8630   27.0588 O   0  0  0  0  0  0
    3.0257   53.5651   27.0866 C   0  0  0  0  0  0
    3.2724   53.6087   25.7023 C   0  0  0  0  0  0
    5.1917   54.6407   27.4757 C   0  0  0  0  0  0
    3.9918   54.1091   27.9577 C   0  0  0  0  0  0
    5.3951   54.6484   26.1246 N   0  0  0  0  0  0
    4.4649   54.1539   25.2186 C   0  0  0  0  0  0
    4.9576   54.2793   23.9703 N   0  0  0  0  0  0
    6.1098   54.8659   24.1981 C   0  0  0  0  0  0
    6.4677   55.1078   25.4464 N   0  0  0  0  0  0
    6.8790   55.2219   23.1502 N   0  0  0  0  0  0
   -1.0036   49.4535   24.6039 C   0  0  0  0  0  0
   -1.3258   47.9507   24.4923 C   0  0  0  0  0  0
    0.4789   49.6259   24.9601 C   0  0  0  0  0  0
   -1.3163   50.1206   23.2467 C   0  0  0  0  0  0
   -1.3348   51.0881   28.9893 H   0  0  0  0  0  0
    0.6727   52.9783   25.7300 H   0  0  0  0  0  0
    2.4315   52.6226   29.6506 H   0  0  0  0  0  0
   -1.9035   49.3658   26.5009 H   0  0  0  0  0  0
    2.5914   53.1846   24.9844 H   0  0  0  0  0  0
    5.9724   55.0563   28.0990 H   0  0  0  0  0  0
    3.8327   54.1174   29.0255 H   0  0  0  0  0  0
    6.5680   55.0414   22.2095 H   0  0  0  0  0  0
    7.8606   55.4413   23.2867 H   0  0  0  0  0  0
   -0.7259   47.4642   23.7231 H   0  0  0  0  0  0
   -2.3751   47.7813   24.2484 H   0  0  0  0  0  0
   -1.1236   47.4352   25.4325 H   0  0  0  0  0  0
    0.7775   50.6717   24.9604 H   0  0  0  0  0  0
    0.7114   49.2062   25.9410 H   0  0  0  0  0  0
    1.1155   49.1233   24.2324 H   0  0  0  0  0  0
   -0.9358   51.1386   23.1838 H   0  0  0  0  0  0
   -0.8530   49.5753   22.4232 H   0  0  0  0  0  0
   -2.3893   50.1514   23.0533 H   0  0  0  0  0  0
  1  2  2  0  0  0
  1  6  1  0  0  0
  2  3  1  0  0  0
  2 25  1  0  0  0
  3  4  2  0  0  0
  3  7  1  0  0  0
  4  5  1  0  0  0
  4 26  1  0  0  0
  5  6  2  0  0  0
  5 11  1  0  0  0
  6 27  1  0  0  0
  7  8  1  0  0  0
  7  9  2  0  0  0
  7 10  2  0  0  0
  8 21  1  0  0  0
  8 28  1  0  0  0
 11 12  2  0  0  0
 11 14  1  0  0  0
 12 16  1  0  0  0
 12 29  1  0  0  0
 13 15  1  0  0  0
 13 14  2  0  0  0
 13 30  1  0  0  0
 14 31  1  0  0  0
 15 16  1  0  0  0
 15 19  1  0  0  0
 16 17  2  0  0  0
 17 18  1  0  0  0
 18 19  2  0  0  0
 18 20  1  0  0  0
 20 32  1  0  0  0
 20 33  1  0  0  0
 21 22  1  0  0  0
 21 23  1  0  0  0
 21 24  1  0  0  0
 22 34  1  0  0  0
 22 35  1  0  0  0
 22 36  1  0  0  0
 23 37  1  0  0  0
 23 38  1  0  0  0
 23 39  1  0  0  0
 24 40  1  0  0  0
 24 41  1  0  0  0
 24 42  1  0  0  0
M  END
> <s_m_entry_id>
46358

> <s_m_entry_name>
dock_pv.99

> <s_m_Source_Path>
/home/csk/Desktop/cluster/DUD-E-result/wee1

> <s_m_Source_File>
dock_pv.maegz

> <i_m_Source_File_Index>
99

> <chembl_id>
CHEMBL2205766

> <chembl_pref_name>
None

> <i_lp_mmshare_version>
53161

> <r_lp_tautomer_probability>
1

> <s_lp_Force_Field>
OPLS_2005

> <r_lp_Energy>
5.953032

> <b_lp_Chiralities_Consistent>
1

> <s_lp_Variant>
CHEMBL5491_lig298-1

> <s_i_glide_gridfile>
glide-grid_3biz

> <i_i_glide_lignum>
315

> <i_i_glide_rotatable_bonds>
4

> <r_i_docking_score>
-7.43464570882644

> <r_i_glide_ligand_efficiency>
-0.309776904534435

> <r_i_glide_ligand_efficiency_sa>
-0.893551213965311

> <r_i_glide_ligand_efficiency_ln>
-1.77945187178388

> <r_i_glide_gscore>
-7.43464570882644

> <r_i_glide_lipo>
-1.26462026476538

> <r_i_glide_hbond>
-0.456

> <r_i_glide_metal>
0

> <r_i_glide_rewards>
-2.87896373950424

> <r_i_glide_evdw>
-33.7654228210449

> <r_i_glide_ecoul>
-9.78225612640381

> <r_i_glide_erotb>
0.475298585563725

> <r_i_glide_esite>
-0.154750730107729

> <r_i_glide_emodel>
-61.2780598380158

> <r_i_glide_energy>
-43.5476789474487

> <r_i_glide_einternal>
2.13095784187317

> <i_i_glide_confnum>
2

> <i_i_glide_posenum>
336

> <r_i_glide_eff_state_penalty>
0

> <s_user_duplicate_titles>
CHEMBL5491_lig298

> <i_f3d_flags>
0

> <s_m_subgroup_title>
dock_pv

> <s_m_subgroupid>
dock_pv

> <b_m_subgroup_collapsed>
1

$$$$
CHEMBL5491_lig251
                    3D
 Schrodinger Suite 2021-1.
 47 51  0  0  1  0            999 V2000
    2.5522   53.3788   29.6030 C   0  0  0  0  0  0
    3.6462   54.2001   29.3545 C   0  0  0  0  0  0
    4.0381   54.5255   28.0566 C   0  0  0  0  0  0
    1.8086   52.8516   28.5553 C   0  0  0  0  0  0
    2.1624   53.1623   27.2293 C   0  0  0  0  0  0
    3.2747   54.0111   26.9975 C   0  0  0  0  0  0
    3.4100   54.1608   25.6226 N   0  0  0  0  0  0
    2.1976   53.0630   30.8870 O   0  0  0  0  0  0
    1.6790   52.7492   25.9695 C   0  0  0  0  0  0
    2.4486   53.3970   24.9691 C   0  0  0  0  0  0
    2.2034   53.1807   23.5995 C   0  0  0  0  0  0
    1.3059   52.1628   23.2203 C   0  0  0  0  0  0
    1.1677   51.8217   21.7601 C   0  0  0  0  0  0
   -0.0864   51.8290   21.1025 C   0  0  0  0  0  0
   -0.1888   51.4922   19.7521 C   0  0  0  0  0  0
    0.9417   51.1564   19.0189 C   0  0  0  0  0  0
    2.1841   51.1612   19.6369 C   0  0  0  0  0  0
    2.3051   51.4904   20.9865 C   0  0  0  0  0  0
    0.7008   51.8325   25.5544 C   0  0  0  0  0  0
    0.5932   51.4877   24.2294 C   0  0  0  0  0  0
   -0.3111   50.2946   24.1839 C   0  0  0  0  0  0
   -0.7775   50.1446   25.4367 N   0  0  0  0  0  0
   -0.2835   51.0276   26.3171 C   0  0  0  0  0  0
   -0.5929   49.5725   23.2297 O   0  0  0  0  0  0
   -0.5912   51.1089   27.4993 O   0  0  0  0  0  0
    4.4765   54.9222   24.9768 C   0  0  0  0  0  0
    5.8642   54.2541   25.1663 C   0  0  0  0  0  0
    6.5752   53.8714   23.8575 C   0  0  0  0  0  0
    6.8790   55.0264   23.1082 O   0  0  0  0  0  0
   -1.5639   52.2630   21.8952 Cl  0  0  0  0  0  0
    3.9050   51.4630   21.6463 Cl  0  0  0  0  0  0
    4.2188   54.5863   30.1845 H   0  0  0  0  0  0
    4.9070   55.1425   27.8870 H   0  0  0  0  0  0
    0.9881   52.1994   28.7941 H   0  0  0  0  0  0
    2.4791   53.7217   31.5449 H   0  0  0  0  0  0
    2.7688   53.7059   22.8434 H   0  0  0  0  0  0
   -1.1531   51.4932   19.2655 H   0  0  0  0  0  0
    0.8606   50.8959   17.9734 H   0  0  0  0  0  0
    3.0621   50.9040   19.0610 H   0  0  0  0  0  0
   -1.4102   49.4104   25.7201 H   0  0  0  0  0  0
    4.2294   55.0628   23.9256 H   0  0  0  0  0  0
    4.4794   55.9091   25.4341 H   0  0  0  0  0  0
    6.5115   54.9150   25.7439 H   0  0  0  0  0  0
    5.7774   53.3588   25.7824 H   0  0  0  0  0  0
    7.4900   53.3088   24.0465 H   0  0  0  0  0  0
    5.9208   53.2502   23.2445 H   0  0  0  0  0  0
    7.8224   55.2073   23.2285 H   0  0  0  0  0  0
  1  2  2  0  0  0
  1  8  1  0  0  0
  1  4  1  0  0  0
  2  3  1  0  0  0
  2 32  1  0  0  0
  3  6  2  0  0  0
  3 33  1  0  0  0
  4  5  2  0  0  0
  4 34  1  0  0  0
  5  9  1  0  0  0
  5  6  1  0  0  0
  6  7  1  0  0  0
  7 10  1  0  0  0
  7 26  1  0  0  0
  8 35  1  0  0  0
  9 10  2  0  0  0
  9 19  1  0  0  0
 10 11  1  0  0  0
 11 12  2  0  0  0
 11 36  1  0  0  0
 12 13  1  0  0  0
 12 20  1  0  0  0
 13 18  1  0  0  0
 13 14  2  0  0  0
 14 15  1  0  0  0
 14 30  1  0  0  0
 15 16  2  0  0  0
 15 37  1  0  0  0
 16 17  1  0  0  0
 16 38  1  0  0  0
 17 18  2  0  0  0
 17 39  1  0  0  0
 18 31  1  0  0  0
 19 20  2  0  0  0
 19 23  1  0  0  0
 20 21  1  0  0  0
 21 22  1  0  0  0
 21 24  2  0  0  0
 22 23  1  0  0  0
 22 40  1  0  0  0
 23 25  2  0  0  0
 26 27  1  0  0  0
 26 41  1  0  0  0
 26 42  1  0  0  0
 27 28  1  0  0  0
 27 43  1  0  0  0
 27 44  1  0  0  0
 28 29  1  0  0  0
 28 45  1  0  0  0
 28 46  1  0  0  0
 29 47  1  0  0  0
M  END
> <s_m_entry_id>
46359

> <s_m_entry_name>
dock_pv.100

> <s_m_Source_Path>
/home/csk/Desktop/cluster/DUD-E-result/wee1

> <s_m_Source_File>
dock_pv.maegz

> <i_m_Source_File_Index>
100

> <chembl_id>
CHEMBL471163

> <chembl_pref_name>
None

> <i_lp_mmshare_version>
53161

> <r_lp_tautomer_probability>
1

> <s_lp_Force_Field>
OPLS_2005

> <r_lp_Energy>
68.679256

> <b_lp_Chiralities_Consistent>
1

> <s_lp_Variant>
CHEMBL5491_lig251-1

> <s_i_glide_gridfile>
glide-grid_3biz

> <i_i_glide_lignum>
264

> <i_i_glide_rotatable_bonds>
6

> <r_i_docking_score>
-7.40487798891754

> <r_i_glide_ligand_efficiency>
-0.238867031900566

> <r_i_glide_ligand_efficiency_sa>
-0.750372271647673

> <r_i_glide_ligand_efficiency_ln>
-1.67002691875773

> <r_i_glide_gscore>
-7.40487798891754

> <r_i_glide_lipo>
-2.58551099139611

> <r_i_glide_hbond>
-0.608

> <r_i_glide_metal>
0

> <r_i_glide_rewards>
-0.581414876041339

> <r_i_glide_evdw>
-37.7567443847656

> <r_i_glide_ecoul>
-13.2273845672607

> <r_i_glide_erotb>
0.387631364697959

> <r_i_glide_esite>
-0.145638581850658

> <r_i_glide_emodel>
-65.1514299418468

> <r_i_glide_energy>
-50.9841289520264

> <r_i_glide_einternal>
10.4345951080322

> <i_i_glide_confnum>
44

> <i_i_glide_posenum>
233

> <r_i_glide_eff_state_penalty>
0

> <s_user_duplicate_titles>
CHEMBL5491_lig251,451782

> <i_f3d_flags>
0

> <s_m_subgroup_title>
dock_pv

> <s_m_subgroupid>
dock_pv

> <b_m_subgroup_collapsed>
1

$$$$
CHEMBL5491_lig137
                    3D
 Schrodinger Suite 2021-1.
 38 42  0  0  1  0            999 V2000
    5.6661   54.8010   19.9750 C   0  0  0  0  0  0
    6.7862   55.4378   20.5029 C   0  0  0  0  0  0
    7.0320   55.4629   21.8752 C   0  0  0  0  0  0
    4.7147   54.2085   20.8054 C   0  0  0  0  0  0
    4.8918   54.2637   22.1988 C   0  0  0  0  0  0
    6.0791   54.8636   22.7089 C   0  0  0  0  0  0
    6.0326   54.7575   24.0831 N   0  0  0  0  0  0
    4.0869   53.9029   23.3101 C   0  0  0  0  0  0
    4.8036   54.2632   24.4819 C   0  0  0  0  0  0
    4.2623   54.1134   25.7652 C   0  0  0  0  0  0
    2.9637   53.5873   25.9012 C   0  0  0  0  0  0
    2.8059   53.3340   23.4759 C   0  0  0  0  0  0
    2.2674   53.1914   24.7394 C   0  0  0  0  0  0
    0.9190   52.5696   24.5518 C   0  0  0  0  0  0
    0.7812   52.3789   23.2309 N   0  0  0  0  0  0
    1.8308   52.7766   22.4978 C   0  0  0  0  0  0
    0.0719   52.2628   25.3862 O   0  0  0  0  0  0
    1.9210   52.6628   21.2808 O   0  0  0  0  0  0
    5.4943   54.7700   18.6173 O   0  0  0  0  0  0
    2.4189   53.4618   27.2927 C   0  0  0  0  0  0
    1.8445   52.2717   27.7625 C   0  0  0  0  0  0
    1.4326   52.1485   29.0865 C   0  0  0  0  0  0
    1.6076   53.2093   29.9686 C   0  0  0  0  0  0
    2.1483   54.4091   29.5190 C   0  0  0  0  0  0
    2.5419   54.5323   28.1905 C   0  0  0  0  0  0
    1.2716   53.0627   31.2866 O   0  0  0  0  0  0
    7.4998   55.8901   19.8290 H   0  0  0  0  0  0
    7.9208   55.9345   22.2678 H   0  0  0  0  0  0
    3.8356   53.7635   20.3700 H   0  0  0  0  0  0
    6.7566   55.0819   24.7063 H   0  0  0  0  0  0
    4.8348   54.3966   26.6366 H   0  0  0  0  0  0
   -0.0313   51.9419   22.8250 H   0  0  0  0  0  0
    4.7314   54.2542   18.3434 H   0  0  0  0  0  0
    1.7216   51.4224   27.1122 H   0  0  0  0  0  0
    0.9989   51.2187   29.4275 H   0  0  0  0  0  0
    2.2780   55.2412   30.1952 H   0  0  0  0  0  0
    2.9747   55.4637   27.8630 H   0  0  0  0  0  0
    1.6620   53.7468   31.8484 H   0  0  0  0  0  0
  1  2  2  0  0  0
  1 19  1  0  0  0
  1  4  1  0  0  0
  2  3  1  0  0  0
  2 27  1  0  0  0
  3  6  2  0  0  0
  3 28  1  0  0  0
  4  5  2  0  0  0
  4 29  1  0  0  0
  5  8  1  0  0  0
  5  6  1  0  0  0
  6  7  1  0  0  0
  7  9  1  0  0  0
  7 30  1  0  0  0
  8  9  2  0  0  0
  8 12  1  0  0  0
  9 10  1  0  0  0
 10 11  2  0  0  0
 10 31  1  0  0  0
 11 13  1  0  0  0
 11 20  1  0  0  0
 12 13  2  0  0  0
 12 16  1  0  0  0
 13 14  1  0  0  0
 14 15  1  0  0  0
 14 17  2  0  0  0
 15 16  1  0  0  0
 15 32  1  0  0  0
 16 18  2  0  0  0
 19 33  1  0  0  0
 20 21  2  0  0  0
 20 25  1  0  0  0
 21 22  1  0  0  0
 21 34  1  0  0  0
 22 23  2  0  0  0
 22 35  1  0  0  0
 23 24  1  0  0  0
 23 26  1  0  0  0
 24 25  2  0  0  0
 24 36  1  0  0  0
 25 37  1  0  0  0
 26 38  1  0  0  0
M  END
> <s_m_entry_id>
46360

> <s_m_entry_name>
dock_pv.101

> <s_m_Source_Path>
/home/csk/Desktop/cluster/DUD-E-result/wee1

> <s_m_Source_File>
dock_pv.maegz

> <i_m_Source_File_Index>
101

> <chembl_id>
CHEMBL212660

> <chembl_pref_name>
None

> <i_lp_mmshare_version>
53161

> <r_lp_tautomer_probability>
0.999999999997365

> <s_lp_Force_Field>
OPLS_2005

> <r_lp_Energy>
64.779201

> <b_lp_Chiralities_Consistent>
1

> <s_lp_Variant>
CHEMBL5491_lig137-1

> <s_i_glide_gridfile>
glide-grid_3biz

> <i_i_glide_lignum>
139

> <i_i_glide_rotatable_bonds>
3

> <r_i_docking_score>
-7.40426446552747

> <r_i_glide_ligand_efficiency>
-0.284779402520287

> <r_i_glide_ligand_efficiency_sa>
-0.843657859413512

> <r_i_glide_ligand_efficiency_ln>
-1.7388672143558

> <r_i_glide_gscore>
-7.40426446552747

> <r_i_glide_lipo>
-3.23284549344925

> <r_i_glide_hbond>
-0.32

> <r_i_glide_metal>
0

> <r_i_glide_rewards>
-1.44952265626884

> <r_i_glide_evdw>
-36.1999435424805

> <r_i_glide_ecoul>
-5.01361274719238

> <r_i_glide_erotb>
0.160142773393499

> <r_i_glide_esite>
0

> <r_i_glide_emodel>
-59.2957211293017

> <r_i_glide_energy>
-41.2135562896729

> <r_i_glide_einternal>
0.942267775535583

> <i_i_glide_confnum>
1

> <i_i_glide_posenum>
280

> <r_i_glide_eff_state_penalty>
0

> <s_user_duplicate_titles>
CHEMBL5491_lig137,356005

> <i_f3d_flags>
0

> <s_m_subgroup_title>
dock_pv

> <s_m_subgroupid>
dock_pv

> <b_m_subgroup_collapsed>
1

$$$$
CHEMBL5491_lig90
                    3D
 Schrodinger Suite 2021-1.
 36 40  0  0  1  0            999 V2000
    2.7804   53.9963   29.1890 C   0  0  0  0  0  0
    4.0517   54.2286   29.6869 C   0  0  0  0  0  0
    5.1339   54.4364   28.8455 C   0  0  0  0  0  0
    2.5625   53.8913   27.8114 C   0  0  0  0  0  0
    3.6530   54.0325   26.9157 C   0  0  0  0  0  0
    4.9237   54.3545   27.4692 C   0  0  0  0  0  0
    6.0952   54.6584   26.2155 S   0  0  0  0  0  0
    3.6863   53.9091   25.4931 C   0  0  0  0  0  0
    4.9541   54.2685   24.9577 C   0  0  0  0  0  0
    5.2179   54.2621   23.5874 C   0  0  0  0  0  0
    4.2215   53.8832   22.6812 C   0  0  0  0  0  0
    2.7036   53.4622   24.5679 C   0  0  0  0  0  0
    2.9780   53.4606   23.2051 C   0  0  0  0  0  0
    1.7629   52.8899   22.5314 C   0  0  0  0  0  0
    0.9010   52.5961   23.5118 N   0  0  0  0  0  0
    1.3645   52.8222   24.7452 C   0  0  0  0  0  0
    1.5389   52.6631   21.3472 O   0  0  0  0  0  0
    0.7684   52.5040   25.7667 O   0  0  0  0  0  0
    1.7444   53.8872   30.0819 O   0  0  0  0  0  0
    4.5729   53.9531   21.2236 C   0  0  0  0  0  0
    4.2589   52.9299   20.3230 C   0  0  0  0  0  0
    4.5478   53.0630   18.9666 C   0  0  0  0  0  0
    5.2177   54.1877   18.5002 C   0  0  0  0  0  0
    5.5991   55.1872   19.3854 C   0  0  0  0  0  0
    5.2792   55.0630   20.7341 C   0  0  0  0  0  0
    4.2044   54.2634   30.7560 H   0  0  0  0  0  0
    6.1056   54.6627   29.2534 H   0  0  0  0  0  0
    1.5531   53.7430   27.4848 H   0  0  0  0  0  0
    6.1996   54.5448   23.2355 H   0  0  0  0  0  0
    0.0117   52.1563   23.3397 H   0  0  0  0  0  0
    2.0186   54.0849   30.9876 H   0  0  0  0  0  0
    3.7828   52.0205   20.6566 H   0  0  0  0  0  0
    4.2797   52.2654   18.2866 H   0  0  0  0  0  0
    5.4544   54.2755   17.4505 H   0  0  0  0  0  0
    6.1265   56.0588   19.0277 H   0  0  0  0  0  0
    5.5628   55.8633   21.3995 H   0  0  0  0  0  0
  1  2  2  0  0  0
  1 19  1  0  0  0
  1  4  1  0  0  0
  2  3  1  0  0  0
  2 26  1  0  0  0
  3  6  2  0  0  0
  3 27  1  0  0  0
  4  5  2  0  0  0
  4 28  1  0  0  0
  5  8  1  0  0  0
  5  6  1  0  0  0
  6  7  1  0  0  0
  7  9  1  0  0  0
  8 12  1  0  0  0
  8  9  2  0  0  0
  9 10  1  0  0  0
 10 11  2  0  0  0
 10 29  1  0  0  0
 11 13  1  0  0  0
 11 20  1  0  0  0
 12 13  2  0  0  0
 12 16  1  0  0  0
 13 14  1  0  0  0
 14 15  1  0  0  0
 14 17  2  0  0  0
 15 16  1  0  0  0
 15 30  1  0  0  0
 16 18  2  0  0  0
 19 31  1  0  0  0
 20 21  2  0  0  0
 20 25  1  0  0  0
 21 22  1  0  0  0
 21 32  1  0  0  0
 22 23  2  0  0  0
 22 33  1  0  0  0
 23 24  1  0  0  0
 23 34  1  0  0  0
 24 25  2  0  0  0
 24 35  1  0  0  0
 25 36  1  0  0  0
M  END
> <s_m_entry_id>
46361

> <s_m_entry_name>
dock_pv.102

> <s_m_Source_Path>
/home/csk/Desktop/cluster/DUD-E-result/wee1

> <s_m_Source_File>
dock_pv.maegz

> <i_m_Source_File_Index>
102

> <chembl_id>
CHEMBL378756

> <chembl_pref_name>
None

> <i_lp_mmshare_version>
53161

> <r_lp_tautomer_probability>
1

> <s_lp_Force_Field>
OPLS_2005

> <r_lp_Energy>
58.04694

> <b_lp_Chiralities_Consistent>
1

> <s_lp_Variant>
CHEMBL5491_lig90-1

> <s_i_glide_gridfile>
glide-grid_3biz

> <i_i_glide_lignum>
90

> <i_i_glide_rotatable_bonds>
2

> <r_i_docking_score>
-7.38849734143793

> <r_i_glide_ligand_efficiency>
-0.295539893657517

> <r_i_glide_ligand_efficiency_sa>
-0.864163890476912

> <r_i_glide_ligand_efficiency_ln>
-1.75129528531899

> <r_i_glide_gscore>
-7.38849734143793

> <r_i_glide_lipo>
-3.26629099919047

> <r_i_glide_hbond>
-0.32

> <r_i_glide_metal>
0

> <r_i_glide_rewards>
-1.5413159944455

> <r_i_glide_evdw>
-36.6219520568848

> <r_i_glide_ecoul>
-3.92713761329651

> <r_i_glide_erotb>
0.159277897036751

> <r_i_glide_esite>
0

> <r_i_glide_emodel>
-56.401026151155

> <r_i_glide_energy>
-40.5490896701813

> <r_i_glide_einternal>
2.06082820892334

> <i_i_glide_confnum>
4

> <i_i_glide_posenum>
168

> <r_i_glide_eff_state_penalty>
0

> <s_user_duplicate_titles>
CHEMBL5491_lig90,355504

> <i_f3d_flags>
0

> <s_m_subgroup_title>
dock_pv

> <s_m_subgroupid>
dock_pv

> <b_m_subgroup_collapsed>
1

$$$$
CHEMBL5491_lig71
                    3D
 Schrodinger Suite 2021-1.
 51 54  0  0  1  0            999 V2000
    4.4575   54.2686   26.2660 N   0  0  0  0  0  0
    2.5455   53.7999   27.6327 C   0  0  0  0  0  0
    3.7200   53.9402   25.0866 C   0  0  0  0  0  0
    3.9608   54.1927   27.5479 C   0  0  0  0  0  0
    4.2987   54.0976   23.8630 N   0  0  0  0  0  0
    2.4067   53.4715   25.2117 C   0  0  0  0  0  0
    1.8330   53.4171   26.5500 C   0  0  0  0  0  0
    1.8625   53.7890   28.9459 C   0  0  0  0  0  0
    3.5477   53.7714   22.7781 C   0  0  0  0  0  0
    2.2748   53.3034   22.8217 N   0  0  0  0  0  0
    1.7105   53.1612   24.0457 C   0  0  0  0  0  0
    4.0758   53.8765   21.4900 N   0  0  0  0  0  0
    4.6305   54.4261   28.5582 O   0  0  0  0  0  0
    7.4413   58.1894   18.1016 C   0  0  0  0  0  0
    1.5929   52.5679   29.5906 C   0  0  0  0  0  0
    1.4355   54.9831   29.5570 C   0  0  0  0  0  0
    6.8842   58.3426   19.1884 O   0  0  0  0  0  0
    5.8635   54.6890   26.0914 C   0  0  0  0  0  0
    5.2589   54.3992   20.9500 C   0  0  0  0  0  0
    7.2811   59.0628   17.1142 N   0  0  0  0  0  0
    8.3774   57.0044   17.8087 C   0  0  0  0  0  0
    1.7520   56.5439   28.8887 Cl  0  0  0  0  0  0
    2.0801   51.0635   28.8867 Cl  0  0  0  0  0  0
    7.5159   55.4628   19.7001 C   0  0  0  0  0  0
    8.7216   56.0843   19.0089 C   0  0  0  0  0  0
    6.1841   55.1496   21.6857 C   0  0  0  0  0  0
    5.4825   54.1692   19.5918 C   0  0  0  0  0  0
    7.3083   55.6801   21.0629 C   0  0  0  0  0  0
    6.6099   54.6921   18.9678 C   0  0  0  0  0  0
    0.4774   53.7369   31.3874 C   0  0  0  0  0  0
    0.7397   54.9457   30.7574 C   0  0  0  0  0  0
    0.9143   52.5548   30.8106 C   0  0  0  0  0  0
    0.8058   53.1004   26.6753 H   0  0  0  0  0  0
    0.6907   52.8049   24.0741 H   0  0  0  0  0  0
    3.3993   53.6059   20.7923 H   0  0  0  0  0  0
    6.3774   54.9250   27.0247 H   0  0  0  0  0  0
    6.4279   53.8973   25.5988 H   0  0  0  0  0  0
    5.9124   55.5758   25.4595 H   0  0  0  0  0  0
    6.7425   59.9151   17.2898 H   0  0  0  0  0  0
    7.7106   58.9238   16.2159 H   0  0  0  0  0  0
    7.9122   56.4114   17.0206 H   0  0  0  0  0  0
    9.3053   57.3942   17.3893 H   0  0  0  0  0  0
    9.3650   55.2705   18.6696 H   0  0  0  0  0  0
    9.3262   56.6374   19.7288 H   0  0  0  0  0  0
    6.0531   55.3526   22.7343 H   0  0  0  0  0  0
    4.7826   53.5869   19.0091 H   0  0  0  0  0  0
    8.0103   56.2622   21.6424 H   0  0  0  0  0  0
    6.7665   54.5106   17.9149 H   0  0  0  0  0  0
   -0.0284   53.7141   32.3425 H   0  0  0  0  0  0
    0.4785   55.8728   31.2378 H   0  0  0  0  0  0
    0.7185   51.6373   31.3390 H   0  0  0  0  0  0
  1  3  1  0  0  0
  1  4  1  0  0  0
  1 18  1  0  0  0
  2  4  1  0  0  0
  2  7  2  0  0  0
  2  8  1  0  0  0
  3  5  2  0  0  0
  3  6  1  0  0  0
  4 13  2  0  0  0
  5  9  1  0  0  0
  6 11  2  0  0  0
  6  7  1  0  0  0
  7 33  1  0  0  0
  8 15  2  0  0  0
  8 16  1  0  0  0
  9 12  1  0  0  0
  9 10  2  0  0  0
 10 11  1  0  0  0
 11 34  1  0  0  0
 12 19  1  0  0  0
 12 35  1  0  0  0
 14 21  1  0  0  0
 14 17  2  0  0  0
 14 20  1  0  0  0
 15 23  1  0  0  0
 15 32  1  0  0  0
 16 22  1  0  0  0
 16 31  2  0  0  0
 18 36  1  0  0  0
 18 37  1  0  0  0
 18 38  1  0  0  0
 19 26  1  0  0  0
 19 27  2  0  0  0
 20 39  1  0  0  0
 20 40  1  0  0  0
 21 25  1  0  0  0
 21 41  1  0  0  0
 21 42  1  0  0  0
 24 29  2  0  0  0
 24 25  1  0  0  0
 24 28  1  0  0  0
 25 43  1  0  0  0
 25 44  1  0  0  0
 26 28  2  0  0  0
 26 45  1  0  0  0
 27 29  1  0  0  0
 27 46  1  0  0  0
 28 47  1  0  0  0
 29 48  1  0  0  0
 30 31  1  0  0  0
 30 32  2  0  0  0
 30 49  1  0  0  0
 31 50  1  0  0  0
 32 51  1  0  0  0
M  END
> <s_m_entry_id>
46362

> <s_m_entry_name>
dock_pv.103

> <s_m_Source_Path>
/home/csk/Desktop/cluster/DUD-E-result/wee1

> <s_m_Source_File>
dock_pv.maegz

> <i_m_Source_File_Index>
103

> <chembl_id>
CHEMBL433559

> <chembl_pref_name>
None

> <i_lp_mmshare_version>
53161

> <r_lp_tautomer_probability>
1

> <s_lp_Force_Field>
OPLS_2005

> <r_lp_Energy>
25.298812

> <b_lp_Chiralities_Consistent>
1

> <s_lp_Variant>
CHEMBL5491_lig71-1

> <s_i_glide_gridfile>
glide-grid_3biz

> <i_i_glide_lignum>
69

> <i_i_glide_rotatable_bonds>
6

> <r_i_docking_score>
-7.3874635905957

> <r_i_glide_ligand_efficiency>
-0.230858237206116

> <r_i_glide_ligand_efficiency_sa>
-0.732929216346311

> <r_i_glide_ligand_efficiency_ln>
-1.65425447258631

> <r_i_glide_gscore>
-7.3874635905957

> <r_i_glide_lipo>
-3.21663203480747

> <r_i_glide_hbond>
-0.40343951232084

> <r_i_glide_metal>
0

> <r_i_glide_rewards>
-1.10762747885584

> <r_i_glide_evdw>
-45.7638244628906

> <r_i_glide_ecoul>
-4.78851985931396

> <r_i_glide_erotb>
0.460230765009067

> <r_i_glide_esite>
-0.113526127578988

> <r_i_glide_emodel>
-70.7625663634887

> <r_i_glide_energy>
-50.5523443222046

> <r_i_glide_einternal>
6.56642150878906

> <i_i_glide_confnum>
3

> <i_i_glide_posenum>
126

> <r_i_glide_eff_state_penalty>
0

> <s_user_duplicate_titles>
CHEMBL5491_lig71,303167

> <i_f3d_flags>
0

> <s_m_subgroup_title>
dock_pv

> <s_m_subgroupid>
dock_pv

> <b_m_subgroup_collapsed>
1

$$$$
CHEMBL5491_lig130
                    3D
 Schrodinger Suite 2021-1.
 39 43  0  0  1  0            999 V2000
    2.8140   53.8196   29.2115 C   0  0  0  0  0  0
    4.0760   54.1896   29.6604 C   0  0  0  0  0  0
    5.1143   54.4684   28.7762 C   0  0  0  0  0  0
    2.5475   53.6827   27.8525 C   0  0  0  0  0  0
    3.5744   53.9363   26.9238 C   0  0  0  0  0  0
    4.8467   54.3372   27.4115 C   0  0  0  0  0  0
    5.6613   54.5471   26.3215 N   0  0  0  0  0  0
    3.6695   53.8630   25.5141 C   0  0  0  0  0  0
    4.9847   54.2585   25.1568 C   0  0  0  0  0  0
    5.4301   54.2647   23.8316 C   0  0  0  0  0  0
    4.5387   53.8819   22.8164 C   0  0  0  0  0  0
    2.8044   53.4626   24.4776 C   0  0  0  0  0  0
    3.2380   53.4647   23.1692 C   0  0  0  0  0  0
    2.1068   52.9065   22.3572 C   0  0  0  0  0  0
    1.1163   52.6570   23.2253 N   0  0  0  0  0  0
    1.4285   52.9004   24.5035 C   0  0  0  0  0  0
    2.0395   52.6629   21.1575 O   0  0  0  0  0  0
    0.7011   52.6628   25.4616 O   0  0  0  0  0  0
    1.8203   53.5924   30.1248 O   0  0  0  0  0  0
    5.0274   53.9689   21.4091 C   0  0  0  0  0  0
    5.6782   55.1337   20.9794 C   0  0  0  0  0  0
    6.1282   55.2908   19.6608 C   0  0  0  0  0  0
    5.9243   54.2392   18.7595 C   0  0  0  0  0  0
    5.3043   53.0645   19.1753 C   0  0  0  0  0  0
    4.8782   52.9230   20.4934 C   0  0  0  0  0  0
    6.7849   56.5477   19.2333 N   0  3  0  0  0  0
    6.8788   57.4629   20.0485 O   0  0  0  0  0  0
    7.2163   56.6248   18.0884 O   0  5  0  0  0  0
    4.2581   54.2629   30.7219 H   0  0  0  0  0  0
    6.0796   54.7717   29.1467 H   0  0  0  0  0  0
    1.5615   53.3822   27.5452 H   0  0  0  0  0  0
    6.6269   54.8321   26.3746 H   0  0  0  0  0  0
    6.4427   54.5600   23.5943 H   0  0  0  0  0  0
    0.2366   52.2568   22.9441 H   0  0  0  0  0  0
    2.0770   53.8617   31.0170 H   0  0  0  0  0  0
    5.8116   55.9420   21.6849 H   0  0  0  0  0  0
    6.2431   54.3232   17.7297 H   0  0  0  0  0  0
    5.1435   52.2654   18.4672 H   0  0  0  0  0  0
    4.4135   51.9931   20.7871 H   0  0  0  0  0  0
  1  2  2  0  0  0
  1 19  1  0  0  0
  1  4  1  0  0  0
  2  3  1  0  0  0
  2 29  1  0  0  0
  3  6  2  0  0  0
  3 30  1  0  0  0
  4  5  2  0  0  0
  4 31  1  0  0  0
  5  8  1  0  0  0
  5  6  1  0  0  0
  6  7  1  0  0  0
  7  9  1  0  0  0
  7 32  1  0  0  0
  8  9  2  0  0  0
  8 12  1  0  0  0
  9 10  1  0  0  0
 10 11  2  0  0  0
 10 33  1  0  0  0
 11 13  1  0  0  0
 11 20  1  0  0  0
 12 16  1  0  0  0
 12 13  2  0  0  0
 13 14  1  0  0  0
 14 15  1  0  0  0
 14 17  2  0  0  0
 15 16  1  0  0  0
 15 34  1  0  0  0
 16 18  2  0  0  0
 19 35  1  0  0  0
 20 21  2  0  0  0
 20 25  1  0  0  0
 21 22  1  0  0  0
 21 36  1  0  0  0
 22 23  2  0  0  0
 22 26  1  0  0  0
 23 24  1  0  0  0
 23 37  1  0  0  0
 24 25  2  0  0  0
 24 38  1  0  0  0
 25 39  1  0  0  0
 26 27  2  0  0  0
 26 28  1  0  0  0
M  CHG  2  26   1  28  -1
M  END
> <s_m_entry_id>
46363

> <s_m_entry_name>
dock_pv.104

> <s_m_Source_Path>
/home/csk/Desktop/cluster/DUD-E-result/wee1

> <s_m_Source_File>
dock_pv.maegz

> <i_m_Source_File_Index>
104

> <chembl_id>
CHEMBL379592

> <chembl_pref_name>
None

> <i_lp_mmshare_version>
53161

> <r_lp_tautomer_probability>
1

> <s_lp_Force_Field>
OPLS_2005

> <r_lp_Energy>
67.990666

> <b_lp_Chiralities_Consistent>
1

> <s_lp_Variant>
CHEMBL5491_lig130-1

> <s_i_glide_gridfile>
glide-grid_3biz

> <i_i_glide_lignum>
132

> <i_i_glide_rotatable_bonds>
3

> <r_i_docking_score>
-7.35648178397516

> <r_i_glide_ligand_efficiency>
-0.262731492284827

> <r_i_glide_ligand_efficiency_sa>
-0.797807551150389

> <r_i_glide_ligand_efficiency_ln>
-1.69809199143224

> <r_i_glide_gscore>
-7.35648178397516

> <r_i_glide_lipo>
-3.0800812880044

> <r_i_glide_hbond>
-0.32

> <r_i_glide_metal>
0

> <r_i_glide_rewards>
-1.28073434400267

> <r_i_glide_evdw>
-37.1506576538086

> <r_i_glide_ecoul>
-5.8595232963562

> <r_i_glide_erotb>
0.13865426006473

> <r_i_glide_esite>
-0.0778590348889611

> <r_i_glide_emodel>
-60.6234691202965

> <r_i_glide_energy>
-43.0101809501648

> <r_i_glide_einternal>
2.30230736732483

> <i_i_glide_confnum>
2

> <i_i_glide_posenum>
189

> <r_i_glide_eff_state_penalty>
0

> <s_user_duplicate_titles>
CHEMBL5491_lig130,356004

> <i_f3d_flags>
0

> <s_m_subgroup_title>
dock_pv

> <s_m_subgroupid>
dock_pv

> <b_m_subgroup_collapsed>
1

$$$$
CHEMBL5491_lig93
                    3D
 Schrodinger Suite 2021-1.
 43 47  0  0  1  0            999 V2000
    4.8608   54.5869   21.0007 C   0  0  0  0  0  0
    6.1210   55.0619   21.3423 C   0  0  0  0  0  0
    6.5610   55.0799   22.6645 C   0  0  0  0  0  0
    3.9725   54.1395   21.9783 C   0  0  0  0  0  0
    4.3521   54.1947   23.3306 C   0  0  0  0  0  0
    5.6544   54.6630   23.6463 C   0  0  0  0  0  0
    5.7617   54.6633   25.0173 N   0  0  0  0  0  0
    3.7093   53.8649   24.5517 C   0  0  0  0  0  0
    4.5995   54.2026   25.6061 C   0  0  0  0  0  0
    4.2902   54.0434   26.9708 C   0  0  0  0  0  0
    3.0270   53.4629   27.2795 C   0  0  0  0  0  0
    2.4780   53.2876   24.9017 C   0  0  0  0  0  0
    2.1761   53.0637   26.2251 C   0  0  0  0  0  0
    0.8788   52.3107   26.2362 C   0  0  0  0  0  0
    0.4938   52.2229   24.9536 N   0  0  0  0  0  0
    1.3444   52.7792   24.0780 C   0  0  0  0  0  0
    0.2528   51.8492   27.1853 O   0  0  0  0  0  0
    1.1806   52.8144   22.8626 O   0  0  0  0  0  0
    4.4790   54.5930   19.6871 O   0  0  0  0  0  0
    2.5849   53.2369   28.6976 C   0  0  0  0  0  0
    3.3652   52.4881   29.5865 C   0  0  0  0  0  0
    2.9317   52.2550   30.8875 C   0  0  0  0  0  0
    1.6629   52.6632   31.2793 C   0  0  0  0  0  0
    0.8803   53.4305   30.4214 C   0  0  0  0  0  0
    1.3575   53.7442   29.1504 C   0  0  0  0  0  0
    5.2929   54.4557   28.0556 C   0  0  0  0  0  0
    6.5276   53.5369   28.1113 C   0  0  0  0  0  0
    6.7818   55.4064   20.5609 H   0  0  0  0  0  0
    7.5439   55.4560   22.9048 H   0  0  0  0  0  0
    2.9978   53.7899   21.6816 H   0  0  0  0  0  0
    6.5768   54.9625   25.5281 H   0  0  0  0  0  0
   -0.3539   51.7560   24.6733 H   0  0  0  0  0  0
    3.5434   54.3884   19.5707 H   0  0  0  0  0  0
    4.3133   52.0831   29.2699 H   0  0  0  0  0  0
    3.5572   51.7099   31.5796 H   0  0  0  0  0  0
    1.3091   52.4446   32.2778 H   0  0  0  0  0  0
   -0.0845   53.7873   30.7474 H   0  0  0  0  0  0
    0.7412   54.3372   28.4893 H   0  0  0  0  0  0
    5.6371   55.4611   27.8235 H   0  0  0  0  0  0
    4.8334   54.5473   29.0378 H   0  0  0  0  0  0
    7.2202   53.8620   28.8869 H   0  0  0  0  0  0
    6.2539   52.5059   28.3243 H   0  0  0  0  0  0
    7.0770   53.5364   27.1713 H   0  0  0  0  0  0
  1  2  2  0  0  0
  1 19  1  0  0  0
  1  4  1  0  0  0
  2  3  1  0  0  0
  2 28  1  0  0  0
  3  6  2  0  0  0
  3 29  1  0  0  0
  4  5  2  0  0  0
  4 30  1  0  0  0
  5  8  1  0  0  0
  5  6  1  0  0  0
  6  7  1  0  0  0
  7  9  1  0  0  0
  7 31  1  0  0  0
  8  9  2  0  0  0
  8 12  1  0  0  0
  9 10  1  0  0  0
 10 11  2  0  0  0
 10 26  1  0  0  0
 11 13  1  0  0  0
 11 20  1  0  0  0
 12 16  1  0  0  0
 12 13  2  0  0  0
 13 14  1  0  0  0
 14 15  1  0  0  0
 14 17  2  0  0  0
 15 16  1  0  0  0
 15 32  1  0  0  0
 16 18  2  0  0  0
 19 33  1  0  0  0
 20 21  2  0  0  0
 20 25  1  0  0  0
 21 22  1  0  0  0
 21 34  1  0  0  0
 22 23  2  0  0  0
 22 35  1  0  0  0
 23 24  1  0  0  0
 23 36  1  0  0  0
 24 25  2  0  0  0
 24 37  1  0  0  0
 25 38  1  0  0  0
 26 27  1  0  0  0
 26 39  1  0  0  0
 26 40  1  0  0  0
 27 41  1  0  0  0
 27 42  1  0  0  0
 27 43  1  0  0  0
M  END
> <s_m_entry_id>
46364

> <s_m_entry_name>
dock_pv.105

> <s_m_Source_Path>
/home/csk/Desktop/cluster/DUD-E-result/wee1

> <s_m_Source_File>
dock_pv.maegz

> <i_m_Source_File_Index>
105

> <chembl_id>
CHEMBL384369

> <chembl_pref_name>
None

> <i_lp_mmshare_version>
53161

> <r_lp_tautomer_probability>
1

> <s_lp_Force_Field>
OPLS_2005

> <r_lp_Energy>
67.71169

> <b_lp_Chiralities_Consistent>
1

> <s_lp_Variant>
CHEMBL5491_lig93-1

> <s_i_glide_gridfile>
glide-grid_3biz

> <i_i_glide_lignum>
93

> <i_i_glide_rotatable_bonds>
3

> <r_i_docking_score>
-7.33582589401054

> <r_i_glide_ligand_efficiency>
-0.271697255333724

> <r_i_glide_ligand_efficiency_sa>
-0.815091765105701

> <r_i_glide_ligand_efficiency_ln>
-1.70765932758377

> <r_i_glide_gscore>
-7.33582589401054

> <r_i_glide_lipo>
-3.71270894004401

> <r_i_glide_hbond>
-0.131028403988301

> <r_i_glide_metal>
0

> <r_i_glide_rewards>
-1.30324089164266

> <r_i_glide_evdw>
-42.0009384155273

> <r_i_glide_ecoul>
-1.59626877307892

> <r_i_glide_erotb>
0.150639578402643

> <r_i_glide_esite>
0

> <r_i_glide_emodel>
-60.7327901782715

> <r_i_glide_energy>
-43.5972071886063

> <r_i_glide_einternal>
1.12278580665588

> <i_i_glide_confnum>
3

> <i_i_glide_posenum>
31

> <r_i_glide_eff_state_penalty>
0

> <s_user_duplicate_titles>
CHEMBL5491_lig93

> <i_f3d_flags>
0

> <s_m_subgroup_title>
dock_pv

> <s_m_subgroupid>
dock_pv

> <b_m_subgroup_collapsed>
1

$$$$
CHEMBL5491_lig148
                    3D
 Schrodinger Suite 2021-1.
 38 42  0  0  1  0            999 V2000
    5.2597   54.6156   21.2176 C   0  0  0  0  0  0
    6.4701   55.1120   21.6904 C   0  0  0  0  0  0
    6.7480   55.1884   23.0535 C   0  0  0  0  0  0
    4.2679   54.1836   22.0974 C   0  0  0  0  0  0
    4.5012   54.2612   23.4839 C   0  0  0  0  0  0
    5.7551   54.7533   23.9383 C   0  0  0  0  0  0
    5.7232   54.7614   25.3150 N   0  0  0  0  0  0
    3.7376   53.9254   24.6290 C   0  0  0  0  0  0
    4.5166   54.2720   25.7671 C   0  0  0  0  0  0
    4.0572   54.0893   27.0753 C   0  0  0  0  0  0
    2.8278   53.4426   27.2670 C   0  0  0  0  0  0
    2.4816   53.3276   24.8532 C   0  0  0  0  0  0
    2.0745   53.0614   26.1404 C   0  0  0  0  0  0
    0.8113   52.2647   26.0255 C   0  0  0  0  0  0
    0.5298   52.2132   24.7128 N   0  0  0  0  0  0
    1.4347   52.8155   23.9254 C   0  0  0  0  0  0
    5.0374   54.5676   19.8680 O   0  0  0  0  0  0
    0.1322   51.7558   26.9114 O   0  0  0  0  0  0
    2.3613   53.1759   28.6610 C   0  0  0  0  0  0
    3.1534   52.5107   29.6216 C   0  0  0  0  0  0
    2.6571   52.2683   30.9014 C   0  0  0  0  0  0
    1.3683   52.6630   31.2376 C   0  0  0  0  0  0
    0.5807   53.3312   30.3109 C   0  0  0  0  0  0
    1.0811   53.6036   29.0420 C   0  0  0  0  0  0
    1.3740   52.8824   22.7020 O   0  0  0  0  0  0
    4.7497   51.9426   29.2870 Cl  0  0  0  0  0  0
    0.8790   52.4243   32.4870 O   0  0  0  0  0  0
    7.2133   55.4507   20.9815 H   0  0  0  0  0  0
    7.6789   55.6089   23.3989 H   0  0  0  0  0  0
    3.3360   53.8133   21.7042 H   0  0  0  0  0  0
    6.4752   55.0726   25.9103 H   0  0  0  0  0  0
    4.6607   54.3851   27.9210 H   0  0  0  0  0  0
   -0.2801   51.7360   24.3506 H   0  0  0  0  0  0
    4.1712   54.2253   19.6333 H   0  0  0  0  0  0
    3.2807   51.7888   31.6414 H   0  0  0  0  0  0
   -0.4118   53.6486   30.5819 H   0  0  0  0  0  0
    0.4527   54.1285   28.3375 H   0  0  0  0  0  0
    1.5525   52.3170   33.1725 H   0  0  0  0  0  0
  1 17  1  0  0  0
  1  2  2  0  0  0
  1  4  1  0  0  0
  2  3  1  0  0  0
  2 28  1  0  0  0
  3  6  2  0  0  0
  3 29  1  0  0  0
  4  5  2  0  0  0
  4 30  1  0  0  0
  5  8  1  0  0  0
  5  6  1  0  0  0
  6  7  1  0  0  0
  7  9  1  0  0  0
  7 31  1  0  0  0
  8  9  2  0  0  0
  8 12  1  0  0  0
  9 10  1  0  0  0
 10 11  2  0  0  0
 10 32  1  0  0  0
 11 19  1  0  0  0
 11 13  1  0  0  0
 12 16  1  0  0  0
 12 13  2  0  0  0
 13 14  1  0  0  0
 14 15  1  0  0  0
 14 18  2  0  0  0
 15 16  1  0  0  0
 15 33  1  0  0  0
 16 25  2  0  0  0
 17 34  1  0  0  0
 19 20  2  0  0  0
 19 24  1  0  0  0
 20 21  1  0  0  0
 20 26  1  0  0  0
 21 22  2  0  0  0
 21 35  1  0  0  0
 22 23  1  0  0  0
 22 27  1  0  0  0
 23 24  2  0  0  0
 23 36  1  0  0  0
 24 37  1  0  0  0
 27 38  1  0  0  0
M  END
> <s_m_entry_id>
46365

> <s_m_entry_name>
dock_pv.106

> <s_m_Source_Path>
/home/csk/Desktop/cluster/DUD-E-result/wee1

> <s_m_Source_File>
dock_pv.maegz

> <i_m_Source_File_Index>
106

> <chembl_id>
CHEMBL213367

> <chembl_pref_name>
None

> <i_lp_mmshare_version>
53161

> <r_lp_tautomer_probability>
0.999999999997365

> <s_lp_Force_Field>
OPLS_2005

> <r_lp_Energy>
64.473277

> <b_lp_Chiralities_Consistent>
1

> <s_lp_Variant>
CHEMBL5491_lig148-1

> <s_i_glide_gridfile>
glide-grid_3biz

> <i_i_glide_lignum>
151

> <i_i_glide_rotatable_bonds>
3

> <r_i_docking_score>
-7.31746948391446

> <r_i_glide_ligand_efficiency>
-0.271017388293128

> <r_i_glide_ligand_efficiency_sa>
-0.813052163986155

> <r_i_glide_ligand_efficiency_ln>
-1.70338625794248

> <r_i_glide_gscore>
-7.31746948391446

> <r_i_glide_lipo>
-3.37535525970944

> <r_i_glide_hbond>
-0.32

> <r_i_glide_metal>
0

> <r_i_glide_rewards>
-1.13542160546336

> <r_i_glide_evdw>
-38.8407592773438

> <r_i_glide_ecoul>
-4.53173589706421

> <r_i_glide_erotb>
0.13510572968516

> <r_i_glide_esite>
0

> <r_i_glide_emodel>
-60.6060688569467

> <r_i_glide_energy>
-43.372495174408

> <r_i_glide_einternal>
1.42339241504669

> <i_i_glide_confnum>
1

> <i_i_glide_posenum>
98

> <r_i_glide_eff_state_penalty>
0

> <s_user_duplicate_titles>
CHEMBL5491_lig148,355976

> <i_f3d_flags>
0

> <s_m_subgroup_title>
dock_pv

> <s_m_subgroupid>
dock_pv

> <b_m_subgroup_collapsed>
1

$$$$
CHEMBL5491_lig138
                    3D
 Schrodinger Suite 2021-1.
 42 46  0  0  1  0            999 V2000
   -0.8652   51.7032   29.2869 C   0  0  0  0  0  0
   -0.1184   52.3504   30.2652 C   0  0  0  0  0  0
    1.0216   53.0876   29.9588 C   0  0  0  0  0  0
   -0.4758   51.7292   27.9526 C   0  0  0  0  0  0
    0.6713   52.4563   27.5930 C   0  0  0  0  0  0
    1.3938   53.1379   28.6128 C   0  0  0  0  0  0
    2.4416   53.7900   28.0073 N   0  0  0  0  0  0
    1.3425   52.6857   26.3692 C   0  0  0  0  0  0
    2.4427   53.5315   26.6544 C   0  0  0  0  0  0
    3.3217   53.9744   25.6671 C   0  0  0  0  0  0
    3.1657   53.5042   24.3520 C   0  0  0  0  0  0
    1.1675   52.2693   25.0353 C   0  0  0  0  0  0
    2.0790   52.6438   24.0682 C   0  0  0  0  0  0
    1.6901   51.8928   22.8297 C   0  0  0  0  0  0
    0.5469   51.2556   23.1256 N   0  0  0  0  0  0
    0.1371   51.4081   24.3923 C   0  0  0  0  0  0
   -0.8775   50.9115   24.8700 O   0  0  0  0  0  0
    2.2646   51.8100   21.7488 O   0  0  0  0  0  0
    4.2045   53.9314   23.3529 C   0  0  0  0  0  0
    5.5402   54.1108   23.7506 C   0  0  0  0  0  0
    6.4790   54.6629   22.8870 C   0  0  0  0  0  0
    6.1156   54.9854   21.5848 C   0  0  0  0  0  0
    4.8348   54.6841   21.1280 C   0  0  0  0  0  0
    3.8765   54.2308   22.0282 C   0  0  0  0  0  0
   -2.0244   51.0630   29.6372 O   0  0  0  0  0  0
    7.3484   55.8630   20.5520 S   0  0  1  0  0  0
    6.9658   55.0897   18.9088 C   0  0  0  0  0  0
    6.8790   57.3179   20.4870 O   0  0  0  0  0  0
   -0.4474   52.2968   31.2909 H   0  0  0  0  0  0
    1.5786   53.5986   30.7324 H   0  0  0  0  0  0
   -1.0670   51.1950   27.2276 H   0  0  0  0  0  0
    3.1209   54.3590   28.4914 H   0  0  0  0  0  0
    4.1289   54.6416   25.9299 H   0  0  0  0  0  0
    0.0588   50.6771   22.4608 H   0  0  0  0  0  0
    5.8539   53.8690   24.7554 H   0  0  0  0  0  0
    7.4767   54.8628   23.2387 H   0  0  0  0  0  0
    4.5248   54.9300   20.1242 H   0  0  0  0  0  0
    2.8579   54.1553   21.6870 H   0  0  0  0  0  0
   -1.9210   50.1086   29.7871 H   0  0  0  0  0  0
    6.9706   54.0019   18.9756 H   0  0  0  0  0  0
    7.7164   55.3955   18.1806 H   0  0  0  0  0  0
    5.9960   55.4195   18.5388 H   0  0  0  0  0  0
  1  2  2  0  0  0
  1  4  1  0  0  0
  1 25  1  0  0  0
  2  3  1  0  0  0
  2 29  1  0  0  0
  3  6  2  0  0  0
  3 30  1  0  0  0
  4  5  2  0  0  0
  4 31  1  0  0  0
  5  8  1  0  0  0
  5  6  1  0  0  0
  6  7  1  0  0  0
  7  9  1  0  0  0
  7 32  1  0  0  0
  8  9  2  0  0  0
  8 12  1  0  0  0
  9 10  1  0  0  0
 10 11  2  0  0  0
 10 33  1  0  0  0
 11 19  1  0  0  0
 11 13  1  0  0  0
 12 16  1  0  0  0
 12 13  2  0  0  0
 13 14  1  0  0  0
 14 15  1  0  0  0
 14 18  2  0  0  0
 15 16  1  0  0  0
 15 34  1  0  0  0
 16 17  2  0  0  0
 19 20  2  0  0  0
 19 24  1  0  0  0
 20 21  1  0  0  0
 20 35  1  0  0  0
 21 22  2  0  0  0
 21 36  1  0  0  0
 22 23  1  0  0  0
 22 26  1  0  0  0
 23 24  2  0  0  0
 23 37  1  0  0  0
 24 38  1  0  0  0
 25 39  1  0  0  0
 26 27  1  0  0  0
 26 28  2  0  0  0
 27 40  1  0  0  0
 27 41  1  0  0  0
 27 42  1  0  0  0
M  END
> <s_m_entry_id>
46366

> <s_m_entry_name>
dock_pv.107

> <s_m_Source_Path>
/home/csk/Desktop/cluster/DUD-E-result/wee1

> <s_m_Source_File>
dock_pv.maegz

> <i_m_Source_File_Index>
107

> <chembl_id>
CHEMBL379347

> <chembl_pref_name>
None

> <i_lp_mmshare_version>
53161

> <r_lp_tautomer_probability>
1

> <s_lp_Force_Field>
OPLS_2005

> <r_lp_Energy>
64.677882

> <b_lp_Chiralities_Consistent>
1

> <s_lp_Variant>
CHEMBL5491_lig138-1

> <s_i_glide_gridfile>
glide-grid_3biz

> <i_i_glide_lignum>
140

> <i_i_glide_rotatable_bonds>
3

> <r_i_docking_score>
-7.31657011944091

> <r_i_glide_ligand_efficiency>
-0.261306075694318

> <r_i_glide_ligand_efficiency_sa>
-0.793479146856129

> <r_i_glide_ligand_efficiency_ln>
-1.68887920740035

> <r_i_glide_gscore>
-7.31657011944091

> <r_i_glide_lipo>
-2.56296894986779

> <r_i_glide_hbond>
-0.458720583751053

> <r_i_glide_metal>
0

> <r_i_glide_rewards>
-1.10889514344183

> <r_i_glide_evdw>
-32.3929977416992

> <r_i_glide_ecoul>
-11.2612686157227

> <r_i_glide_erotb>
0.127961734905502

> <r_i_glide_esite>
-0.00510699784237018

> <r_i_glide_emodel>
-58.0757261015978

> <r_i_glide_energy>
-43.6542663574219

> <r_i_glide_einternal>
8.17739582061768

> <i_i_glide_confnum>
2

> <i_i_glide_posenum>
19

> <r_i_glide_eff_state_penalty>
0

> <s_user_duplicate_titles>
CHEMBL5491_lig138

> <i_f3d_flags>
0

> <s_m_subgroup_title>
dock_pv

> <s_m_subgroupid>
dock_pv

> <b_m_subgroup_collapsed>
1

$$$$
CHEMBL5491_lig204
                    3D
 Schrodinger Suite 2021-1.
 48 53  0  0  1  0            999 V2000
   -0.5794   50.5033   25.6622 C   0  0  0  0  0  0
   -0.3320   51.2083   26.8334 C   0  0  0  0  0  0
    0.5857   52.2525   26.8787 C   0  0  0  0  0  0
    0.0742   50.8268   24.4759 C   0  0  0  0  0  0
    1.0269   51.8627   24.4779 C   0  0  0  0  0  0
    1.2771   52.5543   25.6973 C   0  0  0  0  0  0
    2.2786   53.4753   25.4569 N   0  0  0  0  0  0
    1.8922   52.4023   23.4949 C   0  0  0  0  0  0
    2.6187   53.4523   24.1130 C   0  0  0  0  0  0
    3.5442   54.2277   23.4059 C   0  0  0  0  0  0
    3.8865   53.8661   22.0937 C   0  0  0  0  0  0
    2.1786   52.1162   22.1434 C   0  0  0  0  0  0
    3.1534   52.8310   21.4765 C   0  0  0  0  0  0
    3.1933   52.2846   20.0846 C   0  0  0  0  0  0
    2.3179   51.2681   20.0597 N   0  0  0  0  0  0
    1.6471   51.0850   21.2074 C   0  0  0  0  0  0
    3.8487   52.6630   19.1192 O   0  0  0  0  0  0
    0.7869   50.2294   21.3950 O   0  0  0  0  0  0
    5.0434   54.5842   21.4461 C   0  0  0  0  0  0
    6.2508   54.8398   22.1382 C   0  0  0  0  0  0
    7.2800   55.5599   21.5300 C   0  0  0  0  0  0
    7.1632   56.0025   20.2175 C   0  0  0  0  0  0
    5.9924   55.7523   19.5144 C   0  0  0  0  0  0
    4.9492   55.0630   20.1289 C   0  0  0  0  0  0
   -1.4658   49.4630   25.6870 O   0  0  0  0  0  0
    2.9390   54.2948   26.4750 C   0  0  0  0  0  0
    4.0680   53.5358   27.2106 C   0  0  0  0  0  0
    6.5543   54.2632   23.7452 Cl  0  0  0  0  0  0
    3.6238   53.0557   28.5737 C   0  0  0  0  0  0
    3.6489   53.8430   29.6213 N   0  0  0  0  0  0
    3.0783   53.0630   30.5400 N   0  0  3  0  0  0
    2.7126   51.8657   30.1069 N   0  0  0  0  0  0
    3.0999   51.8631   28.7905 N   0  0  0  0  0  0
   -0.8548   50.9306   27.7378 H   0  0  0  0  0  0
    0.7661   52.7809   27.8029 H   0  0  0  0  0  0
   -0.1416   50.2535   23.5907 H   0  0  0  0  0  0
    4.0575   55.0396   23.8955 H   0  0  0  0  0  0
    2.1792   50.6987   19.2390 H   0  0  0  0  0  0
    8.1874   55.7628   22.0775 H   0  0  0  0  0  0
    7.9755   56.5373   19.7471 H   0  0  0  0  0  0
    5.8802   56.1086   18.5005 H   0  0  0  0  0  0
    4.0267   54.9647   19.5780 H   0  0  0  0  0  0
   -1.5210   49.0631   26.5804 H   0  0  0  0  0  0
    2.1844   54.6629   27.1732 H   0  0  0  0  0  0
    3.3468   55.1829   25.9952 H   0  0  0  0  0  0
    4.9272   54.1990   27.3222 H   0  0  0  0  0  0
    4.4472   52.7082   26.6111 H   0  0  0  0  0  0
    2.8873   53.3938   31.4825 H   0  0  0  0  0  0
  1  2  2  0  0  0
  1  4  1  0  0  0
  1 25  1  0  0  0
  2  3  1  0  0  0
  2 34  1  0  0  0
  3  6  2  0  0  0
  3 35  1  0  0  0
  4  5  2  0  0  0
  4 36  1  0  0  0
  5  8  1  0  0  0
  5  6  1  0  0  0
  6  7  1  0  0  0
  7 26  1  0  0  0
  7  9  1  0  0  0
  8  9  2  0  0  0
  8 12  1  0  0  0
  9 10  1  0  0  0
 10 11  2  0  0  0
 10 37  1  0  0  0
 11 19  1  0  0  0
 11 13  1  0  0  0
 12 16  1  0  0  0
 12 13  2  0  0  0
 13 14  1  0  0  0
 14 15  1  0  0  0
 14 17  2  0  0  0
 15 16  1  0  0  0
 15 38  1  0  0  0
 16 18  2  0  0  0
 19 20  2  0  0  0
 19 24  1  0  0  0
 20 21  1  0  0  0
 20 28  1  0  0  0
 21 22  2  0  0  0
 21 39  1  0  0  0
 22 23  1  0  0  0
 22 40  1  0  0  0
 23 24  2  0  0  0
 23 41  1  0  0  0
 24 42  1  0  0  0
 25 43  1  0  0  0
 26 27  1  0  0  0
 26 44  1  0  0  0
 26 45  1  0  0  0
 27 46  1  0  0  0
 27 47  1  0  0  0
 27 29  1  0  0  0
 29 30  2  0  0  0
 29 33  1  0  0  0
 30 31  1  0  0  0
 31 48  1  0  0  0
 31 32  1  0  0  0
 32 33  2  0  0  0
M  END
> <s_m_entry_id>
46367

> <s_m_entry_name>
dock_pv.108

> <s_m_Source_Path>
/home/csk/Desktop/cluster/DUD-E-result/wee1

> <s_m_Source_File>
dock_pv.maegz

> <i_m_Source_File_Index>
108

> <chembl_id>
CHEMBL512342

> <chembl_pref_name>
None

> <i_lp_mmshare_version>
53161

> <r_lp_tautomer_probability>
0.2

> <s_lp_Force_Field>
OPLS_2005

> <r_lp_Energy>
62.800741

> <b_lp_Chiralities_Consistent>
1

> <s_lp_Variant>
CHEMBL5491_lig204-2

> <s_i_glide_gridfile>
glide-grid_3biz

> <i_i_glide_lignum>
214

> <i_i_glide_rotatable_bonds>
5

> <r_i_docking_score>
-7.31223201019895

> <r_i_glide_ligand_efficiency>
-0.221582788187847

> <r_i_glide_ligand_efficiency_sa>
-0.71073439922035

> <r_i_glide_ligand_efficiency_ln>
-1.62620253835716

> <r_i_glide_gscore>
-7.31223201019895

> <r_i_glide_lipo>
-2.52954269389978

> <r_i_glide_hbond>
-0.422876913372325

> <r_i_glide_metal>
0

> <r_i_glide_rewards>
-0.926748826181165

> <r_i_glide_evdw>
-38.1111030578613

> <r_i_glide_ecoul>
-11.7386035919189

> <r_i_glide_erotb>
0.382163517602925

> <r_i_glide_esite>
-0.148881402667698

> <r_i_glide_emodel>
-68.6475029430408

> <r_i_glide_energy>
-49.8497066497803

> <r_i_glide_einternal>
7.63539028167725

> <i_i_glide_confnum>
8

> <i_i_glide_posenum>
169

> <r_i_glide_eff_state_penalty>
0

> <s_user_duplicate_titles>
CHEMBL5491_lig204,451642

> <i_f3d_flags>
0

> <s_m_subgroup_title>
dock_pv

> <s_m_subgroupid>
dock_pv

> <b_m_subgroup_collapsed>
1

$$$$
CHEMBL5491_lig89
                    3D
 Schrodinger Suite 2021-1.
 36 40  0  0  1  0            999 V2000
    2.8150   53.8032   29.1538 C   0  0  0  0  0  0
    4.0791   54.1852   29.5961 C   0  0  0  0  0  0
    5.1111   54.4599   28.7039 C   0  0  0  0  0  0
    2.5423   53.6553   27.7870 C   0  0  0  0  0  0
    3.5681   53.9179   26.8538 C   0  0  0  0  0  0
    4.8296   54.3228   27.3448 C   0  0  0  0  0  0
    5.7048   54.5534   26.3144 O   0  0  0  0  0  0
    3.7024   53.8630   25.4505 C   0  0  0  0  0  0
    5.0244   54.2657   25.1622 C   0  0  0  0  0  0
    5.5436   54.3307   23.8652 C   0  0  0  0  0  0
    4.7157   53.9812   22.7838 C   0  0  0  0  0  0
    2.9039   53.4671   24.3605 C   0  0  0  0  0  0
    3.4096   53.5034   23.0706 C   0  0  0  0  0  0
    2.3386   52.9144   22.1989 C   0  0  0  0  0  0
    1.3055   52.6453   23.0142 N   0  0  0  0  0  0
    1.5351   52.8972   24.3100 C   0  0  0  0  0  0
    2.3422   52.6630   20.9987 O   0  0  0  0  0  0
    0.7635   52.6610   25.2317 O   0  0  0  0  0  0
    1.8338   53.5787   30.0860 O   0  0  0  0  0  0
    5.2716   54.1783   21.4047 C   0  0  0  0  0  0
    5.1711   53.1980   20.4080 C   0  0  0  0  0  0
    5.6701   53.4272   19.1285 C   0  0  0  0  0  0
    6.3091   54.6265   18.8355 C   0  0  0  0  0  0
    6.4582   55.5996   19.8177 C   0  0  0  0  0  0
    5.9475   55.3716   21.0919 C   0  0  0  0  0  0
    4.2712   54.2635   30.6552 H   0  0  0  0  0  0
    6.0849   54.7623   29.0502 H   0  0  0  0  0  0
    1.5605   53.3423   27.4662 H   0  0  0  0  0  0
    6.5598   54.6603   23.7028 H   0  0  0  0  0  0
    0.4537   52.2228   22.6839 H   0  0  0  0  0  0
    2.0811   53.8639   30.9741 H   0  0  0  0  0  0
    4.7085   52.2443   20.6137 H   0  0  0  0  0  0
    5.5694   52.6644   18.3689 H   0  0  0  0  0  0
    6.7008   54.7966   17.8423 H   0  0  0  0  0  0
    6.9599   56.5267   19.5865 H   0  0  0  0  0  0
    6.0780   56.1406   21.8376 H   0  0  0  0  0  0
  1  2  2  0  0  0
  1 19  1  0  0  0
  1  4  1  0  0  0
  2  3  1  0  0  0
  2 26  1  0  0  0
  3  6  2  0  0  0
  3 27  1  0  0  0
  4  5  2  0  0  0
  4 28  1  0  0  0
  5  8  1  0  0  0
  5  6  1  0  0  0
  6  7  1  0  0  0
  7  9  1  0  0  0
  8 12  1  0  0  0
  8  9  2  0  0  0
  9 10  1  0  0  0
 10 11  2  0  0  0
 10 29  1  0  0  0
 11 13  1  0  0  0
 11 20  1  0  0  0
 12 13  2  0  0  0
 12 16  1  0  0  0
 13 14  1  0  0  0
 14 15  1  0  0  0
 14 17  2  0  0  0
 15 16  1  0  0  0
 15 30  1  0  0  0
 16 18  2  0  0  0
 19 31  1  0  0  0
 20 21  2  0  0  0
 20 25  1  0  0  0
 21 22  1  0  0  0
 21 32  1  0  0  0
 22 23  2  0  0  0
 22 33  1  0  0  0
 23 24  1  0  0  0
 23 34  1  0  0  0
 24 25  2  0  0  0
 24 35  1  0  0  0
 25 36  1  0  0  0
M  END
> <s_m_entry_id>
46368

> <s_m_entry_name>
dock_pv.109

> <s_m_Source_Path>
/home/csk/Desktop/cluster/DUD-E-result/wee1

> <s_m_Source_File>
dock_pv.maegz

> <i_m_Source_File_Index>
109

> <chembl_id>
CHEMBL441695

> <chembl_pref_name>
None

> <i_lp_mmshare_version>
53161

> <r_lp_tautomer_probability>
1

> <s_lp_Force_Field>
OPLS_2005

> <r_lp_Energy>
59.892978

> <b_lp_Chiralities_Consistent>
1

> <s_lp_Variant>
CHEMBL5491_lig89-1

> <s_i_glide_gridfile>
glide-grid_3biz

> <i_i_glide_lignum>
89

> <i_i_glide_rotatable_bonds>
2

> <r_i_docking_score>
-7.31032218439572

> <r_i_glide_ligand_efficiency>
-0.292412887375829

> <r_i_glide_ligand_efficiency_sa>
-0.855020468651563

> <r_i_glide_ligand_efficiency_ln>
-1.73276543037957

> <r_i_glide_gscore>
-7.31032218439572

> <r_i_glide_lipo>
-3.31184615351901

> <r_i_glide_hbond>
-0.32

> <r_i_glide_metal>
0

> <r_i_glide_rewards>
-1.58558249637933

> <r_i_glide_evdw>
-34.9630813598633

> <r_i_glide_ecoul>
-3.45360112190247

> <r_i_glide_erotb>
0.173300701781151

> <r_i_glide_esite>
0

> <r_i_glide_emodel>
-53.785444282752

> <r_i_glide_energy>
-38.4166824817657

> <r_i_glide_einternal>
1.87183523178101

> <i_i_glide_confnum>
2

> <i_i_glide_posenum>
121

> <r_i_glide_eff_state_penalty>
0

> <s_user_duplicate_titles>
CHEMBL5491_lig89,355179

> <i_f3d_flags>
0

> <s_m_subgroup_title>
dock_pv

> <s_m_subgroupid>
dock_pv

> <b_m_subgroup_collapsed>
1

$$$$
CHEMBL5491_lig101
                    3D
 Schrodinger Suite 2021-1.
 40 44  0  0  1  0            999 V2000
    4.8230   54.3490   21.5800 C   0  0  0  0  0  0
    6.0633   54.8040   22.0183 C   0  0  0  0  0  0
    6.3495   54.9623   23.3737 C   0  0  0  0  0  0
    3.8235   54.0095   22.4871 C   0  0  0  0  0  0
    4.0683   54.1572   23.8637 C   0  0  0  0  0  0
    5.3299   54.6603   24.2874 C   0  0  0  0  0  0
    5.2934   54.7769   25.6661 N   0  0  0  0  0  0
    3.3173   53.8638   25.0231 C   0  0  0  0  0  0
    4.0711   54.3223   26.1371 C   0  0  0  0  0  0
    3.5775   54.2416   27.4459 C   0  0  0  0  0  0
    2.3862   53.5388   27.6768 C   0  0  0  0  0  0
    2.0832   53.2327   25.2759 C   0  0  0  0  0  0
    1.6624   53.0527   26.5741 C   0  0  0  0  0  0
    0.4021   52.2518   26.5030 C   0  0  0  0  0  0
    0.1646   52.0573   25.1953 N   0  0  0  0  0  0
    1.0747   52.6067   24.3755 C   0  0  0  0  0  0
   -0.3111   51.8402   27.4125 O   0  0  0  0  0  0
    1.0402   52.5606   23.1496 O   0  0  0  0  0  0
    4.5709   54.2606   20.2376 O   0  0  0  0  0  0
    1.9793   53.2564   29.0902 C   0  0  0  0  0  0
    2.8541   52.6220   29.9936 C   0  0  0  0  0  0
    2.4297   52.2632   31.2743 C   0  0  0  0  0  0
    1.1349   52.5588   31.6867 C   0  0  0  0  0  0
    0.2764   53.2289   30.8248 C   0  0  0  0  0  0
    0.6965   53.5863   29.5448 C   0  0  0  0  0  0
    4.4789   52.2552   29.5537 Cl  0  0  0  0  0  0
    6.4158   55.2083   26.4877 C   0  0  0  0  0  0
    6.8162   55.0652   21.2883 H   0  0  0  0  0  0
    7.3010   55.3486   23.6945 H   0  0  0  0  0  0
    2.8769   53.6526   22.1184 H   0  0  0  0  0  0
    4.1495   54.6204   28.2800 H   0  0  0  0  0  0
   -0.6280   51.5322   24.8619 H   0  0  0  0  0  0
    3.6466   54.0852   20.0354 H   0  0  0  0  0  0
    3.1092   51.7864   31.9660 H   0  0  0  0  0  0
    0.8030   52.2904   32.6796 H   0  0  0  0  0  0
   -0.7210   53.4552   31.1573 H   0  0  0  0  0  0
    0.0050   54.0878   28.8845 H   0  0  0  0  0  0
    7.1405   54.3972   26.5526 H   0  0  0  0  0  0
    6.8792   56.0839   26.0346 H   0  0  0  0  0  0
    6.0869   55.4631   27.4948 H   0  0  0  0  0  0
  1  2  2  0  0  0
  1 19  1  0  0  0
  1  4  1  0  0  0
  2  3  1  0  0  0
  2 28  1  0  0  0
  3  6  2  0  0  0
  3 29  1  0  0  0
  4  5  2  0  0  0
  4 30  1  0  0  0
  5  8  1  0  0  0
  5  6  1  0  0  0
  6  7  1  0  0  0
  7  9  1  0  0  0
  7 27  1  0  0  0
  8  9  2  0  0  0
  8 12  1  0  0  0
  9 10  1  0  0  0
 10 11  2  0  0  0
 10 31  1  0  0  0
 11 13  1  0  0  0
 11 20  1  0  0  0
 12 16  1  0  0  0
 12 13  2  0  0  0
 13 14  1  0  0  0
 14 15  1  0  0  0
 14 17  2  0  0  0
 15 16  1  0  0  0
 15 32  1  0  0  0
 16 18  2  0  0  0
 19 33  1  0  0  0
 20 21  2  0  0  0
 20 25  1  0  0  0
 21 22  1  0  0  0
 21 26  1  0  0  0
 22 23  2  0  0  0
 22 34  1  0  0  0
 23 24  1  0  0  0
 23 35  1  0  0  0
 24 25  2  0  0  0
 24 36  1  0  0  0
 25 37  1  0  0  0
 27 38  1  0  0  0
 27 39  1  0  0  0
 27 40  1  0  0  0
M  END
> <s_m_entry_id>
46369

> <s_m_entry_name>
dock_pv.110

> <s_m_Source_Path>
/home/csk/Desktop/cluster/DUD-E-result/wee1

> <s_m_Source_File>
dock_pv.maegz

> <i_m_Source_File_Index>
110

> <chembl_id>
CHEMBL209388

> <chembl_pref_name>
None

> <i_lp_mmshare_version>
53161

> <r_lp_tautomer_probability>
1

> <s_lp_Force_Field>
OPLS_2005

> <r_lp_Energy>
66.219966

> <b_lp_Chiralities_Consistent>
1

> <s_lp_Variant>
CHEMBL5491_lig101-1

> <s_i_glide_gridfile>
glide-grid_3biz

> <i_i_glide_lignum>
102

> <i_i_glide_rotatable_bonds>
2

> <r_i_docking_score>
-7.29833158248816

> <r_i_glide_ligand_efficiency>
-0.270308577129191

> <r_i_glide_ligand_efficiency_sa>
-0.810925730496681

> <r_i_glide_ligand_efficiency_ln>
-1.6989312700034

> <r_i_glide_gscore>
-7.29833158248816

> <r_i_glide_lipo>
-3.67314817188549

> <r_i_glide_hbond>
-0.0340059771260777

> <r_i_glide_metal>
0

> <r_i_glide_rewards>
-1.46774654211417

> <r_i_glide_evdw>
-41.3792915344238

> <r_i_glide_ecoul>
-1.17535126209259

> <r_i_glide_erotb>
0.136375073359834

> <r_i_glide_esite>
-0.0145386986871759

> <r_i_glide_emodel>
-58.6917530944756

> <r_i_glide_energy>
-42.5546427965164

> <r_i_glide_einternal>
1.23649048805237

> <i_i_glide_confnum>
1

> <i_i_glide_posenum>
183

> <r_i_glide_eff_state_penalty>
0

> <s_user_duplicate_titles>
CHEMBL5491_lig101,355868

> <i_f3d_flags>
0

> <s_m_subgroup_title>
dock_pv

> <s_m_subgroupid>
dock_pv

> <b_m_subgroup_collapsed>
1

$$$$
CHEMBL5491_lig246
                    3D
 Schrodinger Suite 2021-1.
 44 48  0  0  1  0            999 V2000
    5.3798   54.5958   21.1910 C   0  0  0  0  0  0
    6.4725   55.0632   21.9105 C   0  0  0  0  0  0
    6.4847   55.0628   23.3034 C   0  0  0  0  0  0
    4.2520   54.1104   21.8454 C   0  0  0  0  0  0
    4.2181   54.1172   23.2518 C   0  0  0  0  0  0
    5.3486   54.5996   23.9674 C   0  0  0  0  0  0
    5.0623   54.5380   25.3208 N   0  0  0  0  0  0
    5.4215   54.6146   19.8230 O   0  0  0  0  0  0
    3.2550   53.7289   24.2060 C   0  0  0  0  0  0
    3.7775   54.0544   25.4825 C   0  0  0  0  0  0
    3.0406   53.8634   26.6500 C   0  0  0  0  0  0
    1.7692   53.2921   26.5832 C   0  0  0  0  0  0
    1.0580   53.0799   27.8884 C   0  0  0  0  0  0
    1.0567   54.0163   28.9611 C   0  0  0  0  0  0
    0.4784   53.6903   30.1859 C   0  0  0  0  0  0
   -0.1795   52.4802   30.3497 C   0  0  0  0  0  0
   -0.2432   51.5846   29.2936 C   0  0  0  0  0  0
    0.4231   51.8513   28.1096 C   0  0  0  0  0  0
    1.9884   53.1191   24.1520 C   0  0  0  0  0  0
    1.2789   52.8987   25.3139 C   0  0  0  0  0  0
   -0.0146   52.2629   24.8873 C   0  0  0  0  0  0
    0.0691   52.1078   23.5580 N   0  0  0  0  0  0
    1.1939   52.5855   23.0117 C   0  0  0  0  0  0
   -0.9977   51.9509   25.5536 O   0  0  0  0  0  0
    1.4574   52.5586   21.8140 O   0  0  0  0  0  0
    5.9647   54.9168   26.4130 C   0  0  0  0  0  0
    6.5913   53.7040   27.1196 C   0  0  0  0  0  0
    5.6839   53.1006   28.1074 C   0  0  0  0  0  0
    1.7380   55.6050   28.8860 Cl  0  0  0  0  0  0
    4.9596   52.6442   28.8857 N   0  0  0  0  0  0
    7.3364   55.4371   21.3790 H   0  0  0  0  0  0
    7.3352   55.4504   23.8381 H   0  0  0  0  0  0
    3.4140   53.7667   21.2619 H   0  0  0  0  0  0
    4.6368   54.2436   19.4108 H   0  0  0  0  0  0
    3.4486   54.1581   27.5983 H   0  0  0  0  0  0
    0.5137   54.3904   31.0067 H   0  0  0  0  0  0
   -0.6588   52.2419   31.2865 H   0  0  0  0  0  0
   -0.7831   50.6630   29.4179 H   0  0  0  0  0  0
    0.4319   51.0758   27.3600 H   0  0  0  0  0  0
   -0.6613   51.6786   23.0133 H   0  0  0  0  0  0
    6.7266   55.5963   26.0333 H   0  0  0  0  0  0
    5.3836   55.4631   27.1487 H   0  0  0  0  0  0
    6.9084   52.9489   26.4060 H   0  0  0  0  0  0
    7.4749   54.0184   27.6780 H   0  0  0  0  0  0
  1  2  2  0  0  0
  1  8  1  0  0  0
  1  4  1  0  0  0
  2  3  1  0  0  0
  2 31  1  0  0  0
  3  6  2  0  0  0
  3 32  1  0  0  0
  4  5  2  0  0  0
  4 33  1  0  0  0
  5  9  1  0  0  0
  5  6  1  0  0  0
  6  7  1  0  0  0
  7 10  1  0  0  0
  7 26  1  0  0  0
  8 34  1  0  0  0
  9 10  2  0  0  0
  9 19  1  0  0  0
 10 11  1  0  0  0
 11 12  2  0  0  0
 11 35  1  0  0  0
 12 13  1  0  0  0
 12 20  1  0  0  0
 13 14  2  0  0  0
 13 18  1  0  0  0
 14 15  1  0  0  0
 14 29  1  0  0  0
 15 16  2  0  0  0
 15 36  1  0  0  0
 16 17  1  0  0  0
 16 37  1  0  0  0
 17 18  2  0  0  0
 17 38  1  0  0  0
 18 39  1  0  0  0
 19 20  2  0  0  0
 19 23  1  0  0  0
 20 21  1  0  0  0
 21 22  1  0  0  0
 21 24  2  0  0  0
 22 23  1  0  0  0
 22 40  1  0  0  0
 23 25  2  0  0  0
 26 27  1  0  0  0
 26 41  1  0  0  0
 26 42  1  0  0  0
 27 28  1  0  0  0
 27 43  1  0  0  0
 27 44  1  0  0  0
 28 30  3  0  0  0
M  END
> <s_m_entry_id>
46370

> <s_m_entry_name>
dock_pv.111

> <s_m_Source_Path>
/home/csk/Desktop/cluster/DUD-E-result/wee1

> <s_m_Source_File>
dock_pv.maegz

> <i_m_Source_File_Index>
111

> <chembl_id>
CHEMBL511280

> <chembl_pref_name>
None

> <i_lp_mmshare_version>
53161

> <r_lp_tautomer_probability>
1

> <s_lp_Force_Field>
OPLS_2005

> <r_lp_Energy>
67.288929

> <b_lp_Chiralities_Consistent>
1

> <s_lp_Variant>
CHEMBL5491_lig246-1

> <s_i_glide_gridfile>
glide-grid_3biz

> <i_i_glide_lignum>
259

> <i_i_glide_rotatable_bonds>
4

> <r_i_docking_score>
-7.29364296947843

> <r_i_glide_ligand_efficiency>
-0.243121432315948

> <r_i_glide_ligand_efficiency_sa>
-0.755434816529713

> <r_i_glide_ligand_efficiency_ln>
-1.65719515327075

> <r_i_glide_gscore>
-7.29364296947843

> <r_i_glide_lipo>
-3.58694508839255

> <r_i_glide_hbond>
0

> <r_i_glide_metal>
0

> <r_i_glide_rewards>
-1.57635718255714

> <r_i_glide_evdw>
-42.1164932250977

> <r_i_glide_ecoul>
-1.68639039993286

> <r_i_glide_erotb>
0.228442522716077

> <r_i_glide_esite>
0

> <r_i_glide_emodel>
-60.8224256394548

> <r_i_glide_energy>
-43.8028836250305

> <r_i_glide_einternal>
4.42845106124878

> <i_i_glide_confnum>
4

> <i_i_glide_posenum>
204

> <r_i_glide_eff_state_penalty>
0

> <s_user_duplicate_titles>
CHEMBL5491_lig246,451846

> <i_f3d_flags>
0

> <s_m_subgroup_title>
dock_pv

> <s_m_subgroupid>
dock_pv

> <b_m_subgroup_collapsed>
1

$$$$
CHEMBL5491_lig5
                    3D
 Schrodinger Suite 2021-1.
 30 31  0  0  1  0            999 V2000
    6.8763   54.9181   26.8868 O   0  0  0  0  0  0
    5.7789   54.4981   26.5135 C   0  0  0  0  0  0
    4.7759   54.1205   27.5167 C   0  0  0  0  0  0
    3.6505   53.4106   27.2698 C   0  0  0  0  0  0
    2.6104   53.0263   28.2498 C   0  0  0  0  0  0
    2.7158   53.2653   29.6291 C   0  0  0  0  0  0
    1.6817   52.8788   30.4857 C   0  0  0  0  0  0
    0.5544   52.2654   29.9406 C   0  0  0  0  0  0
    0.4242   52.0211   28.6138 N   0  0  0  0  0  0
    1.4418   52.3976   27.7975 C   0  0  0  0  0  0
    5.4482   54.4344   25.0839 C   0  0  0  0  0  0
    6.3567   54.6905   24.1185 C   0  0  0  0  0  0
    6.1004   54.6640   22.6683 C   0  0  0  0  0  0
    5.0657   53.9164   22.0873 C   0  0  0  0  0  0
    4.8534   53.9788   20.7087 C   0  0  0  0  0  0
    5.6794   54.8032   19.9439 C   0  0  0  0  0  0
    6.6830   55.5428   20.4807 N   0  0  0  0  0  0
    6.8794   55.4617   21.8213 C   0  0  0  0  0  0
    5.0000   54.4593   28.5167 H   0  0  0  0  0  0
    3.4568   53.0610   26.2673 H   0  0  0  0  0  0
    3.5852   53.7483   30.0505 H   0  0  0  0  0  0
    1.7506   53.0600   31.5498 H   0  0  0  0  0  0
   -0.2654   51.9510   30.5729 H   0  0  0  0  0  0
    1.2963   52.1793   26.7497 H   0  0  0  0  0  0
    4.4328   54.1947   24.8116 H   0  0  0  0  0  0
    7.3726   54.9313   24.4017 H   0  0  0  0  0  0
    4.4279   53.2878   22.6907 H   0  0  0  0  0  0
    4.0616   53.4076   20.2452 H   0  0  0  0  0  0
    5.5425   54.8795   18.8748 H   0  0  0  0  0  0
    7.6883   56.0597   22.2163 H   0  0  0  0  0  0
  1  2  2  0  0  0
  2  3  1  0  0  0
  2 11  1  0  0  0
  3  4  2  0  0  0
  3 19  1  0  0  0
  4  5  1  0  0  0
  4 20  1  0  0  0
  5  6  2  0  0  0
  5 10  1  0  0  0
  6  7  1  0  0  0
  6 21  1  0  0  0
  7  8  2  0  0  0
  7 22  1  0  0  0
  8  9  1  0  0  0
  8 23  1  0  0  0
  9 10  2  0  0  0
 10 24  1  0  0  0
 11 12  2  0  0  0
 11 25  1  0  0  0
 12 13  1  0  0  0
 12 26  1  0  0  0
 13 14  2  0  0  0
 13 18  1  0  0  0
 14 15  1  0  0  0
 14 27  1  0  0  0
 15 16  2  0  0  0
 15 28  1  0  0  0
 16 17  1  0  0  0
 16 29  1  0  0  0
 17 18  2  0  0  0
 18 30  1  0  0  0
M  END
> <s_m_entry_id>
46371

> <s_m_entry_name>
dock_pv.112

> <s_m_Source_Path>
/home/csk/Desktop/cluster/DUD-E-result/wee1

> <s_m_Source_File>
dock_pv.maegz

> <i_m_Source_File_Index>
112

> <chembl_id>
CHEMBL1971185

> <chembl_pref_name>
None

> <i_lp_mmshare_version>
53161

> <r_lp_tautomer_probability>
1

> <s_lp_Force_Field>
OPLS_2005

> <r_lp_Energy>
10.963065

> <b_lp_Chiralities_Consistent>
1

> <s_lp_Variant>
CHEMBL5491_lig5-1

> <s_i_glide_gridfile>
glide-grid_3biz

> <i_i_glide_lignum>
5

> <i_i_glide_rotatable_bonds>
4

> <r_i_docking_score>
-7.2931449478224

> <r_i_glide_ligand_efficiency>
-0.405174719323467

> <r_i_glide_ligand_efficiency_sa>
-1.06185815779493

> <r_i_glide_ligand_efficiency_ln>
-1.87466530236339

> <r_i_glide_gscore>
-7.2931449478224

> <r_i_glide_lipo>
-2.76880796226574

> <r_i_glide_hbond>
-0.242968759287326

> <r_i_glide_metal>
0

> <r_i_glide_rewards>
-2.56905361807357

> <r_i_glide_evdw>
-33.1190490722656

> <r_i_glide_ecoul>
-4.48736381530762

> <r_i_glide_erotb>
0.616742417713654

> <r_i_glide_esite>
0

> <r_i_glide_emodel>
-53.3105760480448

> <r_i_glide_energy>
-37.6064128875732

> <r_i_glide_einternal>
1.52444970607758

> <i_i_glide_confnum>
4

> <i_i_glide_posenum>
355

> <r_i_glide_eff_state_penalty>
0

> <s_user_duplicate_titles>
CHEMBL5491_lig5

> <i_f3d_flags>
0

> <s_m_subgroup_title>
dock_pv

> <s_m_subgroupid>
dock_pv

> <b_m_subgroup_collapsed>
1

$$$$
CHEMBL5491_lig35
                    3D
 Schrodinger Suite 2021-1.
 59 63  0  0  1  0            999 V2000
    3.6888   53.6485   18.9353 F   0  0  0  0  0  0
    4.6242   55.5715   18.6550 F   0  0  0  0  0  0
    5.7870   53.7587   18.4448 F   0  0  0  0  0  0
    2.2546   51.4631   29.5534 O   0  0  0  0  0  0
   -0.6750   52.2595   25.5402 O   0  0  0  0  0  0
    2.5935   53.3069   28.3436 N   0  0  0  0  0  0
    6.5595   54.9826   24.4762 N   0  0  0  0  0  0
    5.0839   53.9547   22.9465 N   0  0  0  0  0  0
    6.8468   55.3777   22.1773 N   0  0  0  0  0  0
    3.4150   53.0809   21.5435 N   0  0  0  0  0  0
   -0.0922   51.4464   27.5698 N   0  0  0  0  0  0
    2.3592   54.2692   27.2931 C   0  0  2  0  0  0
    3.5286   54.0017   29.2086 C   0  0  1  0  0  0
    3.8198   54.4599   26.9381 C   0  0  0  0  0  0
    4.5476   54.2803   28.1105 C   0  0  0  0  0  0
    1.8729   55.4264   28.1909 C   0  0  0  0  0  0
    2.6746   55.2553   29.4914 C   0  0  0  0  0  0
    4.4631   54.7073   25.7334 C   0  0  0  0  0  0
    2.0616   52.0890   28.5192 C   0  0  0  0  0  0
    5.9368   54.3460   28.0857 C   0  0  0  0  0  0
    5.8656   54.7592   25.6840 C   0  0  0  0  0  0
    6.5873   54.6030   26.8750 C   0  0  0  0  0  0
    5.2498   54.4428   20.6017 C   0  0  0  0  0  0
    6.1602   54.7412   23.1551 C   0  0  0  0  0  0
    4.5964   53.8294   21.6900 C   0  0  0  0  0  0
    1.3468   51.4171   27.3422 C   0  0  0  0  0  0
    4.8106   54.3417   19.1393 C   0  0  0  0  0  0
    6.3810   55.2137   20.9111 C   0  0  0  0  0  0
    2.5492   52.7634   22.6903 C   0  0  0  0  0  0
    1.3226   53.6594   22.8886 C   0  0  0  0  0  0
    1.5778   51.5982   22.4686 C   0  0  0  0  0  0
    0.5108   52.6346   22.0793 C   0  0  0  0  0  0
   -0.9832   51.8158   26.6437 C   0  0  0  0  0  0
   -2.4504   51.6503   27.0058 C   0  0  0  0  0  0
    7.4221   55.5014   24.5305 H   0  0  0  0  0  0
    2.9895   53.0943   20.6257 H   0  0  0  0  0  0
   -0.4180   51.0386   28.4368 H   0  0  0  0  0  0
    1.6825   53.9778   26.4877 H   0  0  0  0  0  0
    3.8710   53.4484   30.0867 H   0  0  0  0  0  0
    0.8001   55.3584   28.3770 H   0  0  0  0  0  0
    2.0791   56.3934   27.7516 H   0  0  0  0  0  0
    2.0113   55.1038   30.3443 H   0  0  0  0  0  0
    3.2790   56.1381   29.6868 H   0  0  0  0  0  0
    3.8653   54.8628   24.8500 H   0  0  0  0  0  0
    6.5238   54.2256   28.9817 H   0  0  0  0  0  0
    7.6626   54.6619   26.8858 H   0  0  0  0  0  0
    1.6669   50.3755   27.2941 H   0  0  0  0  0  0
    1.6515   51.8585   26.3924 H   0  0  0  0  0  0
    6.9356   55.7151   20.1308 H   0  0  0  0  0  0
    3.1497   52.6629   23.5911 H   0  0  0  0  0  0
    1.0149   53.7355   23.9336 H   0  0  0  0  0  0
    1.4017   54.6690   22.4870 H   0  0  0  0  0  0
    1.8670   50.8755   21.7025 H   0  0  0  0  0  0
    1.3484   51.0521   23.3864 H   0  0  0  0  0  0
   -0.4959   52.4327   22.4465 H   0  0  0  0  0  0
    0.4790   52.8463   21.0095 H   0  0  0  0  0  0
   -2.8709   52.6161   27.2811 H   0  0  0  0  0  0
   -2.5875   50.9459   27.8303 H   0  0  0  0  0  0
   -2.9923   51.2653   26.1413 H   0  0  0  0  0  0
  1 27  1  0  0  0
  2 27  1  0  0  0
  3 27  1  0  0  0
  4 19  2  0  0  0
  5 33  2  0  0  0
  6 12  1  0  0  0
  6 13  1  0  0  0
  6 19  1  0  0  0
  7 21  1  0  0  0
  7 24  1  0  0  0
  7 35  1  0  0  0
  8 24  1  0  0  0
  8 25  2  0  0  0
  9 24  2  0  0  0
  9 28  1  0  0  0
 10 25  1  0  0  0
 10 29  1  0  0  0
 10 36  1  0  0  0
 11 26  1  0  0  0
 11 33  1  0  0  0
 11 37  1  0  0  0
 12 14  1  0  0  0
 12 16  1  0  0  0
 12 38  1  0  0  0
 13 15  1  0  0  0
 13 17  1  0  0  0
 13 39  1  0  0  0
 14 15  1  0  0  0
 14 18  2  0  0  0
 15 20  2  0  0  0
 16 17  1  0  0  0
 16 40  1  0  0  0
 16 41  1  0  0  0
 17 42  1  0  0  0
 17 43  1  0  0  0
 18 21  1  0  0  0
 18 44  1  0  0  0
 19 26  1  0  0  0
 20 22  1  0  0  0
 20 45  1  0  0  0
 21 22  2  0  0  0
 22 46  1  0  0  0
 23 25  1  0  0  0
 23 27  1  0  0  0
 23 28  2  0  0  0
 26 47  1  0  0  0
 26 48  1  0  0  0
 28 49  1  0  0  0
 29 30  1  0  0  0
 29 31  1  0  0  0
 29 50  1  0  0  0
 30 32  1  0  0  0
 30 51  1  0  0  0
 30 52  1  0  0  0
 31 32  1  0  0  0
 31 53  1  0  0  0
 31 54  1  0  0  0
 32 55  1  0  0  0
 32 56  1  0  0  0
 33 34  1  0  0  0
 34 57  1  0  0  0
 34 58  1  0  0  0
 34 59  1  0  0  0
M  END
> <s_m_entry_id>
46372

> <s_m_entry_name>
dock_pv.113

> <s_m_Source_Path>
/home/csk/Desktop/cluster/DUD-E-result/wee1

> <s_m_Source_File>
dock_pv.maegz

> <i_m_Source_File_Index>
113

> <chembl_id>
CHEMBL1983111

> <chembl_pref_name>
None

> <i_lp_mmshare_version>
53161

> <r_lp_tautomer_probability>
0.999999624730965

> <s_lp_Force_Field>
OPLS_2005

> <r_lp_Energy>
73.831038

> <b_lp_Chiralities_Consistent>
1

> <s_lp_Variant>
CHEMBL5491_lig35-2

> <s_i_glide_gridfile>
glide-grid_3biz

> <i_i_glide_lignum>
33

> <i_i_glide_rotatable_bonds>
9

> <r_i_docking_score>
-7.27418020096748

> <r_i_glide_ligand_efficiency>
-0.213946476499044

> <r_i_glide_ligand_efficiency_sa>
-0.693103529293326

> <r_i_glide_ligand_efficiency_ln>
-1.60707044023727

> <r_i_glide_gscore>
-7.27418020096748

> <r_i_glide_lipo>
-3.46722451317318

> <r_i_glide_hbond>
-0.184760888970897

> <r_i_glide_metal>
0

> <r_i_glide_rewards>
-1.41865286881129

> <r_i_glide_evdw>
-44.7788391113281

> <r_i_glide_ecoul>
-3.00649285316467

> <r_i_glide_erotb>
0.629177654581831

> <r_i_glide_esite>
-0.142803701052841

> <r_i_glide_emodel>
-59.0566831870122

> <r_i_glide_energy>
-47.7853319644928

> <r_i_glide_einternal>
14.8489465713501

> <i_i_glide_confnum>
56

> <i_i_glide_posenum>
161

> <r_i_glide_eff_state_penalty>
0

> <s_user_duplicate_titles>
CHEMBL5491_lig35

> <i_f3d_flags>
0

> <s_m_subgroup_title>
dock_pv

> <s_m_subgroupid>
dock_pv

> <b_m_subgroup_collapsed>
1

$$$$
CHEMBL5491_lig223
                    3D
 Schrodinger Suite 2021-1.
 53 58  0  0  1  0            999 V2000
    2.5055   53.3173   29.5924 C   0  0  0  0  0  0
    3.6219   54.1143   29.3765 C   0  0  0  0  0  0
    4.0499   54.4497   28.0931 C   0  0  0  0  0  0
    1.7773   52.8042   28.5187 C   0  0  0  0  0  0
    2.1645   53.1270   27.2014 C   0  0  0  0  0  0
    3.2968   53.9689   27.0120 C   0  0  0  0  0  0
    3.4434   54.1802   25.6490 N   0  0  0  0  0  0
    1.6874   52.7680   25.9153 C   0  0  0  0  0  0
    2.5043   53.4308   24.9600 C   0  0  0  0  0  0
    2.3196   53.2677   23.5809 C   0  0  0  0  0  0
    1.3590   52.3514   23.1331 C   0  0  0  0  0  0
    0.6730   51.9215   25.4290 C   0  0  0  0  0  0
    0.5428   51.7004   24.0760 C   0  0  0  0  0  0
   -0.5359   50.6760   23.9165 C   0  0  0  0  0  0
   -0.9816   50.4195   25.1587 N   0  0  0  0  0  0
   -0.3612   51.1164   26.1250 C   0  0  0  0  0  0
   -0.9604   50.1485   22.8902 O   0  0  0  0  0  0
   -0.6236   51.0704   27.3202 O   0  0  0  0  0  0
    1.2776   52.1173   21.6628 C   0  0  0  0  0  0
    0.0680   52.2556   20.9762 C   0  0  0  0  0  0
    0.0071   52.0722   19.5956 C   0  0  0  0  0  0
    1.1691   51.7825   18.8875 C   0  0  0  0  0  0
    2.3833   51.6575   19.5518 C   0  0  0  0  0  0
    2.4337   51.8027   20.9352 C   0  0  0  0  0  0
    2.1132   53.0368   30.8761 O   0  0  0  0  0  0
    4.4466   55.0439   25.0314 C   0  0  0  0  0  0
    5.8230   54.3618   24.8284 C   0  0  0  0  0  0
    6.0424   53.6485   23.4688 C   0  0  0  0  0  0
    6.0327   54.5543   22.3291 N   0  0  0  0  0  0
    6.8859   55.6012   22.0792 C   0  0  0  0  0  0
    6.7036   56.1650   20.9085 N   0  0  0  0  0  0
    5.7333   55.4621   20.3525 C   0  0  0  0  0  0
    5.2778   54.4564   21.1886 C   0  0  0  0  0  0
    4.1776   54.4924   30.2222 H   0  0  0  0  0  0
    4.9267   55.0630   27.9504 H   0  0  0  0  0  0
    0.9308   52.1709   28.7244 H   0  0  0  0  0  0
    2.9397   53.7901   22.8693 H   0  0  0  0  0  0
   -1.7070   49.7501   25.3660 H   0  0  0  0  0  0
   -0.8360   52.4961   21.5161 H   0  0  0  0  0  0
   -0.9323   52.1648   19.0702 H   0  0  0  0  0  0
    1.1351   51.6520   17.8153 H   0  0  0  0  0  0
    3.2809   51.4561   18.9856 H   0  0  0  0  0  0
    3.3827   51.6828   21.4397 H   0  0  0  0  0  0
    2.4563   53.6699   31.5297 H   0  0  0  0  0  0
    4.5572   55.9210   25.6688 H   0  0  0  0  0  0
    4.0324   55.4112   24.0944 H   0  0  0  0  0  0
    6.0000   53.6504   25.6387 H   0  0  0  0  0  0
    6.6024   55.1152   24.9490 H   0  0  0  0  0  0
    5.2769   52.8999   23.2870 H   0  0  0  0  0  0
    7.0027   53.1315   23.4549 H   0  0  0  0  0  0
    7.6424   55.8631   22.8062 H   0  0  0  0  0  0
    5.3692   55.6816   19.3589 H   0  0  0  0  0  0
    4.5264   53.6922   21.0625 H   0  0  0  0  0  0
  1  2  2  0  0  0
  1  4  1  0  0  0
  1 25  1  0  0  0
  2  3  1  0  0  0
  2 34  1  0  0  0
  3  6  2  0  0  0
  3 35  1  0  0  0
  4  5  2  0  0  0
  4 36  1  0  0  0
  5  8  1  0  0  0
  5  6  1  0  0  0
  6  7  1  0  0  0
  7 26  1  0  0  0
  7  9  1  0  0  0
  8  9  2  0  0  0
  8 12  1  0  0  0
  9 10  1  0  0  0
 10 11  2  0  0  0
 10 37  1  0  0  0
 11 19  1  0  0  0
 11 13  1  0  0  0
 12 16  1  0  0  0
 12 13  2  0  0  0
 13 14  1  0  0  0
 14 15  1  0  0  0
 14 17  2  0  0  0
 15 16  1  0  0  0
 15 38  1  0  0  0
 16 18  2  0  0  0
 19 20  2  0  0  0
 19 24  1  0  0  0
 20 21  1  0  0  0
 20 39  1  0  0  0
 21 22  2  0  0  0
 21 40  1  0  0  0
 22 23  1  0  0  0
 22 41  1  0  0  0
 23 24  2  0  0  0
 23 42  1  0  0  0
 24 43  1  0  0  0
 25 44  1  0  0  0
 26 27  1  0  0  0
 26 45  1  0  0  0
 26 46  1  0  0  0
 27 28  1  0  0  0
 27 47  1  0  0  0
 27 48  1  0  0  0
 28 29  1  0  0  0
 28 49  1  0  0  0
 28 50  1  0  0  0
 29 30  1  0  0  0
 29 33  1  0  0  0
 30 31  2  0  0  0
 30 51  1  0  0  0
 31 32  1  0  0  0
 32 33  2  0  0  0
 32 52  1  0  0  0
 33 53  1  0  0  0
M  END
> <s_m_entry_id>
46373

> <s_m_entry_name>
dock_pv.114

> <s_m_Source_Path>
/home/csk/Desktop/cluster/DUD-E-result/wee1

> <s_m_Source_File>
dock_pv.maegz

> <i_m_Source_File_Index>
114

> <chembl_id>
CHEMBL519238

> <chembl_pref_name>
None

> <i_lp_mmshare_version>
53161

> <r_lp_tautomer_probability>
1

> <s_lp_Force_Field>
OPLS_2005

> <r_lp_Energy>
71.352217

> <b_lp_Chiralities_Consistent>
1

> <s_lp_Variant>
CHEMBL5491_lig223-1

> <s_i_glide_gridfile>
glide-grid_3biz

> <i_i_glide_lignum>
235

> <i_i_glide_rotatable_bonds>
6

> <r_i_docking_score>
-7.25777710913973

> <r_i_glide_ligand_efficiency>
-0.219932639670901

> <r_i_glide_ligand_efficiency_sa>
-0.705441491208823

> <r_i_glide_ligand_efficiency_ln>
-1.61409205031398

> <r_i_glide_gscore>
-7.25777710913973

> <r_i_glide_lipo>
-2.91600006383235

> <r_i_glide_hbond>
-0.32

> <r_i_glide_metal>
0

> <r_i_glide_rewards>
-1.18437406674136

> <r_i_glide_evdw>
-40.3880424499512

> <r_i_glide_ecoul>
-7.50645446777344

> <r_i_glide_erotb>
0.418543568633104

> <r_i_glide_esite>
-0.110576254535556

> <r_i_glide_emodel>
-65.3871780504765

> <r_i_glide_energy>
-47.8944969177246

> <r_i_glide_einternal>
4.75166177749634

> <i_i_glide_confnum>
27

> <i_i_glide_posenum>
249

> <r_i_glide_eff_state_penalty>
0

> <s_user_duplicate_titles>
CHEMBL5491_lig223,451196

> <i_f3d_flags>
0

> <s_m_subgroup_title>
dock_pv

> <s_m_subgroupid>
dock_pv

> <b_m_subgroup_collapsed>
1

$$$$
CHEMBL5491_lig50
                    3D
 Schrodinger Suite 2021-1.
 41 44  0  0  1  0            999 V2000
    4.6794   54.4001   26.3333 N   0  0  0  0  0  0
    2.9029   53.5311   27.7072 C   0  0  0  0  0  0
    3.9707   54.0388   25.1496 C   0  0  0  0  0  0
    4.1939   54.2422   27.6113 C   0  0  0  0  0  0
    4.5364   54.2631   23.9322 N   0  0  0  0  0  0
    2.7008   53.4629   25.2613 C   0  0  0  0  0  0
    2.1984   53.1811   26.6027 C   0  0  0  0  0  0
    2.3410   53.2088   29.0499 C   0  0  0  0  0  0
    3.7943   53.9675   22.8349 C   0  0  0  0  0  0
    2.5447   53.4370   22.8635 N   0  0  0  0  0  0
    2.0108   53.1792   24.0839 C   0  0  0  0  0  0
    4.2996   54.2064   21.5521 N   0  0  0  0  0  0
    4.7846   54.6627   28.6109 O   0  0  0  0  0  0
    3.0845   52.4984   30.0074 C   0  0  0  0  0  0
    1.0394   53.6132   29.3892 C   0  0  0  0  0  0
    6.0051   55.0361   26.1689 C   0  0  0  0  0  0
    4.3180   52.0269   29.7123 F   0  0  0  0  0  0
    0.2668   54.2630   28.4903 F   0  0  0  0  0  0
    5.4899   54.7569   21.0438 C   0  0  0  0  0  0
    1.2698   52.6628   31.5943 C   0  0  0  0  0  0
    0.5079   53.3300   30.6447 C   0  0  0  0  0  0
    2.5654   52.2629   31.2794 C   0  0  0  0  0  0
    5.6670   54.7051   19.6584 C   0  0  0  0  0  0
    6.4798   55.3537   21.8385 C   0  0  0  0  0  0
    6.8171   55.2279   19.0735 C   0  0  0  0  0  0
    7.6358   55.8630   21.2560 C   0  0  0  0  0  0
    7.8011   55.8047   19.8751 C   0  0  0  0  0  0
    1.2563   52.6608   26.7136 H   0  0  0  0  0  0
    1.0275   52.7334   24.0995 H   0  0  0  0  0  0
    3.6283   53.9556   20.8403 H   0  0  0  0  0  0
    6.7021   54.3237   25.7240 H   0  0  0  0  0  0
    5.9324   55.8912   25.4969 H   0  0  0  0  0  0
    6.4502   55.3922   27.1003 H   0  0  0  0  0  0
    0.8630   52.4677   32.5755 H   0  0  0  0  0  0
   -0.4945   53.6310   30.8859 H   0  0  0  0  0  0
    3.1623   51.7613   32.0261 H   0  0  0  0  0  0
    4.9166   54.2498   19.0268 H   0  0  0  0  0  0
    6.3918   55.4271   22.9085 H   0  0  0  0  0  0
    6.9504   55.1785   18.0026 H   0  0  0  0  0  0
    8.4125   56.2850   21.8779 H   0  0  0  0  0  0
    8.7027   56.1933   19.4237 H   0  0  0  0  0  0
  1  3  1  0  0  0
  1  4  1  0  0  0
  1 16  1  0  0  0
  2  4  1  0  0  0
  2  7  2  0  0  0
  2  8  1  0  0  0
  3  5  2  0  0  0
  3  6  1  0  0  0
  4 13  2  0  0  0
  5  9  1  0  0  0
  6 11  2  0  0  0
  6  7  1  0  0  0
  7 28  1  0  0  0
  8 14  2  0  0  0
  8 15  1  0  0  0
  9 12  1  0  0  0
  9 10  2  0  0  0
 10 11  1  0  0  0
 11 29  1  0  0  0
 12 19  1  0  0  0
 12 30  1  0  0  0
 14 17  1  0  0  0
 14 22  1  0  0  0
 15 18  1  0  0  0
 15 21  2  0  0  0
 16 31  1  0  0  0
 16 32  1  0  0  0
 16 33  1  0  0  0
 19 23  2  0  0  0
 19 24  1  0  0  0
 20 21  1  0  0  0
 20 22  2  0  0  0
 20 34  1  0  0  0
 21 35  1  0  0  0
 22 36  1  0  0  0
 23 25  1  0  0  0
 23 37  1  0  0  0
 24 26  2  0  0  0
 24 38  1  0  0  0
 25 27  2  0  0  0
 25 39  1  0  0  0
 26 27  1  0  0  0
 26 40  1  0  0  0
 27 41  1  0  0  0
M  END
> <s_m_entry_id>
46374

> <s_m_entry_name>
dock_pv.115

> <s_m_Source_Path>
/home/csk/Desktop/cluster/DUD-E-result/wee1

> <s_m_Source_File>
dock_pv.maegz

> <i_m_Source_File_Index>
115

> <chembl_id>
CHEMBL425873

> <chembl_pref_name>
None

> <i_lp_mmshare_version>
53161

> <r_lp_tautomer_probability>
1

> <s_lp_Force_Field>
OPLS_2005

> <r_lp_Energy>
27.058945

> <b_lp_Chiralities_Consistent>
1

> <s_lp_Variant>
CHEMBL5491_lig50-1

> <s_i_glide_gridfile>
glide-grid_3biz

> <i_i_glide_lignum>
48

> <i_i_glide_rotatable_bonds>
3

> <r_i_docking_score>
-7.25012931306767

> <r_i_glide_ligand_efficiency>
-0.268523307891395

> <r_i_glide_ligand_efficiency_sa>
-0.805569922789177

> <r_i_glide_ligand_efficiency_ln>
-1.68771057635883

> <r_i_glide_gscore>
-7.25012931306767

> <r_i_glide_lipo>
-2.73964308912093

> <r_i_glide_hbond>
0

> <r_i_glide_metal>
0

> <r_i_glide_rewards>
-2.54995527670602

> <r_i_glide_evdw>
-43.6773719787598

> <r_i_glide_ecoul>
-1.4073303937912

> <r_i_glide_erotb>
0.434437210765952

> <r_i_glide_esite>
0

> <r_i_glide_emodel>
-62.828401972026

> <r_i_glide_energy>
-45.084702372551

> <r_i_glide_einternal>
3.61099076271057

> <i_i_glide_confnum>
2

> <i_i_glide_posenum>
2

> <r_i_glide_eff_state_penalty>
0

> <s_user_duplicate_titles>
CHEMBL5491_lig50

> <i_f3d_flags>
0

> <s_m_subgroup_title>
dock_pv

> <s_m_subgroupid>
dock_pv

> <b_m_subgroup_collapsed>
1

$$$$
CHEMBL5491_lig97
                    3D
 Schrodinger Suite 2021-1.
 39 43  0  0  1  0            999 V2000
    2.8085   53.8580   29.1013 C   0  0  0  0  0  0
    4.0789   54.1823   29.5596 C   0  0  0  0  0  0
    5.1417   54.4074   28.6892 C   0  0  0  0  0  0
    2.5566   53.7166   27.7347 C   0  0  0  0  0  0
    3.6042   53.9368   26.8149 C   0  0  0  0  0  0
    4.8819   54.2979   27.3224 C   0  0  0  0  0  0
    5.7147   54.5050   26.2480 N   0  0  0  0  0  0
    3.7237   53.8630   25.4000 C   0  0  0  0  0  0
    5.0455   54.2635   25.0698 C   0  0  0  0  0  0
    5.5025   54.3415   23.7525 C   0  0  0  0  0  0
    4.6282   53.9849   22.7153 C   0  0  0  0  0  0
    2.8801   53.4632   24.3411 C   0  0  0  0  0  0
    3.3505   53.4788   23.0283 C   0  0  0  0  0  0
    2.2893   52.8495   22.1544 C   0  0  2  0  0  0
    1.1626   52.8218   23.0606 N   0  0  0  0  0  0
    1.4853   52.9220   24.3537 C   0  0  0  0  0  0
    0.7482   52.6629   25.2972 O   0  0  0  0  0  0
    1.8035   53.6808   30.0167 O   0  0  0  0  0  0
    5.0977   54.1909   21.3088 C   0  0  0  0  0  0
    4.9807   53.2012   20.3247 C   0  0  0  0  0  0
    5.4067   53.4398   19.0202 C   0  0  0  0  0  0
    5.9765   54.6633   18.6877 C   0  0  0  0  0  0
    6.1274   55.6513   19.6532 C   0  0  0  0  0  0
    5.6942   55.4107   20.9536 C   0  0  0  0  0  0
    2.6312   51.5360   21.7635 O   0  0  0  0  0  0
    4.2519   54.2628   30.6221 H   0  0  0  0  0  0
    6.1203   54.6631   29.0667 H   0  0  0  0  0  0
    1.5652   53.4485   27.4114 H   0  0  0  0  0  0
    6.6821   54.7788   26.3169 H   0  0  0  0  0  0
    6.5072   54.6756   23.5345 H   0  0  0  0  0  0
    2.0587   53.4629   21.2870 H   0  0  0  0  0  0
    0.2435   52.5437   22.7605 H   0  0  0  0  0  0
    2.0724   53.9157   30.9148 H   0  0  0  0  0  0
    4.5855   52.2266   20.5555 H   0  0  0  0  0  0
    5.3063   52.6643   18.2734 H   0  0  0  0  0  0
    6.3085   54.8431   17.6757 H   0  0  0  0  0  0
    6.5704   56.6005   19.3905 H   0  0  0  0  0  0
    5.8091   56.1940   21.6871 H   0  0  0  0  0  0
    1.9924   51.2273   21.1172 H   0  0  0  0  0  0
  1  2  2  0  0  0
  1 18  1  0  0  0
  1  4  1  0  0  0
  2  3  1  0  0  0
  2 26  1  0  0  0
  3  6  2  0  0  0
  3 27  1  0  0  0
  4  5  2  0  0  0
  4 28  1  0  0  0
  5  8  1  0  0  0
  5  6  1  0  0  0
  6  7  1  0  0  0
  7  9  1  0  0  0
  7 29  1  0  0  0
  8 12  1  0  0  0
  8  9  2  0  0  0
  9 10  1  0  0  0
 10 11  2  0  0  0
 10 30  1  0  0  0
 11 19  1  0  0  0
 11 13  1  0  0  0
 12 13  2  0  0  0
 12 16  1  0  0  0
 13 14  1  0  0  0
 14 15  1  0  0  0
 14 25  1  0  0  0
 14 31  1  0  0  0
 15 16  1  0  0  0
 15 32  1  0  0  0
 16 17  2  0  0  0
 18 33  1  0  0  0
 19 20  2  0  0  0
 19 24  1  0  0  0
 20 21  1  0  0  0
 20 34  1  0  0  0
 21 22  2  0  0  0
 21 35  1  0  0  0
 22 23  1  0  0  0
 22 36  1  0  0  0
 23 24  2  0  0  0
 23 37  1  0  0  0
 24 38  1  0  0  0
 25 39  1  0  0  0
M  END
> <s_m_entry_id>
46375

> <s_m_entry_name>
dock_pv.116

> <s_m_Source_Path>
/home/csk/Desktop/cluster/DUD-E-result/wee1

> <s_m_Source_File>
dock_pv.maegz

> <i_m_Source_File_Index>
116

> <chembl_id>
CHEMBL378766

> <chembl_pref_name>
None

> <i_lp_mmshare_version>
53161

> <r_lp_tautomer_probability>
1

> <s_lp_Force_Field>
OPLS_2005

> <r_lp_Energy>
57.993165

> <b_lp_Chiralities_Consistent>
1

> <s_lp_Variant>
CHEMBL5491_lig97-1

> <s_i_glide_gridfile>
glide-grid_3biz

> <i_i_glide_lignum>
97

> <i_i_glide_rotatable_bonds>
3

> <r_i_docking_score>
-7.24803371362922

> <r_i_glide_ligand_efficiency>
-0.289921348545169

> <r_i_glide_ligand_efficiency_sa>
-0.847735164923083

> <r_i_glide_ligand_efficiency_ln>
-1.71800119617307

> <r_i_glide_gscore>
-7.24803371362922

> <r_i_glide_lipo>
-3.23557101599326

> <r_i_glide_hbond>
-0.316083951771233

> <r_i_glide_metal>
0

> <r_i_glide_rewards>
-1.49451676290604

> <r_i_glide_evdw>
-35.7243423461914

> <r_i_glide_ecoul>
-3.9199378490448

> <r_i_glide_erotb>
0.172345811707602

> <r_i_glide_esite>
0

> <r_i_glide_emodel>
-56.6540395988396

> <r_i_glide_energy>
-39.6442801952362

> <r_i_glide_einternal>
3.27594780921936

> <i_i_glide_confnum>
4

> <i_i_glide_posenum>
220

> <r_i_glide_eff_state_penalty>
0

> <s_user_duplicate_titles>
CHEMBL5491_lig97

> <i_f3d_flags>
0

> <s_m_subgroup_title>
dock_pv

> <s_m_subgroupid>
dock_pv

> <b_m_subgroup_collapsed>
1

$$$$
CHEMBL5491_lig51
                    3D
 Schrodinger Suite 2021-1.
 41 44  0  0  1  0            999 V2000
    5.1381   54.2417   27.0943 N   0  0  0  0  0  0
    2.8190   53.9091   27.6325 C   0  0  0  0  0  0
    4.8365   54.2598   25.7011 C   0  0  0  0  0  0
    4.2084   54.0612   28.0898 C   0  0  0  0  0  0
    5.8304   54.5040   24.8013 N   0  0  0  0  0  0
    3.5149   54.0421   25.2881 C   0  0  0  0  0  0
    2.4961   53.8627   26.3207 C   0  0  0  0  0  0
    1.7689   53.7568   28.6690 C   0  0  0  0  0  0
    5.4800   54.5179   23.4916 C   0  0  0  0  0  0
    4.2348   54.2630   23.0090 N   0  0  0  0  0  0
    3.2564   54.0331   23.9185 C   0  0  0  0  0  0
    6.4976   54.9418   22.6366 N   0  0  0  0  0  0
    4.4887   54.0344   29.2888 O   0  0  0  0  0  0
    1.1441   52.5162   28.8716 C   0  0  0  0  0  0
    1.4229   54.8226   29.5187 C   0  0  0  0  0  0
    6.5516   54.4078   27.4917 C   0  0  0  0  0  0
    1.4258   51.0630   27.6872 Br  0  0  0  0  0  0
    2.0768   56.5900   29.2508 Br  0  0  0  0  0  0
    6.5747   55.2884   21.2772 C   0  0  0  0  0  0
    0.0790   53.3399   30.8645 C   0  0  0  0  0  0
    0.5944   54.6047   30.6139 C   0  0  0  0  0  0
    0.2920   52.3170   29.9524 C   0  0  0  0  0  0
    7.7754   55.8629   20.8529 C   0  0  0  0  0  0
    5.5538   55.0633   20.3458 C   0  0  0  0  0  0
    7.9571   56.2193   19.5196 C   0  0  0  0  0  0
    5.7286   55.4295   19.0137 C   0  0  0  0  0  0
    6.9285   56.0067   18.6063 C   0  0  0  0  0  0
    1.4639   53.7191   26.0328 H   0  0  0  0  0  0
    2.2628   53.8614   23.5296 H   0  0  0  0  0  0
    7.3673   55.0744   23.1342 H   0  0  0  0  0  0
    7.1785   53.6915   26.9602 H   0  0  0  0  0  0
    6.8915   55.4118   27.2396 H   0  0  0  0  0  0
    6.7379   54.2609   28.5569 H   0  0  0  0  0  0
   -0.5407   53.1611   31.7310 H   0  0  0  0  0  0
    0.3898   55.4209   31.2869 H   0  0  0  0  0  0
   -0.2038   51.3693   30.0873 H   0  0  0  0  0  0
    8.5818   56.0267   21.5544 H   0  0  0  0  0  0
    4.6185   54.6056   20.6222 H   0  0  0  0  0  0
    8.8930   56.6537   19.1972 H   0  0  0  0  0  0
    4.9375   55.2593   18.2981 H   0  0  0  0  0  0
    7.0648   56.2842   17.5708 H   0  0  0  0  0  0
  1  3  1  0  0  0
  1  4  1  0  0  0
  1 16  1  0  0  0
  2  4  1  0  0  0
  2  7  2  0  0  0
  2  8  1  0  0  0
  3  5  2  0  0  0
  3  6  1  0  0  0
  4 13  2  0  0  0
  5  9  1  0  0  0
  6 11  2  0  0  0
  6  7  1  0  0  0
  7 28  1  0  0  0
  8 14  2  0  0  0
  8 15  1  0  0  0
  9 12  1  0  0  0
  9 10  2  0  0  0
 10 11  1  0  0  0
 11 29  1  0  0  0
 12 19  1  0  0  0
 12 30  1  0  0  0
 14 17  1  0  0  0
 14 22  1  0  0  0
 15 18  1  0  0  0
 15 21  2  0  0  0
 16 31  1  0  0  0
 16 32  1  0  0  0
 16 33  1  0  0  0
 19 23  2  0  0  0
 19 24  1  0  0  0
 20 21  1  0  0  0
 20 22  2  0  0  0
 20 34  1  0  0  0
 21 35  1  0  0  0
 22 36  1  0  0  0
 23 25  1  0  0  0
 23 37  1  0  0  0
 24 26  2  0  0  0
 24 38  1  0  0  0
 25 27  2  0  0  0
 25 39  1  0  0  0
 26 27  1  0  0  0
 26 40  1  0  0  0
 27 41  1  0  0  0
M  END
> <s_m_entry_id>
46376

> <s_m_entry_name>
dock_pv.117

> <s_m_Source_Path>
/home/csk/Desktop/cluster/DUD-E-result/wee1

> <s_m_Source_File>
dock_pv.maegz

> <i_m_Source_File_Index>
117

> <chembl_id>
CHEMBL362402

> <chembl_pref_name>
None

> <i_lp_mmshare_version>
53161

> <r_lp_tautomer_probability>
1

> <s_lp_Force_Field>
OPLS_2005

> <r_lp_Energy>
25.202655

> <b_lp_Chiralities_Consistent>
1

> <s_lp_Variant>
CHEMBL5491_lig51-1

> <s_i_glide_gridfile>
glide-grid_3biz

> <i_i_glide_lignum>
49

> <i_i_glide_rotatable_bonds>
3

> <r_i_docking_score>
-7.23791776604412

> <r_i_glide_ligand_efficiency>
-0.268071028372004

> <r_i_glide_ligand_efficiency_sa>
-0.804213084232495

> <r_i_glide_ligand_efficiency_ln>
-1.68486792953483

> <r_i_glide_gscore>
-7.23791776604412

> <r_i_glide_lipo>
-3.45326580607179

> <r_i_glide_hbond>
-0.142784302084441

> <r_i_glide_metal>
0

> <r_i_glide_rewards>
-1.22725477410283

> <r_i_glide_evdw>
-46.0549278259277

> <r_i_glide_ecoul>
-2.46527481079102

> <r_i_glide_erotb>
0.257924729129981

> <r_i_glide_esite>
0

> <r_i_glide_emodel>
-66.0223511685413

> <r_i_glide_energy>
-48.5202026367188

> <r_i_glide_einternal>
3.2353036403656

> <i_i_glide_confnum>
5

> <i_i_glide_posenum>
123

> <r_i_glide_eff_state_penalty>
0

> <s_user_duplicate_titles>
CHEMBL5491_lig51,303293

> <i_f3d_flags>
0

> <s_m_subgroup_title>
dock_pv

> <s_m_subgroupid>
dock_pv

> <b_m_subgroup_collapsed>
1

$$$$
CHEMBL5491_lig10
                    3D
 Schrodinger Suite 2021-1.
 38 40  0  0  1  0            999 V2000
    7.0425   53.0650   28.0870 Cl  0  0  0  0  0  0
    6.7242   55.2793   25.9029 O   0  0  0  0  0  0
    2.8790   50.7909   19.6872 O   0  0  0  0  0  0
    5.2028   54.2632   22.0278 N   0  0  0  0  0  0
    5.8531   54.7835   20.9688 N   0  0  0  0  0  0
    5.2802   54.2630   24.4433 N   0  0  0  0  0  0
    4.0681   52.5630   20.8026 N   0  0  0  0  0  0
    3.0294   53.6113   22.7189 N   0  0  0  0  0  0
    5.7952   54.6484   23.2172 C   0  0  0  0  0  0
    4.0472   53.4626   21.8275 C   0  0  0  0  0  0
    6.8728   55.4627   21.4483 C   0  0  0  0  0  0
    6.8790   55.4289   22.8451 C   0  0  0  0  0  0
    5.7172   54.6053   25.6692 C   0  0  0  0  0  0
    4.8344   54.0764   26.7793 C   0  0  0  0  0  0
    2.9826   51.7560   20.6507 C   0  0  0  0  0  0
    1.9572   52.7996   22.5496 C   0  0  0  0  0  0
    1.8899   51.8563   21.5206 C   0  0  0  0  0  0
    5.3530   53.3972   27.9010 C   0  0  0  0  0  0
    3.4380   54.2026   26.6673 C   0  0  0  0  0  0
    7.8640   56.0953   20.5045 C   0  0  0  0  0  0
    4.4862   52.9096   28.8859 C   0  0  0  0  0  0
    2.5845   53.7224   27.6582 C   0  0  0  0  0  0
    0.8432   52.9570   23.5659 C   0  0  0  0  0  0
    3.1102   53.0821   28.7748 C   0  0  0  0  0  0
    3.7042   50.6660   19.1842 H   0  0  0  0  0  0
    4.4678   53.6657   24.4051 H   0  0  0  0  0  0
    7.5992   55.8958   23.4996 H   0  0  0  0  0  0
    1.0312   51.2120   21.4049 H   0  0  0  0  0  0
    2.9947   54.6639   25.7986 H   0  0  0  0  0  0
    8.7737   56.3956   21.0227 H   0  0  0  0  0  0
    8.1777   55.3993   19.7252 H   0  0  0  0  0  0
    7.4474   56.9700   20.0044 H   0  0  0  0  0  0
    4.8781   52.3671   29.7312 H   0  0  0  0  0  0
    1.5153   53.8363   27.5556 H   0  0  0  0  0  0
   -0.0509   52.4084   23.2656 H   0  0  0  0  0  0
    1.1666   52.5733   24.5347 H   0  0  0  0  0  0
    0.5720   54.0072   23.6871 H   0  0  0  0  0  0
    2.4520   52.7017   29.5428 H   0  0  0  0  0  0
  1 18  1  0  0  0
  2 13  2  0  0  0
  3 15  1  0  0  0
  3 25  1  0  0  0
  4  5  1  0  0  0
  4  9  1  0  0  0
  4 10  1  0  0  0
  5 11  2  0  0  0
  6  9  1  0  0  0
  6 13  1  0  0  0
  6 26  1  0  0  0
  7 10  1  0  0  0
  7 15  2  0  0  0
  8 10  2  0  0  0
  8 16  1  0  0  0
  9 12  2  0  0  0
 11 12  1  0  0  0
 11 20  1  0  0  0
 12 27  1  0  0  0
 13 14  1  0  0  0
 14 18  1  0  0  0
 14 19  2  0  0  0
 15 17  1  0  0  0
 16 17  2  0  0  0
 16 23  1  0  0  0
 17 28  1  0  0  0
 18 21  2  0  0  0
 19 22  1  0  0  0
 19 29  1  0  0  0
 20 30  1  0  0  0
 20 31  1  0  0  0
 20 32  1  0  0  0
 21 24  1  0  0  0
 21 33  1  0  0  0
 22 24  2  0  0  0
 22 34  1  0  0  0
 23 35  1  0  0  0
 23 36  1  0  0  0
 23 37  1  0  0  0
 24 38  1  0  0  0
M  END
> <s_m_entry_id>
46377

> <s_m_entry_name>
dock_pv.118

> <s_m_Source_Path>
/home/csk/Desktop/cluster/DUD-E-result/wee1

> <s_m_Source_File>
dock_pv.maegz

> <i_m_Source_File_Index>
118

> <chembl_id>
CHEMBL1720668

> <chembl_pref_name>
None

> <i_lp_mmshare_version>
53161

> <r_lp_tautomer_probability>
1

> <s_lp_Force_Field>
OPLS_2005

> <r_lp_Energy>
18.053339

> <b_lp_Chiralities_Consistent>
1

> <s_lp_Variant>
CHEMBL5491_lig10-1

> <s_i_glide_gridfile>
glide-grid_3biz

> <i_i_glide_lignum>
10

> <i_i_glide_rotatable_bonds>
5

> <r_i_docking_score>
-7.21499622823511

> <r_i_glide_ligand_efficiency>
-0.30062484284313

> <r_i_glide_ligand_efficiency_sa>
-0.867152099909853

> <r_i_glide_ligand_efficiency_ln>
-1.72687967202047

> <r_i_glide_gscore>
-7.21499622823511

> <r_i_glide_lipo>
-2.7024455705129

> <r_i_glide_hbond>
-0.417908134964844

> <r_i_glide_metal>
0

> <r_i_glide_rewards>
-1.98312869198537

> <r_i_glide_evdw>
-41.0004348754883

> <r_i_glide_ecoul>
-4.69261932373047

> <r_i_glide_erotb>
0.642400811561989

> <r_i_glide_esite>
0

> <r_i_glide_emodel>
-64.9884506117394

> <r_i_glide_energy>
-45.6930541992188

> <r_i_glide_einternal>
1.49457681179047

> <i_i_glide_confnum>
11

> <i_i_glide_posenum>
216

> <r_i_glide_eff_state_penalty>
0

> <s_user_duplicate_titles>
CHEMBL5491_lig10

> <i_f3d_flags>
0

> <s_m_subgroup_title>
dock_pv

> <s_m_subgroupid>
dock_pv

> <b_m_subgroup_collapsed>
1

$$$$
CHEMBL5491_lig365
                    3D
 Schrodinger Suite 2021-1.
 53 56  0  0  1  0            999 V2000
    5.6792   54.6606   19.8906 C   0  0  0  0  0  0
    6.7111   55.4739   20.3668 C   0  0  0  0  0  0
    6.9943   55.5910   21.6901 N   0  0  0  0  0  0
    6.2168   54.8763   22.5440 C   0  0  0  0  0  0
    5.2114   54.0497   22.1612 N   0  0  0  0  0  0
    4.9301   53.9459   20.8342 C   0  0  0  0  0  0
    6.4789   55.0447   23.9136 N   0  0  0  0  0  0
    5.7202   54.6986   25.0488 C   0  0  0  0  0  0
    6.3774   54.5242   26.2660 C   0  0  0  0  0  0
    5.6711   54.1306   27.4002 C   0  0  0  0  0  0
    4.2855   53.9240   27.3505 C   0  0  0  0  0  0
    3.6281   54.1520   26.1362 C   0  0  0  0  0  0
    4.3312   54.5425   25.0018 C   0  0  0  0  0  0
    3.5911   53.4675   28.4685 N   0  0  0  0  0  0
    3.8978   53.8941   29.8386 C   0  0  0  0  0  0
    3.7591   52.7311   30.8410 C   0  0  0  0  0  0
    2.3830   52.2626   30.8758 N   0  0  0  0  0  0
    1.9163   51.8623   29.5502 C   0  0  0  0  0  0
    2.2401   52.8755   28.4194 C   0  0  0  0  0  0
    3.7636   53.0652   20.4711 C   0  0  0  0  0  0
    2.6899   52.4512   21.7162 S   0  0  0  0  0  0
    1.7650   51.6429   20.5031 C   0  0  0  0  0  0
    2.1979   51.8338   19.2891 N   0  0  0  0  0  0
    3.2790   52.5941   19.2362 C   0  0  0  0  0  0
    3.8269   52.8162   17.8425 C   0  0  0  0  0  0
    0.6736   50.8658   20.7971 N   0  0  0  0  0  0
    0.0725   50.5636   22.0931 C   0  0  0  0  0  0
    0.9878   49.7758   23.0483 C   0  0  0  0  0  0
    5.4716   54.6091   18.8351 H   0  0  0  0  0  0
    7.3296   56.0399   19.6869 H   0  0  0  0  0  0
    7.3616   55.5055   24.0879 H   0  0  0  0  0  0
    7.4389   54.6645   26.3447 H   0  0  0  0  0  0
    6.2228   53.9619   28.3117 H   0  0  0  0  0  0
    2.5589   54.0205   26.0574 H   0  0  0  0  0  0
    3.7771   54.7115   24.0934 H   0  0  0  0  0  0
    4.8789   54.3510   29.9192 H   0  0  0  0  0  0
    3.2070   54.6969   30.1016 H   0  0  0  0  0  0
    4.0521   53.0618   31.8368 H   0  0  0  0  0  0
    4.4244   51.9130   30.5606 H   0  0  0  0  0  0
    1.7789   52.9279   31.3456 H   0  0  0  0  0  0
    0.8369   51.7092   29.5916 H   0  0  0  0  0  0
    2.3718   50.9091   29.2861 H   0  0  0  0  0  0
    1.5112   53.6873   28.4699 H   0  0  0  0  0  0
    2.0927   52.3714   27.4615 H   0  0  0  0  0  0
    4.9075   52.6720   17.8135 H   0  0  0  0  0  0
    3.4111   52.1231   17.1052 H   0  0  0  0  0  0
    3.6154   53.8277   17.4901 H   0  0  0  0  0  0
    0.2320   50.3627   20.0393 H   0  0  0  0  0  0
   -0.8264   49.9700   21.9012 H   0  0  0  0  0  0
   -0.2758   51.4867   22.5644 H   0  0  0  0  0  0
    0.3997   49.2686   23.8135 H   0  0  0  0  0  0
    1.6844   50.4375   23.5687 H   0  0  0  0  0  0
    1.5822   49.0293   22.5196 H   0  0  0  0  0  0
  1  2  2  0  0  0
  1  6  1  0  0  0
  1 29  1  0  0  0
  2  3  1  0  0  0
  2 30  1  0  0  0
  3  4  2  0  0  0
  4  7  1  0  0  0
  4  5  1  0  0  0
  5  6  2  0  0  0
  6 20  1  0  0  0
  7  8  1  0  0  0
  7 31  1  0  0  0
  8  9  2  0  0  0
  8 13  1  0  0  0
  9 10  1  0  0  0
  9 32  1  0  0  0
 10 11  2  0  0  0
 10 33  1  0  0  0
 11 14  1  0  0  0
 11 12  1  0  0  0
 12 13  2  0  0  0
 12 34  1  0  0  0
 13 35  1  0  0  0
 14 15  1  0  0  0
 14 19  1  0  0  0
 15 16  1  0  0  0
 15 36  1  0  0  0
 15 37  1  0  0  0
 16 17  1  0  0  0
 16 38  1  0  0  0
 16 39  1  0  0  0
 17 18  1  0  0  0
 17 40  1  0  0  0
 18 19  1  0  0  0
 18 41  1  0  0  0
 18 42  1  0  0  0
 19 43  1  0  0  0
 19 44  1  0  0  0
 20 21  1  0  0  0
 20 24  2  0  0  0
 21 22  1  0  0  0
 22 23  2  0  0  0
 22 26  1  0  0  0
 23 24  1  0  0  0
 24 25  1  0  0  0
 25 45  1  0  0  0
 25 46  1  0  0  0
 25 47  1  0  0  0
 26 27  1  0  0  0
 26 48  1  0  0  0
 27 28  1  0  0  0
 27 49  1  0  0  0
 27 50  1  0  0  0
 28 51  1  0  0  0
 28 52  1  0  0  0
 28 53  1  0  0  0
M  END
> <s_m_entry_id>
46378

> <s_m_entry_name>
dock_pv.119

> <s_m_Source_Path>
/home/csk/Desktop/cluster/DUD-E-result/wee1

> <s_m_Source_File>
dock_pv.maegz

> <i_m_Source_File_Index>
119

> <chembl_id>
CHEMBL1242995

> <chembl_pref_name>
None

> <i_lp_mmshare_version>
53161

> <r_lp_tautomer_probability>
0.999999987636

> <s_lp_Force_Field>
OPLS_2005

> <r_lp_Energy>
28.834173

> <b_lp_Chiralities_Consistent>
1

> <s_lp_Variant>
CHEMBL5491_lig365-1

> <s_i_glide_gridfile>
glide-grid_3biz

> <i_i_glide_lignum>
397

> <i_i_glide_rotatable_bonds>
6

> <r_i_docking_score>
-7.20008882709339

> <r_i_glide_ligand_efficiency>
-0.25714602953905

> <r_i_glide_ligand_efficiency_sa>
-0.780846796592577

> <r_i_glide_ligand_efficiency_ln>
-1.66199190508719

> <r_i_glide_gscore>
-7.20008882709339

> <r_i_glide_lipo>
-2.56347572772231

> <r_i_glide_hbond>
-0.349850665010296

> <r_i_glide_metal>
0

> <r_i_glide_rewards>
-2.2304651661926

> <r_i_glide_evdw>
-45.4010429382324

> <r_i_glide_ecoul>
-2.71673488616943

> <r_i_glide_erotb>
0.625022698384393

> <r_i_glide_esite>
-0.0037575867155364

> <r_i_glide_emodel>
-67.5395014654533

> <r_i_glide_energy>
-48.1177778244019

> <r_i_glide_einternal>
2.2819459438324

> <i_i_glide_confnum>
94

> <i_i_glide_posenum>
225

> <r_i_glide_eff_state_penalty>
0

> <s_user_duplicate_titles>
CHEMBL5491_lig365

> <i_f3d_flags>
0

> <s_m_subgroup_title>
dock_pv

> <s_m_subgroupid>
dock_pv

> <b_m_subgroup_collapsed>
1

$$$$
CHEMBL5491_lig253
                    3D
 Schrodinger Suite 2021-1.
 44 48  0  0  1  0            999 V2000
    5.4062   54.6638   20.9213 C   0  0  0  0  0  0
    6.5102   55.1143   21.6301 C   0  0  0  0  0  0
    6.5620   55.0636   23.0208 C   0  0  0  0  0  0
    4.2917   54.1653   21.5868 C   0  0  0  0  0  0
    4.2906   54.1327   22.9928 C   0  0  0  0  0  0
    5.4409   54.5739   23.7003 C   0  0  0  0  0  0
    5.1982   54.4345   25.0609 N   0  0  0  0  0  0
    5.4174   54.7238   19.5543 O   0  0  0  0  0  0
    3.3315   53.7517   23.9467 C   0  0  0  0  0  0
    3.8762   54.0256   25.2306 C   0  0  0  0  0  0
    3.1191   53.8311   26.3921 C   0  0  0  0  0  0
    1.8197   53.3282   26.3002 C   0  0  0  0  0  0
    1.1092   53.0933   27.6053 C   0  0  0  0  0  0
    1.0376   54.0859   28.6248 C   0  0  0  0  0  0
    0.4517   53.8109   29.8568 C   0  0  0  0  0  0
   -0.1291   52.5777   30.0935 C   0  0  0  0  0  0
   -0.0891   51.6074   29.1074 C   0  0  0  0  0  0
    0.5845   51.8203   27.9089 C   0  0  0  0  0  0
    2.0428   53.1896   23.8725 C   0  0  0  0  0  0
    1.3057   53.0078   25.0201 C   0  0  0  0  0  0
   -0.0236   52.4757   24.5714 C   0  0  0  0  0  0
    0.0759   52.2823   23.2499 N   0  0  0  0  0  0
    1.2473   52.6666   22.7257 C   0  0  0  0  0  0
   -1.0381   52.2629   25.2333 O   0  0  0  0  0  0
    1.5408   52.5773   21.5391 O   0  0  0  0  0  0
    6.1821   54.7941   26.1030 C   0  0  0  0  0  0
    6.0489   53.9862   27.4184 C   0  0  0  0  0  0
    7.2788   53.8630   28.0867 O   0  0  0  0  0  0
    1.6859   55.6847   28.4856 Cl  0  0  0  0  0  0
    0.8405   50.4370   26.8871 Cl  0  0  0  0  0  0
    7.3619   55.4991   21.0879 H   0  0  0  0  0  0
    7.4277   55.4314   23.5443 H   0  0  0  0  0  0
    3.4354   53.8569   21.0128 H   0  0  0  0  0  0
    4.6270   54.3606   19.1481 H   0  0  0  0  0  0
    3.5098   54.0384   27.3694 H   0  0  0  0  0  0
    0.4307   54.5642   30.6317 H   0  0  0  0  0  0
   -0.6035   52.3662   31.0421 H   0  0  0  0  0  0
   -0.5511   50.6628   29.3086 H   0  0  0  0  0  0
   -0.6666   51.8869   22.6976 H   0  0  0  0  0  0
    7.1828   54.6578   25.6908 H   0  0  0  0  0  0
    6.0796   55.8623   26.2933 H   0  0  0  0  0  0
    5.3580   54.4586   28.1166 H   0  0  0  0  0  0
    5.7179   52.9661   27.2174 H   0  0  0  0  0  0
    7.4084   54.6364   28.6516 H   0  0  0  0  0  0
  1  2  2  0  0  0
  1  8  1  0  0  0
  1  4  1  0  0  0
  2  3  1  0  0  0
  2 31  1  0  0  0
  3  6  2  0  0  0
  3 32  1  0  0  0
  4  5  2  0  0  0
  4 33  1  0  0  0
  5  9  1  0  0  0
  5  6  1  0  0  0
  6  7  1  0  0  0
  7 10  1  0  0  0
  7 26  1  0  0  0
  8 34  1  0  0  0
  9 10  2  0  0  0
  9 19  1  0  0  0
 10 11  1  0  0  0
 11 12  2  0  0  0
 11 35  1  0  0  0
 12 13  1  0  0  0
 12 20  1  0  0  0
 13 14  2  0  0  0
 13 18  1  0  0  0
 14 15  1  0  0  0
 14 29  1  0  0  0
 15 16  2  0  0  0
 15 36  1  0  0  0
 16 17  1  0  0  0
 16 37  1  0  0  0
 17 18  2  0  0  0
 17 38  1  0  0  0
 18 30  1  0  0  0
 19 20  2  0  0  0
 19 23  1  0  0  0
 20 21  1  0  0  0
 21 22  1  0  0  0
 21 24  2  0  0  0
 22 23  1  0  0  0
 22 39  1  0  0  0
 23 25  2  0  0  0
 26 27  1  0  0  0
 26 40  1  0  0  0
 26 41  1  0  0  0
 27 28  1  0  0  0
 27 42  1  0  0  0
 27 43  1  0  0  0
 28 44  1  0  0  0
M  END
> <s_m_entry_id>
46379

> <s_m_entry_name>
dock_pv.120

> <s_m_Source_Path>
/home/csk/Desktop/cluster/DUD-E-result/wee1

> <s_m_Source_File>
dock_pv.maegz

> <i_m_Source_File_Index>
120

> <chembl_id>
CHEMBL471157

> <chembl_pref_name>
None

> <i_lp_mmshare_version>
53161

> <r_lp_tautomer_probability>
1

> <s_lp_Force_Field>
OPLS_2005

> <r_lp_Energy>
66.853658

> <b_lp_Chiralities_Consistent>
1

> <s_lp_Variant>
CHEMBL5491_lig253-1

> <s_i_glide_gridfile>
glide-grid_3biz

> <i_i_glide_lignum>
266

> <i_i_glide_rotatable_bonds>
5

> <r_i_docking_score>
-7.18832684791128

> <r_i_glide_ligand_efficiency>
-0.239610894930376

> <r_i_glide_ligand_efficiency_sa>
-0.744526760664265

> <r_i_glide_ligand_efficiency_ln>
-1.63326618293964

> <r_i_glide_gscore>
-7.18832684791128

> <r_i_glide_lipo>
-3.67151134882998

> <r_i_glide_hbond>
-0.340953013317299

> <r_i_glide_metal>
0

> <r_i_glide_rewards>
-0.962586636480895

> <r_i_glide_evdw>
-38.5556030273438

> <r_i_glide_ecoul>
-3.9548933506012

> <r_i_glide_erotb>
0.307738304674258

> <r_i_glide_esite>
0

> <r_i_glide_emodel>
-54.2888373499686

> <r_i_glide_energy>
-42.5104963779449

> <r_i_glide_einternal>
9.34021282196045

> <i_i_glide_confnum>
23

> <i_i_glide_posenum>
312

> <r_i_glide_eff_state_penalty>
0

> <s_user_duplicate_titles>
CHEMBL5491_lig253,451710

> <i_f3d_flags>
0

> <s_m_subgroup_title>
dock_pv

> <s_m_subgroupid>
dock_pv

> <b_m_subgroup_collapsed>
1

$$$$
CHEMBL5491_lig31
                    3D
 Schrodinger Suite 2021-1.
 46 49  0  0  1  0            999 V2000
    4.5801   54.0338   27.9851 C   0  0  0  0  0  0
    5.9029   54.4660   27.9132 C   0  0  0  0  0  0
    6.5280   54.7154   26.7354 N   0  0  0  0  0  0
    5.7951   54.5395   25.6094 C   0  0  0  0  0  0
    4.4906   54.1555   25.5886 N   0  0  0  0  0  0
    3.8898   53.8633   26.7789 C   0  0  0  0  0  0
    6.4840   54.7816   24.4122 N   0  0  0  0  0  0
    6.1254   54.6839   23.0595 C   0  0  0  0  0  0
    5.0866   53.8722   22.5994 C   0  0  0  0  0  0
    4.7531   53.8642   21.2494 C   0  0  0  0  0  0
    5.4523   54.6628   20.3333 C   0  0  0  0  0  0
    6.5065   55.4562   20.8018 C   0  0  0  0  0  0
    6.8498   55.4577   22.1507 C   0  0  0  0  0  0
    2.5007   53.2788   26.7159 C   0  0  0  0  0  0
    1.6807   53.0628   25.1731 S   0  0  0  0  0  0
    0.4008   52.2560   25.9998 C   0  0  0  0  0  0
    0.5285   52.2042   27.2941 N   0  0  0  0  0  0
    1.6552   52.7506   27.7157 C   0  0  0  0  0  0
    1.8640   52.6763   29.2160 C   0  0  0  0  0  0
   -0.6438   51.7216   25.3066 N   0  0  0  0  0  0
    5.1234   54.6880   18.9809 N   0  0  0  0  0  0
    4.2893   53.6297   18.3820 C   0  0  0  0  0  0
    4.3264   53.6277   16.8414 C   0  0  0  0  0  0
    3.9509   54.9076   16.3509 O   0  0  0  0  0  0
    4.8264   55.9278   16.8104 C   0  0  0  0  0  0
    4.8098   55.9835   18.3506 C   0  0  0  0  0  0
    4.1407   53.8299   28.9459 H   0  0  0  0  0  0
    6.4789   54.6220   28.8132 H   0  0  0  0  0  0
    7.4423   55.0664   24.5465 H   0  0  0  0  0  0
    4.5238   53.2468   23.2721 H   0  0  0  0  0  0
    3.9321   53.2409   20.9285 H   0  0  0  0  0  0
    7.0803   56.0594   20.1144 H   0  0  0  0  0  0
    7.6760   56.0693   22.4867 H   0  0  0  0  0  0
    2.7480   52.0893   29.4649 H   0  0  0  0  0  0
    1.9893   53.6672   29.6533 H   0  0  0  0  0  0
    1.0312   52.2130   29.7491 H   0  0  0  0  0  0
   -1.3664   51.2109   25.7955 H   0  0  0  0  0  0
   -0.5899   51.5768   24.3103 H   0  0  0  0  0  0
    4.6502   52.6605   18.7264 H   0  0  0  0  0  0
    3.2608   53.7278   18.7331 H   0  0  0  0  0  0
    3.6288   52.8837   16.4562 H   0  0  0  0  0  0
    5.3149   53.3465   16.4744 H   0  0  0  0  0  0
    4.4956   56.8838   16.4042 H   0  0  0  0  0  0
    5.8386   55.7637   16.4373 H   0  0  0  0  0  0
    3.8333   56.3180   18.7013 H   0  0  0  0  0  0
    5.5250   56.7431   18.6641 H   0  0  0  0  0  0
  1  2  2  0  0  0
  1  6  1  0  0  0
  1 27  1  0  0  0
  2  3  1  0  0  0
  2 28  1  0  0  0
  3  4  2  0  0  0
  4  7  1  0  0  0
  4  5  1  0  0  0
  5  6  2  0  0  0
  6 14  1  0  0  0
  7  8  1  0  0  0
  7 29  1  0  0  0
  8 13  1  0  0  0
  8  9  2  0  0  0
  9 10  1  0  0  0
  9 30  1  0  0  0
 10 11  2  0  0  0
 10 31  1  0  0  0
 11 21  1  0  0  0
 11 12  1  0  0  0
 12 13  2  0  0  0
 12 32  1  0  0  0
 13 33  1  0  0  0
 14 15  1  0  0  0
 14 18  2  0  0  0
 15 16  1  0  0  0
 16 17  2  0  0  0
 16 20  1  0  0  0
 17 18  1  0  0  0
 18 19  1  0  0  0
 19 34  1  0  0  0
 19 35  1  0  0  0
 19 36  1  0  0  0
 20 37  1  0  0  0
 20 38  1  0  0  0
 21 22  1  0  0  0
 21 26  1  0  0  0
 22 23  1  0  0  0
 22 39  1  0  0  0
 22 40  1  0  0  0
 23 24  1  0  0  0
 23 41  1  0  0  0
 23 42  1  0  0  0
 24 25  1  0  0  0
 25 26  1  0  0  0
 25 43  1  0  0  0
 25 44  1  0  0  0
 26 45  1  0  0  0
 26 46  1  0  0  0
M  END
> <s_m_entry_id>
46380

> <s_m_entry_name>
dock_pv.121

> <s_m_Source_Path>
/home/csk/Desktop/cluster/DUD-E-result/wee1

> <s_m_Source_File>
dock_pv.maegz

> <i_m_Source_File_Index>
121

> <chembl_id>
CHEMBL482967

> <chembl_pref_name>
CYC-116

> <i_lp_mmshare_version>
53161

> <r_lp_tautomer_probability>
0.999999987636

> <s_lp_Force_Field>
OPLS_2005

> <r_lp_Energy>
20.731247

> <b_lp_Chiralities_Consistent>
1

> <s_lp_Variant>
CHEMBL5491_lig31-1

> <s_i_glide_gridfile>
glide-grid_3biz

> <i_i_glide_lignum>
28

> <i_i_glide_rotatable_bonds>
4

> <r_i_docking_score>
-7.18053101118754

> <r_i_glide_ligand_efficiency>
-0.276174269661059

> <r_i_glide_ligand_efficiency_sa>
-0.818165187177611

> <r_i_glide_ligand_efficiency_ln>
-1.6863241467334

> <r_i_glide_gscore>
-7.18053101118754

> <r_i_glide_lipo>
-2.7824013483632

> <r_i_glide_hbond>
-0.0929708016337501

> <r_i_glide_metal>
0

> <r_i_glide_rewards>
-2.29572883366235

> <r_i_glide_evdw>
-40.9895858764648

> <r_i_glide_ecoul>
-3.36952614784241

> <r_i_glide_erotb>
0.567766195258309

> <r_i_glide_esite>
-0.0222880067869445

> <r_i_glide_emodel>
-63.604938338732

> <r_i_glide_energy>
-44.3591120243073

> <r_i_glide_einternal>
0.927999913692474

> <i_i_glide_confnum>
40

> <i_i_glide_posenum>
98

> <r_i_glide_eff_state_penalty>
0

> <s_user_duplicate_titles>
CHEMBL5491_lig31

> <i_f3d_flags>
0

> <s_m_subgroup_title>
dock_pv

> <s_m_subgroupid>
dock_pv

> <b_m_subgroup_collapsed>
1

$$$$
CHEMBL5491_lig14
                    3D
 Schrodinger Suite 2021-1.
 38 40  0  0  1  0            999 V2000
    3.0512   52.5312   29.4848 F   0  0  0  0  0  0
    6.8792   55.4657   25.2965 O   0  0  0  0  0  0
    2.4801   50.9248   19.3289 O   0  0  0  0  0  0
    5.1370   54.2508   21.5664 N   0  0  0  0  0  0
    5.7090   54.7499   20.4521 N   0  0  0  0  0  0
    5.4084   54.3078   23.9679 N   0  0  0  0  0  0
    3.8382   52.6113   20.3948 N   0  0  0  0  0  0
    3.0755   53.5221   22.4978 N   0  0  0  0  0  0
    5.8233   54.6623   22.6979 C   0  0  0  0  0  0
    3.9679   53.4417   21.4718 C   0  0  0  0  0  0
    6.7460   55.4630   20.8400 C   0  0  0  0  0  0
    6.8780   55.4359   22.2310 C   0  0  0  0  0  0
    5.8945   54.7410   25.1452 C   0  0  0  0  0  0
    2.7330   51.8182   20.3339 C   0  0  0  0  0  0
    1.9848   52.7221   22.4211 C   0  0  0  0  0  0
    5.1314   54.2165   26.3281 C   0  0  0  0  0  0
    1.7699   51.8542   21.3497 C   0  0  0  0  0  0
    7.6116   56.1539   19.8158 C   0  0  0  0  0  0
    5.8240   53.6877   27.4212 C   0  0  0  0  0  0
    3.7285   54.2168   26.3285 C   0  0  0  0  0  0
    3.7257   53.1053   28.4625 C   0  0  0  0  0  0
    5.1167   53.1155   28.4729 C   0  0  0  0  0  0
    3.0268   53.6671   27.3985 C   0  0  0  0  0  0
    1.0108   52.8228   23.5798 C   0  0  0  0  0  0
    3.2338   50.8132   18.7345 H   0  0  0  0  0  0
    4.6161   53.6850   24.0108 H   0  0  0  0  0  0
    7.6433   55.9160   22.8233 H   0  0  0  0  0  0
    0.8954   51.2178   21.3083 H   0  0  0  0  0  0
    8.4602   56.6613   20.2717 H   0  0  0  0  0  0
    8.0211   55.4471   19.0938 H   0  0  0  0  0  0
    7.0522   56.9009   19.2509 H   0  0  0  0  0  0
    6.9052   53.6675   27.4412 H   0  0  0  0  0  0
    3.1754   54.6356   25.5004 H   0  0  0  0  0  0
    5.6468   52.6572   29.2865 H   0  0  0  0  0  0
    1.9472   53.6549   27.3974 H   0  0  0  0  0  0
    0.0901   52.2737   23.3785 H   0  0  0  0  0  0
    1.4608   52.4135   24.4845 H   0  0  0  0  0  0
    0.7472   53.8645   23.7703 H   0  0  0  0  0  0
  1 21  1  0  0  0
  2 13  2  0  0  0
  3 14  1  0  0  0
  3 25  1  0  0  0
  4  5  1  0  0  0
  4  9  1  0  0  0
  4 10  1  0  0  0
  5 11  2  0  0  0
  6  9  1  0  0  0
  6 13  1  0  0  0
  6 26  1  0  0  0
  7 10  1  0  0  0
  7 14  2  0  0  0
  8 10  2  0  0  0
  8 15  1  0  0  0
  9 12  2  0  0  0
 11 12  1  0  0  0
 11 18  1  0  0  0
 12 27  1  0  0  0
 13 16  1  0  0  0
 14 17  1  0  0  0
 15 17  2  0  0  0
 15 24  1  0  0  0
 16 19  2  0  0  0
 16 20  1  0  0  0
 17 28  1  0  0  0
 18 29  1  0  0  0
 18 30  1  0  0  0
 18 31  1  0  0  0
 19 22  1  0  0  0
 19 32  1  0  0  0
 20 23  2  0  0  0
 20 33  1  0  0  0
 21 22  2  0  0  0
 21 23  1  0  0  0
 22 34  1  0  0  0
 23 35  1  0  0  0
 24 36  1  0  0  0
 24 37  1  0  0  0
 24 38  1  0  0  0
M  END
> <s_m_entry_id>
46381

> <s_m_entry_name>
dock_pv.122

> <s_m_Source_Path>
/home/csk/Desktop/cluster/DUD-E-result/wee1

> <s_m_Source_File>
dock_pv.maegz

> <i_m_Source_File_Index>
122

> <chembl_id>
CHEMBL1714223

> <chembl_pref_name>
None

> <i_lp_mmshare_version>
53161

> <r_lp_tautomer_probability>
1

> <s_lp_Force_Field>
OPLS_2005

> <r_lp_Energy>
14.536664

> <b_lp_Chiralities_Consistent>
1

> <s_lp_Variant>
CHEMBL5491_lig14-1

> <s_i_glide_gridfile>
glide-grid_3biz

> <i_i_glide_lignum>
14

> <i_i_glide_rotatable_bonds>
5

> <r_i_docking_score>
-7.17621225194878

> <r_i_glide_ligand_efficiency>
-0.299008843831199

> <r_i_glide_ligand_efficiency_sa>
-0.862490752153644

> <r_i_glide_ligand_efficiency_ln>
-1.71759688681444

> <r_i_glide_gscore>
-7.17621225194878

> <r_i_glide_lipo>
-2.54734749611806

> <r_i_glide_hbond>
-0.374723265387181

> <r_i_glide_metal>
0

> <r_i_glide_rewards>
-2.35999005039246

> <r_i_glide_evdw>
-40.319522857666

> <r_i_glide_ecoul>
-3.85900139808655

> <r_i_glide_erotb>
0.700674912545196

> <r_i_glide_esite>
0

> <r_i_glide_emodel>
-61.7270369318877

> <r_i_glide_energy>
-44.1785242557526

> <r_i_glide_einternal>
3.8502402305603

> <i_i_glide_confnum>
14

> <i_i_glide_posenum>
309

> <r_i_glide_eff_state_penalty>
0

> <s_user_duplicate_titles>
CHEMBL5491_lig14

> <i_f3d_flags>
0

> <s_m_subgroup_title>
dock_pv

> <s_m_subgroupid>
dock_pv

> <b_m_subgroup_collapsed>
1

$$$$
CHEMBL5491_lig191
                    3D
 Schrodinger Suite 2021-1.
 68 73  0  0  1  0            999 V2000
    3.1575   52.6636   21.0073 C   0  0  0  0  0  0
    4.2901   53.4816   21.1077 C   0  0  0  0  0  0
    4.6251   54.0982   22.3218 C   0  0  0  0  0  0
    2.3111   52.4823   22.0924 C   0  0  0  0  0  0
    2.6263   53.0628   23.3312 C   0  0  0  0  0  0
    3.7974   53.8630   23.4360 C   0  0  0  0  0  0
    3.9063   54.2583   24.7682 N   0  0  0  0  0  0
    2.0309   52.9901   24.6116 C   0  0  0  0  0  0
    2.8629   53.7091   25.5104 C   0  0  0  0  0  0
    2.5764   53.7807   26.8879 C   0  0  0  0  0  0
    1.3959   53.1915   27.3761 C   0  0  0  0  0  0
    0.8768   52.3694   25.1301 C   0  0  0  0  0  0
    0.5691   52.4960   26.4675 C   0  0  0  0  0  0
   -0.7793   51.8632   26.6459 C   0  0  0  0  0  0
   -1.0852   51.3079   25.4664 N   0  0  0  0  0  0
   -0.2092   51.5712   24.4871 C   0  0  0  0  0  0
    1.0315   53.3341   28.8307 C   0  0  0  0  0  0
    1.0526   54.5633   29.5318 C   0  0  0  0  0  0
    0.5514   54.6552   30.8283 C   0  0  0  0  0  0
    0.0805   53.5336   31.4920 C   0  0  0  0  0  0
    0.0921   52.3128   30.8378 C   0  0  0  0  0  0
    0.5942   52.2064   29.5433 C   0  0  0  0  0  0
   -1.5194   51.8621   27.6254 O   0  0  0  0  0  0
   -0.3465   51.2225   23.3180 O   0  0  0  0  0  0
    2.8433   52.0048   19.8447 O   0  0  0  0  0  0
    1.6791   56.0338   28.8871 Cl  0  0  0  0  0  0
    5.1797   53.7169   19.8872 C   0  0  0  0  0  0
    4.7437   54.9221   19.0253 C   0  0  0  0  0  0
    5.5617   56.2053   19.2810 C   0  0  0  0  0  0
    6.9934   56.1229   18.7141 C   0  0  0  0  0  0
    7.7356   57.3692   18.8870 N   0  0  0  0  0  0
    7.2745   58.4523   18.0283 C   0  0  0  0  0  0
    8.4176   59.4650   18.0352 C   0  0  0  0  0  0
    9.6724   58.6238   18.2748 C   0  0  0  0  0  0
    9.1323   57.2109   18.4939 C   0  0  0  0  0  0
    4.9827   55.0759   25.3293 C   0  0  0  0  0  0
    5.9369   54.2221   26.1845 C   0  0  0  0  0  0
    6.8790   55.0628   26.8160 O   0  0  0  0  0  0
    5.5135   54.7089   22.3924 H   0  0  0  0  0  0
    1.4549   51.8458   21.9664 H   0  0  0  0  0  0
    3.2350   54.3060   27.5613 H   0  0  0  0  0  0
   -1.9298   50.7772   25.3198 H   0  0  0  0  0  0
    0.5761   55.6095   31.3244 H   0  0  0  0  0  0
   -0.3027   53.6059   32.5006 H   0  0  0  0  0  0
   -0.3208   51.4631   31.3491 H   0  0  0  0  0  0
    0.5744   51.2355   29.0683 H   0  0  0  0  0  0
    3.5688   51.9425   19.2178 H   0  0  0  0  0  0
    5.2102   52.8150   19.2737 H   0  0  0  0  0  0
    6.2049   53.8630   20.2112 H   0  0  0  0  0  0
    3.6808   55.1221   19.1683 H   0  0  0  0  0  0
    4.8365   54.6596   17.9721 H   0  0  0  0  0  0
    5.6318   56.3757   20.3546 H   0  0  0  0  0  0
    5.0312   57.0576   18.8583 H   0  0  0  0  0  0
    6.9699   55.8194   17.6665 H   0  0  0  0  0  0
    7.5314   55.3245   19.2262 H   0  0  0  0  0  0
    6.3572   58.8790   18.4367 H   0  0  0  0  0  0
    7.0206   58.1138   17.0208 H   0  0  0  0  0  0
    8.2528   60.1910   18.8290 H   0  0  0  0  0  0
    8.4584   60.0156   17.0949 H   0  0  0  0  0  0
   10.3439   58.6526   17.4164 H   0  0  0  0  0  0
   10.2293   58.9705   19.1451 H   0  0  0  0  0  0
    9.2497   56.5886   17.6040 H   0  0  0  0  0  0
    9.6680   56.6856   19.2859 H   0  0  0  0  0  0
    5.5323   55.5146   24.4971 H   0  0  0  0  0  0
    4.5065   55.8626   25.9123 H   0  0  0  0  0  0
    5.3985   53.6469   26.9381 H   0  0  0  0  0  0
    6.4272   53.4645   25.5704 H   0  0  0  0  0  0
    6.6660   55.1443   27.7545 H   0  0  0  0  0  0
  1  4  1  0  0  0
  1 25  1  0  0  0
  1  2  2  0  0  0
  2 27  1  0  0  0
  2  3  1  0  0  0
  3  6  2  0  0  0
  3 39  1  0  0  0
  4  5  2  0  0  0
  4 40  1  0  0  0
  5  6  1  0  0  0
  5  8  1  0  0  0
  6  7  1  0  0  0
  7  9  1  0  0  0
  7 36  1  0  0  0
  8  9  2  0  0  0
  8 12  1  0  0  0
  9 10  1  0  0  0
 10 11  2  0  0  0
 10 41  1  0  0  0
 11 17  1  0  0  0
 11 13  1  0  0  0
 12 13  2  0  0  0
 12 16  1  0  0  0
 13 14  1  0  0  0
 14 23  2  0  0  0
 14 15  1  0  0  0
 15 16  1  0  0  0
 15 42  1  0  0  0
 16 24  2  0  0  0
 17 18  2  0  0  0
 17 22  1  0  0  0
 18 19  1  0  0  0
 18 26  1  0  0  0
 19 20  2  0  0  0
 19 43  1  0  0  0
 20 21  1  0  0  0
 20 44  1  0  0  0
 21 22  2  0  0  0
 21 45  1  0  0  0
 22 46  1  0  0  0
 25 47  1  0  0  0
 27 28  1  0  0  0
 27 48  1  0  0  0
 27 49  1  0  0  0
 28 29  1  0  0  0
 28 50  1  0  0  0
 28 51  1  0  0  0
 29 30  1  0  0  0
 29 52  1  0  0  0
 29 53  1  0  0  0
 30 31  1  0  0  0
 30 54  1  0  0  0
 30 55  1  0  0  0
 31 32  1  0  0  0
 31 35  1  0  0  0
 32 33  1  0  0  0
 32 56  1  0  0  0
 32 57  1  0  0  0
 33 34  1  0  0  0
 33 58  1  0  0  0
 33 59  1  0  0  0
 34 35  1  0  0  0
 34 60  1  0  0  0
 34 61  1  0  0  0
 35 62  1  0  0  0
 35 63  1  0  0  0
 36 37  1  0  0  0
 36 64  1  0  0  0
 36 65  1  0  0  0
 37 38  1  0  0  0
 37 66  1  0  0  0
 37 67  1  0  0  0
 38 68  1  0  0  0
M  END
> <s_m_entry_id>
46382

> <s_m_entry_name>
dock_pv.123

> <s_m_Source_Path>
/home/csk/Desktop/cluster/DUD-E-result/wee1

> <s_m_Source_File>
dock_pv.maegz

> <i_m_Source_File_Index>
123

> <chembl_id>
CHEMBL255565

> <chembl_pref_name>
None

> <i_lp_mmshare_version>
53161

> <r_lp_tautomer_probability>
1

> <s_lp_Force_Field>
OPLS_2005

> <r_lp_Energy>
91.904599

> <b_lp_Chiralities_Consistent>
1

> <s_lp_Variant>
CHEMBL5491_lig191-1

> <s_i_glide_gridfile>
glide-grid_3biz

> <i_i_glide_lignum>
196

> <i_i_glide_rotatable_bonds>
10

> <r_i_docking_score>
-7.16359072051536

> <r_i_glide_ligand_efficiency>
-0.18851554527672

> <r_i_glide_ligand_efficiency_sa>
-0.633784626251147

> <r_i_glide_ligand_efficiency_ln>
-1.5446808908318

> <r_i_glide_gscore>
-7.16359072051536

> <r_i_glide_lipo>
-3.11875533828501

> <r_i_glide_hbond>
-0.44019141621088

> <r_i_glide_metal>
0

> <r_i_glide_rewards>
-0.377782146112191

> <r_i_glide_evdw>
-47.0455741882324

> <r_i_glide_ecoul>
-8.68129444122314

> <r_i_glide_erotb>
0.510024349749516

> <r_i_glide_esite>
-0.0824132940617073

> <r_i_glide_emodel>
-70.9069879147958

> <r_i_glide_energy>
-55.7268686294556

> <r_i_glide_einternal>
14.7879104614258

> <i_i_glide_confnum>
4

> <i_i_glide_posenum>
26

> <r_i_glide_eff_state_penalty>
0

> <s_user_duplicate_titles>
CHEMBL5491_lig191,436128

> <i_f3d_flags>
0

> <s_m_subgroup_title>
dock_pv

> <s_m_subgroupid>
dock_pv

> <b_m_subgroup_collapsed>
1

$$$$
CHEMBL5491_lig16
                    3D
 Schrodinger Suite 2021-1.
 45 47  0  0  1  0            999 V2000
    0.1273   52.7862   30.6118 C   0  0  0  0  0  0
    1.3238   53.2618   29.8090 C   0  0  0  0  0  0
    1.5844   54.6272   29.6871 C   0  0  0  0  0  0
    2.6935   55.0597   28.9627 C   0  0  0  0  0  0
    3.5550   54.1392   28.3596 C   0  0  0  0  0  0
    4.6174   54.6630   27.6432 O   0  0  0  0  0  0
    5.4774   53.8125   26.8821 C   0  0  0  0  0  0
    6.0108   54.5916   25.6669 C   0  0  0  0  0  0
    6.8718   55.4626   25.8121 O   0  0  0  0  0  0
    5.4791   54.2271   24.4841 N   0  0  0  0  0  0
    5.8447   54.6621   23.2218 C   0  0  0  0  0  0
    6.8789   55.4630   22.7604 C   0  0  0  0  0  0
    6.7562   55.4950   21.3682 C   0  0  0  0  0  0
    7.6367   56.1774   20.3527 C   0  0  0  0  0  0
    5.7121   54.7985   20.9750 N   0  0  0  0  0  0
    5.1687   54.2627   22.0829 N   0  0  0  0  0  0
    4.0380   53.4200   21.9604 C   0  0  0  0  0  0
    3.0647   53.5379   22.9018 N   0  0  0  0  0  0
    2.0250   52.6734   22.7993 C   0  0  0  0  0  0
    0.9450   52.8104   23.8525 C   0  0  0  0  0  0
    1.9485   51.7097   21.7884 C   0  0  0  0  0  0
    2.9927   51.6549   20.8592 C   0  0  0  0  0  0
    2.8781   50.6904   19.8970 O   0  0  0  0  0  0
    4.0453   52.5118   20.9444 N   0  0  0  0  0  0
    3.2953   52.7677   28.5103 C   0  0  0  0  0  0
    2.1814   52.3326   29.2232 C   0  0  0  0  0  0
   -0.7206   52.6012   29.9562 H   0  0  0  0  0  0
   -0.1560   53.5117   31.3738 H   0  0  0  0  0  0
    0.3519   51.8637   31.1455 H   0  0  0  0  0  0
    0.9351   55.3520   30.1568 H   0  0  0  0  0  0
    2.8797   56.1196   28.8869 H   0  0  0  0  0  0
    6.3152   53.4738   27.4908 H   0  0  0  0  0  0
    4.9663   52.9271   26.5082 H   0  0  0  0  0  0
    4.7220   53.5617   24.5110 H   0  0  0  0  0  0
    7.6445   55.9394   23.3536 H   0  0  0  0  0  0
    8.5337   56.6008   20.8073 H   0  0  0  0  0  0
    7.9808   55.4792   19.5884 H   0  0  0  0  0  0
    7.1078   56.9822   19.8413 H   0  0  0  0  0  0
    0.1710   52.0511   23.7349 H   0  0  0  0  0  0
    1.3712   52.7045   24.8520 H   0  0  0  0  0  0
    0.4733   53.7919   23.7827 H   0  0  0  0  0  0
    1.1175   51.0216   21.7250 H   0  0  0  0  0  0
    3.6290   50.6633   19.2879 H   0  0  0  0  0  0
    3.9449   52.0185   28.0892 H   0  0  0  0  0  0
    1.9878   51.2743   29.3145 H   0  0  0  0  0  0
  1  2  1  0  0  0
  1 27  1  0  0  0
  1 28  1  0  0  0
  1 29  1  0  0  0
  2  3  2  0  0  0
  2 26  1  0  0  0
  3  4  1  0  0  0
  3 30  1  0  0  0
  4  5  2  0  0  0
  4 31  1  0  0  0
  5  6  1  0  0  0
  5 25  1  0  0  0
  6  7  1  0  0  0
  7  8  1  0  0  0
  7 32  1  0  0  0
  7 33  1  0  0  0
  8  9  2  0  0  0
  8 10  1  0  0  0
 10 11  1  0  0  0
 10 34  1  0  0  0
 11 12  2  0  0  0
 11 16  1  0  0  0
 12 13  1  0  0  0
 12 35  1  0  0  0
 13 14  1  0  0  0
 13 15  2  0  0  0
 14 36  1  0  0  0
 14 37  1  0  0  0
 14 38  1  0  0  0
 15 16  1  0  0  0
 16 17  1  0  0  0
 17 18  2  0  0  0
 17 24  1  0  0  0
 18 19  1  0  0  0
 19 20  1  0  0  0
 19 21  2  0  0  0
 20 39  1  0  0  0
 20 40  1  0  0  0
 20 41  1  0  0  0
 21 22  1  0  0  0
 21 42  1  0  0  0
 22 23  1  0  0  0
 22 24  2  0  0  0
 23 43  1  0  0  0
 25 26  2  0  0  0
 25 44  1  0  0  0
 26 45  1  0  0  0
M  END
> <s_m_entry_id>
46383

> <s_m_entry_name>
dock_pv.124

> <s_m_Source_Path>
/home/csk/Desktop/cluster/DUD-E-result/wee1

> <s_m_Source_File>
dock_pv.maegz

> <i_m_Source_File_Index>
124

> <chembl_id>
CHEMBL592578

> <chembl_pref_name>
None

> <i_lp_mmshare_version>
53161

> <r_lp_tautomer_probability>
1

> <s_lp_Force_Field>
OPLS_2005

> <r_lp_Energy>
14.782596

> <b_lp_Chiralities_Consistent>
1

> <s_lp_Variant>
CHEMBL5491_lig16-1

> <s_i_glide_gridfile>
glide-grid_3biz

> <i_i_glide_lignum>
16

> <i_i_glide_rotatable_bonds>
7

> <r_i_docking_score>
-7.15660184123276

> <r_i_glide_ligand_efficiency>
-0.275253916970491

> <r_i_glide_ligand_efficiency_sa>
-0.815438645953215

> <r_i_glide_ligand_efficiency_ln>
-1.68070445968754

> <r_i_glide_gscore>
-7.15660184123276

> <r_i_glide_lipo>
-2.60248671892153

> <r_i_glide_hbond>
-0.456

> <r_i_glide_metal>
0

> <r_i_glide_rewards>
-1.94693189470399

> <r_i_glide_evdw>
-44.926887512207

> <r_i_glide_ecoul>
-5.48250579833984

> <r_i_glide_erotb>
0.91753701775409

> <r_i_glide_esite>
0

> <r_i_glide_emodel>
-70.1835235742852

> <r_i_glide_energy>
-50.4093933105469

> <r_i_glide_einternal>
5.97461080551147

> <i_i_glide_confnum>
20

> <i_i_glide_posenum>
219

> <r_i_glide_eff_state_penalty>
0

> <s_user_duplicate_titles>
CHEMBL5491_lig16

> <i_f3d_flags>
0

> <s_m_subgroup_title>
dock_pv

> <s_m_subgroupid>
dock_pv

> <b_m_subgroup_collapsed>
1

$$$$
CHEMBL5491_lig373
                    3D
 Schrodinger Suite 2021-1.
 43 45  0  0  1  0            999 V2000
    6.8791   55.3546   26.2187 O   0  0  0  0  0  0
    5.7200   54.6489   23.6163 N   0  0  0  0  0  0
    1.2970   53.1960   23.6712 N   0  0  0  0  0  0
    6.0865   54.2608   27.9930 N   0  0  0  0  0  0
    0.3581   50.4962   22.6172 N   0  0  0  0  0  0
    4.7473   54.3017   24.5355 C   0  0  0  0  0  0
    3.5908   53.9668   23.7722 C   0  0  0  0  0  0
    5.2502   54.6057   22.3224 C   0  0  0  0  0  0
    4.7749   54.2550   25.9415 C   0  0  0  0  0  0
    2.4292   53.5309   24.4394 C   0  0  0  0  0  0
    3.9346   54.1814   22.3943 C   0  0  0  0  0  0
    6.0792   54.9888   21.1414 C   0  0  0  0  0  0
    3.5911   53.8280   26.5627 C   0  0  0  0  0  0
    2.4594   53.4636   25.8376 C   0  0  0  0  0  0
    5.9991   54.6624   26.7252 C   0  0  0  0  0  0
    5.6362   54.6816   19.8506 C   0  0  0  0  0  0
    7.3228   55.6077   21.3108 C   0  0  0  0  0  0
    6.4362   54.9619   18.7465 C   0  0  0  0  0  0
    8.1355   55.8644   20.2101 C   0  0  0  0  0  0
    7.6916   55.5466   18.9264 C   0  0  0  0  0  0
    0.1773   52.4073   24.1872 C   0  0  0  0  0  0
    0.3528   50.8849   24.0183 C   0  0  0  0  0  0
    8.5916   55.8002   17.7309 C   0  0  0  0  0  0
    6.6621   54.9360   23.8393 H   0  0  0  0  0  0
    1.4241   53.1801   22.6695 H   0  0  0  0  0  0
    5.4091   53.6255   28.3845 H   0  0  0  0  0  0
    6.8578   54.5891   28.5587 H   0  0  0  0  0  0
    1.1753   50.8862   22.1683 H   0  0  0  0  0  0
    0.4569   49.4893   22.5514 H   0  0  0  0  0  0
    3.2842   54.0481   21.5407 H   0  0  0  0  0  0
    3.5325   53.7691   27.6395 H   0  0  0  0  0  0
    1.5953   53.1408   26.3985 H   0  0  0  0  0  0
    4.6803   54.2036   19.6953 H   0  0  0  0  0  0
    7.6839   55.8593   22.2953 H   0  0  0  0  0  0
    6.0853   54.7089   17.7550 H   0  0  0  0  0  0
    9.1141   56.3032   20.3558 H   0  0  0  0  0  0
   -0.7296   52.7319   23.6746 H   0  0  0  0  0  0
   -0.0090   52.6267   25.2376 H   0  0  0  0  0  0
   -0.4642   50.3633   24.5180 H   0  0  0  0  0  0
    1.2798   50.5505   24.4890 H   0  0  0  0  0  0
    8.4460   55.0360   16.9642 H   0  0  0  0  0  0
    8.3817   56.7783   17.2957 H   0  0  0  0  0  0
    9.6451   55.7579   18.0174 H   0  0  0  0  0  0
  1 15  2  0  0  0
  2  6  1  0  0  0
  2  8  1  0  0  0
  2 24  1  0  0  0
  3 10  1  0  0  0
  3 21  1  0  0  0
  3 25  1  0  0  0
  4 15  1  0  0  0
  4 26  1  0  0  0
  4 27  1  0  0  0
  5 22  1  0  0  0
  5 28  1  0  0  0
  5 29  1  0  0  0
  6  7  1  0  0  0
  6  9  2  0  0  0
  7 10  2  0  0  0
  7 11  1  0  0  0
  8 11  2  0  0  0
  8 12  1  0  0  0
  9 13  1  0  0  0
  9 15  1  0  0  0
 10 14  1  0  0  0
 11 30  1  0  0  0
 12 16  2  0  0  0
 12 17  1  0  0  0
 13 14  2  0  0  0
 13 31  1  0  0  0
 14 32  1  0  0  0
 16 18  1  0  0  0
 16 33  1  0  0  0
 17 19  2  0  0  0
 17 34  1  0  0  0
 18 20  2  0  0  0
 18 35  1  0  0  0
 19 20  1  0  0  0
 19 36  1  0  0  0
 20 23  1  0  0  0
 21 22  1  0  0  0
 21 37  1  0  0  0
 21 38  1  0  0  0
 22 39  1  0  0  0
 22 40  1  0  0  0
 23 41  1  0  0  0
 23 42  1  0  0  0
 23 43  1  0  0  0
M  END
> <s_m_entry_id>
46384

> <s_m_entry_name>
dock_pv.125

> <s_m_Source_Path>
/home/csk/Desktop/cluster/DUD-E-result/wee1

> <s_m_Source_File>
dock_pv.maegz

> <i_m_Source_File_Index>
125

> <chembl_id>
CHEMBL1996048

> <chembl_pref_name>
None

> <i_lp_mmshare_version>
53161

> <r_lp_tautomer_probability>
1

> <s_lp_Force_Field>
OPLS_2005

> <r_lp_Energy>
16.362312

> <b_lp_Chiralities_Consistent>
1

> <s_lp_Variant>
CHEMBL5491_lig373-1

> <s_i_glide_gridfile>
glide-grid_3biz

> <i_i_glide_lignum>
423

> <i_i_glide_rotatable_bonds>
5

> <r_i_docking_score>
-7.15021601779563

> <r_i_glide_ligand_efficiency>
-0.310878957295462

> <r_i_glide_ligand_efficiency_sa>
-0.884098400459221

> <r_i_glide_ligand_efficiency_ln>
-1.72898706767726

> <r_i_glide_gscore>
-7.15021601779563

> <r_i_glide_lipo>
-2.49439247473863

> <r_i_glide_hbond>
-0.542600834916411

> <r_i_glide_metal>
0

> <r_i_glide_rewards>
-1.70395957352291

> <r_i_glide_evdw>
-34.9440574645996

> <r_i_glide_ecoul>
-8.30464649200439

> <r_i_glide_erotb>
0.583636712412971

> <r_i_glide_esite>
0

> <r_i_glide_emodel>
-61.6209341766937

> <r_i_glide_energy>
-43.248703956604

> <r_i_glide_einternal>
0.487561881542206

> <i_i_glide_confnum>
1

> <i_i_glide_posenum>
368

> <r_i_glide_eff_state_penalty>
0

> <s_user_duplicate_titles>
CHEMBL5491_lig373

> <i_f3d_flags>
0

> <s_m_subgroup_title>
dock_pv

> <s_m_subgroupid>
dock_pv

> <b_m_subgroup_collapsed>
1

$$$$
CHEMBL5491_lig209
                    3D
 Schrodinger Suite 2021-1.
 46 50  0  0  1  0            999 V2000
    6.7162   54.9251   26.7348 O   0  0  0  0  0  0
    5.8215   54.4449   27.4274 C   0  0  0  0  0  0
    5.6790   54.6633   28.7608 O   0  0  0  0  0  0
    4.7098   53.5580   26.8676 C   0  0  0  0  0  0
    3.4327   54.3486   26.4862 C   0  0  0  0  0  0
    2.6534   53.6129   25.4870 N   0  0  0  0  0  0
    2.9494   53.5855   24.1332 C   0  0  0  0  0  0
    1.6152   52.7294   25.7518 C   0  0  0  0  0  0
    0.9993   52.3668   26.9606 C   0  0  0  0  0  0
   -0.0081   51.4027   26.9055 C   0  0  0  0  0  0
   -0.4093   50.8299   25.7026 C   0  0  0  0  0  0
   -1.3793   49.8627   25.6871 O   0  0  0  0  0  0
    0.1812   51.2057   24.5025 C   0  0  0  0  0  0
    1.2215   52.1511   24.5104 C   0  0  0  0  0  0
    2.0799   52.6598   23.5080 C   0  0  0  0  0  0
    2.2738   52.3991   22.1370 C   0  0  0  0  0  0
    1.5775   51.4790   21.1933 C   0  0  0  0  0  0
    0.5985   50.7612   21.3761 O   0  0  0  0  0  0
    3.3063   53.0120   21.4545 C   0  0  0  0  0  0
    3.2779   52.4360   20.0700 C   0  0  0  0  0  0
    4.0047   52.6633   19.1101 O   0  0  0  0  0  0
    2.2554   51.5715   20.0435 N   0  0  0  0  0  0
    4.1597   53.9611   22.0638 C   0  0  0  0  0  0
    3.9508   54.2629   23.4208 C   0  0  0  0  0  0
    5.2942   54.6626   21.3597 C   0  0  0  0  0  0
    6.4784   54.9878   22.0455 C   0  0  0  0  0  0
    7.5230   55.6539   21.4072 C   0  0  0  0  0  0
    7.4062   56.0063   20.0688 C   0  0  0  0  0  0
    6.2384   55.7232   19.3745 C   0  0  0  0  0  0
    5.1947   55.0663   20.0210 C   0  0  0  0  0  0
    6.3969   55.2293   29.0755 H   0  0  0  0  0  0
    4.4785   52.7644   27.5796 H   0  0  0  0  0  0
    5.1313   53.0633   25.9938 H   0  0  0  0  0  0
    3.6778   55.3242   26.0621 H   0  0  0  0  0  0
    2.8064   54.5368   27.3590 H   0  0  0  0  0  0
    1.3006   52.7892   27.9086 H   0  0  0  0  0  0
   -0.4851   51.0883   27.8236 H   0  0  0  0  0  0
   -1.4545   49.3929   26.5376 H   0  0  0  0  0  0
   -0.1476   50.7249   23.5984 H   0  0  0  0  0  0
    2.0295   51.0287   19.2237 H   0  0  0  0  0  0
    4.5883   54.9694   23.9310 H   0  0  0  0  0  0
    6.6153   54.7026   23.0782 H   0  0  0  0  0  0
    8.4308   55.8815   21.9441 H   0  0  0  0  0  0
    8.2211   56.5114   19.5710 H   0  0  0  0  0  0
    6.1318   56.0275   18.3433 H   0  0  0  0  0  0
    4.2714   54.9480   19.4764 H   0  0  0  0  0  0
  1  2  2  0  0  0
  2  3  1  0  0  0
  2  4  1  0  0  0
  3 31  1  0  0  0
  4  5  1  0  0  0
  4 32  1  0  0  0
  4 33  1  0  0  0
  5  6  1  0  0  0
  5 34  1  0  0  0
  5 35  1  0  0  0
  6  8  1  0  0  0
  6  7  1  0  0  0
  7 15  2  0  0  0
  7 24  1  0  0  0
  8  9  1  0  0  0
  8 14  2  0  0  0
  9 10  2  0  0  0
  9 36  1  0  0  0
 10 11  1  0  0  0
 10 37  1  0  0  0
 11 12  1  0  0  0
 11 13  2  0  0  0
 12 38  1  0  0  0
 13 14  1  0  0  0
 13 39  1  0  0  0
 14 15  1  0  0  0
 15 16  1  0  0  0
 16 17  1  0  0  0
 16 19  2  0  0  0
 17 18  2  0  0  0
 17 22  1  0  0  0
 19 23  1  0  0  0
 19 20  1  0  0  0
 20 22  1  0  0  0
 20 21  2  0  0  0
 22 40  1  0  0  0
 23 24  2  0  0  0
 23 25  1  0  0  0
 24 41  1  0  0  0
 25 26  2  0  0  0
 25 30  1  0  0  0
 26 27  1  0  0  0
 26 42  1  0  0  0
 27 28  2  0  0  0
 27 43  1  0  0  0
 28 29  1  0  0  0
 28 44  1  0  0  0
 29 30  2  0  0  0
 29 45  1  0  0  0
 30 46  1  0  0  0
M  END
> <s_m_entry_id>
46385

> <s_m_entry_name>
dock_pv.126

> <s_m_Source_Path>
/home/csk/Desktop/cluster/DUD-E-result/wee1

> <s_m_Source_File>
dock_pv.maegz

> <i_m_Source_File_Index>
126

> <chembl_id>
CHEMBL462170

> <chembl_pref_name>
None

> <i_lp_mmshare_version>
53161

> <r_lp_tautomer_probability>
1

> <s_lp_Force_Field>
OPLS_2005

> <r_lp_Energy>
69.90408

> <b_lp_Chiralities_Consistent>
1

> <s_lp_Variant>
CHEMBL5491_lig209-1

> <s_i_glide_gridfile>
glide-grid_3biz

> <i_i_glide_lignum>
219

> <i_i_glide_rotatable_bonds>
6

> <r_i_docking_score>
-7.14838726514902

> <r_i_glide_ligand_efficiency>
-0.238279575504967

> <r_i_glide_ligand_efficiency_sa>
-0.740390041674517

> <r_i_glide_ligand_efficiency_ln>
-1.62419147455944

> <r_i_glide_gscore>
-7.14838726514902

> <r_i_glide_lipo>
-2.33245462338154

> <r_i_glide_hbond>
-0.299949954112665

> <r_i_glide_metal>
0

> <r_i_glide_rewards>
-1.29532971578998

> <r_i_glide_evdw>
-38.7921600341797

> <r_i_glide_ecoul>
-11.424352645874

> <r_i_glide_erotb>
0.489155392252888

> <r_i_glide_esite>
-0.0565474655276352

> <r_i_glide_emodel>
-67.091745656601

> <r_i_glide_energy>
-50.2165126800537

> <r_i_glide_einternal>
9.14663124084473

> <i_i_glide_confnum>
30

> <i_i_glide_posenum>
194

> <r_i_glide_eff_state_penalty>
0

> <s_user_duplicate_titles>
CHEMBL5491_lig209,451518

> <i_f3d_flags>
0

> <s_m_subgroup_title>
dock_pv

> <s_m_subgroupid>
dock_pv

> <b_m_subgroup_collapsed>
1

$$$$
CHEMBL5491_lig96
                    3D
 Schrodinger Suite 2021-1.
 37 41  0  0  1  0            999 V2000
    6.4042   54.8592   23.5219 C   0  0  0  0  0  0
    6.7844   55.2696   24.7917 C   0  0  0  0  0  0
    5.9785   55.0630   25.9090 C   0  0  0  0  0  0
    5.1623   54.2622   23.3046 C   0  0  0  0  0  0
    4.3018   54.0509   24.4013 C   0  0  0  0  0  0
    4.7400   54.4506   25.6919 C   0  0  0  0  0  0
    3.7518   54.1081   26.5859 N   0  0  0  0  0  0
    3.0168   53.4630   24.5554 C   0  0  0  0  0  0
    2.6863   53.5047   25.9449 C   0  0  0  0  0  0
    1.4749   52.9956   26.4635 C   0  0  0  0  0  0
    0.6203   52.3707   25.5380 C   0  0  0  0  0  0
    2.0870   52.8664   23.6807 C   0  0  0  0  0  0
    0.9252   52.3439   24.1801 C   0  0  0  0  0  0
    0.1440   51.8158   23.0327 C   0  0  0  0  0  0
    0.9203   52.0162   21.9511 N   0  0  0  0  0  0
    2.0978   52.6135   22.2144 C   0  0  0  0  0  0
   -0.9738   51.3080   23.0359 O   0  0  0  0  0  0
    2.9705   52.8656   21.3900 O   0  0  0  0  0  0
    7.2764   55.0592   22.4860 O   0  0  0  0  0  0
    1.0989   53.1434   27.9037 C   0  0  0  0  0  0
    1.3812   54.3317   28.5935 C   0  0  0  0  0  0
    1.0617   54.4707   29.9407 C   0  0  0  0  0  0
    0.4248   53.4296   30.6056 C   0  0  0  0  0  0
    0.0898   52.2628   29.9269 C   0  0  0  0  0  0
    0.4378   52.1135   28.5854 C   0  0  0  0  0  0
    7.7352   55.7639   24.8915 H   0  0  0  0  0  0
    6.2977   55.3716   26.8948 H   0  0  0  0  0  0
    4.8918   53.9632   22.3056 H   0  0  0  0  0  0
    3.8049   54.2525   27.5831 H   0  0  0  0  0  0
   -0.3188   51.9577   25.8798 H   0  0  0  0  0  0
    0.6509   51.7357   21.0217 H   0  0  0  0  0  0
    8.1951   55.0689   22.8088 H   0  0  0  0  0  0
    1.8535   55.1633   28.0910 H   0  0  0  0  0  0
    1.3090   55.3798   30.4691 H   0  0  0  0  0  0
    0.1767   53.5282   31.6537 H   0  0  0  0  0  0
   -0.4290   51.4677   30.4434 H   0  0  0  0  0  0
    0.1911   51.1888   28.0834 H   0  0  0  0  0  0
  1  2  2  0  0  0
  1 19  1  0  0  0
  1  4  1  0  0  0
  2  3  1  0  0  0
  2 26  1  0  0  0
  3  6  2  0  0  0
  3 27  1  0  0  0
  4  5  2  0  0  0
  4 28  1  0  0  0
  5  8  1  0  0  0
  5  6  1  0  0  0
  6  7  1  0  0  0
  7  9  1  0  0  0
  7 29  1  0  0  0
  8 12  1  0  0  0
  8  9  2  0  0  0
  9 10  1  0  0  0
 10 11  2  0  0  0
 10 20  1  0  0  0
 11 13  1  0  0  0
 11 30  1  0  0  0
 12 13  2  0  0  0
 12 16  1  0  0  0
 13 14  1  0  0  0
 14 15  1  0  0  0
 14 17  2  0  0  0
 15 16  1  0  0  0
 15 31  1  0  0  0
 16 18  2  0  0  0
 19 32  1  0  0  0
 20 21  2  0  0  0
 20 25  1  0  0  0
 21 22  1  0  0  0
 21 33  1  0  0  0
 22 23  2  0  0  0
 22 34  1  0  0  0
 23 24  1  0  0  0
 23 35  1  0  0  0
 24 25  2  0  0  0
 24 36  1  0  0  0
 25 37  1  0  0  0
M  END
> <s_m_entry_id>
46386

> <s_m_entry_name>
dock_pv.127

> <s_m_Source_Path>
/home/csk/Desktop/cluster/DUD-E-result/wee1

> <s_m_Source_File>
dock_pv.maegz

> <i_m_Source_File_Index>
127

> <chembl_id>
CHEMBL387078

> <chembl_pref_name>
None

> <i_lp_mmshare_version>
53161

> <r_lp_tautomer_probability>
1

> <s_lp_Force_Field>
OPLS_2005

> <r_lp_Energy>
67.139124

> <b_lp_Chiralities_Consistent>
1

> <s_lp_Variant>
CHEMBL5491_lig96-1

> <s_i_glide_gridfile>
glide-grid_3biz

> <i_i_glide_lignum>
96

> <i_i_glide_rotatable_bonds>
2

> <r_i_docking_score>
-7.14375861519094

> <r_i_glide_ligand_efficiency>
-0.285750344607637

> <r_i_glide_ligand_efficiency_sa>
-0.835539075436672

> <r_i_glide_ligand_efficiency_ln>
-1.69328487297066

> <r_i_glide_gscore>
-7.14375861519094

> <r_i_glide_lipo>
-3.00916706639559

> <r_i_glide_hbond>
-0.32

> <r_i_glide_metal>
0

> <r_i_glide_rewards>
-1.32381126460596

> <r_i_glide_evdw>
-34.950927734375

> <r_i_glide_ecoul>
-6.11636018753052

> <r_i_glide_erotb>
0.174220130658945

> <r_i_glide_esite>
0

> <r_i_glide_emodel>
-56.9752633377088

> <r_i_glide_energy>
-41.0672879219055

> <r_i_glide_einternal>
2.38356614112854

> <i_i_glide_confnum>
4

> <i_i_glide_posenum>
361

> <r_i_glide_eff_state_penalty>
0

> <s_user_duplicate_titles>
CHEMBL5491_lig96

> <i_f3d_flags>
0

> <s_m_subgroup_title>
dock_pv

> <s_m_subgroupid>
dock_pv

> <b_m_subgroup_collapsed>
1

$$$$
CHEMBL5491_lig248
                    3D
 Schrodinger Suite 2021-1.
 47 51  0  0  1  0            999 V2000
   -0.5912   50.4952   25.6891 C   0  0  0  0  0  0
   -0.3166   51.1450   26.8863 C   0  0  0  0  0  0
    0.6130   52.1765   26.9623 C   0  0  0  0  0  0
    0.0501   50.8550   24.5094 C   0  0  0  0  0  0
    1.0151   51.8770   24.5409 C   0  0  0  0  0  0
    1.2790   52.5270   25.7799 C   0  0  0  0  0  0
    2.2694   53.4657   25.5580 N   0  0  0  0  0  0
   -1.4842   49.4630   25.6870 O   0  0  0  0  0  0
    1.8885   52.4274   23.5740 C   0  0  0  0  0  0
    2.6290   53.4565   24.2148 C   0  0  0  0  0  0
    3.5727   54.2253   23.5195 C   0  0  0  0  0  0
    3.9082   53.8773   22.1984 C   0  0  0  0  0  0
    5.0635   54.5894   21.5396 C   0  0  0  0  0  0
    6.2851   54.8344   22.2083 C   0  0  0  0  0  0
    7.3129   55.5347   21.5719 C   0  0  0  0  0  0
    7.1789   55.9706   20.2595 C   0  0  0  0  0  0
    5.9923   55.7340   19.5814 C   0  0  0  0  0  0
    4.9538   55.0630   20.2216 C   0  0  0  0  0  0
    2.1720   52.1559   22.2195 C   0  0  0  0  0  0
    3.1638   52.8581   21.5672 C   0  0  0  0  0  0
    3.2149   52.3101   20.1738 C   0  0  0  0  0  0
    2.3102   51.3215   20.1291 N   0  0  0  0  0  0
    1.6216   51.1490   21.2667 C   0  0  0  0  0  0
    3.9025   52.6629   19.2214 O   0  0  0  0  0  0
    0.7357   50.3163   21.4336 O   0  0  0  0  0  0
    2.8791   54.2973   26.6017 C   0  0  0  0  0  0
    4.0020   53.5717   27.3901 C   0  0  0  0  0  0
    3.6181   53.2351   28.8352 C   0  0  0  0  0  0
    3.5479   54.2545   29.6870 N   0  0  0  0  0  0
    3.3787   52.0839   29.1866 O   0  0  0  0  0  0
    6.6047   54.2630   23.8135 Cl  0  0  0  0  0  0
   -0.8255   50.8317   27.7869 H   0  0  0  0  0  0
    0.8213   52.6564   27.9071 H   0  0  0  0  0  0
   -0.1823   50.3143   23.6088 H   0  0  0  0  0  0
   -1.5210   49.0456   26.5736 H   0  0  0  0  0  0
    4.0990   55.0212   24.0222 H   0  0  0  0  0  0
    8.2389   55.7304   22.0869 H   0  0  0  0  0  0
    7.9908   56.4889   19.7702 H   0  0  0  0  0  0
    5.8651   56.0842   18.5671 H   0  0  0  0  0  0
    4.0210   54.9720   19.6870 H   0  0  0  0  0  0
    2.1665   50.7613   19.3030 H   0  0  0  0  0  0
    3.2878   55.1902   26.1318 H   0  0  0  0  0  0
    2.0827   54.6616   27.2560 H   0  0  0  0  0  0
    4.3190   52.6630   26.8837 H   0  0  0  0  0  0
    4.8974   54.1942   27.4142 H   0  0  0  0  0  0
    3.2790   54.0874   30.6494 H   0  0  0  0  0  0
    3.7648   55.1920   29.3892 H   0  0  0  0  0  0
  1  2  2  0  0  0
  1  8  1  0  0  0
  1  4  1  0  0  0
  2  3  1  0  0  0
  2 32  1  0  0  0
  3  6  2  0  0  0
  3 33  1  0  0  0
  4  5  2  0  0  0
  4 34  1  0  0  0
  5  9  1  0  0  0
  5  6  1  0  0  0
  6  7  1  0  0  0
  7 10  1  0  0  0
  7 26  1  0  0  0
  8 35  1  0  0  0
  9 10  2  0  0  0
  9 19  1  0  0  0
 10 11  1  0  0  0
 11 12  2  0  0  0
 11 36  1  0  0  0
 12 13  1  0  0  0
 12 20  1  0  0  0
 13 18  1  0  0  0
 13 14  2  0  0  0
 14 15  1  0  0  0
 14 31  1  0  0  0
 15 16  2  0  0  0
 15 37  1  0  0  0
 16 17  1  0  0  0
 16 38  1  0  0  0
 17 18  2  0  0  0
 17 39  1  0  0  0
 18 40  1  0  0  0
 19 20  2  0  0  0
 19 23  1  0  0  0
 20 21  1  0  0  0
 21 22  1  0  0  0
 21 24  2  0  0  0
 22 23  1  0  0  0
 22 41  1  0  0  0
 23 25  2  0  0  0
 26 27  1  0  0  0
 26 42  1  0  0  0
 26 43  1  0  0  0
 27 28  1  0  0  0
 27 44  1  0  0  0
 27 45  1  0  0  0
 28 29  1  0  0  0
 28 30  2  0  0  0
 29 46  1  0  0  0
 29 47  1  0  0  0
M  END
> <s_m_entry_id>
46387

> <s_m_entry_name>
dock_pv.128

> <s_m_Source_Path>
/home/csk/Desktop/cluster/DUD-E-result/wee1

> <s_m_Source_File>
dock_pv.maegz

> <i_m_Source_File_Index>
128

> <chembl_id>
CHEMBL472542

> <chembl_pref_name>
None

> <i_lp_mmshare_version>
53161

> <r_lp_tautomer_probability>
1

> <s_lp_Force_Field>
OPLS_2005

> <r_lp_Energy>
65.193054

> <b_lp_Chiralities_Consistent>
1

> <s_lp_Variant>
CHEMBL5491_lig248-1

> <s_i_glide_gridfile>
glide-grid_3biz

> <i_i_glide_lignum>
261

> <i_i_glide_rotatable_bonds>
5

> <r_i_docking_score>
-7.13592848156669

> <r_i_glide_ligand_efficiency>
-0.230191241340861

> <r_i_glide_ligand_efficiency_sa>
-0.723118311070412

> <r_i_glide_ligand_efficiency_ln>
-1.60937056253758

> <r_i_glide_gscore>
-7.13592848156669

> <r_i_glide_lipo>
-2.56505817635555

> <r_i_glide_hbond>
-0.398676965048868

> <r_i_glide_metal>
0

> <r_i_glide_rewards>
-1.09764027926844

> <r_i_glide_evdw>
-37.9668922424316

> <r_i_glide_ecoul>
-9.56500148773193

> <r_i_glide_erotb>
0.317351249240305

> <r_i_glide_esite>
-0.0588094748527666

> <r_i_glide_emodel>
-62.5771237063947

> <r_i_glide_energy>
-47.5318937301636

> <r_i_glide_einternal>
10.3540000915527

> <i_i_glide_confnum>
9

> <i_i_glide_posenum>
13

> <r_i_glide_eff_state_penalty>
0

> <s_user_duplicate_titles>
CHEMBL5491_lig248,451844

> <i_f3d_flags>
0

> <s_m_subgroup_title>
dock_pv

> <s_m_subgroupid>
dock_pv

> <b_m_subgroup_collapsed>
1

$$$$
CHEMBL5491_lig112
                    3D
 Schrodinger Suite 2021-1.
 41 45  0  0  1  0            999 V2000
    5.8493   54.8491   21.6870 C   0  0  0  0  0  0
    6.8790   55.4150   22.4298 C   0  0  0  0  0  0
    6.8739   55.4108   23.8252 C   0  0  0  0  0  0
    4.7589   54.2577   22.3155 C   0  0  0  0  0  0
    4.6923   54.2630   23.7216 C   0  0  0  0  0  0
    5.7690   54.8352   24.4559 C   0  0  0  0  0  0
    5.4641   54.7262   25.7939 N   0  0  0  0  0  0
    3.7150   53.8630   24.6576 C   0  0  0  0  0  0
    4.2104   54.1796   25.9487 C   0  0  0  0  0  0
    3.4796   53.9361   27.1125 C   0  0  0  0  0  0
    2.1834   53.4135   26.9980 C   0  0  0  0  0  0
    2.4535   53.2525   24.5683 C   0  0  0  0  0  0
    1.7150   53.0287   25.7104 C   0  0  0  0  0  0
    0.4592   52.3366   25.2438 C   0  0  0  0  0  0
    0.5679   52.2118   23.9148 N   0  0  0  0  0  0
    1.6897   52.7256   23.4016 C   0  0  0  0  0  0
   -0.5264   51.9714   25.8782 O   0  0  0  0  0  0
    1.9791   52.7182   22.2106 O   0  0  0  0  0  0
    5.8990   54.8832   20.3197 O   0  0  0  0  0  0
    1.4035   53.1874   28.2649 C   0  0  0  0  0  0
    1.2119   54.1143   29.3504 C   0  0  0  0  0  0
    0.4790   53.6882   30.4695 C   0  0  0  0  0  0
   -0.1318   52.4502   30.4870 C   0  0  0  0  0  0
   -0.0133   51.5973   29.4153 C   0  0  0  0  0  0
    0.8346   51.9156   28.3813 C   0  0  0  0  0  0
    1.6972   55.5540   29.3576 C   0  0  0  0  0  0
    2.0790   56.1073   28.3551 O   0  0  0  0  0  0
    1.6790   56.2630   30.4870 N   0  0  0  0  0  0
    7.7209   55.8631   21.9227 H   0  0  0  0  0  0
    7.6790   55.8630   24.3843 H   0  0  0  0  0  0
    3.9697   53.8543   21.7047 H   0  0  0  0  0  0
    6.0500   55.0401   26.5536 H   0  0  0  0  0  0
    3.8920   54.1773   28.0813 H   0  0  0  0  0  0
   -0.1391   51.7703   23.3493 H   0  0  0  0  0  0
    6.7007   55.2790   19.9723 H   0  0  0  0  0  0
    0.3180   54.3223   31.3298 H   0  0  0  0  0  0
   -0.7210   52.1467   31.3243 H   0  0  0  0  0  0
   -0.5398   50.6630   29.4214 H   0  0  0  0  0  0
    0.9936   51.1579   27.6288 H   0  0  0  0  0  0
    1.9783   57.2273   30.4524 H   0  0  0  0  0  0
    1.6960   55.7750   31.3759 H   0  0  0  0  0  0
  1  2  2  0  0  0
  1 19  1  0  0  0
  1  4  1  0  0  0
  2  3  1  0  0  0
  2 29  1  0  0  0
  3  6  2  0  0  0
  3 30  1  0  0  0
  4  5  2  0  0  0
  4 31  1  0  0  0
  5  8  1  0  0  0
  5  6  1  0  0  0
  6  7  1  0  0  0
  7  9  1  0  0  0
  7 32  1  0  0  0
  8  9  2  0  0  0
  8 12  1  0  0  0
  9 10  1  0  0  0
 10 11  2  0  0  0
 10 33  1  0  0  0
 11 13  1  0  0  0
 11 20  1  0  0  0
 12 16  1  0  0  0
 12 13  2  0  0  0
 13 14  1  0  0  0
 14 15  1  0  0  0
 14 17  2  0  0  0
 15 16  1  0  0  0
 15 34  1  0  0  0
 16 18  2  0  0  0
 19 35  1  0  0  0
 20 21  2  0  0  0
 20 25  1  0  0  0
 21 22  1  0  0  0
 21 26  1  0  0  0
 22 23  2  0  0  0
 22 36  1  0  0  0
 23 24  1  0  0  0
 23 37  1  0  0  0
 24 25  2  0  0  0
 24 38  1  0  0  0
 25 39  1  0  0  0
 26 27  2  0  0  0
 26 28  1  0  0  0
 28 40  1  0  0  0
 28 41  1  0  0  0
M  END
> <s_m_entry_id>
46388

> <s_m_entry_name>
dock_pv.129

> <s_m_Source_Path>
/home/csk/Desktop/cluster/DUD-E-result/wee1

> <s_m_Source_File>
dock_pv.maegz

> <i_m_Source_File_Index>
129

> <chembl_id>
CHEMBL384103

> <chembl_pref_name>
None

> <i_lp_mmshare_version>
53161

> <r_lp_tautomer_probability>
1

> <s_lp_Force_Field>
OPLS_2005

> <r_lp_Energy>
69.166397

> <b_lp_Chiralities_Consistent>
1

> <s_lp_Variant>
CHEMBL5491_lig112-1

> <s_i_glide_gridfile>
glide-grid_3biz

> <i_i_glide_lignum>
113

> <i_i_glide_rotatable_bonds>
3

> <r_i_docking_score>
-7.13215851701106

> <r_i_glide_ligand_efficiency>
-0.254719947036109

> <r_i_glide_ligand_efficiency_sa>
-0.773479781227471

> <r_i_glide_ligand_efficiency_ln>
-1.64631159499961

> <r_i_glide_gscore>
-7.13215851701106

> <r_i_glide_lipo>
-2.83037486294855

> <r_i_glide_hbond>
-0.442596659787843

> <r_i_glide_metal>
0

> <r_i_glide_rewards>
-1.54252105026867

> <r_i_glide_evdw>
-33.5482177734375

> <r_i_glide_ecoul>
-5.19486236572266

> <r_i_glide_erotb>
0.139974299524279

> <r_i_glide_esite>
0

> <r_i_glide_emodel>
-53.3685554406733

> <r_i_glide_energy>
-38.7430801391602

> <r_i_glide_einternal>
3.5505588054657

> <i_i_glide_confnum>
4

> <i_i_glide_posenum>
291

> <r_i_glide_eff_state_penalty>
0

> <s_user_duplicate_titles>
CHEMBL5491_lig112,355771

> <i_f3d_flags>
0

> <s_m_subgroup_title>
dock_pv

> <s_m_subgroupid>
dock_pv

> <b_m_subgroup_collapsed>
1

$$$$
CHEMBL5491_lig255
                    3D
 Schrodinger Suite 2021-1.
 44 48  0  0  1  0            999 V2000
   -1.0766   51.6312   29.0417 C   0  0  0  0  0  0
   -0.3210   52.1546   30.0870 C   0  0  0  0  0  0
    0.8628   52.8436   29.8673 C   0  0  0  0  0  0
   -0.6282   51.7092   27.7325 C   0  0  0  0  0  0
    0.5588   52.4052   27.4602 C   0  0  0  0  0  0
    1.2663   53.0040   28.5364 C   0  0  0  0  0  0
    2.3159   53.7267   28.0012 N   0  0  0  0  0  0
   -2.2971   51.0630   29.2870 O   0  0  0  0  0  0
    1.2791   52.6630   26.2797 C   0  0  0  0  0  0
    2.3691   53.5051   26.6272 C   0  0  0  0  0  0
    3.2709   53.9699   25.6584 C   0  0  0  0  0  0
    3.1406   53.5237   24.3307 C   0  0  0  0  0  0
    4.1706   53.9767   23.3392 C   0  0  0  0  0  0
    5.5101   54.1551   23.7221 C   0  0  0  0  0  0
    6.4541   54.6289   22.8170 C   0  0  0  0  0  0
    6.0791   54.8835   21.5022 C   0  0  0  0  0  0
    4.7755   54.6630   21.0878 C   0  0  0  0  0  0
    3.8234   54.2632   22.0159 C   0  0  0  0  0  0
    1.1418   52.2630   24.9373 C   0  0  0  0  0  0
    2.0790   52.6500   24.0066 C   0  0  0  0  0  0
    1.7507   51.8860   22.7559 C   0  0  0  0  0  0
    0.5989   51.2474   23.0024 N   0  0  0  0  0  0
    0.1416   51.3948   24.2515 C   0  0  0  0  0  0
    2.3714   51.7941   21.7015 O   0  0  0  0  0  0
   -0.8854   50.8822   24.6825 O   0  0  0  0  0  0
    3.1969   54.5962   28.7888 C   0  0  0  0  0  0
    2.5293   55.9436   29.1566 C   0  0  0  0  0  0
    1.4741   55.8247   30.0870 O   0  0  0  0  0  0
   -0.6876   52.0512   31.0982 H   0  0  0  0  0  0
    1.4109   53.2683   30.6956 H   0  0  0  0  0  0
   -1.2226   51.2593   26.9576 H   0  0  0  0  0  0
   -2.2946   50.1074   29.1243 H   0  0  0  0  0  0
    4.0722   54.6380   25.9334 H   0  0  0  0  0  0
    5.8309   53.9313   24.7288 H   0  0  0  0  0  0
    7.4759   54.7770   23.1242 H   0  0  0  0  0  0
    6.8147   55.2320   20.7921 H   0  0  0  0  0  0
    4.4851   54.8576   20.0653 H   0  0  0  0  0  0
    2.8001   54.1923   21.6870 H   0  0  0  0  0  0
    0.1425   50.6645   22.3192 H   0  0  0  0  0  0
    3.5928   54.0745   29.6611 H   0  0  0  0  0  0
    4.0688   54.8066   28.1711 H   0  0  0  0  0  0
    3.2638   56.6630   29.5123 H   0  0  0  0  0  0
    2.0790   56.3775   28.2632 H   0  0  0  0  0  0
    1.8394   55.5777   30.9477 H   0  0  0  0  0  0
  1  2  2  0  0  0
  1  8  1  0  0  0
  1  4  1  0  0  0
  2  3  1  0  0  0
  2 29  1  0  0  0
  3  6  2  0  0  0
  3 30  1  0  0  0
  4  5  2  0  0  0
  4 31  1  0  0  0
  5  9  1  0  0  0
  5  6  1  0  0  0
  6  7  1  0  0  0
  7 10  1  0  0  0
  7 26  1  0  0  0
  8 32  1  0  0  0
  9 10  2  0  0  0
  9 19  1  0  0  0
 10 11  1  0  0  0
 11 12  2  0  0  0
 11 33  1  0  0  0
 12 13  1  0  0  0
 12 20  1  0  0  0
 13 14  2  0  0  0
 13 18  1  0  0  0
 14 15  1  0  0  0
 14 34  1  0  0  0
 15 16  2  0  0  0
 15 35  1  0  0  0
 16 17  1  0  0  0
 16 36  1  0  0  0
 17 18  2  0  0  0
 17 37  1  0  0  0
 18 38  1  0  0  0
 19 20  2  0  0  0
 19 23  1  0  0  0
 20 21  1  0  0  0
 21 22  1  0  0  0
 21 24  2  0  0  0
 22 23  1  0  0  0
 22 39  1  0  0  0
 23 25  2  0  0  0
 26 27  1  0  0  0
 26 40  1  0  0  0
 26 41  1  0  0  0
 27 28  1  0  0  0
 27 42  1  0  0  0
 27 43  1  0  0  0
 28 44  1  0  0  0
M  END
> <s_m_entry_id>
46389

> <s_m_entry_name>
dock_pv.130

> <s_m_Source_Path>
/home/csk/Desktop/cluster/DUD-E-result/wee1

> <s_m_Source_File>
dock_pv.maegz

> <i_m_Source_File_Index>
130

> <chembl_id>
CHEMBL471156

> <chembl_pref_name>
None

> <i_lp_mmshare_version>
53161

> <r_lp_tautomer_probability>
1

> <s_lp_Force_Field>
OPLS_2005

> <r_lp_Energy>
68.152843

> <b_lp_Chiralities_Consistent>
1

> <s_lp_Variant>
CHEMBL5491_lig255-1

> <s_i_glide_gridfile>
glide-grid_3biz

> <i_i_glide_lignum>
268

> <i_i_glide_rotatable_bonds>
5

> <r_i_docking_score>
-7.1161666286361

> <r_i_glide_ligand_efficiency>
-0.254148808165575

> <r_i_glide_ligand_efficiency_sa>
-0.771745467233724

> <r_i_glide_ligand_efficiency_ln>
-1.64262019762043

> <r_i_glide_gscore>
-7.1161666286361

> <r_i_glide_lipo>
-2.88015365663185

> <r_i_glide_hbond>
-0.449145862382831

> <r_i_glide_metal>
0

> <r_i_glide_rewards>
-1.29204239280052

> <r_i_glide_evdw>
-33.6233749389648

> <r_i_glide_ecoul>
-8.1800365447998

> <r_i_glide_erotb>
0.417852660389636

> <r_i_glide_esite>
-0.00450314854232558

> <r_i_glide_emodel>
-57.2818559419318

> <r_i_glide_energy>
-41.8034114837646

> <r_i_glide_einternal>
5.91524028778076

> <i_i_glide_confnum>
3

> <i_i_glide_posenum>
338

> <r_i_glide_eff_state_penalty>
0

> <s_user_duplicate_titles>
CHEMBL5491_lig255,451708

> <i_f3d_flags>
0

> <s_m_subgroup_title>
dock_pv

> <s_m_subgroupid>
dock_pv

> <b_m_subgroup_collapsed>
1

$$$$
CHEMBL5491_lig80
                    3D
 Schrodinger Suite 2021-1.
 52 55  0  0  1  0            999 V2000
    4.6738   54.2664   26.1400 N   0  0  0  0  0  0
    2.7482   53.7684   27.4777 C   0  0  0  0  0  0
    3.9348   54.0064   24.9439 C   0  0  0  0  0  0
    4.1764   54.1170   27.4157 C   0  0  0  0  0  0
    4.5298   54.1741   23.7284 N   0  0  0  0  0  0
    2.6117   53.5577   25.0455 C   0  0  0  0  0  0
    2.0276   53.4623   26.3763 C   0  0  0  0  0  0
    2.0289   53.8010   28.7714 C   0  0  0  0  0  0
    3.7880   53.8655   22.6309 C   0  0  0  0  0  0
    2.5147   53.3982   22.6546 N   0  0  0  0  0  0
    9.2776   58.9518   17.6982 C   0  0  0  0  0  0
    1.9317   53.2542   23.8689 C   0  0  0  0  0  0
    4.3029   54.0407   21.3450 N   0  0  0  0  0  0
    4.8531   54.2609   28.4380 O   0  0  0  0  0  0
    8.1415   57.9468   18.0592 C   0  0  1  0  0  0
    1.6454   52.6121   29.4192 C   0  0  0  0  0  0
    1.6432   55.0283   29.3386 C   0  0  0  0  0  0
   10.4334   58.5751   17.5169 O   0  0  0  0  0  0
    8.6980   56.7376   18.8843 C   0  0  0  0  0  0
    6.0868   54.6740   25.9914 C   0  0  0  0  0  0
    5.4517   54.6434   20.8104 C   0  0  0  0  0  0
    7.5987   55.9254   19.5659 C   0  0  0  0  0  0
    7.0302   58.6631   18.7367 N   0  0  0  0  0  0
    8.8786   60.2588   17.5921 O   0  0  0  0  0  0
    2.0795   51.0631   28.7838 Cl  0  0  0  0  0  0
    2.0790   56.5487   28.6641 Cl  0  0  0  0  0  0
    5.5527   54.6582   19.4187 C   0  0  0  0  0  0
    6.4598   55.2360   21.5812 C   0  0  0  0  0  0
    6.6203   55.2952   18.7959 C   0  0  0  0  0  0
    7.5351   55.8627   20.9597 C   0  0  0  0  0  0
    0.4788   53.8836   31.1127 C   0  0  0  0  0  0
    0.8783   52.6644   30.5847 C   0  0  0  0  0  0
    0.8702   55.0615   30.4872 C   0  0  0  0  0  0
    0.9792   53.2142   26.4789 H   0  0  0  0  0  0
    0.9120   52.8970   23.8799 H   0  0  0  0  0  0
    3.6213   53.7832   20.6469 H   0  0  0  0  0  0
    7.7721   57.5458   17.1141 H   0  0  0  0  0  0
    9.2672   56.0723   18.2327 H   0  0  0  0  0  0
    9.4083   57.0638   19.6460 H   0  0  0  0  0  0
    6.6021   54.8488   26.9374 H   0  0  0  0  0  0
    6.6414   53.9036   25.4541 H   0  0  0  0  0  0
    6.1498   55.5957   25.4116 H   0  0  0  0  0  0
    7.3603   59.3475   19.3989 H   0  0  0  0  0  0
    6.4375   59.1754   18.0894 H   0  0  0  0  0  0
    7.9256   60.3947   17.6849 H   0  0  0  0  0  0
    4.7889   54.1979   18.8080 H   0  0  0  0  0  0
    6.4335   55.2344   22.6575 H   0  0  0  0  0  0
    6.6634   55.3302   17.7170 H   0  0  0  0  0  0
    8.3015   56.3166   21.5705 H   0  0  0  0  0  0
   -0.1055   53.9121   32.0213 H   0  0  0  0  0  0
    0.5729   51.7708   31.0966 H   0  0  0  0  0  0
    0.5833   56.0128   30.9099 H   0  0  0  0  0  0
  1  3  1  0  0  0
  1  4  1  0  0  0
  1 20  1  0  0  0
  2  4  1  0  0  0
  2  7  2  0  0  0
  2  8  1  0  0  0
  3  5  2  0  0  0
  3  6  1  0  0  0
  4 14  2  0  0  0
  5  9  1  0  0  0
  6 12  2  0  0  0
  6  7  1  0  0  0
  7 34  1  0  0  0
  8 16  2  0  0  0
  8 17  1  0  0  0
  9 13  1  0  0  0
  9 10  2  0  0  0
 10 12  1  0  0  0
 11 15  1  0  0  0
 11 18  2  0  0  0
 11 24  1  0  0  0
 12 35  1  0  0  0
 13 21  1  0  0  0
 13 36  1  0  0  0
 15 19  1  0  0  0
 15 23  1  0  0  0
 15 37  1  0  0  0
 16 25  1  0  0  0
 16 32  1  0  0  0
 17 26  1  0  0  0
 17 33  2  0  0  0
 19 22  1  0  0  0
 19 38  1  0  0  0
 19 39  1  0  0  0
 20 40  1  0  0  0
 20 41  1  0  0  0
 20 42  1  0  0  0
 21 27  1  0  0  0
 21 28  2  0  0  0
 22 30  2  0  0  0
 22 29  1  0  0  0
 23 43  1  0  0  0
 23 44  1  0  0  0
 24 45  1  0  0  0
 27 29  2  0  0  0
 27 46  1  0  0  0
 28 30  1  0  0  0
 28 47  1  0  0  0
 29 48  1  0  0  0
 30 49  1  0  0  0
 31 33  1  0  0  0
 31 32  2  0  0  0
 31 50  1  0  0  0
 32 51  1  0  0  0
 33 52  1  0  0  0
M  END
> <s_m_entry_id>
46390

> <s_m_entry_name>
dock_pv.131

> <s_m_Source_Path>
/home/csk/Desktop/cluster/DUD-E-result/wee1

> <s_m_Source_File>
dock_pv.maegz

> <i_m_Source_File_Index>
131

> <chembl_id>
CHEMBL435732

> <chembl_pref_name>
None

> <i_lp_mmshare_version>
53161

> <r_lp_tautomer_probability>
1

> <s_lp_Force_Field>
OPLS_2005

> <r_lp_Energy>
32.51683

> <b_lp_Chiralities_Consistent>
1

> <s_lp_Variant>
CHEMBL5491_lig80-2

> <s_i_glide_gridfile>
glide-grid_3biz

> <i_i_glide_lignum>
79

> <i_i_glide_rotatable_bonds>
7

> <r_i_docking_score>
-7.10446333320099

> <r_i_glide_ligand_efficiency>
-0.215286767672757

> <r_i_glide_ligand_efficiency_sa>
-0.690539697299379

> <r_i_glide_ligand_efficiency_ln>
-1.57999586036145

> <r_i_glide_gscore>
-7.10446333320099

> <r_i_glide_lipo>
-3.17863454892931

> <r_i_glide_hbond>
-0.0718857711275903

> <r_i_glide_metal>
0

> <r_i_glide_rewards>
-1.04949791452913

> <r_i_glide_evdw>
-48.3213272094727

> <r_i_glide_ecoul>
-5.92973566055298

> <r_i_glide_erotb>
0.519410975263592

> <r_i_glide_esite>
-0.0183293643219719

> <r_i_glide_emodel>
-72.8102638173647

> <r_i_glide_energy>
-54.2510628700256

> <r_i_glide_einternal>
9.0601978302002

> <i_i_glide_confnum>
1

> <i_i_glide_posenum>
25

> <r_i_glide_eff_state_penalty>
0

> <s_user_duplicate_titles>
CHEMBL5491_lig80

> <i_f3d_flags>
0

> <s_m_subgroup_title>
dock_pv

> <s_m_subgroupid>
dock_pv

> <b_m_subgroup_collapsed>
1

$$$$
CHEMBL5491_lig232
                    3D
 Schrodinger Suite 2021-1.
 51 55  0  0  1  0            999 V2000
    4.9628   54.1113   20.5686 C   0  0  0  0  0  0
    6.0790   54.6631   21.1814 C   0  0  0  0  0  0
    6.2057   54.7261   22.5682 C   0  0  0  0  0  0
    3.8978   53.6343   21.3257 C   0  0  0  0  0  0
    3.9418   53.7613   22.7266 C   0  0  0  0  0  0
    5.1121   54.2972   23.3351 C   0  0  0  0  0  0
    4.8903   54.3590   24.7056 N   0  0  0  0  0  0
    3.0262   53.4630   23.7560 C   0  0  0  0  0  0
    3.6137   53.8961   24.9700 C   0  0  0  0  0  0
    2.9227   53.8433   26.1770 C   0  0  0  0  0  0
    1.6782   53.2184   26.2305 C   0  0  0  0  0  0
    1.7527   52.8572   23.8224 C   0  0  0  0  0  0
    1.1166   52.7263   25.0372 C   0  0  0  0  0  0
   -0.2071   52.0932   24.7576 C   0  0  0  0  0  0
   -0.2164   51.8306   23.4414 N   0  0  0  0  0  0
    0.8698   52.2596   22.7807 C   0  0  0  0  0  0
   -1.1348   51.8572   25.5271 O   0  0  0  0  0  0
    1.0427   52.1580   21.5696 O   0  0  0  0  0  0
    1.0264   53.1420   27.5769 C   0  0  0  0  0  0
    1.0224   54.2630   28.4244 C   0  0  0  0  0  0
    0.5793   54.1633   29.7399 C   0  0  0  0  0  0
    0.0765   52.9536   30.2008 C   0  0  0  0  0  0
   -0.0113   51.8603   29.3448 C   0  0  0  0  0  0
    0.4908   51.9417   28.0521 C   0  0  0  0  0  0
    4.9183   54.0429   19.2028 O   0  0  0  0  0  0
    5.8058   54.9435   25.6976 C   0  0  0  0  0  0
    6.4936   53.9230   26.6549 C   0  0  0  0  0  0
    5.6952   53.3938   27.8682 C   0  0  0  0  0  0
    5.2048   54.5071   28.6785 N   0  0  1  0  0  0
    4.1475   54.1036   29.6036 C   0  0  0  0  0  0
    6.8852   55.0383   20.5651 H   0  0  0  0  0  0
    7.0968   55.1467   23.0111 H   0  0  0  0  0  0
    3.0325   53.2310   20.8266 H   0  0  0  0  0  0
    3.3489   54.2723   27.0616 H   0  0  0  0  0  0
   -0.9845   51.3648   22.9848 H   0  0  0  0  0  0
    1.4221   55.2067   28.0845 H   0  0  0  0  0  0
    0.6307   55.0173   30.3992 H   0  0  0  0  0  0
   -0.2829   52.8676   31.2167 H   0  0  0  0  0  0
   -0.4443   50.9338   29.6872 H   0  0  0  0  0  0
    0.4708   51.0588   27.4288 H   0  0  0  0  0  0
    4.1560   53.5602   18.8725 H   0  0  0  0  0  0
    6.5675   55.5216   25.1738 H   0  0  0  0  0  0
    5.2398   55.6822   26.2587 H   0  0  0  0  0  0
    6.8629   53.0737   26.0777 H   0  0  0  0  0  0
    7.3858   54.4046   27.0544 H   0  0  0  0  0  0
    4.8731   52.7679   27.5173 H   0  0  0  0  0  0
    6.3309   52.7562   28.4845 H   0  0  0  0  0  0
    5.9760   54.9229   29.1890 H   0  0  0  0  0  0
    3.3774   53.5269   29.0970 H   0  0  0  0  0  0
    4.4786   53.4816   30.4297 H   0  0  0  0  0  0
    3.6784   54.9884   30.0314 H   0  0  0  0  0  0
  1  2  2  0  0  0
  1  4  1  0  0  0
  1 25  1  0  0  0
  2  3  1  0  0  0
  2 31  1  0  0  0
  3  6  2  0  0  0
  3 32  1  0  0  0
  4  5  2  0  0  0
  4 33  1  0  0  0
  5  8  1  0  0  0
  5  6  1  0  0  0
  6  7  1  0  0  0
  7  9  1  0  0  0
  7 26  1  0  0  0
  8  9  2  0  0  0
  8 12  1  0  0  0
  9 10  1  0  0  0
 10 11  2  0  0  0
 10 34  1  0  0  0
 11 19  1  0  0  0
 11 13  1  0  0  0
 12 16  1  0  0  0
 12 13  2  0  0  0
 13 14  1  0  0  0
 14 15  1  0  0  0
 14 17  2  0  0  0
 15 16  1  0  0  0
 15 35  1  0  0  0
 16 18  2  0  0  0
 19 20  2  0  0  0
 19 24  1  0  0  0
 20 21  1  0  0  0
 20 36  1  0  0  0
 21 22  2  0  0  0
 21 37  1  0  0  0
 22 23  1  0  0  0
 22 38  1  0  0  0
 23 24  2  0  0  0
 23 39  1  0  0  0
 24 40  1  0  0  0
 25 41  1  0  0  0
 26 27  1  0  0  0
 26 42  1  0  0  0
 26 43  1  0  0  0
 27 28  1  0  0  0
 27 44  1  0  0  0
 27 45  1  0  0  0
 28 29  1  0  0  0
 28 46  1  0  0  0
 28 47  1  0  0  0
 29 30  1  0  0  0
 29 48  1  0  0  0
 30 49  1  0  0  0
 30 50  1  0  0  0
 30 51  1  0  0  0
M  END
> <s_m_entry_id>
46391

> <s_m_entry_name>
dock_pv.132

> <s_m_Source_Path>
/home/csk/Desktop/cluster/DUD-E-result/wee1

> <s_m_Source_File>
dock_pv.maegz

> <i_m_Source_File_Index>
132

> <chembl_id>
CHEMBL455192

> <chembl_pref_name>
None

> <i_lp_mmshare_version>
53161

> <r_lp_tautomer_probability>
1

> <s_lp_Force_Field>
OPLS_2005

> <r_lp_Energy>
70.747882

> <b_lp_Chiralities_Consistent>
1

> <s_lp_Variant>
CHEMBL5491_lig232-1

> <s_i_glide_gridfile>
glide-grid_3biz

> <i_i_glide_lignum>
244

> <i_i_glide_rotatable_bonds>
6

> <r_i_docking_score>
-7.07508966115639

> <r_i_glide_ligand_efficiency>
-0.235836322038546

> <r_i_glide_ligand_efficiency_sa>
-0.732798285091976

> <r_i_glide_ligand_efficiency_ln>
-1.60753746029096

> <r_i_glide_gscore>
-7.07508966115639

> <r_i_glide_lipo>
-3.78858598781034

> <r_i_glide_hbond>
-0.147993169479643

> <r_i_glide_metal>
0

> <r_i_glide_rewards>
-1.17359546382891

> <r_i_glide_evdw>
-41.068302154541

> <r_i_glide_ecoul>
-2.66485524177551

> <r_i_glide_erotb>
0.49123307473837

> <r_i_glide_esite>
-0.00300472078249411

> <r_i_glide_emodel>
-62.8582063858809

> <r_i_glide_energy>
-43.7331573963165

> <r_i_glide_einternal>
1.65538656711578

> <i_i_glide_confnum>
96

> <i_i_glide_posenum>
261

> <r_i_glide_eff_state_penalty>
0

> <s_user_duplicate_titles>
CHEMBL5491_lig232,452111

> <i_f3d_flags>
0

> <s_m_subgroup_title>
dock_pv

> <s_m_subgroupid>
dock_pv

> <b_m_subgroup_collapsed>
1

$$$$
CHEMBL5491_lig54
                    3D
 Schrodinger Suite 2021-1.
 44 47  0  0  1  0            999 V2000
    4.4905   54.2632   25.9277 N   0  0  0  0  0  0
    2.4654   53.6779   27.0981 C   0  0  0  0  0  0
    3.8557   54.0470   24.6660 C   0  0  0  0  0  0
    3.9047   54.0087   27.1497 C   0  0  0  0  0  0
    4.5445   54.2629   23.5075 N   0  0  0  0  0  0
    2.5422   53.5673   24.6454 C   0  0  0  0  0  0
    1.8563   53.4102   25.9167 C   0  0  0  0  0  0
    3.8933   53.9840   22.3446 C   0  0  0  0  0  0
    1.6594   53.5771   28.3610 C   0  0  0  0  0  0
    2.6445   53.4633   22.2557 N   0  0  0  0  0  0
    1.9715   53.2677   23.4129 C   0  0  0  0  0  0
    4.4801   54.2554   21.1060 N   0  0  0  0  0  0
    4.5325   54.0333   28.2121 O   0  0  0  0  0  0
    0.9433   52.3948   28.6571 C   0  0  0  0  0  0
    1.5877   54.6374   29.2991 C   0  0  0  0  0  0
    5.9031   54.6964   25.9088 C   0  0  0  0  0  0
    0.8780   51.0631   27.5627 Cl  0  0  0  0  0  0
    5.6923   54.8194   20.6818 C   0  0  0  0  0  0
    0.2142   53.2906   30.7724 C   0  0  0  0  0  0
    0.2243   52.2634   29.8426 C   0  0  0  0  0  0
    0.8766   54.4759   30.4873 C   0  0  0  0  0  0
    2.2140   56.0032   29.0627 C   0  0  0  0  0  0
    5.9549   54.7835   19.3102 C   0  0  0  0  0  0
    6.6340   55.3903   21.5494 C   0  0  0  0  0  0
    7.1533   55.2834   18.8080 C   0  0  0  0  0  0
    7.8428   55.8632   21.0498 C   0  0  0  0  0  0
    8.0973   55.8144   19.6830 C   0  0  0  0  0  0
    0.8267   53.0752   25.9008 H   0  0  0  0  0  0
    0.9669   52.8776   23.3322 H   0  0  0  0  0  0
    3.8594   54.0069   20.3498 H   0  0  0  0  0  0
    6.5162   53.9382   25.4194 H   0  0  0  0  0  0
    6.0026   55.6255   25.3458 H   0  0  0  0  0  0
    6.3317   54.8709   26.8983 H   0  0  0  0  0  0
   -0.3202   53.1706   31.7047 H   0  0  0  0  0  0
   -0.3324   51.3607   30.0471 H   0  0  0  0  0  0
    0.8599   55.2732   31.2175 H   0  0  0  0  0  0
    3.2776   55.9994   29.2934 H   0  0  0  0  0  0
    2.0795   56.2917   28.0279 H   0  0  0  0  0  0
    1.7358   56.7820   29.6564 H   0  0  0  0  0  0
    5.2396   54.3528   18.6235 H   0  0  0  0  0  0
    6.4721   55.4475   22.6126 H   0  0  0  0  0  0
    7.3567   55.2435   17.7475 H   0  0  0  0  0  0
    8.5849   56.2630   21.7258 H   0  0  0  0  0  0
    9.0386   56.1828   19.2985 H   0  0  0  0  0  0
  1  3  1  0  0  0
  1  4  1  0  0  0
  1 16  1  0  0  0
  2  4  1  0  0  0
  2  7  2  0  0  0
  2  9  1  0  0  0
  3  5  2  0  0  0
  3  6  1  0  0  0
  4 13  2  0  0  0
  5  8  1  0  0  0
  6 11  2  0  0  0
  6  7  1  0  0  0
  7 28  1  0  0  0
  8 12  1  0  0  0
  8 10  2  0  0  0
  9 14  1  0  0  0
  9 15  2  0  0  0
 10 11  1  0  0  0
 11 29  1  0  0  0
 12 18  1  0  0  0
 12 30  1  0  0  0
 14 17  1  0  0  0
 14 20  2  0  0  0
 15 21  1  0  0  0
 15 22  1  0  0  0
 16 31  1  0  0  0
 16 32  1  0  0  0
 16 33  1  0  0  0
 18 23  2  0  0  0
 18 24  1  0  0  0
 19 21  2  0  0  0
 19 20  1  0  0  0
 19 34  1  0  0  0
 20 35  1  0  0  0
 21 36  1  0  0  0
 22 37  1  0  0  0
 22 38  1  0  0  0
 22 39  1  0  0  0
 23 25  1  0  0  0
 23 40  1  0  0  0
 24 26  2  0  0  0
 24 41  1  0  0  0
 25 27  2  0  0  0
 25 42  1  0  0  0
 26 27  1  0  0  0
 26 43  1  0  0  0
 27 44  1  0  0  0
M  END
> <s_m_entry_id>
46392

> <s_m_entry_name>
dock_pv.133

> <s_m_Source_Path>
/home/csk/Desktop/cluster/DUD-E-result/wee1

> <s_m_Source_File>
dock_pv.maegz

> <i_m_Source_File_Index>
133

> <chembl_id>
CHEMBL180810

> <chembl_pref_name>
None

> <i_lp_mmshare_version>
53161

> <r_lp_tautomer_probability>
1

> <s_lp_Force_Field>
OPLS_2005

> <r_lp_Energy>
28.090931

> <b_lp_Chiralities_Consistent>
1

> <s_lp_Variant>
CHEMBL5491_lig54-1

> <s_i_glide_gridfile>
glide-grid_3biz

> <i_i_glide_lignum>
52

> <i_i_glide_rotatable_bonds>
3

> <r_i_docking_score>
-7.05933732517417

> <r_i_glide_ligand_efficiency>
-0.261456937969414

> <r_i_glide_ligand_efficiency_sa>
-0.784370813046521

> <r_i_glide_ligand_efficiency_ln>
-1.64329734702897

> <r_i_glide_gscore>
-7.05933732517417

> <r_i_glide_lipo>
-3.30931017268394

> <r_i_glide_hbond>
0

> <r_i_glide_metal>
0

> <r_i_glide_rewards>
-1.79435231929623

> <r_i_glide_evdw>
-44.2259292602539

> <r_i_glide_ecoul>
-1.02275657653809

> <r_i_glide_erotb>
0.40903511629941

> <r_i_glide_esite>
0

> <r_i_glide_emodel>
-61.2341595583053

> <r_i_glide_energy>
-45.248685836792

> <r_i_glide_einternal>
5.84174728393555

> <i_i_glide_confnum>
5

> <i_i_glide_posenum>
199

> <r_i_glide_eff_state_penalty>
0

> <s_user_duplicate_titles>
CHEMBL5491_lig54

> <i_f3d_flags>
0

> <s_m_subgroup_title>
dock_pv

> <s_m_subgroupid>
dock_pv

> <b_m_subgroup_collapsed>
1

$$$$
CHEMBL5491_lig243
                    3D
 Schrodinger Suite 2021-1.
 50 54  0  0  1  0            999 V2000
    5.4066   54.5979   21.2205 C   0  0  0  0  0  0
    6.4946   55.0651   21.9479 C   0  0  0  0  0  0
    6.4935   55.0899   23.3408 C   0  0  0  0  0  0
    4.2664   54.1300   21.8660 C   0  0  0  0  0  0
    4.2173   54.1569   23.2714 C   0  0  0  0  0  0
    5.3380   54.6562   23.9940 C   0  0  0  0  0  0
    5.0204   54.6311   25.3407 N   0  0  0  0  0  0
    5.4669   54.5940   19.8528 O   0  0  0  0  0  0
    3.2482   53.7666   24.2174 C   0  0  0  0  0  0
    3.7492   54.1127   25.4936 C   0  0  0  0  0  0
    3.0104   53.9089   26.6571 C   0  0  0  0  0  0
    1.7509   53.3156   26.5879 C   0  0  0  0  0  0
    1.0319   53.0986   27.8912 C   0  0  0  0  0  0
    1.0120   54.0395   28.9601 C   0  0  0  0  0  0
    0.4292   53.7127   30.1826 C   0  0  0  0  0  0
   -0.2068   52.4933   30.3512 C   0  0  0  0  0  0
   -0.2548   51.5917   29.3017 C   0  0  0  0  0  0
    0.4090   51.8638   28.1152 C   0  0  0  0  0  0
    1.9931   53.1348   24.1582 C   0  0  0  0  0  0
    1.2785   52.9109   25.3169 C   0  0  0  0  0  0
   -0.0061   52.2629   24.8862 C   0  0  0  0  0  0
    0.0879   52.0978   23.5584 N   0  0  0  0  0  0
    1.2122   52.5837   23.0164 C   0  0  0  0  0  0
   -0.9905   51.9512   25.5499 O   0  0  0  0  0  0
    1.4852   52.5519   21.8216 O   0  0  0  0  0  0
    5.8901   55.0581   26.4364 C   0  0  0  0  0  0
    6.7157   53.9134   27.0475 C   0  0  0  0  0  0
    5.9222   52.8982   27.8782 C   0  0  0  0  0  0
    1.6833   55.6342   28.8864 Cl  0  0  0  0  0  0
    5.1542   53.5329   28.8869 O   0  0  0  0  0  0
    4.3148   52.6361   29.6102 C   0  0  0  0  0  0
    7.3698   55.4165   21.4200 H   0  0  0  0  0  0
    7.3406   55.4745   23.8843 H   0  0  0  0  0  0
    3.4338   53.7797   21.2796 H   0  0  0  0  0  0
    4.6870   54.2181   19.4359 H   0  0  0  0  0  0
    3.4070   54.2148   27.6041 H   0  0  0  0  0  0
    0.4498   54.4183   31.0010 H   0  0  0  0  0  0
   -0.6879   52.2545   31.2866 H   0  0  0  0  0  0
   -0.7828   50.6630   29.4293 H   0  0  0  0  0  0
    0.4257   51.0862   27.3662 H   0  0  0  0  0  0
   -0.6341   51.6562   23.0126 H   0  0  0  0  0  0
    6.5308   55.8668   26.0883 H   0  0  0  0  0  0
    5.2593   55.4630   27.2210 H   0  0  0  0  0  0
    7.2350   53.3667   26.2635 H   0  0  0  0  0  0
    7.4870   54.3455   27.6877 H   0  0  0  0  0  0
    5.2865   52.2862   27.2373 H   0  0  0  0  0  0
    6.6478   52.2518   28.3544 H   0  0  0  0  0  0
    3.7501   53.1933   30.3587 H   0  0  0  0  0  0
    3.5967   52.1416   28.9548 H   0  0  0  0  0  0
    4.8832   51.8633   30.1289 H   0  0  0  0  0  0
  1  2  2  0  0  0
  1  8  1  0  0  0
  1  4  1  0  0  0
  2  3  1  0  0  0
  2 32  1  0  0  0
  3  6  2  0  0  0
  3 33  1  0  0  0
  4  5  2  0  0  0
  4 34  1  0  0  0
  5  9  1  0  0  0
  5  6  1  0  0  0
  6  7  1  0  0  0
  7 10  1  0  0  0
  7 26  1  0  0  0
  8 35  1  0  0  0
  9 10  2  0  0  0
  9 19  1  0  0  0
 10 11  1  0  0  0
 11 12  2  0  0  0
 11 36  1  0  0  0
 12 13  1  0  0  0
 12 20  1  0  0  0
 13 18  1  0  0  0
 13 14  2  0  0  0
 14 15  1  0  0  0
 14 29  1  0  0  0
 15 16  2  0  0  0
 15 37  1  0  0  0
 16 17  1  0  0  0
 16 38  1  0  0  0
 17 18  2  0  0  0
 17 39  1  0  0  0
 18 40  1  0  0  0
 19 20  2  0  0  0
 19 23  1  0  0  0
 20 21  1  0  0  0
 21 22  1  0  0  0
 21 24  2  0  0  0
 22 23  1  0  0  0
 22 41  1  0  0  0
 23 25  2  0  0  0
 26 27  1  0  0  0
 26 42  1  0  0  0
 26 43  1  0  0  0
 27 28  1  0  0  0
 27 44  1  0  0  0
 27 45  1  0  0  0
 28 30  1  0  0  0
 28 46  1  0  0  0
 28 47  1  0  0  0
 30 31  1  0  0  0
 31 48  1  0  0  0
 31 49  1  0  0  0
 31 50  1  0  0  0
M  END
> <s_m_entry_id>
46393

> <s_m_entry_name>
dock_pv.134

> <s_m_Source_Path>
/home/csk/Desktop/cluster/DUD-E-result/wee1

> <s_m_Source_File>
dock_pv.maegz

> <i_m_Source_File_Index>
134

> <chembl_id>
CHEMBL488054

> <chembl_pref_name>
None

> <i_lp_mmshare_version>
53161

> <r_lp_tautomer_probability>
1

> <s_lp_Force_Field>
OPLS_2005

> <r_lp_Energy>
70.179881

> <b_lp_Chiralities_Consistent>
1

> <s_lp_Variant>
CHEMBL5491_lig243-1

> <s_i_glide_gridfile>
glide-grid_3biz

> <i_i_glide_lignum>
256

> <i_i_glide_rotatable_bonds>
6

> <r_i_docking_score>
-7.05361032375679

> <r_i_glide_ligand_efficiency>
-0.22753581689538

> <r_i_glide_ligand_efficiency_sa>
-0.71477661210304

> <r_i_glide_ligand_efficiency_ln>
-1.59080529520288

> <r_i_glide_gscore>
-7.05361032375679

> <r_i_glide_lipo>
-4.13651377066758

> <r_i_glide_hbond>
0

> <r_i_glide_metal>
0

> <r_i_glide_rewards>
-1.00187926684353

> <r_i_glide_evdw>
-42.5651473999023

> <r_i_glide_ecoul>
-1.38855767250061

> <r_i_glide_erotb>
0.421323734624536

> <r_i_glide_esite>
0

> <r_i_glide_emodel>
-61.9088888094009

> <r_i_glide_energy>
-43.953705072403

> <r_i_glide_einternal>
2.81371426582336

> <i_i_glide_confnum>
21

> <i_i_glide_posenum>
279

> <r_i_glide_eff_state_penalty>
0

> <s_user_duplicate_titles>
CHEMBL5491_lig243,451912

> <i_f3d_flags>
0

> <s_m_subgroup_title>
dock_pv

> <s_m_subgroupid>
dock_pv

> <b_m_subgroup_collapsed>
1

$$$$
CHEMBL5491_lig107
                    3D
 Schrodinger Suite 2021-1.
 43 47  0  0  1  0            999 V2000
    5.6342   54.6585   19.6838 C   0  0  0  0  0  0
    6.8284   55.2840   20.0324 C   0  0  0  0  0  0
    7.1991   55.4702   21.3649 C   0  0  0  0  0  0
    4.7431   54.2126   20.6602 C   0  0  0  0  0  0
    5.0591   54.4129   22.0154 C   0  0  0  0  0  0
    6.3004   55.0314   22.3423 C   0  0  0  0  0  0
    6.3790   55.0906   23.7149 N   0  0  0  0  0  0
    4.3811   54.1472   23.2309 C   0  0  0  0  0  0
    5.1963   54.6568   24.2791 C   0  0  0  0  0  0
    4.7748   54.6625   25.6124 C   0  0  0  0  0  0
    3.5865   54.0013   25.9542 C   0  0  0  0  0  0
    3.1578   53.5446   23.5899 C   0  0  0  0  0  0
    2.7940   53.4631   24.9193 C   0  0  0  0  0  0
    1.5240   52.6724   24.9622 C   0  0  0  0  0  0
    1.2102   52.4088   23.6832 N   0  0  0  0  0  0
    2.1077   52.8508   22.7896 C   0  0  0  0  0  0
    0.8709   52.2994   25.9322 O   0  0  0  0  0  0
    2.0428   52.6633   21.5802 O   0  0  0  0  0  0
    5.3394   54.4781   18.3591 O   0  0  0  0  0  0
    3.2381   53.8568   27.4083 C   0  0  0  0  0  0
    1.9726   54.2577   27.8611 C   0  0  0  0  0  0
    1.5652   54.0613   29.1786 C   0  0  0  0  0  0
    2.4295   53.4643   30.0847 C   0  0  0  0  0  0
    3.7102   53.1024   29.6776 C   0  0  0  0  0  0
    4.1324   53.2996   28.3549 C   0  0  0  0  0  0
    5.5328   52.7970   27.9872 C   0  0  0  0  0  0
    6.6976   53.7333   28.3560 C   0  0  0  0  0  0
    7.4966   55.6127   19.2504 H   0  0  0  0  0  0
    8.1394   55.9382   21.6229 H   0  0  0  0  0  0
    3.8143   53.7519   20.3633 H   0  0  0  0  0  0
    7.1654   55.4676   24.2225 H   0  0  0  0  0  0
    5.3773   55.1202   26.3765 H   0  0  0  0  0  0
    0.3973   51.8753   23.4231 H   0  0  0  0  0  0
    4.5464   53.9587   18.2104 H   0  0  0  0  0  0
    1.2562   54.6627   27.1708 H   0  0  0  0  0  0
    0.5715   54.3516   29.4867 H   0  0  0  0  0  0
    2.1095   53.2930   31.1022 H   0  0  0  0  0  0
    4.3739   52.6497   30.3974 H   0  0  0  0  0  0
    5.6755   51.8630   28.5191 H   0  0  0  0  0  0
    5.5896   52.5217   26.9378 H   0  0  0  0  0  0
    7.6216   53.1670   28.4752 H   0  0  0  0  0  0
    6.9006   54.4898   27.6032 H   0  0  0  0  0  0
    6.5161   54.2630   29.2869 H   0  0  0  0  0  0
  1  2  2  0  0  0
  1 19  1  0  0  0
  1  4  1  0  0  0
  2  3  1  0  0  0
  2 28  1  0  0  0
  3  6  2  0  0  0
  3 29  1  0  0  0
  4  5  2  0  0  0
  4 30  1  0  0  0
  5  8  1  0  0  0
  5  6  1  0  0  0
  6  7  1  0  0  0
  7  9  1  0  0  0
  7 31  1  0  0  0
  8  9  2  0  0  0
  8 12  1  0  0  0
  9 10  1  0  0  0
 10 11  2  0  0  0
 10 32  1  0  0  0
 11 13  1  0  0  0
 11 20  1  0  0  0
 12 16  1  0  0  0
 12 13  2  0  0  0
 13 14  1  0  0  0
 14 15  1  0  0  0
 14 17  2  0  0  0
 15 16  1  0  0  0
 15 33  1  0  0  0
 16 18  2  0  0  0
 19 34  1  0  0  0
 20 21  2  0  0  0
 20 25  1  0  0  0
 21 22  1  0  0  0
 21 35  1  0  0  0
 22 23  2  0  0  0
 22 36  1  0  0  0
 23 24  1  0  0  0
 23 37  1  0  0  0
 24 25  2  0  0  0
 24 38  1  0  0  0
 25 26  1  0  0  0
 26 27  1  0  0  0
 26 39  1  0  0  0
 26 40  1  0  0  0
 27 41  1  0  0  0
 27 42  1  0  0  0
 27 43  1  0  0  0
M  END
> <s_m_entry_id>
46394

> <s_m_entry_name>
dock_pv.135

> <s_m_Source_Path>
/home/csk/Desktop/cluster/DUD-E-result/wee1

> <s_m_Source_File>
dock_pv.maegz

> <i_m_Source_File_Index>
135

> <chembl_id>
CHEMBL383926

> <chembl_pref_name>
None

> <i_lp_mmshare_version>
53161

> <r_lp_tautomer_probability>
1

> <s_lp_Force_Field>
OPLS_2005

> <r_lp_Energy>
66.426032

> <b_lp_Chiralities_Consistent>
1

> <s_lp_Variant>
CHEMBL5491_lig107-1

> <s_i_glide_gridfile>
glide-grid_3biz

> <i_i_glide_lignum>
108

> <i_i_glide_rotatable_bonds>
3

> <r_i_docking_score>
-7.04243041832057

> <r_i_glide_ligand_efficiency>
-0.260830756234095

> <r_i_glide_ligand_efficiency_sa>
-0.78249226784263

> <r_i_glide_ligand_efficiency_ln>
-1.6393616978456

> <r_i_glide_gscore>
-7.04243041832057

> <r_i_glide_lipo>
-3.78541906937845

> <r_i_glide_hbond>
0

> <r_i_glide_metal>
0

> <r_i_glide_rewards>
-1.40822708670279

> <r_i_glide_evdw>
-37.9251136779785

> <r_i_glide_ecoul>
-0.687787711620331

> <r_i_glide_erotb>
0.150639578402643

> <r_i_glide_esite>
0

> <r_i_glide_emodel>
-54.4668973993874

> <r_i_glide_energy>
-38.6129013895988

> <r_i_glide_einternal>
0.579551637172699

> <i_i_glide_confnum>
1

> <i_i_glide_posenum>
12

> <r_i_glide_eff_state_penalty>
0

> <s_user_duplicate_titles>
CHEMBL5491_lig107,355962

> <i_f3d_flags>
0

> <s_m_subgroup_title>
dock_pv

> <s_m_subgroupid>
dock_pv

> <b_m_subgroup_collapsed>
1

$$$$
CHEMBL5491_lig250
                    3D
 Schrodinger Suite 2021-1.
 51 55  0  0  1  0            999 V2000
    2.7965   53.6756   26.2976 C   0  0  0  0  0  0
    1.5316   53.0827   26.4128 C   0  0  0  0  0  0
    0.8777   52.6612   25.2335 C   0  0  0  0  0  0
    1.4467   52.7991   23.9844 C   0  0  0  0  0  0
    0.4889   52.2628   22.9787 C   0  0  0  0  0  0
   -0.4858   52.0832   25.0034 C   0  0  0  0  0  0
    0.9538   52.9520   27.7937 C   0  0  0  0  0  0
    1.0625   53.9805   28.7632 C   0  0  0  0  0  0
    0.6175   53.7464   30.0749 C   0  0  0  0  0  0
    0.0067   52.5485   30.4122 C   0  0  0  0  0  0
   -0.1979   51.5818   29.4387 C   0  0  0  0  0  0
    0.3280   51.7560   28.1675 C   0  0  0  0  0  0
    2.7208   53.3815   23.8520 C   0  0  0  0  0  0
    3.3646   53.8405   25.0300 C   0  0  0  0  0  0
    3.5997   53.6235   22.7740 C   0  0  0  0  0  0
    4.7555   54.2629   23.3009 C   0  0  0  0  0  0
    3.5422   53.3604   21.3941 C   0  0  0  0  0  0
    5.8179   54.6613   22.4786 C   0  0  0  0  0  0
    4.5794   53.7925   20.5748 C   0  0  0  0  0  0
    5.6788   54.4455   21.1094 C   0  0  0  0  0  0
    5.4782   55.1066   25.5757 C   0  0  0  0  0  0
    6.5212   54.1629   26.2111 C   0  0  0  0  0  0
    6.0872   53.3720   27.4576 C   0  0  0  0  0  0
    0.5823   52.1981   21.7559 O   0  0  0  0  0  0
   -0.5753   51.8568   23.6836 N   0  0  0  0  0  0
   -1.3924   51.8686   25.8033 O   0  0  0  0  0  0
    4.5295   53.5724   19.2255 O   0  0  0  0  0  0
    1.6182   55.1910   28.3892 O   0  0  0  0  0  0
    1.8200   56.2119   29.3630 C   0  0  0  0  0  0
    4.5630   54.4235   24.6653 N   0  0  0  0  0  0
    5.6741   54.2608   28.4801 O   0  0  0  0  0  0
    3.3232   54.0067   27.1788 H   0  0  0  0  0  0
    0.7299   54.4843   30.8551 H   0  0  0  0  0  0
   -0.3290   52.3788   31.4242 H   0  0  0  0  0  0
   -0.7150   50.6632   29.6841 H   0  0  0  0  0  0
    0.2355   50.9351   27.4715 H   0  0  0  0  0  0
    2.6981   52.8618   20.9494 H   0  0  0  0  0  0
    6.6970   55.1541   22.8721 H   0  0  0  0  0  0
    6.4695   54.7664   20.4475 H   0  0  0  0  0  0
    5.9716   55.9093   25.0250 H   0  0  0  0  0  0
    4.8840   55.6019   26.3397 H   0  0  0  0  0  0
    6.8793   53.4637   25.4545 H   0  0  0  0  0  0
    7.3808   54.7663   26.4958 H   0  0  0  0  0  0
    5.2447   52.7204   27.2289 H   0  0  0  0  0  0
    6.8981   52.7438   27.8235 H   0  0  0  0  0  0
   -1.3912   51.4467   23.2589 H   0  0  0  0  0  0
    3.7846   53.0352   18.9458 H   0  0  0  0  0  0
    2.2946   57.0629   28.8867 H   0  0  0  0  0  0
    0.8792   56.5584   29.7939 H   0  0  0  0  0  0
    2.4790   55.8727   30.1619 H   0  0  0  0  0  0
    6.4370   54.7510   28.8120 H   0  0  0  0  0  0
  1 14  1  0  0  0
  1  2  2  0  0  0
  1 32  1  0  0  0
  2  3  1  0  0  0
  2  7  1  0  0  0
  3  4  2  0  0  0
  3  6  1  0  0  0
  4 13  1  0  0  0
  4  5  1  0  0  0
  5 24  2  0  0  0
  5 25  1  0  0  0
  6 25  1  0  0  0
  6 26  2  0  0  0
  7 12  2  0  0  0
  7  8  1  0  0  0
  8 28  1  0  0  0
  8  9  2  0  0  0
  9 10  1  0  0  0
  9 33  1  0  0  0
 10 11  2  0  0  0
 10 34  1  0  0  0
 11 12  1  0  0  0
 11 35  1  0  0  0
 12 36  1  0  0  0
 13 15  1  0  0  0
 13 14  2  0  0  0
 14 30  1  0  0  0
 15 16  2  0  0  0
 15 17  1  0  0  0
 16 18  1  0  0  0
 16 30  1  0  0  0
 17 19  2  0  0  0
 17 37  1  0  0  0
 18 20  2  0  0  0
 18 38  1  0  0  0
 19 20  1  0  0  0
 19 27  1  0  0  0
 20 39  1  0  0  0
 21 22  1  0  0  0
 21 30  1  0  0  0
 21 40  1  0  0  0
 21 41  1  0  0  0
 22 23  1  0  0  0
 22 42  1  0  0  0
 22 43  1  0  0  0
 23 31  1  0  0  0
 23 44  1  0  0  0
 23 45  1  0  0  0
 25 46  1  0  0  0
 27 47  1  0  0  0
 28 29  1  0  0  0
 29 48  1  0  0  0
 29 49  1  0  0  0
 29 50  1  0  0  0
 31 51  1  0  0  0
M  END
> <s_m_entry_id>
46395

> <s_m_entry_name>
dock_pv.136

> <s_m_Source_Path>
/home/csk/Desktop/cluster/DUD-E-result/wee1

> <s_m_Source_File>
dock_pv.maegz

> <i_m_Source_File_Index>
136

> <chembl_id>
CHEMBL512341

> <chembl_pref_name>
None

> <i_lp_mmshare_version>
53161

> <r_lp_tautomer_probability>
1

> <s_lp_Force_Field>
OPLS_2005

> <r_lp_Energy>
74.716659

> <b_lp_Chiralities_Consistent>
1

> <s_lp_Variant>
CHEMBL5491_lig250-1

> <s_i_glide_gridfile>
glide-grid_3biz

> <i_i_glide_lignum>
263

> <i_i_glide_rotatable_bonds>
7

> <r_i_docking_score>
-7.02851479899856

> <r_i_glide_ligand_efficiency>
-0.226726283838663

> <r_i_glide_ligand_efficiency_sa>
-0.712233560624109

> <r_i_glide_ligand_efficiency_ln>
-1.58514548528443

> <r_i_glide_gscore>
-7.02851479899856

> <r_i_glide_lipo>
-3.5343085812265

> <r_i_glide_hbond>
-0.254288467489655

> <r_i_glide_metal>
0

> <r_i_glide_rewards>
-1.01053303834701

> <r_i_glide_evdw>
-42.6350212097168

> <r_i_glide_ecoul>
-3.55668807029724

> <r_i_glide_erotb>
0.455701165381269

> <r_i_glide_esite>
-0.0198316062862337

> <r_i_glide_emodel>
-63.6391478573807

> <r_i_glide_energy>
-46.191709280014

> <r_i_glide_einternal>
3.76882553100586

> <i_i_glide_confnum>
27

> <i_i_glide_posenum>
375

> <r_i_glide_eff_state_penalty>
0

> <s_user_duplicate_titles>
CHEMBL5491_lig250,451783

> <i_f3d_flags>
0

> <s_m_subgroup_title>
dock_pv

> <s_m_subgroupid>
dock_pv

> <b_m_subgroup_collapsed>
1

$$$$
CHEMBL5491_lig185
                    3D
 Schrodinger Suite 2021-1.
 62 67  0  0  1  0            999 V2000
    4.4336   54.2625   21.4308 C   0  0  0  0  0  0
    5.7082   54.6904   21.8080 C   0  0  0  0  0  0
    6.0791   54.7758   23.1501 C   0  0  0  0  0  0
    3.4863   53.9099   22.3853 C   0  0  0  0  0  0
    3.8035   54.0398   23.7459 C   0  0  0  0  0  0
    5.0931   54.5116   24.1115 C   0  0  0  0  0  0
    5.1085   54.6558   25.4896 N   0  0  0  0  0  0
    3.1064   53.7454   24.9349 C   0  0  0  0  0  0
    3.8997   54.2203   26.0121 C   0  0  0  0  0  0
    3.4519   54.1592   27.3380 C   0  0  0  0  0  0
    2.2826   53.4374   27.6233 C   0  0  0  0  0  0
    1.8971   53.0904   25.2415 C   0  0  0  0  0  0
    1.5303   52.9145   26.5562 C   0  0  0  0  0  0
    0.2912   52.0763   26.5428 C   0  0  0  0  0  0
    0.0094   51.8619   25.2480 N   0  0  0  0  0  0
    0.8757   52.4214   24.3881 C   0  0  0  0  0  0
    1.9317   53.1743   29.0543 C   0  0  0  0  0  0
    2.8583   52.5989   29.9467 C   0  0  0  0  0  0
    2.4871   52.2630   31.2491 C   0  0  0  0  0  0
    1.1900   52.5085   31.6870 C   0  0  0  0  0  0
    0.2768   53.1150   30.8349 C   0  0  0  0  0  0
    0.6487   53.4626   29.5386 C   0  0  0  0  0  0
   -0.3731   51.6544   27.4835 O   0  0  0  0  0  0
    0.7977   52.3577   23.1648 O   0  0  0  0  0  0
    4.0814   54.2050   20.1072 O   0  0  0  0  0  0
    4.4790   52.2629   29.4657 Cl  0  0  0  0  0  0
    6.6229   55.0630   20.8554 O   0  0  0  0  0  0
    6.5172   56.3992   20.3857 C   0  0  0  0  0  0
    6.4282   56.3728   18.8495 C   0  0  0  0  0  0
    6.7995   57.7001   18.1563 C   0  0  0  0  0  0
    8.1730   58.1155   18.4524 N   0  0  0  0  0  0
    8.5381   59.3645   17.7975 C   0  0  0  0  0  0
   10.0699   59.4309   17.8416 C   0  0  0  0  0  0
   10.5049   57.9849   18.0768 C   0  0  0  0  0  0
    9.2046   57.1883   18.0008 C   0  0  0  0  0  0
    6.2672   55.0653   26.2722 C   0  0  0  0  0  0
    7.0669   55.1199   23.4192 H   0  0  0  0  0  0
    2.5148   53.5753   22.0621 H   0  0  0  0  0  0
    4.0512   54.5595   28.1418 H   0  0  0  0  0  0
   -0.7798   51.3110   24.9501 H   0  0  0  0  0  0
    3.2041   51.8339   31.9324 H   0  0  0  0  0  0
    0.8940   52.2519   32.6947 H   0  0  0  0  0  0
   -0.7210   53.3008   31.1907 H   0  0  0  0  0  0
   -0.0827   53.9193   28.8885 H   0  0  0  0  0  0
    3.1239   54.2098   19.9834 H   0  0  0  0  0  0
    7.4210   56.9076   20.7157 H   0  0  0  0  0  0
    5.6792   56.9567   20.8089 H   0  0  0  0  0  0
    5.4088   56.1067   18.5675 H   0  0  0  0  0  0
    7.0380   55.5632   18.4444 H   0  0  0  0  0  0
    6.1264   58.4856   18.5054 H   0  0  0  0  0  0
    6.6515   57.6101   17.0781 H   0  0  0  0  0  0
    8.0794   60.1944   18.3339 H   0  0  0  0  0  0
    8.1517   59.4312   16.7776 H   0  0  0  0  0  0
   10.4234   60.0746   18.6456 H   0  0  0  0  0  0
   10.4662   59.8168   16.9026 H   0  0  0  0  0  0
   11.2245   57.6410   17.3329 H   0  0  0  0  0  0
   10.9707   57.8630   19.0558 H   0  0  0  0  0  0
    9.0023   56.7959   17.0011 H   0  0  0  0  0  0
    9.2240   56.3202   18.6615 H   0  0  0  0  0  0
    5.9590   55.4630   27.2388 H   0  0  0  0  0  0
    6.9024   54.1962   26.4370 H   0  0  0  0  0  0
    6.8237   55.8348   25.7373 H   0  0  0  0  0  0
  1  2  2  0  0  0
  1  4  1  0  0  0
  1 25  1  0  0  0
  2 27  1  0  0  0
  2  3  1  0  0  0
  3  6  2  0  0  0
  3 37  1  0  0  0
  4  5  2  0  0  0
  4 38  1  0  0  0
  5  8  1  0  0  0
  5  6  1  0  0  0
  6  7  1  0  0  0
  7  9  1  0  0  0
  7 36  1  0  0  0
  8  9  2  0  0  0
  8 12  1  0  0  0
  9 10  1  0  0  0
 10 11  2  0  0  0
 10 39  1  0  0  0
 11 17  1  0  0  0
 11 13  1  0  0  0
 12 13  2  0  0  0
 12 16  1  0  0  0
 13 14  1  0  0  0
 14 23  2  0  0  0
 14 15  1  0  0  0
 15 16  1  0  0  0
 15 40  1  0  0  0
 16 24  2  0  0  0
 17 18  2  0  0  0
 17 22  1  0  0  0
 18 19  1  0  0  0
 18 26  1  0  0  0
 19 20  2  0  0  0
 19 41  1  0  0  0
 20 21  1  0  0  0
 20 42  1  0  0  0
 21 22  2  0  0  0
 21 43  1  0  0  0
 22 44  1  0  0  0
 25 45  1  0  0  0
 27 28  1  0  0  0
 28 29  1  0  0  0
 28 46  1  0  0  0
 28 47  1  0  0  0
 29 30  1  0  0  0
 29 48  1  0  0  0
 29 49  1  0  0  0
 30 31  1  0  0  0
 30 50  1  0  0  0
 30 51  1  0  0  0
 31 32  1  0  0  0
 31 35  1  0  0  0
 32 33  1  0  0  0
 32 52  1  0  0  0
 32 53  1  0  0  0
 33 34  1  0  0  0
 33 54  1  0  0  0
 33 55  1  0  0  0
 34 35  1  0  0  0
 34 56  1  0  0  0
 34 57  1  0  0  0
 35 58  1  0  0  0
 35 59  1  0  0  0
 36 60  1  0  0  0
 36 61  1  0  0  0
 36 62  1  0  0  0
M  END
> <s_m_entry_id>
46396

> <s_m_entry_name>
dock_pv.137

> <s_m_Source_Path>
/home/csk/Desktop/cluster/DUD-E-result/wee1

> <s_m_Source_File>
dock_pv.maegz

> <i_m_Source_File_Index>
137

> <chembl_id>
CHEMBL255427

> <chembl_pref_name>
None

> <i_lp_mmshare_version>
53161

> <r_lp_tautomer_probability>
1

> <s_lp_Force_Field>
OPLS_2005

> <r_lp_Energy>
91.448334

> <b_lp_Chiralities_Consistent>
1

> <s_lp_Variant>
CHEMBL5491_lig185-1

> <s_i_glide_gridfile>
glide-grid_3biz

> <i_i_glide_lignum>
190

> <i_i_glide_rotatable_bonds>
7

> <r_i_docking_score>
-7.0135603356951

> <r_i_glide_ligand_efficiency>
-0.194821120435975

> <r_i_glide_ligand_efficiency_sa>
-0.64328516545932

> <r_i_glide_ligand_efficiency_ln>
-1.53016938074603

> <r_i_glide_gscore>
-7.0135603356951

> <r_i_glide_lipo>
-3.82295885433688

> <r_i_glide_hbond>
-0.00367093268977843

> <r_i_glide_metal>
0

> <r_i_glide_rewards>
-0.607220063403759

> <r_i_glide_evdw>
-47.580322265625

> <r_i_glide_ecoul>
-3.82022452354431

> <r_i_glide_erotb>
0.40244437013043

> <r_i_glide_esite>
-0.0301050635822237

> <r_i_glide_emodel>
-65.0991613293199

> <r_i_glide_energy>
-51.4005467891693

> <r_i_glide_einternal>
10.1858911514282

> <i_i_glide_confnum>
57

> <i_i_glide_posenum>
214

> <r_i_glide_eff_state_penalty>
0

> <s_user_duplicate_titles>
CHEMBL5491_lig185,435844

> <i_f3d_flags>
0

> <s_m_subgroup_title>
dock_pv

> <s_m_subgroupid>
dock_pv

> <b_m_subgroup_collapsed>
1

$$$$
CHEMBL5491_lig110
                    3D
 Schrodinger Suite 2021-1.
 38 42  0  0  1  0            999 V2000
    5.7692   54.6932   19.5821 C   0  0  0  0  0  0
    6.9496   55.3383   19.9406 C   0  0  0  0  0  0
    7.3088   55.5218   21.2765 C   0  0  0  0  0  0
    4.8794   54.2342   20.5513 C   0  0  0  0  0  0
    5.1832   54.4314   21.9103 C   0  0  0  0  0  0
    6.4118   55.0633   22.2467 C   0  0  0  0  0  0
    6.4790   55.1276   23.6212 N   0  0  0  0  0  0
    4.4996   54.1565   23.1213 C   0  0  0  0  0  0
    5.3010   54.6629   24.1774 C   0  0  0  0  0  0
    4.8722   54.6578   25.5097 C   0  0  0  0  0  0
    3.6693   54.0058   25.8412 C   0  0  0  0  0  0
    3.2759   53.5462   23.4650 C   0  0  0  0  0  0
    2.8898   53.4632   24.7895 C   0  0  0  0  0  0
    1.6142   52.6745   24.7988 C   0  0  0  0  0  0
    1.3307   52.4127   23.5141 N   0  0  0  0  0  0
    2.2470   52.8524   22.6408 C   0  0  0  0  0  0
    0.9314   52.2973   25.7465 O   0  0  0  0  0  0
    2.2094   52.6630   21.4302 O   0  0  0  0  0  0
    5.4827   54.5110   18.2559 O   0  0  0  0  0  0
    3.2794   53.8724   27.2974 C   0  0  0  0  0  0
    4.1592   53.4250   28.3175 C   0  0  0  0  0  0
    3.6806   53.2025   29.6165 C   0  0  0  0  0  0
    2.3554   53.4625   29.9426 C   0  0  0  0  0  0
    1.5012   53.9816   28.9813 C   0  0  0  0  0  0
    1.9684   54.1901   27.6868 C   0  0  0  0  0  0
    5.5876   53.2121   28.0996 C   0  0  0  0  0  0
    6.7224   53.0631   27.9327 N   0  0  0  0  0  0
    7.6170   55.6809   19.1636 H   0  0  0  0  0  0
    8.2418   55.9994   21.5419 H   0  0  0  0  0  0
    3.9605   53.7621   20.2445 H   0  0  0  0  0  0
    7.2569   55.5167   24.1325 H   0  0  0  0  0  0
    5.4876   55.1094   26.2728 H   0  0  0  0  0  0
    0.5233   51.8804   23.2329 H   0  0  0  0  0  0
    4.6966   53.9794   18.1045 H   0  0  0  0  0  0
    4.3327   52.8312   30.3953 H   0  0  0  0  0  0
    1.9991   53.2940   30.9491 H   0  0  0  0  0  0
    0.4755   54.2075   29.2325 H   0  0  0  0  0  0
    1.2718   54.5644   26.9586 H   0  0  0  0  0  0
  1  2  2  0  0  0
  1 19  1  0  0  0
  1  4  1  0  0  0
  2  3  1  0  0  0
  2 28  1  0  0  0
  3  6  2  0  0  0
  3 29  1  0  0  0
  4  5  2  0  0  0
  4 30  1  0  0  0
  5  8  1  0  0  0
  5  6  1  0  0  0
  6  7  1  0  0  0
  7  9  1  0  0  0
  7 31  1  0  0  0
  8  9  2  0  0  0
  8 12  1  0  0  0
  9 10  1  0  0  0
 10 11  2  0  0  0
 10 32  1  0  0  0
 11 13  1  0  0  0
 11 20  1  0  0  0
 12 16  1  0  0  0
 12 13  2  0  0  0
 13 14  1  0  0  0
 14 15  1  0  0  0
 14 17  2  0  0  0
 15 16  1  0  0  0
 15 33  1  0  0  0
 16 18  2  0  0  0
 19 34  1  0  0  0
 20 21  2  0  0  0
 20 25  1  0  0  0
 21 22  1  0  0  0
 21 26  1  0  0  0
 22 23  2  0  0  0
 22 35  1  0  0  0
 23 24  1  0  0  0
 23 36  1  0  0  0
 24 25  2  0  0  0
 24 37  1  0  0  0
 25 38  1  0  0  0
 26 27  3  0  0  0
M  END
> <s_m_entry_id>
46397

> <s_m_entry_name>
dock_pv.138

> <s_m_Source_Path>
/home/csk/Desktop/cluster/DUD-E-result/wee1

> <s_m_Source_File>
dock_pv.maegz

> <i_m_Source_File_Index>
138

> <chembl_id>
CHEMBL209448

> <chembl_pref_name>
None

> <i_lp_mmshare_version>
53161

> <r_lp_tautomer_probability>
1

> <s_lp_Force_Field>
OPLS_2005

> <r_lp_Energy>
67.545149

> <b_lp_Chiralities_Consistent>
1

> <s_lp_Variant>
CHEMBL5491_lig110-1

> <s_i_glide_gridfile>
glide-grid_3biz

> <i_i_glide_lignum>
111

> <i_i_glide_rotatable_bonds>
2

> <r_i_docking_score>
-7.00917027648886

> <r_i_glide_ligand_efficiency>
-0.259598899129217

> <r_i_glide_ligand_efficiency_sa>
-0.778796696532056

> <r_i_glide_ligand_efficiency_ln>
-1.63161928516347

> <r_i_glide_gscore>
-7.00917027648886

> <r_i_glide_lipo>
-3.24050988995544

> <r_i_glide_hbond>
-0.00826234905497723

> <r_i_glide_metal>
0

> <r_i_glide_rewards>
-1.88458561696627

> <r_i_glide_evdw>
-39.6107864379883

> <r_i_glide_ecoul>
-0.321536362171173

> <r_i_glide_erotb>
0.152957355712914

> <r_i_glide_esite>
0

> <r_i_glide_emodel>
-54.6572107719152

> <r_i_glide_energy>
-39.9323228001595

> <r_i_glide_einternal>
4.18704462051392

> <i_i_glide_confnum>
1

> <i_i_glide_posenum>
329

> <r_i_glide_eff_state_penalty>
0

> <s_user_duplicate_titles>
CHEMBL5491_lig110,355836

> <i_f3d_flags>
0

> <s_m_subgroup_title>
dock_pv

> <s_m_subgroupid>
dock_pv

> <b_m_subgroup_collapsed>
1

$$$$
CHEMBL5491_lig172
                    3D
 Schrodinger Suite 2021-1.
 49 53  0  0  1  0            999 V2000
    5.3745   54.5172   20.8210 C   0  0  0  0  0  0
    6.4399   55.0645   21.5278 C   0  0  0  0  0  0
    6.4745   55.0612   22.9215 C   0  0  0  0  0  0
    4.2804   53.9652   21.4837 C   0  0  0  0  0  0
    4.2404   53.9992   22.8890 C   0  0  0  0  0  0
    5.3552   54.5441   23.5921 C   0  0  0  0  0  0
    5.0552   54.5014   24.9449 N   0  0  0  0  0  0
    3.2711   53.6161   23.8477 C   0  0  0  0  0  0
    3.7938   53.9509   25.1211 C   0  0  0  0  0  0
    3.0675   53.7250   26.2928 C   0  0  0  0  0  0
    1.7813   53.1826   26.2368 C   0  0  0  0  0  0
    1.9938   53.0204   23.8024 C   0  0  0  0  0  0
    1.2736   52.8284   24.9658 C   0  0  0  0  0  0
   -0.0492   52.2630   24.5448 C   0  0  0  0  0  0
    0.0319   52.0809   23.2181 N   0  0  0  0  0  0
    1.1818   52.4960   22.6701 C   0  0  0  0  0  0
   -1.0481   52.0136   25.2158 O   0  0  0  0  0  0
    1.4508   52.4308   21.4752 O   0  0  0  0  0  0
    5.4071   54.5227   19.4535 O   0  0  0  0  0  0
    1.0595   52.9810   27.5484 C   0  0  0  0  0  0
    1.0856   53.9229   28.6127 C   0  0  0  0  0  0
    0.4799   53.6478   29.8394 C   0  0  0  0  0  0
   -0.2157   52.4626   30.0272 C   0  0  0  0  0  0
   -0.3014   51.5545   28.9820 C   0  0  0  0  0  0
    0.3694   51.7826   27.7832 C   0  0  0  0  0  0
    1.8415   55.4681   28.5058 Cl  0  0  0  0  0  0
    5.8956   55.0611   26.0046 C   0  0  0  0  0  0
    6.6698   54.0187   26.8446 C   0  0  0  0  0  0
    5.9041   53.3226   27.9828 C   0  0  0  0  0  0
    5.2783   54.2621   29.0359 C   0  0  0  0  0  0
    7.2738   55.4806   20.9832 H   0  0  0  0  0  0
    7.3089   55.4944   23.4466 H   0  0  0  0  0  0
    3.4628   53.5668   20.9088 H   0  0  0  0  0  0
    3.4872   53.9720   27.2428 H   0  0  0  0  0  0
   -0.7148   51.6754   22.6787 H   0  0  0  0  0  0
    4.6490   54.0918   19.0524 H   0  0  0  0  0  0
    0.5383   54.3633   30.6456 H   0  0  0  0  0  0
   -0.7071   52.2558   30.9670 H   0  0  0  0  0  0
   -0.8864   50.6633   29.1093 H   0  0  0  0  0  0
    0.3341   51.0075   27.0303 H   0  0  0  0  0  0
    6.5923   55.7758   25.5662 H   0  0  0  0  0  0
    5.2477   55.6579   26.6283 H   0  0  0  0  0  0
    7.0568   53.2452   26.1810 H   0  0  0  0  0  0
    7.5390   54.5075   27.2880 H   0  0  0  0  0  0
    5.1511   52.6571   27.5636 H   0  0  0  0  0  0
    6.6011   52.6589   28.4886 H   0  0  0  0  0  0
    4.6021   53.7060   29.6865 H   0  0  0  0  0  0
    6.0358   54.7270   29.6677 H   0  0  0  0  0  0
    4.6932   55.0699   28.6100 H   0  0  0  0  0  0
  1  2  2  0  0  0
  1 19  1  0  0  0
  1  4  1  0  0  0
  2  3  1  0  0  0
  2 31  1  0  0  0
  3  6  2  0  0  0
  3 32  1  0  0  0
  4  5  2  0  0  0
  4 33  1  0  0  0
  5  8  1  0  0  0
  5  6  1  0  0  0
  6  7  1  0  0  0
  7  9  1  0  0  0
  7 27  1  0  0  0
  8  9  2  0  0  0
  8 12  1  0  0  0
  9 10  1  0  0  0
 10 11  2  0  0  0
 10 34  1  0  0  0
 11 13  1  0  0  0
 11 20  1  0  0  0
 12 16  1  0  0  0
 12 13  2  0  0  0
 13 14  1  0  0  0
 14 15  1  0  0  0
 14 17  2  0  0  0
 15 16  1  0  0  0
 15 35  1  0  0  0
 16 18  2  0  0  0
 19 36  1  0  0  0
 20 21  2  0  0  0
 20 25  1  0  0  0
 21 22  1  0  0  0
 21 26  1  0  0  0
 22 23  2  0  0  0
 22 37  1  0  0  0
 23 24  1  0  0  0
 23 38  1  0  0  0
 24 25  2  0  0  0
 24 39  1  0  0  0
 25 40  1  0  0  0
 27 28  1  0  0  0
 27 41  1  0  0  0
 27 42  1  0  0  0
 28 29  1  0  0  0
 28 43  1  0  0  0
 28 44  1  0  0  0
 29 30  1  0  0  0
 29 45  1  0  0  0
 29 46  1  0  0  0
 30 47  1  0  0  0
 30 48  1  0  0  0
 30 49  1  0  0  0
M  END
> <s_m_entry_id>
46398

> <s_m_entry_name>
dock_pv.139

> <s_m_Source_Path>
/home/csk/Desktop/cluster/DUD-E-result/wee1

> <s_m_Source_File>
dock_pv.maegz

> <i_m_Source_File_Index>
139

> <chembl_id>
CHEMBL215900

> <chembl_pref_name>
None

> <i_lp_mmshare_version>
53161

> <r_lp_tautomer_probability>
1

> <s_lp_Force_Field>
OPLS_2005

> <r_lp_Energy>
68.322455

> <b_lp_Chiralities_Consistent>
1

> <s_lp_Variant>
CHEMBL5491_lig172-1

> <s_i_glide_gridfile>
glide-grid_3biz

> <i_i_glide_lignum>
176

> <i_i_glide_rotatable_bonds>
5

> <r_i_docking_score>
-6.98478788157243

> <r_i_glide_ligand_efficiency>
-0.232826262719081

> <r_i_glide_ligand_efficiency_sa>
-0.723445330940289

> <r_i_glide_ligand_efficiency_ln>
-1.58701991205279

> <r_i_glide_gscore>
-6.98478788157243

> <r_i_glide_lipo>
-4.00335062278115

> <r_i_glide_hbond>
0

> <r_i_glide_metal>
0

> <r_i_glide_rewards>
-1.13393426685199

> <r_i_glide_evdw>
-39.7620735168457

> <r_i_glide_ecoul>
-1.31718468666077

> <r_i_glide_erotb>
0.338178386902111

> <r_i_glide_esite>
0

> <r_i_glide_emodel>
-57.7838552657548

> <r_i_glide_energy>
-41.0792582035065

> <r_i_glide_einternal>
3.48528337478638

> <i_i_glide_confnum>
6

> <i_i_glide_posenum>
300

> <r_i_glide_eff_state_penalty>
0

> <s_user_duplicate_titles>
CHEMBL5491_lig172,355980

> <i_f3d_flags>
0

> <s_m_subgroup_title>
dock_pv

> <s_m_subgroupid>
dock_pv

> <b_m_subgroup_collapsed>
1

$$$$
CHEMBL5491_lig304
                    3D
 Schrodinger Suite 2021-1.
 40 44  0  0  1  0            999 V2000
    7.2042   55.5727   21.6201 N   0  0  0  0  0  0
    6.3050   54.8643   22.3497 C   0  0  0  0  0  0
    5.3229   54.0649   21.8578 N   0  0  0  0  0  0
    5.2002   53.9483   20.5083 C   0  0  0  0  0  0
    4.2320   53.1042   19.9492 N   0  0  0  0  0  0
    3.5391   52.1163   20.7650 C   0  0  0  0  0  0
    6.4788   54.9741   23.7307 N   0  0  0  0  0  0
    5.6664   54.6569   24.8327 C   0  0  0  0  0  0
    6.2511   54.8004   26.0937 C   0  0  0  0  0  0
    3.5273   54.0081   25.8253 C   0  0  0  0  0  0
    4.3251   54.2655   24.7117 C   0  0  0  0  0  0
    7.0732   55.4632   20.2962 C   0  0  0  0  0  0
    6.0785   54.6697   19.6947 C   0  0  0  0  0  0
    6.1650   54.7163   18.3311 O   0  0  0  0  0  0
    7.2188   55.5427   18.0612 C   0  0  0  0  0  0
    7.8208   56.0205   19.2207 C   0  0  0  0  0  0
    2.4599   52.5959   21.7069 C   0  0  0  0  0  0
    2.0918   51.8619   20.4342 C   0  0  0  0  0  0
    4.0859   54.1733   27.0979 C   0  0  0  0  0  0
    5.4406   54.5654   27.2078 C   0  0  0  0  0  0
    5.6771   54.6630   28.5605 N   0  0  0  0  0  0
    4.5774   54.3773   29.2845 N   0  0  0  0  0  0
    3.6241   54.0588   28.4453 C   0  0  0  0  0  0
    2.2468   53.6787   28.9423 C   0  0  0  0  0  0
    4.2832   52.9248   18.9555 H   0  0  0  0  0  0
    4.1573   51.2686   21.0630 H   0  0  0  0  0  0
    7.3422   55.4476   23.9506 H   0  0  0  0  0  0
    7.2787   55.0989   26.2104 H   0  0  0  0  0  0
    2.4947   53.7106   25.7107 H   0  0  0  0  0  0
    3.8562   54.1728   23.7462 H   0  0  0  0  0  0
    7.4329   55.6856   17.0106 H   0  0  0  0  0  0
    8.6844   56.6652   19.2718 H   0  0  0  0  0  0
    2.3540   52.0892   22.6674 H   0  0  0  0  0  0
    2.2779   53.6687   21.7805 H   0  0  0  0  0  0
    1.6379   52.4178   19.6124 H   0  0  0  0  0  0
    1.7326   50.8354   20.4887 H   0  0  0  0  0  0
    6.5294   54.9753   29.0156 H   0  0  0  0  0  0
    1.8501   52.8082   28.4087 H   0  0  0  0  0  0
    1.5334   54.4947   28.8032 H   0  0  0  0  0  0
    2.2406   53.4262   30.0077 H   0  0  0  0  0  0
  1 12  1  0  0  0
  1  2  2  0  0  0
  2  3  1  0  0  0
  2  7  1  0  0  0
  3  4  2  0  0  0
  4 13  1  0  0  0
  4  5  1  0  0  0
  5  6  1  0  0  0
  5 25  1  0  0  0
  6 17  1  0  0  0
  6 18  1  0  0  0
  6 26  1  0  0  0
  7  8  1  0  0  0
  7 27  1  0  0  0
  8  9  2  0  0  0
  8 11  1  0  0  0
  9 20  1  0  0  0
  9 28  1  0  0  0
 10 19  1  0  0  0
 10 11  2  0  0  0
 10 29  1  0  0  0
 11 30  1  0  0  0
 12 13  2  0  0  0
 12 16  1  0  0  0
 13 14  1  0  0  0
 14 15  1  0  0  0
 15 16  2  0  0  0
 15 31  1  0  0  0
 16 32  1  0  0  0
 17 18  1  0  0  0
 17 33  1  0  0  0
 17 34  1  0  0  0
 18 35  1  0  0  0
 18 36  1  0  0  0
 19 20  2  0  0  0
 19 23  1  0  0  0
 20 21  1  0  0  0
 21 22  1  0  0  0
 21 37  1  0  0  0
 22 23  2  0  0  0
 23 24  1  0  0  0
 24 38  1  0  0  0
 24 39  1  0  0  0
 24 40  1  0  0  0
M  END
> <s_m_entry_id>
46399

> <s_m_entry_name>
dock_pv.140

> <s_m_Source_Path>
/home/csk/Desktop/cluster/DUD-E-result/wee1

> <s_m_Source_File>
dock_pv.maegz

> <i_m_Source_File_Index>
140

> <chembl_id>
CHEMBL4062803

> <chembl_pref_name>
None

> <i_lp_mmshare_version>
53161

> <r_lp_tautomer_probability>
1

> <s_lp_Force_Field>
OPLS_2005

> <r_lp_Energy>
18.43402

> <b_lp_Chiralities_Consistent>
1

> <s_lp_Variant>
CHEMBL5491_lig304-1

> <s_i_glide_gridfile>
glide-grid_3biz

> <i_i_glide_lignum>
321

> <i_i_glide_rotatable_bonds>
4

> <r_i_docking_score>
-6.98453565747616

> <r_i_glide_ligand_efficiency>
-0.291022319061507

> <r_i_glide_ligand_efficiency_sa>
-0.839453628343371

> <r_i_glide_ligand_efficiency_ln>
-1.67171988229134

> <r_i_glide_gscore>
-6.98453565747616

> <r_i_glide_lipo>
-2.54594413193207

> <r_i_glide_hbond>
-0.404601293412837

> <r_i_glide_metal>
0

> <r_i_glide_rewards>
-2.34662788756886

> <r_i_glide_evdw>
-39.417121887207

> <r_i_glide_ecoul>
-2.87396240234375

> <r_i_glide_erotb>
0.727769386914537

> <r_i_glide_esite>
-0.0131812767650157

> <r_i_glide_emodel>
-59.4326374347205

> <r_i_glide_energy>
-42.2910842895508

> <r_i_glide_einternal>
1.50365996360779

> <i_i_glide_confnum>
1

> <i_i_glide_posenum>
74

> <r_i_glide_eff_state_penalty>
0

> <s_user_duplicate_titles>
CHEMBL5491_lig304

> <i_f3d_flags>
0

> <s_m_subgroup_title>
dock_pv

> <s_m_subgroupid>
dock_pv

> <b_m_subgroup_collapsed>
1

$$$$
CHEMBL5491_lig102
                    3D
 Schrodinger Suite 2021-1.
 36 40  0  0  1  0            999 V2000
    2.8014   53.8215   29.1484 C   0  0  0  0  0  0
    4.0717   54.1910   29.5841 C   0  0  0  0  0  0
    5.1017   54.4608   28.6854 C   0  0  0  0  0  0
    2.5203   53.6723   27.7855 C   0  0  0  0  0  0
    3.5433   53.9225   26.8473 C   0  0  0  0  0  0
    4.8118   54.3235   27.3259 C   0  0  0  0  0  0
    5.6782   54.5495   26.2865 O   0  0  0  0  0  0
    3.6667   53.8630   25.4472 C   0  0  0  0  0  0
    4.9847   54.2636   25.1389 C   0  0  0  0  0  0
    5.4829   54.3229   23.8336 C   0  0  0  0  0  0
    4.6364   53.9637   22.7708 C   0  0  0  0  0  0
    2.8509   53.4633   24.3745 C   0  0  0  0  0  0
    3.3294   53.4979   23.0768 C   0  0  0  0  0  0
    2.2302   52.9213   22.2275 C   0  0  0  0  0  0
    1.2169   52.6527   23.0647 N   0  0  0  0  0  0
    1.4810   52.8977   24.3531 C   0  0  0  0  0  0
    2.1978   52.6655   21.0275 O   0  0  0  0  0  0
    0.7274   52.6626   25.2902 O   0  0  0  0  0  0
    1.8194   53.6041   30.0807 O   0  0  0  0  0  0
    5.1710   54.1348   21.3799 C   0  0  0  0  0  0
    5.2374   53.0899   20.4415 C   0  0  0  0  0  0
    5.6781   53.3310   19.1365 C   0  0  0  0  0  0
    6.1146   54.5960   18.7601 C   0  0  0  0  0  0
    6.1338   55.6229   19.6947 C   0  0  0  0  0  0
    5.6790   55.3872   20.9898 C   0  0  0  0  0  0
    4.8790   51.4634   20.8872 Cl  0  0  0  0  0  0
    4.2645   54.2659   30.6435 H   0  0  0  0  0  0
    6.0793   54.7607   29.0259 H   0  0  0  0  0  0
    1.5309   53.3747   27.4800 H   0  0  0  0  0  0
    6.4970   54.6494   23.6520 H   0  0  0  0  0  0
    0.3550   52.2334   22.7551 H   0  0  0  0  0  0
    2.0821   53.8754   30.9686 H   0  0  0  0  0  0
    5.7028   52.5291   18.4144 H   0  0  0  0  0  0
    6.4494   54.7743   17.7487 H   0  0  0  0  0  0
    6.4886   56.6022   19.4109 H   0  0  0  0  0  0
    5.6817   56.2096   21.6865 H   0  0  0  0  0  0
  1  2  2  0  0  0
  1 19  1  0  0  0
  1  4  1  0  0  0
  2  3  1  0  0  0
  2 27  1  0  0  0
  3  6  2  0  0  0
  3 28  1  0  0  0
  4  5  2  0  0  0
  4 29  1  0  0  0
  5  8  1  0  0  0
  5  6  1  0  0  0
  6  7  1  0  0  0
  7  9  1  0  0  0
  8  9  2  0  0  0
  8 12  1  0  0  0
  9 10  1  0  0  0
 10 11  2  0  0  0
 10 30  1  0  0  0
 11 13  1  0  0  0
 11 20  1  0  0  0
 12 13  2  0  0  0
 12 16  1  0  0  0
 13 14  1  0  0  0
 14 15  1  0  0  0
 14 17  2  0  0  0
 15 16  1  0  0  0
 15 31  1  0  0  0
 16 18  2  0  0  0
 19 32  1  0  0  0
 20 21  2  0  0  0
 20 25  1  0  0  0
 21 22  1  0  0  0
 21 26  1  0  0  0
 22 23  2  0  0  0
 22 33  1  0  0  0
 23 24  1  0  0  0
 23 34  1  0  0  0
 24 25  2  0  0  0
 24 35  1  0  0  0
 25 36  1  0  0  0
M  END
> <s_m_entry_id>
46400

> <s_m_entry_name>
dock_pv.141

> <s_m_Source_Path>
/home/csk/Desktop/cluster/DUD-E-result/wee1

> <s_m_Source_File>
dock_pv.maegz

> <i_m_Source_File_Index>
141

> <chembl_id>
CHEMBL386398

> <chembl_pref_name>
None

> <i_lp_mmshare_version>
53161

> <r_lp_tautomer_probability>
1

> <s_lp_Force_Field>
OPLS_2005

> <r_lp_Energy>
60.021317

> <b_lp_Chiralities_Consistent>
1

> <s_lp_Variant>
CHEMBL5491_lig102-1

> <s_i_glide_gridfile>
glide-grid_3biz

> <i_i_glide_lignum>
103

> <i_i_glide_rotatable_bonds>
2

> <r_i_docking_score>
-6.9779159395047

> <r_i_glide_ligand_efficiency>
-0.268381382288643

> <r_i_glide_ligand_efficiency_sa>
-0.795078789000358

> <r_i_glide_ligand_efficiency_ln>
-1.63874066198297

> <r_i_glide_gscore>
-6.9779159395047

> <r_i_glide_lipo>
-3.20269538984989

> <r_i_glide_hbond>
-0.32

> <r_i_glide_metal>
0

> <r_i_glide_rewards>
-1.36003914077114

> <r_i_glide_evdw>
-33.7451248168945

> <r_i_glide_ecoul>
-3.68775010108948

> <r_i_glide_erotb>
0.145237347124476

> <r_i_glide_esite>
0

> <r_i_glide_emodel>
-51.0253306209395

> <r_i_glide_energy>
-37.432874917984

> <r_i_glide_einternal>
2.79040050506592

> <i_i_glide_confnum>
1

> <i_i_glide_posenum>
103

> <r_i_glide_eff_state_penalty>
0

> <s_user_duplicate_titles>
CHEMBL5491_lig102,355899

> <i_f3d_flags>
0

> <s_m_subgroup_title>
dock_pv

> <s_m_subgroupid>
dock_pv

> <b_m_subgroup_collapsed>
1

$$$$
CHEMBL5491_lig9
                    3D
 Schrodinger Suite 2021-1.
 39 41  0  0  1  0            999 V2000
    6.9151   55.0629   27.2870 O   0  0  0  0  0  0
    3.0427   53.7805   24.7860 N   0  0  0  0  0  0
    1.7590   53.3606   24.7845 N   0  0  0  0  0  0
    4.9921   54.4186   26.0229 N   0  0  0  0  0  0
    2.9636   53.8580   27.1894 N   0  0  0  0  0  0
    4.8321   54.2628   23.2216 N   0  0  0  0  0  0
    3.5380   53.8631   23.4835 C   0  0  0  0  0  0
    3.6868   54.0332   26.0438 C   0  0  0  0  0  0
    1.4166   53.1617   23.5390 C   0  0  0  0  0  0
    2.4737   53.4627   22.6864 C   0  0  0  0  0  0
    5.6202   54.6459   27.2029 C   0  0  0  0  0  0
    3.6089   54.0788   28.3623 C   0  0  0  0  0  0
    5.4988   54.6629   22.0527 C   0  0  0  0  0  0
    4.9465   54.4757   28.4157 C   0  0  0  0  0  0
    0.0312   52.6608   23.2155 C   0  0  0  0  0  0
    6.7592   55.2400   22.2299 C   0  0  0  0  0  0
    4.9725   54.5498   20.7619 C   0  0  0  0  0  0
    2.7910   53.8794   29.6225 C   0  0  0  0  0  0
    7.4819   55.7141   21.1386 C   0  0  0  0  0  0
    5.6980   55.0146   19.6669 C   0  0  0  0  0  0
    6.9541   55.5930   19.8542 C   0  0  0  0  0  0
    7.7396   56.1023   18.6593 C   0  0  0  0  0  0
    7.1686   55.2988   28.1921 H   0  0  0  0  0  0
    5.4177   54.4142   24.0314 H   0  0  0  0  0  0
    2.4363   53.3763   21.6134 H   0  0  0  0  0  0
    5.4338   54.6620   29.3608 H   0  0  0  0  0  0
   -0.1587   52.6617   22.1425 H   0  0  0  0  0  0
   -0.1101   51.6378   23.5646 H   0  0  0  0  0  0
   -0.7421   53.2687   23.6868 H   0  0  0  0  0  0
    7.1869   55.3399   23.2182 H   0  0  0  0  0  0
    4.0073   54.1170   20.5761 H   0  0  0  0  0  0
    3.4406   53.7443   30.4863 H   0  0  0  0  0  0
    2.1554   54.7473   29.8059 H   0  0  0  0  0  0
    2.1552   52.9958   29.5429 H   0  0  0  0  0  0
    8.4555   56.1591   21.2965 H   0  0  0  0  0  0
    5.2793   54.9216   18.6756 H   0  0  0  0  0  0
    7.0704   56.5185   17.9052 H   0  0  0  0  0  0
    8.3107   55.2926   18.2037 H   0  0  0  0  0  0
    8.4260   56.9006   18.9448 H   0  0  0  0  0  0
  1 11  1  0  0  0
  1 23  1  0  0  0
  2  3  1  0  0  0
  2  7  1  0  0  0
  2  8  1  0  0  0
  3  9  2  0  0  0
  4  8  2  0  0  0
  4 11  1  0  0  0
  5  8  1  0  0  0
  5 12  2  0  0  0
  6  7  1  0  0  0
  6 13  1  0  0  0
  6 24  1  0  0  0
  7 10  2  0  0  0
  9 10  1  0  0  0
  9 15  1  0  0  0
 10 25  1  0  0  0
 11 14  2  0  0  0
 12 14  1  0  0  0
 12 18  1  0  0  0
 13 16  2  0  0  0
 13 17  1  0  0  0
 14 26  1  0  0  0
 15 27  1  0  0  0
 15 28  1  0  0  0
 15 29  1  0  0  0
 16 19  1  0  0  0
 16 30  1  0  0  0
 17 20  2  0  0  0
 17 31  1  0  0  0
 18 32  1  0  0  0
 18 33  1  0  0  0
 18 34  1  0  0  0
 19 21  2  0  0  0
 19 35  1  0  0  0
 20 21  1  0  0  0
 20 36  1  0  0  0
 21 22  1  0  0  0
 22 37  1  0  0  0
 22 38  1  0  0  0
 22 39  1  0  0  0
M  END
> <s_m_entry_id>
46401

> <s_m_entry_name>
dock_pv.142

> <s_m_Source_Path>
/home/csk/Desktop/cluster/DUD-E-result/wee1

> <s_m_Source_File>
dock_pv.maegz

> <i_m_Source_File_Index>
142

> <chembl_id>
CHEMBL586135

> <chembl_pref_name>
None

> <i_lp_mmshare_version>
53161

> <r_lp_tautomer_probability>
1

> <s_lp_Force_Field>
OPLS_2005

> <r_lp_Energy>
9.651044

> <b_lp_Chiralities_Consistent>
1

> <s_lp_Variant>
CHEMBL5491_lig9-1

> <s_i_glide_gridfile>
glide-grid_3biz

> <i_i_glide_lignum>
9

> <i_i_glide_rotatable_bonds>
4

> <r_i_docking_score>
-6.97624413289755

> <r_i_glide_ligand_efficiency>
-0.317102006040798

> <r_i_glide_ligand_efficiency_sa>
-0.88853229184054

> <r_i_glide_ligand_efficiency_ln>
-1.7052485307677

> <r_i_glide_gscore>
-6.97624413289755

> <r_i_glide_lipo>
-2.30452676947583

> <r_i_glide_hbond>
-0.472891139608318

> <r_i_glide_metal>
0

> <r_i_glide_rewards>
-1.86135080018629

> <r_i_glide_evdw>
-34.7801856994629

> <r_i_glide_ecoul>
-8.18645000457764

> <r_i_glide_erotb>
0.629501362032675

> <r_i_glide_esite>
0

> <r_i_glide_emodel>
-59.5368712176739

> <r_i_glide_energy>
-42.9666357040405

> <r_i_glide_einternal>
1.94667530059814

> <i_i_glide_confnum>
5

> <i_i_glide_posenum>
356

> <r_i_glide_eff_state_penalty>
0

> <s_user_duplicate_titles>
CHEMBL5491_lig9

> <i_f3d_flags>
0

> <s_m_subgroup_title>
dock_pv

> <s_m_subgroupid>
dock_pv

> <b_m_subgroup_collapsed>
1

$$$$
CHEMBL5491_lig154
                    3D
 Schrodinger Suite 2021-1.
 43 47  0  0  1  0            999 V2000
    5.7544   54.7433   19.7499 C   0  0  0  0  0  0
    6.9353   55.3843   20.1130 C   0  0  0  0  0  0
    7.3046   55.5399   21.4493 C   0  0  0  0  0  0
    4.8733   54.2614   20.7161 C   0  0  0  0  0  0
    5.1802   54.4459   22.0771 C   0  0  0  0  0  0
    6.4131   55.0685   22.4190 C   0  0  0  0  0  0
    6.4783   55.1234   23.7951 N   0  0  0  0  0  0
    4.4943   54.1671   23.2860 C   0  0  0  0  0  0
    5.2969   54.6616   24.3482 C   0  0  0  0  0  0
    4.8658   54.6388   25.6813 C   0  0  0  0  0  0
    3.6657   53.9761   26.0010 C   0  0  0  0  0  0
    3.2660   53.5619   23.6187 C   0  0  0  0  0  0
    2.8791   53.4627   24.9407 C   0  0  0  0  0  0
    1.6045   52.6689   24.9368 C   0  0  0  0  0  0
    1.3206   52.4286   23.6488 N   0  0  0  0  0  0
    2.2408   52.8716   22.7843 C   0  0  0  0  0  0
    0.9201   52.2676   25.8738 O   0  0  0  0  0  0
    2.2095   52.6797   21.5742 O   0  0  0  0  0  0
    5.4619   54.5867   18.4221 O   0  0  0  0  0  0
    3.3070   53.7730   27.4535 C   0  0  0  0  0  0
    4.2259   53.2837   28.4132 C   0  0  0  0  0  0
    3.7946   52.9631   29.7065 C   0  0  0  0  0  0
    2.4718   53.1331   30.0862 C   0  0  0  0  0  0
    1.5683   53.6603   29.1733 C   0  0  0  0  0  0
    1.9970   54.0138   27.8917 C   0  0  0  0  0  0
    5.6904   53.0316   28.0973 C   0  0  0  0  0  0
    0.1059   53.7505   29.5352 C   0  0  0  0  0  0
    7.5970   55.7428   19.3376 H   0  0  0  0  0  0
    8.2363   56.0189   21.7137 H   0  0  0  0  0  0
    3.9541   53.7928   20.4059 H   0  0  0  0  0  0
    7.2561   55.5066   24.3100 H   0  0  0  0  0  0
    5.4814   55.0651   26.4581 H   0  0  0  0  0  0
    0.5141   51.8986   23.3620 H   0  0  0  0  0  0
    4.6762   54.0573   18.2619 H   0  0  0  0  0  0
    4.4793   52.5546   30.4330 H   0  0  0  0  0  0
    2.1534   52.8592   31.0821 H   0  0  0  0  0  0
    1.2728   54.4114   27.1998 H   0  0  0  0  0  0
    5.8398   52.6628   27.0846 H   0  0  0  0  0  0
    6.2878   53.9308   28.2485 H   0  0  0  0  0  0
    6.0788   52.2631   28.7500 H   0  0  0  0  0  0
   -0.4756   53.7021   28.6168 H   0  0  0  0  0  0
   -0.1965   52.8989   30.1472 H   0  0  0  0  0  0
   -0.1079   54.6629   30.0886 H   0  0  0  0  0  0
  1  2  2  0  0  0
  1 19  1  0  0  0
  1  4  1  0  0  0
  2  3  1  0  0  0
  2 28  1  0  0  0
  3  6  2  0  0  0
  3 29  1  0  0  0
  4  5  2  0  0  0
  4 30  1  0  0  0
  5  8  1  0  0  0
  5  6  1  0  0  0
  6  7  1  0  0  0
  7  9  1  0  0  0
  7 31  1  0  0  0
  8  9  2  0  0  0
  8 12  1  0  0  0
  9 10  1  0  0  0
 10 11  2  0  0  0
 10 32  1  0  0  0
 11 13  1  0  0  0
 11 20  1  0  0  0
 12 16  1  0  0  0
 12 13  2  0  0  0
 13 14  1  0  0  0
 14 15  1  0  0  0
 14 17  2  0  0  0
 15 16  1  0  0  0
 15 33  1  0  0  0
 16 18  2  0  0  0
 19 34  1  0  0  0
 20 21  2  0  0  0
 20 25  1  0  0  0
 21 22  1  0  0  0
 21 26  1  0  0  0
 22 23  2  0  0  0
 22 35  1  0  0  0
 23 24  1  0  0  0
 23 36  1  0  0  0
 24 25  2  0  0  0
 24 27  1  0  0  0
 25 37  1  0  0  0
 26 38  1  0  0  0
 26 39  1  0  0  0
 26 40  1  0  0  0
 27 41  1  0  0  0
 27 42  1  0  0  0
 27 43  1  0  0  0
M  END
> <s_m_entry_id>
46402

> <s_m_entry_name>
dock_pv.143

> <s_m_Source_Path>
/home/csk/Desktop/cluster/DUD-E-result/wee1

> <s_m_Source_File>
dock_pv.maegz

> <i_m_Source_File_Index>
143

> <chembl_id>
CHEMBL384635

> <chembl_pref_name>
None

> <i_lp_mmshare_version>
53161

> <r_lp_tautomer_probability>
1

> <s_lp_Force_Field>
OPLS_2005

> <r_lp_Energy>
66.787702

> <b_lp_Chiralities_Consistent>
1

> <s_lp_Variant>
CHEMBL5491_lig154-1

> <s_i_glide_gridfile>
glide-grid_3biz

> <i_i_glide_lignum>
157

> <i_i_glide_rotatable_bonds>
2

> <r_i_docking_score>
-6.97070607030023

> <r_i_glide_ligand_efficiency>
-0.258174298900009

> <r_i_glide_ligand_efficiency_sa>
-0.774522895849126

> <r_i_glide_ligand_efficiency_ln>
-1.62266545209476

> <r_i_glide_gscore>
-6.97070607030023

> <r_i_glide_lipo>
-3.76363048210812

> <r_i_glide_hbond>
0

> <r_i_glide_metal>
0

> <r_i_glide_rewards>
-1.4243170978985

> <r_i_glide_evdw>
-38.7431106567383

> <r_i_glide_ecoul>
0.0250497609376907

> <r_i_glide_erotb>
0.150639578402643

> <r_i_glide_esite>
0

> <r_i_glide_emodel>
-51.6267213411405

> <r_i_glide_energy>
-38.7180608958006

> <r_i_glide_einternal>
4.34917545318604

> <i_i_glide_confnum>
1

> <i_i_glide_posenum>
6

> <r_i_glide_eff_state_penalty>
0

> <s_user_duplicate_titles>
CHEMBL5491_lig154,355787

> <i_f3d_flags>
0

> <s_m_subgroup_title>
dock_pv

> <s_m_subgroupid>
dock_pv

> <b_m_subgroup_collapsed>
1

$$$$
CHEMBL5491_lig52
                    3D
 Schrodinger Suite 2021-1.
 47 50  0  0  1  0            999 V2000
    4.3951   54.2014   25.9688 N   0  0  0  0  0  0
    2.3676   53.5341   27.0942 C   0  0  0  0  0  0
    3.7798   54.0170   24.6929 C   0  0  0  0  0  0
    3.8098   53.8572   27.1668 C   0  0  0  0  0  0
    4.4850   54.2605   23.5526 N   0  0  0  0  0  0
    2.4757   53.5146   24.6401 C   0  0  0  0  0  0
    1.7725   53.3110   25.8963 C   0  0  0  0  0  0
    3.8610   53.9887   22.3737 C   0  0  0  0  0  0
    1.5514   53.4198   28.3489 C   0  0  0  0  0  0
    2.6189   53.4630   22.2513 N   0  0  0  0  0  0
    1.9305   53.2323   23.3922 C   0  0  0  0  0  0
    4.4791   54.2579   21.1492 N   0  0  0  0  0  0
    4.4425   53.8021   28.2256 O   0  0  0  0  0  0
    0.7541   52.2710   28.6052 C   0  0  0  0  0  0
    1.5260   54.4689   29.3045 C   0  0  0  0  0  0
    5.7977   54.6654   25.9880 C   0  0  0  0  0  0
    5.7009   54.8248   20.7580 C   0  0  0  0  0  0
    0.0822   53.1737   30.7476 C   0  0  0  0  0  0
    0.0266   52.1734   29.7927 C   0  0  0  0  0  0
    0.8047   54.3254   30.4878 C   0  0  0  0  0  0
    0.6715   51.0715   27.6623 C   0  0  0  0  0  0
    2.2154   55.8179   29.1027 C   0  0  0  0  0  0
    5.9957   54.8087   19.3926 C   0  0  0  0  0  0
    6.6255   55.3759   21.6539 C   0  0  0  0  0  0
    7.2041   55.3202   18.9242 C   0  0  0  0  0  0
    7.8418   55.8628   21.1885 C   0  0  0  0  0  0
    8.1257   55.8418   19.8259 C   0  0  0  0  0  0
    0.7240   53.0637   25.8540 H   0  0  0  0  0  0
    0.9361   52.8225   23.2855 H   0  0  0  0  0  0
    3.8773   54.0090   20.3769 H   0  0  0  0  0  0
    6.4382   53.9442   25.4787 H   0  0  0  0  0  0
    5.8837   55.6159   25.4627 H   0  0  0  0  0  0
    6.2031   54.8151   26.9903 H   0  0  0  0  0  0
   -0.4562   53.0634   31.6765 H   0  0  0  0  0  0
   -0.5744   51.2980   29.9964 H   0  0  0  0  0  0
    0.8118   55.1096   31.2310 H   0  0  0  0  0  0
    1.6662   50.6886   27.4407 H   0  0  0  0  0  0
    0.0789   50.2651   28.0862 H   0  0  0  0  0  0
    0.1718   51.3052   26.7275 H   0  0  0  0  0  0
    3.2847   55.7589   29.3018 H   0  0  0  0  0  0
    2.0783   56.1722   28.0855 H   0  0  0  0  0  0
    1.7968   56.5964   29.7456 H   0  0  0  0  0  0
    5.2955   54.3886   18.6843 H   0  0  0  0  0  0
    6.4414   55.4170   22.7142 H   0  0  0  0  0  0
    7.4305   55.2995   17.8679 H   0  0  0  0  0  0
    8.5624   56.2619   21.8860 H   0  0  0  0  0  0
    9.0731   56.2226   19.4711 H   0  0  0  0  0  0
  1  3  1  0  0  0
  1  4  1  0  0  0
  1 16  1  0  0  0
  2  4  1  0  0  0
  2  7  2  0  0  0
  2  9  1  0  0  0
  3  5  2  0  0  0
  3  6  1  0  0  0
  4 13  2  0  0  0
  5  8  1  0  0  0
  6 11  2  0  0  0
  6  7  1  0  0  0
  7 28  1  0  0  0
  8 12  1  0  0  0
  8 10  2  0  0  0
  9 14  2  0  0  0
  9 15  1  0  0  0
 10 11  1  0  0  0
 11 29  1  0  0  0
 12 17  1  0  0  0
 12 30  1  0  0  0
 14 19  1  0  0  0
 14 21  1  0  0  0
 15 20  2  0  0  0
 15 22  1  0  0  0
 16 31  1  0  0  0
 16 32  1  0  0  0
 16 33  1  0  0  0
 17 23  2  0  0  0
 17 24  1  0  0  0
 18 20  1  0  0  0
 18 19  2  0  0  0
 18 34  1  0  0  0
 19 35  1  0  0  0
 20 36  1  0  0  0
 21 37  1  0  0  0
 21 38  1  0  0  0
 21 39  1  0  0  0
 22 40  1  0  0  0
 22 41  1  0  0  0
 22 42  1  0  0  0
 23 25  1  0  0  0
 23 43  1  0  0  0
 24 26  2  0  0  0
 24 44  1  0  0  0
 25 27  2  0  0  0
 25 45  1  0  0  0
 26 27  1  0  0  0
 26 46  1  0  0  0
 27 47  1  0  0  0
M  END
> <s_m_entry_id>
46403

> <s_m_entry_name>
dock_pv.144

> <s_m_Source_Path>
/home/csk/Desktop/cluster/DUD-E-result/wee1

> <s_m_Source_File>
dock_pv.maegz

> <i_m_Source_File_Index>
144

> <chembl_id>
CHEMBL359898

> <chembl_pref_name>
None

> <i_lp_mmshare_version>
53161

> <r_lp_tautomer_probability>
1

> <s_lp_Force_Field>
OPLS_2005

> <r_lp_Energy>
29.264842

> <b_lp_Chiralities_Consistent>
1

> <s_lp_Variant>
CHEMBL5491_lig52-1

> <s_i_glide_gridfile>
glide-grid_3biz

> <i_i_glide_lignum>
50

> <i_i_glide_rotatable_bonds>
3

> <r_i_docking_score>
-6.96827498832424

> <r_i_glide_ligand_efficiency>
-0.258084258826824

> <r_i_glide_ligand_efficiency_sa>
-0.774252775629868

> <r_i_glide_ligand_efficiency_ln>
-1.62209953629026

> <r_i_glide_gscore>
-6.96827498832424

> <r_i_glide_lipo>
-3.09745752576699

> <r_i_glide_hbond>
0

> <r_i_glide_metal>
0

> <r_i_glide_rewards>
-1.89844394263747

> <r_i_glide_evdw>
-42.9850120544434

> <r_i_glide_ecoul>
-1.8329131603241

> <r_i_glide_erotb>
0.451814056851002

> <r_i_glide_esite>
0

> <r_i_glide_emodel>
-61.3824749819939

> <r_i_glide_energy>
-44.8179252147675

> <r_i_glide_einternal>
4.38903570175171

> <i_i_glide_confnum>
2

> <i_i_glide_posenum>
36

> <r_i_glide_eff_state_penalty>
0

> <s_user_duplicate_titles>
CHEMBL5491_lig52,303308

> <i_f3d_flags>
0

> <s_m_subgroup_title>
dock_pv

> <s_m_subgroupid>
dock_pv

> <b_m_subgroup_collapsed>
1

$$$$
CHEMBL5491_lig294
                    3D
 Schrodinger Suite 2021-1.
 51 56  0  0  1  0            999 V2000
    1.1053   53.4914   30.0935 N   0  0  0  0  0  0
    0.4840   54.6626   30.4869 N   0  0  0  0  0  0
    1.2791   55.6686   30.1631 C   0  0  0  0  0  0
    2.4431   55.2002   29.5759 C   0  0  0  0  0  0
    2.2623   53.8400   29.5189 N   0  0  0  0  0  0
   -0.5693   50.4671   25.6321 C   0  0  0  0  0  0
   -0.3746   51.2127   26.7826 C   0  0  0  0  0  0
    0.5279   52.2636   26.8207 C   0  0  0  0  0  0
    0.1196   50.7640   24.4543 C   0  0  0  0  0  0
    1.0601   51.8170   24.4547 C   0  0  0  0  0  0
    1.2671   52.5377   25.6632 C   0  0  0  0  0  0
    2.2756   53.4601   25.4454 N   0  0  0  0  0  0
    1.9392   52.3641   23.4848 C   0  0  0  0  0  0
    2.6455   53.4280   24.1100 C   0  0  0  0  0  0
    3.5762   54.2089   23.4157 C   0  0  0  0  0  0
    3.9317   53.8542   22.1050 C   0  0  0  0  0  0
    2.2503   52.0780   22.1389 C   0  0  0  0  0  0
    3.2183   52.8095   21.4806 C   0  0  0  0  0  0
    3.2750   52.2679   20.0870 C   0  0  0  0  0  0
    2.4217   51.2330   20.0566 N   0  0  0  0  0  0
    1.7479   51.0348   21.2003 C   0  0  0  0  0  0
   -1.4508   49.4246   25.6869 O   0  0  0  0  0  0
    3.9255   52.6628   19.1248 O   0  0  0  0  0  0
    0.9042   50.1618   21.3842 O   0  0  0  0  0  0
    2.8757   54.3020   26.4790 C   0  0  0  0  0  0
    3.9620   53.6077   27.3352 C   0  0  0  0  0  0
    5.0827   54.5852   21.4631 C   0  0  0  0  0  0
    6.2877   54.8481   22.1553 C   0  0  0  0  0  0
    7.3125   55.5746   21.5452 C   0  0  0  0  0  0
    7.1920   56.0158   20.2326 C   0  0  0  0  0  0
    6.0228   55.7589   19.5307 C   0  0  0  0  0  0
    4.9852   55.0630   20.1465 C   0  0  0  0  0  0
    6.5924   54.2628   23.7593 Cl  0  0  0  0  0  0
    3.2820   52.6048   28.7535 S   0  0  1  0  0  0
    4.4428   52.2630   29.6871 O   0  0  0  0  0  0
    1.0363   56.6962   30.3884 H   0  0  0  0  0  0
    3.3282   55.6865   29.1973 H   0  0  0  0  0  0
   -0.9314   50.9670   27.6765 H   0  0  0  0  0  0
    0.6400   52.8370   27.7202 H   0  0  0  0  0  0
   -0.0620   50.1638   23.5790 H   0  0  0  0  0  0
    4.0772   55.0250   23.9109 H   0  0  0  0  0  0
    2.2993   50.6638   19.2332 H   0  0  0  0  0  0
   -1.5210   49.0530   26.5913 H   0  0  0  0  0  0
    2.0562   54.6630   27.0913 H   0  0  0  0  0  0
    3.3027   55.1808   26.0002 H   0  0  0  0  0  0
    4.6233   54.3556   27.7712 H   0  0  0  0  0  0
    4.6048   52.9778   26.7193 H   0  0  0  0  0  0
    8.2219   55.7847   22.0865 H   0  0  0  0  0  0
    8.0009   56.5543   19.7612 H   0  0  0  0  0  0
    5.9073   56.1127   18.5163 H   0  0  0  0  0  0
    4.0634   54.9596   19.5957 H   0  0  0  0  0  0
  1  5  1  0  0  0
  1  2  2  0  0  0
  2  3  1  0  0  0
  3  4  2  0  0  0
  3 36  1  0  0  0
  4  5  1  0  0  0
  4 37  1  0  0  0
  5 34  1  0  0  0
  6  9  2  0  0  0
  6 22  1  0  0  0
  6  7  1  0  0  0
  7  8  2  0  0  0
  7 38  1  0  0  0
  8 11  1  0  0  0
  8 39  1  0  0  0
  9 10  1  0  0  0
  9 40  1  0  0  0
 10 11  2  0  0  0
 10 13  1  0  0  0
 11 12  1  0  0  0
 12 25  1  0  0  0
 12 14  1  0  0  0
 13 17  1  0  0  0
 13 14  2  0  0  0
 14 15  1  0  0  0
 15 16  2  0  0  0
 15 41  1  0  0  0
 16 27  1  0  0  0
 16 18  1  0  0  0
 17 18  2  0  0  0
 17 21  1  0  0  0
 18 19  1  0  0  0
 19 20  1  0  0  0
 19 23  2  0  0  0
 20 21  1  0  0  0
 20 42  1  0  0  0
 21 24  2  0  0  0
 22 43  1  0  0  0
 25 26  1  0  0  0
 25 44  1  0  0  0
 25 45  1  0  0  0
 26 34  1  0  0  0
 26 46  1  0  0  0
 26 47  1  0  0  0
 27 28  1  0  0  0
 27 32  2  0  0  0
 28 29  2  0  0  0
 28 33  1  0  0  0
 29 30  1  0  0  0
 29 48  1  0  0  0
 30 31  2  0  0  0
 30 49  1  0  0  0
 31 32  1  0  0  0
 31 50  1  0  0  0
 32 51  1  0  0  0
 34 35  2  0  0  0
M  END
> <s_m_entry_id>
46404

> <s_m_entry_name>
dock_pv.145

> <s_m_Source_Path>
/home/csk/Desktop/cluster/DUD-E-result/wee1

> <s_m_Source_File>
dock_pv.maegz

> <i_m_Source_File_Index>
145

> <chembl_id>
CHEMBL486517

> <chembl_pref_name>
None

> <i_lp_mmshare_version>
53161

> <r_lp_tautomer_probability>
1

> <s_lp_Force_Field>
OPLS_2005

> <r_lp_Energy>
70.89647

> <b_lp_Chiralities_Consistent>
1

> <s_lp_Variant>
CHEMBL5491_lig294-1

> <s_i_glide_gridfile>
glide-grid_3biz

> <i_i_glide_lignum>
309

> <i_i_glide_rotatable_bonds>
6

> <r_i_docking_score>
-6.96182833945842

> <r_i_glide_ligand_efficiency>
-0.198909381127383

> <r_i_glide_ligand_efficiency_sa>
-0.650645774615155

> <r_i_glide_ligand_efficiency_ln>
-1.52827582996637

> <r_i_glide_gscore>
-6.96182833945842

> <r_i_glide_lipo>
-2.82189255072833

> <r_i_glide_hbond>
-0.16

> <r_i_glide_metal>
0

> <r_i_glide_rewards>
-0.819674894601558

> <r_i_glide_evdw>
-47.2174377441406

> <r_i_glide_ecoul>
-6.99167966842651

> <r_i_glide_erotb>
0.319674102473071

> <r_i_glide_esite>
-0.0703111591305915

> <r_i_glide_emodel>
-73.006191411951

> <r_i_glide_energy>
-54.2091174125671

> <r_i_glide_einternal>
8.34283828735352

> <i_i_glide_confnum>
9

> <i_i_glide_posenum>
63

> <r_i_glide_eff_state_penalty>
0

> <s_user_duplicate_titles>
CHEMBL5491_lig294,524020

> <i_f3d_flags>
0

> <s_m_subgroup_title>
dock_pv

> <s_m_subgroupid>
dock_pv

> <b_m_subgroup_collapsed>
1

$$$$
CHEMBL5491_lig219
                    3D
 Schrodinger Suite 2021-1.
 63 68  0  0  1  0            999 V2000
    2.5860   53.3365   29.5971 C   0  0  0  0  0  0
    3.6702   54.1598   29.3110 C   0  0  0  0  0  0
    4.0254   54.4652   27.9979 C   0  0  0  0  0  0
    1.8287   52.7772   28.5810 C   0  0  0  0  0  0
    2.1361   53.0784   27.2435 C   0  0  0  0  0  0
    3.2281   53.9397   26.9697 C   0  0  0  0  0  0
    3.2789   54.1213   25.5926 N   0  0  0  0  0  0
    1.6027   52.6636   26.0088 C   0  0  0  0  0  0
    2.3358   53.3060   24.9769 C   0  0  0  0  0  0
    2.0535   53.0603   23.6200 C   0  0  0  0  0  0
    1.1323   52.0475   23.2940 C   0  0  0  0  0  0
    0.5943   51.7643   25.6428 C   0  0  0  0  0  0
    0.4309   51.4094   24.3284 C   0  0  0  0  0  0
   -0.5181   50.2509   24.3242 C   0  0  0  0  0  0
   -0.9398   50.1275   25.5944 N   0  0  0  0  0  0
   -0.3848   51.0020   26.4480 C   0  0  0  0  0  0
   -0.8639   49.5385   23.3836 O   0  0  0  0  0  0
   -0.6481   51.1030   27.6391 O   0  0  0  0  0  0
    0.9655   51.6668   21.8580 C   0  0  0  0  0  0
   -0.2727   51.7227   21.1858 C   0  0  0  0  0  0
   -0.3599   51.3523   19.8406 C   0  0  0  0  0  0
    0.7738   50.9296   19.1495 C   0  0  0  0  0  0
    2.0029   50.8734   19.7996 C   0  0  0  0  0  0
    2.0947   51.2386   21.1424 C   0  0  0  0  0  0
    2.2409   53.0547   30.8870 O   0  0  0  0  0  0
    4.2003   55.0314   24.9271 C   0  0  0  0  0  0
    5.5485   54.3828   24.5474 C   0  0  0  0  0  0
    5.5474   53.6900   23.1713 C   0  0  0  0  0  0
    5.3870   54.6112   22.0434 N   0  0  0  0  0  0
    6.6350   55.3477   21.7909 C   0  0  0  0  0  0
    6.4949   56.2646   20.5542 C   0  0  0  0  0  0
    6.1737   55.4690   19.3654 N   0  0  0  0  0  0
    4.9065   54.7624   19.5867 C   0  0  0  0  0  0
    5.0014   53.8543   20.8378 C   0  0  0  0  0  0
    6.0744   56.3314   18.1919 C   0  0  0  0  0  0
   -1.7268   52.2435   21.9721 Cl  0  0  0  0  0  0
    4.2547   54.5704   30.1215 H   0  0  0  0  0  0
    4.8781   55.0934   27.7966 H   0  0  0  0  0  0
    1.0210   52.1226   28.8555 H   0  0  0  0  0  0
    2.5854   53.5796   22.8347 H   0  0  0  0  0  0
   -1.5817   49.4155   25.9117 H   0  0  0  0  0  0
   -1.3093   51.3920   19.3284 H   0  0  0  0  0  0
    0.7038   50.6433   18.1097 H   0  0  0  0  0  0
    2.8799   50.5385   19.2636 H   0  0  0  0  0  0
    3.0569   51.1787   21.6318 H   0  0  0  0  0  0
    2.4799   53.7445   31.5290 H   0  0  0  0  0  0
    4.3763   55.8665   25.5997 H   0  0  0  0  0  0
    3.6788   55.4458   24.0683 H   0  0  0  0  0  0
    5.8386   53.6583   25.3132 H   0  0  0  0  0  0
    6.3312   55.1414   24.5762 H   0  0  0  0  0  0
    4.6771   53.0483   23.1560 H   0  0  0  0  0  0
    6.4242   53.0525   23.0458 H   0  0  0  0  0  0
    7.4748   54.6643   21.6687 H   0  0  0  0  0  0
    6.8771   55.9743   22.6480 H   0  0  0  0  0  0
    5.7338   57.0252   20.7319 H   0  0  0  0  0  0
    7.4387   56.7844   20.3900 H   0  0  0  0  0  0
    4.0779   55.4628   19.6859 H   0  0  0  0  0  0
    4.6843   54.1439   18.7164 H   0  0  0  0  0  0
    4.0194   53.4099   21.0011 H   0  0  0  0  0  0
    5.6793   53.0214   20.6481 H   0  0  0  0  0  0
    5.2839   57.0752   18.3005 H   0  0  0  0  0  0
    7.0140   56.8577   18.0196 H   0  0  0  0  0  0
    5.8641   55.7403   17.2999 H   0  0  0  0  0  0
  1  2  2  0  0  0
  1  4  1  0  0  0
  1 25  1  0  0  0
  2  3  1  0  0  0
  2 37  1  0  0  0
  3  6  2  0  0  0
  3 38  1  0  0  0
  4  5  2  0  0  0
  4 39  1  0  0  0
  5  8  1  0  0  0
  5  6  1  0  0  0
  6  7  1  0  0  0
  7 26  1  0  0  0
  7  9  1  0  0  0
  8  9  2  0  0  0
  8 12  1  0  0  0
  9 10  1  0  0  0
 10 11  2  0  0  0
 10 40  1  0  0  0
 11 19  1  0  0  0
 11 13  1  0  0  0
 12 13  2  0  0  0
 12 16  1  0  0  0
 13 14  1  0  0  0
 14 17  2  0  0  0
 14 15  1  0  0  0
 15 16  1  0  0  0
 15 41  1  0  0  0
 16 18  2  0  0  0
 19 20  2  0  0  0
 19 24  1  0  0  0
 20 21  1  0  0  0
 20 36  1  0  0  0
 21 22  2  0  0  0
 21 42  1  0  0  0
 22 23  1  0  0  0
 22 43  1  0  0  0
 23 24  2  0  0  0
 23 44  1  0  0  0
 24 45  1  0  0  0
 25 46  1  0  0  0
 26 27  1  0  0  0
 26 47  1  0  0  0
 26 48  1  0  0  0
 27 28  1  0  0  0
 27 49  1  0  0  0
 27 50  1  0  0  0
 28 29  1  0  0  0
 28 51  1  0  0  0
 28 52  1  0  0  0
 29 30  1  0  0  0
 29 34  1  0  0  0
 30 31  1  0  0  0
 30 53  1  0  0  0
 30 54  1  0  0  0
 31 32  1  0  0  0
 31 55  1  0  0  0
 31 56  1  0  0  0
 32 33  1  0  0  0
 32 35  1  0  0  0
 33 34  1  0  0  0
 33 57  1  0  0  0
 33 58  1  0  0  0
 34 59  1  0  0  0
 34 60  1  0  0  0
 35 61  1  0  0  0
 35 62  1  0  0  0
 35 63  1  0  0  0
M  END
> <s_m_entry_id>
46405

> <s_m_entry_name>
dock_pv.146

> <s_m_Source_Path>
/home/csk/Desktop/cluster/DUD-E-result/wee1

> <s_m_Source_File>
dock_pv.maegz

> <i_m_Source_File_Index>
146

> <chembl_id>
CHEMBL508412

> <chembl_pref_name>
None

> <i_lp_mmshare_version>
53161

> <r_lp_tautomer_probability>
1

> <s_lp_Force_Field>
OPLS_2005

> <r_lp_Energy>
95.613026

> <b_lp_Chiralities_Consistent>
1

> <s_lp_Variant>
CHEMBL5491_lig219-1

> <s_i_glide_gridfile>
glide-grid_3biz

> <i_i_glide_lignum>
231

> <i_i_glide_rotatable_bonds>
6

> <r_i_docking_score>
-6.95331462497924

> <r_i_glide_ligand_efficiency>
-0.193147628471646

> <r_i_glide_ligand_efficiency_sa>
-0.637759416748094

> <r_i_glide_ligand_efficiency_ln>
-1.51702539431884

> <r_i_glide_gscore>
-6.95331462497924

> <r_i_glide_lipo>
-3.17621834535442

> <r_i_glide_hbond>
-0.32

> <r_i_glide_metal>
0

> <r_i_glide_rewards>
-0.261892335000562

> <r_i_glide_evdw>
-40.7006416320801

> <r_i_glide_ecoul>
-9.32093906402588

> <r_i_glide_erotb>
0.403890806217188

> <r_i_glide_esite>
-0.165921809633556

> <r_i_glide_emodel>
-64.3399053084221

> <r_i_glide_energy>
-50.021580696106

> <r_i_glide_einternal>
7.66830444335938

> <i_i_glide_confnum>
112

> <i_i_glide_posenum>
122

> <r_i_glide_eff_state_penalty>
0

> <s_user_duplicate_titles>
CHEMBL5491_lig219,451398

> <i_f3d_flags>
0

> <s_m_subgroup_title>
dock_pv

> <s_m_subgroupid>
dock_pv

> <b_m_subgroup_collapsed>
1

$$$$
CHEMBL5491_lig275
                    3D
 Schrodinger Suite 2021-1.
 39 43  0  0  1  0            999 V2000
    5.7135   54.8349   20.0287 C   0  0  0  0  0  0
    6.8268   55.4590   20.5894 C   0  0  0  0  0  0
    7.0495   55.4628   21.9653 C   0  0  0  0  0  0
    4.7473   54.2307   20.8331 C   0  0  0  0  0  0
    4.8995   54.2675   22.2310 C   0  0  0  0  0  0
    6.0781   54.8585   22.7724 C   0  0  0  0  0  0
    5.9879   54.7548   24.1449 N   0  0  0  0  0  0
    4.0711   53.8903   23.3175 C   0  0  0  0  0  0
    4.7478   54.2631   24.5093 C   0  0  0  0  0  0
    4.1628   54.1290   25.7777 C   0  0  0  0  0  0
    2.8643   53.5937   25.8677 C   0  0  0  0  0  0
    2.7958   53.3037   23.4449 C   0  0  0  0  0  0
    2.2188   53.1692   24.6893 C   0  0  0  0  0  0
    0.8788   52.5437   24.4690 C   0  0  0  0  0  0
    0.7883   52.3264   23.1492 N   0  0  0  0  0  0
    1.8607   52.7192   22.4451 C   0  0  0  0  0  0
    5.5686   54.8265   18.6680 O   0  0  0  0  0  0
    0.0026   52.2604   25.2816 O   0  0  0  0  0  0
    2.2295   53.5014   27.2187 C   0  0  0  0  0  0
    2.1524   54.6326   28.0451 C   0  0  0  0  0  0
    1.6080   54.5686   29.3231 C   0  0  0  0  0  0
    1.1247   53.3466   29.8067 C   0  0  0  0  0  0
    1.1661   52.2176   28.9906 C   0  0  0  0  0  0
    1.7157   52.2965   27.7137 C   0  0  0  0  0  0
    1.9953   52.5855   21.2342 O   0  0  0  0  0  0
    0.4780   53.1894   31.3982 Cl  0  0  0  0  0  0
    1.5639   55.7363   30.0869 N   0  0  0  0  0  0
    7.5557   55.9177   19.9368 H   0  0  0  0  0  0
    7.9260   55.9362   22.3823 H   0  0  0  0  0  0
    3.8742   53.7982   20.3741 H   0  0  0  0  0  0
    6.6922   55.0782   24.7890 H   0  0  0  0  0  0
    4.6935   54.4333   26.6684 H   0  0  0  0  0  0
   -0.0085   51.8821   22.7196 H   0  0  0  0  0  0
    4.8179   54.3070   18.3639 H   0  0  0  0  0  0
    2.5026   55.5834   27.6848 H   0  0  0  0  0  0
    0.7740   51.2746   29.3432 H   0  0  0  0  0  0
    1.7328   51.4058   27.1076 H   0  0  0  0  0  0
    2.0712   56.5366   29.7429 H   0  0  0  0  0  0
    1.5409   55.5816   31.0889 H   0  0  0  0  0  0
  1 17  1  0  0  0
  1  2  2  0  0  0
  1  4  1  0  0  0
  2  3  1  0  0  0
  2 28  1  0  0  0
  3  6  2  0  0  0
  3 29  1  0  0  0
  4  5  2  0  0  0
  4 30  1  0  0  0
  5  8  1  0  0  0
  5  6  1  0  0  0
  6  7  1  0  0  0
  7  9  1  0  0  0
  7 31  1  0  0  0
  8  9  2  0  0  0
  8 12  1  0  0  0
  9 10  1  0  0  0
 10 11  2  0  0  0
 10 32  1  0  0  0
 11 19  1  0  0  0
 11 13  1  0  0  0
 12 16  1  0  0  0
 12 13  2  0  0  0
 13 14  1  0  0  0
 14 15  1  0  0  0
 14 18  2  0  0  0
 15 16  1  0  0  0
 15 33  1  0  0  0
 16 25  2  0  0  0
 17 34  1  0  0  0
 19 20  2  0  0  0
 19 24  1  0  0  0
 20 21  1  0  0  0
 20 35  1  0  0  0
 21 22  2  0  0  0
 21 27  1  0  0  0
 22 23  1  0  0  0
 22 26  1  0  0  0
 23 24  2  0  0  0
 23 36  1  0  0  0
 24 37  1  0  0  0
 27 38  1  0  0  0
 27 39  1  0  0  0
M  END
> <s_m_entry_id>
46406

> <s_m_entry_name>
dock_pv.147

> <s_m_Source_Path>
/home/csk/Desktop/cluster/DUD-E-result/wee1

> <s_m_Source_File>
dock_pv.maegz

> <i_m_Source_File_Index>
147

> <chembl_id>
CHEMBL487335

> <chembl_pref_name>
None

> <i_lp_mmshare_version>
53161

> <r_lp_tautomer_probability>
1

> <s_lp_Force_Field>
OPLS_2005

> <r_lp_Energy>
68.873074

> <b_lp_Chiralities_Consistent>
1

> <s_lp_Variant>
CHEMBL5491_lig275-1

> <s_i_glide_gridfile>
glide-grid_3biz

> <i_i_glide_lignum>
288

> <i_i_glide_rotatable_bonds>
2

> <r_i_docking_score>
-6.94965793630484

> <r_i_glide_ligand_efficiency>
-0.257394738381661

> <r_i_glide_ligand_efficiency_sa>
-0.772184214296651

> <r_i_glide_ligand_efficiency_ln>
-1.61776579350624

> <r_i_glide_gscore>
-6.94965793630484

> <r_i_glide_lipo>
-3.4727153220731

> <r_i_glide_hbond>
-0.243839512323804

> <r_i_glide_metal>
0

> <r_i_glide_rewards>
-1.15560097732576

> <r_i_glide_evdw>
-41.0592422485352

> <r_i_glide_ecoul>
-1.06851410865784

> <r_i_glide_erotb>
0.135737104143253

> <r_i_glide_esite>
0

> <r_i_glide_emodel>
-56.9576985130891

> <r_i_glide_energy>
-42.127756357193

> <r_i_glide_einternal>
0.351108938455582

> <i_i_glide_confnum>
2

> <i_i_glide_posenum>
28

> <r_i_glide_eff_state_penalty>
0

> <s_user_duplicate_titles>
CHEMBL5491_lig275,524018

> <i_f3d_flags>
0

> <s_m_subgroup_title>
dock_pv

> <s_m_subgroupid>
dock_pv

> <b_m_subgroup_collapsed>
1

$$$$
CHEMBL5491_lig281
                    3D
 Schrodinger Suite 2021-1.
 45 49  0  0  1  0            999 V2000
   -0.8756   50.4181   25.1998 C   0  0  0  0  0  0
   -0.8703   50.6902   23.8345 C   0  0  0  0  0  0
    0.0049   51.6175   23.2689 C   0  0  0  0  0  0
   -0.0221   51.0965   26.0649 C   0  0  0  0  0  0
    0.8790   52.0395   25.5371 C   0  0  0  0  0  0
    0.8928   52.2746   24.1314 C   0  0  0  0  0  0
    1.8948   53.1992   23.8646 N   0  0  0  0  0  0
    1.8709   52.8575   26.1165 C   0  0  0  0  0  0
    2.5532   53.5148   25.0457 C   0  0  0  0  0  0
    3.6775   54.3295   25.2735 C   0  0  0  0  0  0
    4.0922   54.5099   26.5920 C   0  0  0  0  0  0
    2.3125   53.1029   27.4345 C   0  0  0  0  0  0
    3.3944   53.9182   27.6371 C   0  0  0  0  0  0
    3.6191   54.0167   29.0981 C   0  0  0  0  0  0
    2.6666   53.2506   29.6604 N   0  0  0  0  0  0
    1.8461   52.6499   28.7761 C   0  0  0  0  0  0
    4.4791   54.6626   29.6864 O   0  0  0  0  0  0
    0.9144   51.9057   29.0640 O   0  0  0  0  0  0
   -1.7282   49.4616   25.6870 O   0  0  0  0  0  0
    2.2552   53.7064   22.5376 C   0  0  0  0  0  0
    3.2073   52.7457   21.7860 C   0  0  0  0  0  0
    4.1063   53.4188   20.7220 C   0  0  0  0  0  0
    5.2728   54.2522   21.3000 C   0  0  0  0  0  0
    5.9868   55.0975   20.4075 N   0  0  0  0  0  0
    5.5973   54.1785   22.4882 O   0  0  0  0  0  0
    5.7619   55.3413   19.0713 C   0  0  0  0  0  0
    6.7404   56.2432   18.6852 C   0  0  0  0  0  0
    7.5449   56.5544   19.6853 N   0  0  0  0  0  0
    7.0895   55.8683   20.7041 C   0  0  0  0  0  0
   -1.5502   50.1501   23.1919 H   0  0  0  0  0  0
    0.0078   51.7909   22.2028 H   0  0  0  0  0  0
   -0.0426   50.8638   27.1170 H   0  0  0  0  0  0
    4.2026   54.8208   24.4705 H   0  0  0  0  0  0
    4.9504   55.1334   26.7929 H   0  0  0  0  0  0
    2.5614   53.1585   30.6593 H   0  0  0  0  0  0
   -1.5213   49.1401   26.5882 H   0  0  0  0  0  0
    2.7094   54.6889   22.6689 H   0  0  0  0  0  0
    1.3373   53.8670   21.9732 H   0  0  0  0  0  0
    2.6174   51.9574   21.3159 H   0  0  0  0  0  0
    3.8588   52.2330   22.4867 H   0  0  0  0  0  0
    3.4942   54.0212   20.0543 H   0  0  0  0  0  0
    4.5620   52.6394   20.1087 H   0  0  0  0  0  0
    4.9548   54.8745   18.5243 H   0  0  0  0  0  0
    6.8707   56.6634   17.6974 H   0  0  0  0  0  0
    7.5083   55.8603   21.7025 H   0  0  0  0  0  0
  1  2  2  0  0  0
  1 19  1  0  0  0
  1  4  1  0  0  0
  2  3  1  0  0  0
  2 30  1  0  0  0
  3  6  2  0  0  0
  3 31  1  0  0  0
  4  5  2  0  0  0
  4 32  1  0  0  0
  5  8  1  0  0  0
  5  6  1  0  0  0
  6  7  1  0  0  0
  7 20  1  0  0  0
  7  9  1  0  0  0
  8  9  2  0  0  0
  8 12  1  0  0  0
  9 10  1  0  0  0
 10 11  2  0  0  0
 10 33  1  0  0  0
 11 13  1  0  0  0
 11 34  1  0  0  0
 12 16  1  0  0  0
 12 13  2  0  0  0
 13 14  1  0  0  0
 14 17  2  0  0  0
 14 15  1  0  0  0
 15 16  1  0  0  0
 15 35  1  0  0  0
 16 18  2  0  0  0
 19 36  1  0  0  0
 20 21  1  0  0  0
 20 37  1  0  0  0
 20 38  1  0  0  0
 21 22  1  0  0  0
 21 39  1  0  0  0
 21 40  1  0  0  0
 22 23  1  0  0  0
 22 41  1  0  0  0
 22 42  1  0  0  0
 23 24  1  0  0  0
 23 25  2  0  0  0
 24 26  1  0  0  0
 24 29  1  0  0  0
 26 27  2  0  0  0
 26 43  1  0  0  0
 27 28  1  0  0  0
 27 44  1  0  0  0
 28 29  2  0  0  0
 29 45  1  0  0  0
M  END
> <s_m_entry_id>
46407

> <s_m_entry_name>
dock_pv.148

> <s_m_Source_Path>
/home/csk/Desktop/cluster/DUD-E-result/wee1

> <s_m_Source_File>
dock_pv.maegz

> <i_m_Source_File_Index>
148

> <chembl_id>
CHEMBL521065

> <chembl_pref_name>
None

> <i_lp_mmshare_version>
53161

> <r_lp_tautomer_probability>
1

> <s_lp_Force_Field>
OPLS_2005

> <r_lp_Energy>
62.92064

> <b_lp_Chiralities_Consistent>
1

> <s_lp_Variant>
CHEMBL5491_lig281-1

> <s_i_glide_gridfile>
glide-grid_3biz

> <i_i_glide_lignum>
294

> <i_i_glide_rotatable_bonds>
6

> <r_i_docking_score>
-6.93761596379657

> <r_i_glide_ligand_efficiency>
-0.23922813668264

> <r_i_glide_ligand_efficiency_sa>
-0.734984628682579

> <r_i_glide_ligand_efficiency_ln>
-1.5885381329476

> <r_i_glide_gscore>
-6.93761596379657

> <r_i_glide_lipo>
-1.53477800406287

> <r_i_glide_hbond>
-0.262980177541187

> <r_i_glide_metal>
0

> <r_i_glide_rewards>
-2.41514394292901

> <r_i_glide_evdw>
-39.9263763427734

> <r_i_glide_ecoul>
-8.30047988891602

> <r_i_glide_erotb>
0.516676961212571

> <r_i_glide_esite>
0

> <r_i_glide_emodel>
-66.3209518243458

> <r_i_glide_energy>
-48.2268562316895

> <r_i_glide_einternal>
4.98387813568115

> <i_i_glide_confnum>
11

> <i_i_glide_posenum>
334

> <r_i_glide_eff_state_penalty>
0

> <s_user_duplicate_titles>
CHEMBL5491_lig281,523591

> <i_f3d_flags>
0

> <s_m_subgroup_title>
dock_pv

> <s_m_subgroupid>
dock_pv

> <b_m_subgroup_collapsed>
1

$$$$
CHEMBL5491_lig198
                    3D
 Schrodinger Suite 2021-1.
 47 51  0  0  1  0            999 V2000
   -0.6338   50.5009   25.6871 C   0  0  0  0  0  0
   -0.3703   51.1553   26.8839 C   0  0  0  0  0  0
    0.5607   52.1847   26.9661 C   0  0  0  0  0  0
    0.0191   50.8605   24.5122 C   0  0  0  0  0  0
    0.9873   51.8819   24.5510 C   0  0  0  0  0  0
    1.2429   52.5297   25.7905 C   0  0  0  0  0  0
    2.2429   53.4630   25.5860 N   0  0  0  0  0  0
   -1.5230   49.4630   25.6870 O   0  0  0  0  0  0
    1.8719   52.4345   23.5948 C   0  0  0  0  0  0
    2.6164   53.4579   24.2457 C   0  0  0  0  0  0
    3.5719   54.2215   23.5590 C   0  0  0  0  0  0
    3.9072   53.8790   22.2347 C   0  0  0  0  0  0
    5.0614   54.5905   21.5716 C   0  0  0  0  0  0
    6.2886   54.8308   22.2313 C   0  0  0  0  0  0
    7.3159   55.5233   21.5844 C   0  0  0  0  0  0
    7.1751   55.9578   20.2724 C   0  0  0  0  0  0
    5.9826   55.7274   19.6038 C   0  0  0  0  0  0
    4.9459   55.0630   20.2532 C   0  0  0  0  0  0
    2.1626   52.1652   22.2420 C   0  0  0  0  0  0
    3.1615   52.8639   21.5977 C   0  0  0  0  0  0
    3.2199   52.3160   20.2040 C   0  0  0  0  0  0
    2.3091   51.3338   20.1510 N   0  0  0  0  0  0
    1.6120   51.1638   21.2833 C   0  0  0  0  0  0
    3.9177   52.6630   19.2570 O   0  0  0  0  0  0
    0.7198   50.3363   21.4422 O   0  0  0  0  0  0
    2.8379   54.2580   26.6668 C   0  0  0  0  0  0
    3.7422   53.3959   27.5813 C   0  0  0  0  0  0
    3.9551   53.9757   28.9951 C   0  0  0  0  0  0
    2.7224   54.0757   29.6870 O   0  0  0  0  0  0
    6.6137   54.2630   23.8361 Cl  0  0  0  0  0  0
   -0.8892   50.8465   27.7805 H   0  0  0  0  0  0
    0.7609   52.6698   27.9110 H   0  0  0  0  0  0
   -0.2054   50.3180   23.6108 H   0  0  0  0  0  0
   -1.5211   49.0321   26.5682 H   0  0  0  0  0  0
    4.0999   55.0121   24.0688 H   0  0  0  0  0  0
    8.2488   55.7147   22.0870 H   0  0  0  0  0  0
    7.9869   56.4699   19.7765 H   0  0  0  0  0  0
    5.8500   56.0760   18.5898 H   0  0  0  0  0  0
    4.0101   54.9747   19.7227 H   0  0  0  0  0  0
    2.1676   50.7758   19.3230 H   0  0  0  0  0  0
    3.3805   55.1098   26.2596 H   0  0  0  0  0  0
    2.0096   54.6630   27.2502 H   0  0  0  0  0  0
    3.3358   52.3893   27.6928 H   0  0  0  0  0  0
    4.7096   53.2579   27.0959 H   0  0  0  0  0  0
    4.6455   53.3554   29.5646 H   0  0  0  0  0  0
    4.3730   54.9819   28.9366 H   0  0  0  0  0  0
    2.8790   54.3209   30.6087 H   0  0  0  0  0  0
  1  2  2  0  0  0
  1  8  1  0  0  0
  1  4  1  0  0  0
  2  3  1  0  0  0
  2 31  1  0  0  0
  3  6  2  0  0  0
  3 32  1  0  0  0
  4  5  2  0  0  0
  4 33  1  0  0  0
  5  9  1  0  0  0
  5  6  1  0  0  0
  6  7  1  0  0  0
  7 10  1  0  0  0
  7 26  1  0  0  0
  8 34  1  0  0  0
  9 10  2  0  0  0
  9 19  1  0  0  0
 10 11  1  0  0  0
 11 12  2  0  0  0
 11 35  1  0  0  0
 12 13  1  0  0  0
 12 20  1  0  0  0
 13 14  2  0  0  0
 13 18  1  0  0  0
 14 15  1  0  0  0
 14 30  1  0  0  0
 15 16  2  0  0  0
 15 36  1  0  0  0
 16 17  1  0  0  0
 16 37  1  0  0  0
 17 18  2  0  0  0
 17 38  1  0  0  0
 18 39  1  0  0  0
 19 20  2  0  0  0
 19 23  1  0  0  0
 20 21  1  0  0  0
 21 22  1  0  0  0
 21 24  2  0  0  0
 22 23  1  0  0  0
 22 40  1  0  0  0
 23 25  2  0  0  0
 26 27  1  0  0  0
 26 41  1  0  0  0
 26 42  1  0  0  0
 27 28  1  0  0  0
 27 43  1  0  0  0
 27 44  1  0  0  0
 28 29  1  0  0  0
 28 45  1  0  0  0
 28 46  1  0  0  0
 29 47  1  0  0  0
M  END
> <s_m_entry_id>
46408

> <s_m_entry_name>
dock_pv.149

> <s_m_Source_Path>
/home/csk/Desktop/cluster/DUD-E-result/wee1

> <s_m_Source_File>
dock_pv.maegz

> <i_m_Source_File_Index>
149

> <chembl_id>
CHEMBL411662

> <chembl_pref_name>
None

> <i_lp_mmshare_version>
53161

> <r_lp_tautomer_probability>
1

> <s_lp_Force_Field>
OPLS_2005

> <r_lp_Energy>
68.466699

> <b_lp_Chiralities_Consistent>
1

> <s_lp_Variant>
CHEMBL5491_lig198-1

> <s_i_glide_gridfile>
glide-grid_3biz

> <i_i_glide_lignum>
203

> <i_i_glide_rotatable_bonds>
6

> <r_i_docking_score>
-6.93046283038931

> <r_i_glide_ligand_efficiency>
-0.231015427679644

> <r_i_glide_ligand_efficiency_sa>
-0.717818645449207

> <r_i_glide_ligand_efficiency_ln>
-1.57467666850514

> <r_i_glide_gscore>
-6.93046283038931

> <r_i_glide_lipo>
-2.87829250651284

> <r_i_glide_hbond>
-0.456

> <r_i_glide_metal>
0

> <r_i_glide_rewards>
-0.813105190031076

> <r_i_glide_evdw>
-34.5938606262207

> <r_i_glide_ecoul>
-9.62086582183838

> <r_i_glide_erotb>
0.447090884163197

> <r_i_glide_esite>
-0.0573331134217991

> <r_i_glide_emodel>
-58.6691995391177

> <r_i_glide_energy>
-44.2147264480591

> <r_i_glide_einternal>
8.68397235870361

> <i_i_glide_confnum>
4

> <i_i_glide_posenum>
385

> <r_i_glide_eff_state_penalty>
0

> <s_user_duplicate_titles>
CHEMBL5491_lig198,435717

> <i_f3d_flags>
0

> <s_m_subgroup_title>
dock_pv

> <s_m_subgroupid>
dock_pv

> <b_m_subgroup_collapsed>
1

$$$$
CHEMBL5491_lig92
                    3D
 Schrodinger Suite 2021-1.
 40 44  0  0  1  0            999 V2000
    5.4504   54.7182   19.8955 C   0  0  0  0  0  0
    6.6729   55.3214   20.1804 C   0  0  0  0  0  0
    7.1367   55.4632   21.4908 C   0  0  0  0  0  0
    4.6196   54.2636   20.9185 C   0  0  0  0  0  0
    5.0269   54.4262   22.2561 C   0  0  0  0  0  0
    6.2999   55.0031   22.5129 C   0  0  0  0  0  0
    6.4786   54.9993   23.8794 N   0  0  0  0  0  0
    4.4201   54.1645   23.5133 C   0  0  0  0  0  0
    5.3534   54.5247   24.5283 C   0  0  0  0  0  0
    5.0929   54.3925   25.9068 C   0  0  0  0  0  0
    3.8274   53.8641   26.2705 C   0  0  0  0  0  0
    3.1788   53.6491   23.9256 C   0  0  0  0  0  0
    2.9106   53.5000   25.2653 C   0  0  0  0  0  0
    1.5628   52.8602   25.3591 C   0  0  0  0  0  0
    1.1344   52.7181   24.0967 N   0  0  0  0  0  0
    2.0043   53.1345   23.1682 C   0  0  0  0  0  0
    0.9349   52.5070   26.3527 O   0  0  0  0  0  0
    1.8225   53.0626   21.9585 O   0  0  0  0  0  0
    5.0618   54.5809   18.5908 O   0  0  0  0  0  0
    3.4588   53.6451   27.7041 C   0  0  0  0  0  0
    2.3637   54.3123   28.2689 C   0  0  0  0  0  0
    1.9462   54.0154   29.5642 C   0  0  0  0  0  0
    2.6374   53.0629   30.3069 C   0  0  0  0  0  0
    3.7583   52.4319   29.7819 C   0  0  0  0  0  0
    4.1706   52.7290   28.4865 C   0  0  0  0  0  0
    6.1179   54.7619   26.9752 C   0  0  0  0  0  0
    7.2921   55.6640   19.3647 H   0  0  0  0  0  0
    8.1021   55.9024   21.6956 H   0  0  0  0  0  0
    3.6676   53.8247   20.6691 H   0  0  0  0  0  0
    7.3234   55.3138   24.3302 H   0  0  0  0  0  0
    0.2507   52.2931   23.8665 H   0  0  0  0  0  0
    4.2279   54.1161   18.4868 H   0  0  0  0  0  0
    1.8063   55.0306   27.6867 H   0  0  0  0  0  0
    1.0862   54.5125   29.9883 H   0  0  0  0  0  0
    2.3105   52.8358   31.3136 H   0  0  0  0  0  0
    4.3054   51.7192   30.3790 H   0  0  0  0  0  0
    5.0292   52.2231   28.0736 H   0  0  0  0  0  0
    6.7718   55.5638   26.6258 H   0  0  0  0  0  0
    5.6506   55.1126   27.9005 H   0  0  0  0  0  0
    6.7439   53.8956   27.2119 H   0  0  0  0  0  0
  1  2  2  0  0  0
  1 19  1  0  0  0
  1  4  1  0  0  0
  2  3  1  0  0  0
  2 27  1  0  0  0
  3  6  2  0  0  0
  3 28  1  0  0  0
  4  5  2  0  0  0
  4 29  1  0  0  0
  5  8  1  0  0  0
  5  6  1  0  0  0
  6  7  1  0  0  0
  7  9  1  0  0  0
  7 30  1  0  0  0
  8  9  2  0  0  0
  8 12  1  0  0  0
  9 10  1  0  0  0
 10 11  2  0  0  0
 10 26  1  0  0  0
 11 13  1  0  0  0
 11 20  1  0  0  0
 12 13  2  0  0  0
 12 16  1  0  0  0
 13 14  1  0  0  0
 14 15  1  0  0  0
 14 17  2  0  0  0
 15 16  1  0  0  0
 15 31  1  0  0  0
 16 18  2  0  0  0
 19 32  1  0  0  0
 20 21  2  0  0  0
 20 25  1  0  0  0
 21 22  1  0  0  0
 21 33  1  0  0  0
 22 23  2  0  0  0
 22 34  1  0  0  0
 23 24  1  0  0  0
 23 35  1  0  0  0
 24 25  2  0  0  0
 24 36  1  0  0  0
 25 37  1  0  0  0
 26 38  1  0  0  0
 26 39  1  0  0  0
 26 40  1  0  0  0
M  END
> <s_m_entry_id>
46409

> <s_m_entry_name>
dock_pv.150

> <s_m_Source_Path>
/home/csk/Desktop/cluster/DUD-E-result/wee1

> <s_m_Source_File>
dock_pv.maegz

> <i_m_Source_File_Index>
150

> <chembl_id>
CHEMBL214341

> <chembl_pref_name>
None

> <i_lp_mmshare_version>
53161

> <r_lp_tautomer_probability>
1

> <s_lp_Force_Field>
OPLS_2005

> <r_lp_Energy>
67.932757

> <b_lp_Chiralities_Consistent>
1

> <s_lp_Variant>
CHEMBL5491_lig92-1

> <s_i_glide_gridfile>
glide-grid_3biz

> <i_i_glide_lignum>
92

> <i_i_glide_rotatable_bonds>
2

> <r_i_docking_score>
-6.9272467970094

> <r_i_glide_ligand_efficiency>
-0.266432569115746

> <r_i_glide_ligand_efficiency_sa>
-0.789305437643862

> <r_i_glide_ligand_efficiency_ln>
-1.62684118012696

> <r_i_glide_gscore>
-6.9272467970094

> <r_i_glide_lipo>
-3.50774639642647

> <r_i_glide_hbond>
-0.0329779705718855

> <r_i_glide_metal>
0

> <r_i_glide_rewards>
-1.56202124555101

> <r_i_glide_evdw>
-38.8419075012207

> <r_i_glide_ecoul>
-0.294598400592804

> <r_i_glide_erotb>
0.161783950689932

> <r_i_glide_esite>
0

> <r_i_glide_emodel>
-54.7648221692594

> <r_i_glide_energy>
-39.1365059018135

> <r_i_glide_einternal>
0.087680459022522

> <i_i_glide_confnum>
2

> <i_i_glide_posenum>
371

> <r_i_glide_eff_state_penalty>
0

> <s_user_duplicate_titles>
CHEMBL5491_lig92,355012

> <i_f3d_flags>
0

> <s_m_subgroup_title>
dock_pv

> <s_m_subgroupid>
dock_pv

> <b_m_subgroup_collapsed>
1

$$$$
CHEMBL5491_lig200
                    3D
 Schrodinger Suite 2021-1.
 49 53  0  0  1  0            999 V2000
   -0.5873   50.4999   25.6832 C   0  0  0  0  0  0
   -0.3252   51.1731   26.8703 C   0  0  0  0  0  0
    0.6003   52.2097   26.9345 C   0  0  0  0  0  0
    0.0585   50.8454   24.5008 C   0  0  0  0  0  0
    1.0190   51.8722   24.5203 C   0  0  0  0  0  0
    1.2790   52.5379   25.7526 C   0  0  0  0  0  0
    2.2809   53.4630   25.5236 N   0  0  0  0  0  0
    1.8882   52.4180   23.5458 C   0  0  0  0  0  0
    2.6285   53.4497   24.1791 C   0  0  0  0  0  0
    3.5672   54.2195   23.4806 C   0  0  0  0  0  0
    3.9020   53.8698   22.1611 C   0  0  0  0  0  0
    2.1692   52.1443   22.1908 C   0  0  0  0  0  0
    3.1571   52.8487   21.5334 C   0  0  0  0  0  0
    3.2008   52.3036   20.1392 C   0  0  0  0  0  0
    2.3006   51.3103   20.1001 N   0  0  0  0  0  0
    1.6183   51.1350   21.2415 C   0  0  0  0  0  0
    3.8791   52.6630   19.1827 O   0  0  0  0  0  0
    0.7359   50.2995   21.4146 O   0  0  0  0  0  0
    5.0573   54.5857   21.5066 C   0  0  0  0  0  0
    6.2737   54.8365   22.1838 C   0  0  0  0  0  0
    7.3000   55.5477   21.5586 C   0  0  0  0  0  0
    7.1709   55.9875   20.2468 C   0  0  0  0  0  0
    5.9905   55.7439   19.5594 C   0  0  0  0  0  0
    4.9519   55.0630   20.1895 C   0  0  0  0  0  0
   -1.4760   49.4630   25.6870 O   0  0  0  0  0  0
    2.9306   54.2773   26.5533 C   0  0  0  0  0  0
    4.1335   53.5671   27.2272 C   0  0  0  0  0  0
    6.5905   54.2630   23.7890 Cl  0  0  0  0  0  0
    3.8038   52.6809   28.4589 C   0  0  0  0  0  0
    3.3090   53.4606   29.6870 C   0  0  0  0  0  0
    3.1506   52.6630   30.7789 O   0  0  0  0  0  0
    3.0973   54.6696   29.6865 O   0  0  0  0  0  0
   -0.8428   50.8756   27.7715 H   0  0  0  0  0  0
    0.7953   52.7129   27.8700 H   0  0  0  0  0  0
   -0.1672   50.2915   23.6063 H   0  0  0  0  0  0
    4.0905   55.0184   23.9817 H   0  0  0  0  0  0
    2.1546   50.7499   19.2744 H   0  0  0  0  0  0
    8.2182   55.7478   22.0870 H   0  0  0  0  0  0
    7.9815   56.5148   19.7650 H   0  0  0  0  0  0
    5.8677   56.0978   18.5458 H   0  0  0  0  0  0
    4.0226   54.9686   19.6493 H   0  0  0  0  0  0
   -1.5210   49.0514   26.5757 H   0  0  0  0  0  0
    3.2790   55.1987   26.0896 H   0  0  0  0  0  0
    2.1819   54.5958   27.2797 H   0  0  0  0  0  0
    4.6737   52.9766   26.4870 H   0  0  0  0  0  0
    4.8547   54.3275   27.5345 H   0  0  0  0  0  0
    3.0832   51.9069   28.1972 H   0  0  0  0  0  0
    4.7145   52.1627   28.7614 H   0  0  0  0  0  0
    2.8790   53.2234   31.5177 H   0  0  0  0  0  0
  1  2  2  0  0  0
  1  4  1  0  0  0
  1 25  1  0  0  0
  2  3  1  0  0  0
  2 33  1  0  0  0
  3  6  2  0  0  0
  3 34  1  0  0  0
  4  5  2  0  0  0
  4 35  1  0  0  0
  5  8  1  0  0  0
  5  6  1  0  0  0
  6  7  1  0  0  0
  7 26  1  0  0  0
  7  9  1  0  0  0
  8  9  2  0  0  0
  8 12  1  0  0  0
  9 10  1  0  0  0
 10 11  2  0  0  0
 10 36  1  0  0  0
 11 19  1  0  0  0
 11 13  1  0  0  0
 12 16  1  0  0  0
 12 13  2  0  0  0
 13 14  1  0  0  0
 14 15  1  0  0  0
 14 17  2  0  0  0
 15 16  1  0  0  0
 15 37  1  0  0  0
 16 18  2  0  0  0
 19 20  2  0  0  0
 19 24  1  0  0  0
 20 21  1  0  0  0
 20 28  1  0  0  0
 21 22  2  0  0  0
 21 38  1  0  0  0
 22 23  1  0  0  0
 22 39  1  0  0  0
 23 24  2  0  0  0
 23 40  1  0  0  0
 24 41  1  0  0  0
 25 42  1  0  0  0
 26 27  1  0  0  0
 26 43  1  0  0  0
 26 44  1  0  0  0
 27 29  1  0  0  0
 27 45  1  0  0  0
 27 46  1  0  0  0
 29 30  1  0  0  0
 29 47  1  0  0  0
 29 48  1  0  0  0
 30 31  1  0  0  0
 30 32  2  0  0  0
 31 49  1  0  0  0
M  END
> <s_m_entry_id>
46410

> <s_m_entry_name>
dock_pv.151

> <s_m_Source_Path>
/home/csk/Desktop/cluster/DUD-E-result/wee1

> <s_m_Source_File>
dock_pv.maegz

> <i_m_Source_File_Index>
151

> <chembl_id>
CHEMBL511992

> <chembl_pref_name>
None

> <i_lp_mmshare_version>
53161

> <r_lp_tautomer_probability>
1

> <s_lp_Force_Field>
OPLS_2005

> <r_lp_Energy>
68.487081

> <b_lp_Chiralities_Consistent>
1

> <s_lp_Variant>
CHEMBL5491_lig200-1

> <s_i_glide_gridfile>
glide-grid_3biz

> <i_i_glide_lignum>
206

> <i_i_glide_rotatable_bonds>
7

> <r_i_docking_score>
-6.92080091926953

> <r_i_glide_ligand_efficiency>
-0.216275028727173

> <r_i_glide_ligand_efficiency_sa>
-0.686630415438707

> <r_i_glide_ligand_efficiency_ln>
-1.5497559797324

> <r_i_glide_gscore>
-6.92080091926953

> <r_i_glide_lipo>
-2.77896316929577

> <r_i_glide_hbond>
-0.152

> <r_i_glide_metal>
0

> <r_i_glide_rewards>
-0.80605290704298

> <r_i_glide_evdw>
-39.7324409484863

> <r_i_glide_ecoul>
-10.8959884643555

> <r_i_glide_erotb>
0.497247499052776

> <r_i_glide_esite>
-0.0600120249059178

> <r_i_glide_emodel>
-68.1480378432899

> <r_i_glide_energy>
-50.6284294128418

> <r_i_glide_einternal>
7.46321725845337

> <i_i_glide_confnum>
29

> <i_i_glide_posenum>
100

> <r_i_glide_eff_state_penalty>
0

> <s_user_duplicate_titles>
CHEMBL5491_lig200,451711

> <i_f3d_flags>
0

> <s_m_subgroup_title>
dock_pv

> <s_m_subgroupid>
dock_pv

> <b_m_subgroup_collapsed>
1

$$$$
CHEMBL5491_lig73
                    3D
 Schrodinger Suite 2021-1.
 49 52  0  0  1  0            999 V2000
    4.5789   54.4267   26.3412 N   0  0  0  0  0  0
    2.9330   53.4486   27.7962 C   0  0  0  0  0  0
    3.8358   54.0307   25.1929 C   0  0  0  0  0  0
    4.1688   54.2375   27.6386 C   0  0  0  0  0  0
    4.3405   54.2628   23.9556 N   0  0  0  0  0  0
    2.6085   53.3843   25.3609 C   0  0  0  0  0  0
    2.2010   53.0632   26.7218 C   0  0  0  0  0  0
    2.4600   53.0666   29.1660 C   0  0  0  0  0  0
    3.5947   53.8700   22.8930 C   0  0  0  0  0  0
    2.3737   53.2814   22.9718 N   0  0  0  0  0  0
    1.8897   53.0378   24.2164 C   0  0  0  0  0  0
    4.0809   54.0558   21.5984 N   0  0  0  0  0  0
    4.7930   54.6651   28.6125 O   0  0  0  0  0  0
    7.5418   58.2637   18.1400 C   0  0  0  0  0  0
    3.2766   52.3575   30.0713 C   0  0  0  0  0  0
    1.1512   53.3824   29.5800 C   0  0  0  0  0  0
    6.8786   58.5037   19.1501 O   0  0  0  0  0  0
    5.8730   55.0983   26.1092 C   0  0  0  0  0  0
    5.2607   54.6010   21.0599 C   0  0  0  0  0  0
    8.6149   56.3282   19.2767 O   0  0  0  0  0  0
    8.5061   57.0568   18.0444 C   0  0  0  0  0  0
    7.4812   59.0629   17.0776 N   0  0  0  0  0  0
    7.5028   55.7169   19.8181 C   0  0  0  0  0  0
    0.0790   54.2630   28.5620 Cl  0  0  0  0  0  0
    4.8789   51.8629   29.6825 Cl  0  0  0  0  0  0
    5.3344   54.6554   19.6688 C   0  0  0  0  0  0
    6.3305   55.0790   21.8269 C   0  0  0  0  0  0
    6.4498   55.2088   19.0458 C   0  0  0  0  0  0
    7.4413   55.6327   21.2051 C   0  0  0  0  0  0
    1.4872   52.2637   31.6873 C   0  0  0  0  0  0
    0.6665   52.9673   30.8190 C   0  0  0  0  0  0
    2.8036   52.0046   31.3332 C   0  0  0  0  0  0
    1.3100   52.4667   26.8705 H   0  0  0  0  0  0
    0.9335   52.5322   24.2761 H   0  0  0  0  0  0
    3.4043   53.7744   20.9037 H   0  0  0  0  0  0
    6.3618   55.4590   27.0151 H   0  0  0  0  0  0
    6.5611   54.4076   25.6215 H   0  0  0  0  0  0
    5.7416   55.9565   25.4497 H   0  0  0  0  0  0
    8.2215   56.3938   17.2275 H   0  0  0  0  0  0
    9.5015   57.4361   17.8192 H   0  0  0  0  0  0
    6.9059   59.9053   17.1452 H   0  0  0  0  0  0
    8.0118   58.8778   16.2389 H   0  0  0  0  0  0
    4.5257   54.2783   19.0583 H   0  0  0  0  0  0
    6.3404   55.0455   22.9014 H   0  0  0  0  0  0
    6.4784   55.2451   17.9666 H   0  0  0  0  0  0
    8.2561   56.0119   21.7992 H   0  0  0  0  0  0
    1.1087   51.9635   32.6542 H   0  0  0  0  0  0
   -0.3439   53.1955   31.1210 H   0  0  0  0  0  0
    3.4490   51.4971   32.0364 H   0  0  0  0  0  0
  1  3  1  0  0  0
  1  4  1  0  0  0
  1 18  1  0  0  0
  2  4  1  0  0  0
  2  7  2  0  0  0
  2  8  1  0  0  0
  3  5  2  0  0  0
  3  6  1  0  0  0
  4 13  2  0  0  0
  5  9  1  0  0  0
  6 11  2  0  0  0
  6  7  1  0  0  0
  7 33  1  0  0  0
  8 15  2  0  0  0
  8 16  1  0  0  0
  9 12  1  0  0  0
  9 10  2  0  0  0
 10 11  1  0  0  0
 11 34  1  0  0  0
 12 19  1  0  0  0
 12 35  1  0  0  0
 14 21  1  0  0  0
 14 17  2  0  0  0
 14 22  1  0  0  0
 15 25  1  0  0  0
 15 32  1  0  0  0
 16 24  1  0  0  0
 16 31  2  0  0  0
 18 36  1  0  0  0
 18 37  1  0  0  0
 18 38  1  0  0  0
 19 26  1  0  0  0
 19 27  2  0  0  0
 20 23  1  0  0  0
 20 21  1  0  0  0
 21 39  1  0  0  0
 21 40  1  0  0  0
 22 41  1  0  0  0
 22 42  1  0  0  0
 23 29  2  0  0  0
 23 28  1  0  0  0
 26 28  2  0  0  0
 26 43  1  0  0  0
 27 29  1  0  0  0
 27 44  1  0  0  0
 28 45  1  0  0  0
 29 46  1  0  0  0
 30 31  1  0  0  0
 30 32  2  0  0  0
 30 47  1  0  0  0
 31 48  1  0  0  0
 32 49  1  0  0  0
M  END
> <s_m_entry_id>
46411

> <s_m_entry_name>
dock_pv.152

> <s_m_Source_Path>
/home/csk/Desktop/cluster/DUD-E-result/wee1

> <s_m_Source_File>
dock_pv.maegz

> <i_m_Source_File_Index>
152

> <chembl_id>
CHEMBL369296

> <chembl_pref_name>
None

> <i_lp_mmshare_version>
53161

> <r_lp_tautomer_probability>
1

> <s_lp_Force_Field>
OPLS_2005

> <r_lp_Energy>
28.447192

> <b_lp_Chiralities_Consistent>
1

> <s_lp_Variant>
CHEMBL5491_lig73-1

> <s_i_glide_gridfile>
glide-grid_3biz

> <i_i_glide_lignum>
71

> <i_i_glide_rotatable_bonds>
6

> <r_i_docking_score>
-6.91756269850716

> <r_i_glide_ligand_efficiency>
-0.216173834328349

> <r_i_glide_ligand_efficiency_sa>
-0.686309143248785

> <r_i_glide_ligand_efficiency_ln>
-1.54903085383314

> <r_i_glide_gscore>
-6.91756269850716

> <r_i_glide_lipo>
-3.03053829037919

> <r_i_glide_hbond>
-0.369135194800697

> <r_i_glide_metal>
0

> <r_i_glide_rewards>
-0.944391779828555

> <r_i_glide_evdw>
-45.6308097839355

> <r_i_glide_ecoul>
-4.30050897598267

> <r_i_glide_erotb>
0.456714852222105

> <r_i_glide_esite>
-0.103595450126642

> <r_i_glide_emodel>
-67.8951961982234

> <r_i_glide_energy>
-49.9313187599182

> <r_i_glide_einternal>
7.06551218032837

> <i_i_glide_confnum>
1

> <i_i_glide_posenum>
187

> <r_i_glide_eff_state_penalty>
0

> <s_user_duplicate_titles>
CHEMBL5491_lig73,303178

> <i_f3d_flags>
0

> <s_m_subgroup_title>
dock_pv

> <s_m_subgroupid>
dock_pv

> <b_m_subgroup_collapsed>
1

$$$$
CHEMBL5491_lig109
                    3D
 Schrodinger Suite 2021-1.
 41 45  0  0  1  0            999 V2000
    5.6781   54.7453   21.4859 C   0  0  0  0  0  0
    6.7725   55.2452   22.1843 C   0  0  0  0  0  0
    6.8078   55.2655   23.5790 C   0  0  0  0  0  0
    4.5622   54.2537   22.1588 C   0  0  0  0  0  0
    4.5524   54.2625   23.5670 C   0  0  0  0  0  0
    5.6932   54.7597   24.2540 C   0  0  0  0  0  0
    5.4363   54.6669   25.6031 N   0  0  0  0  0  0
    3.6130   53.8629   24.5450 C   0  0  0  0  0  0
    4.1798   54.1446   25.8131 C   0  0  0  0  0  0
    3.5117   53.8791   27.0087 C   0  0  0  0  0  0
    2.2057   53.3642   26.9608 C   0  0  0  0  0  0
    2.3539   53.2331   24.5220 C   0  0  0  0  0  0
    1.6789   52.9775   25.7005 C   0  0  0  0  0  0
    0.4131   52.2638   25.2986 C   0  0  0  0  0  0
    0.4562   52.1562   23.9637 N   0  0  0  0  0  0
    1.5398   52.6992   23.3942 C   0  0  0  0  0  0
   -0.5286   51.8723   25.9816 O   0  0  0  0  0  0
    1.7674   52.7097   22.1896 O   0  0  0  0  0  0
    5.6999   54.7503   20.1161 O   0  0  0  0  0  0
    1.4687   53.2268   28.2654 C   0  0  0  0  0  0
    1.4343   54.2436   29.2651 C   0  0  0  0  0  0
    0.7727   54.0021   30.4770 C   0  0  0  0  0  0
    0.0791   52.8220   30.6862 C   0  0  0  0  0  0
    0.0446   51.8631   29.6880 C   0  0  0  0  0  0
    0.7972   52.0285   28.5365 C   0  0  0  0  0  0
    2.1188   55.6068   29.0982 C   0  0  0  0  0  0
    1.5556   56.6628   29.8568 O   0  0  0  0  0  0
    7.6213   55.6247   21.6351 H   0  0  0  0  0  0
    7.6573   55.6734   24.1055 H   0  0  0  0  0  0
    3.7214   53.8935   21.5914 H   0  0  0  0  0  0
    6.0720   54.9475   26.3347 H   0  0  0  0  0  0
    3.9926   54.0836   27.9528 H   0  0  0  0  0  0
   -0.2717   51.7056   23.4329 H   0  0  0  0  0  0
    4.9194   54.3590   19.7150 H   0  0  0  0  0  0
    0.7788   54.7401   31.2658 H   0  0  0  0  0  0
   -0.4458   52.6631   31.6166 H   0  0  0  0  0  0
   -0.5418   50.9675   29.8191 H   0  0  0  0  0  0
    0.8313   51.2021   27.8420 H   0  0  0  0  0  0
    3.1643   55.5151   29.3911 H   0  0  0  0  0  0
    2.0800   55.9159   28.0565 H   0  0  0  0  0  0
    2.2359   57.3204   30.0427 H   0  0  0  0  0  0
  1  2  2  0  0  0
  1 19  1  0  0  0
  1  4  1  0  0  0
  2  3  1  0  0  0
  2 28  1  0  0  0
  3  6  2  0  0  0
  3 29  1  0  0  0
  4  5  2  0  0  0
  4 30  1  0  0  0
  5  8  1  0  0  0
  5  6  1  0  0  0
  6  7  1  0  0  0
  7  9  1  0  0  0
  7 31  1  0  0  0
  8  9  2  0  0  0
  8 12  1  0  0  0
  9 10  1  0  0  0
 10 11  2  0  0  0
 10 32  1  0  0  0
 11 13  1  0  0  0
 11 20  1  0  0  0
 12 16  1  0  0  0
 12 13  2  0  0  0
 13 14  1  0  0  0
 14 15  1  0  0  0
 14 17  2  0  0  0
 15 16  1  0  0  0
 15 33  1  0  0  0
 16 18  2  0  0  0
 19 34  1  0  0  0
 20 21  2  0  0  0
 20 25  1  0  0  0
 21 22  1  0  0  0
 21 26  1  0  0  0
 22 23  2  0  0  0
 22 35  1  0  0  0
 23 24  1  0  0  0
 23 36  1  0  0  0
 24 25  2  0  0  0
 24 37  1  0  0  0
 25 38  1  0  0  0
 26 27  1  0  0  0
 26 39  1  0  0  0
 26 40  1  0  0  0
 27 41  1  0  0  0
M  END
> <s_m_entry_id>
46412

> <s_m_entry_name>
dock_pv.153

> <s_m_Source_Path>
/home/csk/Desktop/cluster/DUD-E-result/wee1

> <s_m_Source_File>
dock_pv.maegz

> <i_m_Source_File_Index>
153

> <chembl_id>
CHEMBL378171

> <chembl_pref_name>
None

> <i_lp_mmshare_version>
53161

> <r_lp_tautomer_probability>
1

> <s_lp_Force_Field>
OPLS_2005

> <r_lp_Energy>
67.132661

> <b_lp_Chiralities_Consistent>
1

> <s_lp_Variant>
CHEMBL5491_lig109-1

> <s_i_glide_gridfile>
glide-grid_3biz

> <i_i_glide_lignum>
110

> <i_i_glide_rotatable_bonds>
4

> <r_i_docking_score>
-6.9166080891194

> <r_i_glide_ligand_efficiency>
-0.256170669967385

> <r_i_glide_ligand_efficiency_sa>
-0.768512009057859

> <r_i_glide_ligand_efficiency_ln>
-1.61007233395078

> <r_i_glide_gscore>
-6.9166080891194

> <r_i_glide_lipo>
-3.17052209789733

> <r_i_glide_hbond>
-0.32

> <r_i_glide_metal>
0

> <r_i_glide_rewards>
-1.18714766524643

> <r_i_glide_evdw>
-39.9451484680176

> <r_i_glide_ecoul>
-3.60007858276367

> <r_i_glide_erotb>
0.298330884839798

> <r_i_glide_esite>
0

> <r_i_glide_emodel>
-58.4917850230443

> <r_i_glide_energy>
-43.5452270507812

> <r_i_glide_einternal>
4.54807472229004

> <i_i_glide_confnum>
6

> <i_i_glide_posenum>
278

> <r_i_glide_eff_state_penalty>
0

> <s_user_duplicate_titles>
CHEMBL5491_lig109,355804

> <i_f3d_flags>
0

> <s_m_subgroup_title>
dock_pv

> <s_m_subgroupid>
dock_pv

> <b_m_subgroup_collapsed>
1

$$$$
CHEMBL5491_lig231
                    3D
 Schrodinger Suite 2021-1.
 51 55  0  0  1  0            999 V2000
    5.4090   54.5592   20.9606 C   0  0  0  0  0  0
    6.4747   55.0630   21.6982 C   0  0  0  0  0  0
    6.4787   55.0438   23.0912 C   0  0  0  0  0  0
    4.2847   54.0343   21.5917 C   0  0  0  0  0  0
    4.2195   54.0489   22.9957 C   0  0  0  0  0  0
    5.3316   54.5541   23.7312 C   0  0  0  0  0  0
    5.0046   54.4991   25.0761 N   0  0  0  0  0  0
    3.2290   53.6644   23.9284 C   0  0  0  0  0  0
    3.7140   54.0164   25.2071 C   0  0  0  0  0  0
    2.9438   53.8528   26.3556 C   0  0  0  0  0  0
    1.6800   53.2664   26.2861 C   0  0  0  0  0  0
    1.9582   53.0584   23.8599 C   0  0  0  0  0  0
    1.2131   52.8696   25.0092 C   0  0  0  0  0  0
   -0.0838   52.2631   24.5634 C   0  0  0  0  0  0
    0.0329   52.0703   23.2406 N   0  0  0  0  0  0
    1.1860   52.5053   22.7141 C   0  0  0  0  0  0
   -1.0907   51.9994   25.2144 O   0  0  0  0  0  0
    1.4895   52.4329   21.5285 O   0  0  0  0  0  0
    0.9511   53.0544   27.5941 C   0  0  0  0  0  0
    0.9610   53.9809   28.6758 C   0  0  0  0  0  0
    0.3922   53.6580   29.9069 C   0  0  0  0  0  0
   -0.2632   52.4510   30.0818 C   0  0  0  0  0  0
   -0.3501   51.5676   29.0213 C   0  0  0  0  0  0
    0.2912   51.8374   27.8179 C   0  0  0  0  0  0
    5.4735   54.5821   19.5936 O   0  0  0  0  0  0
    5.8610   54.9287   26.1852 C   0  0  0  0  0  0
    6.5587   53.7646   26.9295 C   0  0  0  0  0  0
    5.6894   52.9572   27.9144 C   0  0  0  0  0  0
    5.0413   53.8272   28.8869 N   0  0  1  0  0  0
    4.0718   53.0989   29.7006 C   0  0  0  0  0  0
    1.6832   55.5472   28.6200 Cl  0  0  0  0  0  0
    7.3336   55.4611   21.1772 H   0  0  0  0  0  0
    7.3086   55.4496   23.6444 H   0  0  0  0  0  0
    3.4638   53.6687   20.9971 H   0  0  0  0  0  0
    3.3334   54.1671   27.2959 H   0  0  0  0  0  0
   -0.6904   51.6404   22.6872 H   0  0  0  0  0  0
    0.4461   54.3556   30.7317 H   0  0  0  0  0  0
   -0.7201   52.2087   31.0305 H   0  0  0  0  0  0
   -0.9109   50.6631   29.1469 H   0  0  0  0  0  0
    0.2672   51.0693   27.0597 H   0  0  0  0  0  0
    4.7154   54.1720   19.1692 H   0  0  0  0  0  0
    6.5890   55.6513   25.8180 H   0  0  0  0  0  0
    5.2331   55.4632   26.8891 H   0  0  0  0  0  0
    6.9821   53.0713   26.2035 H   0  0  0  0  0  0
    7.4072   54.1678   27.4839 H   0  0  0  0  0  0
    4.9429   52.3878   27.3599 H   0  0  0  0  0  0
    6.3193   52.2505   28.4505 H   0  0  0  0  0  0
    5.7330   54.2887   29.4657 H   0  0  0  0  0  0
    3.2826   52.6802   29.0778 H   0  0  0  0  0  0
    4.4941   52.2715   30.2680 H   0  0  0  0  0  0
    3.6063   53.7792   30.4153 H   0  0  0  0  0  0
  1  2  2  0  0  0
  1  4  1  0  0  0
  1 25  1  0  0  0
  2  3  1  0  0  0
  2 32  1  0  0  0
  3  6  2  0  0  0
  3 33  1  0  0  0
  4  5  2  0  0  0
  4 34  1  0  0  0
  5  8  1  0  0  0
  5  6  1  0  0  0
  6  7  1  0  0  0
  7  9  1  0  0  0
  7 26  1  0  0  0
  8  9  2  0  0  0
  8 12  1  0  0  0
  9 10  1  0  0  0
 10 11  2  0  0  0
 10 35  1  0  0  0
 11 19  1  0  0  0
 11 13  1  0  0  0
 12 16  1  0  0  0
 12 13  2  0  0  0
 13 14  1  0  0  0
 14 15  1  0  0  0
 14 17  2  0  0  0
 15 16  1  0  0  0
 15 36  1  0  0  0
 16 18  2  0  0  0
 19 20  2  0  0  0
 19 24  1  0  0  0
 20 21  1  0  0  0
 20 31  1  0  0  0
 21 22  2  0  0  0
 21 37  1  0  0  0
 22 23  1  0  0  0
 22 38  1  0  0  0
 23 24  2  0  0  0
 23 39  1  0  0  0
 24 40  1  0  0  0
 25 41  1  0  0  0
 26 27  1  0  0  0
 26 42  1  0  0  0
 26 43  1  0  0  0
 27 28  1  0  0  0
 27 44  1  0  0  0
 27 45  1  0  0  0
 28 29  1  0  0  0
 28 46  1  0  0  0
 28 47  1  0  0  0
 29 30  1  0  0  0
 29 48  1  0  0  0
 30 49  1  0  0  0
 30 50  1  0  0  0
 30 51  1  0  0  0
M  END
> <s_m_entry_id>
46413

> <s_m_entry_name>
dock_pv.154

> <s_m_Source_Path>
/home/csk/Desktop/cluster/DUD-E-result/wee1

> <s_m_Source_File>
dock_pv.maegz

> <i_m_Source_File_Index>
154

> <chembl_id>
CHEMBL508541

> <chembl_pref_name>
None

> <i_lp_mmshare_version>
53161

> <r_lp_tautomer_probability>
1

> <s_lp_Force_Field>
OPLS_2005

> <r_lp_Energy>
68.754752

> <b_lp_Chiralities_Consistent>
1

> <s_lp_Variant>
CHEMBL5491_lig231-1

> <s_i_glide_gridfile>
glide-grid_3biz

> <i_i_glide_lignum>
243

> <i_i_glide_rotatable_bonds>
6

> <r_i_docking_score>
-6.91601359647675

> <r_i_glide_ligand_efficiency>
-0.223097212789573

> <r_i_glide_ligand_efficiency_sa>
-0.700833267057392

> <r_i_glide_ligand_efficiency_ln>
-1.55977301636796

> <r_i_glide_gscore>
-6.91601359647675

> <r_i_glide_lipo>
-3.96411033865739

> <r_i_glide_hbond>
0

> <r_i_glide_metal>
0

> <r_i_glide_rewards>
-0.98642792763788

> <r_i_glide_evdw>
-41.8189468383789

> <r_i_glide_ecoul>
-1.98391246795654

> <r_i_glide_erotb>
0.423058881930949

> <r_i_glide_esite>
0

> <r_i_glide_emodel>
-62.0699099814111

> <r_i_glide_energy>
-43.8028593063354

> <r_i_glide_einternal>
2.74485945701599

> <i_i_glide_confnum>
76

> <i_i_glide_posenum>
384

> <r_i_glide_eff_state_penalty>
0

> <s_user_duplicate_titles>
CHEMBL5491_lig231,452112

> <i_f3d_flags>
0

> <s_m_subgroup_title>
dock_pv

> <s_m_subgroupid>
dock_pv

> <b_m_subgroup_collapsed>
1

$$$$
CHEMBL5491_lig363
                    3D
 Schrodinger Suite 2021-1.
 63 67  0  0  1  0            999 V2000
    3.2892   52.6898   18.0120 F   0  0  0  0  0  0
   -0.0267   49.0878   19.6895 O   0  0  0  0  0  0
    2.5559   51.4985   20.4606 N   0  0  0  0  0  0
    4.1300   52.9108   21.5537 N   0  0  0  0  0  0
    5.6688   54.3420   22.6449 N   0  0  0  0  0  0
    3.8048   54.1191   27.9409 N   0  0  0  0  0  0
    5.4989   54.4516   20.3104 N   0  0  0  0  0  0
    2.0793   48.3655   19.6733 N   0  0  0  0  0  0
    2.0441   53.0897   30.0472 N   0  0  0  0  0  0
    2.1182   50.9182   21.7396 C   0  0  2  0  0  0
    1.2971   49.5737   21.6732 C   0  0  1  0  0  0
    1.1289   51.8623   22.4906 C   0  0  1  0  0  0
   -0.0284   49.9654   22.4024 C   0  0  2  0  0  0
   -0.2365   51.4176   21.9881 C   0  0  0  0  0  0
    1.0026   51.3612   23.9277 C   0  0  0  0  0  0
    0.3068   50.2092   23.8731 C   0  0  0  0  0  0
    3.5354   52.5011   20.4024 C   0  0  0  0  0  0
    1.0570   48.9860   20.2607 C   0  0  0  0  0  0
    3.8882   53.0619   19.1683 C   0  0  0  0  0  0
    5.0758   53.8795   21.4653 C   0  0  0  0  0  0
    4.2931   54.2007   26.6390 C   0  0  0  0  0  0
    5.1938   54.2651   23.9644 C   0  0  0  0  0  0
    5.6763   54.2307   26.3470 C   0  0  0  0  0  0
    4.8906   54.0327   19.1703 C   0  0  0  0  0  0
    6.1099   54.2679   25.0156 C   0  0  0  0  0  0
    3.3879   54.2227   25.5755 C   0  0  0  0  0  0
    3.8252   54.2630   24.2575 C   0  0  0  0  0  0
    4.2475   53.1006   28.9047 C   0  0  0  0  0  0
    2.6412   54.8624   28.4566 C   0  0  0  0  0  0
    6.7317   54.3003   27.4457 C   0  0  0  0  0  0
    3.0938   52.2414   29.4800 C   0  0  0  0  0  0
    1.5162   53.9465   28.9865 C   0  0  0  0  0  0
    0.9779   52.2918   30.6443 C   0  0  0  0  0  0
    2.1526   51.1606   19.5975 H   0  0  0  0  0  0
    6.4044   55.0146   22.4922 H   0  0  0  0  0  0
    3.0032   48.3606   20.0897 H   0  0  0  0  0  0
    1.9599   48.0189   18.7332 H   0  0  0  0  0  0
    2.9939   50.7445   22.3679 H   0  0  0  0  0  0
    1.8074   48.7812   22.2215 H   0  0  0  0  0  0
    1.3154   52.9331   22.3859 H   0  0  0  0  0  0
   -0.8895   49.3205   22.2270 H   0  0  0  0  0  0
   -0.3584   51.5480   20.9095 H   0  0  0  0  0  0
   -1.0780   51.9087   22.4837 H   0  0  0  0  0  0
    1.4380   51.8525   24.7872 H   0  0  0  0  0  0
    0.0422   49.5417   24.6832 H   0  0  0  0  0  0
    5.2137   54.4943   18.2480 H   0  0  0  0  0  0
    7.1684   54.3028   24.7922 H   0  0  0  0  0  0
    2.3263   54.1842   25.7674 H   0  0  0  0  0  0
    3.0938   54.2948   23.4631 H   0  0  0  0  0  0
    4.9541   52.4206   28.4261 H   0  0  0  0  0  0
    4.7991   53.6134   29.6880 H   0  0  0  0  0  0
    2.9841   55.5369   29.2456 H   0  0  0  0  0  0
    2.2331   55.5158   27.6870 H   0  0  0  0  0  0
    6.9060   53.3218   27.8978 H   0  0  0  0  0  0
    7.6790   54.6791   27.0712 H   0  0  0  0  0  0
    6.4087   54.9981   28.2184 H   0  0  0  0  0  0
    2.6877   51.5886   28.7038 H   0  0  0  0  0  0
    3.4949   51.5937   30.2587 H   0  0  0  0  0  0
    0.7095   54.5655   29.3842 H   0  0  0  0  0  0
    1.0917   53.3518   28.1732 H   0  0  0  0  0  0
    0.1955   52.9359   31.0488 H   0  0  0  0  0  0
    0.5218   51.6155   29.9175 H   0  0  0  0  0  0
    1.3690   51.7060   31.4783 H   0  0  0  0  0  0
  1 19  1  0  0  0
  2 18  2  0  0  0
  3 10  1  0  0  0
  3 17  1  0  0  0
  3 34  1  0  0  0
  4 17  2  0  0  0
  4 20  1  0  0  0
  5 20  1  0  0  0
  5 22  1  0  0  0
  5 35  1  0  0  0
  6 21  1  0  0  0
  6 28  1  0  0  0
  6 29  1  0  0  0
  7 20  2  0  0  0
  7 24  1  0  0  0
  8 18  1  0  0  0
  8 36  1  0  0  0
  8 37  1  0  0  0
  9 31  1  0  0  0
  9 32  1  0  0  0
  9 33  1  0  0  0
 10 11  1  0  0  0
 10 12  1  0  0  0
 10 38  1  0  0  0
 11 13  1  0  0  0
 11 18  1  0  0  0
 11 39  1  0  0  0
 12 14  1  0  0  0
 12 15  1  0  0  0
 12 40  1  0  0  0
 13 14  1  0  0  0
 13 16  1  0  0  0
 13 41  1  0  0  0
 14 42  1  0  0  0
 14 43  1  0  0  0
 15 16  2  0  0  0
 15 44  1  0  0  0
 16 45  1  0  0  0
 17 19  1  0  0  0
 19 24  2  0  0  0
 21 23  1  0  0  0
 21 26  2  0  0  0
 22 25  1  0  0  0
 22 27  2  0  0  0
 23 25  2  0  0  0
 23 30  1  0  0  0
 24 46  1  0  0  0
 25 47  1  0  0  0
 26 27  1  0  0  0
 26 48  1  0  0  0
 27 49  1  0  0  0
 28 31  1  0  0  0
 28 50  1  0  0  0
 28 51  1  0  0  0
 29 32  1  0  0  0
 29 52  1  0  0  0
 29 53  1  0  0  0
 30 54  1  0  0  0
 30 55  1  0  0  0
 30 56  1  0  0  0
 31 57  1  0  0  0
 31 58  1  0  0  0
 32 59  1  0  0  0
 32 60  1  0  0  0
 33 61  1  0  0  0
 33 62  1  0  0  0
 33 63  1  0  0  0
M  END
> <s_m_entry_id>
46414

> <s_m_entry_name>
dock_pv.155

> <s_m_Source_Path>
/home/csk/Desktop/cluster/DUD-E-result/wee1

> <s_m_Source_File>
dock_pv.maegz

> <i_m_Source_File_Index>
155

> <chembl_id>
CHEMBL1967878

> <chembl_pref_name>
CENISERTIB

> <i_lp_mmshare_version>
53161

> <r_lp_tautomer_probability>
0.999999624730965

> <s_lp_Force_Field>
OPLS_2005

> <r_lp_Energy>
88.087015

> <b_lp_Chiralities_Consistent>
1

> <s_lp_Variant>
CHEMBL5491_lig363-3

> <s_i_glide_gridfile>
glide-grid_3biz

> <i_i_glide_lignum>
390

> <i_i_glide_rotatable_bonds>
6

> <r_i_docking_score>
-6.90550581819062

> <r_i_glide_ligand_efficiency>
-0.209257752066382

> <r_i_glide_ligand_efficiency_sa>
-0.67120142278839

> <r_i_glide_ligand_efficiency_ln>
-1.53574873917002

> <r_i_glide_gscore>
-6.90550581819062

> <r_i_glide_lipo>
-3.57300747680263

> <r_i_glide_hbond>
-0.318934104098767

> <r_i_glide_metal>
0

> <r_i_glide_rewards>
-1.0150232334545

> <r_i_glide_evdw>
-47.2058219909668

> <r_i_glide_ecoul>
0.091583326458931

> <r_i_glide_erotb>
0.491884757411642

> <r_i_glide_esite>
-0.14387216066686

> <r_i_glide_emodel>
-64.9065442759516

> <r_i_glide_energy>
-47.1142386645079

> <r_i_glide_einternal>
3.00323748588562

> <i_i_glide_confnum>
60

> <i_i_glide_posenum>
58

> <r_i_glide_eff_state_penalty>
0

> <s_user_duplicate_titles>
CHEMBL5491_lig363

> <i_f3d_flags>
0

> <s_m_subgroup_title>
dock_pv

> <s_m_subgroupid>
dock_pv

> <b_m_subgroup_collapsed>
1

$$$$
CHEMBL5491_lig91
                    3D
 Schrodinger Suite 2021-1.
 40 44  0  0  1  0            999 V2000
    4.8393   54.4692   20.7051 C   0  0  0  0  0  0
    6.0790   54.9837   21.0613 C   0  0  0  0  0  0
    6.4810   55.0650   22.3934 C   0  0  0  0  0  0
    3.9397   54.0359   21.6748 C   0  0  0  0  0  0
    4.2787   54.1567   23.0323 C   0  0  0  0  0  0
    5.5618   54.6629   23.3738 C   0  0  0  0  0  0
    5.6413   54.6968   24.7558 N   0  0  0  0  0  0
    3.5999   53.8633   24.2353 C   0  0  0  0  0  0
    4.4498   54.2521   25.3077 C   0  0  0  0  0  0
    4.0625   54.1120   26.6504 C   0  0  0  0  0  0
    2.8394   53.4855   26.9346 C   0  0  0  0  0  0
    2.3637   53.2659   24.5541 C   0  0  0  0  0  0
    2.0244   53.0600   25.8714 C   0  0  0  0  0  0
    0.7561   52.2634   25.8664 C   0  0  0  0  0  0
    0.4106   52.1390   24.5751 N   0  0  0  0  0  0
    1.2758   52.6921   23.7106 C   0  0  0  0  0  0
    0.1195   51.8083   26.8110 O   0  0  0  0  0  0
    1.1528   52.6757   22.4898 O   0  0  0  0  0  0
    4.4812   54.4225   19.3853 O   0  0  0  0  0  0
    6.7786   55.2021   25.5027 C   0  0  0  0  0  0
    2.4790   53.2348   28.3596 C   0  0  0  0  0  0
    1.2407   53.6414   28.8725 C   0  0  0  0  0  0
    0.8864   53.3448   30.1853 C   0  0  0  0  0  0
    1.7836   52.6630   31.0008 C   0  0  0  0  0  0
    3.0391   52.2949   30.5238 C   0  0  0  0  0  0
    3.3809   52.5750   29.2041 C   0  0  0  0  0  0
    6.7534   55.3139   20.2846 H   0  0  0  0  0  0
    7.4540   55.4612   22.6442 H   0  0  0  0  0  0
    2.9793   53.6613   21.3653 H   0  0  0  0  0  0
    4.7157   54.4197   27.4540 H   0  0  0  0  0  0
   -0.4158   51.6428   24.2807 H   0  0  0  0  0  0
    3.5631   54.1688   19.2587 H   0  0  0  0  0  0
    6.8820   54.6606   26.4434 H   0  0  0  0  0  0
    7.6791   55.0645   24.9083 H   0  0  0  0  0  0
    6.6325   56.2629   25.6933 H   0  0  0  0  0  0
    0.5357   54.1637   28.2418 H   0  0  0  0  0  0
   -0.0761   53.6418   30.5728 H   0  0  0  0  0  0
    1.5151   52.4508   32.0263 H   0  0  0  0  0  0
    3.7449   51.8032   31.1767 H   0  0  0  0  0  0
    4.3468   52.2631   28.8318 H   0  0  0  0  0  0
  1  2  2  0  0  0
  1 19  1  0  0  0
  1  4  1  0  0  0
  2  3  1  0  0  0
  2 27  1  0  0  0
  3  6  2  0  0  0
  3 28  1  0  0  0
  4  5  2  0  0  0
  4 29  1  0  0  0
  5  8  1  0  0  0
  5  6  1  0  0  0
  6  7  1  0  0  0
  7  9  1  0  0  0
  7 20  1  0  0  0
  8  9  2  0  0  0
  8 12  1  0  0  0
  9 10  1  0  0  0
 10 11  2  0  0  0
 10 30  1  0  0  0
 11 13  1  0  0  0
 11 21  1  0  0  0
 12 13  2  0  0  0
 12 16  1  0  0  0
 13 14  1  0  0  0
 14 15  1  0  0  0
 14 17  2  0  0  0
 15 16  1  0  0  0
 15 31  1  0  0  0
 16 18  2  0  0  0
 19 32  1  0  0  0
 20 33  1  0  0  0
 20 34  1  0  0  0
 20 35  1  0  0  0
 21 22  2  0  0  0
 21 26  1  0  0  0
 22 23  1  0  0  0
 22 36  1  0  0  0
 23 24  2  0  0  0
 23 37  1  0  0  0
 24 25  1  0  0  0
 24 38  1  0  0  0
 25 26  2  0  0  0
 25 39  1  0  0  0
 26 40  1  0  0  0
M  END
> <s_m_entry_id>
46415

> <s_m_entry_name>
dock_pv.156

> <s_m_Source_Path>
/home/csk/Desktop/cluster/DUD-E-result/wee1

> <s_m_Source_File>
dock_pv.maegz

> <i_m_Source_File_Index>
156

> <chembl_id>
CHEMBL214005

> <chembl_pref_name>
None

> <i_lp_mmshare_version>
53161

> <r_lp_tautomer_probability>
1

> <s_lp_Force_Field>
OPLS_2005

> <r_lp_Energy>
66.125323

> <b_lp_Chiralities_Consistent>
1

> <s_lp_Variant>
CHEMBL5491_lig91-1

> <s_i_glide_gridfile>
glide-grid_3biz

> <i_i_glide_lignum>
91

> <i_i_glide_rotatable_bonds>
2

> <r_i_docking_score>
-6.89866072503918

> <r_i_glide_ligand_efficiency>
-0.265333104809199

> <r_i_glide_ligand_efficiency_sa>
-0.7860482789619

> <r_i_glide_ligand_efficiency_ln>
-1.62012783492331

> <r_i_glide_gscore>
-6.89866072503918

> <r_i_glide_lipo>
-3.11029612748771

> <r_i_glide_hbond>
-0.00522193259065576

> <r_i_glide_metal>
0

> <r_i_glide_rewards>
-1.80109760671386

> <r_i_glide_evdw>
-40.0952186584473

> <r_i_glide_ecoul>
-0.927120506763458

> <r_i_glide_erotb>
0.161783950689932

> <r_i_glide_esite>
0

> <r_i_glide_emodel>
-57.1604147759009

> <r_i_glide_energy>
-41.0223391652107

> <r_i_glide_einternal>
0.0915552005171776

> <i_i_glide_confnum>
1

> <i_i_glide_posenum>
107

> <r_i_glide_eff_state_penalty>
0

> <s_user_duplicate_titles>
CHEMBL5491_lig91,355505

> <i_f3d_flags>
0

> <s_m_subgroup_title>
dock_pv

> <s_m_subgroupid>
dock_pv

> <b_m_subgroup_collapsed>
1

$$$$
CHEMBL5491_lig260
                    3D
 Schrodinger Suite 2021-1.
 55 60  0  0  1  0            999 V2000
    7.5796   55.5438   18.5807 C   0  0  0  0  0  0
    8.1724   56.0626   19.7265 C   0  0  0  0  0  0
    7.6258   55.8569   20.9924 C   0  0  0  0  0  0
    6.4128   54.7887   18.6548 C   0  0  0  0  0  0
    5.8396   54.5292   19.9128 C   0  0  0  0  0  0
    6.4658   55.0716   21.0744 C   0  0  0  0  0  0
    5.7218   54.6674   22.1742 N   0  0  0  0  0  0
    4.7092   53.7926   20.3368 C   0  0  0  0  0  0
    4.6784   53.8584   21.7551 C   0  0  0  0  0  0
    3.6952   53.2071   22.5019 C   0  0  0  0  0  0
    2.7017   52.4739   21.8436 C   0  0  0  0  0  0
    3.6788   53.0716   19.6925 C   0  0  0  0  0  0
    2.7061   52.4418   20.4400 C   0  0  0  0  0  0
    1.7349   51.8466   19.4767 C   0  0  0  0  0  0
    2.2268   52.1143   18.2547 N   0  0  0  0  0  0
    3.3466   52.8593   18.2549 C   0  0  0  0  0  0
    8.1584   55.7692   17.3607 O   0  0  0  0  0  0
    0.6841   51.2493   19.7056 O   0  0  0  0  0  0
    3.9285   53.2681   17.2541 O   0  0  0  0  0  0
    5.9781   55.0629   23.5632 C   0  0  0  0  0  0
    6.8634   54.0833   24.3387 C   0  0  0  0  0  0
    6.2195   53.5229   25.6235 C   0  0  0  0  0  0
    6.0287   54.5195   26.7597 C   0  0  0  0  0  0
    4.9725   54.2588   27.6857 N   0  0  0  0  0  0
    6.8122   55.4615   26.8882 O   0  0  0  0  0  0
    1.6696   51.7900   22.6907 C   0  0  0  0  0  0
    1.5139   50.3877   22.6876 C   0  0  0  0  0  0
    0.5880   49.7724   23.5311 C   0  0  0  0  0  0
   -0.1932   50.5269   24.3958 C   0  0  0  0  0  0
   -0.0590   51.9091   24.4111 C   0  0  0  0  0  0
    0.8626   52.5389   23.5747 C   0  0  0  0  0  0
    2.4789   49.3500   21.6942 Cl  0  0  0  0  0  0
    0.9827   54.2622   23.6867 Cl  0  0  0  0  0  0
    3.8224   53.5170   27.5157 C   0  0  0  0  0  0
    3.1519   53.5587   28.7261 C   0  0  0  0  0  0
    3.8109   54.2619   29.6223 N   0  0  0  0  0  0
    4.8897   54.6632   28.9962 C   0  0  0  0  0  0
    9.0848   56.6352   19.6443 H   0  0  0  0  0  0
    8.1114   56.2564   21.8723 H   0  0  0  0  0  0
    5.9841   54.3982   17.7464 H   0  0  0  0  0  0
    3.6892   53.2750   23.5788 H   0  0  0  0  0  0
    1.7866   51.7995   17.4056 H   0  0  0  0  0  0
    9.0018   56.2212   17.4219 H   0  0  0  0  0  0
    5.0297   55.1955   24.0861 H   0  0  0  0  0  0
    6.4789   56.0370   23.5460 H   0  0  0  0  0  0
    7.7087   54.6652   24.6588 H   0  0  0  0  0  0
    7.2545   53.2907   23.6984 H   0  0  0  0  0  0
    6.8777   52.7884   26.0872 H   0  0  0  0  0  0
    5.2777   53.0631   25.3580 H   0  0  0  0  0  0
    0.4987   48.6963   23.5376 H   0  0  0  0  0  0
   -0.8909   50.0404   25.0638 H   0  0  0  0  0  0
   -0.6642   52.4929   25.0900 H   0  0  0  0  0  0
    3.5637   53.0404   26.5825 H   0  0  0  0  0  0
    2.2055   53.0898   28.9552 H   0  0  0  0  0  0
    5.6785   55.2654   29.4239 H   0  0  0  0  0  0
  1  4  1  0  0  0
  1 17  1  0  0  0
  1  2  2  0  0  0
  2  3  1  0  0  0
  2 38  1  0  0  0
  3  6  2  0  0  0
  3 39  1  0  0  0
  4  5  2  0  0  0
  4 40  1  0  0  0
  5  6  1  0  0  0
  5  8  1  0  0  0
  6  7  1  0  0  0
  7 20  1  0  0  0
  7  9  1  0  0  0
  8  9  2  0  0  0
  8 12  1  0  0  0
  9 10  1  0  0  0
 10 11  2  0  0  0
 10 41  1  0  0  0
 11 13  1  0  0  0
 11 26  1  0  0  0
 12 13  2  0  0  0
 12 16  1  0  0  0
 13 14  1  0  0  0
 14 15  1  0  0  0
 14 18  2  0  0  0
 15 16  1  0  0  0
 15 42  1  0  0  0
 16 19  2  0  0  0
 17 43  1  0  0  0
 20 21  1  0  0  0
 20 44  1  0  0  0
 20 45  1  0  0  0
 21 22  1  0  0  0
 21 46  1  0  0  0
 21 47  1  0  0  0
 22 23  1  0  0  0
 22 48  1  0  0  0
 22 49  1  0  0  0
 23 24  1  0  0  0
 23 25  2  0  0  0
 24 34  1  0  0  0
 24 37  1  0  0  0
 26 27  2  0  0  0
 26 31  1  0  0  0
 27 28  1  0  0  0
 27 32  1  0  0  0
 28 29  2  0  0  0
 28 50  1  0  0  0
 29 30  1  0  0  0
 29 51  1  0  0  0
 30 31  2  0  0  0
 30 52  1  0  0  0
 31 33  1  0  0  0
 34 35  2  0  0  0
 34 53  1  0  0  0
 35 36  1  0  0  0
 35 54  1  0  0  0
 36 37  2  0  0  0
 37 55  1  0  0  0
M  END
> <s_m_entry_id>
46416

> <s_m_entry_name>
dock_pv.157

> <s_m_Source_Path>
/home/csk/Desktop/cluster/DUD-E-result/wee1

> <s_m_Source_File>
dock_pv.maegz

> <i_m_Source_File_Index>
157

> <chembl_id>
CHEMBL483786

> <chembl_pref_name>
None

> <i_lp_mmshare_version>
53161

> <r_lp_tautomer_probability>
1

> <s_lp_Force_Field>
OPLS_2005

> <r_lp_Energy>
71.120393

> <b_lp_Chiralities_Consistent>
1

> <s_lp_Variant>
CHEMBL5491_lig260-1

> <s_i_glide_gridfile>
glide-grid_3biz

> <i_i_glide_lignum>
273

> <i_i_glide_rotatable_bonds>
7

> <r_i_docking_score>
-6.88766089461564

> <r_i_glide_ligand_efficiency>
-0.186152997151774

> <r_i_glide_ligand_efficiency_sa>
-0.620303084111908

> <r_i_glide_ligand_efficiency_ln>
-1.49377217836129

> <r_i_glide_gscore>
-6.88766089461564

> <r_i_glide_lipo>
-2.48672020126364

> <r_i_glide_hbond>
-0.32

> <r_i_glide_metal>
0

> <r_i_glide_rewards>
-1.35340491598554

> <r_i_glide_evdw>
-44.1011581420898

> <r_i_glide_ecoul>
-5.29777336120605

> <r_i_glide_erotb>
0.362629043729063

> <r_i_glide_esite>
-0.090440909810126

> <r_i_glide_emodel>
-63.1243170440293

> <r_i_glide_energy>
-49.3989315032959

> <r_i_glide_einternal>
12.0872106552124

> <i_i_glide_confnum>
38

> <i_i_glide_posenum>
23

> <r_i_glide_eff_state_penalty>
0

> <s_user_duplicate_titles>
CHEMBL5491_lig260

> <i_f3d_flags>
0

> <s_m_subgroup_title>
dock_pv

> <s_m_subgroupid>
dock_pv

> <b_m_subgroup_collapsed>
1

$$$$
CHEMBL5491_lig265
                    3D
 Schrodinger Suite 2021-1.
 52 57  0  0  1  0            999 V2000
    7.4315   55.4614   19.2314 C   0  0  0  0  0  0
    7.9278   55.9815   20.4187 C   0  0  0  0  0  0
    7.2747   55.7953   21.6374 C   0  0  0  0  0  0
    6.2673   54.6998   19.2167 C   0  0  0  0  0  0
    5.6007   54.4467   20.4287 C   0  0  0  0  0  0
    6.1137   55.0069   21.6349 C   0  0  0  0  0  0
    5.2874   54.6080   22.6766 N   0  0  0  0  0  0
    4.4629   53.6850   20.7597 C   0  0  0  0  0  0
    4.3095   53.7612   22.1694 C   0  0  0  0  0  0
    3.2940   53.0631   22.8275 C   0  0  0  0  0  0
    2.4370   52.2351   22.0899 C   0  0  0  0  0  0
    3.5245   52.9224   20.0286 C   0  0  0  0  0  0
    2.5483   52.2182   20.6926 C   0  0  0  0  0  0
    1.7063   51.5525   19.6556 C   0  0  0  0  0  0
    2.2621   51.8807   18.4763 N   0  0  0  0  0  0
    3.3098   52.7174   18.5686 C   0  0  0  0  0  0
    8.1123   55.6945   18.0660 O   0  0  0  0  0  0
    0.7031   50.8568   19.8025 O   0  0  0  0  0  0
    3.9189   53.1964   17.6158 O   0  0  0  0  0  0
    5.4160   55.0344   24.0867 C   0  0  0  0  0  0
    5.9281   53.9234   25.0118 C   0  0  0  0  0  0
    6.0196   54.4048   26.4672 C   0  0  0  0  0  0
    4.9537   54.1144   27.3756 N   0  0  0  0  0  0
    6.9919   55.0636   26.8261 O   0  0  0  0  0  0
    4.8816   54.4633   28.7039 C   0  0  0  0  0  0
    3.6648   53.9902   29.1675 C   0  0  0  0  0  0
    2.9868   53.3792   28.2141 N   0  0  0  0  0  0
    3.7561   53.4627   27.1550 C   0  0  0  0  0  0
    1.4119   51.4542   22.8517 C   0  0  0  0  0  0
    1.3774   50.0455   22.8647 C   0  0  0  0  0  0
    0.4657   49.3665   23.6735 C   0  0  0  0  0  0
   -0.4284   50.0654   24.4786 C   0  0  0  0  0  0
   -0.4228   51.4564   24.4612 C   0  0  0  0  0  0
    0.4870   52.1393   23.6559 C   0  0  0  0  0  0
    2.4787   49.0891   21.9382 Cl  0  0  0  0  0  0
    0.4760   53.8634   23.6872 Cl  0  0  0  0  0  0
    8.8473   56.5476   20.3945 H   0  0  0  0  0  0
    7.6898   56.2088   22.5442 H   0  0  0  0  0  0
    5.9127   54.2887   18.2884 H   0  0  0  0  0  0
    3.1890   53.1213   23.8979 H   0  0  0  0  0  0
    1.9227   51.5347   17.5923 H   0  0  0  0  0  0
    7.7144   55.2797   17.2966 H   0  0  0  0  0  0
    4.4334   55.3585   24.4382 H   0  0  0  0  0  0
    6.0799   55.8951   24.1368 H   0  0  0  0  0  0
    6.9174   53.5908   24.6920 H   0  0  0  0  0  0
    5.2780   53.0631   24.9485 H   0  0  0  0  0  0
    5.6834   55.0069   29.1877 H   0  0  0  0  0  0
    3.2768   54.0873   30.1732 H   0  0  0  0  0  0
    3.5074   53.0626   26.1857 H   0  0  0  0  0  0
    0.4676   48.2871   23.7005 H   0  0  0  0  0  0
   -1.1155   49.5310   25.1202 H   0  0  0  0  0  0
   -1.1108   52.0031   25.0890 H   0  0  0  0  0  0
  1  4  1  0  0  0
  1 17  1  0  0  0
  1  2  2  0  0  0
  2  3  1  0  0  0
  2 37  1  0  0  0
  3  6  2  0  0  0
  3 38  1  0  0  0
  4  5  2  0  0  0
  4 39  1  0  0  0
  5  6  1  0  0  0
  5  8  1  0  0  0
  6  7  1  0  0  0
  7 20  1  0  0  0
  7  9  1  0  0  0
  8  9  2  0  0  0
  8 12  1  0  0  0
  9 10  1  0  0  0
 10 11  2  0  0  0
 10 40  1  0  0  0
 11 13  1  0  0  0
 11 29  1  0  0  0
 12 13  2  0  0  0
 12 16  1  0  0  0
 13 14  1  0  0  0
 14 15  1  0  0  0
 14 18  2  0  0  0
 15 16  1  0  0  0
 15 41  1  0  0  0
 16 19  2  0  0  0
 17 42  1  0  0  0
 20 21  1  0  0  0
 20 43  1  0  0  0
 20 44  1  0  0  0
 21 22  1  0  0  0
 21 45  1  0  0  0
 21 46  1  0  0  0
 22 23  1  0  0  0
 22 24  2  0  0  0
 23 25  1  0  0  0
 23 28  1  0  0  0
 25 26  2  0  0  0
 25 47  1  0  0  0
 26 27  1  0  0  0
 26 48  1  0  0  0
 27 28  2  0  0  0
 28 49  1  0  0  0
 29 30  2  0  0  0
 29 34  1  0  0  0
 30 31  1  0  0  0
 30 35  1  0  0  0
 31 32  2  0  0  0
 31 50  1  0  0  0
 32 33  1  0  0  0
 32 51  1  0  0  0
 33 34  2  0  0  0
 33 52  1  0  0  0
 34 36  1  0  0  0
M  END
> <s_m_entry_id>
46417

> <s_m_entry_name>
dock_pv.158

> <s_m_Source_Path>
/home/csk/Desktop/cluster/DUD-E-result/wee1

> <s_m_Source_File>
dock_pv.maegz

> <i_m_Source_File_Index>
158

> <chembl_id>
CHEMBL486728

> <chembl_pref_name>
None

> <i_lp_mmshare_version>
53161

> <r_lp_tautomer_probability>
1

> <s_lp_Force_Field>
OPLS_2005

> <r_lp_Energy>
76.117864

> <b_lp_Chiralities_Consistent>
1

> <s_lp_Variant>
CHEMBL5491_lig265-1

> <s_i_glide_gridfile>
glide-grid_3biz

> <i_i_glide_lignum>
278

> <i_i_glide_rotatable_bonds>
6

> <r_i_docking_score>
-6.8837134640988

> <r_i_glide_ligand_efficiency>
-0.191214262891633

> <r_i_glide_ligand_efficiency_sa>
-0.631375584265003

> <r_i_glide_ligand_efficiency_ln>
-1.50184030142079

> <r_i_glide_gscore>
-6.8837134640988

> <r_i_glide_lipo>
-2.31844328711346

> <r_i_glide_hbond>
-0.32

> <r_i_glide_metal>
0

> <r_i_glide_rewards>
-1.37620633634105

> <r_i_glide_evdw>
-43.9544486999512

> <r_i_glide_ecoul>
-5.78253030776978

> <r_i_glide_erotb>
0.30468620967187

> <r_i_glide_esite>
-0.108648069153147

> <r_i_glide_emodel>
-65.8570529329615

> <r_i_glide_energy>
-49.7369790077209

> <r_i_glide_einternal>
5.14650201797485

> <i_i_glide_confnum>
17

> <i_i_glide_posenum>
92

> <r_i_glide_eff_state_penalty>
0

> <s_user_duplicate_titles>
CHEMBL5491_lig265,523645

> <i_f3d_flags>
0

> <s_m_subgroup_title>
dock_pv

> <s_m_subgroupid>
dock_pv

> <b_m_subgroup_collapsed>
1

$$$$
CHEMBL5491_lig261
                    3D
 Schrodinger Suite 2021-1.
 61 66  0  0  1  0            999 V2000
    7.4734   55.5203   19.3549 C   0  0  0  0  0  0
    7.9495   55.8632   20.6136 C   0  0  0  0  0  0
    7.2577   55.5317   21.7758 C   0  0  0  0  0  0
    6.2823   54.8166   19.2062 C   0  0  0  0  0  0
    5.5750   54.4166   20.3543 C   0  0  0  0  0  0
    6.0778   54.7873   21.6398 C   0  0  0  0  0  0
    5.2187   54.2599   22.5985 N   0  0  0  0  0  0
    4.4044   53.6484   20.5507 C   0  0  0  0  0  0
    4.2264   53.5316   21.9533 C   0  0  0  0  0  0
    3.1806   52.7774   22.4871 C   0  0  0  0  0  0
    2.2625   52.1503   21.6490 C   0  0  0  0  0  0
    3.4541   53.0181   19.7117 C   0  0  0  0  0  0
    2.4124   52.2994   20.2636 C   0  0  0  0  0  0
    1.5509   51.8429   19.1340 C   0  0  0  0  0  0
    2.1734   52.2538   18.0164 N   0  0  0  0  0  0
    3.2868   52.9745   18.2305 C   0  0  0  0  0  0
    8.1997   55.8637   18.2480 O   0  0  0  0  0  0
    0.4820   51.2364   19.1742 O   0  0  0  0  0  0
    3.9814   53.4793   17.3524 O   0  0  0  0  0  0
    5.3929   54.3496   24.0651 C   0  0  0  0  0  0
    4.1426   54.9057   24.8121 C   0  0  0  0  0  0
    3.5229   53.9745   25.8959 C   0  0  0  0  0  0
    4.1801   54.0255   27.2918 C   0  0  0  0  0  0
    3.4151   53.7842   28.3934 N   0  0  0  0  0  0
    5.3518   54.4033   27.3700 O   0  0  0  0  0  0
    2.0971   53.1150   28.3628 C   0  0  0  0  0  0
    2.2552   51.7291   29.0295 C   0  0  0  0  0  0
    2.8032   51.8634   30.3389 O   0  0  0  0  0  0
    4.0784   52.5016   30.3514 C   0  0  0  0  0  0
    3.9788   53.9241   29.7491 C   0  0  0  0  0  0
    1.1549   51.3807   22.3025 C   0  0  0  0  0  0
    0.2918   52.0102   23.2283 C   0  0  0  0  0  0
   -0.7372   51.2987   23.8427 C   0  0  0  0  0  0
   -0.9214   49.9490   23.5689 C   0  0  0  0  0  0
   -0.0566   49.3028   22.6945 C   0  0  0  0  0  0
    0.9843   49.9982   22.0782 C   0  0  0  0  0  0
    0.4785   53.6699   23.6878 Cl  0  0  0  0  0  0
    2.0782   49.0816   21.0961 Cl  0  0  0  0  0  0
    8.8893   56.3889   20.7044 H   0  0  0  0  0  0
    7.6561   55.8087   22.7410 H   0  0  0  0  0  0
    5.9485   54.5537   18.2158 H   0  0  0  0  0  0
    3.0577   52.6771   23.5474 H   0  0  0  0  0  0
    1.8322   52.0497   17.0907 H   0  0  0  0  0  0
    9.0729   56.2015   18.4586 H   0  0  0  0  0  0
    6.2454   54.9950   24.2770 H   0  0  0  0  0  0
    5.6724   53.3627   24.4267 H   0  0  0  0  0  0
    3.3601   55.1537   24.0938 H   0  0  0  0  0  0
    4.3970   55.8632   25.2756 H   0  0  0  0  0  0
    3.5187   52.9375   25.5813 H   0  0  0  0  0  0
    2.4802   54.2630   25.9965 H   0  0  0  0  0  0
    1.5514   53.1146   27.4225 H   0  0  0  0  0  0
    1.4837   53.7296   29.0222 H   0  0  0  0  0  0
    1.2859   51.2343   29.0908 H   0  0  0  0  0  0
    2.8786   51.0653   28.4332 H   0  0  0  0  0  0
    4.4338   52.5542   31.3809 H   0  0  0  0  0  0
    4.8092   51.8961   29.8099 H   0  0  0  0  0  0
    3.2175   54.4782   30.2999 H   0  0  0  0  0  0
    4.8790   54.5367   29.8170 H   0  0  0  0  0  0
   -1.3908   51.7917   24.5486 H   0  0  0  0  0  0
   -1.7150   49.3984   24.0543 H   0  0  0  0  0  0
   -0.1843   48.2491   22.5110 H   0  0  0  0  0  0
  1  4  1  0  0  0
  1 17  1  0  0  0
  1  2  2  0  0  0
  2  3  1  0  0  0
  2 39  1  0  0  0
  3  6  2  0  0  0
  3 40  1  0  0  0
  4  5  2  0  0  0
  4 41  1  0  0  0
  5  6  1  0  0  0
  5  8  1  0  0  0
  6  7  1  0  0  0
  7 20  1  0  0  0
  7  9  1  0  0  0
  8 12  1  0  0  0
  8  9  2  0  0  0
  9 10  1  0  0  0
 10 11  2  0  0  0
 10 42  1  0  0  0
 11 13  1  0  0  0
 11 31  1  0  0  0
 12 13  2  0  0  0
 12 16  1  0  0  0
 13 14  1  0  0  0
 14 15  1  0  0  0
 14 18  2  0  0  0
 15 16  1  0  0  0
 15 43  1  0  0  0
 16 19  2  0  0  0
 17 44  1  0  0  0
 20 21  1  0  0  0
 20 45  1  0  0  0
 20 46  1  0  0  0
 21 22  1  0  0  0
 21 47  1  0  0  0
 21 48  1  0  0  0
 22 23  1  0  0  0
 22 49  1  0  0  0
 22 50  1  0  0  0
 23 24  1  0  0  0
 23 25  2  0  0  0
 24 26  1  0  0  0
 24 30  1  0  0  0
 26 27  1  0  0  0
 26 51  1  0  0  0
 26 52  1  0  0  0
 27 28  1  0  0  0
 27 53  1  0  0  0
 27 54  1  0  0  0
 28 29  1  0  0  0
 29 30  1  0  0  0
 29 55  1  0  0  0
 29 56  1  0  0  0
 30 57  1  0  0  0
 30 58  1  0  0  0
 31 32  2  0  0  0
 31 36  1  0  0  0
 32 33  1  0  0  0
 32 37  1  0  0  0
 33 34  2  0  0  0
 33 59  1  0  0  0
 34 35  1  0  0  0
 34 60  1  0  0  0
 35 36  2  0  0  0
 35 61  1  0  0  0
 36 38  1  0  0  0
M  END
> <s_m_entry_id>
46418

> <s_m_entry_name>
dock_pv.159

> <s_m_Source_Path>
/home/csk/Desktop/cluster/DUD-E-result/wee1

> <s_m_Source_File>
dock_pv.maegz

> <i_m_Source_File_Index>
159

> <chembl_id>
CHEMBL483611

> <chembl_pref_name>
None

> <i_lp_mmshare_version>
53161

> <r_lp_tautomer_probability>
1

> <s_lp_Force_Field>
OPLS_2005

> <r_lp_Energy>
85.885536

> <b_lp_Chiralities_Consistent>
1

> <s_lp_Variant>
CHEMBL5491_lig261-1

> <s_i_glide_gridfile>
glide-grid_3biz

> <i_i_glide_lignum>
274

> <i_i_glide_rotatable_bonds>
7

> <r_i_docking_score>
-6.88360333196621

> <r_i_glide_ligand_efficiency>
-0.181147456104374

> <r_i_glide_ligand_efficiency_sa>
-0.609013291688654

> <r_i_glide_ligand_efficiency_ln>
-1.4843073734661

> <r_i_glide_gscore>
-6.88360333196621

> <r_i_glide_lipo>
-2.62785246033252

> <r_i_glide_hbond>
-0.32

> <r_i_glide_metal>
0

> <r_i_glide_rewards>
-1.06031677788946

> <r_i_glide_evdw>
-46.7962913513184

> <r_i_glide_ecoul>
-4.86535549163818

> <r_i_glide_erotb>
0.268657006409014

> <r_i_glide_esite>
-0.0744732088415976

> <r_i_glide_emodel>
-67.9091151569788

> <r_i_glide_energy>
-51.6616468429565

> <r_i_glide_einternal>
9.02351474761963

> <i_i_glide_confnum>
50

> <i_i_glide_posenum>
389

> <r_i_glide_eff_state_penalty>
0

> <s_user_duplicate_titles>
CHEMBL5491_lig261

> <i_f3d_flags>
0

> <s_m_subgroup_title>
dock_pv

> <s_m_subgroupid>
dock_pv

> <b_m_subgroup_collapsed>
1

$$$$
CHEMBL5491_lig358
                    3D
 Schrodinger Suite 2021-1.
 57 61  0  0  1  0            999 V2000
    5.0613   54.0383   18.0930 Cl  0  0  0  0  0  0
    3.9549   52.4628   20.4865 N   0  0  0  0  0  0
    5.1857   53.7014   22.0926 N   0  0  0  0  0  0
    3.7766   54.2574   28.5680 N   0  0  0  0  0  0
    6.4589   54.8935   23.7085 N   0  0  0  0  0  0
    6.6908   55.4633   21.4526 N   0  0  0  0  0  0
    0.4753   50.1201   24.0807 N   0  0  0  0  0  0
    0.2430   51.1363   24.9338 N   0  0  0  0  0  0
    1.3863   53.1895   29.8628 N   0  0  0  0  0  0
    4.8704   53.4854   20.7860 C   0  0  0  0  0  0
    1.5753   51.8655   23.2621 C   0  0  0  0  0  0
    2.9912   51.8577   21.3100 C   0  0  0  0  0  0
    1.2804   50.5019   23.0249 C   0  0  0  0  0  0
    6.0825   54.6768   22.3765 C   0  0  0  0  0  0
    5.4381   54.2644   19.7670 C   0  0  0  0  0  0
    2.4136   52.5517   22.3783 C   0  0  0  0  0  0
    4.4284   54.3061   27.3479 C   0  0  0  0  0  0
    5.7600   54.6443   24.9037 C   0  0  0  0  0  0
    2.6339   50.5301   21.0622 C   0  0  0  0  0  0
    1.7807   49.8157   21.9124 C   0  0  0  0  0  0
    0.8774   52.1781   24.4652 C   0  0  0  0  0  0
    6.3481   55.2509   20.1542 C   0  0  0  0  0  0
    3.7084   54.3429   26.1522 C   0  0  0  0  0  0
    5.8233   54.3675   27.3093 C   0  0  0  0  0  0
    4.3675   54.5275   24.9411 C   0  0  0  0  0  0
    6.4781   54.5614   26.0944 C   0  0  0  0  0  0
    2.5930   55.0817   28.8645 C   0  0  0  0  0  0
    3.8161   53.0728   29.4374 C   0  0  0  0  0  0
    1.2775   54.2810   28.8965 C   0  0  0  0  0  0
    2.4742   52.2971   29.4488 C   0  0  0  0  0  0
    0.1075   52.5172   30.1091 C   0  0  0  0  0  0
   -0.4844   51.7417   28.9139 C   0  0  0  0  0  0
    4.0707   52.0531   19.5675 H   0  0  0  0  0  0
    7.3015   55.4428   23.7977 H   0  0  0  0  0  0
    0.1008   49.2013   24.2729 H   0  0  0  0  0  0
    2.6321   53.5947   22.5348 H   0  0  0  0  0  0
    3.0728   50.0161   20.2170 H   0  0  0  0  0  0
    1.5534   48.7753   21.7347 H   0  0  0  0  0  0
    0.8664   53.1197   24.9869 H   0  0  0  0  0  0
    6.8269   55.8788   19.4150 H   0  0  0  0  0  0
    2.6325   54.2629   26.1652 H   0  0  0  0  0  0
    6.3951   54.3351   28.2268 H   0  0  0  0  0  0
    3.7845   54.6174   24.0399 H   0  0  0  0  0  0
    7.5459   54.6640   26.0836 H   0  0  0  0  0  0
    2.7476   55.5958   29.8140 H   0  0  0  0  0  0
    2.4813   55.8635   28.1137 H   0  0  0  0  0  0
    4.0789   53.3838   30.4496 H   0  0  0  0  0  0
    4.6066   52.3995   29.1009 H   0  0  0  0  0  0
    1.0303   53.9093   27.9017 H   0  0  0  0  0  0
    0.4791   54.9548   29.1986 H   0  0  0  0  0  0
    2.5436   51.4634   30.1452 H   0  0  0  0  0  0
    2.2820   51.8734   28.4613 H   0  0  0  0  0  0
   -0.6092   53.2680   30.4412 H   0  0  0  0  0  0
    0.2344   51.8633   30.9699 H   0  0  0  0  0  0
   -1.4114   51.2454   29.2055 H   0  0  0  0  0  0
    0.1888   50.9651   28.5571 H   0  0  0  0  0  0
   -0.7128   52.3974   28.0747 H   0  0  0  0  0  0
  1 15  1  0  0  0
  2 10  1  0  0  0
  2 12  1  0  0  0
  2 33  1  0  0  0
  3 10  2  0  0  0
  3 14  1  0  0  0
  4 17  1  0  0  0
  4 27  1  0  0  0
  4 28  1  0  0  0
  5 14  1  0  0  0
  5 18  1  0  0  0
  5 34  1  0  0  0
  6 14  2  0  0  0
  6 22  1  0  0  0
  7  8  1  0  0  0
  7 13  1  0  0  0
  7 35  1  0  0  0
  8 21  2  0  0  0
  9 29  1  0  0  0
  9 30  1  0  0  0
  9 31  1  0  0  0
 10 15  1  0  0  0
 11 13  1  0  0  0
 11 16  2  0  0  0
 11 21  1  0  0  0
 12 16  1  0  0  0
 12 19  2  0  0  0
 13 20  2  0  0  0
 15 22  2  0  0  0
 16 36  1  0  0  0
 17 23  2  0  0  0
 17 24  1  0  0  0
 18 25  2  0  0  0
 18 26  1  0  0  0
 19 20  1  0  0  0
 19 37  1  0  0  0
 20 38  1  0  0  0
 21 39  1  0  0  0
 22 40  1  0  0  0
 23 25  1  0  0  0
 23 41  1  0  0  0
 24 26  2  0  0  0
 24 42  1  0  0  0
 25 43  1  0  0  0
 26 44  1  0  0  0
 27 29  1  0  0  0
 27 45  1  0  0  0
 27 46  1  0  0  0
 28 30  1  0  0  0
 28 47  1  0  0  0
 28 48  1  0  0  0
 29 49  1  0  0  0
 29 50  1  0  0  0
 30 51  1  0  0  0
 30 52  1  0  0  0
 31 32  1  0  0  0
 31 53  1  0  0  0
 31 54  1  0  0  0
 32 55  1  0  0  0
 32 56  1  0  0  0
 32 57  1  0  0  0
M  END
> <s_m_entry_id>
46419

> <s_m_entry_name>
dock_pv.160

> <s_m_Source_Path>
/home/csk/Desktop/cluster/DUD-E-result/wee1

> <s_m_Source_File>
dock_pv.maegz

> <i_m_Source_File_Index>
160

> <chembl_id>
CHEMBL1967998

> <chembl_pref_name>
None

> <i_lp_mmshare_version>
53161

> <r_lp_tautomer_probability>
0.983170142140339

> <s_lp_Force_Field>
OPLS_2005

> <r_lp_Energy>
39.751599

> <b_lp_Chiralities_Consistent>
1

> <s_lp_Variant>
CHEMBL5491_lig358-1

> <s_i_glide_gridfile>
glide-grid_3biz

> <i_i_glide_lignum>
381

> <i_i_glide_rotatable_bonds>
6

> <r_i_docking_score>
-6.87912695845842

> <r_i_glide_ligand_efficiency>
-0.214972717451826

> <r_i_glide_ligand_efficiency_sa>
-0.682495834866531

> <r_i_glide_ligand_efficiency_ln>
-1.54042404391752

> <r_i_glide_gscore>
-6.87912695845842

> <r_i_glide_lipo>
-3.66079669282398

> <r_i_glide_hbond>
-0.0704615090350772

> <r_i_glide_metal>
0

> <r_i_glide_rewards>
-1.10175864502079

> <r_i_glide_evdw>
-52.2627868652344

> <r_i_glide_ecoul>
0.806001484394073

> <r_i_glide_erotb>
0.497054191876691

> <r_i_glide_esite>
-0.0509251828526642

> <r_i_glide_emodel>
-66.5510575560725

> <r_i_glide_energy>
-51.4567853808403

> <r_i_glide_einternal>
9.83961391448975

> <i_i_glide_confnum>
22

> <i_i_glide_posenum>
9

> <r_i_glide_eff_state_penalty>
0

> <s_user_duplicate_titles>
CHEMBL5491_lig358

> <i_f3d_flags>
0

> <s_m_subgroup_title>
dock_pv

> <s_m_subgroupid>
dock_pv

> <b_m_subgroup_collapsed>
1

$$$$
CHEMBL5491_lig220
                    3D
 Schrodinger Suite 2021-1.
 63 68  0  0  1  0            999 V2000
    2.8654   53.0770   29.6536 C   0  0  0  0  0  0
    3.8855   53.9769   29.3710 C   0  0  0  0  0  0
    4.1560   54.3944   28.0682 C   0  0  0  0  0  0
    2.0514   52.5811   28.6437 C   0  0  0  0  0  0
    2.2726   52.9974   27.3188 C   0  0  0  0  0  0
    3.3339   53.8976   27.0456 C   0  0  0  0  0  0
    3.3384   54.1326   25.6760 N   0  0  0  0  0  0
    1.6646   52.6741   26.0905 C   0  0  0  0  0  0
    2.3901   53.3247   25.0616 C   0  0  0  0  0  0
    2.0975   53.1027   23.7046 C   0  0  0  0  0  0
    1.1319   52.1385   23.3721 C   0  0  0  0  0  0
    0.5807   51.8613   25.7199 C   0  0  0  0  0  0
    0.3587   51.5666   24.3985 C   0  0  0  0  0  0
   -0.7530   50.5651   24.3761 C   0  0  0  0  0  0
   -1.1487   50.4309   25.6564 N   0  0  0  0  0  0
   -0.4752   51.2032   26.5235 C   0  0  0  0  0  0
   -1.2411   49.9708   23.4173 O   0  0  0  0  0  0
   -0.7181   51.3405   27.7173 O   0  0  0  0  0  0
    0.9904   51.7559   21.9384 C   0  0  0  0  0  0
    2.1089   51.2879   21.2341 C   0  0  0  0  0  0
    2.0066   50.9383   19.8907 C   0  0  0  0  0  0
    0.7805   51.0540   19.2421 C   0  0  0  0  0  0
   -0.3418   51.5128   19.9261 C   0  0  0  0  0  0
   -0.2335   51.8622   21.2710 C   0  0  0  0  0  0
    2.6605   52.6626   30.9409 O   0  0  0  0  0  0
    4.2345   55.0626   24.9979 C   0  0  0  0  0  0
    5.5865   54.4299   24.5920 C   0  0  0  0  0  0
    5.5764   53.7276   23.2183 C   0  0  0  0  0  0
    5.3990   54.6418   22.0835 N   0  0  0  0  0  0
    6.6328   55.3997   21.8193 C   0  0  0  0  0  0
    6.4678   56.3155   20.5847 C   0  0  0  0  0  0
    6.1739   55.5075   19.3991 N   0  0  0  0  0  0
    4.9210   54.7744   19.6172 C   0  0  0  0  0  0
    5.0129   53.8804   20.8808 C   0  0  0  0  0  0
    6.0596   56.3594   18.2191 C   0  0  0  0  0  0
    4.4911   54.3517   30.1811 H   0  0  0  0  0  0
    4.9711   55.0736   27.8683 H   0  0  0  0  0  0
    1.2797   51.8734   28.8946 H   0  0  0  0  0  0
    2.6500   53.6043   22.9238 H   0  0  0  0  0  0
   -1.8786   49.7997   25.9525 H   0  0  0  0  0  0
    3.0645   51.1936   21.7281 H   0  0  0  0  0  0
    2.8718   50.5757   19.3508 H   0  0  0  0  0  0
    0.7015   50.7802   18.2014 H   0  0  0  0  0  0
   -1.2888   51.5928   19.4147 H   0  0  0  0  0  0
   -1.1072   52.2164   21.7988 H   0  0  0  0  0  0
    2.8604   53.3508   31.5912 H   0  0  0  0  0  0
    4.4024   55.9052   25.6658 H   0  0  0  0  0  0
    3.6973   55.4628   24.1396 H   0  0  0  0  0  0
    5.8990   53.7132   25.3523 H   0  0  0  0  0  0
    6.3563   55.2004   24.6089 H   0  0  0  0  0  0
    4.7212   53.0628   23.2191 H   0  0  0  0  0  0
    6.4590   53.0984   23.0923 H   0  0  0  0  0  0
    7.4834   54.7321   21.6879 H   0  0  0  0  0  0
    6.8736   56.0258   22.6770 H   0  0  0  0  0  0
    5.6808   57.0520   20.7577 H   0  0  0  0  0  0
    7.3923   56.8670   20.4186 H   0  0  0  0  0  0
    4.0764   55.4598   19.6866 H   0  0  0  0  0  0
    4.7253   54.1335   18.7549 H   0  0  0  0  0  0
    4.0287   53.4416   21.0475 H   0  0  0  0  0  0
    5.6822   53.0383   20.7042 H   0  0  0  0  0  0
    5.8378   55.7557   17.3379 H   0  0  0  0  0  0
    5.2664   57.1026   18.3260 H   0  0  0  0  0  0
    6.9946   56.8855   18.0269 H   0  0  0  0  0  0
  1  2  2  0  0  0
  1  4  1  0  0  0
  1 25  1  0  0  0
  2  3  1  0  0  0
  2 36  1  0  0  0
  3  6  2  0  0  0
  3 37  1  0  0  0
  4  5  2  0  0  0
  4 38  1  0  0  0
  5  8  1  0  0  0
  5  6  1  0  0  0
  6  7  1  0  0  0
  7 26  1  0  0  0
  7  9  1  0  0  0
  8  9  2  0  0  0
  8 12  1  0  0  0
  9 10  1  0  0  0
 10 11  2  0  0  0
 10 39  1  0  0  0
 11 19  1  0  0  0
 11 13  1  0  0  0
 12 16  1  0  0  0
 12 13  2  0  0  0
 13 14  1  0  0  0
 14 17  2  0  0  0
 14 15  1  0  0  0
 15 16  1  0  0  0
 15 40  1  0  0  0
 16 18  2  0  0  0
 19 20  2  0  0  0
 19 24  1  0  0  0
 20 21  1  0  0  0
 20 41  1  0  0  0
 21 22  2  0  0  0
 21 42  1  0  0  0
 22 23  1  0  0  0
 22 43  1  0  0  0
 23 24  2  0  0  0
 23 44  1  0  0  0
 24 45  1  0  0  0
 25 46  1  0  0  0
 26 27  1  0  0  0
 26 47  1  0  0  0
 26 48  1  0  0  0
 27 28  1  0  0  0
 27 49  1  0  0  0
 27 50  1  0  0  0
 28 29  1  0  0  0
 28 51  1  0  0  0
 28 52  1  0  0  0
 29 30  1  0  0  0
 29 34  1  0  0  0
 30 31  1  0  0  0
 30 53  1  0  0  0
 30 54  1  0  0  0
 31 32  1  0  0  0
 31 55  1  0  0  0
 31 56  1  0  0  0
 32 33  1  0  0  0
 32 35  1  0  0  0
 33 34  1  0  0  0
 33 57  1  0  0  0
 33 58  1  0  0  0
 34 59  1  0  0  0
 34 60  1  0  0  0
 35 61  1  0  0  0
 35 62  1  0  0  0
 35 63  1  0  0  0
M  END
> <s_m_entry_id>
46420

> <s_m_entry_name>
dock_pv.161

> <s_m_Source_Path>
/home/csk/Desktop/cluster/DUD-E-result/wee1

> <s_m_Source_File>
dock_pv.maegz

> <i_m_Source_File_Index>
161

> <chembl_id>
CHEMBL453347

> <chembl_pref_name>
None

> <i_lp_mmshare_version>
53161

> <r_lp_tautomer_probability>
1

> <s_lp_Force_Field>
OPLS_2005

> <r_lp_Energy>
93.769264

> <b_lp_Chiralities_Consistent>
1

> <s_lp_Variant>
CHEMBL5491_lig220-1

> <s_i_glide_gridfile>
glide-grid_3biz

> <i_i_glide_lignum>
232

> <i_i_glide_rotatable_bonds>
6

> <r_i_docking_score>
-6.86945972971457

> <r_i_glide_ligand_efficiency>
-0.196270277991845

> <r_i_glide_ligand_efficiency_sa>
-0.642013093269613

> <r_i_glide_ligand_efficiency_ln>
-1.50799887011675

> <r_i_glide_gscore>
-6.86945972971457

> <r_i_glide_lipo>
-3.3027710763312

> <r_i_glide_hbond>
-0.32

> <r_i_glide_metal>
0

> <r_i_glide_rewards>
-0.48201068832894

> <r_i_glide_evdw>
-44.1661720275879

> <r_i_glide_ecoul>
-5.77205276489258

> <r_i_glide_erotb>
0.459850528716063

> <r_i_glide_esite>
-0.150411977657212

> <r_i_glide_emodel>
-64.9428570746055

> <r_i_glide_energy>
-49.9382247924805

> <r_i_glide_einternal>
7.5094633102417

> <i_i_glide_confnum>
22

> <i_i_glide_posenum>
332

> <r_i_glide_eff_state_penalty>
0

> <s_user_duplicate_titles>
CHEMBL5491_lig220,451397

> <i_f3d_flags>
0

> <s_m_subgroup_title>
dock_pv

> <s_m_subgroupid>
dock_pv

> <b_m_subgroup_collapsed>
1

$$$$
CHEMBL5491_lig173
                    3D
 Schrodinger Suite 2021-1.
 52 56  0  0  1  0            999 V2000
   -0.5732   50.5049   25.6679 C   0  0  0  0  0  0
   -0.2709   51.1659   26.8532 C   0  0  0  0  0  0
    0.6497   52.2089   26.8973 C   0  0  0  0  0  0
    0.0330   50.8656   24.4689 C   0  0  0  0  0  0
    0.9879   51.8977   24.4677 C   0  0  0  0  0  0
    1.2798   52.5600   25.6957 C   0  0  0  0  0  0
    2.2658   53.4953   25.4411 N   0  0  0  0  0  0
    1.8367   52.4444   23.4757 C   0  0  0  0  0  0
    2.5835   53.4795   24.0920 C   0  0  0  0  0  0
    3.5110   54.2516   23.3821 C   0  0  0  0  0  0
    3.8436   53.8864   22.0672 C   0  0  0  0  0  0
    2.1019   52.1677   22.1199 C   0  0  0  0  0  0
    3.0886   52.8649   21.4521 C   0  0  0  0  0  0
    3.1173   52.3117   20.0608 C   0  0  0  0  0  0
    2.2062   51.3263   20.0322 N   0  0  0  0  0  0
    1.5350   51.1591   21.1804 C   0  0  0  0  0  0
    3.7899   52.6630   19.0963 O   0  0  0  0  0  0
    0.6474   50.3300   21.3676 O   0  0  0  0  0  0
   -1.4576   49.4633   25.6869 O   0  0  0  0  0  0
    5.0101   54.5840   21.4131 C   0  0  0  0  0  0
    6.2283   54.8173   22.0957 C   0  0  0  0  0  0
    7.2760   55.5011   21.4741 C   0  0  0  0  0  0
    7.1593   55.9394   20.1599 C   0  0  0  0  0  0
    5.9744   55.7188   19.4695 C   0  0  0  0  0  0
    4.9165   55.0630   20.0951 C   0  0  0  0  0  0
    6.5252   54.2548   23.7094 Cl  0  0  0  0  0  0
    2.9876   54.2624   26.4578 C   0  0  0  0  0  0
    4.2388   53.4823   26.9173 C   0  0  0  0  0  0
    5.2424   54.3043   27.7538 C   0  0  0  0  0  0
    6.5814   53.5597   27.8966 C   0  0  0  0  0  0
    4.6818   54.6837   29.1357 C   0  0  0  0  0  0
   -0.7517   50.8508   27.7687 H   0  0  0  0  0  0
    0.8830   52.6944   27.8337 H   0  0  0  0  0  0
   -0.2125   50.3138   23.5775 H   0  0  0  0  0  0
    4.0378   55.0508   23.8769 H   0  0  0  0  0  0
    2.0437   50.7683   19.2088 H   0  0  0  0  0  0
   -1.5193   49.0618   26.5776 H   0  0  0  0  0  0
    8.1948   55.6796   22.0096 H   0  0  0  0  0  0
    7.9814   56.4465   19.6769 H   0  0  0  0  0  0
    5.8651   56.0696   18.4549 H   0  0  0  0  0  0
    3.9889   54.9792   19.5493 H   0  0  0  0  0  0
    3.2791   55.2195   26.0276 H   0  0  0  0  0  0
    2.3218   54.4909   27.2906 H   0  0  0  0  0  0
    3.9316   52.5953   27.4743 H   0  0  0  0  0  0
    4.7634   53.1090   26.0369 H   0  0  0  0  0  0
    5.4510   55.2261   27.2098 H   0  0  0  0  0  0
    6.4667   52.6494   28.4838 H   0  0  0  0  0  0
    6.9875   53.2775   26.9250 H   0  0  0  0  0  0
    7.3258   54.1801   28.3938 H   0  0  0  0  0  0
    4.4627   53.8002   29.7366 H   0  0  0  0  0  0
    5.4015   55.2884   29.6863 H   0  0  0  0  0  0
    3.7631   55.2650   29.0585 H   0  0  0  0  0  0
  1  2  2  0  0  0
  1 19  1  0  0  0
  1  4  1  0  0  0
  2  3  1  0  0  0
  2 32  1  0  0  0
  3  6  2  0  0  0
  3 33  1  0  0  0
  4  5  2  0  0  0
  4 34  1  0  0  0
  5  8  1  0  0  0
  5  6  1  0  0  0
  6  7  1  0  0  0
  7  9  1  0  0  0
  7 27  1  0  0  0
  8  9  2  0  0  0
  8 12  1  0  0  0
  9 10  1  0  0  0
 10 11  2  0  0  0
 10 35  1  0  0  0
 11 13  1  0  0  0
 11 20  1  0  0  0
 12 16  1  0  0  0
 12 13  2  0  0  0
 13 14  1  0  0  0
 14 15  1  0  0  0
 14 17  2  0  0  0
 15 16  1  0  0  0
 15 36  1  0  0  0
 16 18  2  0  0  0
 19 37  1  0  0  0
 20 21  2  0  0  0
 20 25  1  0  0  0
 21 22  1  0  0  0
 21 26  1  0  0  0
 22 23  2  0  0  0
 22 38  1  0  0  0
 23 24  1  0  0  0
 23 39  1  0  0  0
 24 25  2  0  0  0
 24 40  1  0  0  0
 25 41  1  0  0  0
 27 28  1  0  0  0
 27 42  1  0  0  0
 27 43  1  0  0  0
 28 29  1  0  0  0
 28 44  1  0  0  0
 28 45  1  0  0  0
 29 30  1  0  0  0
 29 31  1  0  0  0
 29 46  1  0  0  0
 30 47  1  0  0  0
 30 48  1  0  0  0
 30 49  1  0  0  0
 31 50  1  0  0  0
 31 51  1  0  0  0
 31 52  1  0  0  0
M  END
> <s_m_entry_id>
46421

> <s_m_entry_name>
dock_pv.162

> <s_m_Source_Path>
/home/csk/Desktop/cluster/DUD-E-result/wee1

> <s_m_Source_File>
dock_pv.maegz

> <i_m_Source_File_Index>
162

> <chembl_id>
CHEMBL384831

> <chembl_pref_name>
None

> <i_lp_mmshare_version>
53161

> <r_lp_tautomer_probability>
1

> <s_lp_Force_Field>
OPLS_2005

> <r_lp_Energy>
69.916043

> <b_lp_Chiralities_Consistent>
1

> <s_lp_Variant>
CHEMBL5491_lig173-1

> <s_i_glide_gridfile>
glide-grid_3biz

> <i_i_glide_lignum>
177

> <i_i_glide_rotatable_bonds>
5

> <r_i_docking_score>
-6.85313982239651

> <r_i_glide_ligand_efficiency>
-0.22106902652892

> <r_i_glide_ligand_efficiency_sa>
-0.694461961986023

> <r_i_glide_ligand_efficiency_ln>
-1.5455930534631

> <r_i_glide_gscore>
-6.85313982239651

> <r_i_glide_lipo>
-3.29636960098102

> <r_i_glide_hbond>
-0.16

> <r_i_glide_metal>
0

> <r_i_glide_rewards>
-0.716123033650483

> <r_i_glide_evdw>
-38.9998359680176

> <r_i_glide_ecoul>
-6.59759616851807

> <r_i_glide_erotb>
0.318608008205722

> <r_i_glide_esite>
-0.0596239722921398

> <r_i_glide_emodel>
-58.3683530242544

> <r_i_glide_energy>
-45.5974321365356

> <r_i_glide_einternal>
9.68441581726074

> <i_i_glide_confnum>
16

> <i_i_glide_posenum>
23

> <r_i_glide_eff_state_penalty>
0

> <s_user_duplicate_titles>
CHEMBL5491_lig173,355981

> <i_f3d_flags>
0

> <s_m_subgroup_title>
dock_pv

> <s_m_subgroupid>
dock_pv

> <b_m_subgroup_collapsed>
1

$$$$
CHEMBL5491_lig294
                    3D
 Schrodinger Suite 2021-1.
 51 56  0  0  1  0            999 V2000
    4.0720   52.2038   29.2423 N   0  0  0  0  0  0
    2.9537   51.9265   30.0033 N   0  0  0  0  0  0
    2.3434   53.0641   30.2641 C   0  0  0  0  0  0
    3.0309   54.1223   29.6869 C   0  0  0  0  0  0
    4.0887   53.5217   29.0581 N   0  0  0  0  0  0
   -0.1973   50.5305   25.6069 C   0  0  0  0  0  0
    0.1153   51.2427   26.7578 C   0  0  0  0  0  0
    0.9977   52.3210   26.7339 C   0  0  0  0  0  0
    0.3523   50.8753   24.3757 C   0  0  0  0  0  0
    1.2713   51.9385   24.3061 C   0  0  0  0  0  0
    1.5782   52.6560   25.5003 C   0  0  0  0  0  0
    2.5307   53.6074   25.1784 N   0  0  0  0  0  0
    2.0691   52.4702   23.2642 C   0  0  0  0  0  0
    2.8206   53.5259   23.8290 C   0  0  0  0  0  0
    3.7335   54.2634   23.0825 C   0  0  0  0  0  0
    4.0118   53.8970   21.7597 C   0  0  0  0  0  0
    2.2924   52.1650   21.9034 C   0  0  0  0  0  0
    3.2427   52.8634   21.1839 C   0  0  0  0  0  0
    3.2081   52.3050   19.7965 C   0  0  0  0  0  0
    2.3237   51.2962   19.8243 N   0  0  0  0  0  0
    1.7074   51.1313   21.0047 C   0  0  0  0  0  0
   -1.0390   49.4570   25.6869 O   0  0  0  0  0  0
    3.8193   52.6630   18.7955 O   0  0  0  0  0  0
    0.8462   50.2895   21.2431 O   0  0  0  0  0  0
    3.2771   54.4238   26.1383 C   0  0  0  0  0  0
    4.6283   53.7460   26.4553 C   0  0  0  0  0  0
    5.1279   54.6344   21.0686 C   0  0  0  0  0  0
    6.3513   54.9228   21.7197 C   0  0  0  0  0  0
    7.3438   55.6694   21.0803 C   0  0  0  0  0  0
    7.1584   56.1210   19.7774 C   0  0  0  0  0  0
    5.9675   55.8418   19.1166 C   0  0  0  0  0  0
    4.9688   55.1091   19.7569 C   0  0  0  0  0  0
    6.7429   54.2827   23.2870 Cl  0  0  0  0  0  0
    5.3264   54.2967   28.0831 S   0  0  2  0  0  0
    6.6432   53.5396   28.2660 O   0  0  0  0  0  0
    1.4500   53.1259   30.8687 H   0  0  0  0  0  0
    2.8771   55.1913   29.6745 H   0  0  0  0  0  0
   -0.3233   50.9422   27.7002 H   0  0  0  0  0  0
    1.2402   52.8447   27.6452 H   0  0  0  0  0  0
    0.0973   50.2885   23.5101 H   0  0  0  0  0  0
    4.2764   55.0612   23.5548 H   0  0  0  0  0  0
    2.1432   50.7183   19.0173 H   0  0  0  0  0  0
   -1.1220   49.0826   26.5878 H   0  0  0  0  0  0
    2.6549   54.5538   27.0223 H   0  0  0  0  0  0
    3.4208   55.4157   25.7098 H   0  0  0  0  0  0
    5.3636   53.9551   25.6815 H   0  0  0  0  0  0
    4.5300   52.6638   26.4979 H   0  0  0  0  0  0
    8.2791   55.8640   21.5864 H   0  0  0  0  0  0
    7.9371   56.6769   19.2764 H   0  0  0  0  0  0
    5.8107   56.2008   18.1102 H   0  0  0  0  0  0
    4.0294   54.9820   19.2421 H   0  0  0  0  0  0
  1  5  1  0  0  0
  1  2  2  0  0  0
  2  3  1  0  0  0
  3  4  2  0  0  0
  3 36  1  0  0  0
  4  5  1  0  0  0
  4 37  1  0  0  0
  5 34  1  0  0  0
  6  9  2  0  0  0
  6 22  1  0  0  0
  6  7  1  0  0  0
  7  8  2  0  0  0
  7 38  1  0  0  0
  8 11  1  0  0  0
  8 39  1  0  0  0
  9 10  1  0  0  0
  9 40  1  0  0  0
 10 11  2  0  0  0
 10 13  1  0  0  0
 11 12  1  0  0  0
 12 25  1  0  0  0
 12 14  1  0  0  0
 13 17  1  0  0  0
 13 14  2  0  0  0
 14 15  1  0  0  0
 15 16  2  0  0  0
 15 41  1  0  0  0
 16 27  1  0  0  0
 16 18  1  0  0  0
 17 18  2  0  0  0
 17 21  1  0  0  0
 18 19  1  0  0  0
 19 20  1  0  0  0
 19 23  2  0  0  0
 20 21  1  0  0  0
 20 42  1  0  0  0
 21 24  2  0  0  0
 22 43  1  0  0  0
 25 26  1  0  0  0
 25 44  1  0  0  0
 25 45  1  0  0  0
 26 34  1  0  0  0
 26 46  1  0  0  0
 26 47  1  0  0  0
 27 28  1  0  0  0
 27 32  2  0  0  0
 28 29  2  0  0  0
 28 33  1  0  0  0
 29 30  1  0  0  0
 29 48  1  0  0  0
 30 31  2  0  0  0
 30 49  1  0  0  0
 31 32  1  0  0  0
 31 50  1  0  0  0
 32 51  1  0  0  0
 34 35  2  0  0  0
M  END
> <s_m_entry_id>
46422

> <s_m_entry_name>
dock_pv.163

> <s_m_Source_Path>
/home/csk/Desktop/cluster/DUD-E-result/wee1

> <s_m_Source_File>
dock_pv.maegz

> <i_m_Source_File_Index>
163

> <chembl_id>
CHEMBL486517

> <chembl_pref_name>
None

> <i_lp_mmshare_version>
53161

> <r_lp_tautomer_probability>
1

> <s_lp_Force_Field>
OPLS_2005

> <r_lp_Energy>
67.768629

> <b_lp_Chiralities_Consistent>
1

> <s_lp_Variant>
CHEMBL5491_lig294-2

> <s_i_glide_gridfile>
glide-grid_3biz

> <i_i_glide_lignum>
310

> <i_i_glide_rotatable_bonds>
6

> <r_i_docking_score>
-6.82356690019414

> <r_i_glide_ligand_efficiency>
-0.194959054291261

> <r_i_glide_ligand_efficiency_sa>
-0.637723993602596

> <r_i_glide_ligand_efficiency_ln>
-1.49792437550054

> <r_i_glide_gscore>
-6.82356690019414

> <r_i_glide_lipo>
-2.30604477419834

> <r_i_glide_hbond>
-0.16

> <r_i_glide_metal>
0

> <r_i_glide_rewards>
-1.08664701516794

> <r_i_glide_evdw>
-47.0069198608398

> <r_i_glide_ecoul>
-7.67077016830444

> <r_i_glide_erotb>
0.319674102473071

> <r_i_glide_esite>
-0.0895876950132734

> <r_i_glide_emodel>
-70.7664717025601

> <r_i_glide_energy>
-54.6776900291443

> <r_i_glide_einternal>
11.814474105835

> <i_i_glide_confnum>
33

> <i_i_glide_posenum>
53

> <r_i_glide_eff_state_penalty>
0

> <s_user_duplicate_titles>
CHEMBL5491_lig294

> <i_f3d_flags>
0

> <s_m_subgroup_title>
dock_pv

> <s_m_subgroupid>
dock_pv

> <b_m_subgroup_collapsed>
1

$$$$
CHEMBL5491_lig68
                    3D
 Schrodinger Suite 2021-1.
 43 46  0  0  1  0            999 V2000
    4.8231   54.2626   22.0377 C   0  0  0  0  0  0
    5.1124   54.2630   24.4354 N   0  0  0  0  0  0
    3.7218   54.0219   24.6409 C   0  0  0  0  0  0
    5.7252   54.2574   23.2011 C   0  0  0  0  0  0
    5.3317   54.3867   20.6273 C   0  0  0  0  0  0
    3.2667   53.7166   25.8907 N   0  0  0  0  0  0
    2.8923   53.9173   23.5197 C   0  0  0  0  0  0
    3.4922   54.1367   22.2113 C   0  0  0  0  0  0
    1.9963   53.2381   25.9815 C   0  0  0  0  0  0
    5.0096   53.4028   19.6610 C   0  0  0  0  0  0
    6.0707   55.5108   20.1969 C   0  0  0  0  0  0
    5.3989   53.5668   18.3229 C   0  0  0  0  0  0
    6.4671   55.6491   18.8622 C   0  0  0  0  0  0
    6.1227   54.6832   17.9306 C   0  0  0  0  0  0
    1.1555   53.0617   24.9309 N   0  0  0  0  0  0
    1.6069   53.4207   23.7054 C   0  0  0  0  0  0
    1.4478   52.9005   27.2237 N   0  0  0  0  0  0
    6.9421   54.2611   23.0633 O   0  0  0  0  0  0
    5.9627   54.3937   25.6364 C   0  0  0  0  0  0
    6.4792   56.7813   21.2870 Cl  0  0  0  0  0  0
    4.0794   51.9957   20.0883 Cl  0  0  0  0  0  0
    7.1797   56.7417   18.4383 O   0  0  0  0  0  0
    5.0582   52.6630   17.3525 O   0  0  0  0  0  0
    1.9935   52.7329   28.5061 C   0  0  0  0  0  0
    1.1155   52.7525   29.5925 C   0  0  0  0  0  0
    3.3544   52.4949   28.7230 C   0  0  0  0  0  0
    1.5902   52.5345   30.8839 C   0  0  0  0  0  0
    3.8277   52.2616   30.0093 C   0  0  0  0  0  0
    2.9426   52.2640   31.0832 C   0  0  0  0  0  0
    2.8787   54.1437   21.3299 H   0  0  0  0  0  0
    6.4107   54.7936   16.8952 H   0  0  0  0  0  0
    0.9427   53.2520   22.8697 H   0  0  0  0  0  0
    0.4947   52.5823   27.1427 H   0  0  0  0  0  0
    5.5488   55.1467   26.3084 H   0  0  0  0  0  0
    5.9951   53.4472   26.1779 H   0  0  0  0  0  0
    6.9907   54.6871   25.4185 H   0  0  0  0  0  0
    7.3523   56.7258   17.4946 H   0  0  0  0  0  0
    4.8792   51.7793   17.7188 H   0  0  0  0  0  0
    0.0609   52.9313   29.4420 H   0  0  0  0  0  0
    4.0515   52.4480   27.9012 H   0  0  0  0  0  0
    0.9126   52.5555   31.7261 H   0  0  0  0  0  0
    4.8762   52.0530   30.1646 H   0  0  0  0  0  0
    3.3072   52.0931   32.0864 H   0  0  0  0  0  0
  1  4  1  0  0  0
  1  5  1  0  0  0
  1  8  2  0  0  0
  2  4  1  0  0  0
  2 19  1  0  0  0
  2  3  1  0  0  0
  3  7  1  0  0  0
  3  6  2  0  0  0
  4 18  2  0  0  0
  5 10  1  0  0  0
  5 11  2  0  0  0
  6  9  1  0  0  0
  7  8  1  0  0  0
  7 16  2  0  0  0
  8 30  1  0  0  0
  9 15  2  0  0  0
  9 17  1  0  0  0
 10 12  2  0  0  0
 10 21  1  0  0  0
 11 13  1  0  0  0
 11 20  1  0  0  0
 12 23  1  0  0  0
 12 14  1  0  0  0
 13 14  2  0  0  0
 13 22  1  0  0  0
 14 31  1  0  0  0
 15 16  1  0  0  0
 16 32  1  0  0  0
 17 24  1  0  0  0
 17 33  1  0  0  0
 19 34  1  0  0  0
 19 35  1  0  0  0
 19 36  1  0  0  0
 22 37  1  0  0  0
 23 38  1  0  0  0
 24 25  2  0  0  0
 24 26  1  0  0  0
 25 27  1  0  0  0
 25 39  1  0  0  0
 26 28  2  0  0  0
 26 40  1  0  0  0
 27 29  2  0  0  0
 27 41  1  0  0  0
 28 29  1  0  0  0
 28 42  1  0  0  0
 29 43  1  0  0  0
M  END
> <s_m_entry_id>
46423

> <s_m_entry_name>
dock_pv.164

> <s_m_Source_Path>
/home/csk/Desktop/cluster/DUD-E-result/wee1

> <s_m_Source_File>
dock_pv.maegz

> <i_m_Source_File_Index>
164

> <chembl_id>
CHEMBL361347

> <chembl_pref_name>
None

> <i_lp_mmshare_version>
53161

> <r_lp_tautomer_probability>
0.999999999898

> <s_lp_Force_Field>
OPLS_2005

> <r_lp_Energy>
32.301694

> <b_lp_Chiralities_Consistent>
1

> <s_lp_Variant>
CHEMBL5491_lig68-1

> <s_i_glide_gridfile>
glide-grid_3biz

> <i_i_glide_lignum>
66

> <i_i_glide_rotatable_bonds>
5

> <r_i_docking_score>
-6.8192910698797

> <r_i_glide_ligand_efficiency>
-0.235147967926886

> <r_i_glide_ligand_efficiency_sa>
-0.722449057576708

> <r_i_glide_ligand_efficiency_ln>
-1.56144473270106

> <r_i_glide_gscore>
-6.8192910698797

> <r_i_glide_lipo>
-2.88214704970083

> <r_i_glide_hbond>
-0.16

> <r_i_glide_metal>
0

> <r_i_glide_rewards>
-1.48355127492875

> <r_i_glide_evdw>
-37.908821105957

> <r_i_glide_ecoul>
-4.8111686706543

> <r_i_glide_erotb>
0.323523610645877

> <r_i_glide_esite>
0

> <r_i_glide_emodel>
-54.5399865064765

> <r_i_glide_energy>
-42.7199897766113

> <r_i_glide_einternal>
10.1788787841797

> <i_i_glide_confnum>
4

> <i_i_glide_posenum>
80

> <r_i_glide_eff_state_penalty>
0

> <s_user_duplicate_titles>
CHEMBL5491_lig68,303219

> <i_f3d_flags>
0

> <s_m_subgroup_title>
dock_pv

> <s_m_subgroupid>
dock_pv

> <b_m_subgroup_collapsed>
1

$$$$
CHEMBL5491_lig69
                    3D
 Schrodinger Suite 2021-1.
 49 52  0  0  1  0            999 V2000
    4.8720   54.3010   21.9342 C   0  0  0  0  0  0
    5.2471   54.2631   24.3276 N   0  0  0  0  0  0
    3.8574   54.0676   24.5846 C   0  0  0  0  0  0
    5.8144   54.2631   23.0689 C   0  0  0  0  0  0
    3.4215   53.7921   25.8523 N   0  0  0  0  0  0
    5.3458   54.4243   20.5056 C   0  0  0  0  0  0
    2.9946   53.9860   23.4874 C   0  0  0  0  0  0
    3.5484   54.2005   22.1630 C   0  0  0  0  0  0
    2.1360   53.3554   25.9689 C   0  0  0  0  0  0
    4.9654   53.4618   19.5284 C   0  0  0  0  0  0
    6.1581   55.5120   20.0857 C   0  0  0  0  0  0
    5.4303   53.5836   18.2071 C   0  0  0  0  0  0
    6.6089   55.5969   18.7605 C   0  0  0  0  0  0
    6.2444   54.6385   17.8332 C   0  0  0  0  0  0
    1.2790   53.1790   24.9360 N   0  0  0  0  0  0
    1.7052   53.5200   23.7012 C   0  0  0  0  0  0
    1.5668   53.0602   27.2107 N   0  0  0  0  0  0
    7.0263   54.2629   22.8871 O   0  0  0  0  0  0
    6.1410   54.3730   25.4984 C   0  0  0  0  0  0
    7.4121   56.6229   18.3325 O   0  0  0  0  0  0
    5.1279   52.6630   17.2399 O   0  0  0  0  0  0
    2.0772   52.8435   28.4970 C   0  0  0  0  0  0
    4.0718   52.2572   19.8678 C   0  0  0  0  0  0
    6.5061   56.6634   21.0209 C   0  0  0  0  0  0
    1.1662   52.8444   29.5566 C   0  0  0  0  0  0
    3.4239   52.5616   28.7398 C   0  0  0  0  0  0
    1.5946   52.5656   30.8516 C   0  0  0  0  0  0
    3.8476   52.2630   30.0307 C   0  0  0  0  0  0
    2.9342   52.2630   31.0808 C   0  0  0  0  0  0
    2.8790   54.2631   21.3261 H   0  0  0  0  0  0
    6.5918   54.7039   16.8124 H   0  0  0  0  0  0
    1.0160   53.3668   22.8826 H   0  0  0  0  0  0
    0.6007   52.7896   27.1164 H   0  0  0  0  0  0
    6.1793   53.4231   26.0329 H   0  0  0  0  0  0
    7.1634   54.6564   25.2433 H   0  0  0  0  0  0
    5.7626   55.1268   26.1900 H   0  0  0  0  0  0
    7.6194   56.5497   17.3987 H   0  0  0  0  0  0
    4.9897   51.7771   17.6164 H   0  0  0  0  0  0
    3.1546   52.5003   20.3866 H   0  0  0  0  0  0
    3.6789   51.7488   18.9882 H   0  0  0  0  0  0
    4.6152   51.5422   20.4867 H   0  0  0  0  0  0
    5.6791   56.8677   21.6870 H   0  0  0  0  0  0
    7.4071   56.4508   21.5966 H   0  0  0  0  0  0
    6.6465   57.5954   20.4759 H   0  0  0  0  0  0
    0.1207   53.0526   29.3828 H   0  0  0  0  0  0
    4.1411   52.5269   27.9343 H   0  0  0  0  0  0
    0.8923   52.5734   31.6736 H   0  0  0  0  0  0
    4.8789   52.0103   30.2121 H   0  0  0  0  0  0
    3.2653   52.0474   32.0866 H   0  0  0  0  0  0
  1  4  1  0  0  0
  1  6  1  0  0  0
  1  8  2  0  0  0
  2  4  1  0  0  0
  2 19  1  0  0  0
  2  3  1  0  0  0
  3  7  1  0  0  0
  3  5  2  0  0  0
  4 18  2  0  0  0
  5  9  1  0  0  0
  6 10  1  0  0  0
  6 11  2  0  0  0
  7  8  1  0  0  0
  7 16  2  0  0  0
  8 30  1  0  0  0
  9 15  2  0  0  0
  9 17  1  0  0  0
 10 12  2  0  0  0
 10 23  1  0  0  0
 11 13  1  0  0  0
 11 24  1  0  0  0
 12 21  1  0  0  0
 12 14  1  0  0  0
 13 14  2  0  0  0
 13 20  1  0  0  0
 14 31  1  0  0  0
 15 16  1  0  0  0
 16 32  1  0  0  0
 17 22  1  0  0  0
 17 33  1  0  0  0
 19 34  1  0  0  0
 19 35  1  0  0  0
 19 36  1  0  0  0
 20 37  1  0  0  0
 21 38  1  0  0  0
 22 25  2  0  0  0
 22 26  1  0  0  0
 23 39  1  0  0  0
 23 40  1  0  0  0
 23 41  1  0  0  0
 24 42  1  0  0  0
 24 43  1  0  0  0
 24 44  1  0  0  0
 25 27  1  0  0  0
 25 45  1  0  0  0
 26 28  2  0  0  0
 26 46  1  0  0  0
 27 29  2  0  0  0
 27 47  1  0  0  0
 28 29  1  0  0  0
 28 48  1  0  0  0
 29 49  1  0  0  0
M  END
> <s_m_entry_id>
46424

> <s_m_entry_name>
dock_pv.165

> <s_m_Source_Path>
/home/csk/Desktop/cluster/DUD-E-result/wee1

> <s_m_Source_File>
dock_pv.maegz

> <i_m_Source_File_Index>
165

> <chembl_id>
CHEMBL178439

> <chembl_pref_name>
None

> <i_lp_mmshare_version>
53161

> <r_lp_tautomer_probability>
0.999999999898

> <s_lp_Force_Field>
OPLS_2005

> <r_lp_Energy>
33.908105

> <b_lp_Chiralities_Consistent>
1

> <s_lp_Variant>
CHEMBL5491_lig69-1

> <s_i_glide_gridfile>
glide-grid_3biz

> <i_i_glide_lignum>
67

> <i_i_glide_rotatable_bonds>
5

> <r_i_docking_score>
-6.81366139275779

> <r_i_glide_ligand_efficiency>
-0.234953841129579

> <r_i_glide_ligand_efficiency_sa>
-0.721852638551695

> <r_i_glide_ligand_efficiency_ln>
-1.56015567939644

> <r_i_glide_gscore>
-6.81366139275779

> <r_i_glide_lipo>
-2.84083119953061

> <r_i_glide_hbond>
-0.16

> <r_i_glide_metal>
0

> <r_i_glide_rewards>
-1.80302512781967

> <r_i_glide_evdw>
-38.2004661560059

> <r_i_glide_ecoul>
-3.24808239936829

> <r_i_glide_erotb>
0.387430602298017

> <r_i_glide_esite>
0

> <r_i_glide_emodel>
-56.2931087983424

> <r_i_glide_energy>
-41.4485485553741

> <r_i_glide_einternal>
5.70195960998535

> <i_i_glide_confnum>
4

> <i_i_glide_posenum>
262

> <r_i_glide_eff_state_penalty>
0

> <s_user_duplicate_titles>
CHEMBL5491_lig69

> <i_f3d_flags>
0

> <s_m_subgroup_title>
dock_pv

> <s_m_subgroupid>
dock_pv

> <b_m_subgroup_collapsed>
1

$$$$
CHEMBL5491_lig133
                    3D
 Schrodinger Suite 2021-1.
 40 44  0  0  1  0            999 V2000
    2.8181   53.7974   29.2368 C   0  0  0  0  0  0
    4.0767   54.1816   29.6867 C   0  0  0  0  0  0
    5.1150   54.4659   28.8049 C   0  0  0  0  0  0
    2.5553   53.6626   27.8763 C   0  0  0  0  0  0
    3.5815   53.9274   26.9493 C   0  0  0  0  0  0
    4.8514   54.3325   27.4385 C   0  0  0  0  0  0
    5.6683   54.5423   26.3499 N   0  0  0  0  0  0
    3.6748   53.8633   25.5391 C   0  0  0  0  0  0
    4.9891   54.2630   25.1831 C   0  0  0  0  0  0
    5.4259   54.2946   23.8551 C   0  0  0  0  0  0
    4.5349   53.9073   22.8392 C   0  0  0  0  0  0
    2.8087   53.4639   24.5032 C   0  0  0  0  0  0
    3.2403   53.4721   23.1926 C   0  0  0  0  0  0
    2.1105   52.9076   22.3811 C   0  0  0  0  0  0
    1.1249   52.6489   23.2516 N   0  0  0  0  0  0
    1.4348   52.8990   24.5296 C   0  0  0  0  0  0
    2.0400   52.6637   21.1818 O   0  0  0  0  0  0
    0.7074   52.6623   25.4876 O   0  0  0  0  0  0
    1.8244   53.5502   30.1445 O   0  0  0  0  0  0
    5.0253   54.0021   21.4316 C   0  0  0  0  0  0
    4.8789   52.9486   20.5247 C   0  0  0  0  0  0
    5.3161   53.0790   19.2107 C   0  0  0  0  0  0
    5.9477   54.2477   18.7943 C   0  0  0  0  0  0
    6.1398   55.2924   19.6952 C   0  0  0  0  0  0
    5.6790   55.1663   21.0024 C   0  0  0  0  0  0
    6.4497   54.3734   17.3677 C   0  0  0  0  0  0
    4.2544   54.2628   30.7484 H   0  0  0  0  0  0
    6.0788   54.7702   29.1752 H   0  0  0  0  0  0
    1.5706   53.3588   27.5677 H   0  0  0  0  0  0
    6.6333   54.8326   26.4041 H   0  0  0  0  0  0
    6.4329   54.6048   23.6151 H   0  0  0  0  0  0
    0.2493   52.2366   22.9720 H   0  0  0  0  0  0
    2.0763   53.8213   31.0377 H   0  0  0  0  0  0
    4.4169   52.0187   20.8208 H   0  0  0  0  0  0
    5.1592   52.2633   18.5205 H   0  0  0  0  0  0
    6.6339   56.2013   19.3839 H   0  0  0  0  0  0
    5.8204   55.9897   21.6859 H   0  0  0  0  0  0
    7.3666   54.9633   17.3306 H   0  0  0  0  0  0
    5.6993   54.8538   16.7394 H   0  0  0  0  0  0
    6.6891   53.3951   16.9490 H   0  0  0  0  0  0
  1  2  2  0  0  0
  1 19  1  0  0  0
  1  4  1  0  0  0
  2  3  1  0  0  0
  2 27  1  0  0  0
  3  6  2  0  0  0
  3 28  1  0  0  0
  4  5  2  0  0  0
  4 29  1  0  0  0
  5  8  1  0  0  0
  5  6  1  0  0  0
  6  7  1  0  0  0
  7  9  1  0  0  0
  7 30  1  0  0  0
  8  9  2  0  0  0
  8 12  1  0  0  0
  9 10  1  0  0  0
 10 11  2  0  0  0
 10 31  1  0  0  0
 11 13  1  0  0  0
 11 20  1  0  0  0
 12 13  2  0  0  0
 12 16  1  0  0  0
 13 14  1  0  0  0
 14 15  1  0  0  0
 14 17  2  0  0  0
 15 16  1  0  0  0
 15 32  1  0  0  0
 16 18  2  0  0  0
 19 33  1  0  0  0
 20 21  2  0  0  0
 20 25  1  0  0  0
 21 22  1  0  0  0
 21 34  1  0  0  0
 22 23  2  0  0  0
 22 35  1  0  0  0
 23 24  1  0  0  0
 23 26  1  0  0  0
 24 25  2  0  0  0
 24 36  1  0  0  0
 25 37  1  0  0  0
 26 38  1  0  0  0
 26 39  1  0  0  0
 26 40  1  0  0  0
M  END
> <s_m_entry_id>
46425

> <s_m_entry_name>
dock_pv.166

> <s_m_Source_Path>
/home/csk/Desktop/cluster/DUD-E-result/wee1

> <s_m_Source_File>
dock_pv.maegz

> <i_m_Source_File_Index>
166

> <chembl_id>
CHEMBL212846

> <chembl_pref_name>
None

> <i_lp_mmshare_version>
53161

> <r_lp_tautomer_probability>
1

> <s_lp_Force_Field>
OPLS_2005

> <r_lp_Energy>
66.157614

> <b_lp_Chiralities_Consistent>
1

> <s_lp_Variant>
CHEMBL5491_lig133-1

> <s_i_glide_gridfile>
glide-grid_3biz

> <i_i_glide_lignum>
135

> <i_i_glide_rotatable_bonds>
2

> <r_i_docking_score>
-6.80038614060069

> <r_i_glide_ligand_efficiency>
-0.261553313100027

> <r_i_glide_ligand_efficiency_sa>
-0.774850660896238

> <r_i_glide_ligand_efficiency_ln>
-1.59704837123314

> <r_i_glide_gscore>
-6.80038614060069

> <r_i_glide_lipo>
-3.08054250881533

> <r_i_glide_hbond>
-0.32

> <r_i_glide_metal>
0

> <r_i_glide_rewards>
-1.4635062731949

> <r_i_glide_evdw>
-34.3038940429688

> <r_i_glide_ecoul>
-2.55284404754639

> <r_i_glide_erotb>
0.161783950689932

> <r_i_glide_esite>
0

> <r_i_glide_emodel>
-49.9303193865386

> <r_i_glide_energy>
-36.8567380905151

> <r_i_glide_einternal>
2.02977085113525

> <i_i_glide_confnum>
2

> <i_i_glide_posenum>
76

> <r_i_glide_eff_state_penalty>
0

> <s_user_duplicate_titles>
CHEMBL5491_lig133

> <i_f3d_flags>
0

> <s_m_subgroup_title>
dock_pv

> <s_m_subgroupid>
dock_pv

> <b_m_subgroup_collapsed>
1

$$$$
435540
                    3D
 Schrodinger Suite 2021-1.
 63 68  0  0  1  0            999 V2000
    1.0750   52.6472   23.3480 C   0  0  0  0  0  0
    2.3826   53.2388   23.6029 N   0  0  0  0  0  0
    2.9085   53.4632   24.8641 C   0  0  0  0  0  0
    2.3774   53.1923   26.1383 C   0  0  0  0  0  0
    3.1445   53.5093   27.2709 C   0  0  0  0  0  0
    4.4004   54.1073   27.0804 C   0  0  0  0  0  0
    4.9264   54.3766   25.8401 C   0  0  0  0  0  0
    4.1982   54.0404   24.6886 C   0  0  0  0  0  0
    4.4554   54.1110   23.3022 C   0  0  0  0  0  0
    3.3277   53.5712   22.6418 C   0  0  0  0  0  0
    3.2870   53.4564   21.2515 C   0  0  0  0  0  0
    4.3525   53.9623   20.5009 C   0  0  0  0  0  0
    5.4600   54.5302   21.1413 C   0  0  0  0  0  0
    5.5410   54.5662   22.5315 C   0  0  0  0  0  0
    6.4864   55.0990   20.4353 O   0  0  0  0  0  0
    4.2097   53.9753   18.6507 S   0  0  1  0  0  0
    5.6219   53.8622   18.0723 O   0  0  0  0  0  0
    3.4003   52.3232   18.3619 C   0  0  0  0  0  0
    1.8711   52.4376   18.1843 C   0  0  0  0  0  0
    1.1183   51.0878   18.2436 C   0  0  0  0  0  0
    0.8604   50.5927   19.6043 N   0  0  0  0  0  0
    2.0194   50.0380   20.2983 C   0  0  0  0  0  0
    1.4723   49.1408   21.4054 C   0  0  0  0  0  0
    0.0508   48.8103   20.9527 C   0  0  0  0  0  0
   -0.0548   49.4579   19.5744 C   0  0  0  0  0  0
    6.2555   55.0190   26.0361 C   0  0  0  0  0  0
    7.0480   55.4622   25.2143 O   0  0  0  0  0  0
    6.4335   55.0543   27.3616 N   0  0  0  0  0  0
    5.3859   54.6102   28.0703 C   0  0  0  0  0  0
    5.2790   54.6634   29.2870 O   0  0  0  0  0  0
    2.6114   53.2041   28.6424 C   0  0  0  0  0  0
    3.3836   52.4666   29.5527 C   0  0  0  0  0  0
    2.9481   52.2498   30.8593 C   0  0  0  0  0  0
    1.6784   52.6622   31.2522 C   0  0  0  0  0  0
    0.8838   53.3725   30.3612 C   0  0  0  0  0  0
    1.3567   53.6652   29.0817 C   0  0  0  0  0  0
    0.3781   54.6630   28.0870 Cl  0  0  0  0  0  0
    1.1139   51.5834   23.5790 H   0  0  0  0  0  0
    0.3298   53.1249   23.9838 H   0  0  0  0  0  0
    0.7818   52.7820   22.3073 H   0  0  0  0  0  0
    1.4087   52.7269   26.2504 H   0  0  0  0  0  0
    2.4120   53.0590   20.7708 H   0  0  0  0  0  0
    6.4162   54.9885   22.9937 H   0  0  0  0  0  0
    7.1987   55.4213   20.9903 H   0  0  0  0  0  0
    3.6798   51.6739   19.1810 H   0  0  0  0  0  0
    3.8295   51.8711   17.4669 H   0  0  0  0  0  0
    1.6822   52.9033   17.2162 H   0  0  0  0  0  0
    1.4403   53.1144   18.9192 H   0  0  0  0  0  0
    1.6904   50.3307   17.7014 H   0  0  0  0  0  0
    0.1750   51.1941   17.7032 H   0  0  0  0  0  0
    2.5990   50.8409   20.7470 H   0  0  0  0  0  0
    2.6972   49.5003   19.6308 H   0  0  0  0  0  0
    1.4735   49.6470   22.3706 H   0  0  0  0  0  0
    2.0953   48.2540   21.5045 H   0  0  0  0  0  0
   -0.1233   47.7357   20.8951 H   0  0  0  0  0  0
   -0.6965   49.2236   21.6322 H   0  0  0  0  0  0
    0.1727   48.7582   18.7667 H   0  0  0  0  0  0
   -1.0606   49.8251   19.3660 H   0  0  0  0  0  0
    7.2367   55.4587   27.8235 H   0  0  0  0  0  0
    4.3594   52.1042   29.2618 H   0  0  0  0  0  0
    3.5878   51.7397   31.5644 H   0  0  0  0  0  0
    1.3326   52.4774   32.2600 H   0  0  0  0  0  0
   -0.0829   53.7309   30.6821 H   0  0  0  0  0  0
  1  2  1  0  0  0
  1 38  1  0  0  0
  1 39  1  0  0  0
  1 40  1  0  0  0
  2 10  1  0  0  0
  2  3  1  0  0  0
  3  8  2  0  0  0
  3  4  1  0  0  0
  4  5  2  0  0  0
  4 41  1  0  0  0
  5  6  1  0  0  0
  5 31  1  0  0  0
  6 29  1  0  0  0
  6  7  2  0  0  0
  7  8  1  0  0  0
  7 26  1  0  0  0
  8  9  1  0  0  0
  9 14  2  0  0  0
  9 10  1  0  0  0
 10 11  2  0  0  0
 11 12  1  0  0  0
 11 42  1  0  0  0
 12 13  2  0  0  0
 12 16  1  0  0  0
 13 14  1  0  0  0
 13 15  1  0  0  0
 14 43  1  0  0  0
 15 44  1  0  0  0
 16 17  2  0  0  0
 16 18  1  0  0  0
 18 19  1  0  0  0
 18 45  1  0  0  0
 18 46  1  0  0  0
 19 20  1  0  0  0
 19 47  1  0  0  0
 19 48  1  0  0  0
 20 21  1  0  0  0
 20 49  1  0  0  0
 20 50  1  0  0  0
 21 25  1  0  0  0
 21 22  1  0  0  0
 22 23  1  0  0  0
 22 51  1  0  0  0
 22 52  1  0  0  0
 23 24  1  0  0  0
 23 53  1  0  0  0
 23 54  1  0  0  0
 24 25  1  0  0  0
 24 55  1  0  0  0
 24 56  1  0  0  0
 25 57  1  0  0  0
 25 58  1  0  0  0
 26 27  2  0  0  0
 26 28  1  0  0  0
 28 29  1  0  0  0
 28 59  1  0  0  0
 29 30  2  0  0  0
 31 36  1  0  0  0
 31 32  2  0  0  0
 32 33  1  0  0  0
 32 60  1  0  0  0
 33 34  2  0  0  0
 33 61  1  0  0  0
 34 35  1  0  0  0
 34 62  1  0  0  0
 35 36  2  0  0  0
 35 63  1  0  0  0
 36 37  1  0  0  0
M  END
> <s_m_entry_id>
46643

> <s_m_entry_name>
ligand_docking-pose.41

> <s_m_Source_Path>
/home/csk/Desktop/cluster/DUD-E-result/wee1

> <s_m_Source_File>
ligand_docking-pose.sdf

> <i_m_Source_File_Index>
41

> <i_lp_mmshare_version>
53161

> <i_f3d_flags>
0

> <r_lp_tautomer_probability>
1

> <s_lp_Force_Field>
OPLS_2005

> <r_lp_Energy>
85.906991

> <b_lp_Chiralities_Consistent>
1

> <s_lp_Variant>
435540-2

> <s_i_glide_gridfile>
glide-grid_3biz

> <i_i_glide_lignum>
166

> <i_i_glide_rotatable_bonds>
7

> <r_i_docking_score>
-8.37198805497472

> <r_i_glide_ligand_efficiency>
-0.226269947431749

> <r_i_glide_ligand_efficiency_sa>
-0.753981662295334

> <r_i_glide_ligand_efficiency_ln>
-1.81568794187742

> <r_i_glide_gscore>
-8.37198805497472

> <r_i_glide_lipo>
-3.18757112261918

> <r_i_glide_hbond>
-0.567253403230189

> <r_i_glide_metal>
0

> <r_i_glide_rewards>
-1.91197064328488

> <r_i_glide_evdw>
-46.2133102416992

> <r_i_glide_ecoul>
-4.22083902359009

> <r_i_glide_erotb>
0.251506294307947

> <r_i_glide_esite>
-0.0129078145249396

> <r_i_glide_emodel>
-65.0697801308497

> <r_i_glide_energy>
-50.4341492652893

> <r_i_glide_einternal>
6.9628586769104

> <i_i_glide_confnum>
14

> <i_i_glide_posenum>
296

> <r_i_glide_eff_state_penalty>
0

> <s_user_duplicate_titles>
435540

> <s_m_subgroup_title>
dock_pv

> <s_m_subgroupid>
dock_pv1

> <b_m_subgroup_collapsed>
0

$$$$
524130
                    3D
 Schrodinger Suite 2021-1.
 64 69  0  0  1  0            999 V2000
    0.0794   52.2688   30.9673 C   0  0  0  0  0  0
    0.1540   53.4937   31.5983 C   0  0  0  0  0  0
    0.6019   54.5855   30.8841 C   0  0  0  0  0  0
    1.0120   54.4463   29.5640 C   0  0  0  0  0  0
    0.8932   53.2091   28.8832 C   0  0  0  0  0  0
    0.4423   52.1171   29.6334 C   0  0  0  0  0  0
    1.2139   53.0157   27.4241 C   0  0  0  0  0  0
    2.4137   53.5421   26.9210 C   0  0  0  0  0  0
    2.6650   53.4632   25.5426 C   0  0  0  0  0  0
    1.8072   52.7621   24.6551 C   0  0  0  0  0  0
    2.4056   52.8058   23.3720 C   0  0  0  0  0  0
    2.1121   52.2060   22.1351 C   0  0  0  0  0  0
    2.9861   52.3749   21.0635 C   0  0  0  0  0  0
    4.1087   53.2152   21.1609 C   0  0  0  0  0  0
    4.3831   53.8717   22.3674 C   0  0  0  0  0  0
    3.5598   53.6236   23.4690 C   0  0  0  0  0  0
    3.6842   54.0293   24.7921 N   0  0  0  0  0  0
    4.7513   54.8746   25.3292 C   0  0  0  0  0  0
    5.9115   54.0519   25.8997 C   0  0  0  0  0  0
    6.8696   54.9141   26.4910 O   0  0  0  0  0  0
    5.0680   53.3873   19.9665 C   0  0  0  0  0  0
    5.5596   54.8245   19.6642 C   0  0  0  0  0  0
    6.6990   55.3663   20.5712 C   0  0  0  0  0  0
    8.0478   55.6337   19.8708 C   0  0  0  0  0  0
    8.0260   56.7162   18.8900 N   0  0  0  0  0  0
    9.0852   57.0484   18.0781 C   0  0  0  0  0  0
    8.7494   58.1551   17.3118 C   0  0  0  0  0  0
    7.4569   58.5302   17.6771 C   0  0  0  0  0  0
    7.0331   57.6458   18.6544 C   0  0  0  0  0  0
    2.7174   51.6542   19.9273 O   0  0  0  0  0  0
    0.6410   52.1864   25.1939 C   0  0  0  0  0  0
    0.3523   52.3384   26.5343 C   0  0  0  0  0  0
   -1.0156   51.7620   26.7289 C   0  0  0  0  0  0
   -1.7411   51.7993   27.7170 O   0  0  0  0  0  0
   -1.3565   51.2104   25.5529 N   0  0  0  0  0  0
   -0.4721   51.4197   24.5659 C   0  0  0  0  0  0
   -0.6146   51.0600   23.4009 O   0  0  0  0  0  0
    1.6799   55.8687   28.8694 Cl  0  0  0  0  0  0
   -0.3129   51.4599   31.5477 H   0  0  0  0  0  0
   -0.1302   53.5957   32.6383 H   0  0  0  0  0  0
    0.7099   55.5421   31.3716 H   0  0  0  0  0  0
    0.3396   51.1407   29.1808 H   0  0  0  0  0  0
    3.1056   54.0500   27.5733 H   0  0  0  0  0  0
    1.2676   51.5477   22.0140 H   0  0  0  0  0  0
    5.2332   54.5154   22.4883 H   0  0  0  0  0  0
    5.1171   55.4729   24.5006 H   0  0  0  0  0  0
    4.2965   55.5049   26.0889 H   0  0  0  0  0  0
    5.5565   53.3191   26.6291 H   0  0  0  0  0  0
    6.3713   53.4632   25.1074 H   0  0  0  0  0  0
    6.6098   55.0944   27.4011 H   0  0  0  0  0  0
    4.5697   53.0460   19.0600 H   0  0  0  0  0  0
    5.9107   52.7080   20.0861 H   0  0  0  0  0  0
    4.7037   55.4989   19.6863 H   0  0  0  0  0  0
    5.8973   54.8469   18.6268 H   0  0  0  0  0  0
    6.9144   54.6656   21.3742 H   0  0  0  0  0  0
    6.3646   56.2735   21.0793 H   0  0  0  0  0  0
    8.3792   54.7309   19.3541 H   0  0  0  0  0  0
    8.8146   55.8737   20.6111 H   0  0  0  0  0  0
    9.9955   56.4660   18.1179 H   0  0  0  0  0  0
    9.3719   58.6398   16.5744 H   0  0  0  0  0  0
    6.8895   59.3626   17.2808 H   0  0  0  0  0  0
    6.0975   57.6076   19.1919 H   0  0  0  0  0  0
    3.4626   51.5698   19.3189 H   0  0  0  0  0  0
   -2.2254   50.7208   25.4141 H   0  0  0  0  0  0
  1  6  1  0  0  0
  1  2  2  0  0  0
  1 39  1  0  0  0
  2  3  1  0  0  0
  2 40  1  0  0  0
  3  4  2  0  0  0
  3 41  1  0  0  0
  4  5  1  0  0  0
  4 38  1  0  0  0
  5  6  2  0  0  0
  5  7  1  0  0  0
  6 42  1  0  0  0
  7 32  1  0  0  0
  7  8  2  0  0  0
  8  9  1  0  0  0
  8 43  1  0  0  0
  9 17  1  0  0  0
  9 10  2  0  0  0
 10 11  1  0  0  0
 10 31  1  0  0  0
 11 16  2  0  0  0
 11 12  1  0  0  0
 12 13  2  0  0  0
 12 44  1  0  0  0
 13 14  1  0  0  0
 13 30  1  0  0  0
 14 15  2  0  0  0
 14 21  1  0  0  0
 15 16  1  0  0  0
 15 45  1  0  0  0
 16 17  1  0  0  0
 17 18  1  0  0  0
 18 19  1  0  0  0
 18 46  1  0  0  0
 18 47  1  0  0  0
 19 20  1  0  0  0
 19 48  1  0  0  0
 19 49  1  0  0  0
 20 50  1  0  0  0
 21 22  1  0  0  0
 21 51  1  0  0  0
 21 52  1  0  0  0
 22 23  1  0  0  0
 22 53  1  0  0  0
 22 54  1  0  0  0
 23 24  1  0  0  0
 23 55  1  0  0  0
 23 56  1  0  0  0
 24 25  1  0  0  0
 24 57  1  0  0  0
 24 58  1  0  0  0
 25 29  1  0  0  0
 25 26  1  0  0  0
 26 27  2  0  0  0
 26 59  1  0  0  0
 27 28  1  0  0  0
 27 60  1  0  0  0
 28 29  2  0  0  0
 28 61  1  0  0  0
 29 62  1  0  0  0
 30 63  1  0  0  0
 31 36  1  0  0  0
 31 32  2  0  0  0
 32 33  1  0  0  0
 33 34  2  0  0  0
 33 35  1  0  0  0
 35 36  1  0  0  0
 35 64  1  0  0  0
 36 37  2  0  0  0
M  END
> <s_m_entry_id>
46673

> <s_m_entry_name>
ligand_docking-pose.71

> <s_m_Source_Path>
/home/csk/Desktop/cluster/DUD-E-result/wee1

> <s_m_Source_File>
ligand_docking-pose.sdf

> <i_m_Source_File_Index>
71

> <i_lp_mmshare_version>
53161

> <i_f3d_flags>
0

> <r_lp_tautomer_probability>
1

> <s_lp_Force_Field>
OPLS_2005

> <r_lp_Energy>
71.028244

> <b_lp_Chiralities_Consistent>
1

> <s_lp_Variant>
524130-1

> <s_i_glide_gridfile>
glide-grid_3biz

> <i_i_glide_lignum>
46

> <i_i_glide_rotatable_bonds>
10

> <r_i_docking_score>
-7.32758901822104

> <r_i_glide_ligand_efficiency>
-0.192831289953185

> <r_i_glide_ligand_efficiency_sa>
-0.648294053697853

> <r_i_glide_ligand_efficiency_ln>
-1.58004374815828

> <r_i_glide_gscore>
-7.32758901822104

> <r_i_glide_lipo>
-3.23846606261437

> <r_i_glide_hbond>
-0.300999031983301

> <r_i_glide_metal>
0

> <r_i_glide_rewards>
-0.805475410851612

> <r_i_glide_evdw>
-47.3999290466309

> <r_i_glide_ecoul>
-6.85400056838989

> <r_i_glide_erotb>
0.517218235713523

> <r_i_glide_esite>
-0.101770210895247

> <r_i_glide_emodel>
-71.4900726320677

> <r_i_glide_energy>
-54.2539296150208

> <r_i_glide_einternal>
12.4316720962524

> <i_i_glide_confnum>
10

> <i_i_glide_posenum>
54

> <r_i_glide_eff_state_penalty>
0

> <s_user_duplicate_titles>
524130

> <s_m_subgroup_title>
dock_pv

> <s_m_subgroupid>
dock_pv1

> <b_m_subgroup_collapsed>
0

$$$$
523585
                    3D
 Schrodinger Suite 2021-1.
 58 63  0  0  1  0            999 V2000
   -0.6502   48.8623   24.8768 C   0  0  0  0  0  0
   -1.9930   49.2259   24.8844 C   0  0  0  0  0  0
   -2.3628   50.5153   24.5100 C   0  0  0  0  0  0
   -1.3997   51.4482   24.1264 C   0  0  0  0  0  0
   -0.0413   51.0916   24.1146 C   0  0  0  0  0  0
    0.3160   49.7874   24.4877 C   0  0  0  0  0  0
    1.0399   52.0422   23.7478 C   0  0  0  0  0  0
    1.6982   52.7202   24.7794 C   0  0  0  0  0  0
    2.8819   53.4097   24.4688 C   0  0  0  0  0  0
    3.3670   53.5206   23.1315 C   0  0  0  0  0  0
    4.5828   54.2449   23.1782 C   0  0  0  0  0  0
    5.5145   54.6627   22.2046 C   0  0  0  0  0  0
    6.6601   55.3451   22.6124 C   0  0  0  0  0  0
    6.8790   55.6260   23.9575 C   0  0  0  0  0  0
    6.0095   55.2008   24.9538 C   0  0  0  0  0  0
    4.8603   54.5124   24.5481 C   0  0  0  0  0  0
    3.8671   53.9187   25.3041 N   0  0  0  0  0  0
    3.9889   53.6532   26.7361 C   0  0  0  0  0  0
    3.2353   54.6280   27.6622 C   0  0  0  0  0  0
    2.0450   54.0159   28.4230 C   0  0  0  0  0  0
    0.9488   54.5611   28.2850 O   0  0  0  0  0  0
    2.2001   52.8570   29.1192 N   0  0  0  0  0  0
    3.5075   52.2722   29.4920 C   0  0  0  0  0  0
    3.6641   52.4195   31.0152 C   0  0  0  0  0  0
    2.5412   51.8630   31.6874 O   0  0  0  0  0  0
    1.2876   52.4334   31.3187 C   0  0  0  0  0  0
    1.0475   52.2461   29.8051 C   0  0  0  0  0  0
    7.5799   55.7593   21.6870 O   0  0  0  0  0  0
    2.6429   52.8661   22.1151 C   0  0  0  0  0  0
    1.5130   52.1513   22.4330 C   0  0  0  0  0  0
    1.0112   51.5413   21.1681 C   0  0  0  0  0  0
    0.0126   50.8470   20.9917 O   0  0  0  0  0  0
    1.8931   51.9031   20.2190 N   0  0  0  0  0  0
    2.9093   52.6630   20.6638 C   0  0  0  0  0  0
    3.8447   53.0674   19.9807 O   0  0  0  0  0  0
   -1.9321   53.0318   23.6870 Cl  0  0  0  0  0  0
   -0.3601   47.8691   25.1899 H   0  0  0  0  0  0
   -2.7392   48.5144   25.2045 H   0  0  0  0  0  0
   -3.4000   50.7997   24.5311 H   0  0  0  0  0  0
    1.3517   49.4781   24.4857 H   0  0  0  0  0  0
    1.3717   52.6001   25.8027 H   0  0  0  0  0  0
    5.3640   54.4736   21.1550 H   0  0  0  0  0  0
    7.7384   56.2118   24.2451 H   0  0  0  0  0  0
    6.2141   55.4150   25.9930 H   0  0  0  0  0  0
    5.0505   53.6355   26.9931 H   0  0  0  0  0  0
    3.6603   52.6298   26.8819 H   0  0  0  0  0  0
    2.8792   55.4674   27.0800 H   0  0  0  0  0  0
    3.9131   55.0564   28.4007 H   0  0  0  0  0  0
    4.3764   52.6366   28.9506 H   0  0  0  0  0  0
    3.4043   51.2152   29.2427 H   0  0  0  0  0  0
    4.5582   51.8914   31.3445 H   0  0  0  0  0  0
    3.8164   53.4622   31.2863 H   0  0  0  0  0  0
    0.4884   51.9571   31.8880 H   0  0  0  0  0  0
    1.2569   53.4879   31.5889 H   0  0  0  0  0  0
    1.1146   51.1858   29.5577 H   0  0  0  0  0  0
    0.0667   52.5625   29.4457 H   0  0  0  0  0  0
    8.4494   55.8672   22.0860 H   0  0  0  0  0  0
    1.8198   51.6067   19.2585 H   0  0  0  0  0  0
  1  6  1  0  0  0
  1  2  2  0  0  0
  1 37  1  0  0  0
  2  3  1  0  0  0
  2 38  1  0  0  0
  3  4  2  0  0  0
  3 39  1  0  0  0
  4  5  1  0  0  0
  4 36  1  0  0  0
  5  6  2  0  0  0
  5  7  1  0  0  0
  6 40  1  0  0  0
  7 30  1  0  0  0
  7  8  2  0  0  0
  8  9  1  0  0  0
  8 41  1  0  0  0
  9 17  1  0  0  0
  9 10  2  0  0  0
 10 11  1  0  0  0
 10 29  1  0  0  0
 11 16  2  0  0  0
 11 12  1  0  0  0
 12 13  2  0  0  0
 12 42  1  0  0  0
 13 14  1  0  0  0
 13 28  1  0  0  0
 14 15  2  0  0  0
 14 43  1  0  0  0
 15 16  1  0  0  0
 15 44  1  0  0  0
 16 17  1  0  0  0
 17 18  1  0  0  0
 18 19  1  0  0  0
 18 45  1  0  0  0
 18 46  1  0  0  0
 19 20  1  0  0  0
 19 47  1  0  0  0
 19 48  1  0  0  0
 20 21  2  0  0  0
 20 22  1  0  0  0
 22 27  1  0  0  0
 22 23  1  0  0  0
 23 24  1  0  0  0
 23 49  1  0  0  0
 23 50  1  0  0  0
 24 25  1  0  0  0
 24 51  1  0  0  0
 24 52  1  0  0  0
 25 26  1  0  0  0
 26 27  1  0  0  0
 26 53  1  0  0  0
 26 54  1  0  0  0
 27 55  1  0  0  0
 27 56  1  0  0  0
 28 57  1  0  0  0
 29 34  1  0  0  0
 29 30  2  0  0  0
 30 31  1  0  0  0
 31 32  2  0  0  0
 31 33  1  0  0  0
 33 34  1  0  0  0
 33 58  1  0  0  0
 34 35  2  0  0  0
M  END
> <s_m_entry_id>
46685

> <s_m_entry_name>
ligand_docking-pose.83

> <s_m_Source_Path>
/home/csk/Desktop/cluster/DUD-E-result/wee1

> <s_m_Source_File>
ligand_docking-pose.sdf

> <i_m_Source_File_Index>
83

> <i_lp_mmshare_version>
53161

> <i_f3d_flags>
0

> <r_lp_tautomer_probability>
1

> <s_lp_Force_Field>
OPLS_2005

> <r_lp_Energy>
90.136625

> <b_lp_Chiralities_Consistent>
1

> <s_lp_Variant>
523585-1

> <s_i_glide_gridfile>
glide-grid_3biz

> <i_i_glide_lignum>
33

> <i_i_glide_rotatable_bonds>
6

> <r_i_docking_score>
-7.09118866326214

> <r_i_glide_ligand_efficiency>
-0.196977462868393

> <r_i_glide_ligand_efficiency_sa>
-0.650405251286363

> <r_i_glide_ligand_efficiency_ln>
-1.54710578454612

> <r_i_glide_gscore>
-7.09118866326214

> <r_i_glide_lipo>
-2.78747110224003

> <r_i_glide_hbond>
-0.530924260221022

> <r_i_glide_metal>
0

> <r_i_glide_rewards>
-0.788453804416448

> <r_i_glide_evdw>
-45.2616958618164

> <r_i_glide_ecoul>
-6.6935567855835

> <r_i_glide_erotb>
0.322005963642487

> <r_i_glide_esite>
-0.0392271490987861

> <r_i_glide_emodel>
-66.6599338003232

> <r_i_glide_energy>
-51.9552526473999

> <r_i_glide_einternal>
8.87021064758301

> <i_i_glide_confnum>
25

> <i_i_glide_posenum>
145

> <r_i_glide_eff_state_penalty>
0

> <s_user_duplicate_titles>
523585

> <s_m_subgroup_title>
dock_pv

> <s_m_subgroupid>
dock_pv1

> <b_m_subgroup_collapsed>
0

$$$$
451643
                    3D
 Schrodinger Suite 2021-1.
 50 55  0  0  1  0            999 V2000
   -1.1817   51.5900   20.0196 C   0  0  0  0  0  0
   -0.1621   51.2693   19.1300 C   0  0  0  0  0  0
    1.1547   51.2250   19.5771 C   0  0  0  0  0  0
    1.4603   51.4887   20.9140 C   0  0  0  0  0  0
    0.4356   51.7974   21.8412 C   0  0  0  0  0  0
   -0.8797   51.8622   21.3531 C   0  0  0  0  0  0
    0.7017   52.0885   23.2928 C   0  0  0  0  0  0
    1.7285   52.9912   23.6152 C   0  0  0  0  0  0
    2.0381   53.2183   24.9649 C   0  0  0  0  0  0
    1.2794   52.6541   26.0158 C   0  0  0  0  0  0
    1.8716   53.0441   27.2377 C   0  0  0  0  0  0
    1.5908   52.7653   28.5872 C   0  0  0  0  0  0
    2.3974   53.3185   29.5762 C   0  0  0  0  0  0
    3.4848   54.1210   29.2489 C   0  0  0  0  0  0
    3.8107   54.4040   27.9235 C   0  0  0  0  0  0
    2.9865   53.8635   26.9253 C   0  0  0  0  0  0
    3.0312   53.9864   25.5454 N   0  0  0  0  0  0
    3.9891   54.7899   24.8122 C   0  0  0  0  0  0
    5.2822   54.0137   24.5633 C   0  0  0  0  0  0
    6.5345   55.0631   23.7988 S   0  0  0  0  0  0
    6.0791   55.0454   22.0910 C   0  0  0  0  0  0
    6.7284   55.7936   21.2069 N   0  0  0  0  0  0
    6.1327   55.4970   20.0810 C   0  0  0  0  0  0
    5.1427   54.5886   20.3112 N   0  0  0  0  0  0
    5.1014   54.2992   21.6086 N   0  0  0  0  0  0
    2.1084   53.0619   30.8870 O   0  0  0  0  0  0
    0.1749   51.8628   25.6651 C   0  0  0  0  0  0
   -0.0625   51.5422   24.3476 C   0  0  0  0  0  0
   -1.1940   50.5602   24.3647 C   0  0  0  0  0  0
   -1.6925   49.9318   23.4346 O   0  0  0  0  0  0
   -1.5961   50.4862   25.6467 N   0  0  0  0  0  0
   -0.9105   51.2750   26.4874 C   0  0  0  0  0  0
   -1.1647   51.4629   27.6738 O   0  0  0  0  0  0
    3.1343   51.4171   21.3492 Cl  0  0  0  0  0  0
    4.5190   54.1797   19.6282 H   0  0  0  0  0  0
   -2.2050   51.6250   19.6760 H   0  0  0  0  0  0
   -0.3887   51.0569   18.0947 H   0  0  0  0  0  0
    1.9459   50.9796   18.8811 H   0  0  0  0  0  0
   -1.6897   52.1208   22.0185 H   0  0  0  0  0  0
    2.2996   53.4686   22.8330 H   0  0  0  0  0  0
    0.7707   52.1306   28.8793 H   0  0  0  0  0  0
    4.0979   54.5315   30.0378 H   0  0  0  0  0  0
    4.6622   55.0262   27.6898 H   0  0  0  0  0  0
    4.1824   55.6999   25.3818 H   0  0  0  0  0  0
    3.5345   55.1008   23.8722 H   0  0  0  0  0  0
    5.1124   53.1376   23.9392 H   0  0  0  0  0  0
    5.6913   53.6469   25.5060 H   0  0  0  0  0  0
    6.3386   55.8710   19.0882 H   0  0  0  0  0  0
    2.4770   53.7110   31.5100 H   0  0  0  0  0  0
   -2.3420   49.8853   25.9620 H   0  0  0  0  0  0
  1  6  1  0  0  0
  1  2  2  0  0  0
  1 36  1  0  0  0
  2  3  1  0  0  0
  2 37  1  0  0  0
  3  4  2  0  0  0
  3 38  1  0  0  0
  4  5  1  0  0  0
  4 34  1  0  0  0
  5  6  2  0  0  0
  5  7  1  0  0  0
  6 39  1  0  0  0
  7 28  1  0  0  0
  7  8  2  0  0  0
  8  9  1  0  0  0
  8 40  1  0  0  0
  9 17  1  0  0  0
  9 10  2  0  0  0
 10 11  1  0  0  0
 10 27  1  0  0  0
 11 16  2  0  0  0
 11 12  1  0  0  0
 12 13  2  0  0  0
 12 41  1  0  0  0
 13 14  1  0  0  0
 13 26  1  0  0  0
 14 15  2  0  0  0
 14 42  1  0  0  0
 15 16  1  0  0  0
 15 43  1  0  0  0
 16 17  1  0  0  0
 17 18  1  0  0  0
 18 19  1  0  0  0
 18 44  1  0  0  0
 18 45  1  0  0  0
 19 46  1  0  0  0
 19 47  1  0  0  0
 19 20  1  0  0  0
 20 21  1  0  0  0
 21 25  2  0  0  0
 21 22  1  0  0  0
 22 23  2  0  0  0
 23 48  1  0  0  0
 23 24  1  0  0  0
 24 35  1  0  0  0
 24 25  1  0  0  0
 26 49  1  0  0  0
 27 32  1  0  0  0
 27 28  2  0  0  0
 28 29  1  0  0  0
 29 30  2  0  0  0
 29 31  1  0  0  0
 31 32  1  0  0  0
 31 50  1  0  0  0
 32 33  2  0  0  0
M  END
> <s_m_entry_id>
46707

> <s_m_entry_name>
ligand_docking-pose.105

> <s_m_Source_Path>
/home/csk/Desktop/cluster/DUD-E-result/wee1

> <s_m_Source_File>
ligand_docking-pose.sdf

> <i_m_Source_File_Index>
105

> <i_lp_mmshare_version>
53161

> <i_f3d_flags>
0

> <r_lp_tautomer_probability>
0.426694473139324

> <s_lp_Force_Field>
OPLS_2005

> <r_lp_Energy>
68.617798

> <b_lp_Chiralities_Consistent>
1

> <s_lp_Variant>
451643-2

> <s_i_glide_gridfile>
glide-grid_3biz

> <i_i_glide_lignum>
57

> <i_i_glide_rotatable_bonds>
6

> <r_i_docking_score>
-6.8952482628717

> <r_i_glide_ligand_efficiency>
-0.202801419496226

> <r_i_glide_ligand_efficiency_sa>
-0.65699787114353

> <r_i_glide_ligand_efficiency_ln>
-1.52335374643106

> <r_i_glide_gscore>
-6.8952482628717

> <r_i_glide_lipo>
-2.39913863765599

> <r_i_glide_hbond>
-0.32

> <r_i_glide_metal>
0

> <r_i_glide_rewards>
-0.7773552261798

> <r_i_glide_evdw>
-45.3626670837402

> <r_i_glide_ecoul>
-8.7839879989624

> <r_i_glide_erotb>
0.339066341392486

> <r_i_glide_esite>
-0.152089186397022

> <r_i_glide_emodel>
-71.6374556187861

> <r_i_glide_energy>
-54.1466550827026

> <r_i_glide_einternal>
6.4342737197876

> <i_i_glide_confnum>
21

> <i_i_glide_posenum>
383

> <r_i_glide_eff_state_penalty>
0

> <s_user_duplicate_titles>
451643

> <s_m_subgroup_title>
dock_pv

> <s_m_subgroupid>
dock_pv1

> <b_m_subgroup_collapsed>
0

$$$$
