CHEMBL2695_lig1126
                    3D
 Schrodinger Suite 2021-1.
 67 71  0  0  1  0            999 V2000
    6.9661    4.3498   11.0959 C   0  0  0  0  0  0
    7.3698    3.9153    9.7630 N   0  0  0  0  0  0
    6.5700    3.0297    8.9208 C   0  0  0  0  0  0
    7.2883    3.1117    7.6008 C   0  0  0  0  0  0
    7.0243    2.5033    6.3714 C   0  0  0  0  0  0
    7.8339    2.7910    5.2661 C   0  0  0  0  0  0
    8.9079    3.6810    5.3965 C   0  0  0  0  0  0
    9.2080    4.2559    6.6420 C   0  0  0  0  0  0
   10.2765    5.1200    6.8346 O   0  0  0  0  0  0
   11.5869    4.7024    6.6815 C   0  0  0  0  0  0
   11.8191    3.5792    5.9538 N   0  0  0  0  0  0
   13.0683    3.0776    5.9111 C   0  0  0  0  0  0
   13.3351    1.9606    5.1090 N   0  0  0  0  0  0
   12.4787    1.1630    4.2970 C   0  0  0  0  0  0
   11.1077    1.0807    4.5704 C   0  0  0  0  0  0
   10.2562    0.3028    3.7961 C   0  0  0  0  0  0
   10.7603   -0.4972    2.7625 C   0  0  0  0  0  0
   12.1288   -0.4363    2.4841 C   0  0  0  0  0  0
   12.9862    0.3839    3.2256 C   0  0  0  0  0  0
   14.4645    0.4313    2.8425 C   0  0  0  0  0  0
    9.8746   -1.4575    1.9984 C   0  0  0  0  0  0
   10.3658   -2.4364    1.4304 O   0  0  0  0  0  0
    8.5556   -1.1832    1.9799 N   0  0  0  0  0  0
    7.5266   -1.9979    1.3252 C   0  0  0  0  0  0
    6.0960   -1.4936    1.6378 C   0  0  0  0  0  0
    5.7721   -0.1105    1.0187 C   0  0  0  0  0  0
    6.0801   -0.0546   -0.4966 C   0  0  0  0  0  0
    5.9531    1.1803   -0.9854 F   0  0  0  0  0  0
    5.1768   -0.8290   -1.0970 F   0  0  0  0  0  0
    7.4640   -0.6475   -0.8432 C   0  0  0  0  0  0
    7.6753   -2.0422   -0.2136 C   0  0  0  0  0  0
   14.1294    3.6278    6.5535 N   0  0  0  0  0  0
   13.8926    4.7628    7.2621 C   0  0  0  0  0  0
   12.6322    5.3594    7.3379 C   0  0  0  0  0  0
   12.3971    6.6288    8.1347 C   0  0  0  0  0  0
   11.6283    6.3611    9.1816 F   0  0  0  0  0  0
   13.5296    7.1592    8.5880 F   0  0  0  0  0  0
   11.7861    7.5385    7.3750 F   0  0  0  0  0  0
    8.3759    3.9675    7.7298 C   0  0  0  0  0  0
    8.4338    4.4636    9.1404 C   0  0  0  0  0  0
    9.2519    5.2324    9.6336 O   0  0  0  0  0  0
    7.8194    4.6956   11.6881 H   0  0  0  0  0  0
    6.2521    5.1653   11.0100 H   0  0  0  0  0  0
    6.4741    3.5590   11.6550 H   0  0  0  0  0  0
    5.5387    3.3772    8.8616 H   0  0  0  0  0  0
    6.5588    2.0173    9.3261 H   0  0  0  0  0  0
    6.2045    1.8054    6.2510 H   0  0  0  0  0  0
    7.6295    2.3192    4.3155 H   0  0  0  0  0  0
    9.5311    3.8881    4.5371 H   0  0  0  0  0  0
   14.3131    1.7146    5.0576 H   0  0  0  0  0  0
   10.6549    1.6017    5.3951 H   0  0  0  0  0  0
    9.2045    0.3007    4.0467 H   0  0  0  0  0  0
   12.5338   -1.0423    1.6815 H   0  0  0  0  0  0
   14.7232    1.4314    2.5036 H   0  0  0  0  0  0
   15.0886    0.1877    3.7002 H   0  0  0  0  0  0
   14.7019   -0.2782    2.0526 H   0  0  0  0  0  0
    8.2562   -0.2725    2.3073 H   0  0  0  0  0  0
    7.6171   -3.0099    1.7279 H   0  0  0  0  0  0
    5.9344   -1.4550    2.7096 H   0  0  0  0  0  0
    5.3667   -2.2225    1.2715 H   0  0  0  0  0  0
    6.3261    0.6735    1.5338 H   0  0  0  0  0  0
    4.7175    0.1132    1.1764 H   0  0  0  0  0  0
    8.2418    0.0327   -0.5094 H   0  0  0  0  0  0
    7.5715   -0.7184   -1.9161 H   0  0  0  0  0  0
    6.9546   -2.7437   -0.6380 H   0  0  0  0  0  0
    8.6555   -2.4253   -0.4976 H   0  0  0  0  0  0
   14.7221    5.1641    7.8146 H   0  0  0  0  0  0
  1  2  1  0  0  0
  1 42  1  0  0  0
  1 43  1  0  0  0
  1 44  1  0  0  0
  2  3  1  0  0  0
  2 40  1  0  0  0
  3  4  1  0  0  0
  3 45  1  0  0  0
  3 46  1  0  0  0
  4  5  2  0  0  0
  4 39  1  0  0  0
  5  6  1  0  0  0
  5 47  1  0  0  0
  6  7  2  0  0  0
  6 48  1  0  0  0
  7  8  1  0  0  0
  7 49  1  0  0  0
  8  9  1  0  0  0
  8 39  2  0  0  0
  9 10  1  0  0  0
 10 11  2  0  0  0
 10 34  1  0  0  0
 11 12  1  0  0  0
 12 13  1  0  0  0
 12 32  2  0  0  0
 13 14  1  0  0  0
 13 50  1  0  0  0
 14 15  2  0  0  0
 14 19  1  0  0  0
 15 16  1  0  0  0
 15 51  1  0  0  0
 16 17  2  0  0  0
 16 52  1  0  0  0
 17 18  1  0  0  0
 17 21  1  0  0  0
 18 19  2  0  0  0
 18 53  1  0  0  0
 19 20  1  0  0  0
 20 54  1  0  0  0
 20 55  1  0  0  0
 20 56  1  0  0  0
 21 22  2  0  0  0
 21 23  1  0  0  0
 23 24  1  0  0  0
 23 57  1  0  0  0
 24 25  1  0  0  0
 24 31  1  0  0  0
 24 58  1  0  0  0
 25 26  1  0  0  0
 25 59  1  0  0  0
 25 60  1  0  0  0
 26 27  1  0  0  0
 26 61  1  0  0  0
 26 62  1  0  0  0
 27 28  1  0  0  0
 27 29  1  0  0  0
 27 30  1  0  0  0
 30 31  1  0  0  0
 30 63  1  0  0  0
 30 64  1  0  0  0
 31 65  1  0  0  0
 31 66  1  0  0  0
 32 33  1  0  0  0
 33 34  2  0  0  0
 33 67  1  0  0  0
 34 35  1  0  0  0
 35 36  1  0  0  0
 35 37  1  0  0  0
 35 38  1  0  0  0
 39 40  1  0  0  0
 40 41  2  0  0  0
M  END
> <s_m_entry_id>
47469

> <s_m_entry_name>
dock_pv.2

> <s_m_Source_Path>
/home/csk/Desktop/cluster/DUD-E-result/fak1

> <s_m_Source_File>
dock_pv.maegz

> <i_m_Source_File_Index>
2

> <chembl_id>
CHEMBL3661429

> <chembl_pref_name>
None

> <i_lp_mmshare_version>
53161

> <i_f3d_flags>
0

> <r_lp_tautomer_probability>
0.999999917912647

> <s_lp_Force_Field>
OPLS_2005

> <r_lp_Energy>
42.159655

> <b_lp_Chiralities_Consistent>
1

> <s_lp_Variant>
CHEMBL2695_lig1126-1

> <s_i_glide_gridfile>
glide-grid_3bz3

> <i_i_glide_lignum>
1217

> <i_i_glide_rotatable_bonds>
8

> <r_i_docking_score>
-11.605153904735

> <r_i_glide_ligand_efficiency>
-0.28305253426183

> <r_i_glide_ligand_efficiency_sa>
-0.976026627367485

> <r_i_glide_ligand_efficiency_ln>
-2.46207202107112

> <r_i_glide_gscore>
-11.605153904735

> <r_i_glide_lipo>
-3.18150772861107

> <r_i_glide_hbond>
-0.780176336023277

> <r_i_glide_metal>
0

> <r_i_glide_rewards>
-2.9015926313687

> <r_i_glide_evdw>
-52.5205078125

> <r_i_glide_ecoul>
-15.8497753143311

> <r_i_glide_erotb>
0.345922718474633

> <r_i_glide_esite>
-0.0843082394319729

> <r_i_glide_emodel>
-109.497603676581

> <r_i_glide_energy>
-68.3702831268311

> <r_i_glide_einternal>
6.05120182037354

> <i_i_glide_confnum>
11

> <i_i_glide_posenum>
50

> <r_i_glide_eff_state_penalty>
0

> <s_user_duplicate_titles>
CHEMBL2695_lig1126

> <s_m_subgroup_title>
dock_pv

> <s_m_subgroupid>
dock_pv

> <b_m_subgroup_collapsed>
1

$$$$
CHEMBL2695_lig221
                    3D
 Schrodinger Suite 2021-1.
 56 59  0  0  1  0            999 V2000
   11.9228    0.7692    3.9764 C   0  0  0  0  0  0
   13.2737    1.1598    4.0527 C   0  0  0  0  0  0
   14.1872    0.6600    3.1176 C   0  0  0  0  0  0
   13.7813   -0.2325    2.1266 C   0  0  0  0  0  0
   11.5220   -0.1429    2.9913 C   0  0  0  0  0  0
   12.4463   -0.6256    2.0816 C   0  0  0  0  0  0
   11.7793   -1.5760    1.1437 C   0  0  0  0  0  0
   10.5000   -1.6017    1.5444 N   0  0  0  0  0  0
   10.1880   -0.7648    2.6948 C   0  0  0  0  0  0
   13.8118    1.9656    5.0763 N   0  0  0  0  0  0
   13.3038    2.9657    5.9084 C   0  0  0  0  0  0
   11.9814    3.2404    5.9066 N   0  0  0  0  0  0
   11.5473    4.3347    6.5897 C   0  0  0  0  0  0
   12.4555    5.1656    7.2764 C   0  0  0  0  0  0
   13.7986    4.7636    7.2636 C   0  0  0  0  0  0
   14.2337    3.6637    6.6016 N   0  0  0  0  0  0
   10.1613    4.5833    6.6013 N   0  0  0  0  0  0
    9.2470    3.5722    6.0636 C   0  0  0  0  0  0
    7.7941    4.0136    6.1572 C   0  0  0  0  0  0
    7.2566    4.7624    5.1073 C   0  0  0  0  0  0
    5.9223    5.1629    5.1294 C   0  0  0  0  0  0
    5.1089    4.8075    6.2020 C   0  0  0  0  0  0
    5.6311    4.0498    7.2497 C   0  0  0  0  0  0
    6.9742    3.6468    7.2395 C   0  0  0  0  0  0
   12.0338    6.4286    8.0259 C   0  0  0  0  0  0
   13.0605    7.0156    8.6436 F   0  0  0  0  0  0
   11.5190    7.3050    7.1648 F   0  0  0  0  0  0
   11.1219    6.1320    8.9491 F   0  0  0  0  0  0
    7.4859    2.8514    8.2788 N   0  0  0  0  0  0
    7.9044    3.5828    9.8504 S   0  0  0  0  0  0
    6.9521    1.4930    8.3091 C   0  0  0  0  0  0
    6.2306    3.9639   10.6050 C   0  0  0  0  0  0
    8.5533    2.5465   10.6593 O   0  0  0  0  0  0
    8.5871    4.8505    9.5711 O   0  0  0  0  0  0
   12.2686   -2.2066    0.2098 O   0  0  0  0  0  0
   11.2080    1.1192    4.7023 H   0  0  0  0  0  0
   15.2316    0.9313    3.1770 H   0  0  0  0  0  0
   14.5067   -0.6237    1.4283 H   0  0  0  0  0  0
    9.8003   -2.1681    1.0885 H   0  0  0  0  0  0
    9.8051   -1.3785    3.5087 H   0  0  0  0  0  0
    9.4180   -0.0381    2.4445 H   0  0  0  0  0  0
   14.8037    1.8164    5.2023 H   0  0  0  0  0  0
   14.5600    5.3160    7.7940 H   0  0  0  0  0  0
    9.8005    5.2188    7.2999 H   0  0  0  0  0  0
    9.3922    2.6268    6.5883 H   0  0  0  0  0  0
    9.4957    3.3678    5.0201 H   0  0  0  0  0  0
    7.8786    5.0399    4.2689 H   0  0  0  0  0  0
    5.5219    5.7445    4.3120 H   0  0  0  0  0  0
    4.0720    5.1120    6.2140 H   0  0  0  0  0  0
    4.9795    3.7633    8.0614 H   0  0  0  0  0  0
    7.0006    1.0309    7.3213 H   0  0  0  0  0  0
    7.5220    0.8643    8.9935 H   0  0  0  0  0  0
    5.9115    1.4870    8.6343 H   0  0  0  0  0  0
    6.3723    4.2709   11.6393 H   0  0  0  0  0  0
    5.7592    4.7627   10.0397 H   0  0  0  0  0  0
    5.6224    3.0633   10.5618 H   0  0  0  0  0  0
  1  2  2  0  0  0
  1  5  1  0  0  0
  1 36  1  0  0  0
  2 10  1  0  0  0
  2  3  1  0  0  0
  3  4  2  0  0  0
  3 37  1  0  0  0
  4  6  1  0  0  0
  4 38  1  0  0  0
  5  9  1  0  0  0
  5  6  2  0  0  0
  6  7  1  0  0  0
  7  8  1  0  0  0
  7 35  2  0  0  0
  8  9  1  0  0  0
  8 39  1  0  0  0
  9 40  1  0  0  0
  9 41  1  0  0  0
 10 11  1  0  0  0
 10 42  1  0  0  0
 11 12  2  0  0  0
 11 16  1  0  0  0
 12 13  1  0  0  0
 13 17  1  0  0  0
 13 14  2  0  0  0
 14 25  1  0  0  0
 14 15  1  0  0  0
 15 16  2  0  0  0
 15 43  1  0  0  0
 17 18  1  0  0  0
 17 44  1  0  0  0
 18 19  1  0  0  0
 18 45  1  0  0  0
 18 46  1  0  0  0
 19 20  2  0  0  0
 19 24  1  0  0  0
 20 21  1  0  0  0
 20 47  1  0  0  0
 21 22  2  0  0  0
 21 48  1  0  0  0
 22 23  1  0  0  0
 22 49  1  0  0  0
 23 24  2  0  0  0
 23 50  1  0  0  0
 24 29  1  0  0  0
 25 26  1  0  0  0
 25 27  1  0  0  0
 25 28  1  0  0  0
 29 30  1  0  0  0
 29 31  1  0  0  0
 30 32  1  0  0  0
 30 33  2  0  0  0
 30 34  2  0  0  0
 31 51  1  0  0  0
 31 52  1  0  0  0
 31 53  1  0  0  0
 32 54  1  0  0  0
 32 55  1  0  0  0
 32 56  1  0  0  0
M  END
> <s_m_entry_id>
47470

> <s_m_entry_name>
dock_pv.3

> <s_m_Source_Path>
/home/csk/Desktop/cluster/DUD-E-result/fak1

> <s_m_Source_File>
dock_pv.maegz

> <i_m_Source_File_Index>
3

> <chembl_id>
CHEMBL487229

> <chembl_pref_name>
None

> <i_lp_mmshare_version>
53161

> <i_f3d_flags>
0

> <r_lp_tautomer_probability>
0.999999624730965

> <s_lp_Force_Field>
OPLS_2005

> <r_lp_Energy>
33.920137

> <b_lp_Chiralities_Consistent>
1

> <s_lp_Variant>
CHEMBL2695_lig221-1

> <s_i_glide_gridfile>
glide-grid_3bz3

> <i_i_glide_lignum>
253

> <i_i_glide_rotatable_bonds>
8

> <r_i_docking_score>
-11.4978263580102

> <r_i_glide_ligand_efficiency>
-0.328509324514576

> <r_i_glide_ligand_efficiency_sa>
-1.07457578272894

> <r_i_glide_ligand_efficiency_ln>
-2.52402806609048

> <r_i_glide_gscore>
-11.4978263580102

> <r_i_glide_lipo>
-3.8543018890445

> <r_i_glide_hbond>
-0.665223450089828

> <r_i_glide_metal>
0

> <r_i_glide_rewards>
-2.67228365134379

> <r_i_glide_evdw>
-53.0770111083984

> <r_i_glide_ecoul>
-13.9476881027222

> <r_i_glide_erotb>
0.478524664879137

> <r_i_glide_esite>
-0.038538261582927

> <r_i_glide_emodel>
-106.816047689554

> <r_i_glide_energy>
-67.0246992111206

> <r_i_glide_einternal>
7.69503164291382

> <i_i_glide_confnum>
12

> <i_i_glide_posenum>
167

> <r_i_glide_eff_state_penalty>
0

> <s_user_duplicate_titles>
CHEMBL2695_lig221,452938

> <s_m_subgroup_title>
dock_pv

> <s_m_subgroupid>
dock_pv

> <b_m_subgroup_collapsed>
1

$$$$
CHEMBL2695_lig1189
                    3D
 Schrodinger Suite 2021-1.
 60 63  0  0  1  0            999 V2000
    6.7220    4.1759   11.1090 N   0  0  0  0  0  0
    7.4938    4.0743   10.0336 C   0  0  0  0  0  0
    8.5037    4.7629    9.9090 O   0  0  0  0  0  0
    7.0664    3.0615    8.9646 C   0  0  0  0  0  0
    6.7344    3.7274    7.6273 C   0  0  0  0  0  0
    5.3923    4.0431    7.3740 C   0  0  0  0  0  0
    5.0112    4.6373    6.1735 C   0  0  0  0  0  0
    5.9681    4.9083    5.2023 C   0  0  0  0  0  0
    7.3062    4.6016    5.4400 C   0  0  0  0  0  0
    7.7152    4.0374    6.6587 C   0  0  0  0  0  0
    9.2054    3.7419    6.8769 C   0  0  0  0  0  0
   10.1625    4.9071    6.5161 C   0  0  0  0  0  0
   11.6438    4.5558    6.6228 C   0  0  0  0  0  0
   11.9727    3.4552    5.9090 N   0  0  0  0  0  0
   13.2595    3.0452    5.9090 C   0  0  0  0  0  0
   13.6215    1.9630    5.0916 N   0  0  0  0  0  0
   12.8751    1.1630    4.2009 C   0  0  0  0  0  0
   13.5348    0.5760    3.1125 C   0  0  0  0  0  0
   12.8651   -0.3279    2.2864 C   0  0  0  0  0  0
   11.5196   -0.6347    2.5192 C   0  0  0  0  0  0
   10.8412    0.0057    3.5579 C   0  0  0  0  0  0
   11.5164    0.8804    4.4028 C   0  0  0  0  0  0
   10.7898   -1.6727    1.6585 C   0  0  2  0  0  0
    9.6663   -1.1215    0.7773 C   0  0  0  0  0  0
    8.3896   -1.6820    1.3949 C   0  0  0  0  0  0
    8.7626   -2.9875    1.9090 N   0  0  1  0  0  0
   10.0979   -2.7981    2.4606 C   0  0  0  0  0  0
   14.2524    3.6474    6.6126 N   0  0  0  0  0  0
   13.9151    4.7623    7.3171 C   0  0  0  0  0  0
   12.6081    5.2779    7.3543 C   0  0  0  0  0  0
   12.2774    6.5334    8.1613 C   0  0  0  0  0  0
   11.3866    6.2420    9.1090 F   0  0  0  0  0  0
   13.3563    7.0435    8.7565 F   0  0  0  0  0  0
   11.7713    7.4705    7.3591 F   0  0  0  0  0  0
    5.8786    3.6246   11.2100 H   0  0  0  0  0  0
    6.9818    4.8155   11.8421 H   0  0  0  0  0  0
    6.1928    2.5061    9.3123 H   0  0  0  0  0  0
    7.8344    2.2984    8.8483 H   0  0  0  0  0  0
    4.6342    3.8306    8.1143 H   0  0  0  0  0  0
    3.9736    4.8790    5.9906 H   0  0  0  0  0  0
    5.6720    5.3584    4.2662 H   0  0  0  0  0  0
    8.0221    4.8128    4.6603 H   0  0  0  0  0  0
    9.4161    3.4805    7.9090 H   0  0  0  0  0  0
    9.4327    2.8551    6.2848 H   0  0  0  0  0  0
   10.0116    5.1630    5.4734 H   0  0  0  0  0  0
    9.9220    5.7881    7.1067 H   0  0  0  0  0  0
   14.5950    1.6988    5.1669 H   0  0  0  0  0  0
   14.5822    0.7763    2.9407 H   0  0  0  0  0  0
   13.4032   -0.8033    1.4800 H   0  0  0  0  0  0
    9.7942   -0.1949    3.7344 H   0  0  0  0  0  0
   10.9733    1.2962    5.2358 H   0  0  0  0  0  0
   11.5411   -2.1479    1.0258 H   0  0  0  0  0  0
    9.6566   -0.0370    0.7092 H   0  0  0  0  0  0
    9.7337   -1.5075   -0.2410 H   0  0  0  0  0  0
    8.0129   -1.0365    2.1916 H   0  0  0  0  0  0
    7.5999   -1.7986    0.6516 H   0  0  0  0  0  0
    8.1092   -3.2370    2.6494 H   0  0  0  0  0  0
   10.6777   -3.7221    2.4563 H   0  0  0  0  0  0
    9.9803   -2.5212    3.5090 H   0  0  0  0  0  0
   14.7220    5.2110    7.8757 H   0  0  0  0  0  0
  1  2  1  0  0  0
  1 35  1  0  0  0
  1 36  1  0  0  0
  2  3  2  0  0  0
  2  4  1  0  0  0
  4  5  1  0  0  0
  4 37  1  0  0  0
  4 38  1  0  0  0
  5  6  2  0  0  0
  5 10  1  0  0  0
  6  7  1  0  0  0
  6 39  1  0  0  0
  7  8  2  0  0  0
  7 40  1  0  0  0
  8  9  1  0  0  0
  8 41  1  0  0  0
  9 10  2  0  0  0
  9 42  1  0  0  0
 10 11  1  0  0  0
 11 12  1  0  0  0
 11 43  1  0  0  0
 11 44  1  0  0  0
 12 13  1  0  0  0
 12 45  1  0  0  0
 12 46  1  0  0  0
 13 14  2  0  0  0
 13 30  1  0  0  0
 14 15  1  0  0  0
 15 16  1  0  0  0
 15 28  2  0  0  0
 16 17  1  0  0  0
 16 47  1  0  0  0
 17 18  2  0  0  0
 17 22  1  0  0  0
 18 19  1  0  0  0
 18 48  1  0  0  0
 19 20  2  0  0  0
 19 49  1  0  0  0
 20 21  1  0  0  0
 20 23  1  0  0  0
 21 22  2  0  0  0
 21 50  1  0  0  0
 22 51  1  0  0  0
 23 24  1  0  0  0
 23 27  1  0  0  0
 23 52  1  0  0  0
 24 25  1  0  0  0
 24 53  1  0  0  0
 24 54  1  0  0  0
 25 26  1  0  0  0
 25 55  1  0  0  0
 25 56  1  0  0  0
 26 27  1  0  0  0
 26 57  1  0  0  0
 27 58  1  0  0  0
 27 59  1  0  0  0
 28 29  1  0  0  0
 29 30  2  0  0  0
 29 60  1  0  0  0
 30 31  1  0  0  0
 31 32  1  0  0  0
 31 33  1  0  0  0
 31 34  1  0  0  0
M  END
> <s_m_entry_id>
47471

> <s_m_entry_name>
dock_pv.4

> <s_m_Source_Path>
/home/csk/Desktop/cluster/DUD-E-result/fak1

> <s_m_Source_File>
dock_pv.maegz

> <i_m_Source_File_Index>
4

> <chembl_id>
CHEMBL3692200

> <chembl_pref_name>
None

> <i_lp_mmshare_version>
53161

> <i_f3d_flags>
0

> <r_lp_tautomer_probability>
0.999999987636

> <s_lp_Force_Field>
OPLS_2005

> <r_lp_Energy>
22.86803

> <b_lp_Chiralities_Consistent>
1

> <s_lp_Variant>
CHEMBL2695_lig1189-1

> <s_i_glide_gridfile>
glide-grid_3bz3

> <i_i_glide_lignum>
1290

> <i_i_glide_rotatable_bonds>
9

> <r_i_docking_score>
-11.2686880414208

> <r_i_glide_ligand_efficiency>
-0.331432001218258

> <r_i_glide_ligand_efficiency_sa>
-1.07371102120558

> <r_i_glide_ligand_efficiency_ln>
-2.4895692643432

> <r_i_glide_gscore>
-11.2686880414208

> <r_i_glide_lipo>
-3.62065900267027

> <r_i_glide_hbond>
-1.12005883107612

> <r_i_glide_metal>
0

> <r_i_glide_rewards>
-2.89127390833333

> <r_i_glide_evdw>
-50.0287895202637

> <r_i_glide_ecoul>
-11.8444023132324

> <r_i_glide_erotb>
0.641403523657002

> <r_i_glide_esite>
0

> <r_i_glide_emodel>
-99.1012143079925

> <r_i_glide_energy>
-61.8731918334961

> <r_i_glide_einternal>
4.42296934127808

> <i_i_glide_confnum>
23

> <i_i_glide_posenum>
363

> <r_i_glide_eff_state_penalty>
0

> <s_user_duplicate_titles>
CHEMBL2695_lig1189

> <s_m_subgroup_title>
dock_pv

> <s_m_subgroupid>
dock_pv

> <b_m_subgroup_collapsed>
1

$$$$
CHEMBL2695_lig1070
                    3D
 Schrodinger Suite 2021-1.
 63 66  0  0  1  0            999 V2000
   15.1577   -0.2114    1.9650 C   0  0  0  0  0  0
   14.5428    0.5955    2.9606 O   0  0  0  0  0  0
   13.1825    0.4633    3.1768 C   0  0  0  0  0  0
   12.3544   -0.3611    2.3876 C   0  0  0  0  0  0
   10.9716   -0.4370    2.6002 C   0  0  0  0  0  0
   10.1231   -1.2660    1.6634 C   0  0  0  0  0  0
   10.5975   -2.2392    1.0750 O   0  0  0  0  0  0
    8.8655   -0.8370    1.4821 N   0  0  0  0  0  0
    7.8349   -1.4494    0.6442 C   0  0  0  0  0  0
    6.5253   -1.6965    1.4200 C   0  0  2  0  0  0
    5.6502   -2.4521    0.6038 O   0  0  0  0  0  0
    5.8002   -0.3950    1.8364 C   0  0  0  0  0  0
    4.7220   -0.6777    2.7090 O   0  0  0  0  0  0
   10.4261    0.3084    3.6614 C   0  0  0  0  0  0
    9.1000    0.3630    3.9090 F   0  0  0  0  0  0
   11.2424    1.0486    4.4982 C   0  0  0  0  0  0
   12.6156    1.1630    4.2666 C   0  0  0  0  0  0
   13.4256    1.9630    5.1090 N   0  0  0  0  0  0
   13.1213    3.0797    5.9090 C   0  0  0  0  0  0
   14.1613    3.6298    6.5796 N   0  0  0  0  0  0
   13.9019    4.7630    7.2804 C   0  0  0  0  0  0
   12.6372    5.3601    7.3335 C   0  0  0  0  0  0
   11.6082    4.7009    6.6508 C   0  0  0  0  0  0
   10.2983    5.1360    6.7887 O   0  0  0  0  0  0
    9.2190    4.3035    6.5557 C   0  0  0  0  0  0
    8.9208    3.7985    5.2836 C   0  0  0  0  0  0
    7.8415    2.9281    5.1090 C   0  0  0  0  0  0
    7.0416    2.5660    6.1942 C   0  0  0  0  0  0
    7.3099    3.1015    7.4540 C   0  0  0  0  0  0
    6.6137    2.9109    8.7691 C   0  0  0  0  0  0
    7.3666    3.8031    9.6414 N   0  0  0  0  0  0
    7.0667    3.9712   11.0598 C   0  0  0  0  0  0
    8.4192    4.4104    9.0564 C   0  0  0  0  0  0
    9.2242    5.1630    9.5994 O   0  0  0  0  0  0
    8.3778    3.9668    7.6266 C   0  0  0  0  0  0
   11.8557    3.5741    5.9248 N   0  0  0  0  0  0
   12.3877    6.6342    8.1317 C   0  0  0  0  0  0
   13.5224    7.1630    8.5815 F   0  0  0  0  0  0
   11.7767    7.5456    7.3741 F   0  0  0  0  0  0
   11.6277    6.3630    9.1863 F   0  0  0  0  0  0
   16.2199    0.0258    1.9090 H   0  0  0  0  0  0
   15.0665   -1.2715    2.2045 H   0  0  0  0  0  0
   14.7220   -0.0370    0.9819 H   0  0  0  0  0  0
   12.7722   -0.9260    1.5681 H   0  0  0  0  0  0
    8.6252    0.0548    1.9089 H   0  0  0  0  0  0
    8.1784   -2.3909    0.2087 H   0  0  0  0  0  0
    7.6447   -0.8004   -0.2122 H   0  0  0  0  0  0
    6.7455   -2.2881    2.3090 H   0  0  0  0  0  0
    4.7975   -2.4672    1.0493 H   0  0  0  0  0  0
    5.4250    0.1416    0.9634 H   0  0  0  0  0  0
    6.4801    0.2794    2.3585 H   0  0  0  0  0  0
    5.0955   -0.8370    3.5937 H   0  0  0  0  0  0
   10.7634    1.5346    5.3312 H   0  0  0  0  0  0
   14.4090    1.7273    5.0793 H   0  0  0  0  0  0
   14.7220    5.1691    7.8438 H   0  0  0  0  0  0
    9.5409    4.0598    4.4388 H   0  0  0  0  0  0
    7.6298    2.5196    4.1318 H   0  0  0  0  0  0
    6.2225    1.8770    6.0412 H   0  0  0  0  0  0
    5.5646    3.2077    8.7373 H   0  0  0  0  0  0
    6.6529    1.8836    9.1347 H   0  0  0  0  0  0
    7.4584    4.9109   11.4539 H   0  0  0  0  0  0
    5.9893    3.9655   11.2290 H   0  0  0  0  0  0
    7.5220    3.1630   11.6275 H   0  0  0  0  0  0
  1  2  1  0  0  0
  1 41  1  0  0  0
  1 42  1  0  0  0
  1 43  1  0  0  0
  2  3  1  0  0  0
  3  4  2  0  0  0
  3 17  1  0  0  0
  4  5  1  0  0  0
  4 44  1  0  0  0
  5  6  1  0  0  0
  5 14  2  0  0  0
  6  7  2  0  0  0
  6  8  1  0  0  0
  8  9  1  0  0  0
  8 45  1  0  0  0
  9 10  1  0  0  0
  9 46  1  0  0  0
  9 47  1  0  0  0
 10 11  1  0  0  0
 10 12  1  0  0  0
 10 48  1  0  0  0
 11 49  1  0  0  0
 12 13  1  0  0  0
 12 50  1  0  0  0
 12 51  1  0  0  0
 13 52  1  0  0  0
 14 15  1  0  0  0
 14 16  1  0  0  0
 16 17  2  0  0  0
 16 53  1  0  0  0
 17 18  1  0  0  0
 18 19  1  0  0  0
 18 54  1  0  0  0
 19 20  2  0  0  0
 19 36  1  0  0  0
 20 21  1  0  0  0
 21 22  2  0  0  0
 21 55  1  0  0  0
 22 23  1  0  0  0
 22 37  1  0  0  0
 23 24  1  0  0  0
 23 36  2  0  0  0
 24 25  1  0  0  0
 25 26  2  0  0  0
 25 35  1  0  0  0
 26 27  1  0  0  0
 26 56  1  0  0  0
 27 28  2  0  0  0
 27 57  1  0  0  0
 28 29  1  0  0  0
 28 58  1  0  0  0
 29 30  1  0  0  0
 29 35  2  0  0  0
 30 31  1  0  0  0
 30 59  1  0  0  0
 30 60  1  0  0  0
 31 32  1  0  0  0
 31 33  1  0  0  0
 32 61  1  0  0  0
 32 62  1  0  0  0
 32 63  1  0  0  0
 33 34  2  0  0  0
 33 35  1  0  0  0
 37 38  1  0  0  0
 37 39  1  0  0  0
 37 40  1  0  0  0
M  END
> <s_m_entry_id>
47472

> <s_m_entry_name>
dock_pv.5

> <s_m_Source_Path>
/home/csk/Desktop/cluster/DUD-E-result/fak1

> <s_m_Source_File>
dock_pv.maegz

> <i_m_Source_File_Index>
5

> <chembl_id>
CHEMBL3657368

> <chembl_pref_name>
None

> <i_lp_mmshare_version>
53161

> <i_f3d_flags>
0

> <r_lp_tautomer_probability>
0.999999917912647

> <s_lp_Force_Field>
OPLS_2005

> <r_lp_Energy>
46.85022

> <b_lp_Chiralities_Consistent>
1

> <s_lp_Variant>
CHEMBL2695_lig1070-1

> <s_i_glide_gridfile>
glide-grid_3bz3

> <i_i_glide_lignum>
1158

> <i_i_glide_rotatable_bonds>
13

> <r_i_docking_score>
-11.1823510283625

> <r_i_glide_ligand_efficiency>
-0.279558775709062

> <r_i_glide_ligand_efficiency_sa>
-0.956077563114144

> <r_i_glide_ligand_efficiency_ln>
-2.38486639244933

> <r_i_glide_gscore>
-11.1823510283625

> <r_i_glide_lipo>
-2.82284260425934

> <r_i_glide_hbond>
-0.983753394806213

> <r_i_glide_metal>
0

> <r_i_glide_rewards>
-2.70827907992585

> <r_i_glide_evdw>
-51.0629730224609

> <r_i_glide_ecoul>
-16.6756496429443

> <r_i_glide_erotb>
0.500701618415024

> <r_i_glide_esite>
-0.113681470221389

> <r_i_glide_emodel>
-108.262028301099

> <r_i_glide_energy>
-67.7386226654053

> <r_i_glide_einternal>
10.7503128051758

> <i_i_glide_confnum>
1

> <i_i_glide_posenum>
288

> <r_i_glide_eff_state_penalty>
0

> <s_user_duplicate_titles>
CHEMBL2695_lig1070

> <s_m_subgroup_title>
dock_pv

> <s_m_subgroupid>
dock_pv

> <b_m_subgroup_collapsed>
1

$$$$
CHEMBL2695_lig204
                    3D
 Schrodinger Suite 2021-1.
 56 59  0  0  1  0            999 V2000
    6.3915    4.1317   10.5843 C   0  0  0  0  0  0
    7.9821    3.7517    9.6857 S   0  0  0  0  0  0
    8.7220    2.7627   10.4716 O   0  0  0  0  0  0
    8.6066    5.0175    9.2894 O   0  0  0  0  0  0
    7.4288    2.9327    8.2069 N   0  0  0  0  0  0
    6.8325    3.6758    7.1776 C   0  0  0  0  0  0
    7.5905    4.0563    6.0568 C   0  0  0  0  0  0
    6.9774    4.7630    5.0212 C   0  0  0  0  0  0
    5.6352    5.1262    5.1091 C   0  0  0  0  0  0
    4.8848    4.7631    6.2236 C   0  0  0  0  0  0
    5.4791    4.0331    7.2508 C   0  0  0  0  0  0
    9.0556    3.6711    5.9153 C   0  0  0  0  0  0
    9.9482    4.6588    6.5313 N   0  0  0  0  0  0
   13.1091    3.0577    5.9090 C   0  0  0  0  0  0
   11.7845    3.3146    5.9090 N   0  0  0  0  0  0
   11.3370    4.4285    6.5443 C   0  0  0  0  0  0
   12.2382    5.3020    7.1854 C   0  0  0  0  0  0
   13.5861    4.9249    7.1691 C   0  0  0  0  0  0
   14.0358    3.8081    6.5464 N   0  0  0  0  0  0
   11.8221    6.6048    7.8628 C   0  0  0  0  0  0
   11.0895    6.3359    8.9393 F   0  0  0  0  0  0
   12.8720    7.3251    8.2603 F   0  0  0  0  0  0
   11.1225    7.3535    7.0129 F   0  0  0  0  0  0
   13.6123    2.0228    5.1133 N   0  0  0  0  0  0
   11.8823   -1.6733    1.3615 N   0  0  0  0  0  0
   13.0178   -2.0754    0.7660 C   0  0  0  0  0  0
   14.1504   -1.2358    1.3492 C   0  0  0  0  0  0
   13.4431   -0.3836    2.3483 C   0  0  0  0  0  0
   13.9222    0.5561    3.2575 C   0  0  0  0  0  0
   13.0402    1.1630    4.1614 C   0  0  0  0  0  0
   11.6667    0.8479    4.1010 C   0  0  0  0  0  0
   11.1883   -0.0733    3.1662 C   0  0  0  0  0  0
   12.0973   -0.6885    2.3090 C   0  0  0  0  0  0
   13.1412   -2.9392   -0.0945 O   0  0  0  0  0  0
    6.9097    1.5753    8.3521 C   0  0  0  0  0  0
    6.6319    4.6404   11.5132 H   0  0  0  0  0  0
    5.7600    4.7629    9.9645 H   0  0  0  0  0  0
    5.9218    3.1744   10.7831 H   0  0  0  0  0  0
    7.5452    5.0472    4.1472 H   0  0  0  0  0  0
    5.1729    5.6833    4.3089 H   0  0  0  0  0  0
    3.8415    5.0389    6.2827 H   0  0  0  0  0  0
    4.8784    3.7387    8.0984 H   0  0  0  0  0  0
    9.2225    2.6896    6.3624 H   0  0  0  0  0  0
    9.3077    3.5591    4.8587 H   0  0  0  0  0  0
    9.5623    5.2826    7.2281 H   0  0  0  0  0  0
   14.3378    5.5299    7.6543 H   0  0  0  0  0  0
   14.6151    1.9304    5.1818 H   0  0  0  0  0  0
   10.9810   -2.0772    1.1543 H   0  0  0  0  0  0
   14.6203   -0.6470    0.5636 H   0  0  0  0  0  0
   14.8889   -1.8883    1.8168 H   0  0  0  0  0  0
   14.9802    0.7718    3.3065 H   0  0  0  0  0  0
   10.9593    1.2823    4.7886 H   0  0  0  0  0  0
   10.1343   -0.3121    3.1402 H   0  0  0  0  0  0
    5.8886    1.5794    8.7339 H   0  0  0  0  0  0
    6.9084    1.0553    7.3923 H   0  0  0  0  0  0
    7.5226    0.9921    9.0398 H   0  0  0  0  0  0
  1  2  1  0  0  0
  1 36  1  0  0  0
  1 37  1  0  0  0
  1 38  1  0  0  0
  2  3  2  0  0  0
  2  4  2  0  0  0
  2  5  1  0  0  0
  5  6  1  0  0  0
  5 35  1  0  0  0
  6  7  1  0  0  0
  6 11  2  0  0  0
  7  8  2  0  0  0
  7 12  1  0  0  0
  8  9  1  0  0  0
  8 39  1  0  0  0
  9 10  2  0  0  0
  9 40  1  0  0  0
 10 11  1  0  0  0
 10 41  1  0  0  0
 11 42  1  0  0  0
 12 13  1  0  0  0
 12 43  1  0  0  0
 12 44  1  0  0  0
 13 16  1  0  0  0
 13 45  1  0  0  0
 14 15  1  0  0  0
 14 19  2  0  0  0
 14 24  1  0  0  0
 15 16  2  0  0  0
 16 17  1  0  0  0
 17 18  2  0  0  0
 17 20  1  0  0  0
 18 19  1  0  0  0
 18 46  1  0  0  0
 20 21  1  0  0  0
 20 22  1  0  0  0
 20 23  1  0  0  0
 24 30  1  0  0  0
 24 47  1  0  0  0
 25 26  1  0  0  0
 25 33  1  0  0  0
 25 48  1  0  0  0
 26 27  1  0  0  0
 26 34  2  0  0  0
 27 28  1  0  0  0
 27 49  1  0  0  0
 27 50  1  0  0  0
 28 29  1  0  0  0
 28 33  2  0  0  0
 29 30  2  0  0  0
 29 51  1  0  0  0
 30 31  1  0  0  0
 31 32  2  0  0  0
 31 52  1  0  0  0
 32 33  1  0  0  0
 32 53  1  0  0  0
 35 54  1  0  0  0
 35 55  1  0  0  0
 35 56  1  0  0  0
M  END
> <s_m_entry_id>
47473

> <s_m_entry_name>
dock_pv.6

> <s_m_Source_Path>
/home/csk/Desktop/cluster/DUD-E-result/fak1

> <s_m_Source_File>
dock_pv.maegz

> <i_m_Source_File_Index>
6

> <chembl_id>
CHEMBL472212

> <chembl_pref_name>
None

> <i_lp_mmshare_version>
53161

> <i_f3d_flags>
0

> <r_lp_tautomer_probability>
0.999999624730965

> <s_lp_Force_Field>
OPLS_2005

> <r_lp_Energy>
22.083512

> <b_lp_Chiralities_Consistent>
1

> <s_lp_Variant>
CHEMBL2695_lig204-1

> <s_i_glide_gridfile>
glide-grid_3bz3

> <i_i_glide_lignum>
235

> <i_i_glide_rotatable_bonds>
8

> <r_i_docking_score>
-11.1610930269054

> <r_i_glide_ligand_efficiency>
-0.318888372197298

> <r_i_glide_ligand_efficiency_sa>
-1.04310500976926

> <r_i_glide_ligand_efficiency_ln>
-2.45010762651937

> <r_i_glide_gscore>
-11.1610930269054

> <r_i_glide_lipo>
-3.85812154403071

> <r_i_glide_hbond>
-0.504151333064932

> <r_i_glide_metal>
0

> <r_i_glide_rewards>
-2.71012694059414

> <r_i_glide_evdw>
-52.9040222167969

> <r_i_glide_ecoul>
-12.4514007568359

> <r_i_glide_erotb>
0.478524664879137

> <r_i_glide_esite>
-0.0543066497295501

> <r_i_glide_emodel>
-105.39881526091

> <r_i_glide_energy>
-65.3554229736328

> <r_i_glide_einternal>
6.36458349227905

> <i_i_glide_confnum>
12

> <i_i_glide_posenum>
156

> <r_i_glide_eff_state_penalty>
0

> <s_user_duplicate_titles>
CHEMBL2695_lig204,452650

> <s_m_subgroup_title>
dock_pv

> <s_m_subgroupid>
dock_pv

> <b_m_subgroup_collapsed>
1

$$$$
CHEMBL2695_lig1128
                    3D
 Schrodinger Suite 2021-1.
 54 57  0  0  1  0            999 V2000
    8.3080   -1.4259    0.2985 C   0  0  0  0  0  0
    9.2605   -0.8374    1.2315 N   0  0  0  0  0  0
   10.5573   -1.1783    1.3295 C   0  0  0  0  0  0
   11.1078   -1.9879    0.5794 O   0  0  0  0  0  0
   11.3437   -0.4370    2.3840 C   0  0  0  0  0  0
   10.7163    0.1250    3.5038 C   0  0  0  0  0  0
   11.4312    0.9123    4.4004 C   0  0  0  0  0  0
   12.7963    1.1630    4.2094 C   0  0  0  0  0  0
   13.5220    1.9632    5.1090 N   0  0  0  0  0  0
   13.1615    3.0532    5.9090 C   0  0  0  0  0  0
   14.1871    3.6252    6.5806 N   0  0  0  0  0  0
   13.9075    4.7629    7.2589 C   0  0  0  0  0  0
   12.6342    5.3380    7.2942 C   0  0  0  0  0  0
   11.6169    4.6490    6.6169 C   0  0  0  0  0  0
   10.3010    5.0718    6.7357 O   0  0  0  0  0  0
    9.2337    4.2209    6.5152 C   0  0  0  0  0  0
    8.9681    3.6512    5.2623 C   0  0  0  0  0  0
    7.9110    2.7497    5.1090 C   0  0  0  0  0  0
    7.0959    2.4259    6.1947 C   0  0  0  0  0  0
    7.3316    3.0238    7.4325 C   0  0  0  0  0  0
    6.6177    2.8727    8.7424 C   0  0  0  0  0  0
    7.3536    3.7968    9.5959 N   0  0  0  0  0  0
    7.0567    3.9719   11.0135 C   0  0  0  0  0  0
    8.4019    4.4048    9.0020 C   0  0  0  0  0  0
    9.1942    5.1825    9.5284 O   0  0  0  0  0  0
    8.3803    3.9165    7.5861 C   0  0  0  0  0  0
   11.8835    3.5111    5.9102 N   0  0  0  0  0  0
   12.3799    6.6232    8.0719 C   0  0  0  0  0  0
   11.7564    7.5173    7.3044 F   0  0  0  0  0  0
   11.6307    6.3627    9.1369 F   0  0  0  0  0  0
   13.5212    7.1630    8.5012 F   0  0  0  0  0  0
   13.4461    0.5644    3.1085 C   0  0  0  0  0  0
   14.9267    0.7627    2.8101 C   0  0  0  0  0  0
   12.7197   -0.2371    2.2220 C   0  0  0  0  0  0
    7.3373   -1.5255    0.7871 H   0  0  0  0  0  0
    8.6132   -2.4185   -0.0414 H   0  0  0  0  0  0
    8.1863   -0.7797   -0.5730 H   0  0  0  0  0  0
    8.9131   -0.0830    1.8162 H   0  0  0  0  0  0
    9.6592   -0.0177    3.6820 H   0  0  0  0  0  0
   10.9050    1.3151    5.2520 H   0  0  0  0  0  0
   14.5116    1.7628    5.1293 H   0  0  0  0  0  0
   14.7217    5.1927    7.8142 H   0  0  0  0  0  0
    9.5989    3.8839    4.4173 H   0  0  0  0  0  0
    7.7250    2.2901    4.1500 H   0  0  0  0  0  0
    6.2927    1.7143    6.0592 H   0  0  0  0  0  0
    5.5672    3.1619    8.6860 H   0  0  0  0  0  0
    6.6551    1.8575    9.1415 H   0  0  0  0  0  0
    7.5174    3.1634   11.5788 H   0  0  0  0  0  0
    7.4495    4.9134   11.4023 H   0  0  0  0  0  0
    5.9782    3.9632   11.1851 H   0  0  0  0  0  0
   15.0358    1.5173    2.0314 H   0  0  0  0  0  0
   15.5091    1.0612    3.6809 H   0  0  0  0  0  0
   15.3716   -0.1648    2.4459 H   0  0  0  0  0  0
   13.2265   -0.6673    1.3694 H   0  0  0  0  0  0
  1  2  1  0  0  0
  1 35  1  0  0  0
  1 36  1  0  0  0
  1 37  1  0  0  0
  2  3  1  0  0  0
  2 38  1  0  0  0
  3  4  2  0  0  0
  3  5  1  0  0  0
  5  6  2  0  0  0
  5 34  1  0  0  0
  6  7  1  0  0  0
  6 39  1  0  0  0
  7  8  2  0  0  0
  7 40  1  0  0  0
  8  9  1  0  0  0
  8 32  1  0  0  0
  9 10  1  0  0  0
  9 41  1  0  0  0
 10 11  2  0  0  0
 10 27  1  0  0  0
 11 12  1  0  0  0
 12 13  2  0  0  0
 12 42  1  0  0  0
 13 14  1  0  0  0
 13 28  1  0  0  0
 14 15  1  0  0  0
 14 27  2  0  0  0
 15 16  1  0  0  0
 16 17  2  0  0  0
 16 26  1  0  0  0
 17 18  1  0  0  0
 17 43  1  0  0  0
 18 19  2  0  0  0
 18 44  1  0  0  0
 19 20  1  0  0  0
 19 45  1  0  0  0
 20 21  1  0  0  0
 20 26  2  0  0  0
 21 22  1  0  0  0
 21 46  1  0  0  0
 21 47  1  0  0  0
 22 23  1  0  0  0
 22 24  1  0  0  0
 23 48  1  0  0  0
 23 49  1  0  0  0
 23 50  1  0  0  0
 24 25  2  0  0  0
 24 26  1  0  0  0
 28 29  1  0  0  0
 28 30  1  0  0  0
 28 31  1  0  0  0
 32 33  1  0  0  0
 32 34  2  0  0  0
 33 51  1  0  0  0
 33 52  1  0  0  0
 33 53  1  0  0  0
 34 54  1  0  0  0
M  END
> <s_m_entry_id>
47474

> <s_m_entry_name>
dock_pv.7

> <s_m_Source_Path>
/home/csk/Desktop/cluster/DUD-E-result/fak1

> <s_m_Source_File>
dock_pv.maegz

> <i_m_Source_File_Index>
7

> <chembl_id>
CHEMBL3661431

> <chembl_pref_name>
None

> <i_lp_mmshare_version>
53161

> <i_f3d_flags>
0

> <r_lp_tautomer_probability>
0.999999917912647

> <s_lp_Force_Field>
OPLS_2005

> <r_lp_Energy>
31.465216

> <b_lp_Chiralities_Consistent>
1

> <s_lp_Variant>
CHEMBL2695_lig1128-1

> <s_i_glide_gridfile>
glide-grid_3bz3

> <i_i_glide_lignum>
1219

> <i_i_glide_rotatable_bonds>
7

> <r_i_docking_score>
-11.1273864414295

> <r_i_glide_ligand_efficiency>
-0.327276071806751

> <r_i_glide_ligand_efficiency_sa>
-1.06024742325462

> <r_i_glide_ligand_efficiency_ln>
-2.45835177752951

> <r_i_glide_gscore>
-11.1273864414295

> <r_i_glide_lipo>
-3.22691323135104

> <r_i_glide_hbond>
-0.86320691209919

> <r_i_glide_metal>
0

> <r_i_glide_rewards>
-2.90298360709541

> <r_i_glide_evdw>
-50.8860092163086

> <r_i_glide_ecoul>
-13.1725635528564

> <r_i_glide_erotb>
0.454729149198596

> <r_i_glide_esite>
-0.0688268463385982

> <r_i_glide_emodel>
-103.725509635138

> <r_i_glide_energy>
-64.058572769165

> <r_i_glide_einternal>
6.40898370742798

> <i_i_glide_confnum>
9

> <i_i_glide_posenum>
211

> <r_i_glide_eff_state_penalty>
0

> <s_user_duplicate_titles>
CHEMBL2695_lig1128

> <s_m_subgroup_title>
dock_pv

> <s_m_subgroupid>
dock_pv

> <b_m_subgroup_collapsed>
1

$$$$
CHEMBL2695_lig1031
                    3D
 Schrodinger Suite 2021-1.
 73 77  0  0  1  0            999 V2000
   15.0037   -0.2777    1.9095 C   0  0  0  0  0  0
   14.4350    0.5691    2.8970 O   0  0  0  0  0  0
   13.0903    0.4491    3.1993 C   0  0  0  0  0  0
   12.1979   -0.3751    2.4831 C   0  0  0  0  0  0
   10.8387   -0.4331    2.8208 C   0  0  0  0  0  0
   10.3768    0.3390    3.8941 C   0  0  0  0  0  0
   11.2554    1.0911    4.6517 C   0  0  0  0  0  0
   12.6134    1.1630    4.3209 C   0  0  0  0  0  0
   13.4954    1.9602    5.1013 N   0  0  0  0  0  0
   13.2628    3.0918    5.9091 C   0  0  0  0  0  0
   14.3184    3.5643    6.6220 N   0  0  0  0  0  0
   14.0956    4.6713    7.3787 C   0  0  0  0  0  0
   12.8637    5.3295    7.4367 C   0  0  0  0  0  0
   11.8225    4.7561    6.6991 C   0  0  0  0  0  0
   10.5338    5.2434    6.8429 O   0  0  0  0  0  0
    9.4179    4.5386    6.4334 C   0  0  0  0  0  0
    9.2179    4.1614    5.0991 C   0  0  0  0  0  0
    8.0659    3.4702    4.7248 C   0  0  0  0  0  0
    7.0878    3.1720    5.6748 C   0  0  0  0  0  0
    7.2633    3.5805    6.9991 C   0  0  0  0  0  0
    6.3697    3.4259    8.1966 C   0  0  1  0  0  0
    5.9889    1.9733    8.5198 C   0  0  0  0  0  0
    7.1658    4.0545    9.2498 N   0  0  0  0  0  0
    6.6781    4.2088   10.6233 C   0  0  0  0  0  0
    8.3527    4.5574    8.8408 C   0  0  0  0  0  0
    9.1741    5.1624    9.5296 O   0  0  0  0  0  0
    8.4207    4.2431    7.3750 C   0  0  0  0  0  0
   12.0285    3.6558    5.9212 N   0  0  0  0  0  0
   12.6520    6.5695    8.3010 C   0  0  0  0  0  0
   11.6801    6.3604    9.1831 F   0  0  0  0  0  0
   13.7498    6.8996    8.9799 F   0  0  0  0  0  0
   12.3138    7.5998    7.5264 F   0  0  0  0  0  0
    9.8897   -1.3192    2.0592 C   0  0  0  0  0  0
   10.2564   -2.4123    1.6267 O   0  0  0  0  0  0
    8.6414   -0.8371    1.9353 N   0  0  0  0  0  0
    7.4410   -1.5803    1.5566 C   0  0  1  0  0  0
    6.1657   -0.7312    1.6989 C   0  0  0  0  0  0
    4.8834   -1.5371    1.4217 C   0  0  0  0  0  0
    4.9249   -2.2211    0.1236 N   0  0  2  0  0  0
    3.7047   -2.9960   -0.0784 C   0  0  0  0  0  0
    6.1157   -3.0661   -0.0480 C   0  0  0  0  0  0
    7.4416   -2.3073    0.1914 C   0  0  1  0  0  0
    7.6477   -1.4309   -0.7971 F   0  0  0  0  0  0
   16.0643   -0.0409    1.8217 H   0  0  0  0  0  0
   14.9101   -1.3294    2.1845 H   0  0  0  0  0  0
   14.5421   -0.1221    0.9341 H   0  0  0  0  0  0
   12.5448   -0.9650    1.6485 H   0  0  0  0  0  0
    9.3334    0.3454    4.1807 H   0  0  0  0  0  0
   10.8479    1.5986    5.5107 H   0  0  0  0  0  0
   14.4617    1.6640    5.0627 H   0  0  0  0  0  0
   14.9187    4.9844    7.9957 H   0  0  0  0  0  0
    9.9638    4.3930    4.3536 H   0  0  0  0  0  0
    7.9304    3.1637    3.7023 H   0  0  0  0  0  0
    6.2011    2.6347    5.3708 H   0  0  0  0  0  0
    5.4562    4.0073    8.0598 H   0  0  0  0  0  0
    5.4425    1.5133    7.6961 H   0  0  0  0  0  0
    6.8695    1.3592    8.7144 H   0  0  0  0  0  0
    5.3476    1.9374    9.4010 H   0  0  0  0  0  0
    7.3786    4.7473   11.2640 H   0  0  0  0  0  0
    5.7411    4.7631   10.6216 H   0  0  0  0  0  0
    6.4872    3.2392   11.0829 H   0  0  0  0  0  0
    8.5061    0.1571    2.0955 H   0  0  0  0  0  0
    7.3712   -2.3730    2.3067 H   0  0  0  0  0  0
    6.1936    0.1342    1.0350 H   0  0  0  0  0  0
    6.1055   -0.3253    2.7090 H   0  0  0  0  0  0
    4.7282   -2.2688    2.2178 H   0  0  0  0  0  0
    4.0196   -0.8708    1.4467 H   0  0  0  0  0  0
    3.5948   -3.7766    0.6760 H   0  0  0  0  0  0
    2.8265   -2.3504   -0.0287 H   0  0  0  0  0  0
    3.7050   -3.4713   -1.0591 H   0  0  0  0  0  0
    6.0545   -3.9155    0.6353 H   0  0  0  0  0  0
    6.1161   -3.4925   -1.0512 H   0  0  0  0  0  0
    8.2557   -3.0304    0.1545 H   0  0  0  0  0  0
  1  2  1  0  0  0
  1 44  1  0  0  0
  1 45  1  0  0  0
  1 46  1  0  0  0
  2  3  1  0  0  0
  3  4  2  0  0  0
  3  8  1  0  0  0
  4  5  1  0  0  0
  4 47  1  0  0  0
  5  6  2  0  0  0
  5 33  1  0  0  0
  6  7  1  0  0  0
  6 48  1  0  0  0
  7  8  2  0  0  0
  7 49  1  0  0  0
  8  9  1  0  0  0
  9 10  1  0  0  0
  9 50  1  0  0  0
 10 11  2  0  0  0
 10 28  1  0  0  0
 11 12  1  0  0  0
 12 13  2  0  0  0
 12 51  1  0  0  0
 13 14  1  0  0  0
 13 29  1  0  0  0
 14 15  1  0  0  0
 14 28  2  0  0  0
 15 16  1  0  0  0
 16 17  2  0  0  0
 16 27  1  0  0  0
 17 18  1  0  0  0
 17 52  1  0  0  0
 18 19  2  0  0  0
 18 53  1  0  0  0
 19 20  1  0  0  0
 19 54  1  0  0  0
 20 21  1  0  0  0
 20 27  2  0  0  0
 21 22  1  0  0  0
 21 23  1  0  0  0
 21 55  1  0  0  0
 22 56  1  0  0  0
 22 57  1  0  0  0
 22 58  1  0  0  0
 23 24  1  0  0  0
 23 25  1  0  0  0
 24 59  1  0  0  0
 24 60  1  0  0  0
 24 61  1  0  0  0
 25 26  2  0  0  0
 25 27  1  0  0  0
 29 30  1  0  0  0
 29 31  1  0  0  0
 29 32  1  0  0  0
 33 34  2  0  0  0
 33 35  1  0  0  0
 35 36  1  0  0  0
 35 62  1  0  0  0
 36 37  1  0  0  0
 36 42  1  0  0  0
 36 63  1  0  0  0
 37 38  1  0  0  0
 37 64  1  0  0  0
 37 65  1  0  0  0
 38 39  1  0  0  0
 38 66  1  0  0  0
 38 67  1  0  0  0
 39 40  1  0  0  0
 39 41  1  0  0  0
 40 68  1  0  0  0
 40 69  1  0  0  0
 40 70  1  0  0  0
 41 42  1  0  0  0
 41 71  1  0  0  0
 41 72  1  0  0  0
 42 43  1  0  0  0
 42 73  1  0  0  0
M  END
> <s_m_entry_id>
47475

> <s_m_entry_name>
dock_pv.8

> <s_m_Source_Path>
/home/csk/Desktop/cluster/DUD-E-result/fak1

> <s_m_Source_File>
dock_pv.maegz

> <i_m_Source_File_Index>
8

> <chembl_id>
CHEMBL3657330

> <chembl_pref_name>
None

> <i_lp_mmshare_version>
53161

> <i_f3d_flags>
0

> <r_lp_tautomer_probability>
0.999999917912647

> <s_lp_Force_Field>
OPLS_2005

> <r_lp_Energy>
51.145257

> <b_lp_Chiralities_Consistent>
1

> <s_lp_Variant>
CHEMBL2695_lig1031-2

> <s_i_glide_gridfile>
glide-grid_3bz3

> <i_i_glide_lignum>
1114

> <i_i_glide_rotatable_bonds>
9

> <r_i_docking_score>
-10.8000752508028

> <r_i_glide_ligand_efficiency>
-0.251164540716344

> <r_i_glide_ligand_efficiency_sa>
-0.879929363680364

> <r_i_glide_ligand_efficiency_ln>
-2.26835146357412

> <r_i_glide_gscore>
-10.8000752508028

> <r_i_glide_lipo>
-2.7075200011106

> <r_i_glide_hbond>
-0.885619278701573

> <r_i_glide_metal>
0

> <r_i_glide_rewards>
-2.66418878425383

> <r_i_glide_evdw>
-50.6860618591309

> <r_i_glide_ecoul>
-14.7019214630127

> <r_i_glide_erotb>
0.286365476284823

> <r_i_glide_esite>
-0.0895213506131553

> <r_i_glide_emodel>
-96.4872682290535

> <r_i_glide_energy>
-65.3879833221436

> <r_i_glide_einternal>
9.39420795440674

> <i_i_glide_confnum>
3

> <i_i_glide_posenum>
62

> <r_i_glide_eff_state_penalty>
0

> <s_user_duplicate_titles>
CHEMBL2695_lig1031

> <s_m_subgroup_title>
dock_pv

> <s_m_subgroupid>
dock_pv

> <b_m_subgroup_collapsed>
1

$$$$
CHEMBL2695_lig1189
                    3D
 Schrodinger Suite 2021-1.
 60 63  0  0  1  0            999 V2000
    6.7657    4.0775   11.1084 N   0  0  0  0  0  0
    7.5236    4.0389   10.0167 C   0  0  0  0  0  0
    8.5071    4.7643    9.9061 O   0  0  0  0  0  0
    7.1291    3.0544    8.9077 C   0  0  0  0  0  0
    6.7792    3.7571    7.5920 C   0  0  0  0  0  0
    5.4274    4.0508    7.3611 C   0  0  0  0  0  0
    5.0204    4.6822    6.1895 C   0  0  0  0  0  0
    5.9609    5.0165    5.2230 C   0  0  0  0  0  0
    7.3082    4.7343    5.4369 C   0  0  0  0  0  0
    7.7453    4.1265    6.6267 C   0  0  0  0  0  0
    9.2497    3.8666    6.8250 C   0  0  0  0  0  0
   10.1720    5.0346    6.3853 C   0  0  0  0  0  0
   11.6586    4.7952    6.6225 C   0  0  0  0  0  0
   12.1380    3.7530    5.9089 N   0  0  0  0  0  0
   13.4316    3.4007    6.0799 C   0  0  0  0  0  0
   13.9221    2.2939    5.3796 N   0  0  0  0  0  0
   13.3115    1.4317    4.4555 C   0  0  0  0  0  0
   14.1292    0.8120    3.5086 C   0  0  0  0  0  0
   13.5829   -0.0469    2.5612 C   0  0  0  0  0  0
   12.2112   -0.3146    2.5649 C   0  0  0  0  0  0
   11.3875    0.3014    3.5105 C   0  0  0  0  0  0
   11.9339    1.1630    4.4575 C   0  0  0  0  0  0
   11.6179   -1.2888    1.5479 C   0  0  1  0  0  0
   10.9585   -2.5571    2.1110 C   0  0  0  0  0  0
    9.6583   -2.6923    1.3051 C   0  0  0  0  0  0
    9.7839   -1.8325    0.1375 N   0  0  2  0  0  0
   10.5402   -0.6979    0.6349 C   0  0  0  0  0  0
   14.3033    4.0387    6.8978 N   0  0  0  0  0  0
   13.8125    5.1056    7.5861 C   0  0  0  0  0  0
   12.4833    5.5439    7.4865 C   0  0  0  0  0  0
   11.9864    6.7323    8.3071 C   0  0  0  0  0  0
   11.5321    7.6913    7.4989 F   0  0  0  0  0  0
   11.0032    6.3350    9.1091 F   0  0  0  0  0  0
   12.9478    7.2529    9.0731 F   0  0  0  0  0  0
    5.9348    3.5052   11.1992 H   0  0  0  0  0  0
    7.0099    4.7097   11.8541 H   0  0  0  0  0  0
    6.2736    2.4605    9.2357 H   0  0  0  0  0  0
    7.9216    2.3224    8.7623 H   0  0  0  0  0  0
    4.6817    3.7909    8.0980 H   0  0  0  0  0  0
    3.9757    4.9061    6.0262 H   0  0  0  0  0  0
    5.6446    5.4970    4.3088 H   0  0  0  0  0  0
    8.0084    4.9987    4.6600 H   0  0  0  0  0  0
    9.4775    3.6503    7.8654 H   0  0  0  0  0  0
    9.4963    2.9627    6.2669 H   0  0  0  0  0  0
   10.0682    5.1628    5.3124 H   0  0  0  0  0  0
    9.8601    5.9614    6.8546 H   0  0  0  0  0  0
   14.8901    2.0674    5.5545 H   0  0  0  0  0  0
   15.1964    0.9834    3.5115 H   0  0  0  0  0  0
   14.2350   -0.5224    1.8437 H   0  0  0  0  0  0
   10.3247    0.1013    3.5286 H   0  0  0  0  0  0
   11.2722    1.5857    5.1952 H   0  0  0  0  0  0
   12.4204   -1.5699    0.8617 H   0  0  0  0  0  0
   11.5721   -3.4433    1.9406 H   0  0  0  0  0  0
   10.6776   -2.4593    3.1609 H   0  0  0  0  0  0
    9.4966   -3.7229    0.9818 H   0  0  0  0  0  0
    8.7913   -2.4085    1.9097 H   0  0  0  0  0  0
    8.8644   -1.5340   -0.1657 H   0  0  0  0  0  0
    9.8812   -0.0350    1.2002 H   0  0  0  0  0  0
   10.9623   -0.0713   -0.1515 H   0  0  0  0  0  0
   14.5038    5.5671    8.2714 H   0  0  0  0  0  0
  1  2  1  0  0  0
  1 35  1  0  0  0
  1 36  1  0  0  0
  2  3  2  0  0  0
  2  4  1  0  0  0
  4  5  1  0  0  0
  4 37  1  0  0  0
  4 38  1  0  0  0
  5  6  2  0  0  0
  5 10  1  0  0  0
  6  7  1  0  0  0
  6 39  1  0  0  0
  7  8  2  0  0  0
  7 40  1  0  0  0
  8  9  1  0  0  0
  8 41  1  0  0  0
  9 10  2  0  0  0
  9 42  1  0  0  0
 10 11  1  0  0  0
 11 12  1  0  0  0
 11 43  1  0  0  0
 11 44  1  0  0  0
 12 13  1  0  0  0
 12 45  1  0  0  0
 12 46  1  0  0  0
 13 14  2  0  0  0
 13 30  1  0  0  0
 14 15  1  0  0  0
 15 16  1  0  0  0
 15 28  2  0  0  0
 16 17  1  0  0  0
 16 47  1  0  0  0
 17 18  2  0  0  0
 17 22  1  0  0  0
 18 19  1  0  0  0
 18 48  1  0  0  0
 19 20  2  0  0  0
 19 49  1  0  0  0
 20 21  1  0  0  0
 20 23  1  0  0  0
 21 22  2  0  0  0
 21 50  1  0  0  0
 22 51  1  0  0  0
 23 24  1  0  0  0
 23 27  1  0  0  0
 23 52  1  0  0  0
 24 25  1  0  0  0
 24 53  1  0  0  0
 24 54  1  0  0  0
 25 26  1  0  0  0
 25 55  1  0  0  0
 25 56  1  0  0  0
 26 27  1  0  0  0
 26 57  1  0  0  0
 27 58  1  0  0  0
 27 59  1  0  0  0
 28 29  1  0  0  0
 29 30  2  0  0  0
 29 60  1  0  0  0
 30 31  1  0  0  0
 31 32  1  0  0  0
 31 33  1  0  0  0
 31 34  1  0  0  0
M  END
> <s_m_entry_id>
47476

> <s_m_entry_name>
dock_pv.9

> <s_m_Source_Path>
/home/csk/Desktop/cluster/DUD-E-result/fak1

> <s_m_Source_File>
dock_pv.maegz

> <i_m_Source_File_Index>
9

> <chembl_id>
CHEMBL3692200

> <chembl_pref_name>
None

> <i_lp_mmshare_version>
53161

> <i_f3d_flags>
0

> <r_lp_tautomer_probability>
0.999999987636

> <s_lp_Force_Field>
OPLS_2005

> <r_lp_Energy>
25.90417

> <b_lp_Chiralities_Consistent>
1

> <s_lp_Variant>
CHEMBL2695_lig1189-2

> <s_i_glide_gridfile>
glide-grid_3bz3

> <i_i_glide_lignum>
1291

> <i_i_glide_rotatable_bonds>
9

> <r_i_docking_score>
-10.7467867238755

> <r_i_glide_ligand_efficiency>
-0.316081962466925

> <r_i_glide_ligand_efficiency_sa>
-1.02398285457515

> <r_i_glide_ligand_efficiency_ln>
-2.37426662446134

> <r_i_glide_gscore>
-10.7467867238755

> <r_i_glide_lipo>
-3.6467832336183

> <r_i_glide_hbond>
-0.874570628469011

> <r_i_glide_metal>
0

> <r_i_glide_rewards>
-2.89127390833333

> <r_i_glide_evdw>
-47.5513114929199

> <r_i_glide_ecoul>
-10.6533126831055

> <r_i_glide_erotb>
0.641403523657002

> <r_i_glide_esite>
0

> <r_i_glide_emodel>
-90.9012804381649

> <r_i_glide_energy>
-58.2046241760254

> <r_i_glide_einternal>
7.6055760383606

> <i_i_glide_confnum>
3

> <i_i_glide_posenum>
382

> <r_i_glide_eff_state_penalty>
0

> <s_user_duplicate_titles>
CHEMBL2695_lig1189

> <s_m_subgroup_title>
dock_pv

> <s_m_subgroupid>
dock_pv

> <b_m_subgroup_collapsed>
1

$$$$
CHEMBL2695_lig1135
                    3D
 Schrodinger Suite 2021-1.
 55 58  0  0  1  0            999 V2000
    7.0537   -1.8856    0.8298 C   0  0  0  0  0  0
    8.2815   -2.5245    1.1421 O   0  0  0  0  0  0
    9.0394   -1.6876    1.9576 N   0  0  0  0  0  0
   10.2316   -1.2376    1.5156 C   0  0  0  0  0  0
   10.6677   -1.4544    0.3795 O   0  0  0  0  0  0
   11.0551   -0.4387    2.5032 C   0  0  0  0  0  0
   10.4806    0.1614    3.6317 C   0  0  0  0  0  0
   11.2498    0.9363    4.4952 C   0  0  0  0  0  0
   12.6114    1.1630    4.2458 C   0  0  0  0  0  0
   13.3987    1.9505    5.1090 N   0  0  0  0  0  0
   13.0814    3.0510    5.9090 C   0  0  0  0  0  0
   14.1347    3.6268    6.5300 N   0  0  0  0  0  0
   13.8812    4.7629    7.2217 C   0  0  0  0  0  0
   12.6071    5.3330    7.3150 C   0  0  0  0  0  0
   11.5646    4.6378    6.6856 C   0  0  0  0  0  0
   10.2538    5.0487    6.8662 O   0  0  0  0  0  0
    9.1716    4.2118    6.6587 C   0  0  0  0  0  0
    8.8736    3.6445    5.4115 C   0  0  0  0  0  0
    7.7639    2.8070    5.2655 C   0  0  0  0  0  0
    6.9196    2.5607    6.3516 C   0  0  0  0  0  0
    7.1882    3.1591    7.5843 C   0  0  0  0  0  0
    6.4455    3.1066    8.8892 C   0  0  0  0  0  0
    7.2583    3.9711    9.7379 N   0  0  0  0  0  0
    6.8480    4.4029   11.0738 C   0  0  0  0  0  0
    8.3687    4.4559    9.1451 C   0  0  0  0  0  0
    9.2269    5.1638    9.6655 O   0  0  0  0  0  0
    8.3062    3.9629    7.7331 C   0  0  0  0  0  0
   11.8044    3.5042    5.9678 N   0  0  0  0  0  0
   12.3728    6.6191    8.0977 C   0  0  0  0  0  0
   11.6486    6.3616    9.1811 F   0  0  0  0  0  0
   13.5213    7.1630    8.4983 F   0  0  0  0  0  0
   11.7300    7.5105    7.3429 F   0  0  0  0  0  0
   13.1971    0.5647    3.1090 C   0  0  0  0  0  0
   14.6610    0.7629    2.7358 C   0  0  0  0  0  0
   12.4213   -0.2380    2.2684 C   0  0  0  0  0  0
    6.4645   -2.5328    0.1806 H   0  0  0  0  0  0
    7.2098   -0.9414    0.3042 H   0  0  0  0  0  0
    6.4642   -1.6942    1.7294 H   0  0  0  0  0  0
    8.8076   -1.8066    2.9334 H   0  0  0  0  0  0
    9.4262    0.0572    3.8487 H   0  0  0  0  0  0
   10.7653    1.3489    5.3660 H   0  0  0  0  0  0
   14.3871    1.7451    5.0826 H   0  0  0  0  0  0
   14.7220    5.2015    7.7300 H   0  0  0  0  0  0
    9.5117    3.8369    4.5615 H   0  0  0  0  0  0
    7.5557    2.3484    4.3091 H   0  0  0  0  0  0
    6.0653    1.9114    6.2196 H   0  0  0  0  0  0
    5.4261    3.4879    8.8169 H   0  0  0  0  0  0
    6.3895    2.1005    9.3082 H   0  0  0  0  0  0
    7.5881    5.0466   11.5524 H   0  0  0  0  0  0
    5.9219    4.9677   11.0060 H   0  0  0  0  0  0
    6.6714    3.5630   11.7375 H   0  0  0  0  0  0
   14.7296    1.5566    1.9923 H   0  0  0  0  0  0
   15.2929    1.0110    3.5871 H   0  0  0  0  0  0
   15.0791   -0.1500    2.3090 H   0  0  0  0  0  0
   12.8866   -0.6819    1.3990 H   0  0  0  0  0  0
  1  2  1  0  0  0
  1 36  1  0  0  0
  1 37  1  0  0  0
  1 38  1  0  0  0
  2  3  1  0  0  0
  3  4  1  0  0  0
  3 39  1  0  0  0
  4  5  2  0  0  0
  4  6  1  0  0  0
  6  7  2  0  0  0
  6 35  1  0  0  0
  7  8  1  0  0  0
  7 40  1  0  0  0
  8  9  2  0  0  0
  8 41  1  0  0  0
  9 10  1  0  0  0
  9 33  1  0  0  0
 10 11  1  0  0  0
 10 42  1  0  0  0
 11 12  2  0  0  0
 11 28  1  0  0  0
 12 13  1  0  0  0
 13 14  2  0  0  0
 13 43  1  0  0  0
 14 15  1  0  0  0
 14 29  1  0  0  0
 15 16  1  0  0  0
 15 28  2  0  0  0
 16 17  1  0  0  0
 17 18  2  0  0  0
 17 27  1  0  0  0
 18 19  1  0  0  0
 18 44  1  0  0  0
 19 20  2  0  0  0
 19 45  1  0  0  0
 20 21  1  0  0  0
 20 46  1  0  0  0
 21 22  1  0  0  0
 21 27  2  0  0  0
 22 23  1  0  0  0
 22 47  1  0  0  0
 22 48  1  0  0  0
 23 24  1  0  0  0
 23 25  1  0  0  0
 24 49  1  0  0  0
 24 50  1  0  0  0
 24 51  1  0  0  0
 25 26  2  0  0  0
 25 27  1  0  0  0
 29 30  1  0  0  0
 29 31  1  0  0  0
 29 32  1  0  0  0
 33 34  1  0  0  0
 33 35  2  0  0  0
 34 52  1  0  0  0
 34 53  1  0  0  0
 34 54  1  0  0  0
 35 55  1  0  0  0
M  END
> <s_m_entry_id>
47477

> <s_m_entry_name>
dock_pv.10

> <s_m_Source_Path>
/home/csk/Desktop/cluster/DUD-E-result/fak1

> <s_m_Source_File>
dock_pv.maegz

> <i_m_Source_File_Index>
10

> <chembl_id>
CHEMBL3661438

> <chembl_pref_name>
None

> <i_lp_mmshare_version>
53161

> <i_f3d_flags>
0

> <r_lp_tautomer_probability>
0.999999917912647

> <s_lp_Force_Field>
OPLS_2005

> <r_lp_Energy>
35.261752

> <b_lp_Chiralities_Consistent>
1

> <s_lp_Variant>
CHEMBL2695_lig1135-1

> <s_i_glide_gridfile>
glide-grid_3bz3

> <i_i_glide_lignum>
1227

> <i_i_glide_rotatable_bonds>
8

> <r_i_docking_score>
-10.5728228650401

> <r_i_glide_ligand_efficiency>
-0.30208065328686

> <r_i_glide_ligand_efficiency_sa>
-0.988125846755363

> <r_i_glide_ligand_efficiency_ln>
-2.32096927003712

> <r_i_glide_gscore>
-10.5728228650401

> <r_i_glide_lipo>
-3.20160296406508

> <r_i_glide_hbond>
-0.626781147657901

> <r_i_glide_metal>
0

> <r_i_glide_rewards>
-2.87509786397658

> <r_i_glide_evdw>
-52.7729148864746

> <r_i_glide_ecoul>
-11.1303815841675

> <r_i_glide_erotb>
0.51338950491226

> <r_i_glide_esite>
-0.074527412303933

> <r_i_glide_emodel>
-101.948073963986

> <r_i_glide_energy>
-63.9032964706421

> <r_i_glide_einternal>
3.32691216468811

> <i_i_glide_confnum>
1

> <i_i_glide_posenum>
261

> <r_i_glide_eff_state_penalty>
0

> <s_user_duplicate_titles>
CHEMBL2695_lig1135

> <s_m_subgroup_title>
dock_pv

> <s_m_subgroupid>
dock_pv

> <b_m_subgroup_collapsed>
1

$$$$
CHEMBL2695_lig988
                    3D
 Schrodinger Suite 2021-1.
 55 58  0  0  1  0            999 V2000
   14.9507   -0.4371    1.6870 C   0  0  0  0  0  0
   14.4779    0.4944    2.8205 C   0  0  0  0  0  0
   12.9869    0.4379    3.1826 C   0  0  0  0  0  0
   12.1105   -0.3751    2.4400 C   0  0  0  0  0  0
   10.7445   -0.4366    2.7321 C   0  0  0  0  0  0
   10.2643    0.3074    3.8143 C   0  0  0  0  0  0
   11.1221    1.0578    4.6009 C   0  0  0  0  0  0
   12.4858    1.1630    4.2986 C   0  0  0  0  0  0
   13.3354    1.9590    5.1090 N   0  0  0  0  0  0
   13.0681    3.0858    5.9090 C   0  0  0  0  0  0
   14.1255    3.6274    6.5594 N   0  0  0  0  0  0
   13.8882    4.7630    7.2678 C   0  0  0  0  0  0
   12.6283    5.3697    7.3465 C   0  0  0  0  0  0
   11.5850    4.7213    6.6767 C   0  0  0  0  0  0
   10.2794    5.1630    6.8337 O   0  0  0  0  0  0
    9.1936    4.3630    6.5300 C   0  0  0  0  0  0
    8.9390    3.9282    5.2239 C   0  0  0  0  0  0
    7.8674    3.0753    4.9658 C   0  0  0  0  0  0
    7.0245    2.6741    6.0014 C   0  0  0  0  0  0
    7.2418    3.1413    7.2985 C   0  0  0  0  0  0
    6.4494    2.8543    8.5465 C   0  0  0  0  0  0
    7.1478    3.6448    9.6544 C   0  0  0  0  0  0
    8.3221    4.3628    8.9971 C   0  0  0  0  0  0
    9.1090    5.1102    9.5747 O   0  0  0  0  0  0
    8.3185    3.9886    7.5618 C   0  0  0  0  0  0
   11.8122    3.5965    5.9439 N   0  0  0  0  0  0
   12.3896    6.6383    8.1581 C   0  0  0  0  0  0
   11.8079    7.5667    7.3982 F   0  0  0  0  0  0
   11.5970    6.3630    9.1898 F   0  0  0  0  0  0
   13.5218    7.1488    8.6380 F   0  0  0  0  0  0
    9.8194   -1.2714    1.8814 C   0  0  0  0  0  0
   10.2383   -2.2714    1.2954 O   0  0  0  0  0  0
    8.5500   -0.8371    1.7992 N   0  0  0  0  0  0
    7.4560   -1.5497    1.1516 C   0  0  0  0  0  0
   16.0207   -0.3290    1.5092 H   0  0  0  0  0  0
   14.7732   -1.4838    1.9384 H   0  0  0  0  0  0
   14.4369   -0.2221    0.7494 H   0  0  0  0  0  0
   14.7178    1.5231    2.5597 H   0  0  0  0  0  0
   15.0568    0.2569    3.7129 H   0  0  0  0  0  0
   12.4752   -0.9513    1.6034 H   0  0  0  0  0  0
    9.2150    0.3012    4.0756 H   0  0  0  0  0  0
   10.6874    1.5419    5.4594 H   0  0  0  0  0  0
   14.3116    1.7033    5.0810 H   0  0  0  0  0  0
   14.7220    5.1632    7.8156 H   0  0  0  0  0  0
    9.5935    4.2240    4.4172 H   0  0  0  0  0  0
    7.6956    2.7158    3.9620 H   0  0  0  0  0  0
    6.2059    2.0022    5.7844 H   0  0  0  0  0  0
    5.4126    3.1827    8.4595 H   0  0  0  0  0  0
    6.4478    1.7916    8.7961 H   0  0  0  0  0  0
    6.4804    4.3757   10.1121 H   0  0  0  0  0  0
    7.5173    2.9904   10.4435 H   0  0  0  0  0  0
    8.3356    0.0923    2.1483 H   0  0  0  0  0  0
    6.9763   -0.9036    0.4166 H   0  0  0  0  0  0
    6.7113   -1.8270    1.8987 H   0  0  0  0  0  0
    7.7792   -2.4598    0.6446 H   0  0  0  0  0  0
  1  2  1  0  0  0
  1 35  1  0  0  0
  1 36  1  0  0  0
  1 37  1  0  0  0
  2  3  1  0  0  0
  2 38  1  0  0  0
  2 39  1  0  0  0
  3  4  2  0  0  0
  3  8  1  0  0  0
  4  5  1  0  0  0
  4 40  1  0  0  0
  5  6  2  0  0  0
  5 31  1  0  0  0
  6  7  1  0  0  0
  6 41  1  0  0  0
  7  8  2  0  0  0
  7 42  1  0  0  0
  8  9  1  0  0  0
  9 10  1  0  0  0
  9 43  1  0  0  0
 10 11  2  0  0  0
 10 26  1  0  0  0
 11 12  1  0  0  0
 12 13  2  0  0  0
 12 44  1  0  0  0
 13 14  1  0  0  0
 13 27  1  0  0  0
 14 15  1  0  0  0
 14 26  2  0  0  0
 15 16  1  0  0  0
 16 17  2  0  0  0
 16 25  1  0  0  0
 17 18  1  0  0  0
 17 45  1  0  0  0
 18 19  2  0  0  0
 18 46  1  0  0  0
 19 20  1  0  0  0
 19 47  1  0  0  0
 20 21  1  0  0  0
 20 25  2  0  0  0
 21 22  1  0  0  0
 21 48  1  0  0  0
 21 49  1  0  0  0
 22 23  1  0  0  0
 22 50  1  0  0  0
 22 51  1  0  0  0
 23 24  2  0  0  0
 23 25  1  0  0  0
 27 28  1  0  0  0
 27 29  1  0  0  0
 27 30  1  0  0  0
 31 32  2  0  0  0
 31 33  1  0  0  0
 33 34  1  0  0  0
 33 52  1  0  0  0
 34 53  1  0  0  0
 34 54  1  0  0  0
 34 55  1  0  0  0
M  END
> <s_m_entry_id>
47478

> <s_m_entry_name>
dock_pv.11

> <s_m_Source_Path>
/home/csk/Desktop/cluster/DUD-E-result/fak1

> <s_m_Source_File>
dock_pv.maegz

> <i_m_Source_File_Index>
11

> <chembl_id>
CHEMBL3657287

> <chembl_pref_name>
None

> <i_lp_mmshare_version>
53161

> <i_f3d_flags>
0

> <r_lp_tautomer_probability>
0.999949917916752

> <s_lp_Force_Field>
OPLS_2005

> <r_lp_Energy>
33.047491

> <b_lp_Chiralities_Consistent>
1

> <s_lp_Variant>
CHEMBL2695_lig988-1

> <s_i_glide_gridfile>
glide-grid_3bz3

> <i_i_glide_lignum>
1069

> <i_i_glide_rotatable_bonds>
8

> <r_i_docking_score>
-10.5387070318757

> <r_i_glide_ligand_efficiency>
-0.309961971525756

> <r_i_glide_ligand_efficiency_sa>
-1.00415645972174

> <r_i_glide_ligand_efficiency_ln>
-2.32829598406093

> <r_i_glide_gscore>
-10.5387070318757

> <r_i_glide_lipo>
-3.00965312236292

> <r_i_glide_hbond>
-0.78838428278551

> <r_i_glide_metal>
0

> <r_i_glide_rewards>
-2.8999669257844

> <r_i_glide_evdw>
-46.6297340393066

> <r_i_glide_ecoul>
-12.5317211151123

> <r_i_glide_erotb>
0.456473490381773

> <r_i_glide_esite>
-0.0859313220924758

> <r_i_glide_emodel>
-93.5953643315383

> <r_i_glide_energy>
-59.1614551544189

> <r_i_glide_einternal>
6.34421825408936

> <i_i_glide_confnum>
1

> <i_i_glide_posenum>
310

> <r_i_glide_eff_state_penalty>
0

> <s_user_duplicate_titles>
CHEMBL2695_lig988

> <s_m_subgroup_title>
dock_pv

> <s_m_subgroupid>
dock_pv

> <b_m_subgroup_collapsed>
1

$$$$
CHEMBL2695_lig1130
                    3D
 Schrodinger Suite 2021-1.
 68 72  0  0  1  0            999 V2000
   14.7193   -0.2754    1.9512 C   0  0  0  0  0  0
   14.1340    0.5403    2.9580 O   0  0  0  0  0  0
   12.7807    0.4224    3.2407 C   0  0  0  0  0  0
   11.9056   -0.4215    2.5246 C   0  0  0  0  0  0
   10.5383   -0.4774    2.8320 C   0  0  0  0  0  0
   10.0547    0.3161    3.8849 C   0  0  0  0  0  0
   10.9165    1.0864    4.6429 C   0  0  0  0  0  0
   12.2767    1.1630    4.3332 C   0  0  0  0  0  0
   13.1607    1.9447    5.1103 N   0  0  0  0  0  0
   12.9386    3.0771    5.9083 C   0  0  0  0  0  0
   14.0355    3.6577    6.4393 N   0  0  0  0  0  0
   13.8404    4.8188    7.1117 C   0  0  0  0  0  0
   12.5765    5.4079    7.2766 C   0  0  0  0  0  0
   11.4928    4.7266    6.7051 C   0  0  0  0  0  0
   10.1933    5.1709    6.8988 O   0  0  0  0  0  0
    9.1013    4.3597    6.6620 C   0  0  0  0  0  0
    8.7830    3.8687    5.3879 C   0  0  0  0  0  0
    7.6995    3.0014    5.2217 C   0  0  0  0  0  0
    6.9032    2.6453    6.3136 C   0  0  0  0  0  0
    7.1921    3.1724    7.5747 C   0  0  0  0  0  0
    6.5115    2.9840    8.8992 C   0  0  0  0  0  0
    7.2904    3.8629    9.7626 N   0  0  0  0  0  0
    6.9950    4.0671   11.1751 C   0  0  0  0  0  0
    8.3552    4.4446    9.1728 C   0  0  0  0  0  0
    9.1885    5.1644    9.7142 O   0  0  0  0  0  0
    8.2745    4.0201    7.7398 C   0  0  0  0  0  0
   11.6839    3.5724    6.0142 N   0  0  0  0  0  0
   12.3757    6.6848    8.0748 C   0  0  0  0  0  0
   11.8207    7.6287    7.3134 F   0  0  0  0  0  0
   11.5787    6.4321    9.1089 F   0  0  0  0  0  0
   13.5206    7.1628    8.5566 F   0  0  0  0  0  0
    9.6320   -1.4036    2.0502 C   0  0  0  0  0  0
   10.0961   -2.3600    1.4309 O   0  0  0  0  0  0
    8.3221   -1.1093    2.0656 N   0  0  0  0  0  0
    7.2592   -1.8541    1.3818 C   0  0  0  0  0  0
    5.8507   -1.3696    1.8135 C   0  0  0  0  0  0
    5.5769    0.0978    1.4171 C   0  0  0  0  0  0
    5.7649    0.3033   -0.1023 C   0  0  0  0  0  0
    7.1139   -0.2530   -0.5987 C   0  0  0  0  0  0
    7.3270   -1.7150   -0.1596 C   0  0  0  0  0  0
   15.7853   -0.0560    1.9045 H   0  0  0  0  0  0
   14.6151   -1.3356    2.1808 H   0  0  0  0  0  0
   14.2902   -0.0707    0.9702 H   0  0  0  0  0  0
   12.2773   -1.0193    1.7057 H   0  0  0  0  0  0
    9.0081    0.3242    4.1532 H   0  0  0  0  0  0
   10.4851    1.5964    5.4836 H   0  0  0  0  0  0
   14.1337    1.7153    4.9820 H   0  0  0  0  0  0
   14.7217    5.2616    7.5437 H   0  0  0  0  0  0
    9.4002    4.1268    4.5399 H   0  0  0  0  0  0
    7.4821    2.5973    4.2463 H   0  0  0  0  0  0
    6.0750    1.9678    6.1647 H   0  0  0  0  0  0
    5.4661    3.2926    8.8842 H   0  0  0  0  0  0
    6.5459    1.9557    9.2617 H   0  0  0  0  0  0
    7.5225    3.3287   11.7815 H   0  0  0  0  0  0
    7.3205    5.0556   11.5100 H   0  0  0  0  0  0
    5.9230    3.9989   11.3649 H   0  0  0  0  0  0
    8.0547   -0.2031    2.4212 H   0  0  0  0  0  0
    7.3594   -2.9022    1.6731 H   0  0  0  0  0  0
    5.7063   -1.4918    2.8861 H   0  0  0  0  0  0
    5.0922   -2.0092    1.3600 H   0  0  0  0  0  0
    6.2474    0.7634    1.9655 H   0  0  0  0  0  0
    4.5647    0.3830    1.7076 H   0  0  0  0  0  0
    5.6803    1.3581   -0.3685 H   0  0  0  0  0  0
    4.9517   -0.1977   -0.6298 H   0  0  0  0  0  0
    7.9232    0.3622   -0.2155 H   0  0  0  0  0  0
    7.1680   -0.1720   -1.6779 H   0  0  0  0  0  0
    6.5731   -2.3534   -0.6208 H   0  0  0  0  0  0
    8.2836   -2.0791   -0.5328 H   0  0  0  0  0  0
  1  2  1  0  0  0
  1 41  1  0  0  0
  1 42  1  0  0  0
  1 43  1  0  0  0
  2  3  1  0  0  0
  3  4  2  0  0  0
  3  8  1  0  0  0
  4  5  1  0  0  0
  4 44  1  0  0  0
  5  6  2  0  0  0
  5 32  1  0  0  0
  6  7  1  0  0  0
  6 45  1  0  0  0
  7  8  2  0  0  0
  7 46  1  0  0  0
  8  9  1  0  0  0
  9 10  1  0  0  0
  9 47  1  0  0  0
 10 11  2  0  0  0
 10 27  1  0  0  0
 11 12  1  0  0  0
 12 13  2  0  0  0
 12 48  1  0  0  0
 13 14  1  0  0  0
 13 28  1  0  0  0
 14 15  1  0  0  0
 14 27  2  0  0  0
 15 16  1  0  0  0
 16 17  2  0  0  0
 16 26  1  0  0  0
 17 18  1  0  0  0
 17 49  1  0  0  0
 18 19  2  0  0  0
 18 50  1  0  0  0
 19 20  1  0  0  0
 19 51  1  0  0  0
 20 21  1  0  0  0
 20 26  2  0  0  0
 21 22  1  0  0  0
 21 52  1  0  0  0
 21 53  1  0  0  0
 22 23  1  0  0  0
 22 24  1  0  0  0
 23 54  1  0  0  0
 23 55  1  0  0  0
 23 56  1  0  0  0
 24 25  2  0  0  0
 24 26  1  0  0  0
 28 29  1  0  0  0
 28 30  1  0  0  0
 28 31  1  0  0  0
 32 33  2  0  0  0
 32 34  1  0  0  0
 34 35  1  0  0  0
 34 57  1  0  0  0
 35 36  1  0  0  0
 35 40  1  0  0  0
 35 58  1  0  0  0
 36 37  1  0  0  0
 36 59  1  0  0  0
 36 60  1  0  0  0
 37 38  1  0  0  0
 37 61  1  0  0  0
 37 62  1  0  0  0
 38 39  1  0  0  0
 38 63  1  0  0  0
 38 64  1  0  0  0
 39 40  1  0  0  0
 39 65  1  0  0  0
 39 66  1  0  0  0
 40 67  1  0  0  0
 40 68  1  0  0  0
M  END
> <s_m_entry_id>
47479

> <s_m_entry_name>
dock_pv.12

> <s_m_Source_Path>
/home/csk/Desktop/cluster/DUD-E-result/fak1

> <s_m_Source_File>
dock_pv.maegz

> <i_m_Source_File_Index>
12

> <chembl_id>
CHEMBL3661433

> <chembl_pref_name>
None

> <i_lp_mmshare_version>
53161

> <i_f3d_flags>
0

> <r_lp_tautomer_probability>
0.999999917912647

> <s_lp_Force_Field>
OPLS_2005

> <r_lp_Energy>
43.779712

> <b_lp_Chiralities_Consistent>
1

> <s_lp_Variant>
CHEMBL2695_lig1130-1

> <s_i_glide_gridfile>
glide-grid_3bz3

> <i_i_glide_lignum>
1221

> <i_i_glide_rotatable_bonds>
9

> <r_i_docking_score>
-10.5253272628683

> <r_i_glide_ligand_efficiency>
-0.263133181571706

> <r_i_glide_ligand_efficiency_sa>
-0.899902821413715

> <r_i_glide_ligand_efficiency_ln>
-2.24474255861569

> <r_i_glide_gscore>
-10.5253272628683

> <r_i_glide_lipo>
-3.01465136098878

> <r_i_glide_hbond>
-0.577837422784263

> <r_i_glide_metal>
0

> <r_i_glide_rewards>
-2.78753559497926

> <r_i_glide_evdw>
-52.971851348877

> <r_i_glide_ecoul>
-11.9983806610107

> <r_i_glide_erotb>
0.396172051933113

> <r_i_glide_esite>
-0.0931252694536129

> <r_i_glide_emodel>
-99.6023947272696

> <r_i_glide_energy>
-64.9702320098877

> <r_i_glide_einternal>
6.18449687957764

> <i_i_glide_confnum>
7

> <i_i_glide_posenum>
117

> <r_i_glide_eff_state_penalty>
0

> <s_user_duplicate_titles>
CHEMBL2695_lig1130

> <s_m_subgroup_title>
dock_pv

> <s_m_subgroupid>
dock_pv

> <b_m_subgroup_collapsed>
1

$$$$
CHEMBL2695_lig971
                    3D
 Schrodinger Suite 2021-1.
 47 51  0  0  1  0            999 V2000
   13.2494    7.4303    9.1085 F   0  0  0  0  0  0
   12.2081    6.8242    8.5424 C   0  0  0  0  0  0
   11.5413    7.7224    7.8182 F   0  0  0  0  0  0
   11.4283    6.3646    9.5090 F   0  0  0  0  0  0
   12.6160    5.6371    7.6921 C   0  0  0  0  0  0
   13.9215    5.1441    7.7145 C   0  0  0  0  0  0
   14.3217    4.0688    6.9937 N   0  0  0  0  0  0
   13.3672    3.4640    6.2493 C   0  0  0  0  0  0
   13.8019    2.3633    5.5080 N   0  0  0  0  0  0
   13.1207    1.5056    4.6382 C   0  0  0  0  0  0
   11.7546    1.1889    4.7752 C   0  0  0  0  0  0
   11.1222    0.3318    3.8724 C   0  0  0  0  0  0
   11.8814   -0.2402    2.8518 C   0  0  0  0  0  0
   11.5078   -1.1632    1.8888 N   0  0  0  0  0  0
   12.5335   -1.5454    1.1067 C   0  0  0  0  0  0
   12.5128   -2.3672    0.1933 O   0  0  0  0  0  0
   13.7564   -0.7503    1.5617 C   0  0  0  0  0  0
   13.2261    0.0448    2.7091 C   0  0  0  0  0  0
   13.8545    0.9234    3.5918 C   0  0  0  0  0  0
   12.0674    3.8513    6.1816 N   0  0  0  0  0  0
   11.6874    4.9340    6.9156 C   0  0  0  0  0  0
   10.3404    5.2538    7.0005 O   0  0  0  0  0  0
    9.3418    4.3594    6.6647 C   0  0  0  0  0  0
    9.1942    3.8707    5.3614 C   0  0  0  0  0  0
    8.1944    2.9438    5.0709 C   0  0  0  0  0  0
    7.3230    2.5121    6.0688 C   0  0  0  0  0  0
    7.4310    3.0303    7.3589 C   0  0  0  0  0  0
    6.5906    2.7154    8.5661 C   0  0  0  0  0  0
    7.1509    3.5945    9.6843 C   0  0  0  0  0  0
    8.3216    4.3625    9.0801 C   0  0  0  0  0  0
    9.0230    5.1628    9.6900 O   0  0  0  0  0  0
    8.4312    3.9584    7.6563 C   0  0  0  0  0  0
   14.6719    5.5627    8.3661 H   0  0  0  0  0  0
   14.7965    2.2006    5.5407 H   0  0  0  0  0  0
   11.1693    1.5986    5.5832 H   0  0  0  0  0  0
   10.0714    0.1104    3.9874 H   0  0  0  0  0  0
   10.5748   -1.5360    1.7901 H   0  0  0  0  0  0
   14.1080   -0.1168    0.7476 H   0  0  0  0  0  0
   14.5480   -1.4355    1.8696 H   0  0  0  0  0  0
   14.9092    1.1364    3.4895 H   0  0  0  0  0  0
    9.8681    4.1945    4.5819 H   0  0  0  0  0  0
    8.0959    2.5517    4.0698 H   0  0  0  0  0  0
    6.5653    1.7780    5.8267 H   0  0  0  0  0  0
    6.6624    1.6641    8.8541 H   0  0  0  0  0  0
    5.5380    2.9513    8.4053 H   0  0  0  0  0  0
    7.4977    3.0016   10.5313 H   0  0  0  0  0  0
    6.4060    4.3017   10.0513 H   0  0  0  0  0  0
  1  2  1  0  0  0
  2  3  1  0  0  0
  2  4  1  0  0  0
  2  5  1  0  0  0
  5  6  2  0  0  0
  5 21  1  0  0  0
  6  7  1  0  0  0
  6 33  1  0  0  0
  7  8  2  0  0  0
  8  9  1  0  0  0
  8 20  1  0  0  0
  9 10  1  0  0  0
  9 34  1  0  0  0
 10 11  2  0  0  0
 10 19  1  0  0  0
 11 12  1  0  0  0
 11 35  1  0  0  0
 12 13  2  0  0  0
 12 36  1  0  0  0
 13 14  1  0  0  0
 13 18  1  0  0  0
 14 15  1  0  0  0
 14 37  1  0  0  0
 15 16  2  0  0  0
 15 17  1  0  0  0
 17 18  1  0  0  0
 17 38  1  0  0  0
 17 39  1  0  0  0
 18 19  2  0  0  0
 19 40  1  0  0  0
 20 21  2  0  0  0
 21 22  1  0  0  0
 22 23  1  0  0  0
 23 24  2  0  0  0
 23 32  1  0  0  0
 24 25  1  0  0  0
 24 41  1  0  0  0
 25 26  2  0  0  0
 25 42  1  0  0  0
 26 27  1  0  0  0
 26 43  1  0  0  0
 27 28  1  0  0  0
 27 32  2  0  0  0
 28 29  1  0  0  0
 28 44  1  0  0  0
 28 45  1  0  0  0
 29 30  1  0  0  0
 29 46  1  0  0  0
 29 47  1  0  0  0
 30 31  2  0  0  0
 30 32  1  0  0  0
M  END
> <s_m_entry_id>
47480

> <s_m_entry_name>
dock_pv.13

> <s_m_Source_Path>
/home/csk/Desktop/cluster/DUD-E-result/fak1

> <s_m_Source_File>
dock_pv.maegz

> <i_m_Source_File_Index>
13

> <chembl_id>
CHEMBL3657271

> <chembl_pref_name>
None

> <i_lp_mmshare_version>
53161

> <i_f3d_flags>
0

> <r_lp_tautomer_probability>
0.999949917916752

> <s_lp_Force_Field>
OPLS_2005

> <r_lp_Energy>
43.612911

> <b_lp_Chiralities_Consistent>
1

> <s_lp_Variant>
CHEMBL2695_lig971-1

> <s_i_glide_gridfile>
glide-grid_3bz3

> <i_i_glide_lignum>
1048

> <i_i_glide_rotatable_bonds>
5

> <r_i_docking_score>
-10.498401410085

> <r_i_glide_ligand_efficiency>
-0.328075044065155

> <r_i_glide_ligand_efficiency_sa>
-1.04157333894381

> <r_i_glide_ligand_efficiency_ln>
-2.35087825133213

> <r_i_glide_gscore>
-10.498401410085

> <r_i_glide_lipo>
-3.02364179689238

> <r_i_glide_hbond>
-0.695967526767659

> <r_i_glide_metal>
0

> <r_i_glide_rewards>
-3.06197976077911

> <r_i_glide_evdw>
-46.4215278625488

> <r_i_glide_ecoul>
-11.914381980896

> <r_i_glide_erotb>
0.411821192476525

> <r_i_glide_esite>
-0.0203998278604825

> <r_i_glide_emodel>
-92.7816213415123

> <r_i_glide_energy>
-58.3359098434448

> <r_i_glide_einternal>
5.59659004211426

> <i_i_glide_confnum>
4

> <i_i_glide_posenum>
339

> <r_i_glide_eff_state_penalty>
0

> <s_user_duplicate_titles>
CHEMBL2695_lig971

> <s_m_subgroup_title>
dock_pv

> <s_m_subgroupid>
dock_pv

> <b_m_subgroup_collapsed>
1

$$$$
CHEMBL2695_lig987
                    3D
 Schrodinger Suite 2021-1.
 71 75  0  0  1  0            999 V2000
   15.1699   -0.1862    1.9628 C   0  0  0  0  0  0
   14.5356    0.6171    2.9483 O   0  0  0  0  0  0
   13.1742    0.4773    3.1404 C   0  0  0  0  0  0
   12.3625   -0.3478    2.3341 C   0  0  0  0  0  0
   10.9799   -0.4370    2.5336 C   0  0  0  0  0  0
   10.1751   -1.3393    1.6285 C   0  0  0  0  0  0
   10.6059   -2.4576    1.3385 O   0  0  0  0  0  0
    9.0265   -0.8400    1.1351 N   0  0  0  0  0  0
    8.0527   -1.6422    0.3696 C   0  0  1  0  0  0
    7.0847   -2.4540    1.2573 C   0  0  0  0  0  0
    6.0574   -1.5683    1.9892 C   0  0  0  0  0  0
    5.2952   -0.7178    1.0650 N   0  0  1  0  0  0
    4.3910    0.1473    1.8188 C   0  0  0  0  0  0
    6.1639    0.0821    0.1920 C   0  0  0  0  0  0
    7.1688   -0.7996   -0.5723 C   0  0  1  0  0  0
    7.9217   -0.0374   -1.3616 F   0  0  0  0  0  0
   10.4125    0.3041    3.5858 C   0  0  0  0  0  0
    8.7220    0.3629    3.9090 Cl  0  0  0  0  0  0
   11.2145    1.0547    4.4325 C   0  0  0  0  0  0
   12.5934    1.1630    4.2337 C   0  0  0  0  0  0
   13.3904    1.9470    5.1089 N   0  0  0  0  0  0
   13.0965    3.0717    5.9087 C   0  0  0  0  0  0
   14.1445    3.6112    6.5844 N   0  0  0  0  0  0
   13.9079    4.7585    7.2788 C   0  0  0  0  0  0
   12.6595    5.3755    7.3123 C   0  0  0  0  0  0
   12.4064    6.8259    8.2207 Cl  0  0  0  0  0  0
   11.6259    4.7505    6.6096 C   0  0  0  0  0  0
   10.3433    5.2628    6.6930 O   0  0  0  0  0  0
    9.2296    4.4624    6.5578 C   0  0  0  0  0  0
    8.8488    3.9399    5.3182 C   0  0  0  0  0  0
    7.7022    3.1549    5.2218 C   0  0  0  0  0  0
    6.9402    2.8715    6.3535 C   0  0  0  0  0  0
    7.2871    3.4301    7.5870 C   0  0  0  0  0  0
    6.6214    3.2529    8.9326 C   0  0  2  0  0  0
    5.0898    3.4087    8.9066 C   0  0  0  0  0  0
    7.3020    4.3057    9.8209 C   0  0  1  0  0  0
    7.6148    3.8763   11.2641 C   0  0  0  0  0  0
    8.5584    4.7584    9.0606 C   0  0  0  0  0  0
    9.4903    5.4315    9.5089 O   0  0  0  0  0  0
    8.4178    4.2417    7.6807 C   0  0  0  0  0  0
   11.8411    3.5972    5.9091 N   0  0  0  0  0  0
   16.2268    0.0690    1.9093 H   0  0  0  0  0  0
   15.1022   -1.2429    2.2207 H   0  0  0  0  0  0
   14.7247   -0.0415    0.9794 H   0  0  0  0  0  0
   12.7941   -0.9190    1.5281 H   0  0  0  0  0  0
    8.6994    0.0444    1.5082 H   0  0  0  0  0  0
    8.6151   -2.3332   -0.2618 H   0  0  0  0  0  0
    7.6542   -3.0159    1.9991 H   0  0  0  0  0  0
    6.5622   -3.2181    0.6783 H   0  0  0  0  0  0
    5.3674   -2.1897    2.5616 H   0  0  0  0  0  0
    6.5686   -0.9297    2.7090 H   0  0  0  0  0  0
    3.7841    0.7580    1.1487 H   0  0  0  0  0  0
    3.7114   -0.4467    2.4286 H   0  0  0  0  0  0
    4.9384    0.8155    2.4841 H   0  0  0  0  0  0
    5.5576    0.6558   -0.5105 H   0  0  0  0  0  0
    6.7035    0.8064    0.7968 H   0  0  0  0  0  0
    6.6061   -1.4721   -1.2160 H   0  0  0  0  0  0
   10.7324    1.5464    5.2605 H   0  0  0  0  0  0
   14.3762    1.7156    5.0708 H   0  0  0  0  0  0
   14.7222    5.1628    7.8539 H   0  0  0  0  0  0
    9.4420    4.1414    4.4399 H   0  0  0  0  0  0
    7.4161    2.7380    4.2701 H   0  0  0  0  0  0
    6.0810    2.2243    6.2599 H   0  0  0  0  0  0
    6.8491    2.2508    9.3067 H   0  0  0  0  0  0
    4.6269    2.6337    8.2977 H   0  0  0  0  0  0
    4.6699    3.3273    9.9087 H   0  0  0  0  0  0
    4.7913    4.3767    8.4993 H   0  0  0  0  0  0
    6.6394    5.1631    9.8928 H   0  0  0  0  0  0
    8.0196    4.7087   11.8426 H   0  0  0  0  0  0
    6.7044    3.5657   11.7759 H   0  0  0  0  0  0
    8.3218    3.0462   11.3000 H   0  0  0  0  0  0
  1  2  1  0  0  0
  1 42  1  0  0  0
  1 43  1  0  0  0
  1 44  1  0  0  0
  2  3  1  0  0  0
  3  4  2  0  0  0
  3 20  1  0  0  0
  4  5  1  0  0  0
  4 45  1  0  0  0
  5  6  1  0  0  0
  5 17  2  0  0  0
  6  7  2  0  0  0
  6  8  1  0  0  0
  8  9  1  0  0  0
  8 46  1  0  0  0
  9 10  1  0  0  0
  9 15  1  0  0  0
  9 47  1  0  0  0
 10 11  1  0  0  0
 10 48  1  0  0  0
 10 49  1  0  0  0
 11 12  1  0  0  0
 11 50  1  0  0  0
 11 51  1  0  0  0
 12 13  1  0  0  0
 12 14  1  0  0  0
 13 52  1  0  0  0
 13 53  1  0  0  0
 13 54  1  0  0  0
 14 15  1  0  0  0
 14 55  1  0  0  0
 14 56  1  0  0  0
 15 16  1  0  0  0
 15 57  1  0  0  0
 17 18  1  0  0  0
 17 19  1  0  0  0
 19 20  2  0  0  0
 19 58  1  0  0  0
 20 21  1  0  0  0
 21 22  1  0  0  0
 21 59  1  0  0  0
 22 23  2  0  0  0
 22 41  1  0  0  0
 23 24  1  0  0  0
 24 25  2  0  0  0
 24 60  1  0  0  0
 25 26  1  0  0  0
 25 27  1  0  0  0
 27 28  1  0  0  0
 27 41  2  0  0  0
 28 29  1  0  0  0
 29 30  2  0  0  0
 29 40  1  0  0  0
 30 31  1  0  0  0
 30 61  1  0  0  0
 31 32  2  0  0  0
 31 62  1  0  0  0
 32 33  1  0  0  0
 32 63  1  0  0  0
 33 34  1  0  0  0
 33 40  2  0  0  0
 34 35  1  0  0  0
 34 36  1  0  0  0
 34 64  1  0  0  0
 35 65  1  0  0  0
 35 66  1  0  0  0
 35 67  1  0  0  0
 36 37  1  0  0  0
 36 38  1  0  0  0
 36 68  1  0  0  0
 37 69  1  0  0  0
 37 70  1  0  0  0
 37 71  1  0  0  0
 38 39  2  0  0  0
 38 40  1  0  0  0
M  END
> <s_m_entry_id>
47481

> <s_m_entry_name>
dock_pv.14

> <s_m_Source_Path>
/home/csk/Desktop/cluster/DUD-E-result/fak1

> <s_m_Source_File>
dock_pv.maegz

> <i_m_Source_File_Index>
14

> <chembl_id>
CHEMBL3657246

> <chembl_pref_name>
None

> <i_lp_mmshare_version>
53161

> <i_f3d_flags>
0

> <r_lp_tautomer_probability>
0.999949917916752

> <s_lp_Force_Field>
OPLS_2005

> <r_lp_Energy>
59.274706

> <b_lp_Chiralities_Consistent>
1

> <s_lp_Variant>
CHEMBL2695_lig987-3

> <s_i_glide_gridfile>
glide-grid_3bz3

> <i_i_glide_lignum>
1067

> <i_i_glide_rotatable_bonds>
8

> <r_i_docking_score>
-10.4966157015374

> <r_i_glide_ligand_efficiency>
-0.256015017110668

> <r_i_glide_ligand_efficiency_sa>
-0.882795394705109

> <r_i_glide_ligand_efficiency_ln>
-2.22689195221672

> <r_i_glide_gscore>
-10.4966157015374

> <r_i_glide_lipo>
-3.41599021931217

> <r_i_glide_hbond>
-0.974124209680339

> <r_i_glide_metal>
0

> <r_i_glide_rewards>
-2.20818915967433

> <r_i_glide_evdw>
-49.848014831543

> <r_i_glide_ecoul>
-10.8086643218994

> <r_i_glide_erotb>
0.286562429098385

> <r_i_glide_esite>
-0.07117415210686

> <r_i_glide_emodel>
-82.1810026268254

> <r_i_glide_energy>
-60.6566791534424

> <r_i_glide_einternal>
6.5844259262085

> <i_i_glide_confnum>
4

> <i_i_glide_posenum>
173

> <r_i_glide_eff_state_penalty>
0

> <s_user_duplicate_titles>
CHEMBL2695_lig987

> <s_m_subgroup_title>
dock_pv

> <s_m_subgroupid>
dock_pv

> <b_m_subgroup_collapsed>
1

$$$$
CHEMBL2695_lig1002
                    3D
 Schrodinger Suite 2021-1.
 45 48  0  0  1  0            999 V2000
    9.3061   -1.2370    1.4363 O   0  0  0  0  0  0
   10.6658   -1.2468    1.3356 C   0  0  0  0  0  0
   11.2641   -1.8341    0.4333 O   0  0  0  0  0  0
   11.3954   -0.4370    2.3816 C   0  0  0  0  0  0
   12.7629   -0.1766    2.2143 C   0  0  0  0  0  0
   13.4480    0.6260    3.1199 C   0  0  0  0  0  0
   12.7822    1.1630    4.2238 C   0  0  0  0  0  0
   13.5220    1.9630    5.1090 N   0  0  0  0  0  0
   13.1581    3.0523    5.9090 C   0  0  0  0  0  0
   14.1832    3.6303    6.5759 N   0  0  0  0  0  0
   13.8998    4.7630    7.2613 C   0  0  0  0  0  0
   12.6203    5.3272    7.3080 C   0  0  0  0  0  0
   11.6028    4.6271    6.6426 C   0  0  0  0  0  0
   10.2841    5.0351    6.7893 O   0  0  0  0  0  0
    9.2161    4.1887    6.5539 C   0  0  0  0  0  0
    8.9665    3.6395    5.2899 C   0  0  0  0  0  0
    7.9122    2.7447    5.1090 C   0  0  0  0  0  0
    7.0837    2.4099    6.1781 C   0  0  0  0  0  0
    7.2924    2.9895    7.4296 C   0  0  0  0  0  0
    6.5177    2.7743    8.7028 C   0  0  0  0  0  0
    7.1836    3.6840    9.7349 C   0  0  0  0  0  0
    8.3467    4.3630    9.0198 C   0  0  0  0  0  0
    9.1220    5.1630    9.5381 O   0  0  0  0  0  0
    8.3485    3.8825    7.6164 C   0  0  0  0  0  0
   11.8741    3.4953    5.9259 N   0  0  0  0  0  0
   12.3516    6.6155    8.0781 C   0  0  0  0  0  0
   11.5776    6.3630    9.1284 F   0  0  0  0  0  0
   13.4806    7.1630    8.5279 F   0  0  0  0  0  0
   11.7432    7.5039    7.2919 F   0  0  0  0  0  0
   11.4259    0.8768    4.4186 C   0  0  0  0  0  0
   10.7362    0.0808    3.5090 C   0  0  0  0  0  0
    8.9880   -0.6175    2.0949 H   0  0  0  0  0  0
   13.3036   -0.5707    1.3650 H   0  0  0  0  0  0
   14.4987    0.8243    2.9660 H   0  0  0  0  0  0
   14.5069    1.7397    5.1485 H   0  0  0  0  0  0
   14.7220    5.2013    7.8007 H   0  0  0  0  0  0
    9.6088    3.8828    4.4563 H   0  0  0  0  0  0
    7.7380    2.2992    4.1410 H   0  0  0  0  0  0
    6.2826    1.7009    6.0204 H   0  0  0  0  0  0
    5.4658    3.0437    8.5967 H   0  0  0  0  0  0
    6.5682    1.7378    9.0407 H   0  0  0  0  0  0
    6.4945    4.4437   10.1051 H   0  0  0  0  0  0
    7.5535    3.1234   10.5931 H   0  0  0  0  0  0
   10.8960    1.2573    5.2787 H   0  0  0  0  0  0
    9.6868   -0.0984    3.6949 H   0  0  0  0  0  0
  1  2  1  0  0  0
  1 32  1  0  0  0
  2  3  2  0  0  0
  2  4  1  0  0  0
  4  5  2  0  0  0
  4 31  1  0  0  0
  5  6  1  0  0  0
  5 33  1  0  0  0
  6  7  2  0  0  0
  6 34  1  0  0  0
  7  8  1  0  0  0
  7 30  1  0  0  0
  8  9  1  0  0  0
  8 35  1  0  0  0
  9 10  2  0  0  0
  9 25  1  0  0  0
 10 11  1  0  0  0
 11 12  2  0  0  0
 11 36  1  0  0  0
 12 13  1  0  0  0
 12 26  1  0  0  0
 13 14  1  0  0  0
 13 25  2  0  0  0
 14 15  1  0  0  0
 15 16  2  0  0  0
 15 24  1  0  0  0
 16 17  1  0  0  0
 16 37  1  0  0  0
 17 18  2  0  0  0
 17 38  1  0  0  0
 18 19  1  0  0  0
 18 39  1  0  0  0
 19 20  1  0  0  0
 19 24  2  0  0  0
 20 21  1  0  0  0
 20 40  1  0  0  0
 20 41  1  0  0  0
 21 22  1  0  0  0
 21 42  1  0  0  0
 21 43  1  0  0  0
 22 23  2  0  0  0
 22 24  1  0  0  0
 26 27  1  0  0  0
 26 28  1  0  0  0
 26 29  1  0  0  0
 30 31  2  0  0  0
 30 44  1  0  0  0
 31 45  1  0  0  0
M  END
> <s_m_entry_id>
47482

> <s_m_entry_name>
dock_pv.15

> <s_m_Source_Path>
/home/csk/Desktop/cluster/DUD-E-result/fak1

> <s_m_Source_File>
dock_pv.maegz

> <i_m_Source_File_Index>
15

> <chembl_id>
CHEMBL3657301

> <chembl_pref_name>
None

> <i_lp_mmshare_version>
53161

> <i_f3d_flags>
0

> <r_lp_tautomer_probability>
0.999949917916752

> <s_lp_Force_Field>
OPLS_2005

> <r_lp_Energy>
30.040915

> <b_lp_Chiralities_Consistent>
1

> <s_lp_Variant>
CHEMBL2695_lig1002-1

> <s_i_glide_gridfile>
glide-grid_3bz3

> <i_i_glide_lignum>
1084

> <i_i_glide_rotatable_bonds>
7

> <r_i_docking_score>
-10.3937116839304

> <r_i_glide_ligand_efficiency>
-0.335281022062271

> <r_i_glide_ligand_efficiency_sa>
-1.05324531461482

> <r_i_glide_ligand_efficiency_ln>
-2.34410051373553

> <r_i_glide_gscore>
-10.3937116839304

> <r_i_glide_lipo>
-2.94112197629893

> <r_i_glide_hbond>
-0.622637650584454

> <r_i_glide_metal>
0

> <r_i_glide_rewards>
-3.1900462719697

> <r_i_glide_evdw>
-47.9835357666016

> <r_i_glide_ecoul>
-11.7169704437256

> <r_i_glide_erotb>
0.538994035328157

> <r_i_glide_esite>
-0.0221774655165688

> <r_i_glide_emodel>
-94.1677388291225

> <r_i_glide_energy>
-59.7005062103271

> <r_i_glide_einternal>
5.34856081008911

> <i_i_glide_confnum>
17

> <i_i_glide_posenum>
147

> <r_i_glide_eff_state_penalty>
0

> <s_user_duplicate_titles>
CHEMBL2695_lig1002

> <s_m_subgroup_title>
dock_pv

> <s_m_subgroupid>
dock_pv

> <b_m_subgroup_collapsed>
1

$$$$
CHEMBL2695_lig970
                    3D
 Schrodinger Suite 2021-1.
 47 51  0  0  1  0            999 V2000
   14.6880    0.7630    2.9035 F   0  0  0  0  0  0
   13.3693    0.5820    3.1552 C   0  0  0  0  0  0
   12.6231   -0.2459    2.3173 C   0  0  0  0  0  0
   13.0027   -1.0357    1.1090 C   0  0  0  0  0  0
   11.6859   -1.7003    0.7090 C   0  0  0  0  0  0
   11.5220   -2.4386   -0.2575 O   0  0  0  0  0  0
   10.7655   -1.3109    1.6066 N   0  0  0  0  0  0
   11.2835   -0.4637    2.5693 C   0  0  0  0  0  0
   10.6442    0.1265    3.6526 C   0  0  0  0  0  0
   11.3858    0.9363    4.5117 C   0  0  0  0  0  0
   12.7559    1.1630    4.2837 C   0  0  0  0  0  0
   13.5220    1.9656    5.1492 N   0  0  0  0  0  0
   13.1841    3.0970    5.9090 C   0  0  0  0  0  0
   14.2031    3.6421    6.6156 N   0  0  0  0  0  0
   13.9220    4.7630    7.3246 C   0  0  0  0  0  0
   12.6578    5.3584    7.3493 C   0  0  0  0  0  0
   11.6463    4.6992    6.6398 C   0  0  0  0  0  0
   10.3354    5.1361    6.7648 O   0  0  0  0  0  0
    9.2593    4.3234    6.4693 C   0  0  0  0  0  0
    9.0227    3.8598    5.1700 C   0  0  0  0  0  0
    7.9584    2.9963    4.9172 C   0  0  0  0  0  0
    7.1105    2.6056    5.9523 C   0  0  0  0  0  0
    7.3114    3.0981    7.2425 C   0  0  0  0  0  0
    6.5103    2.8208    8.4869 C   0  0  0  0  0  0
    7.1870    3.6369    9.5887 C   0  0  0  0  0  0
    8.3562    4.3630    8.9312 C   0  0  0  0  0  0
    9.1220    5.1322    9.5090 O   0  0  0  0  0  0
    8.3759    3.9630    7.5008 C   0  0  0  0  0  0
   11.9103    3.5739    5.9090 N   0  0  0  0  0  0
   12.3938    6.6333    8.1444 C   0  0  0  0  0  0
   13.5210    7.1630    8.6201 F   0  0  0  0  0  0
   11.8035    7.5452    7.3712 F   0  0  0  0  0  0
   11.6025    6.3630    9.1777 F   0  0  0  0  0  0
   13.3655   -0.3969    0.3044 H   0  0  0  0  0  0
   13.7512   -1.7948    1.3376 H   0  0  0  0  0  0
    9.7993   -1.6000    1.5628 H   0  0  0  0  0  0
    9.5920   -0.0341    3.8410 H   0  0  0  0  0  0
   10.8848    1.3615    5.3680 H   0  0  0  0  0  0
   14.4985    1.7054    5.2053 H   0  0  0  0  0  0
   14.7220    5.1631    7.9195 H   0  0  0  0  0  0
    9.6825    4.1461    4.3643 H   0  0  0  0  0  0
    7.7955    2.6199    3.9181 H   0  0  0  0  0  0
    6.3009    1.9211    5.7398 H   0  0  0  0  0  0
    6.5199    1.7622    8.7533 H   0  0  0  0  0  0
    5.4700    3.1332    8.3841 H   0  0  0  0  0  0
    7.5599    2.9990   10.3897 H   0  0  0  0  0  0
    6.5050    4.3638   10.0310 H   0  0  0  0  0  0
  1  2  1  0  0  0
  2  3  2  0  0  0
  2 11  1  0  0  0
  3  4  1  0  0  0
  3  8  1  0  0  0
  4  5  1  0  0  0
  4 34  1  0  0  0
  4 35  1  0  0  0
  5  6  2  0  0  0
  5  7  1  0  0  0
  7  8  1  0  0  0
  7 36  1  0  0  0
  8  9  2  0  0  0
  9 10  1  0  0  0
  9 37  1  0  0  0
 10 11  2  0  0  0
 10 38  1  0  0  0
 11 12  1  0  0  0
 12 13  1  0  0  0
 12 39  1  0  0  0
 13 14  2  0  0  0
 13 29  1  0  0  0
 14 15  1  0  0  0
 15 16  2  0  0  0
 15 40  1  0  0  0
 16 17  1  0  0  0
 16 30  1  0  0  0
 17 18  1  0  0  0
 17 29  2  0  0  0
 18 19  1  0  0  0
 19 20  2  0  0  0
 19 28  1  0  0  0
 20 21  1  0  0  0
 20 41  1  0  0  0
 21 22  2  0  0  0
 21 42  1  0  0  0
 22 23  1  0  0  0
 22 43  1  0  0  0
 23 24  1  0  0  0
 23 28  2  0  0  0
 24 25  1  0  0  0
 24 44  1  0  0  0
 24 45  1  0  0  0
 25 26  1  0  0  0
 25 46  1  0  0  0
 25 47  1  0  0  0
 26 27  2  0  0  0
 26 28  1  0  0  0
 30 31  1  0  0  0
 30 32  1  0  0  0
 30 33  1  0  0  0
M  END
> <s_m_entry_id>
47483

> <s_m_entry_name>
dock_pv.16

> <s_m_Source_Path>
/home/csk/Desktop/cluster/DUD-E-result/fak1

> <s_m_Source_File>
dock_pv.maegz

> <i_m_Source_File_Index>
16

> <chembl_id>
CHEMBL3657270

> <chembl_pref_name>
None

> <i_lp_mmshare_version>
53161

> <i_f3d_flags>
0

> <r_lp_tautomer_probability>
0.999949917916752

> <s_lp_Force_Field>
OPLS_2005

> <r_lp_Energy>
42.621286

> <b_lp_Chiralities_Consistent>
1

> <s_lp_Variant>
CHEMBL2695_lig970-1

> <s_i_glide_gridfile>
glide-grid_3bz3

> <i_i_glide_lignum>
1047

> <i_i_glide_rotatable_bonds>
5

> <r_i_docking_score>
-10.362362785649

> <r_i_glide_ligand_efficiency>
-0.314010993504515

> <r_i_glide_ligand_efficiency_sa>
-1.00720104048793

> <r_i_glide_ligand_efficiency_ln>
-2.3045358300853

> <r_i_glide_gscore>
-10.362362785649

> <r_i_glide_lipo>
-2.8773455755899

> <r_i_glide_hbond>
-0.742558687138556

> <r_i_glide_metal>
0

> <r_i_glide_rewards>
-2.98387382727273

> <r_i_glide_evdw>
-49.2263031005859

> <r_i_glide_ecoul>
-10.8619718551636

> <r_i_glide_erotb>
0.382909501592635

> <r_i_glide_esite>
-0.0508832639366157

> <r_i_glide_emodel>
-95.6535163445151

> <r_i_glide_energy>
-60.0882749557495

> <r_i_glide_einternal>
3.54892301559448

> <i_i_glide_confnum>
5

> <i_i_glide_posenum>
96

> <r_i_glide_eff_state_penalty>
0

> <s_user_duplicate_titles>
CHEMBL2695_lig970

> <s_m_subgroup_title>
dock_pv

> <s_m_subgroupid>
dock_pv

> <b_m_subgroup_collapsed>
1

$$$$
CHEMBL2695_lig39
                    3D
 Schrodinger Suite 2021-1.
 56 58  0  0  1  0            999 V2000
    6.6141    3.8907    9.8728 C   0  0  0  0  0  0
    7.9191    4.3630    9.9793 C   0  0  0  0  0  0
    8.7220    4.4628    8.8898 N   0  0  0  0  0  0
    6.1037    3.5117    8.6759 N   0  0  0  0  0  0
    6.8954    3.6009    7.5707 C   0  0  0  0  0  0
    8.2181    4.0934    7.6736 C   0  0  0  0  0  0
   10.2932    5.1429    6.6671 N   0  0  0  0  0  0
    9.1253    4.2811    6.4418 C   0  0  0  0  0  0
    6.2846    3.1921    6.3699 N   0  0  0  0  0  0
   13.5220    1.9630    5.1341 N   0  0  0  0  0  0
   12.7948    1.1630    4.2398 C   0  0  0  0  0  0
   13.4700    0.6458    3.1326 C   0  0  0  0  0  0
   12.7957   -0.1536    2.2158 C   0  0  0  0  0  0
   11.4320   -0.4370    2.3790 C   0  0  0  0  0  0
   11.3451   -1.8539    0.4528 O   0  0  0  0  0  0
   10.7111   -1.2488    1.3223 C   0  0  0  0  0  0
   10.7653    0.0693    3.5090 C   0  0  0  0  0  0
   11.4410    0.8668    4.4276 C   0  0  0  0  0  0
   12.6241    5.3373    7.3391 C   0  0  0  0  0  0
   11.6134    4.6612    6.6305 C   0  0  0  0  0  0
   11.4679    6.3560    9.1090 F   0  0  0  0  0  0
   13.4701    7.0658    8.7402 F   0  0  0  0  0  0
   11.8886    7.5664    7.3606 F   0  0  0  0  0  0
   12.3639    6.6065    8.1542 C   0  0  0  0  0  0
   13.8998    4.7630    7.2983 C   0  0  0  0  0  0
   14.1807    3.6375    6.5977 N   0  0  0  0  0  0
   11.8821    3.5354    5.9090 N   0  0  0  0  0  0
   13.1604    3.0736    5.9090 C   0  0  0  0  0  0
    6.9831    2.2144    5.5390 C   0  0  0  0  0  0
    3.8028    4.6167    6.7471 C   0  0  0  0  0  0
    5.1843    4.3035    5.5090 S   0  0  0  0  0  0
    5.9220    5.5519    5.2903 O   0  0  0  0  0  0
    4.6174    3.5630    4.3762 O   0  0  0  0  0  0
    9.3674   -1.2370    1.3707 N   0  0  0  0  0  0
    8.4853   -1.9683    0.4692 C   0  0  0  0  0  0
    5.9626    3.8116   10.7324 H   0  0  0  0  0  0
    8.3220    4.6766   10.9303 H   0  0  0  0  0  0
   10.1291    5.9866    7.1960 H   0  0  0  0  0  0
    8.5328    4.7421    5.6502 H   0  0  0  0  0  0
    9.4196    3.2981    6.0751 H   0  0  0  0  0  0
   14.5013    1.7218    5.2045 H   0  0  0  0  0  0
   14.5185    0.8585    2.9830 H   0  0  0  0  0  0
   13.3410   -0.5322    1.3628 H   0  0  0  0  0  0
    9.7156   -0.1223    3.6811 H   0  0  0  0  0  0
   10.9063    1.2425    5.2867 H   0  0  0  0  0  0
   14.7220    5.1765    7.8589 H   0  0  0  0  0  0
    7.5629    1.5147    6.1427 H   0  0  0  0  0  0
    6.2620    1.6223    4.9736 H   0  0  0  0  0  0
    7.6437    2.6942    4.8175 H   0  0  0  0  0  0
    3.0299    5.2052    6.2556 H   0  0  0  0  0  0
    3.3984    3.6583    7.0675 H   0  0  0  0  0  0
    4.2024    5.1672    7.5976 H   0  0  0  0  0  0
    8.9146   -0.6259    2.0352 H   0  0  0  0  0  0
    7.6817   -2.4335    1.0409 H   0  0  0  0  0  0
    9.0024   -2.7551   -0.0820 H   0  0  0  0  0  0
    8.0361   -1.2832   -0.2501 H   0  0  0  0  0  0
  1  2  2  0  0  0
  1  4  1  0  0  0
  1 36  1  0  0  0
  2  3  1  0  0  0
  2 37  1  0  0  0
  3  6  2  0  0  0
  4  5  2  0  0  0
  5  9  1  0  0  0
  5  6  1  0  0  0
  6  8  1  0  0  0
  7  8  1  0  0  0
  7 20  1  0  0  0
  7 38  1  0  0  0
  8 39  1  0  0  0
  8 40  1  0  0  0
  9 29  1  0  0  0
  9 31  1  0  0  0
 10 11  1  0  0  0
 10 28  1  0  0  0
 10 41  1  0  0  0
 11 18  2  0  0  0
 11 12  1  0  0  0
 12 13  2  0  0  0
 12 42  1  0  0  0
 13 14  1  0  0  0
 13 43  1  0  0  0
 14 16  1  0  0  0
 14 17  2  0  0  0
 15 16  2  0  0  0
 16 34  1  0  0  0
 17 18  1  0  0  0
 17 44  1  0  0  0
 18 45  1  0  0  0
 19 20  1  0  0  0
 19 25  2  0  0  0
 19 24  1  0  0  0
 20 27  2  0  0  0
 21 24  1  0  0  0
 22 24  1  0  0  0
 23 24  1  0  0  0
 25 26  1  0  0  0
 25 46  1  0  0  0
 26 28  2  0  0  0
 27 28  1  0  0  0
 29 47  1  0  0  0
 29 48  1  0  0  0
 29 49  1  0  0  0
 30 31  1  0  0  0
 30 50  1  0  0  0
 30 51  1  0  0  0
 30 52  1  0  0  0
 31 32  2  0  0  0
 31 33  2  0  0  0
 34 35  1  0  0  0
 34 53  1  0  0  0
 35 54  1  0  0  0
 35 55  1  0  0  0
 35 56  1  0  0  0
M  END
> <s_m_entry_id>
47484

> <s_m_entry_name>
dock_pv.17

> <s_m_Source_Path>
/home/csk/Desktop/cluster/DUD-E-result/fak1

> <s_m_Source_File>
dock_pv.maegz

> <i_m_Source_File_Index>
17

> <chembl_id>
CHEMBL3137331

> <chembl_pref_name>
DEFACTINIB

> <i_lp_mmshare_version>
53161

> <i_f3d_flags>
0

> <r_lp_tautomer_probability>
0.999999624730965

> <s_lp_Force_Field>
OPLS_2005

> <r_lp_Energy>
17.341716

> <b_lp_Chiralities_Consistent>
1

> <s_lp_Variant>
CHEMBL2695_lig39-1

> <s_i_glide_gridfile>
glide-grid_3bz3

> <i_i_glide_lignum>
58

> <i_i_glide_rotatable_bonds>
10

> <r_i_docking_score>
-10.2962326157884

> <r_i_glide_ligand_efficiency>
-0.294178074736811

> <r_i_glide_ligand_efficiency_sa>
-0.962275988327315

> <r_i_glide_ligand_efficiency_ln>
-2.26025157173653

> <r_i_glide_gscore>
-10.2962326157884

> <r_i_glide_lipo>
-3.1235066142866

> <r_i_glide_hbond>
-0.55801803037096

> <r_i_glide_metal>
0

> <r_i_glide_rewards>
-2.69995932911174

> <r_i_glide_evdw>
-53.7254638671875

> <r_i_glide_ecoul>
-11.3929767608643

> <r_i_glide_erotb>
0.550291081625791

> <r_i_glide_esite>
-0.0698200161558627

> <r_i_glide_emodel>
-95.7534786445662

> <r_i_glide_energy>
-65.1184406280518

> <r_i_glide_einternal>
18.8005905151367

> <i_i_glide_confnum>
4

> <i_i_glide_posenum>
349

> <r_i_glide_eff_state_penalty>
0

> <s_user_duplicate_titles>
CHEMBL2695_lig39

> <s_m_subgroup_title>
dock_pv

> <s_m_subgroupid>
dock_pv

> <b_m_subgroup_collapsed>
1

$$$$
CHEMBL2695_lig1040
                    3D
 Schrodinger Suite 2021-1.
 56 60  0  0  1  0            999 V2000
    7.0167    3.9648   10.9919 C   0  0  0  0  0  0
    7.3342    3.7686    9.5817 N   0  0  0  0  0  0
    6.6161    2.8272    8.7327 C   0  0  0  0  0  0
    7.3363    2.9761    7.4264 C   0  0  0  0  0  0
    7.1151    2.3669    6.1918 C   0  0  0  0  0  0
    7.9331    2.6921    5.1090 C   0  0  0  0  0  0
    8.9787    3.6065    5.2613 C   0  0  0  0  0  0
    9.2325    4.1858    6.5123 C   0  0  0  0  0  0
   10.2913    5.0485    6.7344 O   0  0  0  0  0  0
   11.6117    4.6383    6.6166 C   0  0  0  0  0  0
   11.8858    3.5036    5.9090 N   0  0  0  0  0  0
   13.1654    3.0538    5.9090 C   0  0  0  0  0  0
   13.5221    1.9623    5.1090 N   0  0  0  0  0  0
   12.7760    1.1630    4.2249 C   0  0  0  0  0  0
   11.4292    0.8494    4.4483 C   0  0  0  0  0  0
   10.7531   -0.0082    3.5838 C   0  0  0  0  0  0
   11.4177   -0.5770    2.4881 C   0  0  0  0  0  0
   10.8318   -1.4629    1.6015 O   0  0  0  0  0  0
    9.6179   -2.1346    1.9631 C   0  0  1  0  0  0
    9.1627   -2.9737    0.7829 C   0  0  0  0  0  0
    8.6922   -4.2761    1.4189 C   0  0  0  0  0  0
    9.5826   -4.4463    2.5121 O   0  0  0  0  0  0
    9.8231   -3.1639    3.0922 C   0  0  0  0  0  0
   12.7501   -0.2368    2.2510 C   0  0  0  0  0  0
   13.4273    0.6278    3.1091 C   0  0  0  0  0  0
   14.1873    3.6261    6.5858 N   0  0  0  0  0  0
   13.9026    4.7631    7.2639 C   0  0  0  0  0  0
   12.6249    5.3331    7.2954 C   0  0  0  0  0  0
   12.3573    6.6194    8.0665 C   0  0  0  0  0  0
   13.4895    7.1629    8.5119 F   0  0  0  0  0  0
   11.7447    7.5103    7.2862 F   0  0  0  0  0  0
   11.5918    6.3631    9.1209 F   0  0  0  0  0  0
    8.3754    3.8800    7.5794 C   0  0  0  0  0  0
    8.3831    4.3776    8.9917 C   0  0  0  0  0  0
    9.1661    5.1632    9.5200 O   0  0  0  0  0  0
    7.4060    4.9105   11.3744 H   0  0  0  0  0  0
    5.9361    3.9643   11.1477 H   0  0  0  0  0  0
    7.4673    3.1631   11.5738 H   0  0  0  0  0  0
    6.6677    1.8167    9.1407 H   0  0  0  0  0  0
    5.5623    3.1008    8.6662 H   0  0  0  0  0  0
    6.3208    1.6456    6.0564 H   0  0  0  0  0  0
    7.7581    2.2235    4.1520 H   0  0  0  0  0  0
    9.6118    3.8390    4.4174 H   0  0  0  0  0  0
   14.4968    1.7041    5.1847 H   0  0  0  0  0  0
   10.9022    1.2418    5.3047 H   0  0  0  0  0  0
    9.7143   -0.2157    3.7846 H   0  0  0  0  0  0
    8.8451   -1.3998    2.1973 H   0  0  0  0  0  0
    8.3579   -2.4955    0.2237 H   0  0  0  0  0  0
    9.9841   -3.1648    0.0912 H   0  0  0  0  0  0
    7.6634   -4.2399    1.7835 H   0  0  0  0  0  0
    8.7477   -5.1262    0.7385 H   0  0  0  0  0  0
   10.8293   -3.1514    3.5079 H   0  0  0  0  0  0
    9.1220   -3.0075    3.9089 H   0  0  0  0  0  0
   13.2667   -0.6622    1.4039 H   0  0  0  0  0  0
   14.4667    0.8560    2.9226 H   0  0  0  0  0  0
   14.7220    5.1928    7.8147 H   0  0  0  0  0  0
  1  2  1  0  0  0
  1 36  1  0  0  0
  1 37  1  0  0  0
  1 38  1  0  0  0
  2  3  1  0  0  0
  2 34  1  0  0  0
  3  4  1  0  0  0
  3 39  1  0  0  0
  3 40  1  0  0  0
  4  5  2  0  0  0
  4 33  1  0  0  0
  5  6  1  0  0  0
  5 41  1  0  0  0
  6  7  2  0  0  0
  6 42  1  0  0  0
  7  8  1  0  0  0
  7 43  1  0  0  0
  8  9  1  0  0  0
  8 33  2  0  0  0
  9 10  1  0  0  0
 10 11  2  0  0  0
 10 28  1  0  0  0
 11 12  1  0  0  0
 12 13  1  0  0  0
 12 26  2  0  0  0
 13 14  1  0  0  0
 13 44  1  0  0  0
 14 15  2  0  0  0
 14 25  1  0  0  0
 15 16  1  0  0  0
 15 45  1  0  0  0
 16 17  2  0  0  0
 16 46  1  0  0  0
 17 18  1  0  0  0
 17 24  1  0  0  0
 18 19  1  0  0  0
 19 20  1  0  0  0
 19 23  1  0  0  0
 19 47  1  0  0  0
 20 21  1  0  0  0
 20 48  1  0  0  0
 20 49  1  0  0  0
 21 22  1  0  0  0
 21 50  1  0  0  0
 21 51  1  0  0  0
 22 23  1  0  0  0
 23 52  1  0  0  0
 23 53  1  0  0  0
 24 25  2  0  0  0
 24 54  1  0  0  0
 25 55  1  0  0  0
 26 27  1  0  0  0
 27 28  2  0  0  0
 27 56  1  0  0  0
 28 29  1  0  0  0
 29 30  1  0  0  0
 29 31  1  0  0  0
 29 32  1  0  0  0
 33 34  1  0  0  0
 34 35  2  0  0  0
M  END
> <s_m_entry_id>
47485

> <s_m_entry_name>
dock_pv.18

> <s_m_Source_Path>
/home/csk/Desktop/cluster/DUD-E-result/fak1

> <s_m_Source_File>
dock_pv.maegz

> <i_m_Source_File_Index>
18

> <chembl_id>
CHEMBL3657338

> <chembl_pref_name>
None

> <i_lp_mmshare_version>
53161

> <i_f3d_flags>
0

> <r_lp_tautomer_probability>
0.999999917912647

> <s_lp_Force_Field>
OPLS_2005

> <r_lp_Energy>
47.02081

> <b_lp_Chiralities_Consistent>
1

> <s_lp_Variant>
CHEMBL2695_lig1040-1

> <s_i_glide_gridfile>
glide-grid_3bz3

> <i_i_glide_lignum>
1124

> <i_i_glide_rotatable_bonds>
7

> <r_i_docking_score>
-10.2369952018702

> <r_i_glide_ligand_efficiency>
-0.292485577196293

> <r_i_glide_ligand_efficiency_sa>
-0.956739716649009

> <r_i_glide_ligand_efficiency_ln>
-2.24724764467793

> <r_i_glide_gscore>
-10.2369952018702

> <r_i_glide_lipo>
-3.01014928648765

> <r_i_glide_hbond>
-0.718858417581283

> <r_i_glide_metal>
0

> <r_i_glide_rewards>
-2.78521852113583

> <r_i_glide_evdw>
-50.0707473754883

> <r_i_glide_ecoul>
-11.5635375976562

> <r_i_glide_erotb>
0.515299031757374

> <r_i_glide_esite>
0

> <r_i_glide_emodel>
-95.7899801989937

> <r_i_glide_energy>
-61.6342849731445

> <r_i_glide_einternal>
7.71580076217651

> <i_i_glide_confnum>
18

> <i_i_glide_posenum>
299

> <r_i_glide_eff_state_penalty>
0

> <s_user_duplicate_titles>
CHEMBL2695_lig1040

> <s_m_subgroup_title>
dock_pv

> <s_m_subgroupid>
dock_pv

> <b_m_subgroup_collapsed>
1

$$$$
CHEMBL2695_lig967
                    3D
 Schrodinger Suite 2021-1.
 64 68  0  0  1  0            999 V2000
   15.1402   -0.1205    2.0218 C   0  0  0  0  0  0
   14.4466    0.6872    2.9631 O   0  0  0  0  0  0
   13.0821    0.5076    3.1248 C   0  0  0  0  0  0
   12.3135   -0.3063    2.2751 C   0  0  0  0  0  0
   10.9297   -0.4373    2.4379 C   0  0  0  0  0  0
   10.3220    0.2199    3.5123 C   0  0  0  0  0  0
   11.0744    0.9953    4.3921 C   0  0  0  0  0  0
   12.4544    1.1630    4.2088 C   0  0  0  0  0  0
   13.2488    1.9046    5.1085 N   0  0  0  0  0  0
   12.9697    3.0156    5.9088 C   0  0  0  0  0  0
   14.0552    3.6080    6.4499 N   0  0  0  0  0  0
   13.8464    4.7695    7.1124 C   0  0  0  0  0  0
   12.5776    5.3482    7.2506 C   0  0  0  0  0  0
   11.5027    4.6498    6.6822 C   0  0  0  0  0  0
   10.2031    5.0978    6.8685 O   0  0  0  0  0  0
    9.1094    4.2890    6.6281 C   0  0  0  0  0  0
    8.8118    3.8025    5.3476 C   0  0  0  0  0  0
    7.7488    2.9201    5.1607 C   0  0  0  0  0  0
    6.9535    2.5419    6.2413 C   0  0  0  0  0  0
    7.2062    3.0647    7.5117 C   0  0  0  0  0  0
    6.4765    2.8010    8.8027 C   0  0  0  0  0  0
    7.1919    3.6569    9.8501 C   0  0  0  0  0  0
    8.3251    4.3673    9.1208 C   0  0  0  0  0  0
    9.1170    5.1570    9.6366 O   0  0  0  0  0  0
    8.2747    3.9423    7.7022 C   0  0  0  0  0  0
   11.7022    3.4863    6.0004 N   0  0  0  0  0  0
   12.3658    6.6345    8.0360 C   0  0  0  0  0  0
   13.5191    7.1630    8.4464 F   0  0  0  0  0  0
   11.7359    7.5385    7.2846 F   0  0  0  0  0  0
   11.6278    6.3642    9.1088 F   0  0  0  0  0  0
   10.1325   -1.2443    1.4376 C   0  0  0  0  0  0
   10.6608   -2.1712    0.8209 O   0  0  0  0  0  0
    8.8673   -0.8395    1.2117 N   0  0  0  0  0  0
    7.9348   -1.4613    0.2672 C   0  0  0  0  0  0
    7.0442   -2.5235    0.9526 C   0  0  0  0  0  0
    5.9792   -1.8841    1.8667 C   0  0  0  0  0  0
    5.1766   -0.9884    1.1033 O   0  0  0  0  0  0
    5.9090    0.1144    0.5771 C   0  0  0  0  0  0
    7.0034   -0.4104   -0.3800 C   0  0  0  0  0  0
   16.1834    0.1928    1.9745 H   0  0  0  0  0  0
   15.1217   -1.1711    2.3114 H   0  0  0  0  0  0
   14.7242   -0.0374    1.0191 H   0  0  0  0  0  0
   12.7728   -0.8204    1.4471 H   0  0  0  0  0  0
    9.2579    0.1351    3.6853 H   0  0  0  0  0  0
   10.5621    1.4447    5.2287 H   0  0  0  0  0  0
   14.2366    1.7020    5.0318 H   0  0  0  0  0  0
   14.7219    5.2171    7.5573 H   0  0  0  0  0  0
    9.4334    4.0750    4.5078 H   0  0  0  0  0  0
    7.5460    2.5161    4.1789 H   0  0  0  0  0  0
    6.1460    1.8409    6.0789 H   0  0  0  0  0  0
    5.4254    3.0893    8.7486 H   0  0  0  0  0  0
    6.5242    1.7514    9.0993 H   0  0  0  0  0  0
    6.5227    4.3948   10.2936 H   0  0  0  0  0  0
    7.6025    3.0498   10.6562 H   0  0  0  0  0  0
    8.4837   -0.1127    1.8031 H   0  0  0  0  0  0
    8.5070   -1.9383   -0.5339 H   0  0  0  0  0  0
    7.6566   -3.2177    1.5292 H   0  0  0  0  0  0
    6.5474   -3.1281    0.1927 H   0  0  0  0  0  0
    6.4528   -1.3470    2.6863 H   0  0  0  0  0  0
    5.3429   -2.6524    2.3095 H   0  0  0  0  0  0
    6.3221    0.7170    1.3875 H   0  0  0  0  0  0
    5.2192    0.7623    0.0328 H   0  0  0  0  0  0
    6.5082   -0.8653   -1.2374 H   0  0  0  0  0  0
    7.5844    0.4189   -0.7827 H   0  0  0  0  0  0
  1  2  1  0  0  0
  1 40  1  0  0  0
  1 41  1  0  0  0
  1 42  1  0  0  0
  2  3  1  0  0  0
  3  4  2  0  0  0
  3  8  1  0  0  0
  4  5  1  0  0  0
  4 43  1  0  0  0
  5  6  2  0  0  0
  5 31  1  0  0  0
  6  7  1  0  0  0
  6 44  1  0  0  0
  7  8  2  0  0  0
  7 45  1  0  0  0
  8  9  1  0  0  0
  9 10  1  0  0  0
  9 46  1  0  0  0
 10 11  2  0  0  0
 10 26  1  0  0  0
 11 12  1  0  0  0
 12 13  2  0  0  0
 12 47  1  0  0  0
 13 14  1  0  0  0
 13 27  1  0  0  0
 14 15  1  0  0  0
 14 26  2  0  0  0
 15 16  1  0  0  0
 16 17  2  0  0  0
 16 25  1  0  0  0
 17 18  1  0  0  0
 17 48  1  0  0  0
 18 19  2  0  0  0
 18 49  1  0  0  0
 19 20  1  0  0  0
 19 50  1  0  0  0
 20 21  1  0  0  0
 20 25  2  0  0  0
 21 22  1  0  0  0
 21 51  1  0  0  0
 21 52  1  0  0  0
 22 23  1  0  0  0
 22 53  1  0  0  0
 22 54  1  0  0  0
 23 24  2  0  0  0
 23 25  1  0  0  0
 27 28  1  0  0  0
 27 29  1  0  0  0
 27 30  1  0  0  0
 31 32  2  0  0  0
 31 33  1  0  0  0
 33 34  1  0  0  0
 33 55  1  0  0  0
 34 35  1  0  0  0
 34 39  1  0  0  0
 34 56  1  0  0  0
 35 36  1  0  0  0
 35 57  1  0  0  0
 35 58  1  0  0  0
 36 37  1  0  0  0
 36 59  1  0  0  0
 36 60  1  0  0  0
 37 38  1  0  0  0
 38 39  1  0  0  0
 38 61  1  0  0  0
 38 62  1  0  0  0
 39 63  1  0  0  0
 39 64  1  0  0  0
M  END
> <s_m_entry_id>
47486

> <s_m_entry_name>
dock_pv.19

> <s_m_Source_Path>
/home/csk/Desktop/cluster/DUD-E-result/fak1

> <s_m_Source_File>
dock_pv.maegz

> <i_m_Source_File_Index>
19

> <chembl_id>
CHEMBL3657267

> <chembl_pref_name>
None

> <i_lp_mmshare_version>
53161

> <i_f3d_flags>
0

> <r_lp_tautomer_probability>
0.999949917916752

> <s_lp_Force_Field>
OPLS_2005

> <r_lp_Energy>
41.093817

> <b_lp_Chiralities_Consistent>
1

> <s_lp_Variant>
CHEMBL2695_lig967-1

> <s_i_glide_gridfile>
glide-grid_3bz3

> <i_i_glide_lignum>
1043

> <i_i_glide_rotatable_bonds>
9

> <r_i_docking_score>
-10.1878491593102

> <r_i_glide_ligand_efficiency>
-0.261226901520774

> <r_i_glide_ligand_efficiency_sa>
-0.885875656578564

> <r_i_glide_ligand_efficiency_ln>
-2.18456405905243

> <r_i_glide_gscore>
-10.1878491593102

> <r_i_glide_lipo>
-2.88086002575601

> <r_i_glide_hbond>
-0.672206333416005

> <r_i_glide_metal>
0

> <r_i_glide_rewards>
-2.70830452597089

> <r_i_glide_evdw>
-51.3171272277832

> <r_i_glide_ecoul>
-11.8669185638428

> <r_i_glide_erotb>
0.492018901572011

> <r_i_glide_esite>
-0.0726030297737217

> <r_i_glide_emodel>
-94.9716600806436

> <r_i_glide_energy>
-63.184045791626

> <r_i_glide_einternal>
6.23693799972534

> <i_i_glide_confnum>
16

> <i_i_glide_posenum>
313

> <r_i_glide_eff_state_penalty>
0

> <s_user_duplicate_titles>
CHEMBL2695_lig967

> <s_m_subgroup_title>
dock_pv

> <s_m_subgroupid>
dock_pv

> <b_m_subgroup_collapsed>
1

$$$$
CHEMBL2695_lig1066
                    3D
 Schrodinger Suite 2021-1.
 66 70  0  0  1  0            999 V2000
   15.1228   -0.2227    1.9579 C   0  0  0  0  0  0
   14.5075    0.6091    2.9347 O   0  0  0  0  0  0
   13.1468    0.4804    3.1541 C   0  0  0  0  0  0
   12.3138   -0.3274    2.3533 C   0  0  0  0  0  0
   10.9363   -0.4370    2.5927 C   0  0  0  0  0  0
   10.0733   -1.2370    1.6401 C   0  0  0  0  0  0
   10.4644   -1.4930    0.4986 O   0  0  0  0  0  0
    8.8814   -1.6360    2.1098 N   0  0  0  0  0  0
    7.8067   -2.2497    1.3339 C   0  0  0  0  0  0
    6.8075   -1.1932    0.8228 C   0  0  2  0  0  0
    5.8579   -0.6235    1.8745 C   0  0  0  0  0  0
    4.6534   -0.2227    1.0609 C   0  0  0  0  0  0
    4.6013   -1.2834   -0.0364 C   0  0  0  0  0  0
    5.9044   -1.8769   -0.0476 O   0  0  0  0  0  0
   10.3971    0.2980    3.6639 C   0  0  0  0  0  0
    9.0710    0.3629    3.9090 F   0  0  0  0  0  0
   11.2157    1.0330    4.5020 C   0  0  0  0  0  0
   12.5854    1.1630    4.2588 C   0  0  0  0  0  0
   13.3971    1.9505    5.1089 N   0  0  0  0  0  0
   13.0929    3.0636    5.9090 C   0  0  0  0  0  0
   14.1451    3.6331    6.5404 N   0  0  0  0  0  0
   13.8898    4.7630    7.2455 C   0  0  0  0  0  0
   12.6186    5.3397    7.3415 C   0  0  0  0  0  0
   11.5756    4.6526    6.7079 C   0  0  0  0  0  0
   10.2648    5.0558    6.9122 O   0  0  0  0  0  0
    9.1768    4.2315    6.6821 C   0  0  0  0  0  0
    8.8836    3.6982    5.4194 C   0  0  0  0  0  0
    7.7645    2.8800    5.2419 C   0  0  0  0  0  0
    6.9095    2.6117    6.3126 C   0  0  0  0  0  0
    7.1708    3.1784    7.5602 C   0  0  0  0  0  0
    6.4088    3.1018    8.8505 C   0  0  0  0  0  0
    7.1897    3.9767    9.7168 N   0  0  0  0  0  0
    6.7320    4.3885   11.0443 C   0  0  0  0  0  0
    8.3218    4.4571    9.1590 C   0  0  0  0  0  0
    9.1661    5.1630    9.7059 O   0  0  0  0  0  0
    8.2920    3.9728    7.7407 C   0  0  0  0  0  0
   11.8178    3.5292    5.9754 N   0  0  0  0  0  0
   12.3799    6.6221    8.1324 C   0  0  0  0  0  0
   11.6331    6.3628    9.2002 F   0  0  0  0  0  0
   13.5218    7.1629    8.5563 F   0  0  0  0  0  0
   11.7545    7.5199    7.3715 F   0  0  0  0  0  0
   16.1936   -0.0246    1.9217 H   0  0  0  0  0  0
   14.9930   -1.2784    2.1986 H   0  0  0  0  0  0
   14.7201   -0.0370    0.9633 H   0  0  0  0  0  0
   12.7266   -0.8662    1.5134 H   0  0  0  0  0  0
    8.6443   -1.3966    3.0634 H   0  0  0  0  0  0
    7.2936   -2.9436    2.0005 H   0  0  0  0  0  0
    8.1912   -2.8489    0.5057 H   0  0  0  0  0  0
    7.3201   -0.4307    0.2318 H   0  0  0  0  0  0
    6.3177    0.1878    2.4415 H   0  0  0  0  0  0
    5.6052   -1.3799    2.6207 H   0  0  0  0  0  0
    4.8076    0.7628    0.6195 H   0  0  0  0  0  0
    3.7393   -0.1840    1.6548 H   0  0  0  0  0  0
    4.3637   -0.8183   -0.9945 H   0  0  0  0  0  0
    3.8595   -2.0409    0.2237 H   0  0  0  0  0  0
   10.7401    1.5024    5.3456 H   0  0  0  0  0  0
   14.3837    1.7351    5.0513 H   0  0  0  0  0  0
   14.7220    5.1952    7.7688 H   0  0  0  0  0  0
    9.5303    3.9049    4.5794 H   0  0  0  0  0  0
    7.5583    2.4488    4.2732 H   0  0  0  0  0  0
    6.0502    1.9741    6.1554 H   0  0  0  0  0  0
    5.3852    3.4698    8.7607 H   0  0  0  0  0  0
    6.3604    2.0920    9.2629 H   0  0  0  0  0  0
    7.3493    5.1779   11.4759 H   0  0  0  0  0  0
    5.7108    4.7629   10.9803 H   0  0  0  0  0  0
    6.7318    3.5630   11.7486 H   0  0  0  0  0  0
  1  2  1  0  0  0
  1 42  1  0  0  0
  1 43  1  0  0  0
  1 44  1  0  0  0
  2  3  1  0  0  0
  3  4  2  0  0  0
  3 18  1  0  0  0
  4  5  1  0  0  0
  4 45  1  0  0  0
  5  6  1  0  0  0
  5 15  2  0  0  0
  6  7  2  0  0  0
  6  8  1  0  0  0
  8  9  1  0  0  0
  8 46  1  0  0  0
  9 10  1  0  0  0
  9 47  1  0  0  0
  9 48  1  0  0  0
 10 11  1  0  0  0
 10 14  1  0  0  0
 10 49  1  0  0  0
 11 12  1  0  0  0
 11 50  1  0  0  0
 11 51  1  0  0  0
 12 13  1  0  0  0
 12 52  1  0  0  0
 12 53  1  0  0  0
 13 14  1  0  0  0
 13 54  1  0  0  0
 13 55  1  0  0  0
 15 16  1  0  0  0
 15 17  1  0  0  0
 17 18  2  0  0  0
 17 56  1  0  0  0
 18 19  1  0  0  0
 19 20  1  0  0  0
 19 57  1  0  0  0
 20 21  2  0  0  0
 20 37  1  0  0  0
 21 22  1  0  0  0
 22 23  2  0  0  0
 22 58  1  0  0  0
 23 24  1  0  0  0
 23 38  1  0  0  0
 24 25  1  0  0  0
 24 37  2  0  0  0
 25 26  1  0  0  0
 26 27  2  0  0  0
 26 36  1  0  0  0
 27 28  1  0  0  0
 27 59  1  0  0  0
 28 29  2  0  0  0
 28 60  1  0  0  0
 29 30  1  0  0  0
 29 61  1  0  0  0
 30 31  1  0  0  0
 30 36  2  0  0  0
 31 32  1  0  0  0
 31 62  1  0  0  0
 31 63  1  0  0  0
 32 33  1  0  0  0
 32 34  1  0  0  0
 33 64  1  0  0  0
 33 65  1  0  0  0
 33 66  1  0  0  0
 34 35  2  0  0  0
 34 36  1  0  0  0
 38 39  1  0  0  0
 38 40  1  0  0  0
 38 41  1  0  0  0
M  END
> <s_m_entry_id>
47487

> <s_m_entry_name>
dock_pv.20

> <s_m_Source_Path>
/home/csk/Desktop/cluster/DUD-E-result/fak1

> <s_m_Source_File>
dock_pv.maegz

> <i_m_Source_File_Index>
20

> <chembl_id>
CHEMBL3657364

> <chembl_pref_name>
None

> <i_lp_mmshare_version>
53161

> <i_f3d_flags>
0

> <r_lp_tautomer_probability>
0.999999917912647

> <s_lp_Force_Field>
OPLS_2005

> <r_lp_Energy>
51.50876

> <b_lp_Chiralities_Consistent>
1

> <s_lp_Variant>
CHEMBL2695_lig1066-1

> <s_i_glide_gridfile>
glide-grid_3bz3

> <i_i_glide_lignum>
1154

> <i_i_glide_rotatable_bonds>
10

> <r_i_docking_score>
-10.1804316893385

> <r_i_glide_ligand_efficiency>
-0.248303211935086

> <r_i_glide_ligand_efficiency_sa>
-0.856203415177112

> <r_i_glide_ligand_efficiency_ln>
-2.15981246181658

> <r_i_glide_gscore>
-10.1804316893385

> <r_i_glide_lipo>
-2.83201179708038

> <r_i_glide_hbond>
-0.616474933325144

> <r_i_glide_metal>
0

> <r_i_glide_rewards>
-2.72304391063577

> <r_i_glide_evdw>
-53.8740997314453

> <r_i_glide_ecoul>
-10.2782897949219

> <r_i_glide_erotb>
0.345966019675529

> <r_i_glide_esite>
-0.119418612162203

> <r_i_glide_emodel>
-97.1732789452833

> <r_i_glide_energy>
-64.1523895263672

> <r_i_glide_einternal>
8.71288394927979

> <i_i_glide_confnum>
14

> <i_i_glide_posenum>
152

> <r_i_glide_eff_state_penalty>
0

> <s_user_duplicate_titles>
CHEMBL2695_lig1066,CHEMBL2695_lig1095

> <s_m_subgroup_title>
dock_pv

> <s_m_subgroupid>
dock_pv

> <b_m_subgroup_collapsed>
1

$$$$
CHEMBL2695_lig1137
                    3D
 Schrodinger Suite 2021-1.
 65 68  0  0  1  0            999 V2000
    4.1327    0.0899    3.1293 C   0  0  0  0  0  0
    4.5972    0.2898    1.8002 O   0  0  0  0  0  0
    5.9773   -0.0009    1.6030 C   0  0  0  0  0  0
    6.2346   -1.5131    1.4451 C   0  0  0  0  0  0
    7.6715   -1.8667    1.0084 C   0  0  0  0  0  0
    8.6855   -1.2411    1.8543 N   0  0  0  0  0  0
   10.0085   -1.2330    1.6098 C   0  0  0  0  0  0
   10.5074   -1.8064    0.6383 O   0  0  0  0  0  0
   10.8714   -0.4370    2.5703 C   0  0  0  0  0  0
   10.3285    0.2247    3.6796 C   0  0  0  0  0  0
   11.1260    0.9938    4.5180 C   0  0  0  0  0  0
   12.4933    1.1632    4.2611 C   0  0  0  0  0  0
   13.3161    1.9370    5.1103 N   0  0  0  0  0  0
   13.0358    3.0516    5.9094 C   0  0  0  0  0  0
   14.1009    3.6141    6.5240 N   0  0  0  0  0  0
   13.8682    4.7622    7.2067 C   0  0  0  0  0  0
   12.6020    5.3566    7.2934 C   0  0  0  0  0  0
   11.5507    4.6859    6.6525 C   0  0  0  0  0  0
   10.2453    5.1331    6.7875 O   0  0  0  0  0  0
    9.1615    4.3064    6.5469 C   0  0  0  0  0  0
    8.8708    3.7860    5.2779 C   0  0  0  0  0  0
    7.7925    2.9127    5.1070 C   0  0  0  0  0  0
    6.9775    2.5757    6.1896 C   0  0  0  0  0  0
    7.2388    3.1287    7.4432 C   0  0  0  0  0  0
    6.5268    2.9706    8.7540 C   0  0  0  0  0  0
    7.2936    3.8562    9.6206 N   0  0  0  0  0  0
    6.9858    4.0446   11.0315 C   0  0  0  0  0  0
    8.3651    4.4314    9.0410 C   0  0  0  0  0  0
    9.1910    5.1622    9.5837 O   0  0  0  0  0  0
    8.3148    3.9832    7.6142 C   0  0  0  0  0  0
   11.7726    3.5389    5.9532 N   0  0  0  0  0  0
   12.3750    6.6363    8.0875 C   0  0  0  0  0  0
   11.7509    7.5453    7.3377 F   0  0  0  0  0  0
   11.6322    6.3649    9.1560 F   0  0  0  0  0  0
   13.5222    7.1628    8.5128 F   0  0  0  0  0  0
   13.0647    0.5031    3.1486 C   0  0  0  0  0  0
   14.4229    0.6671    2.9310 O   0  0  0  0  0  0
   15.0786   -0.1734    1.9879 C   0  0  0  0  0  0
   12.2470   -0.3005    2.3316 C   0  0  0  0  0  0
    3.0673    0.3222    3.1814 H   0  0  0  0  0  0
    4.6504    0.7492    3.8278 H   0  0  0  0  0  0
    4.2599   -0.9429    3.4584 H   0  0  0  0  0  0
    6.2908    0.5112    0.6923 H   0  0  0  0  0  0
    6.5755    0.4116    2.4153 H   0  0  0  0  0  0
    5.9954   -2.0260    2.3769 H   0  0  0  0  0  0
    5.5382   -1.9162    0.7076 H   0  0  0  0  0  0
    7.8096   -2.9505    1.0110 H   0  0  0  0  0  0
    7.8258   -1.5118   -0.0136 H   0  0  0  0  0  0
    8.3401   -0.7671    2.6757 H   0  0  0  0  0  0
    9.2746    0.1668    3.9091 H   0  0  0  0  0  0
   10.6566    1.4446    5.3772 H   0  0  0  0  0  0
   14.3006    1.7158    5.0428 H   0  0  0  0  0  0
   14.7219    5.1894    7.7075 H   0  0  0  0  0  0
    9.4992    4.0340    4.4355 H   0  0  0  0  0  0
    7.5879    2.4910    4.1332 H   0  0  0  0  0  0
    6.1550    1.8900    6.0394 H   0  0  0  0  0  0
    5.4855    3.2932    8.7089 H   0  0  0  0  0  0
    6.5371    1.9476    9.1360 H   0  0  0  0  0  0
    7.3084    3.1638   11.5780 H   0  0  0  0  0  0
    7.5037    4.9022   11.4639 H   0  0  0  0  0  0
    5.9144    4.1882   11.1737 H   0  0  0  0  0  0
   16.1417    0.0697    1.9536 H   0  0  0  0  0  0
   14.9796   -1.2241    2.2640 H   0  0  0  0  0  0
   14.6798   -0.0387    0.9827 H   0  0  0  0  0  0
   12.6695   -0.8084    1.4792 H   0  0  0  0  0  0
  1  2  1  0  0  0
  1 40  1  0  0  0
  1 41  1  0  0  0
  1 42  1  0  0  0
  2  3  1  0  0  0
  3  4  1  0  0  0
  3 43  1  0  0  0
  3 44  1  0  0  0
  4  5  1  0  0  0
  4 45  1  0  0  0
  4 46  1  0  0  0
  5  6  1  0  0  0
  5 47  1  0  0  0
  5 48  1  0  0  0
  6  7  1  0  0  0
  6 49  1  0  0  0
  7  8  2  0  0  0
  7  9  1  0  0  0
  9 10  2  0  0  0
  9 39  1  0  0  0
 10 11  1  0  0  0
 10 50  1  0  0  0
 11 12  2  0  0  0
 11 51  1  0  0  0
 12 13  1  0  0  0
 12 36  1  0  0  0
 13 14  1  0  0  0
 13 52  1  0  0  0
 14 15  2  0  0  0
 14 31  1  0  0  0
 15 16  1  0  0  0
 16 17  2  0  0  0
 16 53  1  0  0  0
 17 18  1  0  0  0
 17 32  1  0  0  0
 18 19  1  0  0  0
 18 31  2  0  0  0
 19 20  1  0  0  0
 20 21  2  0  0  0
 20 30  1  0  0  0
 21 22  1  0  0  0
 21 54  1  0  0  0
 22 23  2  0  0  0
 22 55  1  0  0  0
 23 24  1  0  0  0
 23 56  1  0  0  0
 24 25  1  0  0  0
 24 30  2  0  0  0
 25 26  1  0  0  0
 25 57  1  0  0  0
 25 58  1  0  0  0
 26 27  1  0  0  0
 26 28  1  0  0  0
 27 59  1  0  0  0
 27 60  1  0  0  0
 27 61  1  0  0  0
 28 29  2  0  0  0
 28 30  1  0  0  0
 32 33  1  0  0  0
 32 34  1  0  0  0
 32 35  1  0  0  0
 36 37  1  0  0  0
 36 39  2  0  0  0
 37 38  1  0  0  0
 38 62  1  0  0  0
 38 63  1  0  0  0
 38 64  1  0  0  0
 39 65  1  0  0  0
M  END
> <s_m_entry_id>
47489

> <s_m_entry_name>
dock_pv.22

> <s_m_Source_Path>
/home/csk/Desktop/cluster/DUD-E-result/fak1

> <s_m_Source_File>
dock_pv.maegz

> <i_m_Source_File_Index>
22

> <chembl_id>
CHEMBL3661440

> <chembl_pref_name>
None

> <i_lp_mmshare_version>
53161

> <i_f3d_flags>
0

> <r_lp_tautomer_probability>
0.999999917912647

> <s_lp_Force_Field>
OPLS_2005

> <r_lp_Energy>
38.045651

> <b_lp_Chiralities_Consistent>
1

> <s_lp_Variant>
CHEMBL2695_lig1137-1

> <s_i_glide_gridfile>
glide-grid_3bz3

> <i_i_glide_lignum>
1229

> <i_i_glide_rotatable_bonds>
12

> <r_i_docking_score>
-10.1290085325811

> <r_i_glide_ligand_efficiency>
-0.25971816750208

> <r_i_glide_ligand_efficiency_sa>
-0.880759220516153

> <r_i_glide_ligand_efficiency_ln>
-2.1719469583912

> <r_i_glide_gscore>
-10.1290085325811

> <r_i_glide_lipo>
-2.86267280396202

> <r_i_glide_hbond>
-0.529677677520921

> <r_i_glide_metal>
0

> <r_i_glide_rewards>
-2.70832016740935

> <r_i_glide_evdw>
-54.5729827880859

> <r_i_glide_ecoul>
-12.3213882446289

> <r_i_glide_erotb>
0.626184611066667

> <r_i_glide_esite>
-0.0776651186568786

> <r_i_glide_emodel>
-101.065562051527

> <r_i_glide_energy>
-66.8943710327148

> <r_i_glide_einternal>
8.50505352020264

> <i_i_glide_confnum>
9

> <i_i_glide_posenum>
65

> <r_i_glide_eff_state_penalty>
0

> <s_user_duplicate_titles>
CHEMBL2695_lig1137

> <s_m_subgroup_title>
dock_pv

> <s_m_subgroupid>
dock_pv

> <b_m_subgroup_collapsed>
1

$$$$
CHEMBL2695_lig312
                    3D
 Schrodinger Suite 2021-1.
 43 45  0  0  1  0            999 V2000
    7.9674    3.9577    9.8673 S   0  0  0  0  0  0
    6.8203    3.3743    8.6147 N   0  0  0  0  0  0
    5.7745    2.4805    9.1154 C   0  0  0  0  0  0
    6.5761    4.0260    7.3809 C   0  0  0  0  0  0
    7.5972    4.2228    6.4203 C   0  0  0  0  0  0
    7.2418    4.7630    5.1757 C   0  0  0  0  0  0
    5.9221    5.1266    4.9180 C   0  0  0  0  0  0
    4.9718    4.9090    5.9092 C   0  0  0  0  0  0
    5.2810    4.3624    7.1070 N   0  0  0  0  0  0
    9.0609    3.9233    6.7393 C   0  0  0  0  0  0
    9.9106    3.6177    5.6003 N   0  0  0  0  0  0
   13.4156    4.3560    6.7091 C   0  0  0  0  0  0
   12.0178    4.5648    6.5253 C   0  0  0  0  0  0
   11.2835    3.5223    5.8915 C   0  0  0  0  0  0
   11.9864    2.3622    5.5090 C   0  0  0  0  0  0
   13.3646    2.3049    5.7278 C   0  0  0  0  0  0
   14.1021    3.2833    6.3094 N   0  0  0  0  0  0
   13.9190    5.4175    7.4302 N   0  0  0  0  0  0
   11.7487    5.8755    7.0684 C   0  0  0  0  0  0
   12.9174    6.3305    7.6480 C   0  0  0  0  0  0
    6.8621    4.7181   11.1491 C   0  0  0  0  0  0
    8.5832    2.7639   10.4511 O   0  0  0  0  0  0
    8.7924    5.0512    9.3495 O   0  0  0  0  0  0
   11.3001    1.1950    4.8015 C   0  0  0  0  0  0
    4.8696    3.0320    9.3746 H   0  0  0  0  0  0
    5.5207    1.7263    8.3689 H   0  0  0  0  0  0
    6.1089    1.9635   10.0117 H   0  0  0  0  0  0
    7.9913    4.9398    4.4176 H   0  0  0  0  0  0
    5.6456    5.5613    3.9689 H   0  0  0  0  0  0
    3.9337    5.1658    5.7493 H   0  0  0  0  0  0
    9.1439    3.1171    7.4680 H   0  0  0  0  0  0
    9.4454    4.8226    7.2012 H   0  0  0  0  0  0
    9.5618    2.8404    5.0560 H   0  0  0  0  0  0
   13.9218    1.4298    5.4246 H   0  0  0  0  0  0
   14.8752    5.5693    7.7383 H   0  0  0  0  0  0
   10.8125    6.4138    7.0791 H   0  0  0  0  0  0
   13.1349    7.2465    8.1782 H   0  0  0  0  0  0
    7.5228    5.1164   11.9096 H   0  0  0  0  0  0
    6.3220    5.5354   10.6936 H   0  0  0  0  0  0
    6.1926    3.9632   11.5569 H   0  0  0  0  0  0
   10.7799    0.5593    5.5171 H   0  0  0  0  0  0
   10.5697    1.5505    4.0741 H   0  0  0  0  0  0
   12.0083    0.5920    4.2362 H   0  0  0  0  0  0
  1  2  1  0  0  0
  1 21  1  0  0  0
  1 22  2  0  0  0
  1 23  2  0  0  0
  2  3  1  0  0  0
  2  4  1  0  0  0
  3 25  1  0  0  0
  3 26  1  0  0  0
  3 27  1  0  0  0
  4  5  1  0  0  0
  4  9  2  0  0  0
  5  6  2  0  0  0
  5 10  1  0  0  0
  6  7  1  0  0  0
  6 28  1  0  0  0
  7  8  2  0  0  0
  7 29  1  0  0  0
  8  9  1  0  0  0
  8 30  1  0  0  0
 10 11  1  0  0  0
 10 31  1  0  0  0
 10 32  1  0  0  0
 11 14  1  0  0  0
 11 33  1  0  0  0
 12 13  1  0  0  0
 12 17  2  0  0  0
 12 18  1  0  0  0
 13 14  2  0  0  0
 13 19  1  0  0  0
 14 15  1  0  0  0
 15 16  2  0  0  0
 15 24  1  0  0  0
 16 17  1  0  0  0
 16 34  1  0  0  0
 18 20  1  0  0  0
 18 35  1  0  0  0
 19 20  2  0  0  0
 19 36  1  0  0  0
 20 37  1  0  0  0
 21 38  1  0  0  0
 21 39  1  0  0  0
 21 40  1  0  0  0
 24 41  1  0  0  0
 24 42  1  0  0  0
 24 43  1  0  0  0
M  END
> <s_m_entry_id>
47490

> <s_m_entry_name>
dock_pv.23

> <s_m_Source_Path>
/home/csk/Desktop/cluster/DUD-E-result/fak1

> <s_m_Source_File>
dock_pv.maegz

> <i_m_Source_File_Index>
23

> <chembl_id>
CHEMBL2315575

> <chembl_pref_name>
None

> <i_lp_mmshare_version>
53161

> <i_f3d_flags>
0

> <r_lp_tautomer_probability>
1

> <s_lp_Force_Field>
OPLS_2005

> <r_lp_Energy>
12.053404

> <b_lp_Chiralities_Consistent>
1

> <s_lp_Variant>
CHEMBL2695_lig312-1

> <s_i_glide_gridfile>
glide-grid_3bz3

> <i_i_glide_lignum>
354

> <i_i_glide_rotatable_bonds>
5

> <r_i_docking_score>
-9.91228468257015

> <r_i_glide_ligand_efficiency>
-0.413011861773756

> <r_i_glide_ligand_efficiency_sa>
-1.19133235908809

> <r_i_glide_ligand_efficiency_ln>
-2.37246456964502

> <r_i_glide_gscore>
-9.91228468257015

> <r_i_glide_lipo>
-3.37155412248204

> <r_i_glide_hbond>
-0.578639815318919

> <r_i_glide_metal>
0

> <r_i_glide_rewards>
-2.87023749267019

> <r_i_glide_evdw>
-42.7600784301758

> <r_i_glide_ecoul>
-9.33144760131836

> <r_i_glide_erotb>
0.445867809607538

> <r_i_glide_esite>
0

> <r_i_glide_emodel>
-78.6264231142263

> <r_i_glide_energy>
-52.0915260314941

> <r_i_glide_einternal>
8.57768630981445

> <i_i_glide_confnum>
76

> <i_i_glide_posenum>
310

> <r_i_glide_eff_state_penalty>
0

> <s_user_duplicate_titles>
CHEMBL2695_lig312

> <s_m_subgroup_title>
dock_pv

> <s_m_subgroupid>
dock_pv

> <b_m_subgroup_collapsed>
1

$$$$
CHEMBL2695_lig606
                    3D
 Schrodinger Suite 2021-1.
 66 70  0  0  1  0            999 V2000
    7.4126    1.1683    8.2870 C   0  0  0  0  0  0
    7.4234    2.6210    8.1369 N   0  0  0  0  0  0
    6.6039    3.1228    7.1011 C   0  0  0  0  0  0
    5.2496    2.7522    7.0598 C   0  0  0  0  0  0
    4.4080    3.2235    6.0591 C   0  0  0  0  0  0
    4.9082    4.0774    5.0858 C   0  0  0  0  0  0
    6.2439    4.4722    5.1091 C   0  0  0  0  0  0
    7.0983    3.9959    6.1067 C   0  0  0  0  0  0
    8.4944    4.4108    6.0802 C   0  0  0  0  0  0
    9.6723    4.6874    6.2296 C   0  0  0  0  0  0
   11.0624    4.8767    6.5955 C   0  0  0  0  0  0
   11.4412    5.9728    7.3881 C   0  0  0  0  0  0
   12.7453    6.1162    7.8595 C   0  0  0  0  0  0
   13.7034    5.1664    7.5261 C   0  0  0  0  0  0
   13.3404    4.1370    6.7088 N   0  0  0  0  0  0
   14.1241    3.1329    6.3083 N   0  0  0  0  0  0
   13.3228    2.4531    5.5090 C   0  0  0  0  0  0
   13.9221    1.5625    4.6644 N   0  0  0  0  0  0
   13.5655    0.7911    3.5390 C   0  0  0  0  0  0
   14.6358    0.3253    2.7781 C   0  0  0  0  0  0
   14.4202   -0.5220    1.7024 C   0  0  0  0  0  0
   13.1279   -0.9112    1.3747 C   0  0  0  0  0  0
   12.0160   -0.4860    2.1229 C   0  0  0  0  0  0
   12.2648    0.3827    3.2057 C   0  0  0  0  0  0
   10.7225   -0.9074    1.7790 N   0  0  0  0  0  0
    9.5632   -0.6560    2.6664 C   0  0  0  0  0  0
    8.1851   -0.8519    1.9893 C   0  0  0  0  0  0
    8.0795   -2.2063    1.4549 N   0  0  0  0  0  0
    6.7410   -2.4353    0.9221 C   0  0  0  0  0  0
    9.0866   -2.3291    0.4113 C   0  0  0  0  0  0
   10.5011   -2.1584    1.0127 C   0  0  0  0  0  0
   12.0442    2.7728    5.5120 N   0  0  0  0  0  0
   12.0448    3.9298    6.2362 C   0  0  0  0  0  0
    7.6783    3.5884    9.6149 S   0  0  0  0  0  0
    8.3880    2.7619   10.5948 O   0  0  0  0  0  0
    8.2060    4.8977    9.2221 O   0  0  0  0  0  0
    5.9210    3.8168   10.1901 C   0  0  0  0  0  0
    7.9378    0.7633    7.4268 H   0  0  0  0  0  0
    7.9225    0.8300    9.1870 H   0  0  0  0  0  0
    6.4119    0.7389    8.3067 H   0  0  0  0  0  0
    4.8321    2.1001    7.8121 H   0  0  0  0  0  0
    3.3701    2.9260    6.0353 H   0  0  0  0  0  0
    4.2533    4.4254    4.3071 H   0  0  0  0  0  0
    6.6101    5.1376    4.3393 H   0  0  0  0  0  0
   10.7206    6.7200    7.6774 H   0  0  0  0  0  0
   13.0065    6.9520    8.4943 H   0  0  0  0  0  0
   14.7221    5.1740    7.8769 H   0  0  0  0  0  0
   14.8699    1.3307    4.9406 H   0  0  0  0  0  0
   15.6515    0.5944    3.0344 H   0  0  0  0  0  0
   15.2612   -0.8920    1.1346 H   0  0  0  0  0  0
   13.0278   -1.5669    0.5285 H   0  0  0  0  0  0
   11.4597    0.7379    3.8291 H   0  0  0  0  0  0
    9.6152   -1.3463    3.5086 H   0  0  0  0  0  0
    9.5809    0.3581    3.0637 H   0  0  0  0  0  0
    7.3888   -0.6747    2.7127 H   0  0  0  0  0  0
    8.0440   -0.1218    1.1886 H   0  0  0  0  0  0
    6.6586   -3.4391    0.5037 H   0  0  0  0  0  0
    6.0014   -2.3548    1.7191 H   0  0  0  0  0  0
    6.4813   -1.7175    0.1424 H   0  0  0  0  0  0
    8.9203   -1.5979   -0.3827 H   0  0  0  0  0  0
    9.0108   -3.3148   -0.0498 H   0  0  0  0  0  0
   11.1807   -2.2393    0.1687 H   0  0  0  0  0  0
   10.6807   -3.0038    1.6793 H   0  0  0  0  0  0
    5.9283    4.3632   11.1288 H   0  0  0  0  0  0
    5.3690    4.3631    9.4307 H   0  0  0  0  0  0
    5.4980    2.8233   10.3055 H   0  0  0  0  0  0
  1  2  1  0  0  0
  1 38  1  0  0  0
  1 39  1  0  0  0
  1 40  1  0  0  0
  2  3  1  0  0  0
  2 34  1  0  0  0
  3  4  2  0  0  0
  3  8  1  0  0  0
  4  5  1  0  0  0
  4 41  1  0  0  0
  5  6  2  0  0  0
  5 42  1  0  0  0
  6  7  1  0  0  0
  6 43  1  0  0  0
  7  8  2  0  0  0
  7 44  1  0  0  0
  8  9  1  0  0  0
  9 10  3  0  0  0
 10 11  1  0  0  0
 11 12  2  0  0  0
 11 33  1  0  0  0
 12 13  1  0  0  0
 12 45  1  0  0  0
 13 14  2  0  0  0
 13 46  1  0  0  0
 14 15  1  0  0  0
 14 47  1  0  0  0
 15 16  1  0  0  0
 15 33  1  0  0  0
 16 17  2  0  0  0
 17 18  1  0  0  0
 17 32  1  0  0  0
 18 19  1  0  0  0
 18 48  1  0  0  0
 19 20  2  0  0  0
 19 24  1  0  0  0
 20 21  1  0  0  0
 20 49  1  0  0  0
 21 22  2  0  0  0
 21 50  1  0  0  0
 22 23  1  0  0  0
 22 51  1  0  0  0
 23 24  2  0  0  0
 23 25  1  0  0  0
 24 52  1  0  0  0
 25 26  1  0  0  0
 25 31  1  0  0  0
 26 27  1  0  0  0
 26 53  1  0  0  0
 26 54  1  0  0  0
 27 28  1  0  0  0
 27 55  1  0  0  0
 27 56  1  0  0  0
 28 29  1  0  0  0
 28 30  1  0  0  0
 29 57  1  0  0  0
 29 58  1  0  0  0
 29 59  1  0  0  0
 30 31  1  0  0  0
 30 60  1  0  0  0
 30 61  1  0  0  0
 31 62  1  0  0  0
 31 63  1  0  0  0
 32 33  2  0  0  0
 34 35  2  0  0  0
 34 36  2  0  0  0
 34 37  1  0  0  0
 37 64  1  0  0  0
 37 65  1  0  0  0
 37 66  1  0  0  0
M  END
> <s_m_entry_id>
47491

> <s_m_entry_name>
dock_pv.24

> <s_m_Source_Path>
/home/csk/Desktop/cluster/DUD-E-result/fak1

> <s_m_Source_File>
dock_pv.maegz

> <i_m_Source_File_Index>
24

> <chembl_id>
CHEMBL3642413

> <chembl_pref_name>
None

> <i_lp_mmshare_version>
53161

> <i_f3d_flags>
0

> <r_lp_tautomer_probability>
1

> <s_lp_Force_Field>
OPLS_2005

> <r_lp_Energy>
40.883962

> <b_lp_Chiralities_Consistent>
1

> <s_lp_Variant>
CHEMBL2695_lig606-1

> <s_i_glide_gridfile>
glide-grid_3bz3

> <i_i_glide_lignum>
660

> <i_i_glide_rotatable_bonds>
7

> <r_i_docking_score>
-9.90031166493586

> <r_i_glide_ligand_efficiency>
-0.267575990944212

> <r_i_glide_ligand_efficiency_sa>
-0.891622562926933

> <r_i_glide_ligand_efficiency_ln>
-2.14714550388912

> <r_i_glide_gscore>
-9.90031166493586

> <r_i_glide_lipo>
-3.26778625613064

> <r_i_glide_hbond>
-0.596509670439004

> <r_i_glide_metal>
0

> <r_i_glide_rewards>
-2.39462672491108

> <r_i_glide_evdw>
-49.4976501464844

> <r_i_glide_ecoul>
-10.7206497192383

> <r_i_glide_erotb>
0.463082161139136

> <r_i_glide_esite>
-0.0214912093843188

> <r_i_glide_emodel>
-77.2183303444884

> <r_i_glide_energy>
-60.2182998657227

> <r_i_glide_einternal>
13.1424417495728

> <i_i_glide_confnum>
8

> <i_i_glide_posenum>
203

> <r_i_glide_eff_state_penalty>
0

> <s_user_duplicate_titles>
CHEMBL2695_lig606

> <s_m_subgroup_title>
dock_pv

> <s_m_subgroupid>
dock_pv

> <b_m_subgroup_collapsed>
1

$$$$
CHEMBL2695_lig311
                    3D
 Schrodinger Suite 2021-1.
 39 41  0  0  1  0            999 V2000
    7.7459    3.6126    9.7262 S   0  0  0  0  0  0
    7.5933    2.7187    8.1868 N   0  0  0  0  0  0
    6.9188    3.3404    7.1173 C   0  0  0  0  0  0
    7.6077    4.1777    6.2153 C   0  0  0  0  0  0
    6.8834    4.7606    5.1717 C   0  0  0  0  0  0
    5.5114    4.5455    5.0695 C   0  0  0  0  0  0
    4.8968    3.7003    5.9870 C   0  0  0  0  0  0
    5.5820    3.0924    6.9826 N   0  0  0  0  0  0
    9.0807    4.5235    6.3675 C   0  0  0  0  0  0
    9.9541    3.4901    5.8378 N   0  0  0  0  0  0
   13.3665    2.4274    5.8169 C   0  0  0  0  0  0
   14.1389    3.4026    6.3581 N   0  0  0  0  0  0
   13.4364    4.4522    6.7928 C   0  0  0  0  0  0
   12.0254    4.6190    6.6730 C   0  0  0  0  0  0
   11.3409    3.5412    6.0480 C   0  0  0  0  0  0
   12.0202    2.4354    5.6465 N   0  0  0  0  0  0
   13.9198    5.5278    7.5084 N   0  0  0  0  0  0
   11.7166    5.8928    7.2751 C   0  0  0  0  0  0
   12.8930    6.3956    7.7919 C   0  0  0  0  0  0
    7.2723    1.2975    8.3475 C   0  0  0  0  0  0
    5.9550    3.8177   10.2025 C   0  0  0  0  0  0
    8.3856    2.7289   10.7025 O   0  0  0  0  0  0
    8.3077    4.9387    9.4527 O   0  0  0  0  0  0
    7.3776    5.3990    4.4554 H   0  0  0  0  0  0
    4.9323    5.0202    4.2935 H   0  0  0  0  0  0
    3.8369    3.4972    5.9334 H   0  0  0  0  0  0
    9.3171    4.6533    7.4174 H   0  0  0  0  0  0
    9.2952    5.4851    5.8973 H   0  0  0  0  0  0
    9.5455    2.6546    5.4402 H   0  0  0  0  0  0
   13.8851    1.5452    5.4716 H   0  0  0  0  0  0
   14.8822    5.7105    7.7790 H   0  0  0  0  0  0
   10.7593    6.3819    7.3683 H   0  0  0  0  0  0
   13.0975    7.3088    8.3339 H   0  0  0  0  0  0
    7.3969    0.7696    7.4010 H   0  0  0  0  0  0
    7.9205    0.8229    9.0828 H   0  0  0  0  0  0
    6.2418    1.1576    8.6710 H   0  0  0  0  0  0
    5.9213    4.3650   11.1371 H   0  0  0  0  0  0
    5.4458    4.3650    9.4182 H   0  0  0  0  0  0
    5.5224    2.8277   10.3049 H   0  0  0  0  0  0
  1  2  1  0  0  0
  1 21  1  0  0  0
  1 22  2  0  0  0
  1 23  2  0  0  0
  2  3  1  0  0  0
  2 20  1  0  0  0
  3  4  1  0  0  0
  3  8  2  0  0  0
  4  5  2  0  0  0
  4  9  1  0  0  0
  5  6  1  0  0  0
  5 24  1  0  0  0
  6  7  2  0  0  0
  6 25  1  0  0  0
  7  8  1  0  0  0
  7 26  1  0  0  0
  9 10  1  0  0  0
  9 27  1  0  0  0
  9 28  1  0  0  0
 10 15  1  0  0  0
 10 29  1  0  0  0
 11 12  1  0  0  0
 11 16  2  0  0  0
 11 30  1  0  0  0
 12 13  2  0  0  0
 13 14  1  0  0  0
 13 17  1  0  0  0
 14 15  2  0  0  0
 14 18  1  0  0  0
 15 16  1  0  0  0
 17 19  1  0  0  0
 17 31  1  0  0  0
 18 19  2  0  0  0
 18 32  1  0  0  0
 19 33  1  0  0  0
 20 34  1  0  0  0
 20 35  1  0  0  0
 20 36  1  0  0  0
 21 37  1  0  0  0
 21 38  1  0  0  0
 21 39  1  0  0  0
M  END
> <s_m_entry_id>
47492

> <s_m_entry_name>
dock_pv.25

> <s_m_Source_Path>
/home/csk/Desktop/cluster/DUD-E-result/fak1

> <s_m_Source_File>
dock_pv.maegz

> <i_m_Source_File_Index>
25

> <chembl_id>
CHEMBL2315559

> <chembl_pref_name>
None

> <i_lp_mmshare_version>
53161

> <i_f3d_flags>
0

> <r_lp_tautomer_probability>
1

> <s_lp_Force_Field>
OPLS_2005

> <r_lp_Energy>
6.582906

> <b_lp_Chiralities_Consistent>
1

> <s_lp_Variant>
CHEMBL2695_lig311-1

> <s_i_glide_gridfile>
glide-grid_3bz3

> <i_i_glide_lignum>
353

> <i_i_glide_rotatable_bonds>
5

> <r_i_docking_score>
-9.89508045690847

> <r_i_glide_ligand_efficiency>
-0.430220889430803

> <r_i_glide_ligand_efficiency_sa>
-1.22349098021588

> <r_i_glide_ligand_efficiency_ln>
-2.39272017810942

> <r_i_glide_gscore>
-9.89508045690847

> <r_i_glide_lipo>
-2.51709824150236

> <r_i_glide_hbond>
-0.602576698165143

> <r_i_glide_metal>
0

> <r_i_glide_rewards>
-4.00564171210487

> <r_i_glide_evdw>
-38.5719108581543

> <r_i_glide_ecoul>
-10.1537952423096

> <r_i_glide_erotb>
0.681901024118051

> <r_i_glide_esite>
0

> <r_i_glide_emodel>
-70.3999425752321

> <r_i_glide_energy>
-48.7257061004639

> <r_i_glide_einternal>
9.69776153564453

> <i_i_glide_confnum>
81

> <i_i_glide_posenum>
137

> <r_i_glide_eff_state_penalty>
0

> <s_user_duplicate_titles>
CHEMBL2695_lig311

> <s_m_subgroup_title>
dock_pv

> <s_m_subgroupid>
dock_pv

> <b_m_subgroup_collapsed>
1

$$$$
CHEMBL2695_lig969
                    3D
 Schrodinger Suite 2021-1.
 67 71  0  0  1  0            999 V2000
   15.1199   -0.1423    2.0161 C   0  0  0  0  0  0
   14.4407    0.6999    2.9394 O   0  0  0  0  0  0
   13.0820    0.5186    3.1415 C   0  0  0  0  0  0
   12.2820   -0.2855    2.3091 C   0  0  0  0  0  0
   10.9064   -0.4370    2.5343 C   0  0  0  0  0  0
   10.3423    0.2105    3.6430 C   0  0  0  0  0  0
   11.1221    0.9856    4.4924 C   0  0  0  0  0  0
   12.4903    1.1630    4.2511 C   0  0  0  0  0  0
   13.2984    1.9401    5.1090 N   0  0  0  0  0  0
   13.0143    3.0535    5.9090 C   0  0  0  0  0  0
   14.0861    3.6232    6.5042 N   0  0  0  0  0  0
   13.8613    4.7644    7.1998 C   0  0  0  0  0  0
   12.5948    5.3509    7.3156 C   0  0  0  0  0  0
   11.5339    4.6736    6.6987 C   0  0  0  0  0  0
   10.2318    5.1182    6.8788 O   0  0  0  0  0  0
    9.1384    4.3153    6.6128 C   0  0  0  0  0  0
    8.8588    3.8454    5.3233 C   0  0  0  0  0  0
    7.7874    2.9787    5.1090 C   0  0  0  0  0  0
    6.9694    2.5994    6.1721 C   0  0  0  0  0  0
    7.2098    3.1024    7.4517 C   0  0  0  0  0  0
    6.4517    2.8328    8.7247 C   0  0  0  0  0  0
    7.1583    3.6657    9.7952 C   0  0  0  0  0  0
    8.3220    4.3630    9.0987 C   0  0  0  0  0  0
    9.1220    5.1201    9.6445 O   0  0  0  0  0  0
    8.2861    3.9630    7.6712 C   0  0  0  0  0  0
   11.7466    3.5298    5.9860 N   0  0  0  0  0  0
   12.3741    6.6319    8.1113 C   0  0  0  0  0  0
   11.7483    7.5391    7.3609 F   0  0  0  0  0  0
   11.6297    6.3630    9.1804 F   0  0  0  0  0  0
   13.5220    7.1629    8.5323 F   0  0  0  0  0  0
   10.0675   -1.2581    1.5753 C   0  0  0  0  0  0
   10.5927   -1.8880    0.6537 O   0  0  0  0  0  0
    8.7374   -1.2371    1.7756 N   0  0  0  0  0  0
    7.7279   -1.9903    1.0365 C   0  0  2  0  0  0
    6.3069   -1.4177    1.2417 C   0  0  0  0  0  0
    5.2003   -2.2128    0.5211 C   0  0  0  0  0  0
    5.2623   -3.7212    0.8201 C   0  0  1  0  0  0
    4.2712   -4.4062    0.0838 O   0  0  0  0  0  0
    6.6594   -4.2970    0.5259 C   0  0  0  0  0  0
    7.7861   -3.5253    1.2416 C   0  0  0  0  0  0
   16.1763    0.1235    1.9874 H   0  0  0  0  0  0
   15.0437   -1.1900    2.3090 H   0  0  0  0  0  0
   14.7220   -0.0370    1.0077 H   0  0  0  0  0  0
   12.7184   -0.7845    1.4581 H   0  0  0  0  0  0
    9.2886    0.1316    3.8712 H   0  0  0  0  0  0
   10.6400    1.4308    5.3483 H   0  0  0  0  0  0
   14.2849    1.7334    5.0332 H   0  0  0  0  0  0
   14.7220    5.1926    7.6868 H   0  0  0  0  0  0
    9.4960    4.1223    4.4962 H   0  0  0  0  0  0
    7.5965    2.5881    4.1201 H   0  0  0  0  0  0
    6.1536    1.9135    5.9896 H   0  0  0  0  0  0
    5.4055    3.1342    8.6535 H   0  0  0  0  0  0
    6.4809    1.7778    9.0021 H   0  0  0  0  0  0
    6.4931    4.4144   10.2265 H   0  0  0  0  0  0
    7.5346    3.0460   10.6089 H   0  0  0  0  0  0
    8.3842   -0.6937    2.5490 H   0  0  0  0  0  0
    7.9391   -1.8342   -0.0249 H   0  0  0  0  0  0
    6.2708   -0.3736    0.9259 H   0  0  0  0  0  0
    6.0777   -1.4302    2.3091 H   0  0  0  0  0  0
    4.2242   -1.8190    0.8084 H   0  0  0  0  0  0
    5.2829   -2.0511   -0.5549 H   0  0  0  0  0  0
    5.0157   -3.8708    1.8732 H   0  0  0  0  0  0
    4.4863   -5.3415    0.0790 H   0  0  0  0  0  0
    6.6998   -5.3469    0.8192 H   0  0  0  0  0  0
    6.8410   -4.2766   -0.5501 H   0  0  0  0  0  0
    7.7034   -3.7336    2.3090 H   0  0  0  0  0  0
    8.7515   -3.9167    0.9185 H   0  0  0  0  0  0
  1  2  1  0  0  0
  1 41  1  0  0  0
  1 42  1  0  0  0
  1 43  1  0  0  0
  2  3  1  0  0  0
  3  4  2  0  0  0
  3  8  1  0  0  0
  4  5  1  0  0  0
  4 44  1  0  0  0
  5  6  2  0  0  0
  5 31  1  0  0  0
  6  7  1  0  0  0
  6 45  1  0  0  0
  7  8  2  0  0  0
  7 46  1  0  0  0
  8  9  1  0  0  0
  9 10  1  0  0  0
  9 47  1  0  0  0
 10 11  2  0  0  0
 10 26  1  0  0  0
 11 12  1  0  0  0
 12 13  2  0  0  0
 12 48  1  0  0  0
 13 14  1  0  0  0
 13 27  1  0  0  0
 14 15  1  0  0  0
 14 26  2  0  0  0
 15 16  1  0  0  0
 16 17  2  0  0  0
 16 25  1  0  0  0
 17 18  1  0  0  0
 17 49  1  0  0  0
 18 19  2  0  0  0
 18 50  1  0  0  0
 19 20  1  0  0  0
 19 51  1  0  0  0
 20 21  1  0  0  0
 20 25  2  0  0  0
 21 22  1  0  0  0
 21 52  1  0  0  0
 21 53  1  0  0  0
 22 23  1  0  0  0
 22 54  1  0  0  0
 22 55  1  0  0  0
 23 24  2  0  0  0
 23 25  1  0  0  0
 27 28  1  0  0  0
 27 29  1  0  0  0
 27 30  1  0  0  0
 31 32  2  0  0  0
 31 33  1  0  0  0
 33 34  1  0  0  0
 33 56  1  0  0  0
 34 35  1  0  0  0
 34 40  1  0  0  0
 34 57  1  0  0  0
 35 36  1  0  0  0
 35 58  1  0  0  0
 35 59  1  0  0  0
 36 37  1  0  0  0
 36 60  1  0  0  0
 36 61  1  0  0  0
 37 38  1  0  0  0
 37 39  1  0  0  0
 37 62  1  0  0  0
 38 63  1  0  0  0
 39 40  1  0  0  0
 39 64  1  0  0  0
 39 65  1  0  0  0
 40 66  1  0  0  0
 40 67  1  0  0  0
M  END
> <s_m_entry_id>
47493

> <s_m_entry_name>
dock_pv.26

> <s_m_Source_Path>
/home/csk/Desktop/cluster/DUD-E-result/fak1

> <s_m_Source_File>
dock_pv.maegz

> <i_m_Source_File_Index>
26

> <chembl_id>
CHEMBL3913867

> <chembl_pref_name>
None

> <i_lp_mmshare_version>
53161

> <i_f3d_flags>
0

> <r_lp_tautomer_probability>
0.999949917916752

> <s_lp_Force_Field>
OPLS_2005

> <r_lp_Energy>
42.718622

> <b_lp_Chiralities_Consistent>
1

> <s_lp_Variant>
CHEMBL2695_lig969-2

> <s_i_glide_gridfile>
glide-grid_3bz3

> <i_i_glide_lignum>
1046

> <i_i_glide_rotatable_bonds>
10

> <r_i_docking_score>
-9.77151976785202

> <r_i_glide_ligand_efficiency>
-0.2442879941963

> <r_i_glide_ligand_efficiency_sa>
-0.835453187247845

> <r_i_glide_ligand_efficiency_ln>
-2.08397760349302

> <r_i_glide_gscore>
-9.77151976785202

> <r_i_glide_lipo>
-2.81805779425636

> <r_i_glide_hbond>
-0.481602850332066

> <r_i_glide_metal>
0

> <r_i_glide_rewards>
-2.70816428566194

> <r_i_glide_evdw>
-50.7940979003906

> <r_i_glide_ecoul>
-10.2852830886841

> <r_i_glide_erotb>
0.393557237112029

> <r_i_glide_esite>
-0.0747547163915376

> <r_i_glide_emodel>
-96.275997646048

> <r_i_glide_energy>
-61.0793809890747

> <r_i_glide_einternal>
3.61992788314819

> <i_i_glide_confnum>
2

> <i_i_glide_posenum>
74

> <r_i_glide_eff_state_penalty>
0

> <s_user_duplicate_titles>
CHEMBL2695_lig969

> <s_m_subgroup_title>
dock_pv

> <s_m_subgroupid>
dock_pv

> <b_m_subgroup_collapsed>
1

$$$$
CHEMBL2695_lig604
                    3D
 Schrodinger Suite 2021-1.
 54 59  0  0  1  0            999 V2000
    5.2926    3.4779    9.7758 C   0  0  0  0  0  0
    6.6269    3.8974    9.3878 N   0  0  0  0  0  0
    7.5220    4.1997   10.3464 N   0  0  0  0  0  0
    8.6313    4.5169    9.7348 C   0  0  0  0  0  0
    8.5055    4.4312    8.3136 C   0  0  0  0  0  0
    9.3428    4.6676    7.2006 C   0  0  0  0  0  0
    8.8121    4.3863    5.9340 C   0  0  0  0  0  0
    7.5075    3.9294    5.7630 C   0  0  0  0  0  0
    6.6530    3.7225    6.8452 C   0  0  0  0  0  0
    7.1744    3.9784    8.1180 C   0  0  0  0  0  0
   10.7510    5.1331    7.3607 C   0  0  0  0  0  0
   11.1220    6.1402    8.2702 C   0  0  0  0  0  0
   12.4524    6.4595    8.5324 C   0  0  0  0  0  0
   13.4632    5.7396    7.9090 C   0  0  0  0  0  0
   13.1152    4.7630    7.0227 N   0  0  0  0  0  0
   13.9334    3.8620    6.4420 N   0  0  0  0  0  0
   13.0869    3.0606    5.8247 C   0  0  0  0  0  0
   13.5594    2.0016    5.0943 N   0  0  0  0  0  0
   12.8776    1.1630    4.1910 C   0  0  0  0  0  0
   11.5220    0.8360    4.3090 C   0  0  0  0  0  0
   10.9360   -0.0588    3.4226 C   0  0  0  0  0  0
   11.6730   -0.6782    2.4052 C   0  0  0  0  0  0
   10.9484   -1.7325    1.5569 C   0  0  0  0  0  0
   11.4193   -1.9706    0.1146 C   0  0  0  0  0  0
   12.6443   -2.7450   -0.0508 N   0  0  1  0  0  0
   13.7302   -2.4662    0.8782 C   0  0  0  0  0  0
   13.9608   -0.9843    1.2123 C   0  0  0  0  0  0
   13.0502   -0.3607    2.2760 C   0  0  0  0  0  0
   13.6119    0.5803    3.1531 C   0  0  0  0  0  0
   11.8079    3.3613    5.9090 N   0  0  0  0  0  0
   11.7957    4.4434    6.7112 C   0  0  0  0  0  0
    4.5775    3.7626    9.0039 H   0  0  0  0  0  0
    5.2784    2.3954    9.9086 H   0  0  0  0  0  0
    5.0065    3.9632   10.7090 H   0  0  0  0  0  0
    9.5059    4.7892   10.3001 H   0  0  0  0  0  0
    9.4257    4.5252    5.0551 H   0  0  0  0  0  0
    7.1510    3.7275    4.7629 H   0  0  0  0  0  0
    5.6418    3.3719    6.6991 H   0  0  0  0  0  0
   10.3637    6.6487    8.8423 H   0  0  0  0  0  0
   12.6968    7.2216    9.2594 H   0  0  0  0  0  0
   14.5058    5.8479    8.1314 H   0  0  0  0  0  0
   14.5555    1.8401    5.0948 H   0  0  0  0  0  0
   10.9092    1.2374    5.1005 H   0  0  0  0  0  0
    9.8877   -0.2928    3.5471 H   0  0  0  0  0  0
   10.9415   -2.6761    2.1039 H   0  0  0  0  0  0
    9.9005   -1.4319    1.5006 H   0  0  0  0  0  0
   10.6351   -2.4807   -0.4466 H   0  0  0  0  0  0
   11.5341   -1.0037   -0.3774 H   0  0  0  0  0  0
   12.4088   -3.7301   -0.0154 H   0  0  0  0  0  0
   13.5423   -3.0119    1.8048 H   0  0  0  0  0  0
   14.6391   -2.9115    0.4719 H   0  0  0  0  0  0
   13.9222   -0.3744    0.3089 H   0  0  0  0  0  0
   14.9877   -0.8981    1.5718 H   0  0  0  0  0  0
   14.6608    0.8236    3.0607 H   0  0  0  0  0  0
  1  2  1  0  0  0
  1 32  1  0  0  0
  1 33  1  0  0  0
  1 34  1  0  0  0
  2  3  1  0  0  0
  2 10  1  0  0  0
  3  4  2  0  0  0
  4  5  1  0  0  0
  4 35  1  0  0  0
  5  6  2  0  0  0
  5 10  1  0  0  0
  6  7  1  0  0  0
  6 11  1  0  0  0
  7  8  2  0  0  0
  7 36  1  0  0  0
  8  9  1  0  0  0
  8 37  1  0  0  0
  9 10  2  0  0  0
  9 38  1  0  0  0
 11 12  2  0  0  0
 11 31  1  0  0  0
 12 13  1  0  0  0
 12 39  1  0  0  0
 13 14  2  0  0  0
 13 40  1  0  0  0
 14 15  1  0  0  0
 14 41  1  0  0  0
 15 16  1  0  0  0
 15 31  1  0  0  0
 16 17  2  0  0  0
 17 18  1  0  0  0
 17 30  1  0  0  0
 18 19  1  0  0  0
 18 42  1  0  0  0
 19 20  2  0  0  0
 19 29  1  0  0  0
 20 21  1  0  0  0
 20 43  1  0  0  0
 21 22  2  0  0  0
 21 44  1  0  0  0
 22 23  1  0  0  0
 22 28  1  0  0  0
 23 24  1  0  0  0
 23 45  1  0  0  0
 23 46  1  0  0  0
 24 25  1  0  0  0
 24 47  1  0  0  0
 24 48  1  0  0  0
 25 26  1  0  0  0
 25 49  1  0  0  0
 26 27  1  0  0  0
 26 50  1  0  0  0
 26 51  1  0  0  0
 27 28  1  0  0  0
 27 52  1  0  0  0
 27 53  1  0  0  0
 28 29  2  0  0  0
 29 54  1  0  0  0
 30 31  2  0  0  0
M  END
> <s_m_entry_id>
47494

> <s_m_entry_name>
dock_pv.27

> <s_m_Source_Path>
/home/csk/Desktop/cluster/DUD-E-result/fak1

> <s_m_Source_File>
dock_pv.maegz

> <i_m_Source_File_Index>
27

> <chembl_id>
CHEMBL3645026

> <chembl_pref_name>
None

> <i_lp_mmshare_version>
53161

> <i_f3d_flags>
0

> <r_lp_tautomer_probability>
1

> <s_lp_Force_Field>
OPLS_2005

> <r_lp_Energy>
30.970072

> <b_lp_Chiralities_Consistent>
1

> <s_lp_Variant>
CHEMBL2695_lig604-1

> <s_i_glide_gridfile>
glide-grid_3bz3

> <i_i_glide_lignum>
658

> <i_i_glide_rotatable_bonds>
3

> <r_i_docking_score>
-9.73769990597491

> <r_i_glide_ligand_efficiency>
-0.314119351805642

> <r_i_glide_ligand_efficiency_sa>
-0.986768453174453

> <r_i_glide_ligand_efficiency_ln>
-2.19614975346001

> <r_i_glide_gscore>
-9.73769990597491

> <r_i_glide_lipo>
-3.42042071223413

> <r_i_glide_hbond>
-0.408289937758543

> <r_i_glide_metal>
0

> <r_i_glide_rewards>
-2.87280101760458

> <r_i_glide_evdw>
-41.9990196228027

> <r_i_glide_ecoul>
-8.59026336669922

> <r_i_glide_erotb>
0.35230224776736

> <r_i_glide_esite>
0

> <r_i_glide_emodel>
-74.6685848990824

> <r_i_glide_energy>
-50.589282989502

> <r_i_glide_einternal>
4.69760036468506

> <i_i_glide_confnum>
16

> <i_i_glide_posenum>
59

> <r_i_glide_eff_state_penalty>
0

> <s_user_duplicate_titles>
CHEMBL2695_lig604

> <s_m_subgroup_title>
dock_pv

> <s_m_subgroupid>
dock_pv

> <b_m_subgroup_collapsed>
1

$$$$
CHEMBL2695_lig1032
                    3D
 Schrodinger Suite 2021-1.
 65 69  0  0  1  0            999 V2000
   15.1344   -0.2357    1.9168 C   0  0  0  0  0  0
   14.5512    0.5960    2.9134 O   0  0  0  0  0  0
   13.1966    0.4738    3.1747 C   0  0  0  0  0  0
   12.3374   -0.3371    2.4075 C   0  0  0  0  0  0
   10.9698   -0.4388    2.6857 C   0  0  0  0  0  0
   10.4640    0.2968    3.7641 C   0  0  0  0  0  0
   11.2976    1.0654    4.5648 C   0  0  0  0  0  0
   12.6695    1.1630    4.2903 C   0  0  0  0  0  0
   13.5225    1.9480    5.1083 N   0  0  0  0  0  0
   13.2748    3.0797    5.9104 C   0  0  0  0  0  0
   14.3216    3.5631    6.6356 N   0  0  0  0  0  0
   14.0810    4.6702    7.3923 C   0  0  0  0  0  0
   12.8498    5.3200    7.4200 C   0  0  0  0  0  0
   12.5963    6.7004    8.4284 Cl  0  0  0  0  0  0
   11.8288    4.7605    6.6498 C   0  0  0  0  0  0
   10.5584    5.2939    6.7120 O   0  0  0  0  0  0
    9.4364    4.5300    6.4763 C   0  0  0  0  0  0
    9.1371    4.0005    5.2139 C   0  0  0  0  0  0
    7.9729    3.2528    5.0247 C   0  0  0  0  0  0
    7.0782    3.0678    6.0803 C   0  0  0  0  0  0
    7.3659    3.6181    7.3330 C   0  0  0  0  0  0
    6.5900    3.5911    8.6190 C   0  0  1  0  0  0
    6.2332    2.1847    9.1099 C   0  0  0  0  0  0
    7.4835    4.3081    9.5276 N   0  0  0  0  0  0
    7.1728    4.5094   10.9440 C   0  0  0  0  0  0
    8.6232    4.7621    8.9602 C   0  0  0  0  0  0
    9.5217    5.3963    9.5116 O   0  0  0  0  0  0
    8.5389    4.3223    7.5299 C   0  0  0  0  0  0
   12.0368    3.6352    5.9094 N   0  0  0  0  0  0
   10.1582   -1.2890    1.9376 N   0  0  0  0  0  0
    8.7973   -1.6740    2.3575 C   0  0  0  0  0  0
    8.3291   -3.0432    1.8079 C   0  0  0  0  0  0
    8.4655   -3.1166    0.3527 N   0  0  0  0  0  0
    8.0419   -4.4355   -0.1109 C   0  0  0  0  0  0
    9.8672   -2.8763    0.0106 C   0  0  0  0  0  0
   10.2974   -1.4644    0.4785 C   0  0  0  0  0  0
   16.2036   -0.0328    1.8619 H   0  0  0  0  0  0
   15.0128   -1.2918    2.1573 H   0  0  0  0  0  0
   14.6987   -0.0498    0.9351 H   0  0  0  0  0  0
   12.7381   -0.9160    1.5936 H   0  0  0  0  0  0
    9.4089    0.2800    3.9981 H   0  0  0  0  0  0
   10.8540    1.5651    5.4120 H   0  0  0  0  0  0
   14.4967    1.6790    5.0596 H   0  0  0  0  0  0
   14.8751    4.9960    8.0401 H   0  0  0  0  0  0
    9.8145    4.1580    4.3867 H   0  0  0  0  0  0
    7.7600    2.8194    4.0569 H   0  0  0  0  0  0
    6.1742    2.4969    5.9148 H   0  0  0  0  0  0
    5.6733    4.1729    8.5080 H   0  0  0  0  0  0
    5.6194    1.6553    8.3812 H   0  0  0  0  0  0
    7.1272    1.5891    9.2957 H   0  0  0  0  0  0
    5.6648    2.2346   10.0361 H   0  0  0  0  0  0
    7.8425    5.2363   11.4181 H   0  0  0  0  0  0
    6.1468    4.8695   11.0612 H   0  0  0  0  0  0
    7.2593    3.5634   11.4837 H   0  0  0  0  0  0
    8.7496   -1.7134    3.4436 H   0  0  0  0  0  0
    8.0906   -0.9059    2.0334 H   0  0  0  0  0  0
    8.8947   -3.8441    2.2917 H   0  0  0  0  0  0
    7.2825   -3.1932    2.0746 H   0  0  0  0  0  0
    8.1312   -4.5019   -1.1953 H   0  0  0  0  0  0
    8.6428   -5.2395    0.3273 H   0  0  0  0  0  0
    6.9941   -4.6142    0.1393 H   0  0  0  0  0  0
    9.9936   -2.9530   -1.0690 H   0  0  0  0  0  0
   10.5152   -3.6340    0.4589 H   0  0  0  0  0  0
    9.6617   -0.7208   -0.0049 H   0  0  0  0  0  0
   11.3045   -1.2559    0.1242 H   0  0  0  0  0  0
  1  2  1  0  0  0
  1 37  1  0  0  0
  1 38  1  0  0  0
  1 39  1  0  0  0
  2  3  1  0  0  0
  3  4  2  0  0  0
  3  8  1  0  0  0
  4  5  1  0  0  0
  4 40  1  0  0  0
  5  6  2  0  0  0
  5 30  1  0  0  0
  6  7  1  0  0  0
  6 41  1  0  0  0
  7  8  2  0  0  0
  7 42  1  0  0  0
  8  9  1  0  0  0
  9 10  1  0  0  0
  9 43  1  0  0  0
 10 11  2  0  0  0
 10 29  1  0  0  0
 11 12  1  0  0  0
 12 13  2  0  0  0
 12 44  1  0  0  0
 13 14  1  0  0  0
 13 15  1  0  0  0
 15 16  1  0  0  0
 15 29  2  0  0  0
 16 17  1  0  0  0
 17 18  2  0  0  0
 17 28  1  0  0  0
 18 19  1  0  0  0
 18 45  1  0  0  0
 19 20  2  0  0  0
 19 46  1  0  0  0
 20 21  1  0  0  0
 20 47  1  0  0  0
 21 22  1  0  0  0
 21 28  2  0  0  0
 22 23  1  0  0  0
 22 24  1  0  0  0
 22 48  1  0  0  0
 23 49  1  0  0  0
 23 50  1  0  0  0
 23 51  1  0  0  0
 24 25  1  0  0  0
 24 26  1  0  0  0
 25 52  1  0  0  0
 25 53  1  0  0  0
 25 54  1  0  0  0
 26 27  2  0  0  0
 26 28  1  0  0  0
 30 31  1  0  0  0
 30 36  1  0  0  0
 31 32  1  0  0  0
 31 55  1  0  0  0
 31 56  1  0  0  0
 32 33  1  0  0  0
 32 57  1  0  0  0
 32 58  1  0  0  0
 33 34  1  0  0  0
 33 35  1  0  0  0
 34 59  1  0  0  0
 34 60  1  0  0  0
 34 61  1  0  0  0
 35 36  1  0  0  0
 35 62  1  0  0  0
 35 63  1  0  0  0
 36 64  1  0  0  0
 36 65  1  0  0  0
M  END
> <s_m_entry_id>
47495

> <s_m_entry_name>
dock_pv.28

> <s_m_Source_Path>
/home/csk/Desktop/cluster/DUD-E-result/fak1

> <s_m_Source_File>
dock_pv.maegz

> <i_m_Source_File_Index>
28

> <chembl_id>
CHEMBL3657331

> <chembl_pref_name>
None

> <i_lp_mmshare_version>
53161

> <i_f3d_flags>
0

> <r_lp_tautomer_probability>
0.999999917912647

> <s_lp_Force_Field>
OPLS_2005

> <r_lp_Energy>
67.358582

> <b_lp_Chiralities_Consistent>
1

> <s_lp_Variant>
CHEMBL2695_lig1032-2

> <s_i_glide_gridfile>
glide-grid_3bz3

> <i_i_glide_lignum>
1116

> <i_i_glide_rotatable_bonds>
6

> <r_i_docking_score>
-9.71463923521659

> <r_i_glide_ligand_efficiency>
-0.269851089867127

> <r_i_glide_ligand_efficiency_sa>
-0.891028665711841

> <r_i_glide_ligand_efficiency_ln>
-2.11947182190302

> <r_i_glide_gscore>
-9.71463923521659

> <r_i_glide_lipo>
-2.7814195939943

> <r_i_glide_hbond>
-0.787676890784663

> <r_i_glide_metal>
0

> <r_i_glide_rewards>
-2.54207435486448

> <r_i_glide_evdw>
-47.4129028320312

> <r_i_glide_ecoul>
-10.6505031585693

> <r_i_glide_erotb>
0.395186138504904

> <r_i_glide_esite>
-0.0304339186910942

> <r_i_glide_emodel>
-85.1255008920437

> <r_i_glide_energy>
-58.0634059906006

> <r_i_glide_einternal>
4.02683782577515

> <i_i_glide_confnum>
8

> <i_i_glide_posenum>
139

> <r_i_glide_eff_state_penalty>
0

> <s_user_duplicate_titles>
CHEMBL2695_lig1032

> <s_m_subgroup_title>
dock_pv

> <s_m_subgroupid>
dock_pv

> <b_m_subgroup_collapsed>
1

$$$$
CHEMBL2695_lig498
                    3D
 Schrodinger Suite 2021-1.
 61 65  0  0  1  0            999 V2000
    5.1969    1.9622    5.6813 C   0  0  0  0  0  0
    5.2844    3.8330    5.7579 S   0  0  0  0  0  0
    5.1120    4.3628    4.4047 O   0  0  0  0  0  0
    4.4350    4.3003    6.8589 O   0  0  0  0  0  0
    6.9799    4.1472    6.2050 C   0  0  0  0  0  0
    7.9620    4.1967    5.2205 C   0  0  0  0  0  0
    9.2704    4.5019    5.5718 C   0  0  0  0  0  0
    9.6267    4.7630    6.9029 C   0  0  0  0  0  0
    8.6456    4.6436    7.9096 C   0  0  0  0  0  0
    9.0285    4.8567    9.2222 O   0  0  0  0  0  0
    8.0940    4.7354   10.2943 C   0  0  0  0  0  0
    7.7006    3.2991   10.6590 C   0  0  0  0  0  0
    6.7413    2.7636    9.9088 F   0  0  0  0  0  0
    8.7204    2.4461   10.7091 F   0  0  0  0  0  0
    7.3212    4.3625    7.5369 C   0  0  0  0  0  0
   11.0387    5.1327    7.2172 C   0  0  0  0  0  0
   11.3868    6.1568    8.1181 C   0  0  0  0  0  0
   12.6992    6.3705    8.5314 C   0  0  0  0  0  0
   13.7099    5.5554    8.0409 C   0  0  0  0  0  0
   13.3981    4.6096    7.1116 N   0  0  0  0  0  0
   14.2192    3.6720    6.6014 N   0  0  0  0  0  0
   13.3950    2.9471    5.8671 C   0  0  0  0  0  0
   13.9220    1.9630    5.0768 N   0  0  0  0  0  0
   13.3987    1.1630    4.0463 C   0  0  0  0  0  0
   14.3217    0.6193    3.1568 C   0  0  0  0  0  0
   13.9138   -0.2575    2.1609 C   0  0  0  0  0  0
   12.5708   -0.6219    2.0214 C   0  0  0  0  0  0
   12.1798   -1.6190    0.9308 C   0  0  0  0  0  0
   11.4828   -2.9060    1.3993 C   0  0  0  0  0  0
   10.0914   -2.7430    1.7709 N   0  0  2  0  0  0
    9.7932   -1.9378    2.9405 C   0  0  0  0  0  0
   10.1371   -0.4458    2.8221 C   0  0  0  0  0  0
   11.6180   -0.0763    2.9122 C   0  0  0  0  0  0
   12.0488    0.8099    3.9091 C   0  0  0  0  0  0
   12.1171    3.2588    5.9090 N   0  0  0  0  0  0
   12.0942    4.3581    6.6982 C   0  0  0  0  0  0
    4.1832    1.6708    5.4139 H   0  0  0  0  0  0
    5.4630    1.5505    6.6535 H   0  0  0  0  0  0
    5.8954    1.6043    4.9257 H   0  0  0  0  0  0
    7.7146    4.0205    4.1841 H   0  0  0  0  0  0
   10.0130    4.5578    4.7888 H   0  0  0  0  0  0
    8.5895    5.1642   11.1586 H   0  0  0  0  0  0
    7.2029    5.3402   10.1487 H   0  0  0  0  0  0
    7.2937    3.3559   11.6638 H   0  0  0  0  0  0
    6.5280    4.3406    8.2647 H   0  0  0  0  0  0
   10.6316    6.7625    8.5813 H   0  0  0  0  0  0
   12.9213    7.1279    9.2705 H   0  0  0  0  0  0
   14.7220    5.5638    8.3975 H   0  0  0  0  0  0
   14.8914    1.7289    5.2432 H   0  0  0  0  0  0
   15.3734    0.8470    3.2549 H   0  0  0  0  0  0
   14.6630   -0.6761    1.5054 H   0  0  0  0  0  0
   11.5838   -1.1065    0.1745 H   0  0  0  0  0  0
   13.0878   -1.9219    0.4090 H   0  0  0  0  0  0
   11.5093   -3.6305    0.5845 H   0  0  0  0  0  0
   12.0391   -3.3610    2.2205 H   0  0  0  0  0  0
    9.5902   -3.6207    1.7933 H   0  0  0  0  0  0
    8.7213   -2.0263    3.1089 H   0  0  0  0  0  0
   10.2681   -2.3678    3.8234 H   0  0  0  0  0  0
    9.6032    0.0773    3.6164 H   0  0  0  0  0  0
    9.7200   -0.0369    1.9016 H   0  0  0  0  0  0
   11.3256    1.2063    4.6059 H   0  0  0  0  0  0
  1  2  1  0  0  0
  1 37  1  0  0  0
  1 38  1  0  0  0
  1 39  1  0  0  0
  2  3  2  0  0  0
  2  4  2  0  0  0
  2  5  1  0  0  0
  5  6  2  0  0  0
  5 15  1  0  0  0
  6  7  1  0  0  0
  6 40  1  0  0  0
  7  8  2  0  0  0
  7 41  1  0  0  0
  8  9  1  0  0  0
  8 16  1  0  0  0
  9 10  1  0  0  0
  9 15  2  0  0  0
 10 11  1  0  0  0
 11 12  1  0  0  0
 11 42  1  0  0  0
 11 43  1  0  0  0
 12 13  1  0  0  0
 12 14  1  0  0  0
 12 44  1  0  0  0
 15 45  1  0  0  0
 16 17  2  0  0  0
 16 36  1  0  0  0
 17 18  1  0  0  0
 17 46  1  0  0  0
 18 19  2  0  0  0
 18 47  1  0  0  0
 19 20  1  0  0  0
 19 48  1  0  0  0
 20 21  1  0  0  0
 20 36  1  0  0  0
 21 22  2  0  0  0
 22 23  1  0  0  0
 22 35  1  0  0  0
 23 24  1  0  0  0
 23 49  1  0  0  0
 24 25  2  0  0  0
 24 34  1  0  0  0
 25 26  1  0  0  0
 25 50  1  0  0  0
 26 27  2  0  0  0
 26 51  1  0  0  0
 27 28  1  0  0  0
 27 33  1  0  0  0
 28 29  1  0  0  0
 28 52  1  0  0  0
 28 53  1  0  0  0
 29 30  1  0  0  0
 29 54  1  0  0  0
 29 55  1  0  0  0
 30 31  1  0  0  0
 30 56  1  0  0  0
 31 32  1  0  0  0
 31 57  1  0  0  0
 31 58  1  0  0  0
 32 33  1  0  0  0
 32 59  1  0  0  0
 32 60  1  0  0  0
 33 34  2  0  0  0
 34 61  1  0  0  0
 35 36  2  0  0  0
M  END
> <s_m_entry_id>
47496

> <s_m_entry_name>
dock_pv.29

> <s_m_Source_Path>
/home/csk/Desktop/cluster/DUD-E-result/fak1

> <s_m_Source_File>
dock_pv.maegz

> <i_m_Source_File_Index>
29

> <chembl_id>
CHEMBL3645081

> <chembl_pref_name>
None

> <i_lp_mmshare_version>
53161

> <i_f3d_flags>
0

> <r_lp_tautomer_probability>
1

> <s_lp_Force_Field>
OPLS_2005

> <r_lp_Energy>
26.926491

> <b_lp_Chiralities_Consistent>
1

> <s_lp_Variant>
CHEMBL2695_lig498-1

> <s_i_glide_gridfile>
glide-grid_3bz3

> <i_i_glide_lignum>
552

> <i_i_glide_rotatable_bonds>
7

> <r_i_docking_score>
-9.70872852316861

> <r_i_glide_ligand_efficiency>
-0.26968690342135

> <r_i_glide_ligand_efficiency_sa>
-0.890486534013279

> <r_i_glide_ligand_efficiency_ln>
-2.11818226422314

> <r_i_glide_gscore>
-9.70872852316861

> <r_i_glide_lipo>
-3.8365312318363

> <r_i_glide_hbond>
-0.560971057433724

> <r_i_glide_metal>
0

> <r_i_glide_rewards>
-2.50428898614739

> <r_i_glide_evdw>
-41.5408668518066

> <r_i_glide_ecoul>
-7.45772552490234

> <r_i_glide_erotb>
0.388764923574478

> <r_i_glide_esite>
0

> <r_i_glide_emodel>
-66.601079766644

> <r_i_glide_energy>
-48.998592376709

> <r_i_glide_einternal>
9.10787487030029

> <i_i_glide_confnum>
9

> <i_i_glide_posenum>
15

> <r_i_glide_eff_state_penalty>
0

> <s_user_duplicate_titles>
CHEMBL2695_lig498

> <s_m_subgroup_title>
dock_pv

> <s_m_subgroupid>
dock_pv

> <b_m_subgroup_collapsed>
1

$$$$
CHEMBL2695_lig1045
                    3D
 Schrodinger Suite 2021-1.
 48 51  0  0  1  0            999 V2000
   15.1167   -0.1382    2.0127 C   0  0  0  0  0  0
   14.4348    0.7249    2.9138 O   0  0  0  0  0  0
   13.0807    0.5294    3.1315 C   0  0  0  0  0  0
   12.2822   -0.2804    2.3053 C   0  0  0  0  0  0
   10.9078   -0.4371    2.5306 C   0  0  0  0  0  0
   10.3395    0.2036    3.6387 C   0  0  0  0  0  0
   11.1227    0.9777    4.4902 C   0  0  0  0  0  0
   12.4918    1.1630    4.2470 C   0  0  0  0  0  0
   13.3085    1.9268    5.1090 N   0  0  0  0  0  0
   13.0298    3.0412    5.9090 C   0  0  0  0  0  0
   14.0994    3.6151    6.5105 N   0  0  0  0  0  0
   13.8695    4.7630    7.1975 C   0  0  0  0  0  0
   12.6007    5.3410    7.2914 C   0  0  0  0  0  0
   11.5498    4.6662    6.6678 C   0  0  0  0  0  0
   10.2557    5.1248    6.8315 O   0  0  0  0  0  0
    9.1596    4.3046    6.6384 C   0  0  0  0  0  0
    8.8307    3.7618    5.3887 C   0  0  0  0  0  0
    7.7146    2.9315    5.2548 C   0  0  0  0  0  0
    6.8957    2.6693    6.3564 C   0  0  0  0  0  0
    7.1986    3.2426    7.5929 C   0  0  0  0  0  0
    6.4908    3.1680    8.9139 C   0  0  0  0  0  0
    7.3178    4.0301    9.7507 N   0  0  0  0  0  0
    6.9365    4.4115   11.1087 C   0  0  0  0  0  0
    8.4247    4.5119    9.1451 C   0  0  0  0  0  0
    9.3077    5.2024    9.6521 O   0  0  0  0  0  0
    8.3221    4.0401    7.7288 C   0  0  0  0  0  0
   11.7624    3.5199    5.9652 N   0  0  0  0  0  0
   10.0838   -1.2721    1.5755 C   0  0  0  0  0  0
   10.6031   -1.9187    0.6656 O   0  0  0  0  0  0
    8.7359   -1.2370    1.7765 O   0  0  0  0  0  0
   16.1743    0.1224    1.9850 H   0  0  0  0  0  0
   15.0332   -1.1812    2.3199 H   0  0  0  0  0  0
   14.7221   -0.0436    1.0017 H   0  0  0  0  0  0
   12.7205   -0.7760    1.4530 H   0  0  0  0  0  0
    9.2884    0.1147    3.8743 H   0  0  0  0  0  0
   10.6445    1.4131    5.3534 H   0  0  0  0  0  0
   14.2950    1.7262    5.0169 H   0  0  0  0  0  0
   14.7216    5.2005    7.6936 H   0  0  0  0  0  0
   12.4281    6.2408    7.8626 H   0  0  0  0  0  0
    9.4522    3.9665    4.5291 H   0  0  0  0  0  0
    7.4827    2.4899    4.2967 H   0  0  0  0  0  0
    6.0340    2.0281    6.2345 H   0  0  0  0  0  0
    5.4682    3.5452    8.8692 H   0  0  0  0  0  0
    6.4498    2.1571    9.3230 H   0  0  0  0  0  0
    5.9220    4.8079   11.1083 H   0  0  0  0  0  0
    6.9560    3.5630   11.7856 H   0  0  0  0  0  0
    7.5929    5.1774   11.5235 H   0  0  0  0  0  0
    8.4722   -0.5910    2.4333 H   0  0  0  0  0  0
  1  2  1  0  0  0
  1 31  1  0  0  0
  1 32  1  0  0  0
  1 33  1  0  0  0
  2  3  1  0  0  0
  3  4  2  0  0  0
  3  8  1  0  0  0
  4  5  1  0  0  0
  4 34  1  0  0  0
  5  6  2  0  0  0
  5 28  1  0  0  0
  6  7  1  0  0  0
  6 35  1  0  0  0
  7  8  2  0  0  0
  7 36  1  0  0  0
  8  9  1  0  0  0
  9 10  1  0  0  0
  9 37  1  0  0  0
 10 11  2  0  0  0
 10 27  1  0  0  0
 11 12  1  0  0  0
 12 13  2  0  0  0
 12 38  1  0  0  0
 13 14  1  0  0  0
 13 39  1  0  0  0
 14 15  1  0  0  0
 14 27  2  0  0  0
 15 16  1  0  0  0
 16 17  2  0  0  0
 16 26  1  0  0  0
 17 18  1  0  0  0
 17 40  1  0  0  0
 18 19  2  0  0  0
 18 41  1  0  0  0
 19 20  1  0  0  0
 19 42  1  0  0  0
 20 21  1  0  0  0
 20 26  2  0  0  0
 21 22  1  0  0  0
 21 43  1  0  0  0
 21 44  1  0  0  0
 22 23  1  0  0  0
 22 24  1  0  0  0
 23 45  1  0  0  0
 23 46  1  0  0  0
 23 47  1  0  0  0
 24 25  2  0  0  0
 24 26  1  0  0  0
 28 29  2  0  0  0
 28 30  1  0  0  0
 30 48  1  0  0  0
M  END
> <s_m_entry_id>
47497

> <s_m_entry_name>
dock_pv.30

> <s_m_Source_Path>
/home/csk/Desktop/cluster/DUD-E-result/fak1

> <s_m_Source_File>
dock_pv.maegz

> <i_m_Source_File_Index>
30

> <chembl_id>
CHEMBL3657343

> <chembl_pref_name>
None

> <i_lp_mmshare_version>
53161

> <i_f3d_flags>
0

> <r_lp_tautomer_probability>
0.999999917912647

> <s_lp_Force_Field>
OPLS_2005

> <r_lp_Energy>
31.439179

> <b_lp_Chiralities_Consistent>
1

> <s_lp_Variant>
CHEMBL2695_lig1045-1

> <s_i_glide_gridfile>
glide-grid_3bz3

> <i_i_glide_lignum>
1129

> <i_i_glide_rotatable_bonds>
7

> <r_i_docking_score>
-9.65916142709167

> <r_i_glide_ligand_efficiency>
-0.321972047569722

> <r_i_glide_ligand_efficiency_sa>
-1.00044201108293

> <r_i_glide_ligand_efficiency_ln>
-2.19466672122844

> <r_i_glide_gscore>
-9.65916142709167

> <r_i_glide_lipo>
-2.58466574355319

> <r_i_glide_hbond>
-0.592604538540408

> <r_i_glide_metal>
0

> <r_i_glide_rewards>
-2.98432419743859

> <r_i_glide_evdw>
-45.7561645507812

> <r_i_glide_ecoul>
-11.836537361145

> <r_i_glide_erotb>
0.595257971157394

> <r_i_glide_esite>
-0.029536087006066

> <r_i_glide_emodel>
-88.9675176508523

> <r_i_glide_energy>
-57.5927019119263

> <r_i_glide_einternal>
4.1008358001709

> <i_i_glide_confnum>
15

> <i_i_glide_posenum>
195

> <r_i_glide_eff_state_penalty>
0

> <s_user_duplicate_titles>
CHEMBL2695_lig1045

> <s_m_subgroup_title>
dock_pv

> <s_m_subgroupid>
dock_pv

> <b_m_subgroup_collapsed>
1

$$$$
CHEMBL2695_lig206
                    3D
 Schrodinger Suite 2021-1.
 42 45  0  0  1  0            999 V2000
   13.5141    0.5745    3.1741 C   0  0  0  0  0  0
   12.7990    1.1630    4.2230 C   0  0  0  0  0  0
   11.4260    0.9158    4.3705 C   0  0  0  0  0  0
   10.7220    0.0716    3.5090 C   0  0  0  0  0  0
   12.8412   -0.2920    2.3039 C   0  0  0  0  0  0
   11.4563   -0.5273    2.4830 C   0  0  0  0  0  0
   11.1041   -1.4029    1.4766 N   0  0  0  0  0  0
   12.1568   -1.7392    0.7090 N   0  0  0  0  0  0
   13.1916   -1.0911    1.1776 C   0  0  0  0  0  0
   13.5220    1.9765    5.1090 N   0  0  0  0  0  0
   13.1629    3.0718    5.9090 C   0  0  0  0  0  0
   11.8875    3.5385    5.9090 N   0  0  0  0  0  0
   11.6246    4.6682    6.6244 C   0  0  0  0  0  0
   12.6348    5.3431    7.3330 C   0  0  0  0  0  0
   13.9065    4.7630    7.2967 C   0  0  0  0  0  0
   14.1852    3.6350    6.5973 N   0  0  0  0  0  0
   12.3784    6.6152    8.1444 C   0  0  0  0  0  0
   11.8908    7.5710    7.3531 F   0  0  0  0  0  0
   11.4943    6.3630    9.1090 F   0  0  0  0  0  0
   13.4885    7.0814    8.7172 F   0  0  0  0  0  0
   10.3100    5.1587    6.6474 N   0  0  0  0  0  0
    9.1444    4.2761    6.5183 C   0  0  0  0  0  0
    8.4391    3.9731    7.8474 C   0  0  0  0  0  0
    7.4760    2.9589    7.9010 C   0  0  0  0  0  0
    6.7680    2.7630    9.0899 C   0  0  0  0  0  0
    7.0258    3.5829   10.1897 C   0  0  0  0  0  0
    8.0091    4.5633   10.0700 C   0  0  0  0  0  0
    8.7131    4.7630    8.9268 N   0  0  0  0  0  0
   14.5727    0.7535    3.0577 H   0  0  0  0  0  0
   10.8812    1.3647    5.1864 H   0  0  0  0  0  0
    9.6614   -0.0993    3.6318 H   0  0  0  0  0  0
   10.1895   -1.7905    1.2920 H   0  0  0  0  0  0
   14.1681   -1.1973    0.7314 H   0  0  0  0  0  0
   14.5102    1.7678    5.1386 H   0  0  0  0  0  0
   14.7220    5.1731    7.8664 H   0  0  0  0  0  0
   10.1599    5.9839    7.2092 H   0  0  0  0  0  0
    9.4099    3.3350    6.0354 H   0  0  0  0  0  0
    8.4268    4.7630    5.8572 H   0  0  0  0  0  0
    7.2634    2.3450    7.0370 H   0  0  0  0  0  0
    6.0150    1.9902    9.1547 H   0  0  0  0  0  0
    6.4690    3.4679   11.1090 H   0  0  0  0  0  0
    8.2317    5.2223   10.8968 H   0  0  0  0  0  0
  1  2  2  0  0  0
  1  5  1  0  0  0
  1 29  1  0  0  0
  2  3  1  0  0  0
  2 10  1  0  0  0
  3  4  2  0  0  0
  3 30  1  0  0  0
  4  6  1  0  0  0
  4 31  1  0  0  0
  5  9  1  0  0  0
  5  6  2  0  0  0
  6  7  1  0  0  0
  7  8  1  0  0  0
  7 32  1  0  0  0
  8  9  2  0  0  0
  9 33  1  0  0  0
 10 11  1  0  0  0
 10 34  1  0  0  0
 11 16  1  0  0  0
 11 12  2  0  0  0
 12 13  1  0  0  0
 13 14  2  0  0  0
 13 21  1  0  0  0
 14 15  1  0  0  0
 14 17  1  0  0  0
 15 16  2  0  0  0
 15 35  1  0  0  0
 17 18  1  0  0  0
 17 19  1  0  0  0
 17 20  1  0  0  0
 21 22  1  0  0  0
 21 36  1  0  0  0
 22 23  1  0  0  0
 22 37  1  0  0  0
 22 38  1  0  0  0
 23 24  2  0  0  0
 23 28  1  0  0  0
 24 25  1  0  0  0
 24 39  1  0  0  0
 25 26  2  0  0  0
 25 40  1  0  0  0
 26 27  1  0  0  0
 26 41  1  0  0  0
 27 28  2  0  0  0
 27 42  1  0  0  0
M  END
> <s_m_entry_id>
47498

> <s_m_entry_name>
dock_pv.31

> <s_m_Source_Path>
/home/csk/Desktop/cluster/DUD-E-result/fak1

> <s_m_Source_File>
dock_pv.maegz

> <i_m_Source_File_Index>
31

> <chembl_id>
CHEMBL471526

> <chembl_pref_name>
None

> <i_lp_mmshare_version>
53161

> <i_f3d_flags>
0

> <r_lp_tautomer_probability>
0.983170142140339

> <s_lp_Force_Field>
OPLS_2005

> <r_lp_Energy>
2.084994

> <b_lp_Chiralities_Consistent>
1

> <s_lp_Variant>
CHEMBL2695_lig206-1

> <s_i_glide_gridfile>
glide-grid_3bz3

> <i_i_glide_lignum>
237

> <i_i_glide_rotatable_bonds>
6

> <r_i_docking_score>
-9.65182349808052

> <r_i_glide_ligand_efficiency>
-0.344707982074304

> <r_i_glide_ligand_efficiency_sa>
-1.0467364557217

> <r_i_glide_ligand_efficiency_ln>
-2.22792425320895

> <r_i_glide_gscore>
-9.65182349808052

> <r_i_glide_lipo>
-3.19583650853771

> <r_i_glide_hbond>
-0.509150972665802

> <r_i_glide_metal>
0

> <r_i_glide_rewards>
-3.38419093576456

> <r_i_glide_evdw>
-43.0211334228516

> <r_i_glide_ecoul>
-7.04611825942993

> <r_i_glide_erotb>
0.654989056045772

> <r_i_glide_esite>
-0.00965972710115456

> <r_i_glide_emodel>
-76.5019949011417

> <r_i_glide_energy>
-50.0672516822815

> <r_i_glide_einternal>
5.11039257049561

> <i_i_glide_confnum>
60

> <i_i_glide_posenum>
373

> <r_i_glide_eff_state_penalty>
0

> <s_user_duplicate_titles>
CHEMBL2695_lig206,452731

> <s_m_subgroup_title>
dock_pv

> <s_m_subgroupid>
dock_pv

> <b_m_subgroup_collapsed>
1

$$$$
CHEMBL2695_lig331
                    3D
 Schrodinger Suite 2021-1.
 48 52  0  0  1  0            999 V2000
    7.8230    4.2043    8.7839 C   0  0  0  0  0  0
    6.5953    3.7056    9.0455 N   0  0  0  0  0  0
    5.8970    3.1386    7.8990 C   0  0  0  0  0  0
    6.8732    3.3799    6.7909 C   0  0  0  0  0  0
    6.8192    3.0562    5.4331 C   0  0  0  0  0  0
    7.8845    3.4190    4.6052 C   0  0  0  0  0  0
    8.9740    4.1026    5.1113 C   0  0  0  0  0  0
    9.0712    4.3312    6.4801 C   0  0  0  0  0  0
    7.9927    4.0083    7.3082 C   0  0  0  0  0  0
    8.6145    4.7112    9.5822 O   0  0  0  0  0  0
    6.0057    3.7029   10.3760 C   0  0  0  0  0  0
   10.2590    4.8310    6.9933 N   0  0  0  0  0  0
   13.2809    2.9071    5.9090 C   0  0  0  0  0  0
   11.9038    3.2160    6.0355 C   0  0  0  0  0  0
   11.5712    4.4266    6.7130 C   0  0  0  0  0  0
   12.6186    5.1911    7.2586 C   0  0  0  0  0  0
   13.9220    4.7247    7.1089 C   0  0  0  0  0  0
   14.2877    3.5996    6.4422 N   0  0  0  0  0  0
   13.3890    1.7880    5.1103 N   0  0  0  0  0  0
   11.2170    2.0931    5.4401 C   0  0  0  0  0  0
   12.1394    1.3596    4.7089 C   0  0  0  0  0  0
   11.9211    0.3754    3.5857 C   0  0  0  0  0  0
   10.6551   -0.1832    3.3825 C   0  0  0  0  0  0
   10.4357   -1.0636    2.3262 C   0  0  0  0  0  0
   11.4824   -1.3862    1.4660 C   0  0  0  0  0  0
   12.7472   -0.8388    1.6573 C   0  0  0  0  0  0
   12.9659    0.0444    2.7093 C   0  0  0  0  0  0
   11.2726   -2.2303    0.4303 F   0  0  0  0  0  0
   12.3665    6.4882    8.0475 C   0  0  0  0  0  0
   11.5788    6.2433    9.0969 F   0  0  0  0  0  0
   13.4896    7.0403    8.5103 F   0  0  0  0  0  0
   11.7679    7.3855    7.2617 F   0  0  0  0  0  0
    5.6880    2.0790    8.0597 H   0  0  0  0  0  0
    4.9429    3.6436    7.7405 H   0  0  0  0  0  0
    5.9763    2.5224    5.0187 H   0  0  0  0  0  0
    7.9219    3.1644    3.5583 H   0  0  0  0  0  0
    9.7877    4.3616    4.4488 H   0  0  0  0  0  0
    6.6176    4.2251   11.1157 H   0  0  0  0  0  0
    5.0262    4.1799   10.3557 H   0  0  0  0  0  0
    5.8803    2.6721   10.7056 H   0  0  0  0  0  0
   10.1593    5.3210    7.8730 H   0  0  0  0  0  0
   14.7221    5.2734    7.5619 H   0  0  0  0  0  0
   14.2439    1.3483    4.8005 H   0  0  0  0  0  0
   10.1538    1.9219    5.3919 H   0  0  0  0  0  0
    9.8275    0.0766    4.0243 H   0  0  0  0  0  0
    9.4525   -1.4832    2.1693 H   0  0  0  0  0  0
   13.5543   -1.0932    0.9876 H   0  0  0  0  0  0
   13.9509    0.4688    2.8364 H   0  0  0  0  0  0
  1  2  1  0  0  0
  1  9  1  0  0  0
  1 10  2  0  0  0
  2  3  1  0  0  0
  2 11  1  0  0  0
  3  4  1  0  0  0
  3 33  1  0  0  0
  3 34  1  0  0  0
  4  5  1  0  0  0
  4  9  2  0  0  0
  5  6  2  0  0  0
  5 35  1  0  0  0
  6  7  1  0  0  0
  6 36  1  0  0  0
  7  8  2  0  0  0
  7 37  1  0  0  0
  8  9  1  0  0  0
  8 12  1  0  0  0
 11 38  1  0  0  0
 11 39  1  0  0  0
 11 40  1  0  0  0
 12 15  1  0  0  0
 12 41  1  0  0  0
 13 14  1  0  0  0
 13 18  2  0  0  0
 13 19  1  0  0  0
 14 15  2  0  0  0
 14 20  1  0  0  0
 15 16  1  0  0  0
 16 17  2  0  0  0
 16 29  1  0  0  0
 17 18  1  0  0  0
 17 42  1  0  0  0
 19 21  1  0  0  0
 19 43  1  0  0  0
 20 21  2  0  0  0
 20 44  1  0  0  0
 21 22  1  0  0  0
 22 23  1  0  0  0
 22 27  2  0  0  0
 23 24  2  0  0  0
 23 45  1  0  0  0
 24 25  1  0  0  0
 24 46  1  0  0  0
 25 26  2  0  0  0
 25 28  1  0  0  0
 26 27  1  0  0  0
 26 47  1  0  0  0
 27 48  1  0  0  0
 29 30  1  0  0  0
 29 31  1  0  0  0
 29 32  1  0  0  0
M  END
> <s_m_entry_id>
47499

> <s_m_entry_name>
dock_pv.32

> <s_m_Source_Path>
/home/csk/Desktop/cluster/DUD-E-result/fak1

> <s_m_Source_File>
dock_pv.maegz

> <i_m_Source_File_Index>
32

> <chembl_id>
CHEMBL2315569

> <chembl_pref_name>
None

> <i_lp_mmshare_version>
53161

> <i_f3d_flags>
0

> <r_lp_tautomer_probability>
1

> <s_lp_Force_Field>
OPLS_2005

> <r_lp_Energy>
41.496651

> <b_lp_Chiralities_Consistent>
1

> <s_lp_Variant>
CHEMBL2695_lig331-1

> <s_i_glide_gridfile>
glide-grid_3bz3

> <i_i_glide_lignum>
373

> <i_i_glide_rotatable_bonds>
4

> <r_i_docking_score>
-9.63693138721097

> <r_i_glide_ligand_efficiency>
-0.301154105850343

> <r_i_glide_ligand_efficiency_sa>
-0.956104687758219

> <r_i_glide_ligand_efficiency_ln>
-2.15797163042473

> <r_i_glide_gscore>
-9.63693138721097

> <r_i_glide_lipo>
-2.90884358172644

> <r_i_glide_hbond>
-0.426211111902805

> <r_i_glide_metal>
0

> <r_i_glide_rewards>
-3.10641169090909

> <r_i_glide_evdw>
-40.3367118835449

> <r_i_glide_ecoul>
-9.68487739562988

> <r_i_glide_erotb>
0.308842673282746

> <r_i_glide_esite>
-0.0347404724336571

> <r_i_glide_emodel>
-71.9766844009969

> <r_i_glide_energy>
-50.0215892791748

> <r_i_glide_einternal>
4.22226762771606

> <i_i_glide_confnum>
1

> <i_i_glide_posenum>
2

> <r_i_glide_eff_state_penalty>
0

> <s_user_duplicate_titles>
CHEMBL2695_lig331

> <s_m_subgroup_title>
dock_pv

> <s_m_subgroupid>
dock_pv

> <b_m_subgroup_collapsed>
1

$$$$
CHEMBL2695_lig316
                    3D
 Schrodinger Suite 2021-1.
 41 43  0  0  1  0            999 V2000
    8.0206    3.9268    9.8748 S   0  0  0  0  0  0
    6.7142    3.3781    8.7836 N   0  0  0  0  0  0
    5.6422    2.5987    9.4013 C   0  0  0  0  0  0
    6.4695    3.9711    7.5265 C   0  0  0  0  0  0
    7.4446    3.9766    6.4987 C   0  0  0  0  0  0
    7.1017    4.5993    5.2841 C   0  0  0  0  0  0
    5.8409    5.1630    5.1090 C   0  0  0  0  0  0
    4.9256    5.0769    6.1504 C   0  0  0  0  0  0
    5.2212    4.4869    7.3312 N   0  0  0  0  0  0
    8.7980    3.2603    6.6693 C   0  0  0  0  0  0
    9.7195    3.4425    5.5528 N   0  0  0  0  0  0
   13.1295    4.4078    6.7090 C   0  0  0  0  0  0
   11.7160    4.4773    6.5359 C   0  0  0  0  0  0
   11.0861    3.3912    5.8864 C   0  0  0  0  0  0
   11.8972    2.3032    5.5090 C   0  0  0  0  0  0
   13.2755    2.3614    5.7408 C   0  0  0  0  0  0
   13.9220    3.4101    6.3090 N   0  0  0  0  0  0
   13.5220    5.5339    7.4035 N   0  0  0  0  0  0
   11.3029    5.7320    7.1022 C   0  0  0  0  0  0
   12.4280    6.3336    7.6354 C   0  0  0  0  0  0
    7.1582    4.6161   11.3715 C   0  0  0  0  0  0
    8.7220    2.7194   10.3090 O   0  0  0  0  0  0
    8.7427    5.0398    9.2490 O   0  0  0  0  0  0
   11.3643    1.1630    4.7690 C   0  0  0  0  0  0
   10.9415    0.2680    4.1737 N   0  0  0  0  0  0
    5.2214    1.8878    8.6889 H   0  0  0  0  0  0
    6.0147    2.0298   10.2517 H   0  0  0  0  0  0
    4.8405    3.2491    9.7544 H   0  0  0  0  0  0
    7.7965    4.6412    4.4584 H   0  0  0  0  0  0
    5.5721    5.6400    4.1782 H   0  0  0  0  0  0
    3.9292    5.4836    6.0452 H   0  0  0  0  0  0
    8.5926    2.1929    6.7662 H   0  0  0  0  0  0
    9.2929    3.5630    7.5838 H   0  0  0  0  0  0
    9.4764    2.8188    4.7942 H   0  0  0  0  0  0
   13.9220    1.5522    5.4263 H   0  0  0  0  0  0
   14.4599    5.7805    7.6988 H   0  0  0  0  0  0
   10.3001    6.1307    7.1406 H   0  0  0  0  0  0
   12.5467    7.2714    8.1612 H   0  0  0  0  0  0
    7.9220    4.7461   12.1332 H   0  0  0  0  0  0
    6.7220    5.5630   11.1090 H   0  0  0  0  0  0
    6.3792    3.9457   11.7052 H   0  0  0  0  0  0
  1  2  1  0  0  0
  1 21  1  0  0  0
  1 22  2  0  0  0
  1 23  2  0  0  0
  2  3  1  0  0  0
  2  4  1  0  0  0
  3 26  1  0  0  0
  3 27  1  0  0  0
  3 28  1  0  0  0
  4  5  1  0  0  0
  4  9  2  0  0  0
  5  6  2  0  0  0
  5 10  1  0  0  0
  6  7  1  0  0  0
  6 29  1  0  0  0
  7  8  2  0  0  0
  7 30  1  0  0  0
  8  9  1  0  0  0
  8 31  1  0  0  0
 10 11  1  0  0  0
 10 32  1  0  0  0
 10 33  1  0  0  0
 11 14  1  0  0  0
 11 34  1  0  0  0
 12 13  1  0  0  0
 12 17  2  0  0  0
 12 18  1  0  0  0
 13 14  2  0  0  0
 13 19  1  0  0  0
 14 15  1  0  0  0
 15 16  2  0  0  0
 15 24  1  0  0  0
 16 17  1  0  0  0
 16 35  1  0  0  0
 18 20  1  0  0  0
 18 36  1  0  0  0
 19 20  2  0  0  0
 19 37  1  0  0  0
 20 38  1  0  0  0
 21 39  1  0  0  0
 21 40  1  0  0  0
 21 41  1  0  0  0
 24 25  3  0  0  0
M  END
> <s_m_entry_id>
47500

> <s_m_entry_name>
dock_pv.33

> <s_m_Source_Path>
/home/csk/Desktop/cluster/DUD-E-result/fak1

> <s_m_Source_File>
dock_pv.maegz

> <i_m_Source_File_Index>
33

> <chembl_id>
CHEMBL2315578

> <chembl_pref_name>
None

> <i_lp_mmshare_version>
53161

> <i_f3d_flags>
0

> <r_lp_tautomer_probability>
1

> <s_lp_Force_Field>
OPLS_2005

> <r_lp_Energy>
12.908412

> <b_lp_Chiralities_Consistent>
1

> <s_lp_Variant>
CHEMBL2695_lig316-1

> <s_i_glide_gridfile>
glide-grid_3bz3

> <i_i_glide_lignum>
358

> <i_i_glide_rotatable_bonds>
5

> <r_i_docking_score>
-9.58102138341852

> <r_i_glide_ligand_efficiency>
-0.383240855336741

> <r_i_glide_ligand_efficiency_sa>
-1.12060305781014

> <r_i_glide_ligand_efficiency_ln>
-2.27098918791188

> <r_i_glide_gscore>
-9.58102138341852

> <r_i_glide_lipo>
-3.09855655001249

> <r_i_glide_hbond>
-0.40058216364742

> <r_i_glide_metal>
0

> <r_i_glide_rewards>
-3.09234254626126

> <r_i_glide_evdw>
-45.0969772338867

> <r_i_glide_ecoul>
-7.70947027206421

> <r_i_glide_erotb>
0.421729279006622

> <r_i_glide_esite>
0

> <r_i_glide_emodel>
-77.0088548322652

> <r_i_glide_energy>
-52.8064475059509

> <r_i_glide_einternal>
11.2547578811646

> <i_i_glide_confnum>
5

> <i_i_glide_posenum>
28

> <r_i_glide_eff_state_penalty>
0

> <s_user_duplicate_titles>
CHEMBL2695_lig316

> <s_m_subgroup_title>
dock_pv

> <s_m_subgroupid>
dock_pv

> <b_m_subgroup_collapsed>
1

$$$$
CHEMBL2695_lig335
                    3D
 Schrodinger Suite 2021-1.
 40 42  0  0  1  0            999 V2000
    7.8770    3.5646    9.5905 S   0  0  0  0  0  0
    7.4521    2.7399    8.0659 N   0  0  0  0  0  0
    6.8850    1.4019    8.2252 C   0  0  0  0  0  0
    6.8463    3.5001    7.0501 C   0  0  0  0  0  0
    7.6166    3.9901    5.9786 C   0  0  0  0  0  0
    6.9823    4.7628    5.0029 C   0  0  0  0  0  0
    5.6209    5.0362    5.1085 C   0  0  0  0  0  0
    4.9179    4.5089    6.1886 C   0  0  0  0  0  0
    5.5077    3.7484    7.1449 N   0  0  0  0  0  0
    9.0977    3.6790    5.8320 C   0  0  0  0  0  0
    9.8837    4.6660    6.5568 N   0  0  0  0  0  0
   13.4179    5.2739    7.4969 C   0  0  0  0  0  0
   12.0070    5.4486    7.4422 C   0  0  0  0  0  0
   11.2816    4.5670    6.6164 C   0  0  0  0  0  0
   12.0106    3.5991    5.9090 C   0  0  0  0  0  0
   13.3978    3.5378    6.0383 C   0  0  0  0  0  0
   14.1300    4.3609    6.8311 N   0  0  0  0  0  0
   13.9183    6.2239    8.3515 N   0  0  0  0  0  0
   11.6983    6.5435    8.3215 C   0  0  0  0  0  0
   12.8957    7.0039    8.8332 C   0  0  0  0  0  0
    6.1965    3.9766   10.3112 C   0  0  0  0  0  0
    8.5263    2.5834   10.4626 O   0  0  0  0  0  0
    8.5512    4.8216    9.2483 O   0  0  0  0  0  0
    6.8250    0.8852    7.2648 H   0  0  0  0  0  0
    7.5073    0.7962    8.8854 H   0  0  0  0  0  0
    5.8802    1.4409    8.6470 H   0  0  0  0  0  0
    7.5414    5.1536    4.1656 H   0  0  0  0  0  0
    5.1223    5.6333    4.3604 H   0  0  0  0  0  0
    3.8583    4.6929    6.2967 H   0  0  0  0  0  0
    9.3792    3.6787    4.7778 H   0  0  0  0  0  0
    9.3076    2.6764    6.2087 H   0  0  0  0  0  0
    9.4254    5.1307    7.3301 H   0  0  0  0  0  0
   11.5142    2.8837    5.2718 H   0  0  0  0  0  0
   13.9560    2.7831    5.5020 H   0  0  0  0  0  0
   14.9034    6.3723    8.5586 H   0  0  0  0  0  0
   10.7229    6.9482    8.5450 H   0  0  0  0  0  0
   13.1110    7.8183    9.5104 H   0  0  0  0  0  0
    6.3251    4.3621   11.3211 H   0  0  0  0  0  0
    5.7254    4.7229    9.6796 H   0  0  0  0  0  0
    5.5931    3.0723   10.3090 H   0  0  0  0  0  0
  1  2  1  0  0  0
  1 21  1  0  0  0
  1 22  2  0  0  0
  1 23  2  0  0  0
  2  3  1  0  0  0
  2  4  1  0  0  0
  3 24  1  0  0  0
  3 25  1  0  0  0
  3 26  1  0  0  0
  4  5  1  0  0  0
  4  9  2  0  0  0
  5  6  2  0  0  0
  5 10  1  0  0  0
  6  7  1  0  0  0
  6 27  1  0  0  0
  7  8  2  0  0  0
  7 28  1  0  0  0
  8  9  1  0  0  0
  8 29  1  0  0  0
 10 11  1  0  0  0
 10 30  1  0  0  0
 10 31  1  0  0  0
 11 14  1  0  0  0
 11 32  1  0  0  0
 12 13  1  0  0  0
 12 17  2  0  0  0
 12 18  1  0  0  0
 13 14  2  0  0  0
 13 19  1  0  0  0
 14 15  1  0  0  0
 15 16  2  0  0  0
 15 33  1  0  0  0
 16 17  1  0  0  0
 16 34  1  0  0  0
 18 20  1  0  0  0
 18 35  1  0  0  0
 19 20  2  0  0  0
 19 36  1  0  0  0
 20 37  1  0  0  0
 21 38  1  0  0  0
 21 39  1  0  0  0
 21 40  1  0  0  0
M  END
> <s_m_entry_id>
47501

> <s_m_entry_name>
dock_pv.34

> <s_m_Source_Path>
/home/csk/Desktop/cluster/DUD-E-result/fak1

> <s_m_Source_File>
dock_pv.maegz

> <i_m_Source_File_Index>
34

> <chembl_id>
CHEMBL2315574

> <chembl_pref_name>
None

> <i_lp_mmshare_version>
53161

> <i_f3d_flags>
0

> <r_lp_tautomer_probability>
1

> <s_lp_Force_Field>
OPLS_2005

> <r_lp_Energy>
10.074088

> <b_lp_Chiralities_Consistent>
1

> <s_lp_Variant>
CHEMBL2695_lig335-1

> <s_i_glide_gridfile>
glide-grid_3bz3

> <i_i_glide_lignum>
377

> <i_i_glide_rotatable_bonds>
5

> <r_i_docking_score>
-9.56757357674316

> <r_i_glide_ligand_efficiency>
-0.415981459858398

> <r_i_glide_ligand_efficiency_sa>
-1.18299593668532

> <r_i_glide_ligand_efficiency_ln>
-2.31352604481725

> <r_i_glide_gscore>
-9.56757357674316

> <r_i_glide_lipo>
-3.3065389425114

> <r_i_glide_hbond>
-0.413961689436747

> <r_i_glide_metal>
0

> <r_i_glide_rewards>
-2.81834120708419

> <r_i_glide_evdw>
-40.8447303771973

> <r_i_glide_ecoul>
-9.77563762664795

> <r_i_glide_erotb>
0.479850425146238

> <r_i_glide_esite>
0

> <r_i_glide_emodel>
-75.104597711313

> <r_i_glide_energy>
-50.6203680038452

> <r_i_glide_einternal>
6.94654369354248

> <i_i_glide_confnum>
41

> <i_i_glide_posenum>
143

> <r_i_glide_eff_state_penalty>
0

> <s_user_duplicate_titles>
CHEMBL2695_lig335

> <s_m_subgroup_title>
dock_pv

> <s_m_subgroupid>
dock_pv

> <b_m_subgroup_collapsed>
1

$$$$
CHEMBL2695_lig1098
                    3D
 Schrodinger Suite 2021-1.
 68 72  0  0  1  0            999 V2000
    6.4271    4.6061   10.9834 C   0  0  0  0  0  0
    7.3433    3.5634   10.6898 O   0  0  0  0  0  0
    7.7346    3.6385    9.3582 N   0  0  0  0  0  0
    7.0240    2.7830    8.4282 C   0  0  0  0  0  0
    7.6631    3.2460    7.1504 C   0  0  0  0  0  0
    7.4008    2.8815    5.8313 C   0  0  0  0  0  0
    8.1466    3.4540    4.8012 C   0  0  0  0  0  0
    9.1656    4.3624    5.0844 C   0  0  0  0  0  0
    9.4373    4.7301    6.4043 C   0  0  0  0  0  0
   10.4482    5.6180    6.7151 O   0  0  0  0  0  0
   11.7580    5.1804    6.7810 C   0  0  0  0  0  0
   12.0990    4.0966    6.0392 N   0  0  0  0  0  0
   13.3254    3.5498    6.2107 C   0  0  0  0  0  0
   13.6182    2.3672    5.5098 N   0  0  0  0  0  0
   12.7843    1.5629    4.7090 C   0  0  0  0  0  0
   11.4026    1.4674    4.9396 C   0  0  0  0  0  0
   10.5809    0.7058    4.1162 C   0  0  0  0  0  0
    9.2475    0.7629    4.3181 F   0  0  0  0  0  0
   11.1375   -0.0897    3.1086 C   0  0  0  0  0  0
   12.5086    0.0175    2.8547 C   0  0  0  0  0  0
   13.3415    0.8454    3.6298 C   0  0  0  0  0  0
   14.6987    0.9635    3.4013 O   0  0  0  0  0  0
   15.2827    0.1585    2.3916 C   0  0  0  0  0  0
   10.3168   -1.0971    2.3419 C   0  0  0  0  0  0
    9.2074   -0.8370    1.8869 O   0  0  0  0  0  0
   10.9161   -2.2919    2.2030 N   0  0  0  0  0  0
   10.3994   -3.4685    1.4974 C   0  0  1  0  0  0
   11.2921   -3.8623    0.3046 C   0  0  0  0  0  0
   12.7054   -4.3073    0.7434 C   0  0  0  0  0  0
   12.6434   -5.4176    1.7037 N   0  0  1  0  0  0
   13.9798   -5.7902    2.1592 C   0  0  0  0  0  0
   11.7551   -5.1796    2.8524 C   0  0  0  0  0  0
   10.3468   -4.7067    2.4197 C   0  0  1  0  0  0
    9.6281   -4.4366    3.5092 F   0  0  0  0  0  0
   14.2788    4.0529    7.0380 N   0  0  0  0  0  0
   13.9219    5.1481    7.7698 C   0  0  0  0  0  0
   12.6665    5.7535    7.6745 C   0  0  0  0  0  0
   12.2583    7.1137    8.6594 Cl  0  0  0  0  0  0
    8.6645    4.1747    7.4285 C   0  0  0  0  0  0
    8.7220    4.4245    8.9008 C   0  0  0  0  0  0
    9.4679    5.1667    9.5393 O   0  0  0  0  0  0
    5.9221    4.3631   11.9090 H   0  0  0  0  0  0
    6.9413    5.5593   11.1089 H   0  0  0  0  0  0
    5.6526    4.7233   10.2226 H   0  0  0  0  0  0
    5.9492    2.9681    8.4530 H   0  0  0  0  0  0
    7.2008    1.7272    8.6425 H   0  0  0  0  0  0
    6.6369    2.1543    5.5922 H   0  0  0  0  0  0
    7.9550    3.1639    3.7826 H   0  0  0  0  0  0
    9.7639    4.7629    4.2829 H   0  0  0  0  0  0
   14.5882    2.0840    5.5091 H   0  0  0  0  0  0
   10.9285    1.9932    5.7525 H   0  0  0  0  0  0
   12.9208   -0.5681    2.0478 H   0  0  0  0  0  0
   16.3515    0.3625    2.3217 H   0  0  0  0  0  0
   15.1219   -0.8973    2.6127 H   0  0  0  0  0  0
   14.8275    0.3629    1.4268 H   0  0  0  0  0  0
   11.8189   -2.4059    2.6338 H   0  0  0  0  0  0
    9.3866   -3.2632    1.1405 H   0  0  0  0  0  0
   11.3756   -3.0120   -0.3715 H   0  0  0  0  0  0
   10.8270   -4.6451   -0.2975 H   0  0  0  0  0  0
   13.2897   -4.6159   -0.1246 H   0  0  0  0  0  0
   13.2425   -3.4703    1.1943 H   0  0  0  0  0  0
   13.9361   -6.6599    2.8167 H   0  0  0  0  0  0
   14.6181   -6.0544    1.3144 H   0  0  0  0  0  0
   14.4595   -4.9782    2.7081 H   0  0  0  0  0  0
   11.6754   -6.0918    3.4465 H   0  0  0  0  0  0
   12.2079   -4.4377    3.5128 H   0  0  0  0  0  0
    9.8500   -5.5224    1.8926 H   0  0  0  0  0  0
   14.6531    5.5156    8.4750 H   0  0  0  0  0  0
  1  2  1  0  0  0
  1 42  1  0  0  0
  1 43  1  0  0  0
  1 44  1  0  0  0
  2  3  1  0  0  0
  3  4  1  0  0  0
  3 40  1  0  0  0
  4  5  1  0  0  0
  4 45  1  0  0  0
  4 46  1  0  0  0
  5  6  2  0  0  0
  5 39  1  0  0  0
  6  7  1  0  0  0
  6 47  1  0  0  0
  7  8  2  0  0  0
  7 48  1  0  0  0
  8  9  1  0  0  0
  8 49  1  0  0  0
  9 10  1  0  0  0
  9 39  2  0  0  0
 10 11  1  0  0  0
 11 12  2  0  0  0
 11 37  1  0  0  0
 12 13  1  0  0  0
 13 14  1  0  0  0
 13 35  2  0  0  0
 14 15  1  0  0  0
 14 50  1  0  0  0
 15 16  2  0  0  0
 15 21  1  0  0  0
 16 17  1  0  0  0
 16 51  1  0  0  0
 17 18  1  0  0  0
 17 19  2  0  0  0
 19 20  1  0  0  0
 19 24  1  0  0  0
 20 21  2  0  0  0
 20 52  1  0  0  0
 21 22  1  0  0  0
 22 23  1  0  0  0
 23 53  1  0  0  0
 23 54  1  0  0  0
 23 55  1  0  0  0
 24 25  2  0  0  0
 24 26  1  0  0  0
 26 27  1  0  0  0
 26 56  1  0  0  0
 27 28  1  0  0  0
 27 33  1  0  0  0
 27 57  1  0  0  0
 28 29  1  0  0  0
 28 58  1  0  0  0
 28 59  1  0  0  0
 29 30  1  0  0  0
 29 60  1  0  0  0
 29 61  1  0  0  0
 30 31  1  0  0  0
 30 32  1  0  0  0
 31 62  1  0  0  0
 31 63  1  0  0  0
 31 64  1  0  0  0
 32 33  1  0  0  0
 32 65  1  0  0  0
 32 66  1  0  0  0
 33 34  1  0  0  0
 33 67  1  0  0  0
 35 36  1  0  0  0
 36 37  2  0  0  0
 36 68  1  0  0  0
 37 38  1  0  0  0
 39 40  1  0  0  0
 40 41  2  0  0  0
M  END
> <s_m_entry_id>
47502

> <s_m_entry_name>
dock_pv.35

> <s_m_Source_Path>
/home/csk/Desktop/cluster/DUD-E-result/fak1

> <s_m_Source_File>
dock_pv.maegz

> <i_m_Source_File_Index>
35

> <chembl_id>
CHEMBL3657396

> <chembl_pref_name>
None

> <i_lp_mmshare_version>
53161

> <i_f3d_flags>
0

> <r_lp_tautomer_probability>
0.999999917912647

> <s_lp_Force_Field>
OPLS_2005

> <r_lp_Energy>
63.246661

> <b_lp_Chiralities_Consistent>
1

> <s_lp_Variant>
CHEMBL2695_lig1098-1

> <s_i_glide_gridfile>
glide-grid_3bz3

> <i_i_glide_lignum>
1189

> <i_i_glide_rotatable_bonds>
9

> <r_i_docking_score>
-9.56290187878763

> <r_i_glide_ligand_efficiency>
-0.233241509238723

> <r_i_glide_ligand_efficiency_sa>
-0.804267392334283

> <r_i_glide_ligand_efficiency_ln>
-2.02880145746322

> <r_i_glide_gscore>
-9.56290187878763

> <r_i_glide_lipo>
-3.13308036132026

> <r_i_glide_hbond>
-0.681992760998008

> <r_i_glide_metal>
0

> <r_i_glide_rewards>
-2.27250419791553

> <r_i_glide_evdw>
-53.6251487731934

> <r_i_glide_ecoul>
-6.401198387146

> <r_i_glide_erotb>
0.315160970537403

> <r_i_glide_esite>
-0.149048332359665

> <r_i_glide_emodel>
-83.7307074686674

> <r_i_glide_energy>
-60.0263471603394

> <r_i_glide_einternal>
9.62399673461914

> <i_i_glide_confnum>
1

> <i_i_glide_posenum>
63

> <r_i_glide_eff_state_penalty>
0

> <s_user_duplicate_titles>
CHEMBL2695_lig1098

> <s_m_subgroup_title>
dock_pv

> <s_m_subgroupid>
dock_pv

> <b_m_subgroup_collapsed>
1

$$$$
CHEMBL2695_lig522
                    3D
 Schrodinger Suite 2021-1.
 55 59  0  0  1  0            999 V2000
    7.7089    2.2715    9.8672 C   0  0  0  0  0  0
    8.7220    3.2681    9.9090 O   0  0  0  0  0  0
    8.4465    4.5010    9.2474 C   0  0  0  0  0  0
    8.3811    4.3630    7.7172 C   0  0  0  0  0  0
    7.1357    3.9760    7.1972 C   0  0  0  0  0  0
    6.9525    3.7604    5.8362 C   0  0  0  0  0  0
    8.0161    3.9459    4.9663 C   0  0  0  0  0  0
    9.2441    4.3633    5.4579 C   0  0  0  0  0  0
    9.4722    4.5873    6.8278 C   0  0  0  0  0  0
   10.8520    5.0447    7.2367 C   0  0  0  0  0  0
   11.1220    6.0796    8.1409 C   0  0  0  0  0  0
   12.4221    6.4040    8.5158 C   0  0  0  0  0  0
   13.5065    5.6942    8.0089 C   0  0  0  0  0  0
   13.2725    4.6713    7.0810 C   0  0  0  0  0  0
   14.0874    3.7585    6.4918 N   0  0  0  0  0  0
   13.2378    3.0008    5.8236 C   0  0  0  0  0  0
   13.6955    1.9740    5.0375 N   0  0  0  0  0  0
   12.9963    1.1630    4.1220 C   0  0  0  0  0  0
   11.6300    0.8666    4.2239 C   0  0  0  0  0  0
   11.0388   -0.0370    3.3499 C   0  0  0  0  0  0
   11.7744   -0.6875    2.3514 C   0  0  0  0  0  0
   11.0395   -1.7427    1.5129 C   0  0  0  0  0  0
   11.5086   -1.9964    0.0728 C   0  0  0  0  0  0
   12.7220   -2.7901   -0.0892 N   0  0  1  0  0  0
   13.8049   -2.5311    0.8501 C   0  0  0  0  0  0
   14.0669   -1.0536    1.1857 C   0  0  0  0  0  0
   13.1589   -0.4001    2.2344 C   0  0  0  0  0  0
   13.7306    0.5384    3.1090 C   0  0  0  0  0  0
   11.9666    3.3168    5.9090 N   0  0  0  0  0  0
   11.9519    4.3951    6.7090 N   0  0  0  0  0  0
    8.0314    1.4146   10.4580 H   0  0  0  0  0  0
    7.5280    1.9053    8.8570 H   0  0  0  0  0  0
    6.7703    2.6389   10.2850 H   0  0  0  0  0  0
    7.5177    4.9273    9.6318 H   0  0  0  0  0  0
    9.2146    5.1905    9.5681 H   0  0  0  0  0  0
    6.2960    3.8159    7.8585 H   0  0  0  0  0  0
    5.9922    3.4383    5.4602 H   0  0  0  0  0  0
    7.9063    3.7663    3.9090 H   0  0  0  0  0  0
   10.0360    4.5203    4.7398 H   0  0  0  0  0  0
   10.3284    6.6314    8.6051 H   0  0  0  0  0  0
   12.5890    7.1903    9.2389 H   0  0  0  0  0  0
   14.4956    5.8897    8.3756 H   0  0  0  0  0  0
   14.6815    1.7588    5.0729 H   0  0  0  0  0  0
   11.0117    1.2868    5.0007 H   0  0  0  0  0  0
    9.9861   -0.2521    3.4726 H   0  0  0  0  0  0
   11.0223   -2.6811    2.0686 H   0  0  0  0  0  0
    9.9945   -1.4328    1.4534 H   0  0  0  0  0  0
   10.7169   -2.4948   -0.4885 H   0  0  0  0  0  0
   11.6402   -1.0321   -0.4200 H   0  0  0  0  0  0
   12.4718   -3.7719   -0.0596 H   0  0  0  0  0  0
   13.5982   -3.0717    1.7757 H   0  0  0  0  0  0
   14.7077   -2.9960    0.4520 H   0  0  0  0  0  0
   14.0563   -0.4460    0.2801 H   0  0  0  0  0  0
   15.0908   -0.9916    1.5584 H   0  0  0  0  0  0
   14.7877    0.7501    3.0314 H   0  0  0  0  0  0
  1  2  1  0  0  0
  1 31  1  0  0  0
  1 32  1  0  0  0
  1 33  1  0  0  0
  2  3  1  0  0  0
  3  4  1  0  0  0
  3 34  1  0  0  0
  3 35  1  0  0  0
  4  5  2  0  0  0
  4  9  1  0  0  0
  5  6  1  0  0  0
  5 36  1  0  0  0
  6  7  2  0  0  0
  6 37  1  0  0  0
  7  8  1  0  0  0
  7 38  1  0  0  0
  8  9  2  0  0  0
  8 39  1  0  0  0
  9 10  1  0  0  0
 10 11  2  0  0  0
 10 30  1  0  0  0
 11 12  1  0  0  0
 11 40  1  0  0  0
 12 13  2  0  0  0
 12 41  1  0  0  0
 13 14  1  0  0  0
 13 42  1  0  0  0
 14 15  2  0  0  0
 14 30  1  0  0  0
 15 16  1  0  0  0
 16 17  1  0  0  0
 16 29  2  0  0  0
 17 18  1  0  0  0
 17 43  1  0  0  0
 18 19  2  0  0  0
 18 28  1  0  0  0
 19 20  1  0  0  0
 19 44  1  0  0  0
 20 21  2  0  0  0
 20 45  1  0  0  0
 21 22  1  0  0  0
 21 27  1  0  0  0
 22 23  1  0  0  0
 22 46  1  0  0  0
 22 47  1  0  0  0
 23 24  1  0  0  0
 23 48  1  0  0  0
 23 49  1  0  0  0
 24 25  1  0  0  0
 24 50  1  0  0  0
 25 26  1  0  0  0
 25 51  1  0  0  0
 25 52  1  0  0  0
 26 27  1  0  0  0
 26 53  1  0  0  0
 26 54  1  0  0  0
 27 28  2  0  0  0
 28 55  1  0  0  0
 29 30  1  0  0  0
M  END
> <s_m_entry_id>
47503

> <s_m_entry_name>
dock_pv.36

> <s_m_Source_Path>
/home/csk/Desktop/cluster/DUD-E-result/fak1

> <s_m_Source_File>
dock_pv.maegz

> <i_m_Source_File_Index>
36

> <chembl_id>
CHEMBL3644970

> <chembl_pref_name>
None

> <i_lp_mmshare_version>
53161

> <i_f3d_flags>
0

> <r_lp_tautomer_probability>
1

> <s_lp_Force_Field>
OPLS_2005

> <r_lp_Energy>
33.335091

> <b_lp_Chiralities_Consistent>
1

> <s_lp_Variant>
CHEMBL2695_lig522-1

> <s_i_glide_gridfile>
glide-grid_3bz3

> <i_i_glide_lignum>
576

> <i_i_glide_rotatable_bonds>
5

> <r_i_docking_score>
-9.54065376853668

> <r_i_glide_ligand_efficiency>
-0.318021792284556

> <r_i_glide_ligand_efficiency_sa>
-0.98816764946796

> <r_i_glide_ligand_efficiency_ln>
-2.16774048996038

> <r_i_glide_gscore>
-9.54065376853668

> <r_i_glide_lipo>
-3.39381302900534

> <r_i_glide_hbond>
-0.629423848992386

> <r_i_glide_metal>
0

> <r_i_glide_rewards>
-2.65618178077243

> <r_i_glide_evdw>
-36.0898475646973

> <r_i_glide_ecoul>
-10.3191547393799

> <r_i_glide_erotb>
0.491130479375326

> <r_i_glide_esite>
0

> <r_i_glide_emodel>
-68.9137531088771

> <r_i_glide_energy>
-46.4090023040771

> <r_i_glide_einternal>
4.25782680511475

> <i_i_glide_confnum>
63

> <i_i_glide_posenum>
87

> <r_i_glide_eff_state_penalty>
0

> <s_user_duplicate_titles>
CHEMBL2695_lig522

> <s_m_subgroup_title>
dock_pv

> <s_m_subgroupid>
dock_pv

> <b_m_subgroup_collapsed>
1

$$$$
CHEMBL2695_lig1039
                    3D
 Schrodinger Suite 2021-1.
 60 64  0  0  1  0            999 V2000
   15.1219   -0.1320    2.0058 C   0  0  0  0  0  0
   14.4394    0.7054    2.9292 O   0  0  0  0  0  0
   13.0898    0.4937    3.1537 C   0  0  0  0  0  0
   12.3116   -0.3882    2.3787 C   0  0  0  0  0  0
   10.9644   -0.5966    2.6614 C   0  0  0  0  0  0
   10.2652   -1.5033    1.8955 O   0  0  0  0  0  0
    9.4710   -2.4723    2.5925 C   0  0  1  0  0  0
    8.3670   -2.9395    1.6634 C   0  0  0  0  0  0
    8.3066   -4.4426    1.8943 C   0  0  0  0  0  0
    9.6599   -4.7929    2.1522 O   0  0  0  0  0  0
   10.2646   -3.7485    2.9168 C   0  0  0  0  0  0
   10.3653    0.1392    3.6855 C   0  0  0  0  0  0
   11.1231    0.9852    4.4865 C   0  0  0  0  0  0
   12.4936    1.1630    4.2493 C   0  0  0  0  0  0
   13.3015    1.9434    5.1072 N   0  0  0  0  0  0
   13.0187    3.0530    5.9090 C   0  0  0  0  0  0
   14.0909    3.6269    6.4991 N   0  0  0  0  0  0
   13.8625    4.7670    7.1948 C   0  0  0  0  0  0
   12.5931    5.3453    7.3165 C   0  0  0  0  0  0
   11.5336    4.6580    6.7081 C   0  0  0  0  0  0
   10.2304    5.0841    6.9038 O   0  0  0  0  0  0
    9.1374    4.2701    6.6696 C   0  0  0  0  0  0
    8.8384    3.7448    5.4045 C   0  0  0  0  0  0
    7.7212    2.9244    5.2288 C   0  0  0  0  0  0
    6.8677    2.6590    6.3029 C   0  0  0  0  0  0
    7.1381    3.2168    7.5536 C   0  0  0  0  0  0
    6.3865    3.1371    8.8502 C   0  0  0  0  0  0
    7.2039    3.9661    9.7286 N   0  0  0  0  0  0
    6.7586    4.3971   11.0525 C   0  0  0  0  0  0
    8.3220    4.4616    9.1571 C   0  0  0  0  0  0
    9.1740    5.1631    9.6981 O   0  0  0  0  0  0
    8.2661    3.9997    7.7333 C   0  0  0  0  0  0
   11.7492    3.5188    5.9933 N   0  0  0  0  0  0
   12.3718    6.6276    8.1096 C   0  0  0  0  0  0
   11.7351    7.5295    7.3620 F   0  0  0  0  0  0
   11.6421    6.3632    9.1886 F   0  0  0  0  0  0
   13.5217    7.1629    8.5166 F   0  0  0  0  0  0
   16.1735    0.1516    1.9648 H   0  0  0  0  0  0
   15.0689   -1.1785    2.3083 H   0  0  0  0  0  0
   14.7120   -0.0369    1.0011 H   0  0  0  0  0  0
   12.7384   -0.9443    1.5599 H   0  0  0  0  0  0
    9.0363   -2.0591    3.4999 H   0  0  0  0  0  0
    7.4119   -2.4685    1.9004 H   0  0  0  0  0  0
    8.6009   -2.7198    0.6207 H   0  0  0  0  0  0
    7.6800   -4.7268    2.7421 H   0  0  0  0  0  0
    7.9215   -4.9892    1.0328 H   0  0  0  0  0  0
   11.3212   -3.6701    2.6558 H   0  0  0  0  0  0
   10.1900   -4.0061    3.9745 H   0  0  0  0  0  0
    9.3074    0.0474    3.8836 H   0  0  0  0  0  0
   10.6242    1.4644    5.3130 H   0  0  0  0  0  0
   14.2886    1.7387    5.0320 H   0  0  0  0  0  0
   14.7220    5.2023    7.6763 H   0  0  0  0  0  0
    9.4841    3.9539    4.5641 H   0  0  0  0  0  0
    7.5162    2.4935    4.2593 H   0  0  0  0  0  0
    6.0046    2.0270    6.1480 H   0  0  0  0  0  0
    6.3191    2.1196    9.2395 H   0  0  0  0  0  0
    5.3709    3.5298    8.7843 H   0  0  0  0  0  0
    5.9219    5.0829   10.9473 H   0  0  0  0  0  0
    6.4161    3.5631   11.6562 H   0  0  0  0  0  0
    7.5406    4.9122   11.6113 H   0  0  0  0  0  0
  1  2  1  0  0  0
  1 38  1  0  0  0
  1 39  1  0  0  0
  1 40  1  0  0  0
  2  3  1  0  0  0
  3  4  2  0  0  0
  3 14  1  0  0  0
  4  5  1  0  0  0
  4 41  1  0  0  0
  5  6  1  0  0  0
  5 12  2  0  0  0
  6  7  1  0  0  0
  7  8  1  0  0  0
  7 11  1  0  0  0
  7 42  1  0  0  0
  8  9  1  0  0  0
  8 43  1  0  0  0
  8 44  1  0  0  0
  9 10  1  0  0  0
  9 45  1  0  0  0
  9 46  1  0  0  0
 10 11  1  0  0  0
 11 47  1  0  0  0
 11 48  1  0  0  0
 12 13  1  0  0  0
 12 49  1  0  0  0
 13 14  2  0  0  0
 13 50  1  0  0  0
 14 15  1  0  0  0
 15 16  1  0  0  0
 15 51  1  0  0  0
 16 17  2  0  0  0
 16 33  1  0  0  0
 17 18  1  0  0  0
 18 19  2  0  0  0
 18 52  1  0  0  0
 19 20  1  0  0  0
 19 34  1  0  0  0
 20 21  1  0  0  0
 20 33  2  0  0  0
 21 22  1  0  0  0
 22 23  2  0  0  0
 22 32  1  0  0  0
 23 24  1  0  0  0
 23 53  1  0  0  0
 24 25  2  0  0  0
 24 54  1  0  0  0
 25 26  1  0  0  0
 25 55  1  0  0  0
 26 27  1  0  0  0
 26 32  2  0  0  0
 27 28  1  0  0  0
 27 56  1  0  0  0
 27 57  1  0  0  0
 28 29  1  0  0  0
 28 30  1  0  0  0
 29 58  1  0  0  0
 29 59  1  0  0  0
 29 60  1  0  0  0
 30 31  2  0  0  0
 30 32  1  0  0  0
 34 35  1  0  0  0
 34 36  1  0  0  0
 34 37  1  0  0  0
M  END
> <s_m_entry_id>
47504

> <s_m_entry_name>
dock_pv.37

> <s_m_Source_Path>
/home/csk/Desktop/cluster/DUD-E-result/fak1

> <s_m_Source_File>
dock_pv.maegz

> <i_m_Source_File_Index>
37

> <chembl_id>
CHEMBL3657337

> <chembl_pref_name>
None

> <i_lp_mmshare_version>
53161

> <i_f3d_flags>
0

> <r_lp_tautomer_probability>
0.999999917912647

> <s_lp_Force_Field>
OPLS_2005

> <r_lp_Energy>
47.444775

> <b_lp_Chiralities_Consistent>
1

> <s_lp_Variant>
CHEMBL2695_lig1039-1

> <s_i_glide_gridfile>
glide-grid_3bz3

> <i_i_glide_lignum>
1123

> <i_i_glide_rotatable_bonds>
8

> <r_i_docking_score>
-9.47971377890439

> <r_i_glide_ligand_efficiency>
-0.256208480510929

> <r_i_glide_ligand_efficiency_sa>
-0.853743496307926

> <r_i_glide_ligand_efficiency_ln>
-2.05592768262232

> <r_i_glide_gscore>
-9.47971377890439

> <r_i_glide_lipo>
-2.92169368236138

> <r_i_glide_hbond>
-0.692420224116211

> <r_i_glide_metal>
0

> <r_i_glide_rewards>
-2.03801822890399

> <r_i_glide_evdw>
-52.9654312133789

> <r_i_glide_ecoul>
-10.9400796890259

> <r_i_glide_erotb>
0.461701870500026

> <r_i_glide_esite>
0

> <r_i_glide_emodel>
-94.1680796202631

> <r_i_glide_energy>
-63.9055109024048

> <r_i_glide_einternal>
9.0447244644165

> <i_i_glide_confnum>
26

> <i_i_glide_posenum>
136

> <r_i_glide_eff_state_penalty>
0

> <s_user_duplicate_titles>
CHEMBL2695_lig1039

> <s_m_subgroup_title>
dock_pv

> <s_m_subgroupid>
dock_pv

> <b_m_subgroup_collapsed>
1

$$$$
CHEMBL2695_lig1573
                    3D
 Schrodinger Suite 2021-1.
 41 44  0  0  1  0            999 V2000
    7.8624    3.2095    6.6833 N   0  0  0  0  0  0
   12.2610    2.6421    5.8042 N   0  0  0  0  0  0
    8.0778    2.3442    5.6857 N   0  0  0  0  0  0
   14.3003    3.7515    6.5391 N   0  0  0  0  0  0
   13.9218    5.8395    7.7043 N   0  0  0  0  0  0
    7.8975    4.7631   10.2901 N   0  0  0  0  0  0
   11.4914    3.6445    6.3089 C   0  0  0  0  0  0
   12.0922    4.7635    6.9297 C   0  0  0  0  0  0
   10.0251    3.3803    6.2361 C   0  0  0  0  0  0
   13.5143    4.7242    7.0152 C   0  0  0  0  0  0
    8.9986    3.9171    7.0008 C   0  0  0  0  0  0
    6.5231    3.2755    7.2884 C   0  0  2  0  0  0
    9.3555    2.4548    5.4171 C   0  0  0  0  0  0
   11.6825    5.9822    7.5674 C   0  0  0  0  0  0
    5.7707    4.5665    6.8308 C   0  0  0  0  0  0
   13.6044    2.7629    5.9158 C   0  0  0  0  0  0
   12.8274    6.6033    8.0348 C   0  0  0  0  0  0
    6.6103    3.0049    8.8157 C   0  0  0  0  0  0
    5.4996    4.6074    5.3123 C   0  0  0  0  0  0
    4.3384    4.6868    7.3883 C   0  0  0  0  0  0
    4.2576    3.7302    5.1242 C   0  0  0  0  0  0
    3.4225    3.9534    6.3926 C   0  0  0  0  0  0
    7.3264    3.9938    9.6393 C   0  0  0  0  0  0
   14.8839    6.1031    7.9165 H   0  0  0  0  0  0
    8.9997    4.6600    7.7820 H   0  0  0  0  0  0
    5.9603    2.4229    6.9005 H   0  0  0  0  0  0
    9.8129    1.8345    4.6600 H   0  0  0  0  0  0
   10.6855    6.3606    7.6875 H   0  0  0  0  0  0
    6.3386    5.4523    7.1091 H   0  0  0  0  0  0
   14.1848    1.9629    5.4816 H   0  0  0  0  0  0
   12.9615    7.5324    8.5725 H   0  0  0  0  0  0
    5.6176    2.8847    9.2475 H   0  0  0  0  0  0
    7.1151    2.0531    8.9819 H   0  0  0  0  0  0
    6.3358    4.2549    4.7094 H   0  0  0  0  0  0
    5.2934    5.6309    4.9937 H   0  0  0  0  0  0
    4.0543    5.7399    7.4474 H   0  0  0  0  0  0
    4.2272    4.2944    8.3982 H   0  0  0  0  0  0
    4.5489    2.6807    5.0455 H   0  0  0  0  0  0
    3.7029    3.9633    4.2156 H   0  0  0  0  0  0
    3.0796    3.0006    6.8009 H   0  0  0  0  0  0
    2.5350    4.5515    6.1754 H   0  0  0  0  0  0
  1  3  1  0  0  0
  1 11  1  0  0  0
  1 12  1  0  0  0
  2  7  2  0  0  0
  2 16  1  0  0  0
  3 13  2  0  0  0
  4 10  1  0  0  0
  4 16  2  0  0  0
  5 10  1  0  0  0
  5 17  1  0  0  0
  5 24  1  0  0  0
  6 23  3  0  0  0
  7  8  1  0  0  0
  7  9  1  0  0  0
  8 10  2  0  0  0
  8 14  1  0  0  0
  9 11  2  0  0  0
  9 13  1  0  0  0
 11 25  1  0  0  0
 12 15  1  0  0  0
 12 18  1  0  0  0
 12 26  1  0  0  0
 13 27  1  0  0  0
 14 17  2  0  0  0
 14 28  1  0  0  0
 15 19  1  0  0  0
 15 20  1  0  0  0
 15 29  1  0  0  0
 16 30  1  0  0  0
 17 31  1  0  0  0
 18 23  1  0  0  0
 18 32  1  0  0  0
 18 33  1  0  0  0
 19 21  1  0  0  0
 19 34  1  0  0  0
 19 35  1  0  0  0
 20 22  1  0  0  0
 20 36  1  0  0  0
 20 37  1  0  0  0
 21 22  1  0  0  0
 21 38  1  0  0  0
 21 39  1  0  0  0
 22 40  1  0  0  0
 22 41  1  0  0  0
M  END
> <s_m_entry_id>
47505

> <s_m_entry_name>
dock_pv.38

> <s_m_Source_Path>
/home/csk/Desktop/cluster/DUD-E-result/fak1

> <s_m_Source_File>
dock_pv.maegz

> <i_m_Source_File_Index>
38

> <chembl_id>
CHEMBL2002099

> <chembl_pref_name>
None

> <i_lp_mmshare_version>
53161

> <i_f3d_flags>
0

> <r_lp_tautomer_probability>
0.999998369746258

> <s_lp_Force_Field>
OPLS_2005

> <r_lp_Energy>
26.449238

> <b_lp_Chiralities_Consistent>
1

> <s_lp_Variant>
CHEMBL2695_lig1573-1

> <s_i_glide_gridfile>
glide-grid_3bz3

> <i_i_glide_lignum>
1735

> <i_i_glide_rotatable_bonds>
4

> <r_i_docking_score>
-9.42813218084915

> <r_i_glide_ligand_efficiency>
-0.409918790471702

> <r_i_glide_ligand_efficiency_sa>
-1.16575451142476

> <r_i_glide_ligand_efficiency_ln>
-2.2798078509054

> <r_i_glide_gscore>
-9.42813218084915

> <r_i_glide_lipo>
-2.62518096773812

> <r_i_glide_hbond>
-0.608

> <r_i_glide_metal>
0

> <r_i_glide_rewards>
-3.56800582938827

> <r_i_glide_evdw>
-33.4767761230469

> <r_i_glide_ecoul>
-9.10915184020996

> <r_i_glide_erotb>
0.413266198461075

> <r_i_glide_esite>
0

> <r_i_glide_emodel>
-62.2149650109341

> <r_i_glide_energy>
-42.5859279632568

> <r_i_glide_einternal>
6.14059638977051

> <i_i_glide_confnum>
39

> <i_i_glide_posenum>
109

> <r_i_glide_eff_state_penalty>
0

> <s_user_duplicate_titles>
CHEMBL2695_lig1573

> <s_m_subgroup_title>
dock_pv

> <s_m_subgroupid>
dock_pv

> <b_m_subgroup_collapsed>
1

$$$$
CHEMBL2695_lig636
                    3D
 Schrodinger Suite 2021-1.
 51 55  0  0  1  0            999 V2000
    6.9355    2.3646    9.9090 F   0  0  0  0  0  0
    6.5038    3.5519    9.4910 C   0  0  0  0  0  0
    5.1905    3.4798    9.2690 F   0  0  0  0  0  0
    6.7220    4.4460   10.4575 F   0  0  0  0  0  0
    7.2830    3.9045    8.2279 C   0  0  0  0  0  0
    6.7404    3.6905    6.9553 C   0  0  0  0  0  0
    7.4949    3.9626    5.8149 C   0  0  0  0  0  0
    8.7942    4.4526    5.9390 C   0  0  0  0  0  0
    9.3491    4.6973    7.2030 C   0  0  0  0  0  0
    8.5806    4.4127    8.3373 C   0  0  0  0  0  0
   10.7515    5.1628    7.3550 C   0  0  0  0  0  0
   11.1220    6.1595    8.2740 C   0  0  0  0  0  0
   12.4569    6.4656    8.5360 C   0  0  0  0  0  0
   13.4644    5.7387    7.9112 C   0  0  0  0  0  0
   13.1113    4.7630    7.0258 N   0  0  0  0  0  0
   13.9220    3.8539    6.4460 N   0  0  0  0  0  0
   13.0664    3.0624    5.8284 C   0  0  0  0  0  0
   13.5220    1.9957    5.0974 N   0  0  0  0  0  0
   12.8101    1.1630    4.2114 C   0  0  0  0  0  0
   11.4579    0.8454    4.3760 C   0  0  0  0  0  0
   10.8286   -0.0370    3.5090 C   0  0  0  0  0  0
   11.5198   -0.6558    2.4631 C   0  0  0  0  0  0
   10.7417   -1.6775    1.6247 C   0  0  0  0  0  0
   11.1423   -1.8673    0.1567 C   0  0  0  0  0  0
   12.3422   -2.6595   -0.0840 N   0  0  1  0  0  0
   13.4645   -2.4532    0.8214 C   0  0  0  0  0  0
   13.7622   -0.9925    1.1944 C   0  0  0  0  0  0
   12.8973   -0.3596    2.2896 C   0  0  0  0  0  0
   13.5015    0.5747    3.1465 C   0  0  0  0  0  0
   11.7910    3.3814    5.9090 N   0  0  0  0  0  0
   11.7903    4.4628    6.7090 C   0  0  0  0  0  0
    5.7430    3.2893    6.8436 H   0  0  0  0  0  0
    7.0804    3.7753    4.8350 H   0  0  0  0  0  0
    9.3742    4.6374    5.0462 H   0  0  0  0  0  0
    9.0087    4.5580    9.3186 H   0  0  0  0  0  0
   10.3675    6.6652    8.8542 H   0  0  0  0  0  0
   12.7075    7.2213    9.2677 H   0  0  0  0  0  0
   14.5076    5.8365    8.1374 H   0  0  0  0  0  0
   14.5178    1.8355    5.0689 H   0  0  0  0  0  0
   10.8770    1.2449    5.1919 H   0  0  0  0  0  0
    9.7817   -0.2543    3.6679 H   0  0  0  0  0  0
   10.7512   -2.6377    2.1420 H   0  0  0  0  0  0
    9.6951   -1.3671    1.6273 H   0  0  0  0  0  0
   10.3239   -2.3342   -0.3935 H   0  0  0  0  0  0
   11.2701   -0.8855   -0.3019 H   0  0  0  0  0  0
   12.0806   -3.6382   -0.0901 H   0  0  0  0  0  0
   13.2858   -3.0235    1.7349 H   0  0  0  0  0  0
   14.3433   -2.9162    0.3710 H   0  0  0  0  0  0
   13.7357   -0.3568    0.3088 H   0  0  0  0  0  0
   14.7969   -0.9592    1.5404 H   0  0  0  0  0  0
   14.5489    0.8069    3.0170 H   0  0  0  0  0  0
  1  2  1  0  0  0
  2  3  1  0  0  0
  2  4  1  0  0  0
  2  5  1  0  0  0
  5  6  2  0  0  0
  5 10  1  0  0  0
  6  7  1  0  0  0
  6 32  1  0  0  0
  7  8  2  0  0  0
  7 33  1  0  0  0
  8  9  1  0  0  0
  8 34  1  0  0  0
  9 10  2  0  0  0
  9 11  1  0  0  0
 10 35  1  0  0  0
 11 12  2  0  0  0
 11 31  1  0  0  0
 12 13  1  0  0  0
 12 36  1  0  0  0
 13 14  2  0  0  0
 13 37  1  0  0  0
 14 15  1  0  0  0
 14 38  1  0  0  0
 15 16  1  0  0  0
 15 31  1  0  0  0
 16 17  2  0  0  0
 17 18  1  0  0  0
 17 30  1  0  0  0
 18 19  1  0  0  0
 18 39  1  0  0  0
 19 20  2  0  0  0
 19 29  1  0  0  0
 20 21  1  0  0  0
 20 40  1  0  0  0
 21 22  2  0  0  0
 21 41  1  0  0  0
 22 23  1  0  0  0
 22 28  1  0  0  0
 23 24  1  0  0  0
 23 42  1  0  0  0
 23 43  1  0  0  0
 24 25  1  0  0  0
 24 44  1  0  0  0
 24 45  1  0  0  0
 25 26  1  0  0  0
 25 46  1  0  0  0
 26 27  1  0  0  0
 26 47  1  0  0  0
 26 48  1  0  0  0
 27 28  1  0  0  0
 27 49  1  0  0  0
 27 50  1  0  0  0
 28 29  2  0  0  0
 29 51  1  0  0  0
 30 31  2  0  0  0
M  END
> <s_m_entry_id>
47506

> <s_m_entry_name>
dock_pv.39

> <s_m_Source_Path>
/home/csk/Desktop/cluster/DUD-E-result/fak1

> <s_m_Source_File>
dock_pv.maegz

> <i_m_Source_File_Index>
39

> <chembl_id>
CHEMBL3645084

> <chembl_pref_name>
None

> <i_lp_mmshare_version>
53161

> <i_f3d_flags>
0

> <r_lp_tautomer_probability>
1

> <s_lp_Force_Field>
OPLS_2005

> <r_lp_Energy>
30.202734

> <b_lp_Chiralities_Consistent>
1

> <s_lp_Variant>
CHEMBL2695_lig636-1

> <s_i_glide_gridfile>
glide-grid_3bz3

> <i_i_glide_lignum>
690

> <i_i_glide_rotatable_bonds>
4

> <r_i_docking_score>
-9.30758675007943

> <r_i_glide_ligand_efficiency>
-0.30024473387353

> <r_i_glide_ligand_efficiency_sa>
-0.943182996893084

> <r_i_glide_ligand_efficiency_ln>
-2.09914605542038

> <r_i_glide_gscore>
-9.30758675007943

> <r_i_glide_lipo>
-3.23933003183579

> <r_i_glide_hbond>
-0.382686062298298

> <r_i_glide_metal>
0

> <r_i_glide_rewards>
-3.072043575

> <r_i_glide_evdw>
-39.0585556030273

> <r_i_glide_ecoul>
-6.61479377746582

> <r_i_glide_erotb>
0.331619765825893

> <r_i_glide_esite>
0

> <r_i_glide_emodel>
-66.9570884687348

> <r_i_glide_energy>
-45.6733493804932

> <r_i_glide_einternal>
3.47891569137573

> <i_i_glide_confnum>
10

> <i_i_glide_posenum>
392

> <r_i_glide_eff_state_penalty>
0

> <s_user_duplicate_titles>
CHEMBL2695_lig636

> <s_m_subgroup_title>
dock_pv

> <s_m_subgroupid>
dock_pv

> <b_m_subgroup_collapsed>
1

$$$$
CHEMBL2695_lig1451 
                    3D
 Schrodinger Suite 2021-1.
 65 69  0  0  1  0            999 V2000
   13.8039    3.9355    6.5299 N   0  0  0  0  0  0
   12.8905    3.1449    5.9090 C   0  0  0  0  0  0
   11.5443    3.3262    5.9090 N   0  0  0  0  0  0
   11.0202    4.3358    6.6443 C   0  0  0  0  0  0
   11.8640    5.2370    7.3203 C   0  0  0  0  0  0
   13.2546    4.9517    7.2054 C   0  0  0  0  0  0
   13.9220    5.8873    7.9567 N   0  0  0  0  0  0
   13.0256    6.7681    8.5133 C   0  0  0  0  0  0
   11.7453    6.4197    8.1296 C   0  0  0  0  0  0
    9.6221    4.3813    6.6333 N   0  0  0  0  0  0
    8.6514    4.3628    7.6562 C   0  0  0  0  0  0
    8.9560    4.6708    8.9892 C   0  0  0  0  0  0
    8.0039    4.5369    9.9982 C   0  0  0  0  0  0
    6.7213    4.1006    9.6877 C   0  0  0  0  0  0
    6.3845    3.8301    8.3639 C   0  0  0  0  0  0
    7.3358    3.9628    7.3425 C   0  0  0  0  0  0
    6.8496    3.6147    5.6126 P   0  0  0  0  0  0
    7.7627    2.0854    5.1795 C   0  0  0  0  0  0
    7.1249    4.7630    4.7089 O   0  0  0  0  0  0
    5.0968    3.0707    5.6079 C   0  0  0  0  0  0
   13.4400    2.0754    5.1838 N   0  0  0  0  0  0
   12.8765    1.1630    4.2694 C   0  0  0  0  0  0
   13.7097    0.6894    3.2555 C   0  0  0  0  0  0
   13.2192   -0.2050    2.3087 C   0  0  0  0  0  0
   11.8852   -0.6321    2.3559 C   0  0  0  0  0  0
   11.0413   -0.1196    3.3556 C   0  0  0  0  0  0
   11.5333    0.7633    4.3086 C   0  0  0  0  0  0
   11.3910   -1.6522    1.3560 C   0  0  0  0  0  0
   10.2899   -2.3338    1.7184 N   0  0  0  0  0  0
    9.7045   -3.4764    1.0288 C   0  0  0  0  0  0
   10.5864   -4.7482    1.0051 C   0  0  0  0  0  0
    9.8474   -5.9697    0.4311 C   0  0  0  0  0  0
    8.6079   -6.1426    1.1088 O   0  0  0  0  0  0
    7.6965   -5.0700    0.8994 C   0  0  0  0  0  0
    8.2705   -3.7801    1.5091 C   0  0  0  0  0  0
   12.0063   -1.8711    0.3090 O   0  0  0  0  0  0
   14.9307    5.9697    8.0752 H   0  0  0  0  0  0
   13.3841    7.5805    9.1299 H   0  0  0  0  0  0
   10.8457    6.9455    8.4110 H   0  0  0  0  0  0
    9.2694    3.9579    5.7883 H   0  0  0  0  0  0
    9.9386    4.9911    9.2733 H   0  0  0  0  0  0
    8.2594    4.7690   11.0218 H   0  0  0  0  0  0
    5.9795    3.9941   10.4676 H   0  0  0  0  0  0
    5.3731    3.5198    8.1527 H   0  0  0  0  0  0
    7.7019    1.3534    5.9847 H   0  0  0  0  0  0
    7.3333    1.6293    4.2883 H   0  0  0  0  0  0
    8.8105    2.2914    4.9715 H   0  0  0  0  0  0
    4.9488    2.2175    6.2696 H   0  0  0  0  0  0
    4.4379    3.8821    5.9156 H   0  0  0  0  0  0
    4.8076    2.7634    4.6036 H   0  0  0  0  0  0
   14.4449    2.0309    5.2503 H   0  0  0  0  0  0
   14.7447    0.9956    3.2091 H   0  0  0  0  0  0
   13.8926   -0.5785    1.5496 H   0  0  0  0  0  0
    9.9986   -0.3985    3.4180 H   0  0  0  0  0  0
   10.8662    1.1088    5.0815 H   0  0  0  0  0  0
    9.8628   -2.1009    2.6013 H   0  0  0  0  0  0
    9.5873   -3.1914   -0.0206 H   0  0  0  0  0  0
   10.8778   -4.9958    2.0268 H   0  0  0  0  0  0
   11.5019   -4.5773    0.4377 H   0  0  0  0  0  0
   10.4484   -6.8701    0.5625 H   0  0  0  0  0  0
    9.6849   -5.8599   -0.6428 H   0  0  0  0  0  0
    6.7460   -5.3193    1.3727 H   0  0  0  0  0  0
    7.4903   -4.9429   -0.1652 H   0  0  0  0  0  0
    7.6033   -2.9429    1.2981 H   0  0  0  0  0  0
    8.2815   -3.9182    2.5920 H   0  0  0  0  0  0
  1  2  2  0  0  0
  1  6  1  0  0  0
  2  3  1  0  0  0
  2 21  1  0  0  0
  3  4  2  0  0  0
  4  5  1  0  0  0
  4 10  1  0  0  0
  5  6  2  0  0  0
  5  9  1  0  0  0
  6  7  1  0  0  0
  7  8  1  0  0  0
  7 37  1  0  0  0
  8  9  2  0  0  0
  8 38  1  0  0  0
  9 39  1  0  0  0
 10 11  1  0  0  0
 10 40  1  0  0  0
 11 12  2  0  0  0
 11 16  1  0  0  0
 12 13  1  0  0  0
 12 41  1  0  0  0
 13 14  2  0  0  0
 13 42  1  0  0  0
 14 15  1  0  0  0
 14 43  1  0  0  0
 15 16  2  0  0  0
 15 44  1  0  0  0
 16 17  1  0  0  0
 17 18  1  0  0  0
 17 19  2  0  0  0
 17 20  1  0  0  0
 18 45  1  0  0  0
 18 46  1  0  0  0
 18 47  1  0  0  0
 20 48  1  0  0  0
 20 49  1  0  0  0
 20 50  1  0  0  0
 21 22  1  0  0  0
 21 51  1  0  0  0
 22 23  2  0  0  0
 22 27  1  0  0  0
 23 24  1  0  0  0
 23 52  1  0  0  0
 24 25  2  0  0  0
 24 53  1  0  0  0
 25 26  1  0  0  0
 25 28  1  0  0  0
 26 27  2  0  0  0
 26 54  1  0  0  0
 27 55  1  0  0  0
 28 29  1  0  0  0
 28 36  2  0  0  0
 29 30  1  0  0  0
 29 56  1  0  0  0
 30 31  1  0  0  0
 30 35  1  0  0  0
 30 57  1  0  0  0
 31 32  1  0  0  0
 31 58  1  0  0  0
 31 59  1  0  0  0
 32 33  1  0  0  0
 32 60  1  0  0  0
 32 61  1  0  0  0
 33 34  1  0  0  0
 34 35  1  0  0  0
 34 62  1  0  0  0
 34 63  1  0  0  0
 35 64  1  0  0  0
 35 65  1  0  0  0
M  END
> <s_m_entry_id>
47507

> <s_m_entry_name>
dock_pv.40

> <s_m_Source_Path>
/home/csk/Desktop/cluster/DUD-E-result/fak1

> <s_m_Source_File>
dock_pv.maegz

> <i_m_Source_File_Index>
40

> <chembl_id>
CHEMBL4472514

> <chembl_pref_name>
None

> <i_lp_mmshare_version>
53161

> <i_f3d_flags>
0

> <r_lp_tautomer_probability>
1

> <s_lp_Force_Field>
OPLS_2005

> <r_lp_Energy>
23.679122

> <b_lp_Chiralities_Consistent>
1

> <s_lp_Variant>
CHEMBL2695_lig1451 -1

> <s_i_glide_gridfile>
glide-grid_3bz3

> <i_i_glide_lignum>
1586

> <i_i_glide_rotatable_bonds>
8

> <r_i_docking_score>
-9.22439087856468

> <r_i_glide_ligand_efficiency>
-0.25623307996013

> <r_i_glide_ligand_efficiency_sa>
-0.846062987777921

> <r_i_glide_ligand_efficiency_ln>
-2.01251287546153

> <r_i_glide_gscore>
-9.22439087856468

> <r_i_glide_lipo>
-3.3200307393867

> <r_i_glide_hbond>
-0.632938303764709

> <r_i_glide_metal>
0

> <r_i_glide_rewards>
-1.60798035805823

> <r_i_glide_evdw>
-49.8450012207031

> <r_i_glide_ecoul>
-11.3828725814819

> <r_i_glide_erotb>
0.562307769833301

> <r_i_glide_esite>
-0.0260682989308907

> <r_i_glide_emodel>
-89.1721721231191

> <r_i_glide_energy>
-61.2278738021851

> <r_i_glide_einternal>
13.5681495666504

> <i_i_glide_confnum>
2

> <i_i_glide_posenum>
134

> <r_i_glide_eff_state_penalty>
0

> <s_user_duplicate_titles>
CHEMBL2695_lig1451 

> <s_m_subgroup_title>
dock_pv

> <s_m_subgroupid>
dock_pv

> <b_m_subgroup_collapsed>
1

$$$$
CHEMBL2695_lig1017
                    3D
 Schrodinger Suite 2021-1.
 43 46  0  0  1  0            999 V2000
    9.8781   -1.3002    2.0542 C   0  0  0  0  0  0
   11.2442   -0.9138    1.9171 O   0  0  0  0  0  0
   11.8113   -0.0949    2.8744 C   0  0  0  0  0  0
   11.1208    0.4082    3.9867 C   0  0  0  0  0  0
   11.7767    1.2156    4.9099 C   0  0  0  0  0  0
   13.1200    1.5624    4.7143 C   0  0  0  0  0  0
   13.8172    2.3850    5.6057 N   0  0  0  0  0  0
   13.3972    3.5283    6.3041 C   0  0  0  0  0  0
   14.3220    4.1101    7.1091 N   0  0  0  0  0  0
   13.8962    5.1630    7.8565 C   0  0  0  0  0  0
   12.5868    5.6487    7.8019 C   0  0  0  0  0  0
   12.1859    6.6664    8.5995 F   0  0  0  0  0  0
   11.7003    4.9967    6.9385 C   0  0  0  0  0  0
   10.3538    5.3243    6.9553 O   0  0  0  0  0  0
    9.3773    4.3909    6.6611 C   0  0  0  0  0  0
    9.2100    3.8848    5.3668 C   0  0  0  0  0  0
    8.2271    2.9296    5.1094 C   0  0  0  0  0  0
    7.3898    2.4869    6.1331 C   0  0  0  0  0  0
    7.5252    3.0118    7.4197 C   0  0  0  0  0  0
    6.7446    2.6740    8.6619 C   0  0  0  0  0  0
    7.3177    3.5808    9.7527 C   0  0  0  0  0  0
    8.4570    4.3624    9.1080 C   0  0  0  0  0  0
    9.1867    5.1629    9.6873 O   0  0  0  0  0  0
    8.5125    3.9630    7.6817 C   0  0  0  0  0  0
   12.1096    3.9425    6.1770 N   0  0  0  0  0  0
   13.8103    1.0559    3.6146 C   0  0  0  0  0  0
   13.1571    0.2301    2.7037 C   0  0  0  0  0  0
    9.5983   -1.9468    1.2218 H   0  0  0  0  0  0
    9.2115   -0.4372    2.0321 H   0  0  0  0  0  0
    9.7060   -1.8558    2.9766 H   0  0  0  0  0  0
   10.0784    0.1824    4.1526 H   0  0  0  0  0  0
   11.2282    1.5762    5.7670 H   0  0  0  0  0  0
   14.7765    2.1081    5.7583 H   0  0  0  0  0  0
   14.6099    5.5718    8.5534 H   0  0  0  0  0  0
    9.8564    4.2161    4.5685 H   0  0  0  0  0  0
    8.1148    2.5271    4.1134 H   0  0  0  0  0  0
    6.6433    1.7360    5.9152 H   0  0  0  0  0  0
    5.6770    2.8660    8.5484 H   0  0  0  0  0  0
    6.8693    1.6284    8.9506 H   0  0  0  0  0  0
    6.5713    4.2821   10.1249 H   0  0  0  0  0  0
    7.6923    3.0104   10.6039 H   0  0  0  0  0  0
   14.8539    1.2855    3.4698 H   0  0  0  0  0  0
   13.6954   -0.1626    1.8539 H   0  0  0  0  0  0
  1  2  1  0  0  0
  1 28  1  0  0  0
  1 29  1  0  0  0
  1 30  1  0  0  0
  2  3  1  0  0  0
  3  4  2  0  0  0
  3 27  1  0  0  0
  4  5  1  0  0  0
  4 31  1  0  0  0
  5  6  2  0  0  0
  5 32  1  0  0  0
  6  7  1  0  0  0
  6 26  1  0  0  0
  7  8  1  0  0  0
  7 33  1  0  0  0
  8  9  2  0  0  0
  8 25  1  0  0  0
  9 10  1  0  0  0
 10 11  2  0  0  0
 10 34  1  0  0  0
 11 12  1  0  0  0
 11 13  1  0  0  0
 13 14  1  0  0  0
 13 25  2  0  0  0
 14 15  1  0  0  0
 15 16  2  0  0  0
 15 24  1  0  0  0
 16 17  1  0  0  0
 16 35  1  0  0  0
 17 18  2  0  0  0
 17 36  1  0  0  0
 18 19  1  0  0  0
 18 37  1  0  0  0
 19 20  1  0  0  0
 19 24  2  0  0  0
 20 21  1  0  0  0
 20 38  1  0  0  0
 20 39  1  0  0  0
 21 22  1  0  0  0
 21 40  1  0  0  0
 21 41  1  0  0  0
 22 23  2  0  0  0
 22 24  1  0  0  0
 26 27  2  0  0  0
 26 42  1  0  0  0
 27 43  1  0  0  0
M  END
> <s_m_entry_id>
47508

> <s_m_entry_name>
dock_pv.41

> <s_m_Source_Path>
/home/csk/Desktop/cluster/DUD-E-result/fak1

> <s_m_Source_File>
dock_pv.maegz

> <i_m_Source_File_Index>
41

> <chembl_id>
CHEMBL3657316

> <chembl_pref_name>
None

> <i_lp_mmshare_version>
53161

> <i_f3d_flags>
0

> <r_lp_tautomer_probability>
0.999949917916752

> <s_lp_Force_Field>
OPLS_2005

> <r_lp_Energy>
34.372786

> <b_lp_Chiralities_Consistent>
1

> <s_lp_Variant>
CHEMBL2695_lig1017-1

> <s_i_glide_gridfile>
glide-grid_3bz3

> <i_i_glide_lignum>
1099

> <i_i_glide_rotatable_bonds>
5

> <r_i_docking_score>
-9.15859716467343

> <r_i_glide_ligand_efficiency>
-0.339207302395312

> <r_i_glide_ligand_efficiency_sa>
-1.01762190606796

> <r_i_glide_ligand_efficiency_ln>
-2.1319704286611

> <r_i_glide_gscore>
-9.15859716467343

> <r_i_glide_lipo>
-2.67281441512885

> <r_i_glide_hbond>
-0.68677514588552

> <r_i_glide_metal>
0

> <r_i_glide_rewards>
-3.0633430103092

> <r_i_glide_evdw>
-39.134334564209

> <r_i_glide_ecoul>
-9.03562450408936

> <r_i_glide_erotb>
0.576395810473997

> <r_i_glide_esite>
0

> <r_i_glide_emodel>
-73.8470186215003

> <r_i_glide_energy>
-48.1699590682983

> <r_i_glide_einternal>
2.51037931442261

> <i_i_glide_confnum>
8

> <i_i_glide_posenum>
200

> <r_i_glide_eff_state_penalty>
0

> <s_user_duplicate_titles>
CHEMBL2695_lig1017

> <s_m_subgroup_title>
dock_pv

> <s_m_subgroupid>
dock_pv

> <b_m_subgroup_collapsed>
1

$$$$
CHEMBL2695_lig744
                    3D
 Schrodinger Suite 2021-1.
 55 59  0  0  1  0            999 V2000
    7.7201    4.1760    9.9974 C   0  0  0  0  0  0
    8.7219    4.4214    9.0133 O   0  0  0  0  0  0
    8.4585    4.1650    7.6763 C   0  0  0  0  0  0
    7.2136    3.6871    7.2249 C   0  0  0  0  0  0
    6.9798    3.4199    5.8709 C   0  0  0  0  0  0
    8.0157    3.6229    4.9588 C   0  0  0  0  0  0
    9.2423    4.1122    5.3869 C   0  0  0  0  0  0
    9.4914    4.3861    6.7392 C   0  0  0  0  0  0
   10.8391    4.9080    7.1436 C   0  0  0  0  0  0
   11.0312    5.9398    8.0700 C   0  0  0  0  0  0
   12.3004    6.3740    8.4283 C   0  0  0  0  0  0
   13.4295    5.7514    7.9090 C   0  0  0  0  0  0
   13.2701    4.6719    7.0281 C   0  0  0  0  0  0
   14.1425    3.7890    6.4809 N   0  0  0  0  0  0
   13.3527    2.9617    5.8196 C   0  0  0  0  0  0
   13.9211    1.9808    5.0454 N   0  0  0  0  0  0
   13.4036    1.1629    4.0248 C   0  0  0  0  0  0
   14.3219    0.6526    3.1122 C   0  0  0  0  0  0
   13.9138   -0.2108    2.1046 C   0  0  0  0  0  0
   12.5797   -0.6141    1.9794 C   0  0  0  0  0  0
   12.2290   -1.5469    0.8133 C   0  0  0  0  0  0
   11.1523   -2.6151    1.0487 C   0  0  0  0  0  0
    9.7788   -2.1445    1.0134 N   0  0  1  0  0  0
    9.4811   -0.8315    1.5611 C   0  0  0  0  0  0
   10.1487   -0.5234    2.9068 C   0  0  0  0  0  0
   11.6271   -0.1110    2.9042 C   0  0  0  0  0  0
   12.0620    0.7671    3.9090 C   0  0  0  0  0  0
   12.0580    3.1790    5.9090 N   0  0  0  0  0  0
   11.9751    4.3007    6.6568 N   0  0  0  0  0  0
    5.6221    2.9040    5.3886 C   0  0  0  0  0  0
    4.9116    2.3609    6.3794 F   0  0  0  0  0  0
    5.7652    1.9879    4.4298 F   0  0  0  0  0  0
    4.9315    3.9292    4.8888 F   0  0  0  0  0  0
    8.1009    4.4577   10.9789 H   0  0  0  0  0  0
    6.8211    4.7674    9.8186 H   0  0  0  0  0  0
    7.4531    3.1183   10.0395 H   0  0  0  0  0  0
    6.4098    3.5155    7.9239 H   0  0  0  0  0  0
    7.8843    3.4032    3.9098 H   0  0  0  0  0  0
   10.0137    4.2720    4.6470 H   0  0  0  0  0  0
   10.1959    6.3629    8.5870 H   0  0  0  0  0  0
   12.4107    7.1674    9.1542 H   0  0  0  0  0  0
   14.3961    6.0524    8.2504 H   0  0  0  0  0  0
   14.8911    1.7600    5.2269 H   0  0  0  0  0  0
   15.3679    0.9126    3.1886 H   0  0  0  0  0  0
   14.6590   -0.5808    1.4158 H   0  0  0  0  0  0
   11.9726   -0.9376   -0.0541 H   0  0  0  0  0  0
   13.1404   -2.0769    0.5338 H   0  0  0  0  0  0
   11.2475   -3.4192    0.3180 H   0  0  0  0  0  0
   11.3274   -3.0856    2.0175 H   0  0  0  0  0  0
    9.3176   -2.3179    0.1309 H   0  0  0  0  0  0
    9.7691   -0.0690    0.8361 H   0  0  0  0  0  0
    8.3967   -0.7464    1.6489 H   0  0  0  0  0  0
   10.0288   -1.3821    3.5651 H   0  0  0  0  0  0
    9.5793    0.2814    3.3757 H   0  0  0  0  0  0
   11.3415    1.1238    4.6298 H   0  0  0  0  0  0
  1  2  1  0  0  0
  1 34  1  0  0  0
  1 35  1  0  0  0
  1 36  1  0  0  0
  2  3  1  0  0  0
  3  4  2  0  0  0
  3  8  1  0  0  0
  4  5  1  0  0  0
  4 37  1  0  0  0
  5  6  2  0  0  0
  5 30  1  0  0  0
  6  7  1  0  0  0
  6 38  1  0  0  0
  7  8  2  0  0  0
  7 39  1  0  0  0
  8  9  1  0  0  0
  9 10  2  0  0  0
  9 29  1  0  0  0
 10 11  1  0  0  0
 10 40  1  0  0  0
 11 12  2  0  0  0
 11 41  1  0  0  0
 12 13  1  0  0  0
 12 42  1  0  0  0
 13 14  2  0  0  0
 13 29  1  0  0  0
 14 15  1  0  0  0
 15 16  1  0  0  0
 15 28  2  0  0  0
 16 17  1  0  0  0
 16 43  1  0  0  0
 17 18  2  0  0  0
 17 27  1  0  0  0
 18 19  1  0  0  0
 18 44  1  0  0  0
 19 20  2  0  0  0
 19 45  1  0  0  0
 20 21  1  0  0  0
 20 26  1  0  0  0
 21 22  1  0  0  0
 21 46  1  0  0  0
 21 47  1  0  0  0
 22 23  1  0  0  0
 22 48  1  0  0  0
 22 49  1  0  0  0
 23 24  1  0  0  0
 23 50  1  0  0  0
 24 25  1  0  0  0
 24 51  1  0  0  0
 24 52  1  0  0  0
 25 26  1  0  0  0
 25 53  1  0  0  0
 25 54  1  0  0  0
 26 27  2  0  0  0
 27 55  1  0  0  0
 28 29  1  0  0  0
 30 31  1  0  0  0
 30 32  1  0  0  0
 30 33  1  0  0  0
M  END
> <s_m_entry_id>
47509

> <s_m_entry_name>
dock_pv.42

> <s_m_Source_Path>
/home/csk/Desktop/cluster/DUD-E-result/fak1

> <s_m_Source_File>
dock_pv.maegz

> <i_m_Source_File_Index>
42

> <chembl_id>
CHEMBL3644975

> <chembl_pref_name>
None

> <i_lp_mmshare_version>
53161

> <i_f3d_flags>
0

> <r_lp_tautomer_probability>
1

> <s_lp_Force_Field>
OPLS_2005

> <r_lp_Energy>
35.576638

> <b_lp_Chiralities_Consistent>
1

> <s_lp_Variant>
CHEMBL2695_lig744-1

> <s_i_glide_gridfile>
glide-grid_3bz3

> <i_i_glide_lignum>
800

> <i_i_glide_rotatable_bonds>
5

> <r_i_docking_score>
-9.15215277851258

> <r_i_glide_ligand_efficiency>
-0.27733796298523

> <r_i_glide_ligand_efficiency_sa>
-0.889571036249439

> <r_i_glide_ligand_efficiency_ln>
-2.03539139063023

> <r_i_glide_gscore>
-9.15215277851258

> <r_i_glide_lipo>
-3.46127157761573

> <r_i_glide_hbond>
-0.509964920239186

> <r_i_glide_metal>
0

> <r_i_glide_rewards>
-2.45696989418114

> <r_i_glide_evdw>
-39.7425155639648

> <r_i_glide_ecoul>
-6.08253526687622

> <r_i_glide_erotb>
0.292861871110685

> <r_i_glide_esite>
-0.117302189357546

> <r_i_glide_emodel>
-62.1652958251453

> <r_i_glide_energy>
-45.8250508308411

> <r_i_glide_einternal>
0.915668308734894

> <i_i_glide_confnum>
14

> <i_i_glide_posenum>
237

> <r_i_glide_eff_state_penalty>
0

> <s_user_duplicate_titles>
CHEMBL2695_lig744

> <s_m_subgroup_title>
dock_pv

> <s_m_subgroupid>
dock_pv

> <b_m_subgroup_collapsed>
1

$$$$
CHEMBL2695_lig2066
                    3D
 Schrodinger Suite 2021-1.
 42 45  0  0  1  0            999 V2000
    4.6110    2.8926    8.5273 O   0  0  0  0  0  0
   11.0965    3.2237    6.0410 N   0  0  0  0  0  0
    9.7655    1.6294    5.2525 N   0  0  0  0  0  0
   13.8918    3.4209    6.3090 N   0  0  0  0  0  0
   13.4288    5.5721    7.3418 N   0  0  0  0  0  0
    6.4595    3.7347    7.4766 N   0  0  0  0  0  0
    7.9216    4.7645   10.8268 N   0  0  0  0  0  0
    9.7912    2.8528    5.7486 C   0  0  0  0  0  0
   11.6660    4.3950    6.6046 C   0  0  0  0  0  0
   11.9005    2.1580    5.6252 C   0  0  0  0  0  0
    8.5368    3.7127    5.9425 C   0  0  1  0  0  0
   13.0766    4.3982    6.7089 C   0  0  0  0  0  0
   10.9947    1.2068    5.1113 C   0  0  0  0  0  0
   13.2846    2.3253    5.7713 C   0  0  0  0  0  0
    7.4550    3.5060    4.8556 C   0  0  2  0  0  0
   11.1703    5.6243    7.1388 C   0  0  0  0  0  0
    7.9553    3.7369    7.3981 C   0  0  0  0  0  0
   12.2898    6.3119    7.5882 C   0  0  0  0  0  0
    6.3815    4.5698    5.1301 C   0  0  0  0  0  0
    5.5781    4.2459    6.3931 C   0  0  0  0  0  0
    5.8287    3.0998    8.5064 C   0  0  0  0  0  0
    6.8650    2.0680    4.7111 C   0  0  0  0  0  0
    6.6152    2.7506    9.7699 C   0  0  0  0  0  0
    7.3452    3.8753   10.3667 C   0  0  0  0  0  0
   14.3642    5.8795    7.5853 H   0  0  0  0  0  0
    8.8955    4.7293    5.7713 H   0  0  0  0  0  0
   11.1895    0.2459    4.6626 H   0  0  0  0  0  0
   13.9343    1.5571    5.4037 H   0  0  0  0  0  0
    7.9191    3.7485    3.8987 H   0  0  0  0  0  0
   10.1507    5.9606    7.2106 H   0  0  0  0  0  0
    8.3730    4.5645    7.9695 H   0  0  0  0  0  0
    8.3341    2.8180    7.8427 H   0  0  0  0  0  0
   12.3769    7.2735    8.0724 H   0  0  0  0  0  0
    5.6665    4.6261    4.3112 H   0  0  0  0  0  0
    6.8199    5.5662    5.2156 H   0  0  0  0  0  0
    4.8724    3.4575    6.1171 H   0  0  0  0  0  0
    5.0156    5.1158    6.7370 H   0  0  0  0  0  0
    6.6930    1.5933    5.6781 H   0  0  0  0  0  0
    5.9112    2.0839    4.1848 H   0  0  0  0  0  0
    7.5146    1.4137    4.1326 H   0  0  0  0  0  0
    7.3097    1.9355    9.5710 H   0  0  0  0  0  0
    5.9200    2.3865   10.5228 H   0  0  0  0  0  0
  1 21  2  0  0  0
  2  8  1  0  0  0
  2  9  1  0  0  0
  2 10  1  0  0  0
  3  8  2  0  0  0
  3 13  1  0  0  0
  4 12  1  0  0  0
  4 14  2  0  0  0
  5 12  1  0  0  0
  5 18  1  0  0  0
  5 25  1  0  0  0
  6 17  1  0  0  0
  6 20  1  0  0  0
  6 21  1  0  0  0
  7 24  3  0  0  0
  8 11  1  0  0  0
  9 12  2  0  0  0
  9 16  1  0  0  0
 10 13  2  0  0  0
 10 14  1  0  0  0
 11 15  1  0  0  0
 11 17  1  0  0  0
 11 26  1  0  0  0
 13 27  1  0  0  0
 14 28  1  0  0  0
 15 19  1  0  0  0
 15 22  1  0  0  0
 15 29  1  0  0  0
 16 18  2  0  0  0
 16 30  1  0  0  0
 17 31  1  0  0  0
 17 32  1  0  0  0
 18 33  1  0  0  0
 19 20  1  0  0  0
 19 34  1  0  0  0
 19 35  1  0  0  0
 20 36  1  0  0  0
 20 37  1  0  0  0
 21 23  1  0  0  0
 22 38  1  0  0  0
 22 39  1  0  0  0
 22 40  1  0  0  0
 23 24  1  0  0  0
 23 41  1  0  0  0
 23 42  1  0  0  0
M  END
> <s_m_entry_id>
47510

> <s_m_entry_name>
dock_pv.43

> <s_m_Source_Path>
/home/csk/Desktop/cluster/DUD-E-result/fak1

> <s_m_Source_File>
dock_pv.maegz

> <i_m_Source_File_Index>
43

> <chembl_id>
CHEMBL1966175

> <chembl_pref_name>
None

> <i_lp_mmshare_version>
53161

> <i_f3d_flags>
0

> <r_lp_tautomer_probability>
1

> <s_lp_Force_Field>
OPLS_2005

> <r_lp_Energy>
64.408161

> <b_lp_Chiralities_Consistent>
1

> <s_lp_Variant>
CHEMBL2695_lig2066-2

> <s_i_glide_gridfile>
glide-grid_3bz3

> <i_i_glide_lignum>
2479

> <i_i_glide_rotatable_bonds>
3

> <r_i_docking_score>
-9.14681511659592

> <r_i_glide_ligand_efficiency>
-0.38111729652483

> <r_i_glide_ligand_efficiency_sa>
-1.09933251313473

> <r_i_glide_ligand_efficiency_ln>
-2.18925257739778

> <r_i_glide_gscore>
-9.14681511659592

> <r_i_glide_lipo>
-2.61765684463535

> <r_i_glide_hbond>
-0.309614733017139

> <r_i_glide_metal>
0

> <r_i_glide_rewards>
-3.75479810633774

> <r_i_glide_evdw>
-40.5952415466309

> <r_i_glide_ecoul>
-4.57934427261353

> <r_i_glide_erotb>
0.25191828561788

> <r_i_glide_esite>
0

> <r_i_glide_emodel>
-55.0456634537757

> <r_i_glide_energy>
-45.1745858192444

> <r_i_glide_einternal>
5.53924131393433

> <i_i_glide_confnum>
4

> <i_i_glide_posenum>
51

> <r_i_glide_eff_state_penalty>
0

> <s_user_duplicate_titles>
CHEMBL2695_lig2066

> <s_m_subgroup_title>
dock_pv

> <s_m_subgroupid>
dock_pv

> <b_m_subgroup_collapsed>
1

$$$$
CHEMBL2695_lig1433
                    3D
 Schrodinger Suite 2021-1.
 63 65  0  0  1  0            999 V2000
    6.8608    3.1820    7.1414 C   0  0  0  0  0  0
    8.0011    3.8822    7.5868 C   0  0  0  0  0  0
    9.0542    4.0954    6.6525 C   0  0  0  0  0  0
    8.9271    3.6133    5.3422 C   0  0  0  0  0  0
    7.7977    2.9105    4.9428 C   0  0  0  0  0  0
    6.7637    2.6960    5.8416 C   0  0  0  0  0  0
    8.0665    4.3629    9.0361 C   0  0  0  0  0  0
    7.1461    3.8705    9.8853 N   0  0  0  0  0  0
    8.9214    5.1630    9.4169 O   0  0  0  0  0  0
    6.9838    4.2888   11.2731 C   0  0  0  0  0  0
   10.2292    4.7889    7.0026 N   0  0  0  0  0  0
   11.5786    4.5232    6.7164 C   0  0  0  0  0  0
   12.5910    5.2548    7.3700 C   0  0  0  0  0  0
   13.8959    4.7650    7.2529 C   0  0  0  0  0  0
   14.1978    3.6505    6.5509 N   0  0  0  0  0  0
   13.1734    3.0448    5.9089 C   0  0  0  0  0  0
   11.8785    3.4445    5.9433 N   0  0  0  0  0  0
   13.5514    1.9553    5.1250 N   0  0  0  0  0  0
   12.8693    1.1630    4.1951 C   0  0  0  0  0  0
   11.5219    0.8040    4.3306 C   0  0  0  0  0  0
   10.9316   -0.0370    3.3901 C   0  0  0  0  0  0
   11.6846   -0.5079    2.3106 C   0  0  0  0  0  0
   13.0175   -0.1197    2.1624 C   0  0  0  0  0  0
   13.6110    0.7036    3.1090 C   0  0  0  0  0  0
   11.0688   -1.4529    1.2919 C   0  0  0  0  0  0
   11.6294   -3.1991    1.4643 P   0  0  0  0  0  0
   10.9716   -3.5970    2.9092 O   0  0  0  0  0  0
   11.3064   -4.1113    0.3335 O   0  0  0  0  0  0
   13.2257   -3.0012    1.7656 O   0  0  0  0  0  0
   14.1430   -4.0727    1.9253 C   0  0  0  0  0  0
   14.4511   -4.7806    0.5990 C   0  0  0  0  0  0
   12.3361    6.4438    8.1986 N   0  3  0  0  0  0
   12.9833    7.4531    7.9497 O   0  0  0  0  0  0
   11.5210    6.3613    9.1088 O   0  5  0  0  0  0
   11.1477   -4.8439    3.5731 C   0  0  0  0  0  0
   11.1222   -6.0859    2.6666 C   0  0  0  0  0  0
    6.0212    2.9912    7.7939 H   0  0  0  0  0  0
    9.7049    3.7846    4.6130 H   0  0  0  0  0  0
    7.7200    2.5350    3.9328 H   0  0  0  0  0  0
    5.8878    2.1441    5.5307 H   0  0  0  0  0  0
    6.5359    3.1340    9.5659 H   0  0  0  0  0  0
    5.9222    4.3629   11.5086 H   0  0  0  0  0  0
    7.4348    5.2607   11.4740 H   0  0  0  0  0  0
    7.4364    3.5632   11.9481 H   0  0  0  0  0  0
   10.0968    5.4219    7.7837 H   0  0  0  0  0  0
   14.7219    5.2390    7.7617 H   0  0  0  0  0  0
   14.5296    1.7152    5.2185 H   0  0  0  0  0  0
   10.9377    1.1455    5.1723 H   0  0  0  0  0  0
    9.8960   -0.3249    3.5058 H   0  0  0  0  0  0
   13.6030   -0.4778    1.3286 H   0  0  0  0  0  0
   14.6520    0.9718    3.0005 H   0  0  0  0  0  0
    9.9803   -1.4289    1.3525 H   0  0  0  0  0  0
   11.3230   -1.1035    0.2924 H   0  0  0  0  0  0
   15.0679   -3.6414    2.3100 H   0  0  0  0  0  0
   13.8047   -4.7796    2.6812 H   0  0  0  0  0  0
   15.2483   -5.5126    0.7291 H   0  0  0  0  0  0
   13.5830   -5.3138    0.2133 H   0  0  0  0  0  0
   14.7735   -4.0682   -0.1594 H   0  0  0  0  0  0
   12.0725   -4.8208    4.1469 H   0  0  0  0  0  0
   10.3492   -4.9171    4.3113 H   0  0  0  0  0  0
   11.1221   -7.0008    3.2603 H   0  0  0  0  0  0
   10.2393   -6.0917    2.0281 H   0  0  0  0  0  0
   11.9937   -6.1304    2.0155 H   0  0  0  0  0  0
  1  2  2  0  0  0
  1  6  1  0  0  0
  1 37  1  0  0  0
  2  3  1  0  0  0
  2  7  1  0  0  0
  3  4  2  0  0  0
  3 11  1  0  0  0
  4  5  1  0  0  0
  4 38  1  0  0  0
  5  6  2  0  0  0
  5 39  1  0  0  0
  6 40  1  0  0  0
  7  8  1  0  0  0
  7  9  2  0  0  0
  8 10  1  0  0  0
  8 41  1  0  0  0
 10 42  1  0  0  0
 10 43  1  0  0  0
 10 44  1  0  0  0
 11 12  1  0  0  0
 11 45  1  0  0  0
 12 13  2  0  0  0
 12 17  1  0  0  0
 13 14  1  0  0  0
 13 32  1  0  0  0
 14 15  2  0  0  0
 14 46  1  0  0  0
 15 16  1  0  0  0
 16 17  2  0  0  0
 16 18  1  0  0  0
 18 19  1  0  0  0
 18 47  1  0  0  0
 19 20  2  0  0  0
 19 24  1  0  0  0
 20 21  1  0  0  0
 20 48  1  0  0  0
 21 22  2  0  0  0
 21 49  1  0  0  0
 22 23  1  0  0  0
 22 25  1  0  0  0
 23 24  2  0  0  0
 23 50  1  0  0  0
 24 51  1  0  0  0
 25 26  1  0  0  0
 25 52  1  0  0  0
 25 53  1  0  0  0
 26 27  1  0  0  0
 26 28  2  0  0  0
 26 29  1  0  0  0
 27 35  1  0  0  0
 29 30  1  0  0  0
 30 31  1  0  0  0
 30 54  1  0  0  0
 30 55  1  0  0  0
 31 56  1  0  0  0
 31 57  1  0  0  0
 31 58  1  0  0  0
 32 33  2  0  0  0
 32 34  1  0  0  0
 35 36  1  0  0  0
 35 59  1  0  0  0
 35 60  1  0  0  0
 36 61  1  0  0  0
 36 62  1  0  0  0
 36 63  1  0  0  0
M  CHG  2  32   1  34  -1
M  END
> <s_m_entry_id>
47511

> <s_m_entry_name>
dock_pv.44

> <s_m_Source_Path>
/home/csk/Desktop/cluster/DUD-E-result/fak1

> <s_m_Source_File>
dock_pv.maegz

> <i_m_Source_File_Index>
44

> <chembl_id>
CHEMBL4207007

> <chembl_pref_name>
None

> <i_lp_mmshare_version>
53161

> <i_f3d_flags>
0

> <r_lp_tautomer_probability>
0.999999624730965

> <s_lp_Force_Field>
OPLS_2005

> <r_lp_Energy>
16.589639

> <b_lp_Chiralities_Consistent>
1

> <s_lp_Variant>
CHEMBL2695_lig1433-1

> <s_i_glide_gridfile>
glide-grid_3bz3

> <i_i_glide_lignum>
1568

> <i_i_glide_rotatable_bonds>
13

> <r_i_docking_score>
-9.13866969227947

> <r_i_glide_ligand_efficiency>
-0.253851935896652

> <r_i_glide_ligand_efficiency_sa>
-0.838200623320572

> <r_i_glide_ligand_efficiency_ln>
-1.99381082853291

> <r_i_glide_gscore>
-9.13866969227947

> <r_i_glide_lipo>
-2.63904839942241

> <r_i_glide_hbond>
-0.578059825063621

> <r_i_glide_metal>
0

> <r_i_glide_rewards>
-2.01831949974832

> <r_i_glide_evdw>
-56.2423858642578

> <r_i_glide_ecoul>
-11.9241762161255

> <r_i_glide_erotb>
0.697503757586586

> <r_i_glide_esite>
0

> <r_i_glide_emodel>
-98.6339759500016

> <r_i_glide_energy>
-68.1665620803833

> <r_i_glide_einternal>
9.71029567718506

> <i_i_glide_confnum>
1

> <i_i_glide_posenum>
242

> <r_i_glide_eff_state_penalty>
0

> <s_user_duplicate_titles>
CHEMBL2695_lig1433

> <s_m_subgroup_title>
dock_pv

> <s_m_subgroupid>
dock_pv

> <b_m_subgroup_collapsed>
1

$$$$
CHEMBL2695_lig1447 
                    3D
 Schrodinger Suite 2021-1.
 54 57  0  0  1  0            999 V2000
   13.8578    4.1644    6.7086 N   0  0  0  0  0  0
   12.9678    3.4165    6.0042 C   0  0  0  0  0  0
   11.6284    3.6181    5.9396 N   0  0  0  0  0  0
   11.0790    4.5856    6.7053 C   0  0  0  0  0  0
   11.8935    5.4629    7.4450 C   0  0  0  0  0  0
   13.2842    5.1656    7.3894 C   0  0  0  0  0  0
   13.9220    6.0956    8.1735 N   0  0  0  0  0  0
   13.0081    6.9717    8.7099 C   0  0  0  0  0  0
   11.7445    6.6284    8.2765 C   0  0  0  0  0  0
    9.6835    4.6017    6.6694 N   0  0  0  0  0  0
   13.5233    2.3225    5.3255 N   0  0  0  0  0  0
   12.9605    1.3568    4.4701 C   0  0  0  0  0  0
   11.6014    1.0119    4.5065 C   0  0  0  0  0  0
   11.0740    0.1236    3.5772 C   0  0  0  0  0  0
   11.8971   -0.4457    2.6055 C   0  0  0  0  0  0
   13.2634   -0.1193    2.5731 C   0  0  0  0  0  0
   13.7892    0.7708    3.5090 C   0  0  0  0  0  0
    8.7300    4.4502    7.6951 C   0  0  0  0  0  0
    9.0207    4.7598    9.0330 C   0  0  0  0  0  0
    8.0806    4.5419   10.0394 C   0  0  0  0  0  0
    6.8315    4.0202    9.7219 C   0  0  0  0  0  0
    6.5105    3.7453    8.3948 C   0  0  0  0  0  0
    7.4455    3.9636    7.3721 C   0  0  0  0  0  0
    6.9762    3.6198    5.6331 P   0  0  0  0  0  0
    7.8982    2.0947    5.2148 C   0  0  0  0  0  0
    7.2592    4.7620    4.7232 O   0  0  0  0  0  0
    5.2236    3.0759    5.6124 C   0  0  0  0  0  0
   11.2574   -1.3424    1.7342 N   0  0  0  0  0  0
   11.7567   -2.0601    0.7091 C   0  0  0  0  0  0
   10.7490   -2.9535   -0.0016 C   0  0  0  0  0  0
   12.9209   -2.0372    0.3090 O   0  0  0  0  0  0
   14.9286    6.1841    8.3084 H   0  0  0  0  0  0
   13.3406    7.7791    9.3468 H   0  0  0  0  0  0
   10.8365    7.1535    8.5288 H   0  0  0  0  0  0
    9.3521    4.2039    5.8039 H   0  0  0  0  0  0
   14.5252    2.2732    5.3999 H   0  0  0  0  0  0
   10.9437    1.4036    5.2630 H   0  0  0  0  0  0
   10.0196   -0.1143    3.6224 H   0  0  0  0  0  0
   13.9363   -0.5417    1.8463 H   0  0  0  0  0  0
   14.8409    1.0164    3.4726 H   0  0  0  0  0  0
    9.9778    5.1526    9.3199 H   0  0  0  0  0  0
    8.3202    4.7755   11.0666 H   0  0  0  0  0  0
    6.1009    3.8491   10.5005 H   0  0  0  0  0  0
    5.5228    3.3693    8.1808 H   0  0  0  0  0  0
    7.8259    1.3578    6.0138 H   0  0  0  0  0  0
    7.4956    1.6451    4.3080 H   0  0  0  0  0  0
    8.9449    2.3198    5.0315 H   0  0  0  0  0  0
    5.0745    2.2031    6.2452 H   0  0  0  0  0  0
    4.5641    3.8773    5.9451 H   0  0  0  0  0  0
    4.9318    2.8007    4.6001 H   0  0  0  0  0  0
   10.2687   -1.4527    1.9072 H   0  0  0  0  0  0
   10.1673   -3.5297    0.7199 H   0  0  0  0  0  0
   11.2563   -3.6565   -0.6635 H   0  0  0  0  0  0
   10.0632   -2.3520   -0.5999 H   0  0  0  0  0  0
  1  2  2  0  0  0
  1  6  1  0  0  0
  2  3  1  0  0  0
  2 11  1  0  0  0
  3  4  2  0  0  0
  4  5  1  0  0  0
  4 10  1  0  0  0
  5  6  2  0  0  0
  5  9  1  0  0  0
  6  7  1  0  0  0
  7  8  1  0  0  0
  7 32  1  0  0  0
  8  9  2  0  0  0
  8 33  1  0  0  0
  9 34  1  0  0  0
 10 18  1  0  0  0
 10 35  1  0  0  0
 11 12  1  0  0  0
 11 36  1  0  0  0
 12 13  2  0  0  0
 12 17  1  0  0  0
 13 14  1  0  0  0
 13 37  1  0  0  0
 14 15  2  0  0  0
 14 38  1  0  0  0
 15 16  1  0  0  0
 15 28  1  0  0  0
 16 17  2  0  0  0
 16 39  1  0  0  0
 17 40  1  0  0  0
 18 19  2  0  0  0
 18 23  1  0  0  0
 19 20  1  0  0  0
 19 41  1  0  0  0
 20 21  2  0  0  0
 20 42  1  0  0  0
 21 22  1  0  0  0
 21 43  1  0  0  0
 22 23  2  0  0  0
 22 44  1  0  0  0
 23 24  1  0  0  0
 24 25  1  0  0  0
 24 26  2  0  0  0
 24 27  1  0  0  0
 25 45  1  0  0  0
 25 46  1  0  0  0
 25 47  1  0  0  0
 27 48  1  0  0  0
 27 49  1  0  0  0
 27 50  1  0  0  0
 28 29  1  0  0  0
 28 51  1  0  0  0
 29 30  1  0  0  0
 29 31  2  0  0  0
 30 52  1  0  0  0
 30 53  1  0  0  0
 30 54  1  0  0  0
M  END
> <s_m_entry_id>
47512

> <s_m_entry_name>
dock_pv.45

> <s_m_Source_Path>
/home/csk/Desktop/cluster/DUD-E-result/fak1

> <s_m_Source_File>
dock_pv.maegz

> <i_m_Source_File_Index>
45

> <chembl_id>
CHEMBL4549746

> <chembl_pref_name>
None

> <i_lp_mmshare_version>
53161

> <i_f3d_flags>
0

> <r_lp_tautomer_probability>
1

> <s_lp_Force_Field>
OPLS_2005

> <r_lp_Energy>
21.262382

> <b_lp_Chiralities_Consistent>
1

> <s_lp_Variant>
CHEMBL2695_lig1447 -1

> <s_i_glide_gridfile>
glide-grid_3bz3

> <i_i_glide_lignum>
1582

> <i_i_glide_rotatable_bonds>
7

> <r_i_docking_score>
-9.11317638809532

> <r_i_glide_ligand_efficiency>
-0.293973431874043

> <r_i_glide_ligand_efficiency_sa>
-0.923482450149141

> <r_i_glide_ligand_efficiency_ln>
-2.05530056083089

> <r_i_glide_gscore>
-9.11317638809532

> <r_i_glide_lipo>
-3.24883804511996

> <r_i_glide_hbond>
-0.479699068629265

> <r_i_glide_metal>
0

> <r_i_glide_rewards>
-2.03057581639673

> <r_i_glide_evdw>
-45.445068359375

> <r_i_glide_ecoul>
-10.5029249191284

> <r_i_glide_erotb>
0.527623387324094

> <r_i_glide_esite>
-0.0339946894354491

> <r_i_glide_emodel>
-77.6426219947316

> <r_i_glide_energy>
-55.9479932785034

> <r_i_glide_einternal>
18.7706394195557

> <i_i_glide_confnum>
1

> <i_i_glide_posenum>
391

> <r_i_glide_eff_state_penalty>
0

> <s_user_duplicate_titles>
CHEMBL2695_lig1447 

> <s_m_subgroup_title>
dock_pv

> <s_m_subgroupid>
dock_pv

> <b_m_subgroup_collapsed>
1

$$$$
CHEMBL2695_lig1459 
                    3D
 Schrodinger Suite 2021-1.
 47 50  0  0  1  0            999 V2000
   13.8191    3.8608    6.5023 N   0  0  0  0  0  0
   12.9089    3.0461    5.9090 C   0  0  0  0  0  0
   11.5573    3.2193    5.9090 N   0  0  0  0  0  0
   11.0301    4.2614    6.5950 C   0  0  0  0  0  0
   11.8723    5.1938    7.2249 C   0  0  0  0  0  0
   13.2629    4.9030    7.1310 C   0  0  0  0  0  0
   13.9220    5.8723    7.8455 N   0  0  0  0  0  0
   13.0234    6.7805    8.3507 C   0  0  0  0  0  0
   11.7480    6.4177    7.9687 C   0  0  0  0  0  0
    9.6316    4.3125    6.5899 N   0  0  0  0  0  0
    8.6713    4.3624    7.6225 C   0  0  0  0  0  0
    8.9997    4.7154    8.9398 C   0  0  0  0  0  0
    8.0578    4.6343    9.9647 C   0  0  0  0  0  0
    6.7657    4.2043    9.6882 C   0  0  0  0  0  0
    6.4051    3.8959    8.3796 C   0  0  0  0  0  0
    7.3422    3.9809    7.3404 C   0  0  0  0  0  0
    6.8073    3.6337    5.6248 P   0  0  0  0  0  0
    7.6280    2.0545    5.1827 C   0  0  0  0  0  0
    7.1187    4.7630    4.7090 O   0  0  0  0  0  0
    5.0284    3.1819    5.6589 C   0  0  0  0  0  0
   13.4631    1.9630    5.1992 N   0  0  0  0  0  0
   12.8325    1.1630    4.2668 C   0  0  0  0  0  0
   13.3843    0.5775    3.1090 C   0  0  0  0  0  0
   12.5250   -0.1456    2.4242 N   0  0  0  0  0  0
   11.3797   -0.0370    3.1090 N   0  0  0  0  0  0
   11.5050    0.7630    4.2115 C   0  0  0  0  0  0
   10.1793   -0.6828    2.6098 C   0  0  0  0  0  0
   14.9297    5.9631    7.9670 H   0  0  0  0  0  0
   13.3769    7.6208    8.9311 H   0  0  0  0  0  0
   10.8460    6.9582    8.2113 H   0  0  0  0  0  0
    9.2682    3.8503    5.7706 H   0  0  0  0  0  0
    9.9904    5.0348    9.1999 H   0  0  0  0  0  0
    8.3220    4.9019   10.9770 H   0  0  0  0  0  0
    6.0333    4.1380   10.4812 H   0  0  0  0  0  0
    5.3840    3.6017    8.1938 H   0  0  0  0  0  0
    7.5221    1.3219    5.9824 H   0  0  0  0  0  0
    7.1784    1.6315    4.2844 H   0  0  0  0  0  0
    8.6866    2.2031    4.9821 H   0  0  0  0  0  0
    4.8499    2.3349    6.3209 H   0  0  0  0  0  0
    4.4211    4.0261    5.9844 H   0  0  0  0  0  0
    4.6997    2.8971    4.6603 H   0  0  0  0  0  0
   14.4684    1.9335    5.2810 H   0  0  0  0  0  0
   14.4133    0.6680    2.7947 H   0  0  0  0  0  0
   10.6624    0.9569    4.8574 H   0  0  0  0  0  0
    9.3475   -0.5088    3.2943 H   0  0  0  0  0  0
   10.3505   -1.7557    2.5180 H   0  0  0  0  0  0
    9.9223   -0.2661    1.6352 H   0  0  0  0  0  0
  1  2  2  0  0  0
  1  6  1  0  0  0
  2  3  1  0  0  0
  2 21  1  0  0  0
  3  4  2  0  0  0
  4  5  1  0  0  0
  4 10  1  0  0  0
  5  6  2  0  0  0
  5  9  1  0  0  0
  6  7  1  0  0  0
  7  8  1  0  0  0
  7 28  1  0  0  0
  8  9  2  0  0  0
  8 29  1  0  0  0
  9 30  1  0  0  0
 10 11  1  0  0  0
 10 31  1  0  0  0
 11 12  2  0  0  0
 11 16  1  0  0  0
 12 13  1  0  0  0
 12 32  1  0  0  0
 13 14  2  0  0  0
 13 33  1  0  0  0
 14 15  1  0  0  0
 14 34  1  0  0  0
 15 16  2  0  0  0
 15 35  1  0  0  0
 16 17  1  0  0  0
 17 18  1  0  0  0
 17 19  2  0  0  0
 17 20  1  0  0  0
 18 36  1  0  0  0
 18 37  1  0  0  0
 18 38  1  0  0  0
 20 39  1  0  0  0
 20 40  1  0  0  0
 20 41  1  0  0  0
 21 22  1  0  0  0
 21 42  1  0  0  0
 22 23  1  0  0  0
 22 26  2  0  0  0
 23 24  2  0  0  0
 23 43  1  0  0  0
 24 25  1  0  0  0
 25 26  1  0  0  0
 25 27  1  0  0  0
 26 44  1  0  0  0
 27 45  1  0  0  0
 27 46  1  0  0  0
 27 47  1  0  0  0
M  END
> <s_m_entry_id>
47513

> <s_m_entry_name>
dock_pv.46

> <s_m_Source_Path>
/home/csk/Desktop/cluster/DUD-E-result/fak1

> <s_m_Source_File>
dock_pv.maegz

> <i_m_Source_File_Index>
46

> <chembl_id>
CHEMBL4447326

> <chembl_pref_name>
None

> <i_lp_mmshare_version>
53161

> <i_f3d_flags>
0

> <r_lp_tautomer_probability>
1

> <s_lp_Force_Field>
OPLS_2005

> <r_lp_Energy>
9.728771

> <b_lp_Chiralities_Consistent>
1

> <s_lp_Variant>
CHEMBL2695_lig1459 -1

> <s_i_glide_gridfile>
glide-grid_3bz3

> <i_i_glide_lignum>
1594

> <i_i_glide_rotatable_bonds>
5

> <r_i_docking_score>
-9.10153186600435

> <r_i_glide_ligand_efficiency>
-0.337093772814976

> <r_i_glide_ligand_efficiency_sa>
-1.01128131733392

> <r_i_glide_ligand_efficiency_ln>
-2.11868656792592

> <r_i_glide_gscore>
-9.10153186600435

> <r_i_glide_lipo>
-2.93059827201461

> <r_i_glide_hbond>
-0.446988835444196

> <r_i_glide_metal>
0

> <r_i_glide_rewards>
-2.54079134948867

> <r_i_glide_evdw>
-43.1125259399414

> <r_i_glide_ecoul>
-9.34135627746582

> <r_i_glide_erotb>
0.37367632956008

> <r_i_glide_esite>
0

> <r_i_glide_emodel>
-73.3013792494888

> <r_i_glide_energy>
-52.4538822174072

> <r_i_glide_einternal>
15.5642919540405

> <i_i_glide_confnum>
12

> <i_i_glide_posenum>
117

> <r_i_glide_eff_state_penalty>
0

> <s_user_duplicate_titles>
CHEMBL2695_lig1459 

> <s_m_subgroup_title>
dock_pv

> <s_m_subgroupid>
dock_pv

> <b_m_subgroup_collapsed>
1

$$$$
CHEMBL2695_lig217
                    3D
 Schrodinger Suite 2021-1.
 60 64  0  0  1  0            999 V2000
   12.0464    1.1534    4.2976 C   0  0  0  0  0  0
   13.4147    1.4698    4.3916 C   0  0  0  0  0  0
   14.3222    0.8691    3.5069 C   0  0  0  0  0  0
   13.8885   -0.0324    2.5352 C   0  0  0  0  0  0
   11.6262    0.2211    3.3471 C   0  0  0  0  0  0
   12.5347   -0.3462    2.4751 C   0  0  0  0  0  0
   11.8780   -1.2312    1.6384 N   0  0  0  0  0  0
   10.5586   -1.3011    1.8804 C   0  0  0  0  0  0
   10.2842   -0.3746    3.0635 C   0  0  0  0  0  0
    9.7338   -1.9826    1.2807 O   0  0  0  0  0  0
   13.9162    2.3630    5.3458 N   0  0  0  0  0  0
   13.3006    3.4151    6.0313 C   0  0  0  0  0  0
   11.9673    3.6183    5.9091 N   0  0  0  0  0  0
   11.3933    4.6502    6.5749 C   0  0  0  0  0  0
   12.1939    5.5304    7.3345 C   0  0  0  0  0  0
   13.5626    5.2338    7.4072 C   0  0  0  0  0  0
   14.1286    4.1825    6.7689 N   0  0  0  0  0  0
    9.9844    4.7683    6.4946 N   0  0  0  0  0  0
    9.1680    3.6335    6.0157 C   0  0  0  0  0  0
    7.6657    3.9547    5.9022 C   0  0  0  0  0  0
    7.3058    4.8612    4.9075 C   0  0  0  0  0  0
    5.9830    5.2618    4.7220 C   0  0  0  0  0  0
    4.9864    4.7677    5.5488 C   0  0  0  0  0  0
    5.3010    3.8058    6.4942 C   0  0  0  0  0  0
    6.6210    3.3666    6.6597 C   0  0  0  0  0  0
   11.6480    6.7464    8.0657 C   0  0  0  0  0  0
   12.5951    7.4020    8.7381 F   0  0  0  0  0  0
   11.1252    7.5887    7.1766 F   0  0  0  0  0  0
   10.7217    6.3534    8.9381 F   0  0  0  0  0  0
    6.8195    1.9436    7.7238 S   0  0  0  0  0  0
    7.9213    1.1648    7.1592 O   0  0  0  0  0  0
    7.2646    2.5983    9.3065 N   0  0  0  0  0  0
    5.5005    1.3146    7.8718 O   0  0  0  0  0  0
    8.5690    3.2689    9.5332 C   0  0  0  0  0  0
    8.1478    4.6284   10.0697 C   0  0  0  0  0  0
    6.9454    4.2959   10.9198 C   0  0  0  0  0  0
    6.1872    3.2576   10.0952 C   0  0  0  0  0  0
   11.3111    1.5391    4.9828 H   0  0  0  0  0  0
   15.3770    1.0959    3.5713 H   0  0  0  0  0  0
   14.6058   -0.4907    1.8707 H   0  0  0  0  0  0
   12.3255   -1.7871    0.9286 H   0  0  0  0  0  0
    9.9222   -0.9585    3.9048 H   0  0  0  0  0  0
    9.5335    0.3627    2.7934 H   0  0  0  0  0  0
   14.9088    2.2824    5.5046 H   0  0  0  0  0  0
   14.2525    5.8449    7.9755 H   0  0  0  0  0  0
    9.5441    5.4387    7.1077 H   0  0  0  0  0  0
    9.3848    2.7820    6.6475 H   0  0  0  0  0  0
    9.5158    3.3344    5.0249 H   0  0  0  0  0  0
    8.0790    5.2811    4.2842 H   0  0  0  0  0  0
    5.7362    5.9753    3.9498 H   0  0  0  0  0  0
    3.9642    5.0990    5.4472 H   0  0  0  0  0  0
    4.4949    3.3847    7.0767 H   0  0  0  0  0  0
    9.1890    3.3253    8.6478 H   0  0  0  0  0  0
    9.1148    2.7633   10.3309 H   0  0  0  0  0  0
    7.8753    5.2852    9.2418 H   0  0  0  0  0  0
    8.9344    5.1260   10.6340 H   0  0  0  0  0  0
    7.2566    3.8729   11.8773 H   0  0  0  0  0  0
    6.3350    5.1702   11.1394 H   0  0  0  0  0  0
    5.6344    2.5492   10.7080 H   0  0  0  0  0  0
    5.5204    3.8251    9.4433 H   0  0  0  0  0  0
  1  2  2  0  0  0
  1  5  1  0  0  0
  1 38  1  0  0  0
  2 11  1  0  0  0
  2  3  1  0  0  0
  3  4  2  0  0  0
  3 39  1  0  0  0
  4  6  1  0  0  0
  4 40  1  0  0  0
  5  9  1  0  0  0
  5  6  2  0  0  0
  6  7  1  0  0  0
  7  8  1  0  0  0
  7 41  1  0  0  0
  8  9  1  0  0  0
  8 10  2  0  0  0
  9 42  1  0  0  0
  9 43  1  0  0  0
 11 12  1  0  0  0
 11 44  1  0  0  0
 12 13  2  0  0  0
 12 17  1  0  0  0
 13 14  1  0  0  0
 14 18  1  0  0  0
 14 15  2  0  0  0
 15 26  1  0  0  0
 15 16  1  0  0  0
 16 17  2  0  0  0
 16 45  1  0  0  0
 18 19  1  0  0  0
 18 46  1  0  0  0
 19 20  1  0  0  0
 19 47  1  0  0  0
 19 48  1  0  0  0
 20 21  2  0  0  0
 20 25  1  0  0  0
 21 22  1  0  0  0
 21 49  1  0  0  0
 22 23  2  0  0  0
 22 50  1  0  0  0
 23 24  1  0  0  0
 23 51  1  0  0  0
 24 25  2  0  0  0
 24 52  1  0  0  0
 25 30  1  0  0  0
 26 27  1  0  0  0
 26 28  1  0  0  0
 26 29  1  0  0  0
 30 31  2  0  0  0
 30 32  1  0  0  0
 30 33  2  0  0  0
 32 34  1  0  0  0
 32 37  1  0  0  0
 34 35  1  0  0  0
 34 53  1  0  0  0
 34 54  1  0  0  0
 35 36  1  0  0  0
 35 55  1  0  0  0
 35 56  1  0  0  0
 36 37  1  0  0  0
 36 57  1  0  0  0
 36 58  1  0  0  0
 37 59  1  0  0  0
 37 60  1  0  0  0
M  END
> <s_m_entry_id>
47514

> <s_m_entry_name>
dock_pv.47

> <s_m_Source_Path>
/home/csk/Desktop/cluster/DUD-E-result/fak1

> <s_m_Source_File>
dock_pv.maegz

> <i_m_Source_File_Index>
47

> <chembl_id>
CHEMBL529889

> <chembl_pref_name>
None

> <i_lp_mmshare_version>
53161

> <i_f3d_flags>
0

> <r_lp_tautomer_probability>
0.999999624730965

> <s_lp_Force_Field>
OPLS_2005

> <r_lp_Energy>
34.011374

> <b_lp_Chiralities_Consistent>
1

> <s_lp_Variant>
CHEMBL2695_lig217-1

> <s_i_glide_gridfile>
glide-grid_3bz3

> <i_i_glide_lignum>
249

> <i_i_glide_rotatable_bonds>
8

> <r_i_docking_score>
-9.09339726852751

> <r_i_glide_ligand_efficiency>
-0.245767493743987

> <r_i_glide_ligand_efficiency_sa>
-0.818951812092251

> <r_i_glide_ligand_efficiency_ln>
-1.97214468806553

> <r_i_glide_gscore>
-9.09339726852751

> <r_i_glide_lipo>
-4.13105173349362

> <r_i_glide_hbond>
-0.259295677551397

> <r_i_glide_metal>
0

> <r_i_glide_rewards>
-2.42663701774754

> <r_i_glide_evdw>
-44.5740509033203

> <r_i_glide_ecoul>
-3.45208358764648

> <r_i_glide_erotb>
0.509126092166178

> <r_i_glide_esite>
-0.0390238485881498

> <r_i_glide_emodel>
-67.3881048876742

> <r_i_glide_energy>
-48.0261344909668

> <r_i_glide_einternal>
6.04509925842285

> <i_i_glide_confnum>
47

> <i_i_glide_posenum>
12

> <r_i_glide_eff_state_penalty>
0

> <s_user_duplicate_titles>
CHEMBL2695_lig217,452870

> <s_m_subgroup_title>
dock_pv

> <s_m_subgroupid>
dock_pv

> <b_m_subgroup_collapsed>
1

$$$$
CHEMBL2695_lig85
                    3D
 Schrodinger Suite 2021-1.
 42 45  0  0  1  0            999 V2000
    9.6292    1.1630    4.8237 N   0  0  0  0  0  0
    9.2383    2.2750    5.4883 C   0  0  0  0  0  0
   10.0502    3.2380    6.0151 N   0  0  0  0  0  0
   10.9548    0.9213    4.7294 C   0  0  0  0  0  0
   11.8898    1.8055    5.2762 C   0  0  0  0  0  0
   11.3630    2.9825    5.8956 C   0  0  0  0  0  0
   12.4468    3.7622    6.3089 N   0  0  0  0  0  0
   13.5933    3.0610    5.9785 C   0  0  0  0  0  0
   13.3080    1.8713    5.3585 C   0  0  0  0  0  0
   12.4568    5.0317    6.9410 C   0  0  0  0  0  0
   11.4424    5.9712    6.7287 C   0  0  0  0  0  0
   11.5219    7.1969    7.3934 C   0  0  0  0  0  0
   12.5583    7.4356    8.2931 C   0  0  0  0  0  0
   13.5220    6.4473    8.4631 C   0  0  0  0  0  0
   13.4974    5.2709    7.7898 N   0  0  0  0  0  0
    7.8529    2.3617    5.6452 N   0  0  0  0  0  0
    7.0538    2.9582    6.6358 C   0  0  0  0  0  0
    5.6646    3.0661    6.4415 C   0  0  0  0  0  0
    4.8605    3.5772    7.4638 C   0  0  0  0  0  0
    5.4202    3.9630    8.6788 C   0  0  0  0  0  0
    6.8023    3.8644    8.8879 C   0  0  0  0  0  0
    7.6036    3.3660    7.8578 C   0  0  0  0  0  0
    5.0026    2.6211    5.1430 C   0  0  0  0  0  0
    7.4407    4.2822   10.1846 C   0  0  0  0  0  0
    6.7221    4.0874   11.2848 N   0  0  0  0  0  0
    8.5711    4.7633   10.2297 O   0  0  0  0  0  0
   11.2533    0.0234    4.2098 H   0  0  0  0  0  0
   14.5542    3.4900    6.2159 H   0  0  0  0  0  0
   14.0347    1.1625    4.9899 H   0  0  0  0  0  0
   10.6226    5.7714    6.0556 H   0  0  0  0  0  0
   10.7637    7.9489    7.2295 H   0  0  0  0  0  0
   12.6196    8.3630    8.8388 H   0  0  0  0  0  0
   14.3510    6.5935    9.1386 H   0  0  0  0  0  0
    7.3835    1.6035    5.1675 H   0  0  0  0  0  0
    3.7925    3.6696    7.3240 H   0  0  0  0  0  0
    4.7681    4.3602    9.4448 H   0  0  0  0  0  0
    8.6620    3.2606    8.0384 H   0  0  0  0  0  0
    3.9206    2.7604    5.1568 H   0  0  0  0  0  0
    5.4077    3.1915    4.3091 H   0  0  0  0  0  0
    5.2056    1.5650    4.9532 H   0  0  0  0  0  0
    7.0924    4.3625   12.1809 H   0  0  0  0  0  0
    5.8228    3.6248   11.2442 H   0  0  0  0  0  0
  1  2  2  0  0  0
  1  4  1  0  0  0
  2  3  1  0  0  0
  2 16  1  0  0  0
  3  6  2  0  0  0
  4  5  2  0  0  0
  4 27  1  0  0  0
  5  9  1  0  0  0
  5  6  1  0  0  0
  6  7  1  0  0  0
  7  8  1  0  0  0
  7 10  1  0  0  0
  8  9  2  0  0  0
  8 28  1  0  0  0
  9 29  1  0  0  0
 10 15  1  0  0  0
 10 11  2  0  0  0
 11 12  1  0  0  0
 11 30  1  0  0  0
 12 13  2  0  0  0
 12 31  1  0  0  0
 13 14  1  0  0  0
 13 32  1  0  0  0
 14 15  2  0  0  0
 14 33  1  0  0  0
 16 17  1  0  0  0
 16 34  1  0  0  0
 17 18  2  0  0  0
 17 22  1  0  0  0
 18 19  1  0  0  0
 18 23  1  0  0  0
 19 20  2  0  0  0
 19 35  1  0  0  0
 20 21  1  0  0  0
 20 36  1  0  0  0
 21 22  2  0  0  0
 21 24  1  0  0  0
 22 37  1  0  0  0
 23 38  1  0  0  0
 23 39  1  0  0  0
 23 40  1  0  0  0
 24 25  1  0  0  0
 24 26  2  0  0  0
 25 41  1  0  0  0
 25 42  1  0  0  0
M  END
> <s_m_entry_id>
47515

> <s_m_entry_name>
dock_pv.48

> <s_m_Source_Path>
/home/csk/Desktop/cluster/DUD-E-result/fak1

> <s_m_Source_File>
dock_pv.maegz

> <i_m_Source_File_Index>
48

> <chembl_id>
CHEMBL379118

> <chembl_pref_name>
None

> <i_lp_mmshare_version>
53161

> <i_f3d_flags>
0

> <r_lp_tautomer_probability>
1

> <s_lp_Force_Field>
OPLS_2005

> <r_lp_Energy>
11.528722

> <b_lp_Chiralities_Consistent>
1

> <s_lp_Variant>
CHEMBL2695_lig85-1

> <s_i_glide_gridfile>
glide-grid_3bz3

> <i_i_glide_lignum>
107

> <i_i_glide_rotatable_bonds>
4

> <r_i_docking_score>
-9.05264301523305

> <r_i_glide_ligand_efficiency>
-0.348178577508963

> <r_i_glide_ligand_efficiency_sa>
-1.03147766585376

> <r_i_glide_ligand_efficiency_ln>
-2.12598350798297

> <r_i_glide_gscore>
-9.05264301523305

> <r_i_glide_lipo>
-3.01817628412931

> <r_i_glide_hbond>
-0.473930366432097

> <r_i_glide_metal>
0

> <r_i_glide_rewards>
-2.89837030166733

> <r_i_glide_evdw>
-44.7480964660645

> <r_i_glide_ecoul>
-5.76546859741211

> <r_i_glide_erotb>
0.48030535791303

> <r_i_glide_esite>
-0.0402463080023048

> <r_i_glide_emodel>
-72.4773254941034

> <r_i_glide_energy>
-50.5135650634766

> <r_i_glide_einternal>
8.38390254974365

> <i_i_glide_confnum>
7

> <i_i_glide_posenum>
370

> <r_i_glide_eff_state_penalty>
0

> <s_user_duplicate_titles>
CHEMBL2695_lig85,344767

> <s_m_subgroup_title>
dock_pv

> <s_m_subgroupid>
dock_pv

> <b_m_subgroup_collapsed>
1

$$$$
CHEMBL2695_lig1016
                    3D
 Schrodinger Suite 2021-1.
 47 50  0  0  1  0            999 V2000
    8.8572   -1.4904    1.9892 C   0  0  0  0  0  0
   10.2359   -1.2453    1.7246 O   0  0  0  0  0  0
   10.9495   -0.4417    2.5910 C   0  0  0  0  0  0
   10.3970    0.2258    3.6889 C   0  0  0  0  0  0
   11.1958    1.0016    4.5216 C   0  0  0  0  0  0
   12.5658    1.1630    4.2637 C   0  0  0  0  0  0
   13.3875    1.9496    5.1090 N   0  0  0  0  0  0
   13.0999    3.0694    5.9090 C   0  0  0  0  0  0
   14.1465    3.6210    6.5748 N   0  0  0  0  0  0
   13.8979    4.7630    7.2707 C   0  0  0  0  0  0
   12.6346    5.3583    7.3143 C   0  0  0  0  0  0
   12.4147    6.4791    8.0403 F   0  0  0  0  0  0
   11.6056    4.7194    6.6155 C   0  0  0  0  0  0
   10.3044    5.1850    6.7160 O   0  0  0  0  0  0
    9.2284    4.3396    6.5236 C   0  0  0  0  0  0
    8.9034    3.8409    5.2565 C   0  0  0  0  0  0
    7.8554    2.9317    5.1090 C   0  0  0  0  0  0
    7.1107    2.5337    6.2190 C   0  0  0  0  0  0
    7.4010    3.0592    7.4794 C   0  0  0  0  0  0
    6.7303    2.7743    8.7977 C   0  0  0  0  0  0
    7.4648    3.6481    9.8171 C   0  0  0  0  0  0
    8.5607    4.3776    9.0466 C   0  0  0  0  0  0
    9.3720    5.1630    9.5332 O   0  0  0  0  0  0
    8.4527    3.9630    7.6296 C   0  0  0  0  0  0
   11.8406    3.5768    5.9090 N   0  0  0  0  0  0
   13.1319    0.5112    3.1435 C   0  0  0  0  0  0
   14.4864    0.6761    2.9113 O   0  0  0  0  0  0
   15.1220   -0.1720    1.9633 C   0  0  0  0  0  0
   12.3101   -0.2931    2.3320 C   0  0  0  0  0  0
    8.4544   -2.1575    1.2274 H   0  0  0  0  0  0
    8.2696   -0.5713    1.9656 H   0  0  0  0  0  0
    8.7220   -1.9765    2.9564 H   0  0  0  0  0  0
    9.3426    0.1528    3.9090 H   0  0  0  0  0  0
   10.7270    1.4582    5.3787 H   0  0  0  0  0  0
   14.3700    1.7114    5.0645 H   0  0  0  0  0  0
   14.7220    5.1767    7.8280 H   0  0  0  0  0  0
    9.4882    4.1305    4.3959 H   0  0  0  0  0  0
    7.6267    2.5215    4.1361 H   0  0  0  0  0  0
    6.3138    1.8148    6.0873 H   0  0  0  0  0  0
    5.6703    3.0323    8.7863 H   0  0  0  0  0  0
    6.8185    1.7245    9.0828 H   0  0  0  0  0  0
    6.7975    4.3794   10.2742 H   0  0  0  0  0  0
    7.9073    3.0540   10.6165 H   0  0  0  0  0  0
   16.1856    0.0611    1.9173 H   0  0  0  0  0  0
   15.0224   -1.2215    2.2436 H   0  0  0  0  0  0
   14.7114   -0.0370    0.9638 H   0  0  0  0  0  0
   12.7058   -0.8154    1.4763 H   0  0  0  0  0  0
  1  2  1  0  0  0
  1 30  1  0  0  0
  1 31  1  0  0  0
  1 32  1  0  0  0
  2  3  1  0  0  0
  3  4  2  0  0  0
  3 29  1  0  0  0
  4  5  1  0  0  0
  4 33  1  0  0  0
  5  6  2  0  0  0
  5 34  1  0  0  0
  6  7  1  0  0  0
  6 26  1  0  0  0
  7  8  1  0  0  0
  7 35  1  0  0  0
  8  9  2  0  0  0
  8 25  1  0  0  0
  9 10  1  0  0  0
 10 11  2  0  0  0
 10 36  1  0  0  0
 11 12  1  0  0  0
 11 13  1  0  0  0
 13 14  1  0  0  0
 13 25  2  0  0  0
 14 15  1  0  0  0
 15 16  2  0  0  0
 15 24  1  0  0  0
 16 17  1  0  0  0
 16 37  1  0  0  0
 17 18  2  0  0  0
 17 38  1  0  0  0
 18 19  1  0  0  0
 18 39  1  0  0  0
 19 20  1  0  0  0
 19 24  2  0  0  0
 20 21  1  0  0  0
 20 40  1  0  0  0
 20 41  1  0  0  0
 21 22  1  0  0  0
 21 42  1  0  0  0
 21 43  1  0  0  0
 22 23  2  0  0  0
 22 24  1  0  0  0
 26 27  1  0  0  0
 26 29  2  0  0  0
 27 28  1  0  0  0
 28 44  1  0  0  0
 28 45  1  0  0  0
 28 46  1  0  0  0
 29 47  1  0  0  0
M  END
> <s_m_entry_id>
47516

> <s_m_entry_name>
dock_pv.49

> <s_m_Source_Path>
/home/csk/Desktop/cluster/DUD-E-result/fak1

> <s_m_Source_File>
dock_pv.maegz

> <i_m_Source_File_Index>
49

> <chembl_id>
CHEMBL3657315

> <chembl_pref_name>
None

> <i_lp_mmshare_version>
53161

> <i_f3d_flags>
0

> <r_lp_tautomer_probability>
0.999949917916752

> <s_lp_Force_Field>
OPLS_2005

> <r_lp_Energy>
38.003648

> <b_lp_Chiralities_Consistent>
1

> <s_lp_Variant>
CHEMBL2695_lig1016-1

> <s_i_glide_gridfile>
glide-grid_3bz3

> <i_i_glide_lignum>
1098

> <i_i_glide_rotatable_bonds>
6

> <r_i_docking_score>
-9.01214003049614

> <r_i_glide_ligand_efficiency>
-0.310763449327453

> <r_i_glide_ligand_efficiency_sa>
-0.954763773105248

> <r_i_glide_ligand_efficiency_ln>
-2.06355153883039

> <r_i_glide_gscore>
-9.01214003049614

> <r_i_glide_lipo>
-2.50831078926237

> <r_i_glide_hbond>
-0.64263700545068

> <r_i_glide_metal>
0

> <r_i_glide_rewards>
-2.92907250124775

> <r_i_glide_evdw>
-41.0448112487793

> <r_i_glide_ecoul>
-9.20146369934082

> <r_i_glide_erotb>
0.500340382804744

> <r_i_glide_esite>
0

> <r_i_glide_emodel>
-73.9099948425953

> <r_i_glide_energy>
-50.2462749481201

> <r_i_glide_einternal>
7.70689964294434

> <i_i_glide_confnum>
5

> <i_i_glide_posenum>
114

> <r_i_glide_eff_state_penalty>
0

> <s_user_duplicate_titles>
CHEMBL2695_lig1016

> <s_m_subgroup_title>
dock_pv

> <s_m_subgroupid>
dock_pv

> <b_m_subgroup_collapsed>
1

$$$$
CHEMBL2695_lig1460 
                    3D
 Schrodinger Suite 2021-1.
 50 53  0  0  1  0            999 V2000
   13.7841    3.8570    6.4786 N   0  0  0  0  0  0
   12.8597    3.0465    5.9034 C   0  0  0  0  0  0
   11.5112    3.2326    5.9090 N   0  0  0  0  0  0
   10.9999    4.2823    6.5935 C   0  0  0  0  0  0
   11.8561    5.2055    7.2202 C   0  0  0  0  0  0
   13.2444    4.9047    7.1110 C   0  0  0  0  0  0
   13.9220    5.8723    7.8122 N   0  0  0  0  0  0
   13.0335    6.7824    8.3328 C   0  0  0  0  0  0
   11.7496    6.4266    7.9707 C   0  0  0  0  0  0
    9.6025    4.3533    6.5827 N   0  0  0  0  0  0
    8.6477    4.3615    7.6203 C   0  0  0  0  0  0
    8.9804    4.6956    8.9406 C   0  0  0  0  0  0
    8.0488    4.5789    9.9708 C   0  0  0  0  0  0
    6.7611    4.1339    9.6952 C   0  0  0  0  0  0
    6.3958    3.8435    8.3835 C   0  0  0  0  0  0
    7.3236    3.9630    7.3391 C   0  0  0  0  0  0
    6.7850    3.6279    5.6211 P   0  0  0  0  0  0
    7.6150    2.0592    5.1636 C   0  0  0  0  0  0
    7.0868    4.7630    4.7090 O   0  0  0  0  0  0
    5.0091    3.1650    5.6576 C   0  0  0  0  0  0
   13.3966    1.9630    5.1842 N   0  0  0  0  0  0
   12.7496    1.1630    4.2619 C   0  0  0  0  0  0
   13.2880    0.5567    3.1090 C   0  0  0  0  0  0
   12.4164   -0.1541    2.4243 N   0  0  0  0  0  0
   11.2709   -0.0370    3.1108 N   0  0  0  0  0  0
   11.4199    0.7630    4.2147 C   0  0  0  0  0  0
   10.0227   -0.5922    2.5902 C   0  0  0  0  0  0
   10.0653   -2.1176    2.3878 C   0  0  0  0  0  0
   10.3220   -2.7901    3.5090 F   0  0  0  0  0  0
   10.9266   -2.5072    1.4473 F   0  0  0  0  0  0
   14.9317    5.9630    7.9177 H   0  0  0  0  0  0
   13.3994    7.6203    8.9090 H   0  0  0  0  0  0
   10.8544    6.9712    8.2284 H   0  0  0  0  0  0
    9.2376    3.9080    5.7546 H   0  0  0  0  0  0
    9.9683    5.0275    9.1964 H   0  0  0  0  0  0
    8.3220    4.8307   10.9849 H   0  0  0  0  0  0
    6.0360    4.0401   10.4922 H   0  0  0  0  0  0
    5.3789    3.5335    8.1996 H   0  0  0  0  0  0
    7.5221    1.3200    5.9589 H   0  0  0  0  0  0
    7.1639    1.6393    4.2646 H   0  0  0  0  0  0
    8.6701    2.2232    4.9585 H   0  0  0  0  0  0
    4.8386    2.3086    6.3095 H   0  0  0  0  0  0
    4.3984    4.0016    5.9965 H   0  0  0  0  0  0
    4.6774    2.8909    4.6569 H   0  0  0  0  0  0
   14.4029    1.9323    5.2520 H   0  0  0  0  0  0
   14.3166    0.6319    2.7901 H   0  0  0  0  0  0
   10.5832    0.9754    4.8620 H   0  0  0  0  0  0
    9.7928   -0.0844    1.6531 H   0  0  0  0  0  0
    9.2165   -0.3390    3.2809 H   0  0  0  0  0  0
    9.0872   -2.4666    2.0545 H   0  0  0  0  0  0
  1  2  2  0  0  0
  1  6  1  0  0  0
  2  3  1  0  0  0
  2 21  1  0  0  0
  3  4  2  0  0  0
  4  5  1  0  0  0
  4 10  1  0  0  0
  5  6  2  0  0  0
  5  9  1  0  0  0
  6  7  1  0  0  0
  7  8  1  0  0  0
  7 31  1  0  0  0
  8  9  2  0  0  0
  8 32  1  0  0  0
  9 33  1  0  0  0
 10 11  1  0  0  0
 10 34  1  0  0  0
 11 12  2  0  0  0
 11 16  1  0  0  0
 12 13  1  0  0  0
 12 35  1  0  0  0
 13 14  2  0  0  0
 13 36  1  0  0  0
 14 15  1  0  0  0
 14 37  1  0  0  0
 15 16  2  0  0  0
 15 38  1  0  0  0
 16 17  1  0  0  0
 17 18  1  0  0  0
 17 19  2  0  0  0
 17 20  1  0  0  0
 18 39  1  0  0  0
 18 40  1  0  0  0
 18 41  1  0  0  0
 20 42  1  0  0  0
 20 43  1  0  0  0
 20 44  1  0  0  0
 21 22  1  0  0  0
 21 45  1  0  0  0
 22 23  1  0  0  0
 22 26  2  0  0  0
 23 24  2  0  0  0
 23 46  1  0  0  0
 24 25  1  0  0  0
 25 26  1  0  0  0
 25 27  1  0  0  0
 26 47  1  0  0  0
 27 28  1  0  0  0
 27 48  1  0  0  0
 27 49  1  0  0  0
 28 29  1  0  0  0
 28 30  1  0  0  0
 28 50  1  0  0  0
M  END
> <s_m_entry_id>
47517

> <s_m_entry_name>
dock_pv.50

> <s_m_Source_Path>
/home/csk/Desktop/cluster/DUD-E-result/fak1

> <s_m_Source_File>
dock_pv.maegz

> <i_m_Source_File_Index>
50

> <chembl_id>
CHEMBL4577625

> <chembl_pref_name>
None

> <i_lp_mmshare_version>
53161

> <i_f3d_flags>
0

> <r_lp_tautomer_probability>
1

> <s_lp_Force_Field>
OPLS_2005

> <r_lp_Energy>
14.438381

> <b_lp_Chiralities_Consistent>
1

> <s_lp_Variant>
CHEMBL2695_lig1460 -1

> <s_i_glide_gridfile>
glide-grid_3bz3

> <i_i_glide_lignum>
1595

> <i_i_glide_rotatable_bonds>
7

> <r_i_docking_score>
-8.98576468426444

> <r_i_glide_ligand_efficiency>
-0.299525489475481

> <r_i_glide_ligand_efficiency_sa>
-0.930695336204797

> <r_i_glide_ligand_efficiency_ln>
-2.04166364401291

> <r_i_glide_gscore>
-8.98576468426444

> <r_i_glide_lipo>
-2.9466697921834

> <r_i_glide_hbond>
-0.404678395781663

> <r_i_glide_metal>
0

> <r_i_glide_rewards>
-2.18161457335331

> <r_i_glide_evdw>
-44.833366394043

> <r_i_glide_ecoul>
-11.2696714401245

> <r_i_glide_erotb>
0.534407770332504

> <r_i_glide_esite>
-0.0550906575577476

> <r_i_glide_emodel>
-76.0444225876279

> <r_i_glide_energy>
-56.1030378341675

> <r_i_glide_einternal>
18.9852542877197

> <i_i_glide_confnum>
7

> <i_i_glide_posenum>
389

> <r_i_glide_eff_state_penalty>
0

> <s_user_duplicate_titles>
CHEMBL2695_lig1460 

> <s_m_subgroup_title>
dock_pv

> <s_m_subgroupid>
dock_pv

> <b_m_subgroup_collapsed>
1

$$$$
CHEMBL2695_lig601
                    3D
 Schrodinger Suite 2021-1.
 46 50  0  0  1  0            999 V2000
    6.5526    4.0160   10.1095 C   0  0  0  0  0  0
    6.2407    3.7652    8.7434 O   0  0  0  0  0  0
    7.2062    3.9630    7.7760 C   0  0  0  0  0  0
    6.8202    3.7446    6.4531 C   0  0  0  0  0  0
    7.7202    3.9355    5.4071 C   0  0  0  0  0  0
    9.0171    4.3630    5.6776 C   0  0  0  0  0  0
    9.4361    4.5982    6.9929 C   0  0  0  0  0  0
    8.5256    4.3701    8.0355 C   0  0  0  0  0  0
   10.8278    5.0428    7.2781 C   0  0  0  0  0  0
   11.1220    6.0346    8.2286 C   0  0  0  0  0  0
   12.4290    6.3630    8.5882 C   0  0  0  0  0  0
   13.4933    5.6697    8.0226 C   0  0  0  0  0  0
   13.2186    4.7014    7.1011 N   0  0  0  0  0  0
   14.0843    3.8169    6.5599 N   0  0  0  0  0  0
   13.2905    3.0199    5.8632 C   0  0  0  0  0  0
   13.8385    2.0110    5.1090 N   0  0  0  0  0  0
   13.2833    1.1630    4.1281 C   0  0  0  0  0  0
   14.1822    0.6136    3.2036 C   0  0  0  0  0  0
   13.7509   -0.2861    2.2297 C   0  0  0  0  0  0
   12.4040   -0.6354    2.1723 C   0  0  0  0  0  0
   11.6694   -1.6028    1.2799 C   0  0  0  0  0  0
   10.2624   -1.2877    1.4614 N   0  0  2  0  0  0
   10.1528   -0.7369    2.8044 C   0  0  0  0  0  0
   11.4978   -0.1061    3.0802 C   0  0  0  0  0  0
   11.9220    0.7964    4.0573 C   0  0  0  0  0  0
   12.0001    3.2764    5.9090 N   0  0  0  0  0  0
   11.9235    4.3630    6.7090 C   0  0  0  0  0  0
    5.6549    3.8698   10.7090 H   0  0  0  0  0  0
    7.3154    3.3283   10.4774 H   0  0  0  0  0  0
    6.8855    5.0424   10.2710 H   0  0  0  0  0  0
    5.8128    3.4192    6.2380 H   0  0  0  0  0  0
    7.4167    3.7508    4.3873 H   0  0  0  0  0  0
    9.7021    4.5067    4.8543 H   0  0  0  0  0  0
    8.8523    4.5289    9.0508 H   0  0  0  0  0  0
   10.3220    6.5248    8.7533 H   0  0  0  0  0  0
   12.6119    7.1144    9.3439 H   0  0  0  0  0  0
   14.5172    5.7861    8.3270 H   0  0  0  0  0  0
   14.8246    1.8287    5.2295 H   0  0  0  0  0  0
   15.2331    0.8597    3.2565 H   0  0  0  0  0  0
   14.4684   -0.7139    1.5456 H   0  0  0  0  0  0
   11.9215   -1.4729    0.2279 H   0  0  0  0  0  0
   11.8646   -2.6406    1.5553 H   0  0  0  0  0  0
    9.7068   -2.1311    1.4139 H   0  0  0  0  0  0
    9.9281   -1.5375    3.5090 H   0  0  0  0  0  0
    9.3199   -0.0370    2.8330 H   0  0  0  0  0  0
   11.2117    1.1778    4.7744 H   0  0  0  0  0  0
  1  2  1  0  0  0
  1 28  1  0  0  0
  1 29  1  0  0  0
  1 30  1  0  0  0
  2  3  1  0  0  0
  3  4  2  0  0  0
  3  8  1  0  0  0
  4  5  1  0  0  0
  4 31  1  0  0  0
  5  6  2  0  0  0
  5 32  1  0  0  0
  6  7  1  0  0  0
  6 33  1  0  0  0
  7  8  2  0  0  0
  7  9  1  0  0  0
  8 34  1  0  0  0
  9 10  2  0  0  0
  9 27  1  0  0  0
 10 11  1  0  0  0
 10 35  1  0  0  0
 11 12  2  0  0  0
 11 36  1  0  0  0
 12 13  1  0  0  0
 12 37  1  0  0  0
 13 14  1  0  0  0
 13 27  1  0  0  0
 14 15  2  0  0  0
 15 16  1  0  0  0
 15 26  1  0  0  0
 16 17  1  0  0  0
 16 38  1  0  0  0
 17 18  2  0  0  0
 17 25  1  0  0  0
 18 19  1  0  0  0
 18 39  1  0  0  0
 19 20  2  0  0  0
 19 40  1  0  0  0
 20 21  1  0  0  0
 20 24  1  0  0  0
 21 22  1  0  0  0
 21 41  1  0  0  0
 21 42  1  0  0  0
 22 23  1  0  0  0
 22 43  1  0  0  0
 23 24  1  0  0  0
 23 44  1  0  0  0
 23 45  1  0  0  0
 24 25  2  0  0  0
 25 46  1  0  0  0
 26 27  2  0  0  0
M  END
> <s_m_entry_id>
47518

> <s_m_entry_name>
dock_pv.51

> <s_m_Source_Path>
/home/csk/Desktop/cluster/DUD-E-result/fak1

> <s_m_Source_File>
dock_pv.maegz

> <i_m_Source_File_Index>
51

> <chembl_id>
CHEMBL3645060

> <chembl_pref_name>
None

> <i_lp_mmshare_version>
53161

> <i_f3d_flags>
0

> <r_lp_tautomer_probability>
1

> <s_lp_Force_Field>
OPLS_2005

> <r_lp_Energy>
40.454786

> <b_lp_Chiralities_Consistent>
1

> <s_lp_Variant>
CHEMBL2695_lig601-1

> <s_i_glide_gridfile>
glide-grid_3bz3

> <i_i_glide_lignum>
655

> <i_i_glide_rotatable_bonds>
4

> <r_i_docking_score>
-8.94438246447262

> <r_i_glide_ligand_efficiency>
-0.331273424610097

> <r_i_glide_ligand_efficiency_sa>
-0.993820272738468

> <r_i_glide_ligand_efficiency_ln>
-2.0821047780597

> <r_i_glide_gscore>
-8.94438246447262

> <r_i_glide_lipo>
-3.55690132523189

> <r_i_glide_hbond>
-0.473248848639362

> <r_i_glide_metal>
0

> <r_i_glide_rewards>
-2.94333213861446

> <r_i_glide_evdw>
-35.759693145752

> <r_i_glide_ecoul>
-4.21671485900879

> <r_i_glide_erotb>
0.449591734152008

> <r_i_glide_esite>
0

> <r_i_glide_emodel>
-60.3459193110236

> <r_i_glide_energy>
-39.9764080047607

> <r_i_glide_einternal>
0.827339470386505

> <i_i_glide_confnum>
5

> <i_i_glide_posenum>
31

> <r_i_glide_eff_state_penalty>
0

> <s_user_duplicate_titles>
CHEMBL2695_lig601

> <s_m_subgroup_title>
dock_pv

> <s_m_subgroupid>
dock_pv

> <b_m_subgroup_collapsed>
1

$$$$
CHEMBL2695_lig1029
                    3D
 Schrodinger Suite 2021-1.
 52 55  0  0  1  0            999 V2000
    9.4525   -1.5722    1.4521 C   0  0  0  0  0  0
   10.8400   -1.2490    1.4028 O   0  0  0  0  0  0
   11.3782   -0.4596    2.4002 C   0  0  0  0  0  0
   10.6574    0.0100    3.5090 C   0  0  0  0  0  0
   11.2761    0.8159    4.4604 C   0  0  0  0  0  0
   12.6224    1.1630    4.3090 C   0  0  0  0  0  0
   13.3066    1.9630    5.2367 N   0  0  0  0  0  0
   12.9196    3.1276    5.9090 C   0  0  0  0  0  0
   13.9333    3.8037    6.4927 N   0  0  0  0  0  0
   13.6207    4.9684    7.1090 C   0  0  0  0  0  0
   12.3180    5.4814    7.1614 C   0  0  0  0  0  0
   11.9728    6.7779    7.9114 C   0  0  0  0  0  0
   11.5196    7.9118    6.9720 C   0  0  0  0  0  0
   13.0905    7.2567    8.8528 C   0  0  0  0  0  0
   11.3276    4.6983    6.5490 C   0  0  0  0  0  0
   10.0060    5.0907    6.6600 O   0  0  0  0  0  0
    8.9688    4.2013    6.4981 C   0  0  0  0  0  0
    8.6682    3.6315    5.2557 C   0  0  0  0  0  0
    7.6324    2.7044    5.1462 C   0  0  0  0  0  0
    6.8786    2.3630    6.2694 C   0  0  0  0  0  0
    7.1533    2.9554    7.5040 C   0  0  0  0  0  0
    6.4828    2.7217    8.8300 C   0  0  0  0  0  0
    7.1898    3.6617    9.8103 C   0  0  0  0  0  0
    8.2999    4.3517    9.0231 C   0  0  0  0  0  0
    9.1127    5.1491    9.4924 O   0  0  0  0  0  0
    8.1956    3.8743    7.6202 C   0  0  0  0  0  0
   11.6216    3.5238    5.9134 N   0  0  0  0  0  0
   13.3405    0.7082    3.2010 C   0  0  0  0  0  0
   12.7220   -0.1106    2.2614 C   0  0  0  0  0  0
    9.1923   -2.1805    0.5861 H   0  0  0  0  0  0
    8.8312   -0.6754    1.4224 H   0  0  0  0  0  0
    9.2041   -2.1483    2.3452 H   0  0  0  0  0  0
    9.6119   -0.2241    3.6392 H   0  0  0  0  0  0
   10.7073    1.1616    5.3112 H   0  0  0  0  0  0
   14.2914    1.7561    5.3211 H   0  0  0  0  0  0
   14.4542    5.4798    7.5620 H   0  0  0  0  0  0
   11.1222    6.5361    8.5500 H   0  0  0  0  0  0
   10.7221    7.5834    6.3090 H   0  0  0  0  0  0
   11.1337    8.7589    7.5408 H   0  0  0  0  0  0
   12.3262    8.2846    6.3450 H   0  0  0  0  0  0
   13.4082    6.4503    9.5095 H   0  0  0  0  0  0
   13.9676    7.5630    8.2864 H   0  0  0  0  0  0
   12.7732    8.0955    9.4725 H   0  0  0  0  0  0
    9.2575    3.8846    4.3867 H   0  0  0  0  0  0
    7.4211    2.2375    4.1951 H   0  0  0  0  0  0
    6.0910    1.6291    6.1688 H   0  0  0  0  0  0
    5.4158    2.9468    8.8027 H   0  0  0  0  0  0
    6.6030    1.6877    9.1543 H   0  0  0  0  0  0
    6.5071    4.4178   10.1992 H   0  0  0  0  0  0
    7.6098    3.1246   10.6604 H   0  0  0  0  0  0
   14.3811    0.9707    3.0765 H   0  0  0  0  0  0
   13.2823   -0.4671    1.4105 H   0  0  0  0  0  0
  1  2  1  0  0  0
  1 30  1  0  0  0
  1 31  1  0  0  0
  1 32  1  0  0  0
  2  3  1  0  0  0
  3  4  2  0  0  0
  3 29  1  0  0  0
  4  5  1  0  0  0
  4 33  1  0  0  0
  5  6  2  0  0  0
  5 34  1  0  0  0
  6  7  1  0  0  0
  6 28  1  0  0  0
  7  8  1  0  0  0
  7 35  1  0  0  0
  8  9  2  0  0  0
  8 27  1  0  0  0
  9 10  1  0  0  0
 10 11  2  0  0  0
 10 36  1  0  0  0
 11 12  1  0  0  0
 11 15  1  0  0  0
 12 13  1  0  0  0
 12 14  1  0  0  0
 12 37  1  0  0  0
 13 38  1  0  0  0
 13 39  1  0  0  0
 13 40  1  0  0  0
 14 41  1  0  0  0
 14 42  1  0  0  0
 14 43  1  0  0  0
 15 16  1  0  0  0
 15 27  2  0  0  0
 16 17  1  0  0  0
 17 18  2  0  0  0
 17 26  1  0  0  0
 18 19  1  0  0  0
 18 44  1  0  0  0
 19 20  2  0  0  0
 19 45  1  0  0  0
 20 21  1  0  0  0
 20 46  1  0  0  0
 21 22  1  0  0  0
 21 26  2  0  0  0
 22 23  1  0  0  0
 22 47  1  0  0  0
 22 48  1  0  0  0
 23 24  1  0  0  0
 23 49  1  0  0  0
 23 50  1  0  0  0
 24 25  2  0  0  0
 24 26  1  0  0  0
 28 29  2  0  0  0
 28 51  1  0  0  0
 29 52  1  0  0  0
M  END
> <s_m_entry_id>
47519

> <s_m_entry_name>
dock_pv.52

> <s_m_Source_Path>
/home/csk/Desktop/cluster/DUD-E-result/fak1

> <s_m_Source_File>
dock_pv.maegz

> <i_m_Source_File_Index>
52

> <chembl_id>
CHEMBL3657328

> <chembl_pref_name>
None

> <i_lp_mmshare_version>
53161

> <i_f3d_flags>
0

> <r_lp_tautomer_probability>
0.999949917916752

> <s_lp_Force_Field>
OPLS_2005

> <r_lp_Energy>
33.032576

> <b_lp_Chiralities_Consistent>
1

> <s_lp_Variant>
CHEMBL2695_lig1029-1

> <s_i_glide_gridfile>
glide-grid_3bz3

> <i_i_glide_lignum>
1111

> <i_i_glide_rotatable_bonds>
6

> <r_i_docking_score>
-8.91979513116216

> <r_i_glide_ligand_efficiency>
-0.307579142453868

> <r_i_glide_ligand_efficiency_sa>
-0.944980573530365

> <r_i_glide_ligand_efficiency_ln>
-2.04240689854751

> <r_i_glide_gscore>
-8.91979513116216

> <r_i_glide_lipo>
-3.71950760500029

> <r_i_glide_hbond>
-0.357845724215125

> <r_i_glide_metal>
0

> <r_i_glide_rewards>
-1.87090901074926

> <r_i_glide_evdw>
-47.0756454467773

> <r_i_glide_ecoul>
-7.54586267471313

> <r_i_glide_erotb>
0.514128882348354

> <r_i_glide_esite>
0

> <r_i_glide_emodel>
-80.2843204487918

> <r_i_glide_energy>
-54.6215081214905

> <r_i_glide_einternal>
7.84425592422485

> <i_i_glide_confnum>
4

> <i_i_glide_posenum>
83

> <r_i_glide_eff_state_penalty>
0

> <s_user_duplicate_titles>
CHEMBL2695_lig1029

> <s_m_subgroup_title>
dock_pv

> <s_m_subgroupid>
dock_pv

> <b_m_subgroup_collapsed>
1

$$$$
CHEMBL2695_lig754
                    3D
 Schrodinger Suite 2021-1.
 59 63  0  0  1  0            999 V2000
    7.0129    4.1116   10.8150 C   0  0  0  0  0  0
    6.4226    3.9630    9.4837 N   0  0  0  0  0  0
    5.0562    3.4453    9.4045 C   0  0  0  0  0  0
    7.2251    4.0728    8.3152 C   0  0  0  0  0  0
    6.7250    3.7403    7.0447 C   0  0  0  0  0  0
    7.5066    3.8827    5.9007 C   0  0  0  0  0  0
    8.8075    4.3630    6.0044 C   0  0  0  0  0  0
    9.3465    4.7028    7.2503 C   0  0  0  0  0  0
    8.5467    4.5431    8.3895 C   0  0  0  0  0  0
   10.7550    5.1628    7.3808 C   0  0  0  0  0  0
   11.1355    6.1696    8.2859 C   0  0  0  0  0  0
   12.4721    6.4752    8.5372 C   0  0  0  0  0  0
   13.4732    5.7406    7.9128 C   0  0  0  0  0  0
   13.1126    4.7630    7.0333 N   0  0  0  0  0  0
   13.9221    3.8558    6.4510 N   0  0  0  0  0  0
   13.0674    3.0648    5.8335 C   0  0  0  0  0  0
   13.5301    1.9966    5.1088 N   0  0  0  0  0  0
   12.8300    1.1630    4.2157 C   0  0  0  0  0  0
   13.5331    0.6203    3.1348 C   0  0  0  0  0  0
   12.9077   -0.2762    2.2709 C   0  0  0  0  0  0
   11.5668   -0.6324    2.4605 C   0  0  0  0  0  0
   10.8500   -0.0444    3.5089 C   0  0  0  0  0  0
   11.4785    0.8322    4.3842 C   0  0  0  0  0  0
   10.9320   -1.6779    1.5305 C   0  0  0  0  0  0
   11.6024   -3.0631    1.6775 C   0  0  0  0  0  0
   10.9745   -4.1264    0.7524 C   0  0  0  0  0  0
    9.5262   -4.2158    0.9286 N   0  0  1  0  0  0
    8.8470   -2.9369    0.7180 C   0  0  0  0  0  0
    9.3960   -1.8422    1.6541 C   0  0  0  0  0  0
   11.7919    3.3873    5.9090 N   0  0  0  0  0  0
   11.7895    4.4623    6.7229 C   0  0  0  0  0  0
    7.4441    5.1058   10.9399 H   0  0  0  0  0  0
    6.2844    3.9632   11.6120 H   0  0  0  0  0  0
    7.8104    3.3815   10.9587 H   0  0  0  0  0  0
    4.5026    3.8988    8.5826 H   0  0  0  0  0  0
    5.0696    2.3659    9.2484 H   0  0  0  0  0  0
    4.4884    3.6532   10.3090 H   0  0  0  0  0  0
    5.7247    3.3589    6.9166 H   0  0  0  0  0  0
    7.1057    3.6137    4.9343 H   0  0  0  0  0  0
    9.4017    4.4603    5.1070 H   0  0  0  0  0  0
    8.9748    4.7930    9.3463 H   0  0  0  0  0  0
   10.3883    6.6864    8.8656 H   0  0  0  0  0  0
   12.7292    7.2364    9.2608 H   0  0  0  0  0  0
   14.5180    5.8361    8.1318 H   0  0  0  0  0  0
   14.5265    1.8391    5.0901 H   0  0  0  0  0  0
   14.5757    0.8606    2.9863 H   0  0  0  0  0  0
   13.4769   -0.7096    1.4623 H   0  0  0  0  0  0
    9.8090   -0.2702    3.6808 H   0  0  0  0  0  0
   10.9016    1.2168    5.2103 H   0  0  0  0  0  0
   11.1361   -1.2946    0.5289 H   0  0  0  0  0  0
   12.6547   -2.9972    1.4003 H   0  0  0  0  0  0
   11.5693   -3.4200    2.7084 H   0  0  0  0  0  0
   11.1926   -3.8991   -0.2924 H   0  0  0  0  0  0
   11.4064   -5.1052    0.9653 H   0  0  0  0  0  0
    9.1402   -4.9150    0.3088 H   0  0  0  0  0  0
    8.9602   -2.6376   -0.3254 H   0  0  0  0  0  0
    7.7802   -3.0780    0.8986 H   0  0  0  0  0  0
    9.0827   -2.0862    2.6707 H   0  0  0  0  0  0
    8.9043   -0.9076    1.3796 H   0  0  0  0  0  0
  1  2  1  0  0  0
  1 32  1  0  0  0
  1 33  1  0  0  0
  1 34  1  0  0  0
  2  3  1  0  0  0
  2  4  1  0  0  0
  3 35  1  0  0  0
  3 36  1  0  0  0
  3 37  1  0  0  0
  4  5  2  0  0  0
  4  9  1  0  0  0
  5  6  1  0  0  0
  5 38  1  0  0  0
  6  7  2  0  0  0
  6 39  1  0  0  0
  7  8  1  0  0  0
  7 40  1  0  0  0
  8  9  2  0  0  0
  8 10  1  0  0  0
  9 41  1  0  0  0
 10 11  2  0  0  0
 10 31  1  0  0  0
 11 12  1  0  0  0
 11 42  1  0  0  0
 12 13  2  0  0  0
 12 43  1  0  0  0
 13 14  1  0  0  0
 13 44  1  0  0  0
 14 15  1  0  0  0
 14 31  1  0  0  0
 15 16  2  0  0  0
 16 17  1  0  0  0
 16 30  1  0  0  0
 17 18  1  0  0  0
 17 45  1  0  0  0
 18 19  2  0  0  0
 18 23  1  0  0  0
 19 20  1  0  0  0
 19 46  1  0  0  0
 20 21  2  0  0  0
 20 47  1  0  0  0
 21 22  1  0  0  0
 21 24  1  0  0  0
 22 23  2  0  0  0
 22 48  1  0  0  0
 23 49  1  0  0  0
 24 25  1  0  0  0
 24 29  1  0  0  0
 24 50  1  0  0  0
 25 26  1  0  0  0
 25 51  1  0  0  0
 25 52  1  0  0  0
 26 27  1  0  0  0
 26 53  1  0  0  0
 26 54  1  0  0  0
 27 28  1  0  0  0
 27 55  1  0  0  0
 28 29  1  0  0  0
 28 56  1  0  0  0
 28 57  1  0  0  0
 29 58  1  0  0  0
 29 59  1  0  0  0
 30 31  2  0  0  0
M  END
> <s_m_entry_id>
47520

> <s_m_entry_name>
dock_pv.53

> <s_m_Source_Path>
/home/csk/Desktop/cluster/DUD-E-result/fak1

> <s_m_Source_File>
dock_pv.maegz

> <i_m_Source_File_Index>
53

> <chembl_id>
CHEMBL3645077

> <chembl_pref_name>
None

> <i_lp_mmshare_version>
53161

> <i_f3d_flags>
0

> <r_lp_tautomer_probability>
1

> <s_lp_Force_Field>
OPLS_2005

> <r_lp_Energy>
33.306489

> <b_lp_Chiralities_Consistent>
1

> <s_lp_Variant>
CHEMBL2695_lig754-1

> <s_i_glide_gridfile>
glide-grid_3bz3

> <i_i_glide_lignum>
811

> <i_i_glide_rotatable_bonds>
5

> <r_i_docking_score>
-8.89177504812567

> <r_i_glide_ligand_efficiency>
-0.286831453165344

> <r_i_glide_ligand_efficiency_sa>
-0.901046776439526

> <r_i_glide_ligand_efficiency_ln>
-2.00536777353153

> <r_i_glide_gscore>
-8.89177504812567

> <r_i_glide_lipo>
-3.50268734694283

> <r_i_glide_hbond>
-0.230460955677872

> <r_i_glide_metal>
0

> <r_i_glide_rewards>
-2.84515208801014

> <r_i_glide_evdw>
-40.4408378601074

> <r_i_glide_ecoul>
-5.03289556503296

> <r_i_glide_erotb>
0.463501570265487

> <r_i_glide_esite>
0

> <r_i_glide_emodel>
-63.4232753137511

> <r_i_glide_energy>
-45.4737334251404

> <r_i_glide_einternal>
4.7962760925293

> <i_i_glide_confnum>
3

> <i_i_glide_posenum>
315

> <r_i_glide_eff_state_penalty>
0

> <s_user_duplicate_titles>
CHEMBL2695_lig754

> <s_m_subgroup_title>
dock_pv

> <s_m_subgroupid>
dock_pv

> <b_m_subgroup_collapsed>
1

$$$$
CHEMBL2695_lig686
                    3D
 Schrodinger Suite 2021-1.
 51 56  0  0  1  0            999 V2000
    7.9245    3.1635   11.0890 F   0  0  0  0  0  0
    7.6153    4.1988   10.3092 C   0  0  0  0  0  0
    7.0736    5.1627   11.0507 F   0  0  0  0  0  0
    6.7138    3.7972    9.3140 O   0  0  0  0  0  0
    7.3484    3.9620    8.1249 C   0  0  0  0  0  0
    6.8809    3.6540    6.8532 C   0  0  0  0  0  0
    7.7342    3.9032    5.7721 C   0  0  0  0  0  0
    9.0117    4.4469    5.9819 C   0  0  0  0  0  0
    9.4741    4.7629    7.2757 C   0  0  0  0  0  0
    8.5910    4.4934    8.3313 C   0  0  0  0  0  0
    8.7711    4.6789    9.6688 O   0  0  0  0  0  0
   10.8464    5.3036    7.5089 C   0  0  0  0  0  0
   11.1222    6.2668    8.4961 C   0  0  0  0  0  0
   12.4251    6.6239    8.8387 C   0  0  0  0  0  0
   13.5002    5.9599    8.2618 C   0  0  0  0  0  0
   13.2434    5.0378    7.2871 N   0  0  0  0  0  0
   14.1166    4.1830    6.7088 N   0  0  0  0  0  0
   13.3269    3.4423    5.9501 C   0  0  0  0  0  0
   13.8307    2.3630    5.2747 N   0  0  0  0  0  0
   13.1607    1.4410    4.4484 C   0  0  0  0  0  0
   11.7882    1.1630    4.5232 C   0  0  0  0  0  0
   11.1953    0.2677    3.6428 C   0  0  0  0  0  0
   11.9576   -0.4699    2.7302 C   0  0  0  0  0  0
   11.2405   -1.5832    1.9615 C   0  0  0  0  0  0
   11.6015   -1.8443    0.4979 C   0  0  0  0  0  0
   12.9060   -2.4335    0.2681 N   0  0  1  0  0  0
   14.0374   -1.5632    0.5142 C   0  0  0  0  0  0
   14.3219   -1.1754    1.9575 C   0  0  0  0  0  0
   13.3589   -0.2557    2.7006 C   0  0  0  0  0  0
   13.9191    0.7472    3.5088 C   0  0  0  0  0  0
   12.0548    3.7748    5.9091 N   0  0  0  0  0  0
   11.9556    4.7370    6.8481 C   0  0  0  0  0  0
    5.9009    3.2280    6.6963 H   0  0  0  0  0  0
    7.4116    3.6665    4.7683 H   0  0  0  0  0  0
    9.6454    4.6199    5.1241 H   0  0  0  0  0  0
   10.3221    6.7092    9.0688 H   0  0  0  0  0  0
   12.6003    7.3610    9.6079 H   0  0  0  0  0  0
   14.5174    6.0861    8.5864 H   0  0  0  0  0  0
   14.8301    2.2377    5.2474 H   0  0  0  0  0  0
   11.1503    1.6392    5.2498 H   0  0  0  0  0  0
   10.1303    0.0997    3.7251 H   0  0  0  0  0  0
   11.3182   -2.5058    2.5378 H   0  0  0  0  0  0
   10.1731   -1.3546    1.9717 H   0  0  0  0  0  0
   10.8707   -2.5527    0.1046 H   0  0  0  0  0  0
   11.4798   -0.9324   -0.0891 H   0  0  0  0  0  0
   12.9963   -3.2920    0.7961 H   0  0  0  0  0  0
   14.9156   -2.1003    0.1543 H   0  0  0  0  0  0
   13.9641   -0.6613   -0.0948 H   0  0  0  0  0  0
   15.2994   -0.6916    1.9427 H   0  0  0  0  0  0
   14.4813   -2.0666    2.5662 H   0  0  0  0  0  0
   14.9875    0.9109    3.4851 H   0  0  0  0  0  0
  1  2  1  0  0  0
  2  3  1  0  0  0
  2  4  1  0  0  0
  2 11  1  0  0  0
  4  5  1  0  0  0
  5  6  2  0  0  0
  5 10  1  0  0  0
  6  7  1  0  0  0
  6 33  1  0  0  0
  7  8  2  0  0  0
  7 34  1  0  0  0
  8  9  1  0  0  0
  8 35  1  0  0  0
  9 10  2  0  0  0
  9 12  1  0  0  0
 10 11  1  0  0  0
 12 13  2  0  0  0
 12 32  1  0  0  0
 13 14  1  0  0  0
 13 36  1  0  0  0
 14 15  2  0  0  0
 14 37  1  0  0  0
 15 16  1  0  0  0
 15 38  1  0  0  0
 16 17  1  0  0  0
 16 32  1  0  0  0
 17 18  2  0  0  0
 18 19  1  0  0  0
 18 31  1  0  0  0
 19 20  1  0  0  0
 19 39  1  0  0  0
 20 21  2  0  0  0
 20 30  1  0  0  0
 21 22  1  0  0  0
 21 40  1  0  0  0
 22 23  2  0  0  0
 22 41  1  0  0  0
 23 24  1  0  0  0
 23 29  1  0  0  0
 24 25  1  0  0  0
 24 42  1  0  0  0
 24 43  1  0  0  0
 25 26  1  0  0  0
 25 44  1  0  0  0
 25 45  1  0  0  0
 26 27  1  0  0  0
 26 46  1  0  0  0
 27 28  1  0  0  0
 27 47  1  0  0  0
 27 48  1  0  0  0
 28 29  1  0  0  0
 28 49  1  0  0  0
 28 50  1  0  0  0
 29 30  2  0  0  0
 30 51  1  0  0  0
 31 32  2  0  0  0
M  END
> <s_m_entry_id>
47521

> <s_m_entry_name>
dock_pv.54

> <s_m_Source_Path>
/home/csk/Desktop/cluster/DUD-E-result/fak1

> <s_m_Source_File>
dock_pv.maegz

> <i_m_Source_File_Index>
54

> <chembl_id>
CHEMBL3644981

> <chembl_pref_name>
None

> <i_lp_mmshare_version>
53161

> <i_f3d_flags>
0

> <r_lp_tautomer_probability>
1

> <s_lp_Force_Field>
OPLS_2005

> <r_lp_Energy>
41.028898

> <b_lp_Chiralities_Consistent>
1

> <s_lp_Variant>
CHEMBL2695_lig686-1

> <s_i_glide_gridfile>
glide-grid_3bz3

> <i_i_glide_lignum>
741

> <i_i_glide_rotatable_bonds>
3

> <r_i_docking_score>
-8.85611894598064

> <r_i_glide_ligand_efficiency>
-0.276753717061895

> <r_i_glide_ligand_efficiency_sa>
-0.878638282185281

> <r_i_glide_ligand_efficiency_ln>
-1.98312644068997

> <r_i_glide_gscore>
-8.85611894598064

> <r_i_glide_lipo>
-2.97544934537405

> <r_i_glide_hbond>
-0.359621023979326

> <r_i_glide_metal>
0

> <r_i_glide_rewards>
-2.75074415523511

> <r_i_glide_evdw>
-39.753532409668

> <r_i_glide_ecoul>
-7.31927394866943

> <r_i_glide_erotb>
0.315263291391663

> <r_i_glide_esite>
0

> <r_i_glide_emodel>
-67.756141874922

> <r_i_glide_energy>
-47.0728063583374

> <r_i_glide_einternal>
1.16888070106506

> <i_i_glide_confnum>
2

> <i_i_glide_posenum>
327

> <r_i_glide_eff_state_penalty>
0

> <s_user_duplicate_titles>
CHEMBL2695_lig686

> <s_m_subgroup_title>
dock_pv

> <s_m_subgroupid>
dock_pv

> <b_m_subgroup_collapsed>
1

$$$$
CHEMBL2695_lig1243
                    3D
 Schrodinger Suite 2021-1.
 50 53  0  0  1  0            999 V2000
    6.9484    4.2652   11.4013 C   0  0  0  0  0  0
    6.9381    3.7856   10.0244 N   0  0  0  0  0  0
    7.7069    4.2823    9.0404 C   0  0  0  0  0  0
    8.5451    5.1621    9.2621 O   0  0  0  0  0  0
    7.5147    3.6824    7.6466 C   0  0  0  0  0  0
    6.3444    2.9599    7.3460 C   0  0  0  0  0  0
    6.1643    2.3616    6.1013 C   0  0  0  0  0  0
    7.1539    2.4507    5.1290 C   0  0  0  0  0  0
    8.3100    3.1773    5.3869 C   0  0  0  0  0  0
    8.4897    3.8073    6.6227 C   0  0  0  0  0  0
    9.6227    4.6002    6.8219 N   0  0  0  0  0  0
   10.9766    4.3924    6.5817 C   0  0  0  0  0  0
   11.4204    3.2879    5.9240 N   0  0  0  0  0  0
   12.7700    3.0717    5.9067 C   0  0  0  0  0  0
   13.2834    1.9631    5.2098 N   0  0  0  0  0  0
   12.5948    1.1630    4.3194 C   0  0  0  0  0  0
   11.2749    0.7473    4.2483 C   0  0  0  0  0  0
   11.1710   -0.0545    3.1090 C   0  0  0  0  0  0
    9.9605   -0.7726    2.5644 C   0  0  0  0  0  0
   12.3212   -0.1181    2.4717 N   0  0  0  0  0  0
   13.1782    0.6177    3.1938 N   0  0  0  0  0  0
   14.5434    0.7622    2.7084 C   0  0  0  0  0  0
   13.6973    3.8921    6.4722 N   0  0  0  0  0  0
   13.1943    4.9796    7.1090 C   0  0  0  0  0  0
   13.9220    5.8871    7.8600 N   0  0  0  0  0  0
   13.0812    6.9923    8.2995 C   0  0  0  0  0  0
   11.6517    6.5296    8.0036 C   0  0  0  0  0  0
   11.8551    5.2869    7.1760 C   0  0  0  0  0  0
    5.9239    4.3610   11.7535 H   0  0  0  0  0  0
    7.4234    5.2406   11.5078 H   0  0  0  0  0  0
    7.4731    3.5651   12.0508 H   0  0  0  0  0  0
    6.3297    3.0064    9.8225 H   0  0  0  0  0  0
    5.5522    2.8435    8.0715 H   0  0  0  0  0  0
    5.2680    1.7932    5.8972 H   0  0  0  0  0  0
    7.0234    1.9587    4.1752 H   0  0  0  0  0  0
    9.0554    3.2660    4.6097 H   0  0  0  0  0  0
    9.4795    5.2667    7.5697 H   0  0  0  0  0  0
   14.2897    1.9092    5.2583 H   0  0  0  0  0  0
   10.4808    0.9813    4.9422 H   0  0  0  0  0  0
    9.0682   -0.5735    3.1583 H   0  0  0  0  0  0
    9.7326   -0.4595    1.5453 H   0  0  0  0  0  0
   10.1015   -1.8533    2.5507 H   0  0  0  0  0  0
   15.2059    1.0675    3.5183 H   0  0  0  0  0  0
   14.9006   -0.1904    2.3127 H   0  0  0  0  0  0
   14.5602    1.5163    1.9225 H   0  0  0  0  0  0
   14.9292    6.0148    7.9700 H   0  0  0  0  0  0
   13.2326    7.2004    9.3596 H   0  0  0  0  0  0
   13.3258    7.8909    7.7332 H   0  0  0  0  0  0
   11.1196    7.3097    7.4588 H   0  0  0  0  0  0
   11.1229    6.3357    8.9377 H   0  0  0  0  0  0
  1  2  1  0  0  0
  1 29  1  0  0  0
  1 30  1  0  0  0
  1 31  1  0  0  0
  2  3  1  0  0  0
  2 32  1  0  0  0
  3  4  2  0  0  0
  3  5  1  0  0  0
  5  6  2  0  0  0
  5 10  1  0  0  0
  6  7  1  0  0  0
  6 33  1  0  0  0
  7  8  2  0  0  0
  7 34  1  0  0  0
  8  9  1  0  0  0
  8 35  1  0  0  0
  9 10  2  0  0  0
  9 36  1  0  0  0
 10 11  1  0  0  0
 11 12  1  0  0  0
 11 37  1  0  0  0
 12 13  2  0  0  0
 12 28  1  0  0  0
 13 14  1  0  0  0
 14 15  1  0  0  0
 14 23  2  0  0  0
 15 16  1  0  0  0
 15 38  1  0  0  0
 16 17  2  0  0  0
 16 21  1  0  0  0
 17 18  1  0  0  0
 17 39  1  0  0  0
 18 19  1  0  0  0
 18 20  2  0  0  0
 19 40  1  0  0  0
 19 41  1  0  0  0
 19 42  1  0  0  0
 20 21  1  0  0  0
 21 22  1  0  0  0
 22 43  1  0  0  0
 22 44  1  0  0  0
 22 45  1  0  0  0
 23 24  1  0  0  0
 24 25  1  0  0  0
 24 28  2  0  0  0
 25 26  1  0  0  0
 25 46  1  0  0  0
 26 27  1  0  0  0
 26 47  1  0  0  0
 26 48  1  0  0  0
 27 28  1  0  0  0
 27 49  1  0  0  0
 27 50  1  0  0  0
M  END
> <s_m_entry_id>
47522

> <s_m_entry_name>
dock_pv.55

> <s_m_Source_Path>
/home/csk/Desktop/cluster/DUD-E-result/fak1

> <s_m_Source_File>
dock_pv.maegz

> <i_m_Source_File_Index>
55

> <chembl_id>
CHEMBL3937170

> <chembl_pref_name>
None

> <i_lp_mmshare_version>
53161

> <i_f3d_flags>
0

> <r_lp_tautomer_probability>
1

> <s_lp_Force_Field>
OPLS_2005

> <r_lp_Energy>
30.694233

> <b_lp_Chiralities_Consistent>
1

> <s_lp_Variant>
CHEMBL2695_lig1243-1

> <s_i_glide_gridfile>
glide-grid_3bz3

> <i_i_glide_lignum>
1347

> <i_i_glide_rotatable_bonds>
6

> <r_i_docking_score>
-8.83314591670934

> <r_i_glide_ligand_efficiency>
-0.315469497025334

> <r_i_glide_ligand_efficiency_sa>
-0.95795119456626

> <r_i_glide_ligand_efficiency_ln>
-2.0389494300102

> <r_i_glide_gscore>
-8.83314591670934

> <r_i_glide_lipo>
-2.73495675962891

> <r_i_glide_hbond>
-0.374729316945574

> <r_i_glide_metal>
0

> <r_i_glide_rewards>
-2.71915333176228

> <r_i_glide_evdw>
-45.0993461608887

> <r_i_glide_ecoul>
-9.50624179840088

> <r_i_glide_erotb>
0.676597069431991

> <r_i_glide_esite>
0

> <r_i_glide_emodel>
-74.9772094504113

> <r_i_glide_energy>
-54.6055879592896

> <r_i_glide_einternal>
11.5548276901245

> <i_i_glide_confnum>
17

> <i_i_glide_posenum>
33

> <r_i_glide_eff_state_penalty>
0

> <s_user_duplicate_titles>
CHEMBL2695_lig1243

> <s_m_subgroup_title>
dock_pv

> <s_m_subgroupid>
dock_pv

> <b_m_subgroup_collapsed>
1

$$$$
CHEMBL2695_lig950
                    3D
 Schrodinger Suite 2021-1.
 68 72  0  0  1  0            999 V2000
   15.1081   -0.1440    2.0441 C   0  0  0  0  0  0
   14.4237    0.6985    2.9632 O   0  0  0  0  0  0
   13.0642    0.5161    3.1574 C   0  0  0  0  0  0
   12.2707   -0.2886    2.3204 C   0  0  0  0  0  0
   10.8938   -0.4380    2.5358 C   0  0  0  0  0  0
   10.3222    0.2141    3.6367 C   0  0  0  0  0  0
   11.0949    0.9921    4.4904 C   0  0  0  0  0  0
   12.4630    1.1630    4.2595 C   0  0  0  0  0  0
   13.2580    1.9626    5.1092 N   0  0  0  0  0  0
   12.9719    3.0795    5.9090 C   0  0  0  0  0  0
   14.0517    3.6232    6.5175 N   0  0  0  0  0  0
   13.8516    4.7630    7.2227 C   0  0  0  0  0  0
   12.5977    5.3713    7.3408 C   0  0  0  0  0  0
   11.5338    4.7351    6.6847 C   0  0  0  0  0  0
   10.2588    5.2574    6.7092 O   0  0  0  0  0  0
    9.2647    4.5680    7.3693 C   0  0  0  0  0  0
    9.0724    4.7545    8.7433 C   0  0  0  0  0  0
    8.0637    4.0701    9.4200 C   0  0  0  0  0  0
    7.2220    3.2068    8.7224 C   0  0  0  0  0  0
    7.3748    3.0492    7.3443 C   0  0  0  0  0  0
    6.5486    2.2172    6.4061 C   0  0  0  0  0  0
    7.1772    2.4270    5.0297 C   0  0  0  0  0  0
    8.2932    3.4527    5.2125 C   0  0  0  0  0  0
    8.9657    3.9448    4.3093 O   0  0  0  0  0  0
    8.3831    3.7356    6.6645 C   0  0  0  0  0  0
   11.7122    3.5921    5.9638 N   0  0  0  0  0  0
   12.4173    6.6447    8.1546 C   0  0  0  0  0  0
   13.5923    7.1630    8.4971 F   0  0  0  0  0  0
   11.7362    7.5625    7.4683 F   0  0  0  0  0  0
   11.7689    6.3630    9.2790 F   0  0  0  0  0  0
   10.0617   -1.2508    1.5642 C   0  0  0  0  0  0
   10.5520   -1.6603    0.5081 O   0  0  0  0  0  0
    8.7792   -1.4779    1.9074 N   0  0  0  0  0  0
    7.7905   -2.2230    1.1237 C   0  0  2  0  0  0
    6.3652   -1.6660    1.3107 C   0  0  0  0  0  0
    5.2959   -2.4568    0.5280 C   0  0  0  0  0  0
    5.3578   -3.8943    0.8137 N   0  0  1  0  0  0
    4.3159   -4.6164    0.0908 C   0  0  0  0  0  0
    6.6826   -4.4654    0.5412 C   0  0  0  0  0  0
    7.7867   -3.7547    1.3508 C   0  0  1  0  0  0
    8.9671   -4.2883    1.0282 F   0  0  0  0  0  0
   16.1646    0.1213    2.0258 H   0  0  0  0  0  0
   15.0266   -1.1919    2.3339 H   0  0  0  0  0  0
   14.7219   -0.0388    1.0318 H   0  0  0  0  0  0
   12.7128   -0.7905    1.4735 H   0  0  0  0  0  0
    9.2627    0.1461    3.8423 H   0  0  0  0  0  0
   10.6093    1.4575    5.3336 H   0  0  0  0  0  0
   14.2448    1.7531    5.0463 H   0  0  0  0  0  0
   14.7220    5.1633    7.7188 H   0  0  0  0  0  0
    9.6957    5.4333    9.2955 H   0  0  0  0  0  0
    7.9294    4.2125   10.4829 H   0  0  0  0  0  0
    6.4435    2.6809    9.2564 H   0  0  0  0  0  0
    6.5746    1.1626    6.6758 H   0  0  0  0  0  0
    5.5054    2.5354    6.3858 H   0  0  0  0  0  0
    7.5975    1.5014    4.6387 H   0  0  0  0  0  0
    6.4457    2.7851    4.3090 H   0  0  0  0  0  0
    8.4729   -1.1892    2.8249 H   0  0  0  0  0  0
    8.0320   -2.0757    0.0672 H   0  0  0  0  0  0
    6.3344   -0.6236    0.9895 H   0  0  0  0  0  0
    6.0806   -1.6580    2.3648 H   0  0  0  0  0  0
    4.3062   -2.0871    0.8033 H   0  0  0  0  0  0
    5.3993   -2.2868   -0.5460 H   0  0  0  0  0  0
    4.3257   -5.6754    0.3524 H   0  0  0  0  0  0
    3.3290   -4.2279    0.3470 H   0  0  0  0  0  0
    4.4439   -4.5314   -0.9892 H   0  0  0  0  0  0
    6.6770   -5.5239    0.8059 H   0  0  0  0  0  0
    6.8967   -4.4238   -0.5284 H   0  0  0  0  0  0
    7.6187   -3.9565    2.4090 H   0  0  0  0  0  0
  1  2  1  0  0  0
  1 42  1  0  0  0
  1 43  1  0  0  0
  1 44  1  0  0  0
  2  3  1  0  0  0
  3  4  2  0  0  0
  3  8  1  0  0  0
  4  5  1  0  0  0
  4 45  1  0  0  0
  5  6  2  0  0  0
  5 31  1  0  0  0
  6  7  1  0  0  0
  6 46  1  0  0  0
  7  8  2  0  0  0
  7 47  1  0  0  0
  8  9  1  0  0  0
  9 10  1  0  0  0
  9 48  1  0  0  0
 10 11  2  0  0  0
 10 26  1  0  0  0
 11 12  1  0  0  0
 12 13  2  0  0  0
 12 49  1  0  0  0
 13 14  1  0  0  0
 13 27  1  0  0  0
 14 15  1  0  0  0
 14 26  2  0  0  0
 15 16  1  0  0  0
 16 17  2  0  0  0
 16 25  1  0  0  0
 17 18  1  0  0  0
 17 50  1  0  0  0
 18 19  2  0  0  0
 18 51  1  0  0  0
 19 20  1  0  0  0
 19 52  1  0  0  0
 20 21  1  0  0  0
 20 25  2  0  0  0
 21 22  1  0  0  0
 21 53  1  0  0  0
 21 54  1  0  0  0
 22 23  1  0  0  0
 22 55  1  0  0  0
 22 56  1  0  0  0
 23 24  2  0  0  0
 23 25  1  0  0  0
 27 28  1  0  0  0
 27 29  1  0  0  0
 27 30  1  0  0  0
 31 32  2  0  0  0
 31 33  1  0  0  0
 33 34  1  0  0  0
 33 57  1  0  0  0
 34 35  1  0  0  0
 34 40  1  0  0  0
 34 58  1  0  0  0
 35 36  1  0  0  0
 35 59  1  0  0  0
 35 60  1  0  0  0
 36 37  1  0  0  0
 36 61  1  0  0  0
 36 62  1  0  0  0
 37 38  1  0  0  0
 37 39  1  0  0  0
 38 63  1  0  0  0
 38 64  1  0  0  0
 38 65  1  0  0  0
 39 40  1  0  0  0
 39 66  1  0  0  0
 39 67  1  0  0  0
 40 41  1  0  0  0
 40 68  1  0  0  0
M  END
> <s_m_entry_id>
47523

> <s_m_entry_name>
dock_pv.56

> <s_m_Source_Path>
/home/csk/Desktop/cluster/DUD-E-result/fak1

> <s_m_Source_File>
dock_pv.maegz

> <i_m_Source_File_Index>
56

> <chembl_id>
CHEMBL3657251

> <chembl_pref_name>
None

> <i_lp_mmshare_version>
53161

> <i_f3d_flags>
0

> <r_lp_tautomer_probability>
0.999949917916752

> <s_lp_Force_Field>
OPLS_2005

> <r_lp_Energy>
47.741846

> <b_lp_Chiralities_Consistent>
1

> <s_lp_Variant>
CHEMBL2695_lig950-1

> <s_i_glide_gridfile>
glide-grid_3bz3

> <i_i_glide_lignum>
1024

> <i_i_glide_rotatable_bonds>
9

> <r_i_docking_score>
-8.83108214640975

> <r_i_glide_ligand_efficiency>
-0.215392247473409

> <r_i_glide_ligand_efficiency_sa>
-0.74271926026321

> <r_i_glide_ligand_efficiency_ln>
-1.87354346585484

> <r_i_glide_gscore>
-8.83108214640975

> <r_i_glide_lipo>
-2.81798182707097

> <r_i_glide_hbond>
-0.309352140429811

> <r_i_glide_metal>
0

> <r_i_glide_rewards>
-2.5394979822259

> <r_i_glide_evdw>
-49.0307197570801

> <r_i_glide_ecoul>
-6.51892805099487

> <r_i_glide_erotb>
0.350675292349715

> <r_i_glide_esite>
-0.0855502935295412

> <r_i_glide_emodel>
-81.8159060297494

> <r_i_glide_energy>
-55.549647808075

> <r_i_glide_einternal>
9.64775466918945

> <i_i_glide_confnum>
7

> <i_i_glide_posenum>
84

> <r_i_glide_eff_state_penalty>
0

> <s_user_duplicate_titles>
CHEMBL2695_lig950

> <s_m_subgroup_title>
dock_pv

> <s_m_subgroupid>
dock_pv

> <b_m_subgroup_collapsed>
1

$$$$
CHEMBL2695_lig1051
                    3D
 Schrodinger Suite 2021-1.
 67 71  0  0  1  0            999 V2000
   15.1423    0.2263    2.3483 C   0  0  0  0  0  0
   14.4392    0.9874    3.3209 O   0  0  0  0  0  0
   13.0873    0.7532    3.5083 C   0  0  0  0  0  0
   12.3245   -0.0515    2.6401 C   0  0  0  0  0  0
   10.9513   -0.2606    2.8292 C   0  0  0  0  0  0
   10.3432    0.3679    3.9235 C   0  0  0  0  0  0
   11.0974    1.1011    4.8375 C   0  0  0  0  0  0
   12.4681    1.3074    4.6397 C   0  0  0  0  0  0
   13.2440    2.1201    5.4885 N   0  0  0  0  0  0
   12.9088    3.3346    6.0953 C   0  0  0  0  0  0
   13.9145    4.0164    6.7016 N   0  0  0  0  0  0
   13.5510    5.1629    7.3411 C   0  0  0  0  0  0
   12.2399    5.6423    7.3617 C   0  0  0  0  0  0
   11.2819    4.8728    6.7083 C   0  0  0  0  0  0
    9.9537    5.2307    6.7839 O   0  0  0  0  0  0
    8.9442    4.3031    6.6319 C   0  0  0  0  0  0
    8.6246    3.7326    5.3944 C   0  0  0  0  0  0
    7.5655    2.8236    5.2965 C   0  0  0  0  0  0
    6.7962    2.5145    6.4234 C   0  0  0  0  0  0
    7.0987    3.1073    7.6526 C   0  0  0  0  0  0
    6.4353    3.0086    8.9961 C   0  0  0  0  0  0
    7.2820    3.8673    9.8201 N   0  0  0  0  0  0
    6.9151    4.3071   11.1620 C   0  0  0  0  0  0
    8.3223    4.4245    9.1688 C   0  0  0  0  0  0
    9.1814    5.1674    9.6437 O   0  0  0  0  0  0
    8.1788    3.9660    7.7530 C   0  0  0  0  0  0
   11.6125    3.7272    6.0638 N   0  0  0  0  0  0
   10.1631   -1.0857    1.8305 C   0  0  0  0  0  0
   10.7137   -1.5678    0.8377 O   0  0  0  0  0  0
    8.8476   -1.2378    2.0734 N   0  0  0  0  0  0
    7.8936   -1.9615    1.2389 C   0  0  0  0  0  0
    8.0144   -3.4999    1.2802 C   0  0  0  0  0  0
    6.9290   -4.2187    0.4530 C   0  0  0  0  0  0
    5.5827   -3.7659    0.8140 N   0  0  2  0  0  0
    4.5638   -4.5090    0.0852 C   0  0  0  0  0  0
    5.4181   -2.3211    0.6249 C   0  0  0  0  0  0
    6.4334   -1.5209    1.4643 C   0  0  0  0  0  0
   16.1862    0.5407    2.3186 H   0  0  0  0  0  0
   15.1203   -0.8370    2.5924 H   0  0  0  0  0  0
   14.7218    0.3630    1.3545 H   0  0  0  0  0  0
   12.7927   -0.5142    1.7835 H   0  0  0  0  0  0
    9.2787    0.3021    4.0983 H   0  0  0  0  0  0
   10.5890    1.5160    5.6952 H   0  0  0  0  0  0
   14.2380    1.9472    5.4228 H   0  0  0  0  0  0
   14.3223    5.7119    7.8564 H   0  0  0  0  0  0
   11.9705    6.5442    7.8891 H   0  0  0  0  0  0
    9.2055    3.9815    4.5185 H   0  0  0  0  0  0
    7.3381    2.3663    4.3435 H   0  0  0  0  0  0
    5.9717    1.8208    6.3239 H   0  0  0  0  0  0
    5.4040    3.3648    8.9953 H   0  0  0  0  0  0
    6.4283    1.9890    9.3886 H   0  0  0  0  0  0
    6.3232    3.5607   11.6852 H   0  0  0  0  0  0
    7.7935    4.5336   11.7675 H   0  0  0  0  0  0
    6.3154    5.2116   11.0977 H   0  0  0  0  0  0
    8.4759   -0.8867    2.9431 H   0  0  0  0  0  0
    8.0998   -1.6824    0.2008 H   0  0  0  0  0  0
    7.9570   -3.8609    2.3075 H   0  0  0  0  0  0
    8.9929   -3.8016    0.9056 H   0  0  0  0  0  0
    6.9992   -5.2934    0.6414 H   0  0  0  0  0  0
    7.0955   -4.0803   -0.6170 H   0  0  0  0  0  0
    4.6538   -5.5793    0.2766 H   0  0  0  0  0  0
    3.5642   -4.2065    0.4010 H   0  0  0  0  0  0
    4.6433   -4.3478   -0.9899 H   0  0  0  0  0  0
    4.4101   -2.0380    0.9302 H   0  0  0  0  0  0
    5.5000   -2.0715   -0.4356 H   0  0  0  0  0  0
    6.3280   -0.4609    1.2265 H   0  0  0  0  0  0
    6.1508   -1.6201    2.5141 H   0  0  0  0  0  0
  1  2  1  0  0  0
  1 38  1  0  0  0
  1 39  1  0  0  0
  1 40  1  0  0  0
  2  3  1  0  0  0
  3  4  2  0  0  0
  3  8  1  0  0  0
  4  5  1  0  0  0
  4 41  1  0  0  0
  5  6  2  0  0  0
  5 28  1  0  0  0
  6  7  1  0  0  0
  6 42  1  0  0  0
  7  8  2  0  0  0
  7 43  1  0  0  0
  8  9  1  0  0  0
  9 10  1  0  0  0
  9 44  1  0  0  0
 10 11  2  0  0  0
 10 27  1  0  0  0
 11 12  1  0  0  0
 12 13  2  0  0  0
 12 45  1  0  0  0
 13 14  1  0  0  0
 13 46  1  0  0  0
 14 15  1  0  0  0
 14 27  2  0  0  0
 15 16  1  0  0  0
 16 17  2  0  0  0
 16 26  1  0  0  0
 17 18  1  0  0  0
 17 47  1  0  0  0
 18 19  2  0  0  0
 18 48  1  0  0  0
 19 20  1  0  0  0
 19 49  1  0  0  0
 20 21  1  0  0  0
 20 26  2  0  0  0
 21 22  1  0  0  0
 21 50  1  0  0  0
 21 51  1  0  0  0
 22 23  1  0  0  0
 22 24  1  0  0  0
 23 52  1  0  0  0
 23 53  1  0  0  0
 23 54  1  0  0  0
 24 25  2  0  0  0
 24 26  1  0  0  0
 28 29  2  0  0  0
 28 30  1  0  0  0
 30 31  1  0  0  0
 30 55  1  0  0  0
 31 32  1  0  0  0
 31 37  1  0  0  0
 31 56  1  0  0  0
 32 33  1  0  0  0
 32 57  1  0  0  0
 32 58  1  0  0  0
 33 34  1  0  0  0
 33 59  1  0  0  0
 33 60  1  0  0  0
 34 35  1  0  0  0
 34 36  1  0  0  0
 35 61  1  0  0  0
 35 62  1  0  0  0
 35 63  1  0  0  0
 36 37  1  0  0  0
 36 64  1  0  0  0
 36 65  1  0  0  0
 37 66  1  0  0  0
 37 67  1  0  0  0
M  END
> <s_m_entry_id>
47524

> <s_m_entry_name>
dock_pv.57

> <s_m_Source_Path>
/home/csk/Desktop/cluster/DUD-E-result/fak1

> <s_m_Source_File>
dock_pv.maegz

> <i_m_Source_File_Index>
57

> <chembl_id>
CHEMBL3657349

> <chembl_pref_name>
None

> <i_lp_mmshare_version>
53161

> <i_f3d_flags>
0

> <r_lp_tautomer_probability>
0.999999917912647

> <s_lp_Force_Field>
OPLS_2005

> <r_lp_Energy>
50.534817

> <b_lp_Chiralities_Consistent>
1

> <s_lp_Variant>
CHEMBL2695_lig1051-1

> <s_i_glide_gridfile>
glide-grid_3bz3

> <i_i_glide_lignum>
1137

> <i_i_glide_rotatable_bonds>
8

> <r_i_docking_score>
-8.77597650651028

> <r_i_glide_ligand_efficiency>
-0.237188554230008

> <r_i_glide_ligand_efficiency_sa>
-0.790364882414228

> <r_i_glide_ligand_efficiency_ln>
-1.90330356618245

> <r_i_glide_gscore>
-8.77597650651028

> <r_i_glide_lipo>
-2.61978436153017

> <r_i_glide_hbond>
-0.295509990824095

> <r_i_glide_metal>
0

> <r_i_glide_rewards>
-2.53184140350639

> <r_i_glide_evdw>
-49.3364524841309

> <r_i_glide_ecoul>
-8.975172996521

> <r_i_glide_erotb>
0.566328139139277

> <r_i_glide_esite>
-0.0820703161042178

> <r_i_glide_emodel>
-86.85036183937

> <r_i_glide_energy>
-58.3116254806519

> <r_i_glide_einternal>
3.25546288490295

> <i_i_glide_confnum>
5

> <i_i_glide_posenum>
15

> <r_i_glide_eff_state_penalty>
0

> <s_user_duplicate_titles>
CHEMBL2695_lig1051

> <s_m_subgroup_title>
dock_pv

> <s_m_subgroupid>
dock_pv

> <b_m_subgroup_collapsed>
1

$$$$
CHEMBL2695_lig635
                    3D
 Schrodinger Suite 2021-1.
 58 62  0  0  1  0            999 V2000
    9.6102   -1.6647    1.5551 C   0  0  0  0  0  0
   10.9972   -1.3504    1.4581 O   0  0  0  0  0  0
   11.5642   -0.5253    2.4097 C   0  0  0  0  0  0
   10.8714    0.0042    3.5090 C   0  0  0  0  0  0
   11.5220    0.8432    4.4080 C   0  0  0  0  0  0
   12.8758    1.1630    4.2282 C   0  0  0  0  0  0
   13.5917    1.9976    5.1090 N   0  0  0  0  0  0
   13.1534    3.0730    5.8438 C   0  0  0  0  0  0
   14.0250    3.8310    6.4844 N   0  0  0  0  0  0
   13.2368    4.7600    7.0832 C   0  0  0  0  0  0
   13.4996    5.7575    8.0335 C   0  0  0  0  0  0
   12.4318    6.4433    8.6061 C   0  0  0  0  0  0
   11.1220    6.1190    8.2700 C   0  0  0  0  0  0
   10.8383    5.1396    7.3114 C   0  0  0  0  0  0
    9.4538    4.6491    7.0339 C   0  0  0  0  0  0
    9.0120    4.3630    5.7350 C   0  0  0  0  0  0
    7.7044    3.9437    5.5041 C   0  0  0  0  0  0
    6.8057    3.8122    6.5652 C   0  0  0  0  0  0
    5.3596    3.4071    6.2452 C   0  0  0  0  0  0
    4.4376    3.4350    7.3921 N   0  0  0  0  0  0
    3.0670    3.7827    6.9895 C   0  0  0  0  0  0
    2.1793    4.1604    8.1898 C   0  0  0  0  0  0
    2.1018    2.7209    9.3840 S   0  0  0  0  0  0
    1.5306    3.1630   10.6611 O   0  0  0  0  0  0
    1.5069    1.5623    8.7090 O   0  0  0  0  0  0
    3.9338    2.4259    9.5872 C   0  0  0  0  0  0
    4.5458    2.2111    8.1992 C   0  0  0  0  0  0
    7.2503    4.0725    7.8678 C   0  0  0  0  0  0
    8.5620    4.4704    8.0975 C   0  0  0  0  0  0
   11.9104    4.5087    6.7198 N   0  0  0  0  0  0
   11.8900    3.4345    5.9090 N   0  0  0  0  0  0
   13.5652    0.6312    3.1338 C   0  0  0  0  0  0
   12.9122   -0.2104    2.2372 C   0  0  0  0  0  0
    9.3272   -2.3092    0.7232 H   0  0  0  0  0  0
    9.3820   -2.2001    2.4784 H   0  0  0  0  0  0
    8.9916   -0.7672    1.5009 H   0  0  0  0  0  0
    9.8259   -0.2089    3.6720 H   0  0  0  0  0  0
   10.9643    1.2226    5.2504 H   0  0  0  0  0  0
   14.5853    1.8207    5.0913 H   0  0  0  0  0  0
   14.4962    5.9307    8.3895 H   0  0  0  0  0  0
   12.6199    7.1881    9.3673 H   0  0  0  0  0  0
   10.3220    6.5936    8.8123 H   0  0  0  0  0  0
    9.6781    4.4791    4.8922 H   0  0  0  0  0  0
    7.3895    3.7374    4.4915 H   0  0  0  0  0  0
    5.3559    2.4208    5.7757 H   0  0  0  0  0  0
    5.0179    4.1057    5.4788 H   0  0  0  0  0  0
    2.6223    3.0133    6.3550 H   0  0  0  0  0  0
    3.1145    4.6764    6.3633 H   0  0  0  0  0  0
    2.6044    5.0176    8.7089 H   0  0  0  0  0  0
    1.1657    4.4081    7.8817 H   0  0  0  0  0  0
    4.3809    3.2956   10.0685 H   0  0  0  0  0  0
    4.0713    1.5630   10.2353 H   0  0  0  0  0  0
    5.5992    1.9836    8.3694 H   0  0  0  0  0  0
    4.1550    1.3341    7.6787 H   0  0  0  0  0  0
    6.5841    3.9908    8.7131 H   0  0  0  0  0  0
    8.8737    4.6665    9.1127 H   0  0  0  0  0  0
   14.6103    0.8592    2.9830 H   0  0  0  0  0  0
   13.4527   -0.6183    1.3966 H   0  0  0  0  0  0
  1  2  1  0  0  0
  1 34  1  0  0  0
  1 35  1  0  0  0
  1 36  1  0  0  0
  2  3  1  0  0  0
  3  4  2  0  0  0
  3 33  1  0  0  0
  4  5  1  0  0  0
  4 37  1  0  0  0
  5  6  2  0  0  0
  5 38  1  0  0  0
  6  7  1  0  0  0
  6 32  1  0  0  0
  7  8  1  0  0  0
  7 39  1  0  0  0
  8  9  1  0  0  0
  8 31  2  0  0  0
  9 10  2  0  0  0
 10 11  1  0  0  0
 10 30  1  0  0  0
 11 12  2  0  0  0
 11 40  1  0  0  0
 12 13  1  0  0  0
 12 41  1  0  0  0
 13 14  2  0  0  0
 13 42  1  0  0  0
 14 15  1  0  0  0
 14 30  1  0  0  0
 15 16  2  0  0  0
 15 29  1  0  0  0
 16 17  1  0  0  0
 16 43  1  0  0  0
 17 18  2  0  0  0
 17 44  1  0  0  0
 18 19  1  0  0  0
 18 28  1  0  0  0
 19 20  1  0  0  0
 19 45  1  0  0  0
 19 46  1  0  0  0
 20 21  1  0  0  0
 20 27  1  0  0  0
 21 22  1  0  0  0
 21 47  1  0  0  0
 21 48  1  0  0  0
 22 23  1  0  0  0
 22 49  1  0  0  0
 22 50  1  0  0  0
 23 24  2  0  0  0
 23 25  2  0  0  0
 23 26  1  0  0  0
 26 27  1  0  0  0
 26 51  1  0  0  0
 26 52  1  0  0  0
 27 53  1  0  0  0
 27 54  1  0  0  0
 28 29  2  0  0  0
 28 55  1  0  0  0
 29 56  1  0  0  0
 30 31  1  0  0  0
 32 33  2  0  0  0
 32 57  1  0  0  0
 33 58  1  0  0  0
M  END
> <s_m_entry_id>
47525

> <s_m_entry_name>
dock_pv.58

> <s_m_Source_Path>
/home/csk/Desktop/cluster/DUD-E-result/fak1

> <s_m_Source_File>
dock_pv.maegz

> <i_m_Source_File_Index>
58

> <chembl_id>
CHEMBL3642324

> <chembl_pref_name>
None

> <i_lp_mmshare_version>
53161

> <i_f3d_flags>
0

> <r_lp_tautomer_probability>
1

> <s_lp_Force_Field>
OPLS_2005

> <r_lp_Energy>
23.52828

> <b_lp_Chiralities_Consistent>
1

> <s_lp_Variant>
CHEMBL2695_lig635-1

> <s_i_glide_gridfile>
glide-grid_3bz3

> <i_i_glide_lignum>
689

> <i_i_glide_rotatable_bonds>
6

> <r_i_docking_score>
-8.73520442373754

> <r_i_glide_ligand_efficiency>
-0.264703164355683

> <r_i_glide_ligand_efficiency_sa>
-0.849044485939818

> <r_i_glide_ligand_efficiency_ln>
-1.9426642353713

> <r_i_glide_gscore>
-8.73520442373754

> <r_i_glide_lipo>
-3.27175192774315

> <r_i_glide_hbond>
-0.349388947738093

> <r_i_glide_metal>
0

> <r_i_glide_rewards>
-2.0768741530046

> <r_i_glide_evdw>
-42.3071022033691

> <r_i_glide_ecoul>
-8.55458164215088

> <r_i_glide_erotb>
0.468923423057859

> <r_i_glide_esite>
-0.107570461818468

> <r_i_glide_emodel>
-75.9663935419019

> <r_i_glide_energy>
-50.86168384552

> <r_i_glide_einternal>
4.22310209274292

> <i_i_glide_confnum>
10

> <i_i_glide_posenum>
348

> <r_i_glide_eff_state_penalty>
0

> <s_user_duplicate_titles>
CHEMBL2695_lig635

> <s_m_subgroup_title>
dock_pv

> <s_m_subgroupid>
dock_pv

> <b_m_subgroup_collapsed>
1

$$$$
CHEMBL2695_lig1175
                    3D
 Schrodinger Suite 2021-1.
 57 60  0  0  1  0            999 V2000
    8.3220    3.9628    4.3090 N   0  0  0  0  0  0
    7.1942    4.1075    5.0005 C   0  0  0  0  0  0
    6.5692    5.1625    4.9884 O   0  0  0  0  0  0
    6.6977    2.9073    5.8070 C   0  0  0  0  0  0
    6.5084    3.2722    7.2779 C   0  0  0  0  0  0
    5.2148    3.2334    7.8118 C   0  0  0  0  0  0
    4.9873    3.5631    9.1452 C   0  0  0  0  0  0
    6.0485    3.9570    9.9550 C   0  0  0  0  0  0
    7.3401    3.9951    9.4389 C   0  0  0  0  0  0
    7.5888    3.6432    8.1055 C   0  0  0  0  0  0
    9.0447    3.5641    7.6439 C   0  0  0  0  0  0
    9.7341    4.9005    7.2590 C   0  0  0  0  0  0
   11.2603    4.8212    7.0565 C   0  0  0  0  0  0
   11.6815    3.7833    6.2880 N   0  0  0  0  0  0
   13.0221    3.5678    6.1938 C   0  0  0  0  0  0
   13.5147    2.4545    5.5090 N   0  0  0  0  0  0
   12.8674    1.5249    4.6909 C   0  0  0  0  0  0
   11.5218    1.1630    4.8326 C   0  0  0  0  0  0
   10.9199    0.3130    3.9099 C   0  0  0  0  0  0
   11.6535   -0.2525    2.8657 C   0  0  0  0  0  0
   10.9813   -1.1766    1.8539 C   0  0  0  0  0  0
   11.9229   -2.0706    1.1838 N   0  0  2  0  0  0
   12.9957   -1.2914    0.5755 C   0  0  0  0  0  0
   13.8594   -0.6292    1.6677 C   0  0  0  0  0  0
   13.0198    0.0692    2.7316 C   0  0  0  0  0  0
   13.5988    0.9737    3.6314 C   0  0  0  0  0  0
   13.9747    4.3403    6.7575 N   0  0  0  0  0  0
   13.5440    5.3969    7.4822 C   0  0  0  0  0  0
   12.1912    5.6934    7.6628 C   0  0  0  0  0  0
   11.7996    6.8634    8.5388 C   0  0  0  0  0  0
   12.8445    7.4763    9.0985 F   0  0  0  0  0  0
   11.1222    7.7615    7.8264 F   0  0  0  0  0  0
   11.0494    6.3630    9.5090 F   0  0  0  0  0  0
    8.7483    3.0543    4.2035 H   0  0  0  0  0  0
    8.6697    4.7446    3.7772 H   0  0  0  0  0  0
    7.3694    2.0520    5.7220 H   0  0  0  0  0  0
    5.7588    2.5770    5.3610 H   0  0  0  0  0  0
    4.3769    2.9469    7.1930 H   0  0  0  0  0  0
    3.9871    3.5318    9.5524 H   0  0  0  0  0  0
    5.8693    4.2186   10.9881 H   0  0  0  0  0  0
    8.1542    4.2763   10.0909 H   0  0  0  0  0  0
    9.5220    3.1640    8.5234 H   0  0  0  0  0  0
    9.1781    2.8051    6.8743 H   0  0  0  0  0  0
    9.3067    5.3219    6.3530 H   0  0  0  0  0  0
    9.4881    5.5894    8.0525 H   0  0  0  0  0  0
   14.5196    2.3793    5.5089 H   0  0  0  0  0  0
   10.9180    1.5429    5.6403 H   0  0  0  0  0  0
    9.8693    0.0813    4.0112 H   0  0  0  0  0  0
   10.2490   -1.8065    2.3617 H   0  0  0  0  0  0
   10.4292   -0.5797    1.1256 H   0  0  0  0  0  0
   11.4221   -2.6220    0.5004 H   0  0  0  0  0  0
   13.6145   -1.9517   -0.0324 H   0  0  0  0  0  0
   12.5934   -0.5278   -0.0911 H   0  0  0  0  0  0
   14.5683    0.0634    1.2189 H   0  0  0  0  0  0
   14.4591   -1.3984    2.1579 H   0  0  0  0  0  0
   14.6457    1.2185    3.5240 H   0  0  0  0  0  0
   14.3220    5.9990    7.9295 H   0  0  0  0  0  0
  1  2  1  0  0  0
  1 34  1  0  0  0
  1 35  1  0  0  0
  2  3  2  0  0  0
  2  4  1  0  0  0
  4  5  1  0  0  0
  4 36  1  0  0  0
  4 37  1  0  0  0
  5  6  2  0  0  0
  5 10  1  0  0  0
  6  7  1  0  0  0
  6 38  1  0  0  0
  7  8  2  0  0  0
  7 39  1  0  0  0
  8  9  1  0  0  0
  8 40  1  0  0  0
  9 10  2  0  0  0
  9 41  1  0  0  0
 10 11  1  0  0  0
 11 12  1  0  0  0
 11 42  1  0  0  0
 11 43  1  0  0  0
 12 13  1  0  0  0
 12 44  1  0  0  0
 12 45  1  0  0  0
 13 14  2  0  0  0
 13 29  1  0  0  0
 14 15  1  0  0  0
 15 16  1  0  0  0
 15 27  2  0  0  0
 16 17  1  0  0  0
 16 46  1  0  0  0
 17 18  2  0  0  0
 17 26  1  0  0  0
 18 19  1  0  0  0
 18 47  1  0  0  0
 19 20  2  0  0  0
 19 48  1  0  0  0
 20 21  1  0  0  0
 20 25  1  0  0  0
 21 22  1  0  0  0
 21 49  1  0  0  0
 21 50  1  0  0  0
 22 23  1  0  0  0
 22 51  1  0  0  0
 23 24  1  0  0  0
 23 52  1  0  0  0
 23 53  1  0  0  0
 24 25  1  0  0  0
 24 54  1  0  0  0
 24 55  1  0  0  0
 25 26  2  0  0  0
 26 56  1  0  0  0
 27 28  1  0  0  0
 28 29  2  0  0  0
 28 57  1  0  0  0
 29 30  1  0  0  0
 30 31  1  0  0  0
 30 32  1  0  0  0
 30 33  1  0  0  0
M  END
> <s_m_entry_id>
47526

> <s_m_entry_name>
dock_pv.59

> <s_m_Source_Path>
/home/csk/Desktop/cluster/DUD-E-result/fak1

> <s_m_Source_File>
dock_pv.maegz

> <i_m_Source_File_Index>
59

> <chembl_id>
CHEMBL3692186

> <chembl_pref_name>
None

> <i_lp_mmshare_version>
53161

> <i_f3d_flags>
0

> <r_lp_tautomer_probability>
0.999999987636

> <s_lp_Force_Field>
OPLS_2005

> <r_lp_Energy>
16.4742

> <b_lp_Chiralities_Consistent>
1

> <s_lp_Variant>
CHEMBL2695_lig1175-1

> <s_i_glide_gridfile>
glide-grid_3bz3

> <i_i_glide_lignum>
1275

> <i_i_glide_rotatable_bonds>
8

> <r_i_docking_score>
-8.68932565979782

> <r_i_glide_ligand_efficiency>
-0.263312898781752

> <r_i_glide_ligand_efficiency_sa>
-0.84458516138882

> <r_i_glide_ligand_efficiency_ln>
-1.93246103581863

> <r_i_glide_gscore>
-8.68932565979782

> <r_i_glide_lipo>
-3.50043784995206

> <r_i_glide_hbond>
-0.00093977115557891

> <r_i_glide_metal>
0

> <r_i_glide_rewards>
-2.9167629215856

> <r_i_glide_evdw>
-41.0841865539551

> <r_i_glide_ecoul>
-5.31993961334229

> <r_i_glide_erotb>
0.581015152594524

> <r_i_glide_esite>
0

> <r_i_glide_emodel>
-66.6399890455971

> <r_i_glide_energy>
-46.4041261672974

> <r_i_glide_einternal>
4.27290105819702

> <i_i_glide_confnum>
5

> <i_i_glide_posenum>
373

> <r_i_glide_eff_state_penalty>
0

> <s_user_duplicate_titles>
CHEMBL2695_lig1175

> <s_m_subgroup_title>
dock_pv

> <s_m_subgroupid>
dock_pv

> <b_m_subgroup_collapsed>
1

$$$$
CHEMBL2695_lig1022
                    3D
 Schrodinger Suite 2021-1.
 43 46  0  0  1  0            999 V2000
    9.4465   -1.4039    2.0915 C   0  0  0  0  0  0
   10.8350   -1.1232    1.9293 O   0  0  0  0  0  0
   11.4568   -0.2879    2.8326 C   0  0  0  0  0  0
   10.8061    0.3369    3.9088 C   0  0  0  0  0  0
   11.5218    1.1427    4.7877 C   0  0  0  0  0  0
   12.8877    1.3666    4.5858 C   0  0  0  0  0  0
   13.6413    2.2089    5.4101 N   0  0  0  0  0  0
   13.2745    3.3826    6.0766 C   0  0  0  0  0  0
   14.2541    3.9710    6.8013 N   0  0  0  0  0  0
   13.8958    5.0754    7.5087 C   0  0  0  0  0  0
   12.5974    5.5889    7.5063 C   0  0  0  0  0  0
   11.6505    4.9069    6.7428 C   0  0  0  0  0  0
   10.3176    5.2676    6.8447 O   0  0  0  0  0  0
    9.3012    4.3663    6.5890 C   0  0  0  0  0  0
    9.0622    3.8689    5.3009 C   0  0  0  0  0  0
    8.0506    2.9329    5.0866 C   0  0  0  0  0  0
    7.2524    2.5060    6.1486 C   0  0  0  0  0  0
    7.4525    3.0323    7.4274 C   0  0  0  0  0  0
    6.7088    2.7212    8.6997 C   0  0  0  0  0  0
    7.3471    3.6144    9.7640 C   0  0  0  0  0  0
    8.4780    4.3679    9.0700 C   0  0  0  0  0  0
    9.2412    5.1631    9.6153 O   0  0  0  0  0  0
    8.4679    3.9623    7.6448 C   0  0  0  0  0  0
   11.9910    3.8178    6.0033 N   0  0  0  0  0  0
   13.5339    0.7649    3.5037 C   0  0  0  0  0  0
   12.8181   -0.0558    2.6357 C   0  0  0  0  0  0
    9.1251   -2.0842    1.3050 H   0  0  0  0  0  0
    8.8416   -0.4996    2.0151 H   0  0  0  0  0  0
    9.2444   -1.8867    3.0486 H   0  0  0  0  0  0
    9.7498    0.2054    4.0801 H   0  0  0  0  0  0
   10.9971    1.5744    5.6250 H   0  0  0  0  0  0
   14.6087    1.9289    5.5134 H   0  0  0  0  0  0
   14.6571    5.5193    8.1290 H   0  0  0  0  0  0
   12.3226    6.4372    8.1119 H   0  0  0  0  0  0
    9.6765    4.1924    4.4759 H   0  0  0  0  0  0
    7.8848    2.5305    4.0989 H   0  0  0  0  0  0
    6.4840    1.7707    5.9639 H   0  0  0  0  0  0
    5.6439    2.9438    8.6217 H   0  0  0  0  0  0
    6.8156    1.6750    8.9875 H   0  0  0  0  0  0
    6.6318    4.3305   10.1669 H   0  0  0  0  0  0
    7.7436    3.0348   10.5946 H   0  0  0  0  0  0
   14.5875    0.9270    3.3362 H   0  0  0  0  0  0
   13.3228   -0.5236    1.8057 H   0  0  0  0  0  0
  1  2  1  0  0  0
  1 27  1  0  0  0
  1 28  1  0  0  0
  1 29  1  0  0  0
  2  3  1  0  0  0
  3  4  2  0  0  0
  3 26  1  0  0  0
  4  5  1  0  0  0
  4 30  1  0  0  0
  5  6  2  0  0  0
  5 31  1  0  0  0
  6  7  1  0  0  0
  6 25  1  0  0  0
  7  8  1  0  0  0
  7 32  1  0  0  0
  8  9  2  0  0  0
  8 24  1  0  0  0
  9 10  1  0  0  0
 10 11  2  0  0  0
 10 33  1  0  0  0
 11 12  1  0  0  0
 11 34  1  0  0  0
 12 13  1  0  0  0
 12 24  2  0  0  0
 13 14  1  0  0  0
 14 15  2  0  0  0
 14 23  1  0  0  0
 15 16  1  0  0  0
 15 35  1  0  0  0
 16 17  2  0  0  0
 16 36  1  0  0  0
 17 18  1  0  0  0
 17 37  1  0  0  0
 18 19  1  0  0  0
 18 23  2  0  0  0
 19 20  1  0  0  0
 19 38  1  0  0  0
 19 39  1  0  0  0
 20 21  1  0  0  0
 20 40  1  0  0  0
 20 41  1  0  0  0
 21 22  2  0  0  0
 21 23  1  0  0  0
 25 26  2  0  0  0
 25 42  1  0  0  0
 26 43  1  0  0  0
M  END
> <s_m_entry_id>
47527

> <s_m_entry_name>
dock_pv.60

> <s_m_Source_Path>
/home/csk/Desktop/cluster/DUD-E-result/fak1

> <s_m_Source_File>
dock_pv.maegz

> <i_m_Source_File_Index>
60

> <chembl_id>
CHEMBL3657321

> <chembl_pref_name>
None

> <i_lp_mmshare_version>
53161

> <i_f3d_flags>
0

> <r_lp_tautomer_probability>
0.999949917916752

> <s_lp_Force_Field>
OPLS_2005

> <r_lp_Energy>
31.206071

> <b_lp_Chiralities_Consistent>
1

> <s_lp_Variant>
CHEMBL2695_lig1022-1

> <s_i_glide_gridfile>
glide-grid_3bz3

> <i_i_glide_lignum>
1104

> <i_i_glide_rotatable_bonds>
5

> <r_i_docking_score>
-8.67502417325049

> <r_i_glide_ligand_efficiency>
-0.33365477589425

> <r_i_glide_ligand_efficiency_sa>
-0.988450960718567

> <r_i_glide_ligand_efficiency_ln>
-2.03730096201185

> <r_i_glide_gscore>
-8.67502417325049

> <r_i_glide_lipo>
-2.67551217878088

> <r_i_glide_hbond>
-0.718637614960593

> <r_i_glide_metal>
0

> <r_i_glide_rewards>
-2.66802326575201

> <r_i_glide_evdw>
-36.1586303710938

> <r_i_glide_ecoul>
-9.57031440734863

> <r_i_glide_erotb>
0.630627565899974

> <r_i_glide_esite>
0

> <r_i_glide_emodel>
-69.5562826985101

> <r_i_glide_energy>
-45.7289447784424

> <r_i_glide_einternal>
2.77053332328796

> <i_i_glide_confnum>
5

> <i_i_glide_posenum>
156

> <r_i_glide_eff_state_penalty>
0

> <s_user_duplicate_titles>
CHEMBL2695_lig1022

> <s_m_subgroup_title>
dock_pv

> <s_m_subgroupid>
dock_pv

> <b_m_subgroup_collapsed>
1

$$$$
CHEMBL2695_lig1052
                    3D
 Schrodinger Suite 2021-1.
 43 46  0  0  1  0            999 V2000
   15.1220   -0.1501    1.9944 C   0  0  0  0  0  0
   14.4587    0.6984    2.9221 O   0  0  0  0  0  0
   13.1041    0.5156    3.1406 C   0  0  0  0  0  0
   12.3011   -0.3009    2.3228 C   0  0  0  0  0  0
   10.9438   -0.4546    2.5853 C   0  0  0  0  0  0
   10.1884   -1.2341    1.7807 F   0  0  0  0  0  0
   10.3671    0.1961    3.6686 C   0  0  0  0  0  0
   11.1490    0.9877    4.5054 C   0  0  0  0  0  0
   12.5208    1.1630    4.2561 C   0  0  0  0  0  0
   13.3383    1.9422    5.1090 N   0  0  0  0  0  0
   13.0557    3.0594    5.9090 C   0  0  0  0  0  0
   14.1151    3.6190    6.5446 N   0  0  0  0  0  0
   13.8793    4.7630    7.2392 C   0  0  0  0  0  0
   12.6132    5.3516    7.3104 C   0  0  0  0  0  0
   12.4058    6.4773    8.0323 F   0  0  0  0  0  0
   11.5696    4.7025    6.6412 C   0  0  0  0  0  0
   10.2688    5.1649    6.7691 O   0  0  0  0  0  0
    9.1861    4.3331    6.5534 C   0  0  0  0  0  0
    8.8766    3.8432    5.2785 C   0  0  0  0  0  0
    7.8238    2.9437    5.1090 C   0  0  0  0  0  0
    7.0579    2.5474    6.2052 C   0  0  0  0  0  0
    7.3296    3.0675    7.4721 C   0  0  0  0  0  0
    6.6356    2.7808    8.7778 C   0  0  0  0  0  0
    7.3510    3.6536    9.8113 C   0  0  0  0  0  0
    8.4659    4.3778    9.0636 C   0  0  0  0  0  0
    9.2677    5.1630    9.5668 O   0  0  0  0  0  0
    8.3853    3.9630    7.6441 C   0  0  0  0  0  0
   11.7934    3.5570    5.9347 N   0  0  0  0  0  0
   16.1813    0.1036    1.9604 H   0  0  0  0  0  0
   15.0378   -1.1972    2.2884 H   0  0  0  0  0  0
   14.7220   -0.0370    0.9880 H   0  0  0  0  0  0
   12.7038   -0.8219    1.4699 H   0  0  0  0  0  0
    9.3100    0.0809    3.8629 H   0  0  0  0  0  0
   10.6705    1.4401    5.3597 H   0  0  0  0  0  0
   14.3229    1.7164    5.0503 H   0  0  0  0  0  0
   14.7220    5.1867    7.7633 H   0  0  0  0  0  0
    9.4781    4.1305    4.4287 H   0  0  0  0  0  0
    7.6089    2.5382    4.1310 H   0  0  0  0  0  0
    6.2587    1.8341    6.0576 H   0  0  0  0  0  0
    5.5753    3.0365    8.7483 H   0  0  0  0  0  0
    6.7215    1.7308    9.0630 H   0  0  0  0  0  0
    6.6762    4.3888   10.2511 H   0  0  0  0  0  0
    7.7727    3.0603   10.6224 H   0  0  0  0  0  0
  1  2  1  0  0  0
  1 29  1  0  0  0
  1 30  1  0  0  0
  1 31  1  0  0  0
  2  3  1  0  0  0
  3  4  2  0  0  0
  3  9  1  0  0  0
  4  5  1  0  0  0
  4 32  1  0  0  0
  5  6  1  0  0  0
  5  7  2  0  0  0
  7  8  1  0  0  0
  7 33  1  0  0  0
  8  9  2  0  0  0
  8 34  1  0  0  0
  9 10  1  0  0  0
 10 11  1  0  0  0
 10 35  1  0  0  0
 11 12  2  0  0  0
 11 28  1  0  0  0
 12 13  1  0  0  0
 13 14  2  0  0  0
 13 36  1  0  0  0
 14 15  1  0  0  0
 14 16  1  0  0  0
 16 17  1  0  0  0
 16 28  2  0  0  0
 17 18  1  0  0  0
 18 19  2  0  0  0
 18 27  1  0  0  0
 19 20  1  0  0  0
 19 37  1  0  0  0
 20 21  2  0  0  0
 20 38  1  0  0  0
 21 22  1  0  0  0
 21 39  1  0  0  0
 22 23  1  0  0  0
 22 27  2  0  0  0
 23 24  1  0  0  0
 23 40  1  0  0  0
 23 41  1  0  0  0
 24 25  1  0  0  0
 24 42  1  0  0  0
 24 43  1  0  0  0
 25 26  2  0  0  0
 25 27  1  0  0  0
M  END
> <s_m_entry_id>
47528

> <s_m_entry_name>
dock_pv.61

> <s_m_Source_Path>
/home/csk/Desktop/cluster/DUD-E-result/fak1

> <s_m_Source_File>
dock_pv.maegz

> <i_m_Source_File_Index>
61

> <chembl_id>
CHEMBL3657350

> <chembl_pref_name>
None

> <i_lp_mmshare_version>
53161

> <i_f3d_flags>
0

> <r_lp_tautomer_probability>
0.999949917916752

> <s_lp_Force_Field>
OPLS_2005

> <r_lp_Energy>
34.235655

> <b_lp_Chiralities_Consistent>
1

> <s_lp_Variant>
CHEMBL2695_lig1052-1

> <s_i_glide_gridfile>
glide-grid_3bz3

> <i_i_glide_lignum>
1138

> <i_i_glide_rotatable_bonds>
5

> <r_i_docking_score>
-8.6713980715283

> <r_i_glide_ligand_efficiency>
-0.309692788268868

> <r_i_glide_ligand_efficiency_sa>
-0.940409704482123

> <r_i_glide_ligand_efficiency_ln>
-2.00161327821932

> <r_i_glide_gscore>
-8.6713980715283

> <r_i_glide_lipo>
-2.50012161524839

> <r_i_glide_hbond>
-0.575460783191092

> <r_i_glide_metal>
0

> <r_i_glide_rewards>
-2.91245599620624

> <r_i_glide_evdw>
-39.3699226379395

> <r_i_glide_ecoul>
-8.09347915649414

> <r_i_glide_erotb>
0.52889873649004

> <r_i_glide_esite>
-0.0297404080015241

> <r_i_glide_emodel>
-69.7548146008923

> <r_i_glide_energy>
-47.4634017944336

> <r_i_glide_einternal>
3.89835023880005

> <i_i_glide_confnum>
5

> <i_i_glide_posenum>
314

> <r_i_glide_eff_state_penalty>
0

> <s_user_duplicate_titles>
CHEMBL2695_lig1052

> <s_m_subgroup_title>
dock_pv

> <s_m_subgroupid>
dock_pv

> <b_m_subgroup_collapsed>
1

$$$$
CHEMBL2695_lig330
                    3D
 Schrodinger Suite 2021-1.
 43 46  0  0  1  0            999 V2000
    9.7875    4.6127    6.9517 N   0  0  0  0  0  0
   12.9464    2.8796    5.9090 C   0  0  0  0  0  0
   11.5514    3.1413    5.9806 C   0  0  0  0  0  0
   11.1423    4.3064    6.6935 C   0  0  0  0  0  0
   12.1628    5.1614    7.1768 C   0  0  0  0  0  0
   13.5021    4.7739    7.0147 C   0  0  0  0  0  0
   13.9220    3.6379    6.4050 N   0  0  0  0  0  0
   13.1220    1.7300    5.1726 N   0  0  0  0  0  0
   10.9239    2.0689    5.2414 C   0  0  0  0  0  0
   11.9180    1.3063    4.6470 C   0  0  0  0  0  0
   11.8156    0.3354    3.5090 C   0  0  0  0  0  0
   12.9323    0.0498    2.7090 C   0  0  0  0  0  0
   12.8244   -0.8313    1.6379 C   0  0  0  0  0  0
   11.5977   -1.4225    1.3518 C   0  0  0  0  0  0
   10.4800   -1.1470    2.1357 C   0  0  0  0  0  0
   10.5889   -0.2686    3.2115 C   0  0  0  0  0  0
   11.4947   -2.2626    0.2970 F   0  0  0  0  0  0
    8.7502    3.5984    6.7886 C   0  0  0  0  0  0
    7.5015    3.8488    7.6202 C   0  0  0  0  0  0
    7.5448    3.8117    9.0225 C   0  0  0  0  0  0
    6.3639    3.8686    9.7623 C   0  0  0  0  0  0
    5.1353    3.9520    9.1089 C   0  0  0  0  0  0
    5.0843    4.0136    7.7180 C   0  0  0  0  0  0
    6.2637    3.9649    6.9761 C   0  0  0  0  0  0
    3.8922    4.1032    7.0878 F   0  0  0  0  0  0
    8.7220    3.6883    9.6749 F   0  0  0  0  0  0
   11.8473    6.4724    7.9074 C   0  0  0  0  0  0
   12.9445    7.1279    8.2917 F   0  0  0  0  0  0
   11.1587    7.2761    7.0979 F   0  0  0  0  0  0
   11.1221    6.2231    8.9982 F   0  0  0  0  0  0
    9.5881    5.3844    7.5726 H   0  0  0  0  0  0
   14.3047    5.3921    7.3957 H   0  0  0  0  0  0
   14.0058    1.3086    4.9237 H   0  0  0  0  0  0
    9.8740    1.9470    5.0223 H   0  0  0  0  0  0
   13.8887    0.5092    2.9097 H   0  0  0  0  0  0
   13.6876   -1.0502    1.0282 H   0  0  0  0  0  0
    9.5277   -1.6022    1.9045 H   0  0  0  0  0  0
    9.7094   -0.0442    3.7983 H   0  0  0  0  0  0
    9.1230    2.6188    7.0842 H   0  0  0  0  0  0
    8.4837    3.5433    5.7324 H   0  0  0  0  0  0
    6.3966    3.8226   10.8415 H   0  0  0  0  0  0
    4.2210    3.9634    9.6841 H   0  0  0  0  0  0
    6.2022    3.9753    5.8976 H   0  0  0  0  0  0
  1  4  1  0  0  0
  1 18  1  0  0  0
  1 31  1  0  0  0
  2  3  1  0  0  0
  2  7  2  0  0  0
  2  8  1  0  0  0
  3  4  2  0  0  0
  3  9  1  0  0  0
  4  5  1  0  0  0
  5  6  2  0  0  0
  5 27  1  0  0  0
  6  7  1  0  0  0
  6 32  1  0  0  0
  8 10  1  0  0  0
  8 33  1  0  0  0
  9 10  2  0  0  0
  9 34  1  0  0  0
 10 11  1  0  0  0
 11 12  1  0  0  0
 11 16  2  0  0  0
 12 13  2  0  0  0
 12 35  1  0  0  0
 13 14  1  0  0  0
 13 36  1  0  0  0
 14 15  2  0  0  0
 14 17  1  0  0  0
 15 16  1  0  0  0
 15 37  1  0  0  0
 16 38  1  0  0  0
 18 19  1  0  0  0
 18 39  1  0  0  0
 18 40  1  0  0  0
 19 20  1  0  0  0
 19 24  2  0  0  0
 20 21  2  0  0  0
 20 26  1  0  0  0
 21 22  1  0  0  0
 21 41  1  0  0  0
 22 23  2  0  0  0
 22 42  1  0  0  0
 23 24  1  0  0  0
 23 25  1  0  0  0
 24 43  1  0  0  0
 27 28  1  0  0  0
 27 29  1  0  0  0
 27 30  1  0  0  0
M  END
> <s_m_entry_id>
47529

> <s_m_entry_name>
dock_pv.62

> <s_m_Source_Path>
/home/csk/Desktop/cluster/DUD-E-result/fak1

> <s_m_Source_File>
dock_pv.maegz

> <i_m_Source_File_Index>
62

> <chembl_id>
CHEMBL2315570

> <chembl_pref_name>
None

> <i_lp_mmshare_version>
53161

> <i_f3d_flags>
0

> <r_lp_tautomer_probability>
1

> <s_lp_Force_Field>
OPLS_2005

> <r_lp_Energy>
17.649098

> <b_lp_Chiralities_Consistent>
1

> <s_lp_Variant>
CHEMBL2695_lig330-1

> <s_i_glide_gridfile>
glide-grid_3bz3

> <i_i_glide_lignum>
372

> <i_i_glide_rotatable_bonds>
5

> <r_i_docking_score>
-8.66452409981055

> <r_i_glide_ligand_efficiency>
-0.288817469993685

> <r_i_glide_ligand_efficiency_sa>
-0.897423030034294

> <r_i_glide_ligand_efficiency_ln>
-1.96867428302848

> <r_i_glide_gscore>
-8.66452409981055

> <r_i_glide_lipo>
-3.31790478029951

> <r_i_glide_hbond>
-0.178565199741698

> <r_i_glide_metal>
0

> <r_i_glide_rewards>
-2.70924967218529

> <r_i_glide_evdw>
-38.4045066833496

> <r_i_glide_ecoul>
-6.27643060684204

> <r_i_glide_erotb>
0.446144196905685

> <r_i_glide_esite>
-0.0432587192959529

> <r_i_glide_emodel>
-59.5433918204297

> <r_i_glide_energy>
-44.6809372901917

> <r_i_glide_einternal>
4.14481163024902

> <i_i_glide_confnum>
21

> <i_i_glide_posenum>
278

> <r_i_glide_eff_state_penalty>
0

> <s_user_duplicate_titles>
CHEMBL2695_lig330

> <s_m_subgroup_title>
dock_pv

> <s_m_subgroupid>
dock_pv

> <b_m_subgroup_collapsed>
1

$$$$
CHEMBL2695_lig719
                    3D
 Schrodinger Suite 2021-1.
 48 51  0  0  1  0            999 V2000
   15.0041    0.5368    2.7158 C   0  0  0  0  0  0
   13.5455    0.5126    3.1089 C   0  0  0  0  0  0
   12.7220   -0.1968    2.3758 N   0  0  0  0  0  0
   11.5256   -0.0478    2.9433 N   0  0  0  0  0  0
   10.3851   -0.7410    2.3577 C   0  0  0  0  0  0
   11.5475    0.7630    4.0526 C   0  0  0  0  0  0
   10.2789    1.0567    4.8333 C   0  0  0  0  0  0
   12.8960    1.1630    4.1812 C   0  0  0  0  0  0
   13.5433    1.9630    5.1090 N   0  0  0  0  0  0
   13.0771    3.0408    5.8142 C   0  0  0  0  0  0
   11.8007    3.3342    5.9090 N   0  0  0  0  0  0
   11.7854    4.4122    6.7090 C   0  0  0  0  0  0
   10.7316    5.0955    7.3414 C   0  0  0  0  0  0
   11.0895    6.0666    8.2927 C   0  0  0  0  0  0
   12.4167    6.3971    8.5622 C   0  0  0  0  0  0
   13.4382    5.7172    7.9095 C   0  0  0  0  0  0
   13.1014    4.7462    7.0133 N   0  0  0  0  0  0
   13.9234    3.8538    6.4208 N   0  0  0  0  0  0
    9.3260    4.6771    7.0856 C   0  0  0  0  0  0
    8.8594    4.5663    5.7699 C   0  0  0  0  0  0
    7.5379    4.2224    5.5091 C   0  0  0  0  0  0
    6.6710    3.9617    6.5695 C   0  0  0  0  0  0
    7.1362    4.0049    7.8854 C   0  0  0  0  0  0
    8.4595    4.3630    8.1402 C   0  0  0  0  0  0
    4.9489    3.5956    6.2414 S   0  0  0  0  0  0
    4.8262    3.2440    4.8221 O   0  0  0  0  0  0
    4.4859    2.6788    7.2880 O   0  0  0  0  0  0
    4.1081    5.2532    6.5016 C   0  0  0  0  0  0
   15.6626    0.8412    3.5254 H   0  0  0  0  0  0
   15.3546   -0.4367    2.3718 H   0  0  0  0  0  0
   15.1639    1.2426    1.9090 H   0  0  0  0  0  0
   10.0698   -1.5433    3.0254 H   0  0  0  0  0  0
   10.6393   -1.1622    1.3838 H   0  0  0  0  0  0
    9.5624   -0.0371    2.2281 H   0  0  0  0  0  0
    9.8890    2.0444    4.5891 H   0  0  0  0  0  0
    9.4678    0.3630    4.6238 H   0  0  0  0  0  0
   10.4447    1.0250    5.9090 H   0  0  0  0  0  0
   14.5412    1.8250    5.1758 H   0  0  0  0  0  0
   10.3221    6.5552    8.8694 H   0  0  0  0  0  0
   12.6513    7.1444    9.3077 H   0  0  0  0  0  0
   14.4797    5.8454    8.1266 H   0  0  0  0  0  0
    9.5211    4.7630    4.9390 H   0  0  0  0  0  0
    7.1930    4.1685    4.4868 H   0  0  0  0  0  0
    6.4701    3.7835    8.7078 H   0  0  0  0  0  0
    8.8063    4.4100    9.1618 H   0  0  0  0  0  0
    3.0431    5.1318    6.3090 H   0  0  0  0  0  0
    4.2732    5.5786    7.5279 H   0  0  0  0  0  0
    4.5297    5.9631    5.7939 H   0  0  0  0  0  0
  1  2  1  0  0  0
  1 29  1  0  0  0
  1 30  1  0  0  0
  1 31  1  0  0  0
  2  3  2  0  0  0
  2  8  1  0  0  0
  3  4  1  0  0  0
  4  5  1  0  0  0
  4  6  1  0  0  0
  5 32  1  0  0  0
  5 33  1  0  0  0
  5 34  1  0  0  0
  6  7  1  0  0  0
  6  8  2  0  0  0
  7 35  1  0  0  0
  7 36  1  0  0  0
  7 37  1  0  0  0
  8  9  1  0  0  0
  9 10  1  0  0  0
  9 38  1  0  0  0
 10 11  1  0  0  0
 10 18  2  0  0  0
 11 12  2  0  0  0
 12 13  1  0  0  0
 12 17  1  0  0  0
 13 14  2  0  0  0
 13 19  1  0  0  0
 14 15  1  0  0  0
 14 39  1  0  0  0
 15 16  2  0  0  0
 15 40  1  0  0  0
 16 17  1  0  0  0
 16 41  1  0  0  0
 17 18  1  0  0  0
 19 20  2  0  0  0
 19 24  1  0  0  0
 20 21  1  0  0  0
 20 42  1  0  0  0
 21 22  2  0  0  0
 21 43  1  0  0  0
 22 23  1  0  0  0
 22 25  1  0  0  0
 23 24  2  0  0  0
 23 44  1  0  0  0
 24 45  1  0  0  0
 25 26  2  0  0  0
 25 27  2  0  0  0
 25 28  1  0  0  0
 28 46  1  0  0  0
 28 47  1  0  0  0
 28 48  1  0  0  0
M  END
> <s_m_entry_id>
47530

> <s_m_entry_name>
dock_pv.63

> <s_m_Source_Path>
/home/csk/Desktop/cluster/DUD-E-result/fak1

> <s_m_Source_File>
dock_pv.maegz

> <i_m_Source_File_Index>
63

> <chembl_id>
CHEMBL3644958

> <chembl_pref_name>
None

> <i_lp_mmshare_version>
53161

> <i_f3d_flags>
0

> <r_lp_tautomer_probability>
1

> <s_lp_Force_Field>
OPLS_2005

> <r_lp_Energy>
8.72433

> <b_lp_Chiralities_Consistent>
1

> <s_lp_Variant>
CHEMBL2695_lig719-1

> <s_i_glide_gridfile>
glide-grid_3bz3

> <i_i_glide_lignum>
775

> <i_i_glide_rotatable_bonds>
4

> <r_i_docking_score>
-8.56951489016315

> <r_i_glide_ligand_efficiency>
-0.306054103220113

> <r_i_glide_ligand_efficiency_sa>
-0.929360513603217

> <r_i_glide_ligand_efficiency_ln>
-1.97809564854005

> <r_i_glide_gscore>
-8.56951489016315

> <r_i_glide_lipo>
-3.105739617478

> <r_i_glide_hbond>
-0.264948960663356

> <r_i_glide_metal>
0

> <r_i_glide_rewards>
-2.96333778783298

> <r_i_glide_evdw>
-39.5377998352051

> <r_i_glide_ecoul>
-4.21341180801392

> <r_i_glide_erotb>
0.373413238773533

> <r_i_glide_esite>
0

> <r_i_glide_emodel>
-61.3183720348802

> <r_i_glide_energy>
-43.751211643219

> <r_i_glide_einternal>
4.35099267959595

> <i_i_glide_confnum>
1

> <i_i_glide_posenum>
274

> <r_i_glide_eff_state_penalty>
0

> <s_user_duplicate_titles>
CHEMBL2695_lig719

> <s_m_subgroup_title>
dock_pv

> <s_m_subgroupid>
dock_pv

> <b_m_subgroup_collapsed>
1

$$$$
CHEMBL2695_lig2150
                    3D
 Schrodinger Suite 2021-1.
 57 60  0  0  1  0            999 V2000
   12.4878   -2.2868    0.2086 O   0  5  0  0  0  0
    7.5195    4.3636   11.1794 O   0  0  0  0  0  0
   11.4840    3.4373    6.0353 N   0  0  0  0  0  0
    9.4514    4.4803    6.6997 N   0  0  0  0  0  0
    7.3832    3.4902    6.2346 N   0  0  0  0  0  0
   12.8255    3.6476    6.0624 N   0  0  0  0  0  0
   11.5817    1.3471    4.8812 N   0  0  0  0  0  0
   12.8031   -1.4635    1.1088 N   0  3  0  0  0  0
   10.7847    4.4857    6.6411 C   0  0  0  0  0  0
   10.8277    2.3682    5.4734 C   0  0  0  0  0  0
    8.7756    3.4356    6.1459 C   0  0  0  0  0  0
   11.7717    5.3972    7.1025 C   0  0  0  0  0  0
    9.4339    2.3768    5.5081 C   0  0  0  0  0  0
   12.9683    4.7826    6.7095 C   0  0  0  0  0  0
    6.6359    3.6568    7.5164 C   0  0  2  0  0  0
   11.5336    6.7029    7.8429 C   0  0  0  0  0  0
    6.5451    2.7952    5.2396 C   0  0  0  0  0  0
   11.0637    0.4468    3.8615 C   0  0  0  0  0  0
    5.3039    4.4344    7.3001 C   0  0  0  0  0  0
    7.4186    4.1444    8.7695 C   0  0  0  0  0  0
   12.1671   -0.0371    2.9091 C   0  0  0  0  0  0
    5.2847    3.6148    4.9102 C   0  0  0  0  0  0
    4.4431    3.8753    6.1573 C   0  0  0  0  0  0
   12.8160    7.3508    8.3904 C   0  0  0  0  0  0
   11.8398   -0.9585    1.9062 C   0  0  0  0  0  0
   13.5126    0.3649    3.0176 C   0  0  0  0  0  0
    6.6509    4.0757   10.1037 C   0  0  0  0  0  0
   14.4854   -0.1878    2.1902 C   0  0  0  0  0  0
   14.1030   -1.1227    1.2284 C   0  0  0  0  0  0
    7.0051    4.3541   11.9925 H   0  0  0  0  0  0
   12.5829    1.4497    4.9429 H   0  0  0  0  0  0
    8.8748    1.5574    5.0863 H   0  0  0  0  0  0
   13.9563    5.1708    6.9079 H   0  0  0  0  0  0
    6.3787    2.6255    7.7696 H   0  0  0  0  0  0
   11.0392    7.4138    7.1831 H   0  0  0  0  0  0
   10.8490    6.5366    8.6748 H   0  0  0  0  0  0
    7.0976    2.6603    4.3098 H   0  0  0  0  0  0
    6.2914    1.7980    5.6067 H   0  0  0  0  0  0
   10.2691    0.9242    3.2842 H   0  0  0  0  0  0
   10.6376   -0.4288    4.3478 H   0  0  0  0  0  0
    5.5220    5.4849    7.1084 H   0  0  0  0  0  0
    4.6884    4.3916    8.1978 H   0  0  0  0  0  0
    8.3038    3.5168    8.8835 H   0  0  0  0  0  0
    7.7753    5.1620    8.6118 H   0  0  0  0  0  0
    5.5659    4.5543    4.4290 H   0  0  0  0  0  0
    4.6873    3.0733    4.1769 H   0  0  0  0  0  0
    3.6259    4.5589    5.9254 H   0  0  0  0  0  0
    3.9814    2.9407    6.4779 H   0  0  0  0  0  0
   12.5972    8.2947    8.8917 H   0  0  0  0  0  0
   13.3167    6.6988    9.1074 H   0  0  0  0  0  0
   13.5231    7.5627    7.5892 H   0  0  0  0  0  0
   10.8408   -1.3319    1.7266 H   0  0  0  0  0  0
   13.8381    1.0778    3.7647 H   0  0  0  0  0  0
    5.8051    4.7600   10.1087 H   0  0  0  0  0  0
    6.2192    3.0835   10.2411 H   0  0  0  0  0  0
   15.5215    0.0870    2.3091 H   0  0  0  0  0  0
   14.7936   -1.6162    0.5626 H   0  0  0  0  0  0
  1  8  1  0  0  0
  2 27  1  0  0  0
  2 30  1  0  0  0
  3  6  1  0  0  0
  3  9  1  0  0  0
  3 10  1  0  0  0
  4  9  1  0  0  0
  4 11  2  0  0  0
  5 11  1  0  0  0
  5 15  1  0  0  0
  5 17  1  0  0  0
  6 14  2  0  0  0
  7 10  1  0  0  0
  7 18  1  0  0  0
  7 31  1  0  0  0
  8 25  2  0  0  0
  8 29  1  0  0  0
  9 12  2  0  0  0
 10 13  2  0  0  0
 11 13  1  0  0  0
 12 14  1  0  0  0
 12 16  1  0  0  0
 13 32  1  0  0  0
 14 33  1  0  0  0
 15 19  1  0  0  0
 15 20  1  0  0  0
 15 34  1  0  0  0
 16 24  1  0  0  0
 16 35  1  0  0  0
 16 36  1  0  0  0
 17 22  1  0  0  0
 17 37  1  0  0  0
 17 38  1  0  0  0
 18 21  1  0  0  0
 18 39  1  0  0  0
 18 40  1  0  0  0
 19 23  1  0  0  0
 19 41  1  0  0  0
 19 42  1  0  0  0
 20 27  1  0  0  0
 20 43  1  0  0  0
 20 44  1  0  0  0
 21 25  1  0  0  0
 21 26  2  0  0  0
 22 23  1  0  0  0
 22 45  1  0  0  0
 22 46  1  0  0  0
 23 47  1  0  0  0
 23 48  1  0  0  0
 24 49  1  0  0  0
 24 50  1  0  0  0
 24 51  1  0  0  0
 25 52  1  0  0  0
 26 28  1  0  0  0
 26 53  1  0  0  0
 27 54  1  0  0  0
 27 55  1  0  0  0
 28 29  2  0  0  0
 28 56  1  0  0  0
 29 57  1  0  0  0
M  CHG  2   1  -1   8   1
M  END
> <s_m_entry_id>
47531

> <s_m_entry_name>
dock_pv.64

> <s_m_Source_Path>
/home/csk/Desktop/cluster/DUD-E-result/fak1

> <s_m_Source_File>
dock_pv.maegz

> <i_m_Source_File_Index>
64

> <chembl_id>
CHEMBL2006674

> <chembl_pref_name>
None

> <i_lp_mmshare_version>
53161

> <i_f3d_flags>
0

> <r_lp_tautomer_probability>
1

> <s_lp_Force_Field>
OPLS_2005

> <r_lp_Energy>
29.439254

> <b_lp_Chiralities_Consistent>
1

> <s_lp_Variant>
CHEMBL2695_lig2150-1

> <s_i_glide_gridfile>
glide-grid_3bz3

> <i_i_glide_lignum>
2607

> <i_i_glide_rotatable_bonds>
8

> <r_i_docking_score>
-8.56564718037535

> <r_i_glide_ligand_efficiency>
-0.295367144150874

> <r_i_glide_ligand_efficiency_sa>
-0.907461445710943

> <r_i_glide_ligand_efficiency_ln>
-1.96131599823451

> <r_i_glide_gscore>
-8.56564718037535

> <r_i_glide_lipo>
-3.58910254186869

> <r_i_glide_hbond>
-0.351667906200954

> <r_i_glide_metal>
0

> <r_i_glide_rewards>
-1.46083304671218

> <r_i_glide_evdw>
-46.5532875061035

> <r_i_glide_ecoul>
-10.401725769043

> <r_i_glide_erotb>
0.746762381005823

> <r_i_glide_esite>
-0.0228828259377174

> <r_i_glide_emodel>
-80.6451368538574

> <r_i_glide_energy>
-56.9550132751465

> <r_i_glide_einternal>
7.25401735305786

> <i_i_glide_confnum>
25

> <i_i_glide_posenum>
136

> <r_i_glide_eff_state_penalty>
0

> <s_user_duplicate_titles>
CHEMBL2695_lig2150

> <s_m_subgroup_title>
dock_pv

> <s_m_subgroupid>
dock_pv

> <b_m_subgroup_collapsed>
1

$$$$
CHEMBL2695_lig1580
                    3D
 Schrodinger Suite 2021-1.
 26 27  0  0  1  0            999 V2000
   11.3463    6.0958    7.7673 S   0  0  0  0  0  0
   14.3220    3.9461    6.6872 O   0  0  0  0  0  0
   13.1220    7.5699    9.1090 O   0  0  0  0  0  0
    6.7630    3.6700    7.9598 O   0  0  0  0  0  0
    6.1008    1.9630    5.8965 O   0  0  0  0  0  0
   13.8579    5.8086    7.8563 N   0  0  0  0  0  0
   12.0707    4.7030    6.9585 C   0  0  0  0  0  0
   13.5095    4.7630    7.1090 C   0  0  0  0  0  0
   10.0503    3.3015    6.2189 C   0  0  0  0  0  0
   11.4868    3.6488    6.3347 C   0  0  0  0  0  0
   12.9397    6.6231    8.3613 C   0  0  0  0  0  0
    7.7438    3.2997    7.0554 C   0  0  0  0  0  0
    9.0802    3.7285    7.1385 C   0  0  0  0  0  0
    7.3837    2.4329    6.0152 C   0  0  0  0  0  0
    9.6570    2.4368    5.1935 C   0  0  0  0  0  0
    8.3389    1.9980    5.1014 C   0  0  0  0  0  0
    7.1438    4.2032    9.2234 C   0  0  0  0  0  0
    6.0724    1.0718    5.5090 H   0  0  0  0  0  0
   14.8415    5.9652    8.0578 H   0  0  0  0  0  0
   12.1396    2.9095    5.8869 H   0  0  0  0  0  0
    9.3711    4.3569    7.9600 H   0  0  0  0  0  0
   10.3733    2.0773    4.4685 H   0  0  0  0  0  0
    8.0572    1.3184    4.3090 H   0  0  0  0  0  0
    6.2524    4.3630    9.8308 H   0  0  0  0  0  0
    7.7949    3.5153    9.7653 H   0  0  0  0  0  0
    7.6480    5.1630    9.1223 H   0  0  0  0  0  0
  1  7  1  0  0  0
  1 11  1  0  0  0
  2  8  2  0  0  0
  3 11  2  0  0  0
  4 12  1  0  0  0
  4 17  1  0  0  0
  5 14  1  0  0  0
  5 18  1  0  0  0
  6  8  1  0  0  0
  6 11  1  0  0  0
  6 19  1  0  0  0
  7  8  1  0  0  0
  7 10  2  3  0  0
  9 10  1  0  0  0
  9 13  1  0  0  0
  9 15  2  0  0  0
 10 20  1  0  0  0
 12 13  2  0  0  0
 12 14  1  0  0  0
 13 21  1  0  0  0
 14 16  2  0  0  0
 15 16  1  0  0  0
 15 22  1  0  0  0
 16 23  1  0  0  0
 17 24  1  0  0  0
 17 25  1  0  0  0
 17 26  1  0  0  0
M  END
> <s_m_entry_id>
47532

> <s_m_entry_name>
dock_pv.65

> <s_m_Source_Path>
/home/csk/Desktop/cluster/DUD-E-result/fak1

> <s_m_Source_File>
dock_pv.maegz

> <i_m_Source_File_Index>
65

> <chembl_id>
CHEMBL2003286

> <chembl_pref_name>
None

> <i_lp_mmshare_version>
53161

> <i_f3d_flags>
0

> <r_lp_tautomer_probability>
1

> <s_lp_Force_Field>
OPLS_2005

> <r_lp_Energy>
16.145588

> <b_lp_Chiralities_Consistent>
1

> <s_lp_Variant>
CHEMBL2695_lig1580-2

> <s_i_glide_gridfile>
glide-grid_3bz3

> <i_i_glide_lignum>
1744

> <i_i_glide_rotatable_bonds>
3

> <r_i_docking_score>
-8.56007058416917

> <r_i_glide_ligand_efficiency>
-0.503533563774657

> <r_i_glide_ligand_efficiency_sa>
-1.29472658158957

> <r_i_glide_ligand_efficiency_ln>
-2.23313179201007

> <r_i_glide_gscore>
-8.56007058416917

> <r_i_glide_lipo>
-1.61978193094737

> <r_i_glide_hbond>
-0.576

> <r_i_glide_metal>
0

> <r_i_glide_rewards>
-3.48262489393939

> <r_i_glide_evdw>
-29.6345615386963

> <r_i_glide_ecoul>
-10.6283597946167

> <r_i_glide_erotb>
0.19431828684491

> <r_i_glide_esite>
0

> <r_i_glide_emodel>
-59.5675691614567

> <r_i_glide_energy>
-40.262921333313

> <r_i_glide_einternal>
1.71500825881958

> <i_i_glide_confnum>
1

> <i_i_glide_posenum>
156

> <r_i_glide_eff_state_penalty>
0

> <s_user_duplicate_titles>
CHEMBL2695_lig1580

> <s_m_subgroup_title>
dock_pv

> <s_m_subgroupid>
dock_pv

> <b_m_subgroup_collapsed>
1

$$$$
CHEMBL2695_lig2023
                    3D
 Schrodinger Suite 2021-1.
 49 53  0  0  1  0            999 V2000
    4.0376    2.0076    4.3208 S   0  0  0  0  0  0
    3.9221    0.6666    3.7405 O   0  0  0  0  0  0
    3.5256    3.1629    3.5779 O   0  0  0  0  0  0
   11.1316    3.3280    5.9485 N   0  0  0  0  0  0
    9.7267    1.8162    5.1073 N   0  0  0  0  0  0
    5.7335    2.2881    4.7092 N   0  0  1  0  0  0
   13.9214    3.3635    6.3090 N   0  0  0  0  0  0
   13.5402    5.5091    7.3899 N   0  0  0  0  0  0
    9.8128    3.0236    5.6401 C   0  0  0  0  0  0
    8.5847    3.9011    5.9080 C   0  0  2  0  0  0
   11.7470    4.4569    6.5564 C   0  0  0  0  0  0
   11.8889    2.2245    5.5324 C   0  0  0  0  0  0
   13.1480    4.3752    6.7089 C   0  0  0  0  0  0
    7.7344    3.4026    7.1020 C   0  0  2  0  0  0
    6.2020    3.6085    5.1955 C   0  0  2  0  0  0
    7.6111    3.9885    4.7091 C   0  0  0  0  0  0
   10.9391    1.3215    5.0079 C   0  0  0  0  0  0
    3.2163    1.9636    6.0254 C   0  0  0  0  0  0
   13.2805    2.3123    5.7219 C   0  0  0  0  0  0
    6.2833    3.7404    6.7196 C   0  0  0  0  0  0
   11.3097    5.7069    7.1032 C   0  0  0  0  0  0
    2.7189    3.2645    6.6017 C   0  0  0  0  0  0
    1.7350    2.2122    6.0911 C   0  0  0  0  0  0
   12.4445    6.3131    7.6160 C   0  0  0  0  0  0
    8.1772    4.0057    8.4539 C   0  0  0  0  0  0
    7.4209    3.4401    9.6664 C   0  0  0  0  0  0
    6.2613    1.4566    5.0057 H   0  0  0  0  0  0
   14.4801    5.7565    7.6758 H   0  0  0  0  0  0
    8.9042    4.9187    6.1151 H   0  0  0  0  0  0
    7.8126    2.3143    7.1681 H   0  0  0  0  0  0
    5.4941    4.3488    4.8164 H   0  0  0  0  0  0
    7.9226    3.3177    3.9087 H   0  0  0  0  0  0
    7.6168    4.9946    4.2871 H   0  0  0  0  0  0
   11.1080    0.3484    4.5735 H   0  0  0  0  0  0
    3.6804    1.2143    6.6684 H   0  0  0  0  0  0
   13.9215    1.5116    5.3884 H   0  0  0  0  0  0
    6.0346    4.7597    7.0201 H   0  0  0  0  0  0
    5.5786    3.0796    7.2249 H   0  0  0  0  0  0
   10.3217    6.1220    7.1500 H   0  0  0  0  0  0
    2.8597    4.1825    6.0264 H   0  0  0  0  0  0
    2.8224    3.4300    7.6752 H   0  0  0  0  0  0
    1.1441    1.6378    6.8069 H   0  0  0  0  0  0
    1.1947    2.3983    5.1597 H   0  0  0  0  0  0
   12.5713    7.2564    8.1270 H   0  0  0  0  0  0
    9.2429    3.8265    8.5886 H   0  0  0  0  0  0
    8.0624    5.0899    8.4338 H   0  0  0  0  0  0
    7.8024    3.8602   10.5979 H   0  0  0  0  0  0
    6.3572    3.6769    9.6143 H   0  0  0  0  0  0
    7.5222    2.3558    9.7293 H   0  0  0  0  0  0
  1  2  2  0  0  0
  1  3  2  0  0  0
  1  6  1  0  0  0
  1 18  1  0  0  0
  4  9  1  0  0  0
  4 11  1  0  0  0
  4 12  1  0  0  0
  5  9  2  0  0  0
  5 17  1  0  0  0
  6 15  1  0  0  0
  6 27  1  0  0  0
  7 13  1  0  0  0
  7 19  2  0  0  0
  8 13  1  0  0  0
  8 24  1  0  0  0
  8 28  1  0  0  0
  9 10  1  0  0  0
 10 14  1  0  0  0
 10 16  1  0  0  0
 10 29  1  0  0  0
 11 13  2  0  0  0
 11 21  1  0  0  0
 12 17  2  0  0  0
 12 19  1  0  0  0
 14 20  1  0  0  0
 14 25  1  0  0  0
 14 30  1  0  0  0
 15 16  1  0  0  0
 15 20  1  0  0  0
 15 31  1  0  0  0
 16 32  1  0  0  0
 16 33  1  0  0  0
 17 34  1  0  0  0
 18 22  1  0  0  0
 18 23  1  0  0  0
 18 35  1  0  0  0
 19 36  1  0  0  0
 20 37  1  0  0  0
 20 38  1  0  0  0
 21 24  2  0  0  0
 21 39  1  0  0  0
 22 23  1  0  0  0
 22 40  1  0  0  0
 22 41  1  0  0  0
 23 42  1  0  0  0
 23 43  1  0  0  0
 24 44  1  0  0  0
 25 26  1  0  0  0
 25 45  1  0  0  0
 25 46  1  0  0  0
 26 47  1  0  0  0
 26 48  1  0  0  0
 26 49  1  0  0  0
M  END
> <s_m_entry_id>
47533

> <s_m_entry_name>
dock_pv.66

> <s_m_Source_Path>
/home/csk/Desktop/cluster/DUD-E-result/fak1

> <s_m_Source_File>
dock_pv.maegz

> <i_m_Source_File_Index>
66

> <chembl_id>
CHEMBL1992073

> <chembl_pref_name>
None

> <i_lp_mmshare_version>
53161

> <i_f3d_flags>
0

> <r_lp_tautomer_probability>
1

> <s_lp_Force_Field>
OPLS_2005

> <r_lp_Energy>
58.949005

> <b_lp_Chiralities_Consistent>
1

> <s_lp_Variant>
CHEMBL2695_lig2023-1

> <s_i_glide_gridfile>
glide-grid_3bz3

> <i_i_glide_lignum>
2391

> <i_i_glide_rotatable_bonds>
5

> <r_i_docking_score>
-8.52668811196468

> <r_i_glide_ligand_efficiency>
-0.327949542767872

> <r_i_glide_ligand_efficiency_sa>
-0.971549230030683

> <r_i_glide_ligand_efficiency_ln>
-2.00246472474919

> <r_i_glide_gscore>
-8.52668811196468

> <r_i_glide_lipo>
-2.70271094356124

> <r_i_glide_hbond>
-0.469391537162881

> <r_i_glide_metal>
0

> <r_i_glide_rewards>
-2.58703403223306

> <r_i_glide_evdw>
-36.7797660827637

> <r_i_glide_ecoul>
-7.55981016159058

> <r_i_glide_erotb>
0.387943612504603

> <r_i_glide_esite>
-0.182535383135329

> <r_i_glide_emodel>
-65.4000146975763

> <r_i_glide_energy>
-44.3395762443542

> <r_i_glide_einternal>
1.35068130493164

> <i_i_glide_confnum>
82

> <i_i_glide_posenum>
40

> <r_i_glide_eff_state_penalty>
0

> <s_user_duplicate_titles>
CHEMBL2695_lig2023

> <s_m_subgroup_title>
dock_pv

> <s_m_subgroupid>
dock_pv

> <b_m_subgroup_collapsed>
1

$$$$
CHEMBL2695_lig1453 
                    3D
 Schrodinger Suite 2021-1.
 66 70  0  0  1  0            999 V2000
   13.7954    4.3769    6.7434 N   0  0  0  0  0  0
   12.8677    3.5812    6.1652 C   0  0  0  0  0  0
   11.5220    3.7408    6.2463 N   0  0  0  0  0  0
   11.0346    4.6831    7.0890 C   0  0  0  0  0  0
   11.8855    5.5626    7.7506 C   0  0  0  0  0  0
   13.2588    5.3425    7.5089 C   0  0  0  0  0  0
   13.9217    6.2768    8.2563 N   0  0  0  0  0  0
   13.0439    7.0908    8.9245 C   0  0  0  0  0  0
   11.7620    6.6604    8.6670 C   0  0  0  0  0  0
    9.6806    4.6611    7.4164 N   0  0  0  0  0  0
    8.5623    4.3411    6.6463 C   0  0  0  0  0  0
    8.6238    4.5475    5.2715 C   0  0  0  0  0  0
    7.4650    4.5295    4.5193 C   0  0  0  0  0  0
    6.2399    4.2198    5.1086 C   0  0  0  0  0  0
    6.1865    3.9091    6.4627 C   0  0  0  0  0  0
    7.3462    3.9699    7.2456 C   0  0  0  0  0  0
    7.2907    3.3823    8.9666 P   0  0  0  0  0  0
    5.6278    3.6986    9.6429 C   0  0  0  0  0  0
    8.3759    3.9143    9.8357 O   0  0  0  0  0  0
    7.3138    1.5795    8.7079 C   0  0  0  0  0  0
   13.3937    2.4628    5.5062 N   0  0  0  0  0  0
   12.7750    1.4867    4.7005 C   0  0  0  0  0  0
   11.4191    1.1635    4.8207 C   0  0  0  0  0  0
   10.8046    0.3089    3.9155 C   0  0  0  0  0  0
   11.5342   -0.3012    2.8884 C   0  0  0  0  0  0
   12.9053   -0.0304    2.7745 C   0  0  0  0  0  0
   13.5129    0.8667    3.6662 C   0  0  0  0  0  0
   10.8545   -1.2739    1.9582 C   0  0  0  0  0  0
    9.5423   -1.0539    1.7592 N   0  0  0  0  0  0
    8.5301   -2.0241    1.3441 C   0  0  2  0  0  0
    8.7815   -2.7450    0.0017 C   0  0  0  0  0  0
    7.5936   -3.6288   -0.3815 C   0  0  0  0  0  0
    6.2814   -2.8339   -0.3988 C   0  0  0  0  0  0
    6.0096   -2.2761    0.9233 N   0  0  1  0  0  0
    7.0851   -1.4663    1.5024 C   0  0  0  0  0  0
   11.4802   -2.2078    1.4591 O   0  0  0  0  0  0
   14.9360    6.3674    8.3037 H   0  0  0  0  0  0
   13.4099    7.8878    9.5546 H   0  0  0  0  0  0
   10.8574    7.0818    9.0772 H   0  0  0  0  0  0
    9.4619    4.9481    8.3626 H   0  0  0  0  0  0
    9.5590    4.7728    4.7877 H   0  0  0  0  0  0
    7.5220    4.7630    3.4692 H   0  0  0  0  0  0
    5.3420    4.1870    4.5111 H   0  0  0  0  0  0
    5.2409    3.6029    6.8829 H   0  0  0  0  0  0
    4.8240    3.3383    9.0014 H   0  0  0  0  0  0
    5.5219    3.2087   10.6093 H   0  0  0  0  0  0
    5.5109    4.7624    9.8017 H   0  0  0  0  0  0
    6.3114    1.1931    8.5324 H   0  0  0  0  0  0
    7.9219    1.3064    7.8478 H   0  0  0  0  0  0
    7.7303    1.0859    9.5887 H   0  0  0  0  0  0
   14.3996    2.4323    5.5072 H   0  0  0  0  0  0
   10.8007    1.5636    5.6112 H   0  0  0  0  0  0
    9.7548    0.1075    4.0490 H   0  0  0  0  0  0
   13.5017   -0.4938    2.0030 H   0  0  0  0  0  0
   14.5624    1.0918    3.5534 H   0  0  0  0  0  0
    9.1695   -0.1966    2.1475 H   0  0  0  0  0  0
    8.5908   -2.7758    2.1330 H   0  0  0  0  0  0
    9.6768   -3.3621    0.0429 H   0  0  0  0  0  0
    8.9149   -2.0035   -0.7875 H   0  0  0  0  0  0
    7.5013   -4.4669    0.3104 H   0  0  0  0  0  0
    7.7674   -4.0781   -1.3562 H   0  0  0  0  0  0
    5.4451   -3.4658   -0.7104 H   0  0  0  0  0  0
    6.3442   -2.0072   -1.1084 H   0  0  0  0  0  0
    5.1267   -1.7864    0.9572 H   0  0  0  0  0  0
    7.0273   -0.4728    1.0556 H   0  0  0  0  0  0
    6.8600   -1.3260    2.5594 H   0  0  0  0  0  0
  1  2  2  0  0  0
  1  6  1  0  0  0
  2  3  1  0  0  0
  2 21  1  0  0  0
  3  4  2  0  0  0
  4  5  1  0  0  0
  4 10  1  0  0  0
  5  6  2  0  0  0
  5  9  1  0  0  0
  6  7  1  0  0  0
  7  8  1  0  0  0
  7 37  1  0  0  0
  8  9  2  0  0  0
  8 38  1  0  0  0
  9 39  1  0  0  0
 10 11  1  0  0  0
 10 40  1  0  0  0
 11 12  2  0  0  0
 11 16  1  0  0  0
 12 13  1  0  0  0
 12 41  1  0  0  0
 13 14  2  0  0  0
 13 42  1  0  0  0
 14 15  1  0  0  0
 14 43  1  0  0  0
 15 16  2  0  0  0
 15 44  1  0  0  0
 16 17  1  0  0  0
 17 18  1  0  0  0
 17 19  2  0  0  0
 17 20  1  0  0  0
 18 45  1  0  0  0
 18 46  1  0  0  0
 18 47  1  0  0  0
 20 48  1  0  0  0
 20 49  1  0  0  0
 20 50  1  0  0  0
 21 22  1  0  0  0
 21 51  1  0  0  0
 22 23  2  0  0  0
 22 27  1  0  0  0
 23 24  1  0  0  0
 23 52  1  0  0  0
 24 25  2  0  0  0
 24 53  1  0  0  0
 25 26  1  0  0  0
 25 28  1  0  0  0
 26 27  2  0  0  0
 26 54  1  0  0  0
 27 55  1  0  0  0
 28 29  1  0  0  0
 28 36  2  0  0  0
 29 30  1  0  0  0
 29 56  1  0  0  0
 30 31  1  0  0  0
 30 35  1  0  0  0
 30 57  1  0  0  0
 31 32  1  0  0  0
 31 58  1  0  0  0
 31 59  1  0  0  0
 32 33  1  0  0  0
 32 60  1  0  0  0
 32 61  1  0  0  0
 33 34  1  0  0  0
 33 62  1  0  0  0
 33 63  1  0  0  0
 34 35  1  0  0  0
 34 64  1  0  0  0
 35 65  1  0  0  0
 35 66  1  0  0  0
M  END
> <s_m_entry_id>
47534

> <s_m_entry_name>
dock_pv.67

> <s_m_Source_Path>
/home/csk/Desktop/cluster/DUD-E-result/fak1

> <s_m_Source_File>
dock_pv.maegz

> <i_m_Source_File_Index>
67

> <chembl_id>
CHEMBL4581127

> <chembl_pref_name>
None

> <i_lp_mmshare_version>
53161

> <i_f3d_flags>
0

> <r_lp_tautomer_probability>
1

> <s_lp_Force_Field>
OPLS_2005

> <r_lp_Energy>
26.463618

> <b_lp_Chiralities_Consistent>
1

> <s_lp_Variant>
CHEMBL2695_lig1453 -1

> <s_i_glide_gridfile>
glide-grid_3bz3

> <i_i_glide_lignum>
1588

> <i_i_glide_rotatable_bonds>
8

> <r_i_docking_score>
-8.51268289336563

> <r_i_glide_ligand_efficiency>
-0.236463413704601

> <r_i_glide_ligand_efficiency_sa>
-0.780784988145212

> <r_i_glide_ligand_efficiency_ln>
-1.85723742121877

> <r_i_glide_gscore>
-8.51268289336563

> <r_i_glide_lipo>
-3.34637620331772

> <r_i_glide_hbond>
-0.484213616048755

> <r_i_glide_metal>
0

> <r_i_glide_rewards>
-1.45930351503565

> <r_i_glide_evdw>
-42.4806365966797

> <r_i_glide_ecoul>
-10.7414464950562

> <r_i_glide_erotb>
0.564326753928376

> <r_i_glide_esite>
-0.0518675087994826

> <r_i_glide_emodel>
-68.6267481525574

> <r_i_glide_energy>
-53.2220830917358

> <r_i_glide_einternal>
16.3461933135986

> <i_i_glide_confnum>
10

> <i_i_glide_posenum>
368

> <r_i_glide_eff_state_penalty>
0

> <s_user_duplicate_titles>
CHEMBL2695_lig1453 

> <s_m_subgroup_title>
dock_pv

> <s_m_subgroupid>
dock_pv

> <b_m_subgroup_collapsed>
1

$$$$
CHEMBL2695_lig1568
                    3D
 Schrodinger Suite 2021-1.
 57 61  0  0  1  0            999 V2000
   12.2011    7.0653    8.7143 Cl  0  0  0  0  0  0
   10.3801    5.3814    6.9522 N   0  0  0  0  0  0
   12.1001    3.9505    6.1803 N   0  0  0  0  0  0
   11.3032   -0.9332    1.8732 N   0  0  0  0  0  0
   13.7979    2.3725    5.6241 N   0  0  0  0  0  0
   14.3220    4.0862    7.1087 N   0  0  0  0  0  0
    6.0707    2.3635    8.7170 N   0  0  0  0  0  0
    5.9221    2.9802    9.9031 N   0  0  0  0  0  0
    9.7163   -3.3779    1.4968 N   0  0  0  0  0  0
   11.7306    5.0279    6.9179 C   0  0  0  0  0  0
    7.6796    4.0033    9.0345 C   0  0  0  0  0  0
    9.3484    4.5305    7.3733 C   0  0  0  0  0  0
    7.1584    2.9889    8.1739 C   0  0  0  0  0  0
   13.3846    3.5196    6.3088 C   0  0  0  0  0  0
   12.6353    5.6908    7.7576 C   0  0  0  0  0  0
    8.7814    4.7630    8.6286 C   0  0  0  0  0  0
   11.8882   -0.1002    2.8196 C   0  0  0  0  0  0
   13.1222    1.5628    4.7087 C   0  0  0  0  0  0
    8.8531    3.5229    6.5444 C   0  0  0  0  0  0
    7.7591    2.7415    6.9267 C   0  0  0  0  0  0
    6.8387    3.9637   10.1751 C   0  0  0  0  0  0
   13.9220    5.1629    7.8334 C   0  0  0  0  0  0
   11.1579    0.3957    3.9090 C   0  0  0  0  0  0
   13.2400    0.2395    2.6942 C   0  0  0  0  0  0
   11.7745    1.2085    4.8568 C   0  0  0  0  0  0
   13.8527    1.0667    3.6287 C   0  0  0  0  0  0
   11.9044   -2.2139    1.4616 C   0  0  0  0  0  0
    9.8713   -0.9200    1.5323 C   0  0  0  0  0  0
   11.1074   -3.4445    1.9642 C   0  0  0  0  0  0
    9.1142   -2.1624    2.0523 C   0  0  0  0  0  0
    8.9270   -4.5476    1.8943 C   0  0  0  0  0  0
    9.3449   -5.8102    1.1200 C   0  0  0  0  0  0
   10.3009    6.2735    7.4145 H   0  0  0  0  0  0
   14.7511    2.0860    5.7971 H   0  0  0  0  0  0
    5.1820    2.7160   10.5434 H   0  0  0  0  0  0
    9.1633    5.5457    9.2660 H   0  0  0  0  0  0
    9.3030    3.3608    5.5751 H   0  0  0  0  0  0
    7.3737    1.9747    6.2683 H   0  0  0  0  0  0
    6.7897    4.5147   11.1028 H   0  0  0  0  0  0
   14.6484    5.5641    8.5238 H   0  0  0  0  0  0
   10.1158    0.1416    4.0374 H   0  0  0  0  0  0
   13.8205   -0.1346    1.8649 H   0  0  0  0  0  0
   11.2020    1.5612    5.7016 H   0  0  0  0  0  0
   14.9013    1.3026    3.5222 H   0  0  0  0  0  0
   11.9928   -2.2322    0.3749 H   0  0  0  0  0  0
   12.9197   -2.2953    1.8506 H   0  0  0  0  0  0
    9.7631   -0.8281    0.4508 H   0  0  0  0  0  0
    9.3968   -0.0371    1.9499 H   0  0  0  0  0  0
   11.1456   -3.5059    3.0539 H   0  0  0  0  0  0
   11.5896   -4.3458    1.5855 H   0  0  0  0  0  0
    8.0674   -2.0935    1.7509 H   0  0  0  0  0  0
    9.1226   -2.1858    3.1438 H   0  0  0  0  0  0
    7.8774   -4.3515    1.6648 H   0  0  0  0  0  0
    8.9841   -4.7106    2.9718 H   0  0  0  0  0  0
    8.6191   -6.6100    1.2608 H   0  0  0  0  0  0
   10.3169   -6.1858    1.4393 H   0  0  0  0  0  0
    9.3949   -5.6136    0.0488 H   0  0  0  0  0  0
  1 15  1  0  0  0
  2 12  1  0  0  0
  2 10  1  0  0  0
  2 33  1  0  0  0
  3 10  2  0  0  0
  3 14  1  0  0  0
  4 17  1  0  0  0
  4 27  1  0  0  0
  4 28  1  0  0  0
  5 14  1  0  0  0
  5 18  1  0  0  0
  5 34  1  0  0  0
  6 14  2  0  0  0
  6 22  1  0  0  0
  7  8  1  0  0  0
  7 13  2  0  0  0
  8 21  1  0  0  0
  8 35  1  0  0  0
  9 29  1  0  0  0
  9 30  1  0  0  0
  9 31  1  0  0  0
 10 15  1  0  0  0
 11 16  1  0  0  0
 11 21  2  0  0  0
 11 13  1  0  0  0
 12 16  2  0  0  0
 12 19  1  0  0  0
 13 20  1  0  0  0
 15 22  2  0  0  0
 16 36  1  0  0  0
 17 23  2  0  0  0
 17 24  1  0  0  0
 18 25  2  0  0  0
 18 26  1  0  0  0
 19 20  2  0  0  0
 19 37  1  0  0  0
 20 38  1  0  0  0
 21 39  1  0  0  0
 22 40  1  0  0  0
 23 25  1  0  0  0
 23 41  1  0  0  0
 24 26  2  0  0  0
 24 42  1  0  0  0
 25 43  1  0  0  0
 26 44  1  0  0  0
 27 29  1  0  0  0
 27 45  1  0  0  0
 27 46  1  0  0  0
 28 30  1  0  0  0
 28 47  1  0  0  0
 28 48  1  0  0  0
 29 49  1  0  0  0
 29 50  1  0  0  0
 30 51  1  0  0  0
 30 52  1  0  0  0
 31 32  1  0  0  0
 31 53  1  0  0  0
 31 54  1  0  0  0
 32 55  1  0  0  0
 32 56  1  0  0  0
 32 57  1  0  0  0
M  END
> <s_m_entry_id>
47535

> <s_m_entry_name>
dock_pv.68

> <s_m_Source_Path>
/home/csk/Desktop/cluster/DUD-E-result/fak1

> <s_m_Source_File>
dock_pv.maegz

> <i_m_Source_File_Index>
68

> <chembl_id>
CHEMBL1967998

> <chembl_pref_name>
None

> <i_lp_mmshare_version>
53161

> <i_f3d_flags>
0

> <r_lp_tautomer_probability>
0.01682948890584

> <s_lp_Force_Field>
OPLS_2005

> <r_lp_Energy>
55.240439

> <b_lp_Chiralities_Consistent>
1

> <s_lp_Variant>
CHEMBL2695_lig1568-2

> <s_i_glide_gridfile>
glide-grid_3bz3

> <i_i_glide_lignum>
1729

> <i_i_glide_rotatable_bonds>
6

> <r_i_docking_score>
-8.50044530353783

> <r_i_glide_ligand_efficiency>
-0.265638915735557

> <r_i_glide_ligand_efficiency_sa>
-0.843350987590353

> <r_i_glide_ligand_efficiency_ln>
-1.90348141684971

> <r_i_glide_gscore>
-8.50044530353783

> <r_i_glide_lipo>
-3.22635544929223

> <r_i_glide_hbond>
-0.79272816100554

> <r_i_glide_metal>
0

> <r_i_glide_rewards>
-1.65249883189409

> <r_i_glide_evdw>
-44.7106056213379

> <r_i_glide_ecoul>
-7.26924514770508

> <r_i_glide_erotb>
0.497054191876691

> <r_i_glide_esite>
0

> <r_i_glide_emodel>
-71.8065635512769

> <r_i_glide_energy>
-51.979850769043

> <r_i_glide_einternal>
12.3271541595459

> <i_i_glide_confnum>
1

> <i_i_glide_posenum>
261

> <r_i_glide_eff_state_penalty>
0

> <s_user_duplicate_titles>
CHEMBL2695_lig1568,CHEMBL2695_lig1568

> <s_m_subgroup_title>
dock_pv

> <s_m_subgroupid>
dock_pv

> <b_m_subgroup_collapsed>
1

$$$$
CHEMBL2695_lig1950
                    3D
 Schrodinger Suite 2021-1.
 30 31  0  0  1  0            999 V2000
    8.4182    5.1595   10.3090 O   0  0  0  0  0  0
    5.9220    3.9632   10.3949 O   0  0  0  0  0  0
   11.5825    7.9336    7.7355 O   0  0  0  0  0  0
   14.7211    4.3630    7.4645 O   0  0  0  0  0  0
   11.3317    4.6614    6.0820 C   0  0  0  0  0  0
    8.3328    3.5627    6.9937 C   0  0  0  0  0  0
    7.9727    4.4106    9.2495 C   0  0  0  0  0  0
    6.7087    3.8213    9.2827 C   0  0  0  0  0  0
    8.7812    4.2569    8.1268 C   0  0  0  0  0  0
   11.9178    6.6859    7.2892 C   0  0  0  0  0  0
   13.5112    4.8903    7.1111 C   0  0  0  0  0  0
   12.6199    4.1684    6.3116 C   0  0  0  0  0  0
   11.0134    5.9466    6.5321 C   0  0  0  0  0  0
   10.3503    3.8205    5.3715 C   0  0  0  0  0  0
    9.1213    3.3913    5.7442 C   0  0  0  0  0  0
    7.0592    2.9776    7.0464 C   0  0  0  0  0  0
   13.1583    6.1441    7.6045 C   0  0  0  0  0  0
    6.2554    3.0959    8.1821 C   0  0  0  0  0  0
    7.7216    5.2457   10.9680 H   0  0  0  0  0  0
    5.1319    3.4148   10.4212 H   0  0  0  0  0  0
   12.2752    8.3248    8.2716 H   0  0  0  0  0  0
   15.2732    5.0233    7.9084 H   0  0  0  0  0  0
    9.7624    4.6860    8.1792 H   0  0  0  0  0  0
   12.8999    3.1864    5.9580 H   0  0  0  0  0  0
   10.0412    6.3619    6.3120 H   0  0  0  0  0  0
   10.6658    3.5145    4.3871 H   0  0  0  0  0  0
    8.6167    2.7992    4.9913 H   0  0  0  0  0  0
    6.6803    2.4164    6.2032 H   0  0  0  0  0  0
   13.8549    6.6988    8.2162 H   0  0  0  0  0  0
    5.2807    2.6315    8.1971 H   0  0  0  0  0  0
  1  7  1  0  0  0
  1 19  1  0  0  0
  2  8  1  0  0  0
  2 20  1  0  0  0
  3 10  1  0  0  0
  3 21  1  0  0  0
  4 11  1  0  0  0
  4 22  1  0  0  0
  5 12  2  0  0  0
  5 13  1  0  0  0
  5 14  1  0  0  0
  6  9  1  0  0  0
  6 15  1  0  0  0
  6 16  2  0  0  0
  7  8  1  0  0  0
  7  9  2  0  0  0
  8 18  2  0  0  0
  9 23  1  0  0  0
 10 13  2  0  0  0
 10 17  1  0  0  0
 11 12  1  0  0  0
 11 17  2  0  0  0
 12 24  1  0  0  0
 13 25  1  0  0  0
 14 15  2  3  0  0
 14 26  1  0  0  0
 15 27  1  0  0  0
 16 18  1  0  0  0
 16 28  1  0  0  0
 17 29  1  0  0  0
 18 30  1  0  0  0
M  END
> <s_m_entry_id>
47536

> <s_m_entry_name>
dock_pv.69

> <s_m_Source_Path>
/home/csk/Desktop/cluster/DUD-E-result/fak1

> <s_m_Source_File>
dock_pv.maegz

> <i_m_Source_File_Index>
69

> <chembl_id>
CHEMBL1972346

> <chembl_pref_name>
None

> <i_lp_mmshare_version>
53161

> <i_f3d_flags>
0

> <r_lp_tautomer_probability>
1

> <s_lp_Force_Field>
OPLS_2005

> <r_lp_Energy>
17.219267

> <b_lp_Chiralities_Consistent>
1

> <s_lp_Variant>
CHEMBL2695_lig1950-2

> <s_i_glide_gridfile>
glide-grid_3bz3

> <i_i_glide_lignum>
2278

> <i_i_glide_rotatable_bonds>
6

> <r_i_docking_score>
-8.49991374138962

> <r_i_glide_ligand_efficiency>
-0.472217430077201

> <r_i_glide_ligand_efficiency_sa>
-1.23755976487793

> <r_i_glide_ligand_efficiency_ln>
-2.1848589981504

> <r_i_glide_gscore>
-8.49991374138962

> <r_i_glide_lipo>
-3.10102624080966

> <r_i_glide_hbond>
-0.573526244823469

> <r_i_glide_metal>
0

> <r_i_glide_rewards>
-2.36046657575758

> <r_i_glide_evdw>
-27.6974105834961

> <r_i_glide_ecoul>
-11.0854072570801

> <r_i_glide_erotb>
0.582786937737895

> <r_i_glide_esite>
0

> <r_i_glide_emodel>
-56.6386777359359

> <r_i_glide_energy>
-38.7828178405762

> <r_i_glide_einternal>
5.15505123138428

> <i_i_glide_confnum>
10

> <i_i_glide_posenum>
50

> <r_i_glide_eff_state_penalty>
0

> <s_user_duplicate_titles>
CHEMBL2695_lig1950,CHEMBL2695_lig1950

> <s_m_subgroup_title>
dock_pv

> <s_m_subgroupid>
dock_pv

> <b_m_subgroup_collapsed>
1

$$$$
CHEMBL2695_lig218
                    3D
 Schrodinger Suite 2021-1.
 49 52  0  0  1  0            999 V2000
   12.2117    0.7630    3.6254 C   0  0  0  0  0  0
   13.5257    1.1548    3.9089 C   0  0  0  0  0  0
   14.5712    0.5850    3.1656 C   0  0  0  0  0  0
   14.3215   -0.3854    2.1932 C   0  0  0  0  0  0
   11.9586   -0.2106    2.6598 C   0  0  0  0  0  0
   13.0055   -0.7736    1.9608 C   0  0  0  0  0  0
   12.5105   -1.7304    1.0930 N   0  0  0  0  0  0
   11.1701   -1.8292    1.1268 C   0  0  0  0  0  0
   10.6836   -0.8371    2.1839 C   0  0  0  0  0  0
   10.4706   -2.5779    0.4518 O   0  0  0  0  0  0
   13.8739    2.0087    4.9646 N   0  0  0  0  0  0
   13.1942    2.9060    5.8000 C   0  0  0  0  0  0
   11.8381    3.0173    5.7957 N   0  0  0  0  0  0
   11.2841    4.0821    6.4437 C   0  0  0  0  0  0
   12.1031    5.0267    7.1090 C   0  0  0  0  0  0
   13.4806    4.7768    7.1088 C   0  0  0  0  0  0
   14.0323    3.7235    6.4705 N   0  0  0  0  0  0
    9.8766    4.2304    6.4260 N   0  0  0  0  0  0
    8.9889    3.6399    5.3983 C   0  0  1  0  0  0
   11.5767    6.2738    7.8151 C   0  0  0  0  0  0
   12.5251    6.9032    8.5121 F   0  0  0  0  0  0
   11.1220    7.1199    6.8938 F   0  0  0  0  0  0
   10.6024    5.9625    8.6663 F   0  0  0  0  0  0
    8.7394    2.1107    5.5468 C   0  0  0  0  0  0
    7.9784    1.6955    6.5744 N   0  0  0  0  0  0
    7.7100    4.4812    5.1538 C   0  0  0  0  0  0
    7.1784    2.4418    7.5351 C   0  0  0  0  0  0
    6.7220    4.6528    6.3283 C   0  0  0  0  0  0
    6.1284    3.3620    6.8963 C   0  0  0  0  0  0
    9.1705    1.3050    4.7301 O   0  0  0  0  0  0
   11.4043    1.1785    4.1903 H   0  0  0  0  0  0
   15.5960    0.8503    3.3827 H   0  0  0  0  0  0
   15.1473   -0.8392    1.6664 H   0  0  0  0  0  0
   13.0826   -2.3499    0.5440 H   0  0  0  0  0  0
   10.1598   -1.3673    2.9798 H   0  0  0  0  0  0
   10.0061   -0.1104    1.7341 H   0  0  0  0  0  0
   14.8711    2.0434    5.1135 H   0  0  0  0  0  0
   14.1827    5.4353    7.6047 H   0  0  0  0  0  0
    9.5103    5.0342    6.9136 H   0  0  0  0  0  0
    9.5449    3.7174    4.4604 H   0  0  0  0  0  0
    7.8216    0.6977    6.5460 H   0  0  0  0  0  0
    7.1662    4.0579    4.3092 H   0  0  0  0  0  0
    8.0155    5.4724    4.8189 H   0  0  0  0  0  0
    7.8351    2.9745    8.2253 H   0  0  0  0  0  0
    6.6606    1.7064    8.1533 H   0  0  0  0  0  0
    7.2076    5.1629    7.1565 H   0  0  0  0  0  0
    5.9089    5.3079    6.0111 H   0  0  0  0  0  0
    5.4063    3.6427    7.6649 H   0  0  0  0  0  0
    5.5625    2.8248    6.1326 H   0  0  0  0  0  0
  1  2  2  0  0  0
  1  5  1  0  0  0
  1 31  1  0  0  0
  2 11  1  0  0  0
  2  3  1  0  0  0
  3  4  2  0  0  0
  3 32  1  0  0  0
  4  6  1  0  0  0
  4 33  1  0  0  0
  5  9  1  0  0  0
  5  6  2  0  0  0
  6  7  1  0  0  0
  7  8  1  0  0  0
  7 34  1  0  0  0
  8  9  1  0  0  0
  8 10  2  0  0  0
  9 35  1  0  0  0
  9 36  1  0  0  0
 11 12  1  0  0  0
 11 37  1  0  0  0
 12 17  1  0  0  0
 12 13  2  0  0  0
 13 14  1  0  0  0
 14 15  2  0  0  0
 14 18  1  0  0  0
 15 16  1  0  0  0
 15 20  1  0  0  0
 16 17  2  0  0  0
 16 38  1  0  0  0
 18 19  1  0  0  0
 18 39  1  0  0  0
 19 24  1  0  0  0
 19 26  1  0  0  0
 19 40  1  0  0  0
 20 21  1  0  0  0
 20 22  1  0  0  0
 20 23  1  0  0  0
 24 25  1  0  0  0
 24 30  2  0  0  0
 25 27  1  0  0  0
 25 41  1  0  0  0
 26 28  1  0  0  0
 26 42  1  0  0  0
 26 43  1  0  0  0
 27 29  1  0  0  0
 27 44  1  0  0  0
 27 45  1  0  0  0
 28 29  1  0  0  0
 28 46  1  0  0  0
 28 47  1  0  0  0
 29 48  1  0  0  0
 29 49  1  0  0  0
M  END
> <s_m_entry_id>
47537

> <s_m_entry_name>
dock_pv.70

> <s_m_Source_Path>
/home/csk/Desktop/cluster/DUD-E-result/fak1

> <s_m_Source_File>
dock_pv.maegz

> <i_m_Source_File_Index>
70

> <chembl_id>
CHEMBL488446

> <chembl_pref_name>
None

> <i_lp_mmshare_version>
53161

> <i_f3d_flags>
0

> <r_lp_tautomer_probability>
0.999999624730965

> <s_lp_Force_Field>
OPLS_2005

> <r_lp_Energy>
31.116322

> <b_lp_Chiralities_Consistent>
1

> <s_lp_Variant>
CHEMBL2695_lig218-1

> <s_i_glide_gridfile>
glide-grid_3bz3

> <i_i_glide_lignum>
250

> <i_i_glide_rotatable_bonds>
5

> <r_i_docking_score>
-8.48729531349002

> <r_i_glide_ligand_efficiency>
-0.282909843783001

> <r_i_glide_ligand_efficiency_sa>
-0.879066661860242

> <r_i_glide_ligand_efficiency_ln>
-1.92840597171416

> <r_i_glide_gscore>
-8.48729531349002

> <r_i_glide_lipo>
-3.0013678821908

> <r_i_glide_hbond>
-0.307887756601331

> <r_i_glide_metal>
0

> <r_i_glide_rewards>
-3.00199108163298

> <r_i_glide_evdw>
-41.1121139526367

> <r_i_glide_ecoul>
-3.16562628746033

> <r_i_glide_erotb>
0.447968836337846

> <r_i_glide_esite>
-0.0935677886518681

> <r_i_glide_emodel>
-62.9983074565621

> <r_i_glide_energy>
-44.277740240097

> <r_i_glide_einternal>
3.4611964225769

> <i_i_glide_confnum>
1

> <i_i_glide_posenum>
23

> <r_i_glide_eff_state_penalty>
0

> <s_user_duplicate_titles>
CHEMBL2695_lig218,452871

> <s_m_subgroup_title>
dock_pv

> <s_m_subgroupid>
dock_pv

> <b_m_subgroup_collapsed>
1

$$$$
CHEMBL2695_lig662
                    3D
 Schrodinger Suite 2021-1.
 58 62  0  0  1  0            999 V2000
    7.9239    4.7760   11.1319 C   0  0  0  0  0  0
    8.8888    4.8939   10.0755 O   0  0  0  0  0  0
    8.5106    4.5402    8.7932 C   0  0  0  0  0  0
    7.2504    3.9617    8.5503 C   0  0  0  0  0  0
    6.8346    3.6575    7.2681 C   0  0  0  0  0  0
    7.6712    3.9207    6.1925 C   0  0  0  0  0  0
    8.9450    4.4366    6.4176 C   0  0  0  0  0  0
    9.3923    4.7628    7.7019 C   0  0  0  0  0  0
   10.7825    5.3251    7.8272 C   0  0  0  0  0  0
   11.1107    6.3410    8.7329 C   0  0  0  0  0  0
   12.4127    6.7823    8.9404 C   0  0  0  0  0  0
   13.4582    6.1650    8.2764 C   0  0  0  0  0  0
   13.1692    5.1675    7.3900 N   0  0  0  0  0  0
   14.0398    4.3629    6.7377 N   0  0  0  0  0  0
   13.2356    3.5178    6.1295 C   0  0  0  0  0  0
   13.7610    2.4301    5.4846 N   0  0  0  0  0  0
   13.0970    1.5179    4.6519 C   0  0  0  0  0  0
   11.7482    1.1631    4.8130 C   0  0  0  0  0  0
   11.1216    0.3181    3.9049 C   0  0  0  0  0  0
   11.8407   -0.2268    2.8314 C   0  0  0  0  0  0
   13.1946    0.1044    2.6870 C   0  0  0  0  0  0
   13.8185    0.9606    3.5908 C   0  0  0  0  0  0
   11.1866   -1.1717    1.8089 C   0  0  0  0  0  0
   11.8858   -2.5503    1.7376 C   0  0  0  0  0  0
   11.2301   -3.4926    0.7071 C   0  0  0  0  0  0
    9.7978   -3.6426    0.9488 N   0  0  1  0  0  0
    9.0841   -2.3656    0.9384 C   0  0  0  0  0  0
    9.6612   -1.3847    1.9776 C   0  0  0  0  0  0
   11.9420    3.7592    6.2091 N   0  0  0  0  0  0
   11.8656    4.7630    7.1082 C   0  0  0  0  0  0
    7.1664    3.6982    4.7870 C   0  0  0  0  0  0
    5.9101    4.1466    4.7090 F   0  0  0  0  0  0
    7.1959    2.3923    4.5233 F   0  0  0  0  0  0
    7.9220    4.3628    3.9090 F   0  0  0  0  0  0
    8.3218    5.1629   12.0653 H   0  0  0  0  0  0
    7.0135    5.3416   10.9253 H   0  0  0  0  0  0
    7.6582    3.7343   11.3150 H   0  0  0  0  0  0
    6.5489    3.7496    9.3416 H   0  0  0  0  0  0
    5.8494    3.2409    7.1129 H   0  0  0  0  0  0
    9.5866    4.6313    5.5703 H   0  0  0  0  0  0
   10.3229    6.7630    9.3273 H   0  0  0  0  0  0
   12.6231    7.5629    9.6556 H   0  0  0  0  0  0
   14.4816    6.4088    8.4691 H   0  0  0  0  0  0
   14.7623    2.3443    5.4259 H   0  0  0  0  0  0
   11.1569    1.5384    5.6332 H   0  0  0  0  0  0
   10.0755    0.0989    4.0550 H   0  0  0  0  0  0
   13.7714   -0.3031    1.8700 H   0  0  0  0  0  0
   14.8671    1.1814    3.4611 H   0  0  0  0  0  0
   11.3389   -0.6591    0.8572 H   0  0  0  0  0  0
   12.9211   -2.4301    1.4205 H   0  0  0  0  0  0
   11.9059   -3.0460    2.7087 H   0  0  0  0  0  0
   11.3796   -3.1146   -0.3051 H   0  0  0  0  0  0
   11.6918   -4.4797    0.7562 H   0  0  0  0  0  0
    9.3867   -4.2699    0.2701 H   0  0  0  0  0  0
    9.1303   -1.9332   -0.0634 H   0  0  0  0  0  0
    8.0328   -2.5593    1.1580 H   0  0  0  0  0  0
    9.3998   -1.7498    2.9708 H   0  0  0  0  0  0
    9.1392   -0.4377    1.8371 H   0  0  0  0  0  0
  1  2  1  0  0  0
  1 35  1  0  0  0
  1 36  1  0  0  0
  1 37  1  0  0  0
  2  3  1  0  0  0
  3  4  2  0  0  0
  3  8  1  0  0  0
  4  5  1  0  0  0
  4 38  1  0  0  0
  5  6  2  0  0  0
  5 39  1  0  0  0
  6  7  1  0  0  0
  6 31  1  0  0  0
  7  8  2  0  0  0
  7 40  1  0  0  0
  8  9  1  0  0  0
  9 10  2  0  0  0
  9 30  1  0  0  0
 10 11  1  0  0  0
 10 41  1  0  0  0
 11 12  2  0  0  0
 11 42  1  0  0  0
 12 13  1  0  0  0
 12 43  1  0  0  0
 13 14  1  0  0  0
 13 30  1  0  0  0
 14 15  2  0  0  0
 15 16  1  0  0  0
 15 29  1  0  0  0
 16 17  1  0  0  0
 16 44  1  0  0  0
 17 18  2  0  0  0
 17 22  1  0  0  0
 18 19  1  0  0  0
 18 45  1  0  0  0
 19 20  2  0  0  0
 19 46  1  0  0  0
 20 21  1  0  0  0
 20 23  1  0  0  0
 21 22  2  0  0  0
 21 47  1  0  0  0
 22 48  1  0  0  0
 23 24  1  0  0  0
 23 28  1  0  0  0
 23 49  1  0  0  0
 24 25  1  0  0  0
 24 50  1  0  0  0
 24 51  1  0  0  0
 25 26  1  0  0  0
 25 52  1  0  0  0
 25 53  1  0  0  0
 26 27  1  0  0  0
 26 54  1  0  0  0
 27 28  1  0  0  0
 27 55  1  0  0  0
 27 56  1  0  0  0
 28 57  1  0  0  0
 28 58  1  0  0  0
 29 30  2  0  0  0
 31 32  1  0  0  0
 31 33  1  0  0  0
 31 34  1  0  0  0
M  END
> <s_m_entry_id>
47538

> <s_m_entry_name>
dock_pv.71

> <s_m_Source_Path>
/home/csk/Desktop/cluster/DUD-E-result/fak1

> <s_m_Source_File>
dock_pv.maegz

> <i_m_Source_File_Index>
71

> <chembl_id>
CHEMBL3645051

> <chembl_pref_name>
None

> <i_lp_mmshare_version>
53161

> <i_f3d_flags>
0

> <r_lp_tautomer_probability>
1

> <s_lp_Force_Field>
OPLS_2005

> <r_lp_Energy>
33.626333

> <b_lp_Chiralities_Consistent>
1

> <s_lp_Variant>
CHEMBL2695_lig662-1

> <s_i_glide_gridfile>
glide-grid_3bz3

> <i_i_glide_lignum>
716

> <i_i_glide_rotatable_bonds>
6

> <r_i_docking_score>
-8.4865982737057

> <r_i_glide_ligand_efficiency>
-0.249605831579579

> <r_i_glide_ligand_efficiency_sa>
-0.808625996702383

> <r_i_glide_ligand_efficiency_ln>
-1.87492759968018

> <r_i_glide_gscore>
-8.4865982737057

> <r_i_glide_lipo>
-3.52036984429818

> <r_i_glide_hbond>
-0.163065529543954

> <r_i_glide_metal>
0

> <r_i_glide_rewards>
-2.65778498050941

> <r_i_glide_evdw>
-35.7001419067383

> <r_i_glide_ecoul>
-4.50926399230957

> <r_i_glide_erotb>
0.369404369419423

> <r_i_glide_esite>
-0.0533855945902381

> <r_i_glide_emodel>
-56.3537290369311

> <r_i_glide_energy>
-40.2094058990479

> <r_i_glide_einternal>
3.60859608650208

> <i_i_glide_confnum>
11

> <i_i_glide_posenum>
272

> <r_i_glide_eff_state_penalty>
0

> <s_user_duplicate_titles>
CHEMBL2695_lig662

> <s_m_subgroup_title>
dock_pv

> <s_m_subgroupid>
dock_pv

> <b_m_subgroup_collapsed>
1

$$$$
CHEMBL2695_lig1618
                    3D
 Schrodinger Suite 2021-1.
 43 45  0  0  1  0            999 V2000
    9.8109    1.9284    4.9427 O   0  0  0  0  0  0
   10.2270    4.0455    5.6898 N   0  0  0  0  0  0
   13.7979    6.1261    7.9086 N   0  0  0  0  0  0
   14.3219    3.9631    6.9590 N   0  0  0  0  0  0
    6.8898    2.3631    9.3284 N   0  0  0  0  0  0
   12.1312    5.0864    6.7949 C   0  0  0  0  0  0
   11.5666    3.9840    6.1160 C   0  0  0  0  0  0
   13.4961    4.9863    7.2011 C   0  0  0  0  0  0
   11.6819    6.3806    7.2241 C   0  0  0  0  0  0
    9.4418    3.0850    5.1450 C   0  0  0  0  0  0
   12.4043    2.8784    5.9089 C   0  0  0  0  0  0
    8.0128    3.5136    4.7000 C   0  0  2  0  0  0
   12.7137    6.9669    7.9277 C   0  0  0  0  0  0
   13.7336    2.9249    6.3090 C   0  0  0  0  0  0
    7.4549    4.7041    5.5261 C   0  0  0  0  0  0
    7.0131    2.3282    4.8391 C   0  0  0  0  0  0
    6.1450    3.1750    7.1010 C   0  0  1  0  0  0
    7.1479    4.3442    6.9968 C   0  0  0  0  0  0
    6.6839    1.9617    6.3040 C   0  0  0  0  0  0
    5.7537    2.8609    8.5727 C   0  0  1  0  0  0
    4.6013    1.8516    8.7091 C   0  0  0  0  0  0
    9.7820    4.9343    5.8473 H   0  0  0  0  0  0
   14.6993    6.3629    8.3091 H   0  0  0  0  0  0
    6.5302    1.8905   10.1500 H   0  0  0  0  0  0
    7.3269    1.6289    8.7899 H   0  0  0  0  0  0
   10.7219    6.8294    7.0560 H   0  0  0  0  0  0
   12.0716    1.9826    5.4126 H   0  0  0  0  0  0
    8.1467    3.7718    3.6496 H   0  0  0  0  0  0
   12.7758    7.9260    8.4225 H   0  0  0  0  0  0
   14.3222    2.0519    6.0994 H   0  0  0  0  0  0
    6.5526    5.0717    5.0321 H   0  0  0  0  0  0
    8.1083    5.5628    5.4201 H   0  0  0  0  0  0
    7.3420    1.4683    4.2535 H   0  0  0  0  0  0
    6.0957    2.5847    4.3088 H   0  0  0  0  0  0
    5.2419    3.5048    6.5833 H   0  0  0  0  0  0
    6.7221    5.1982    7.5093 H   0  0  0  0  0  0
    8.0630    4.1137    7.5442 H   0  0  0  0  0  0
    7.5653    1.5390    6.7894 H   0  0  0  0  0  0
    5.9445    1.1631    6.3187 H   0  0  0  0  0  0
    5.4349    3.7890    9.0523 H   0  0  0  0  0  0
    3.7167    2.1983    8.1741 H   0  0  0  0  0  0
    4.3163    1.7132    9.7531 H   0  0  0  0  0  0
    4.8624    0.8703    8.3108 H   0  0  0  0  0  0
  1 10  2  0  0  0
  2  7  1  0  0  0
  2 10  1  0  0  0
  2 22  1  0  0  0
  3  8  1  0  0  0
  3 13  1  0  0  0
  3 23  1  0  0  0
  4  8  1  0  0  0
  4 14  2  0  0  0
  5 20  1  0  0  0
  5 24  1  0  0  0
  5 25  1  0  0  0
  6  7  1  0  0  0
  6  8  2  0  0  0
  6  9  1  0  0  0
  7 11  2  0  0  0
  9 13  2  0  0  0
  9 26  1  0  0  0
 10 12  1  0  0  0
 11 14  1  0  0  0
 11 27  1  0  0  0
 12 15  1  0  0  0
 12 16  1  0  0  0
 12 28  1  0  0  0
 13 29  1  0  0  0
 14 30  1  0  0  0
 15 18  1  0  0  0
 15 31  1  0  0  0
 15 32  1  0  0  0
 16 19  1  0  0  0
 16 33  1  0  0  0
 16 34  1  0  0  0
 17 18  1  0  0  0
 17 19  1  0  0  0
 17 20  1  0  0  0
 17 35  1  0  0  0
 18 36  1  0  0  0
 18 37  1  0  0  0
 19 38  1  0  0  0
 19 39  1  0  0  0
 20 21  1  0  0  0
 20 40  1  0  0  0
 21 41  1  0  0  0
 21 42  1  0  0  0
 21 43  1  0  0  0
M  END
> <s_m_entry_id>
47539

> <s_m_entry_name>
dock_pv.72

> <s_m_Source_Path>
/home/csk/Desktop/cluster/DUD-E-result/fak1

> <s_m_Source_File>
dock_pv.maegz

> <i_m_Source_File_Index>
72

> <chembl_id>
CHEMBL2002992

> <chembl_pref_name>
None

> <i_lp_mmshare_version>
53161

> <i_f3d_flags>
0

> <r_lp_tautomer_probability>
0.999998432528457

> <s_lp_Force_Field>
OPLS_2005

> <r_lp_Energy>
22.189553

> <b_lp_Chiralities_Consistent>
1

> <s_lp_Variant>
CHEMBL2695_lig1618-4

> <s_i_glide_gridfile>
glide-grid_3bz3

> <i_i_glide_lignum>
1798

> <i_i_glide_rotatable_bonds>
4

> <r_i_docking_score>
-8.47517366481235

> <r_i_glide_ligand_efficiency>
-0.403579698324398

> <r_i_glide_ligand_efficiency_sa>
-1.11344578567381

> <r_i_glide_ligand_efficiency_ln>
-2.09546956292394

> <r_i_glide_gscore>
-8.47517366481235

> <r_i_glide_lipo>
-2.30444703654671

> <r_i_glide_hbond>
-0.735595512765661

> <r_i_glide_metal>
0

> <r_i_glide_rewards>
-3.61704849004466

> <r_i_glide_evdw>
-30.5030059814453

> <r_i_glide_ecoul>
-6.38141298294067

> <r_i_glide_erotb>
0.664279621058043

> <r_i_glide_esite>
0

> <r_i_glide_emodel>
-54.8173991502794

> <r_i_glide_energy>
-36.884418964386

> <r_i_glide_einternal>
2.11996650695801

> <i_i_glide_confnum>
1

> <i_i_glide_posenum>
256

> <r_i_glide_eff_state_penalty>
0

> <s_user_duplicate_titles>
CHEMBL2695_lig1618

> <s_m_subgroup_title>
dock_pv

> <s_m_subgroupid>
dock_pv

> <b_m_subgroup_collapsed>
1

$$$$
CHEMBL2695_lig1665
                    3D
 Schrodinger Suite 2021-1.
 26 27  0  0  1  0            999 V2000
   11.1843    5.5785    7.2205 S   0  0  0  0  0  0
   12.7220    7.5630    8.7090 S   0  0  0  0  0  0
   14.3220    3.5630    6.3284 O   0  0  0  0  0  0
    6.8220    4.6755    5.1090 O   0  0  0  0  0  0
    6.1281    1.9630    4.6554 O   0  0  0  0  0  0
   13.6960    5.3990    7.4841 N   0  0  0  0  0  0
   12.0365    4.2729    6.4035 C   0  0  0  0  0  0
   13.4529    4.3489    6.6968 C   0  0  0  0  0  0
   10.1126    3.0268    5.3143 C   0  0  0  0  0  0
   11.5278    3.2704    5.6580 C   0  0  0  0  0  0
   12.6693    6.1917    7.8389 C   0  0  0  0  0  0
    7.7710    3.6813    5.0922 C   0  0  0  0  0  0
    9.1097    4.0122    5.3070 C   0  0  0  0  0  0
    7.4317    2.3498    4.8306 C   0  0  0  0  0  0
    9.7581    1.7134    5.0139 C   0  0  0  0  0  0
    8.4348    1.3858    4.7586 C   0  0  0  0  0  0
    6.0924    4.7645    6.3260 C   0  0  0  0  0  0
    6.0458    0.9960    4.7090 H   0  0  0  0  0  0
   14.6387    5.6162    7.7843 H   0  0  0  0  0  0
   12.2162    2.5398    5.2513 H   0  0  0  0  0  0
    9.3324    5.0516    5.4717 H   0  0  0  0  0  0
   10.5009    0.9290    4.9850 H   0  0  0  0  0  0
    8.1988    0.3649    4.5039 H   0  0  0  0  0  0
    5.3557    5.5630    6.2483 H   0  0  0  0  0  0
    5.5511    3.8428    6.5452 H   0  0  0  0  0  0
    6.7443    4.9909    7.1705 H   0  0  0  0  0  0
  1  7  1  0  0  0
  1 11  1  0  0  0
  2 11  2  0  0  0
  3  8  2  0  0  0
  4 12  1  0  0  0
  4 17  1  0  0  0
  5 14  1  0  0  0
  5 18  1  0  0  0
  6  8  1  0  0  0
  6 11  1  0  0  0
  6 19  1  0  0  0
  7  8  1  0  0  0
  7 10  2  3  0  0
  9 10  1  0  0  0
  9 13  1  0  0  0
  9 15  2  0  0  0
 10 20  1  0  0  0
 12 13  2  0  0  0
 12 14  1  0  0  0
 13 21  1  0  0  0
 14 16  2  0  0  0
 15 16  1  0  0  0
 15 22  1  0  0  0
 16 23  1  0  0  0
 17 24  1  0  0  0
 17 25  1  0  0  0
 17 26  1  0  0  0
M  END
> <s_m_entry_id>
47540

> <s_m_entry_name>
dock_pv.73

> <s_m_Source_Path>
/home/csk/Desktop/cluster/DUD-E-result/fak1

> <s_m_Source_File>
dock_pv.maegz

> <i_m_Source_File_Index>
73

> <chembl_id>
CHEMBL1973098

> <chembl_pref_name>
None

> <i_lp_mmshare_version>
53161

> <i_f3d_flags>
0

> <r_lp_tautomer_probability>
1

> <s_lp_Force_Field>
OPLS_2005

> <r_lp_Energy>
13.302511

> <b_lp_Chiralities_Consistent>
1

> <s_lp_Variant>
CHEMBL2695_lig1665-2

> <s_i_glide_gridfile>
glide-grid_3bz3

> <i_i_glide_lignum>
1861

> <i_i_glide_rotatable_bonds>
3

> <r_i_docking_score>
-8.46706907136043

> <r_i_glide_ligand_efficiency>
-0.498062886550614

> <r_i_glide_ligand_efficiency_sa>
-1.28065992996823

> <r_i_glide_ligand_efficiency_ln>
-2.20886976836014

> <r_i_glide_gscore>
-8.46706907136043

> <r_i_glide_lipo>
-1.62779065880364

> <r_i_glide_hbond>
-0.576

> <r_i_glide_metal>
0

> <r_i_glide_rewards>
-3.71516187265374

> <r_i_glide_evdw>
-24.5209426879883

> <r_i_glide_ecoul>
-9.97813606262207

> <r_i_glide_erotb>
0.174651003889669

> <r_i_glide_esite>
0

> <r_i_glide_emodel>
-49.7439928849964

> <r_i_glide_energy>
-34.4990787506104

> <r_i_glide_einternal>
5.38226461410522

> <i_i_glide_confnum>
1

> <i_i_glide_posenum>
333

> <r_i_glide_eff_state_penalty>
0

> <s_user_duplicate_titles>
CHEMBL2695_lig1665,CHEMBL2695_lig1665

> <s_m_subgroup_title>
dock_pv

> <s_m_subgroupid>
dock_pv

> <b_m_subgroup_collapsed>
1

$$$$
CHEMBL2695_lig593
                    3D
 Schrodinger Suite 2021-1.
 48 51  0  0  1  0            999 V2000
   10.2388   -1.6149    0.9212 C   0  0  0  0  0  0
   11.6254   -1.3109    1.0443 O   0  0  0  0  0  0
   12.0434   -0.5152    2.0935 C   0  0  0  0  0  0
   11.2006   -0.0370    3.1090 C   0  0  0  0  0  0
   11.7041    0.7995    4.1021 C   0  0  0  0  0  0
   13.0603    1.1630    4.1035 C   0  0  0  0  0  0
   13.6512    1.9876    5.0782 N   0  0  0  0  0  0
   13.1220    3.0186    5.8116 C   0  0  0  0  0  0
   11.8304    3.2725    5.9090 N   0  0  0  0  0  0
   11.7952    4.3630    6.7090 C   0  0  0  0  0  0
   10.7447    5.0257    7.3756 C   0  0  0  0  0  0
    9.4323    4.5751    7.1595 N   0  0  0  0  0  0
    8.3275    4.3630    8.0026 C   0  0  0  0  0  0
    8.4393    4.4833    9.3956 C   0  0  0  0  0  0
    7.3434    4.2492   10.2245 C   0  0  0  0  0  0
    6.1225    3.8799    9.6687 C   0  0  0  0  0  0
    5.9987    3.7376    8.2879 C   0  0  0  0  0  0
    7.0938    3.9709    7.4464 C   0  0  0  0  0  0
    6.8756    3.7249    5.6699 S   0  0  0  0  0  0
    5.4421    3.5630    5.4064 O   0  0  0  0  0  0
    7.6386    4.7630    4.9681 O   0  0  0  0  0  0
    7.7158    2.0712    5.3614 C   0  0  0  0  0  0
   11.0877    6.0220    8.3043 C   0  0  0  0  0  0
   12.4105    6.3760    8.5582 C   0  0  0  0  0  0
   13.4342    5.6994    7.9082 C   0  0  0  0  0  0
   13.1062    4.7221    7.0138 N   0  0  0  0  0  0
   13.9443    3.8456    6.4284 N   0  0  0  0  0  0
   13.9014    0.6569    3.1090 C   0  0  0  0  0  0
   13.3949   -0.1733    2.1134 C   0  0  0  0  0  0
   10.0792   -2.2165    0.0266 H   0  0  0  0  0  0
    9.6373   -0.7094    0.8209 H   0  0  0  0  0  0
    9.8775   -2.1916    1.7742 H   0  0  0  0  0  0
   10.1495   -0.2834    3.1331 H   0  0  0  0  0  0
   11.0330    1.1484    4.8709 H   0  0  0  0  0  0
   14.6496    1.8489    5.1303 H   0  0  0  0  0  0
    9.2504    4.3039    6.2003 H   0  0  0  0  0  0
    9.3794    4.7380    9.8550 H   0  0  0  0  0  0
    7.4386    4.3471   11.2965 H   0  0  0  0  0  0
    5.2705    3.6973   10.3090 H   0  0  0  0  0  0
    5.0447    3.4380    7.8780 H   0  0  0  0  0  0
    7.6011    1.8147    4.3090 H   0  0  0  0  0  0
    8.7707    2.1492    5.6169 H   0  0  0  0  0  0
    7.2304    1.3134    5.9753 H   0  0  0  0  0  0
   10.3220    6.5206    8.8703 H   0  0  0  0  0  0
   12.6401    7.1392    9.2891 H   0  0  0  0  0  0
   14.4752    5.8453    8.1159 H   0  0  0  0  0  0
   14.9537    0.9024    3.1054 H   0  0  0  0  0  0
   14.0534   -0.5499    1.3455 H   0  0  0  0  0  0
  1  2  1  0  0  0
  1 30  1  0  0  0
  1 31  1  0  0  0
  1 32  1  0  0  0
  2  3  1  0  0  0
  3  4  2  0  0  0
  3 29  1  0  0  0
  4  5  1  0  0  0
  4 33  1  0  0  0
  5  6  2  0  0  0
  5 34  1  0  0  0
  6  7  1  0  0  0
  6 28  1  0  0  0
  7  8  1  0  0  0
  7 35  1  0  0  0
  8  9  1  0  0  0
  8 27  2  0  0  0
  9 10  2  0  0  0
 10 11  1  0  0  0
 10 26  1  0  0  0
 11 12  1  0  0  0
 11 23  2  0  0  0
 12 13  1  0  0  0
 12 36  1  0  0  0
 13 14  2  0  0  0
 13 18  1  0  0  0
 14 15  1  0  0  0
 14 37  1  0  0  0
 15 16  2  0  0  0
 15 38  1  0  0  0
 16 17  1  0  0  0
 16 39  1  0  0  0
 17 18  2  0  0  0
 17 40  1  0  0  0
 18 19  1  0  0  0
 19 20  2  0  0  0
 19 21  2  0  0  0
 19 22  1  0  0  0
 22 41  1  0  0  0
 22 42  1  0  0  0
 22 43  1  0  0  0
 23 24  1  0  0  0
 23 44  1  0  0  0
 24 25  2  0  0  0
 24 45  1  0  0  0
 25 26  1  0  0  0
 25 46  1  0  0  0
 26 27  1  0  0  0
 28 29  2  0  0  0
 28 47  1  0  0  0
 29 48  1  0  0  0
M  END
> <s_m_entry_id>
47541

> <s_m_entry_name>
dock_pv.74

> <s_m_Source_Path>
/home/csk/Desktop/cluster/DUD-E-result/fak1

> <s_m_Source_File>
dock_pv.maegz

> <i_m_Source_File_Index>
74

> <chembl_id>
CHEMBL3642284

> <chembl_pref_name>
None

> <i_lp_mmshare_version>
53161

> <i_f3d_flags>
0

> <r_lp_tautomer_probability>
1

> <s_lp_Force_Field>
OPLS_2005

> <r_lp_Energy>
29.434249

> <b_lp_Chiralities_Consistent>
1

> <s_lp_Variant>
CHEMBL2695_lig593-1

> <s_i_glide_gridfile>
glide-grid_3bz3

> <i_i_glide_lignum>
647

> <i_i_glide_rotatable_bonds>
6

> <r_i_docking_score>
-8.41287844600025

> <r_i_glide_ligand_efficiency>
-0.290099256758629

> <r_i_glide_ligand_efficiency_sa>
-0.891276826658098

> <r_i_glide_ligand_efficiency_ln>
-1.92633583194347

> <r_i_glide_gscore>
-8.41287844600025

> <r_i_glide_lipo>
-3.54229719473554

> <r_i_glide_hbond>
-0.290444187731891

> <r_i_glide_metal>
0

> <r_i_glide_rewards>
-1.95765218565823

> <r_i_glide_evdw>
-43.2087554931641

> <r_i_glide_ecoul>
-6.21221733093262

> <r_i_glide_erotb>
0.469785496423507

> <r_i_glide_esite>
0

> <r_i_glide_emodel>
-68.2663916285532

> <r_i_glide_energy>
-49.4209728240967

> <r_i_glide_einternal>
7.34212112426758

> <i_i_glide_confnum>
13

> <i_i_glide_posenum>
360

> <r_i_glide_eff_state_penalty>
0

> <s_user_duplicate_titles>
CHEMBL2695_lig593

> <s_m_subgroup_title>
dock_pv

> <s_m_subgroupid>
dock_pv

> <b_m_subgroup_collapsed>
1

$$$$
CHEMBL2695_lig516
                    3D
 Schrodinger Suite 2021-1.
 45 48  0  0  1  0            999 V2000
   10.7220   -2.1831    2.4449 C   0  0  0  0  0  0
   10.7377   -0.6645    2.2022 C   0  0  0  0  0  0
   11.9028   -0.0370    2.8150 N   0  0  0  0  0  0
   11.9261    0.7877    3.9090 C   0  0  0  0  0  0
   13.2553    1.1630    4.1059 C   0  0  0  0  0  0
   13.8404    1.9630    5.0646 N   0  0  0  0  0  0
   13.2788    2.9670    5.8156 C   0  0  0  0  0  0
   11.9788    3.1834    5.9090 N   0  0  0  0  0  0
   11.9029    4.2922    6.6818 C   0  0  0  0  0  0
   10.8154    4.9817    7.2534 C   0  0  0  0  0  0
   11.1220    5.9929    8.1798 C   0  0  0  0  0  0
   12.4319    6.3486    8.4966 C   0  0  0  0  0  0
   13.4879    5.6603    7.9113 C   0  0  0  0  0  0
   13.2024    4.6626    7.0264 N   0  0  0  0  0  0
   14.0713    3.7930    6.4738 N   0  0  0  0  0  0
    9.4150    4.5616    6.9812 C   0  0  0  0  0  0
    8.9761    4.3630    5.6669 C   0  0  0  0  0  0
    7.6501    4.0313    5.4055 C   0  0  0  0  0  0
    6.7519    3.8917    6.4645 C   0  0  0  0  0  0
    7.1878    4.0348    7.7814 C   0  0  0  0  0  0
    8.5160    4.3630    8.0362 C   0  0  0  0  0  0
    5.0248    3.5487    6.1504 S   0  0  0  0  0  0
    4.2502    4.3393    7.1121 O   0  0  0  0  0  0
    4.7935    3.6900    4.7090 O   0  0  0  0  0  0
    4.8533    1.7373    6.6045 C   0  0  0  0  0  0
   13.9214    0.4610    3.0868 C   0  0  0  0  0  0
   13.1257   -0.2412    2.3090 N   0  0  0  0  0  0
    9.8479   -2.6388    1.9786 H   0  0  0  0  0  0
   10.6781   -2.4124    3.5090 H   0  0  0  0  0  0
   11.6075   -2.6677    2.0317 H   0  0  0  0  0  0
   10.7487   -0.4378    1.1350 H   0  0  0  0  0  0
    9.8367   -0.2025    2.6108 H   0  0  0  0  0  0
   11.0188    1.0480    4.4349 H   0  0  0  0  0  0
   14.8323    1.8270    5.2008 H   0  0  0  0  0  0
   10.3220    6.4824    8.7090 H   0  0  0  0  0  0
   12.6250    7.1214    9.2277 H   0  0  0  0  0  0
   14.5193    5.8067    8.1669 H   0  0  0  0  0  0
    9.6596    4.4877    4.8393 H   0  0  0  0  0  0
    7.3254    3.9029    4.3832 H   0  0  0  0  0  0
    6.4949    3.9168    8.6030 H   0  0  0  0  0  0
    8.8383    4.4878    9.0593 H   0  0  0  0  0  0
    3.8231    1.4325    6.4324 H   0  0  0  0  0  0
    5.5220    1.1630    5.9671 H   0  0  0  0  0  0
    5.1219    1.6045    7.6511 H   0  0  0  0  0  0
   14.9896    0.4657    2.9256 H   0  0  0  0  0  0
  1  2  1  0  0  0
  1 28  1  0  0  0
  1 29  1  0  0  0
  1 30  1  0  0  0
  2  3  1  0  0  0
  2 31  1  0  0  0
  2 32  1  0  0  0
  3  4  1  0  0  0
  3 27  1  0  0  0
  4  5  2  0  0  0
  4 33  1  0  0  0
  5  6  1  0  0  0
  5 26  1  0  0  0
  6  7  1  0  0  0
  6 34  1  0  0  0
  7  8  1  0  0  0
  7 15  2  0  0  0
  8  9  2  0  0  0
  9 10  1  0  0  0
  9 14  1  0  0  0
 10 11  2  0  0  0
 10 16  1  0  0  0
 11 12  1  0  0  0
 11 35  1  0  0  0
 12 13  2  0  0  0
 12 36  1  0  0  0
 13 14  1  0  0  0
 13 37  1  0  0  0
 14 15  1  0  0  0
 16 17  2  0  0  0
 16 21  1  0  0  0
 17 18  1  0  0  0
 17 38  1  0  0  0
 18 19  2  0  0  0
 18 39  1  0  0  0
 19 20  1  0  0  0
 19 22  1  0  0  0
 20 21  2  0  0  0
 20 40  1  0  0  0
 21 41  1  0  0  0
 22 23  2  0  0  0
 22 24  2  0  0  0
 22 25  1  0  0  0
 25 42  1  0  0  0
 25 43  1  0  0  0
 25 44  1  0  0  0
 26 27  2  0  0  0
 26 45  1  0  0  0
M  END
> <s_m_entry_id>
47542

> <s_m_entry_name>
dock_pv.75

> <s_m_Source_Path>
/home/csk/Desktop/cluster/DUD-E-result/fak1

> <s_m_Source_File>
dock_pv.maegz

> <i_m_Source_File_Index>
75

> <chembl_id>
CHEMBL3644957

> <chembl_pref_name>
None

> <i_lp_mmshare_version>
53161

> <i_f3d_flags>
0

> <r_lp_tautomer_probability>
1

> <s_lp_Force_Field>
OPLS_2005

> <r_lp_Energy>
10.861222

> <b_lp_Chiralities_Consistent>
1

> <s_lp_Variant>
CHEMBL2695_lig516-1

> <s_i_glide_gridfile>
glide-grid_3bz3

> <i_i_glide_lignum>
570

> <i_i_glide_rotatable_bonds>
5

> <r_i_docking_score>
-8.40262779513703

> <r_i_glide_ligand_efficiency>
-0.311208436856927

> <r_i_glide_ligand_efficiency_sa>
-0.933625309545089

> <r_i_glide_ligand_efficiency_ln>
-1.95599322256214

> <r_i_glide_gscore>
-8.40262779513703

> <r_i_glide_lipo>
-2.61314106292568

> <r_i_glide_hbond>
-0.438489255046759

> <r_i_glide_metal>
0

> <r_i_glide_rewards>
-3.06188562303786

> <r_i_glide_evdw>
-35.5316009521484

> <r_i_glide_ecoul>
-6.07263612747192

> <r_i_glide_erotb>
0.398363612601482

> <r_i_glide_esite>
0

> <r_i_glide_emodel>
-64.2837684763809

> <r_i_glide_energy>
-41.6042370796204

> <r_i_glide_einternal>
1.33609485626221

> <i_i_glide_confnum>
1

> <i_i_glide_posenum>
328

> <r_i_glide_eff_state_penalty>
0

> <s_user_duplicate_titles>
CHEMBL2695_lig516

> <s_m_subgroup_title>
dock_pv

> <s_m_subgroupid>
dock_pv

> <b_m_subgroup_collapsed>
1

$$$$
CHEMBL2695_lig367
                    3D
 Schrodinger Suite 2021-1.
 45 47  0  0  1  0            999 V2000
    7.3680    3.7399   10.1143 N   0  0  0  0  0  0
   14.0374    3.7938    6.5208 N   0  0  0  0  0  0
   13.0719    3.0641    5.9089 C   0  0  0  0  0  0
   11.7506    3.3730    5.9158 N   0  0  0  0  0  0
   11.4158    4.4808    6.6266 C   0  0  0  0  0  0
   12.2988    5.3093    7.2326 N   0  0  0  0  0  0
   13.5913    4.9155    7.1411 C   0  0  0  0  0  0
   10.0771    4.7331    6.9279 N   0  0  0  0  0  0
    8.9327    3.9446    6.7156 C   0  0  0  0  0  0
   13.5217    1.9630    5.1678 N   0  0  0  0  0  0
   12.8736    1.1630    4.2099 C   0  0  0  0  0  0
   13.6332    0.7233    3.1230 C   0  0  0  0  0  0
   13.0600   -0.0884    2.1484 C   0  0  0  0  0  0
   11.7197   -0.4772    2.2548 C   0  0  0  0  0  0
   10.9561   -0.0370    3.3399 C   0  0  0  0  0  0
   11.5262    0.7809    4.3119 C   0  0  0  0  0  0
    8.7428    3.3699    5.4510 C   0  0  0  0  0  0
    7.6333    2.5768    5.1841 C   0  0  0  0  0  0
    6.6858    2.3631    6.1756 C   0  0  0  0  0  0
    6.8509    2.9341    7.4344 C   0  0  0  0  0  0
    7.9768    3.7250    7.7447 C   0  0  0  0  0  0
    8.1445    4.2811    9.1584 C   0  0  0  0  0  0
    7.3459    4.1608   11.5089 C   0  0  0  0  0  0
   11.0454   -1.3233    1.1771 C   0  0  0  0  0  0
   11.9176   -2.3308    0.5905 N   0  0  0  0  0  0
    8.9681    5.1617    9.4200 O   0  0  0  0  0  0
    6.7688    2.9658    9.8705 H   0  0  0  0  0  0
   14.3222    5.5439    7.6283 H   0  0  0  0  0  0
    9.9771    5.4017    7.6793 H   0  0  0  0  0  0
   14.5145    1.7960    5.2485 H   0  0  0  0  0  0
   14.6723    1.0047    3.0336 H   0  0  0  0  0  0
   13.6569   -0.4108    1.3081 H   0  0  0  0  0  0
    9.9138   -0.3118    3.4263 H   0  0  0  0  0  0
   10.9204    1.0979    5.1475 H   0  0  0  0  0  0
    9.4591    3.5349    4.6592 H   0  0  0  0  0  0
    7.5072    2.1251    4.2109 H   0  0  0  0  0  0
    5.8273    1.7396    5.9681 H   0  0  0  0  0  0
    6.0809    2.7330    8.1651 H   0  0  0  0  0  0
    6.3218    4.1546   11.8762 H   0  0  0  0  0  0
    7.7475    5.1638   11.6505 H   0  0  0  0  0  0
    7.9220    3.4755   12.1277 H   0  0  0  0  0  0
   10.1683   -1.8215    1.5946 H   0  0  0  0  0  0
   10.6841   -0.6600    0.3896 H   0  0  0  0  0  0
   12.1749   -2.9855    1.3173 H   0  0  0  0  0  0
   11.3747   -2.8735   -0.0674 H   0  0  0  0  0  0
  1 22  1  0  0  0
  1 23  1  0  0  0
  1 27  1  0  0  0
  2  3  2  0  0  0
  2  7  1  0  0  0
  3  4  1  0  0  0
  3 10  1  0  0  0
  4  5  2  0  0  0
  5  6  1  0  0  0
  5  8  1  0  0  0
  6  7  2  0  0  0
  7 28  1  0  0  0
  8  9  1  0  0  0
  8 29  1  0  0  0
  9 17  2  0  0  0
  9 21  1  0  0  0
 10 11  1  0  0  0
 10 30  1  0  0  0
 11 12  2  0  0  0
 11 16  1  0  0  0
 12 13  1  0  0  0
 12 31  1  0  0  0
 13 14  2  0  0  0
 13 32  1  0  0  0
 14 15  1  0  0  0
 14 24  1  0  0  0
 15 16  2  0  0  0
 15 33  1  0  0  0
 16 34  1  0  0  0
 17 18  1  0  0  0
 17 35  1  0  0  0
 18 19  2  0  0  0
 18 36  1  0  0  0
 19 20  1  0  0  0
 19 37  1  0  0  0
 20 21  2  0  0  0
 20 38  1  0  0  0
 21 22  1  0  0  0
 22 26  2  0  0  0
 23 39  1  0  0  0
 23 40  1  0  0  0
 23 41  1  0  0  0
 24 25  1  0  0  0
 24 42  1  0  0  0
 24 43  1  0  0  0
 25 44  1  0  0  0
 25 45  1  0  0  0
M  END
> <s_m_entry_id>
47543

> <s_m_entry_name>
dock_pv.76

> <s_m_Source_Path>
/home/csk/Desktop/cluster/DUD-E-result/fak1

> <s_m_Source_File>
dock_pv.maegz

> <i_m_Source_File_Index>
76

> <chembl_id>
CHEMBL2409592

> <chembl_pref_name>
None

> <i_lp_mmshare_version>
53161

> <i_f3d_flags>
0

> <r_lp_tautomer_probability>
0.99999997749453

> <s_lp_Force_Field>
OPLS_2005

> <r_lp_Energy>
11.397443

> <b_lp_Chiralities_Consistent>
1

> <s_lp_Variant>
CHEMBL2695_lig367-1

> <s_i_glide_gridfile>
glide-grid_3bz3

> <i_i_glide_lignum>
414

> <i_i_glide_rotatable_bonds>
7

> <r_i_docking_score>
-8.39622129805113

> <r_i_glide_ligand_efficiency>
-0.322931588386582

> <r_i_glide_ligand_efficiency_sa>
-0.956683559920807

> <r_i_glide_ligand_efficiency_ln>
-1.97182502159813

> <r_i_glide_gscore>
-8.39622129805113

> <r_i_glide_lipo>
-1.67958575180187

> <r_i_glide_hbond>
-0.415874667176991

> <r_i_glide_metal>
0

> <r_i_glide_rewards>
-3.39472489668706

> <r_i_glide_evdw>
-43.8193588256836

> <r_i_glide_ecoul>
-9.96841526031494

> <r_i_glide_erotb>
0.780194247946208

> <r_i_glide_esite>
0

> <r_i_glide_emodel>
-77.365868309991

> <r_i_glide_energy>
-53.7877740859985

> <r_i_glide_einternal>
5.20893669128418

> <i_i_glide_confnum>
1

> <i_i_glide_posenum>
206

> <r_i_glide_eff_state_penalty>
0

> <s_user_duplicate_titles>
CHEMBL2695_lig367

> <s_m_subgroup_title>
dock_pv

> <s_m_subgroupid>
dock_pv

> <b_m_subgroup_collapsed>
1

$$$$
CHEMBL2695_lig318
                    3D
 Schrodinger Suite 2021-1.
 51 54  0  0  1  0            999 V2000
    4.9658    4.3778    5.7565 S   0  0  0  0  0  0
    5.7833    3.1810    6.7922 N   0  0  0  0  0  0
    6.2566    1.9675    6.1357 C   0  0  0  0  0  0
    6.4489    3.5896    7.9612 C   0  0  0  0  0  0
    7.8115    3.9618    7.9934 C   0  0  0  0  0  0
    8.3532    4.3517    9.2299 C   0  0  0  0  0  0
    7.5577    4.3584   10.3747 C   0  0  0  0  0  0
    6.2285    3.9689   10.2542 C   0  0  0  0  0  0
    5.6725    3.6031    9.0757 N   0  0  0  0  0  0
    8.6782    3.8792    6.7357 C   0  0  0  0  0  0
    9.8388    4.7641    6.7417 N   0  0  0  0  0  0
   12.8624    2.7346    5.8473 C   0  0  0  0  0  0
   11.4892    3.0961    5.9086 C   0  0  0  0  0  0
   11.1642    4.3070    6.5829 C   0  0  0  0  0  0
   12.2452    5.0880    7.0584 C   0  0  0  0  0  0
   13.5525    4.6189    6.8972 C   0  0  0  0  0  0
   13.8905    3.4405    6.3156 N   0  0  0  0  0  0
   12.9570    1.5637    5.1310 N   0  0  0  0  0  0
   10.7934    2.0747    5.1542 C   0  0  0  0  0  0
   11.7306    1.2133    4.5989 C   0  0  0  0  0  0
    3.5874    5.0018    6.8706 C   0  0  0  0  0  0
    5.9154    5.4683    5.5100 O   0  0  0  0  0  0
    4.3599    3.6460    4.6379 O   0  0  0  0  0  0
   12.0684    6.3654    7.7462 C   0  0  0  0  0  0
   11.9297    7.3755    8.2912 N   0  0  0  0  0  0
   11.5600    0.2018    3.5093 C   0  0  0  0  0  0
   10.3015   -0.3389    3.2359 C   0  0  0  0  0  0
   10.1361   -1.2426    2.1897 C   0  0  0  0  0  0
   11.2313   -1.6002    1.4071 C   0  0  0  0  0  0
   12.4893   -1.0630    1.6649 C   0  0  0  0  0  0
   12.6528   -0.1581    2.7086 C   0  0  0  0  0  0
   11.0746   -2.4668    0.3816 F   0  0  0  0  0  0
    6.5373    1.2020    6.8614 H   0  0  0  0  0  0
    5.4621    1.5510    5.5170 H   0  0  0  0  0  0
    7.1045    2.1519    5.4781 H   0  0  0  0  0  0
    9.3900    4.6405    9.3122 H   0  0  0  0  0  0
    7.9566    4.6599   11.3320 H   0  0  0  0  0  0
    5.5692    3.9714   11.1090 H   0  0  0  0  0  0
    8.0881    4.1253    5.8533 H   0  0  0  0  0  0
    8.9633    2.8337    6.6719 H   0  0  0  0  0  0
    9.6981    5.6969    7.1035 H   0  0  0  0  0  0
   14.3930    5.1933    7.2669 H   0  0  0  0  0  0
   13.8113    1.0810    4.8933 H   0  0  0  0  0  0
    9.7437    2.0440    4.9021 H   0  0  0  0  0  0
    2.9829    5.7122    6.3139 H   0  0  0  0  0  0
    2.9811    4.1546    7.1840 H   0  0  0  0  0  0
    4.0304    5.4896    7.7350 H   0  0  0  0  0  0
    9.4399   -0.0392    3.8164 H   0  0  0  0  0  0
    9.1585   -1.6526    1.9799 H   0  0  0  0  0  0
   13.3341   -1.3438    1.0546 H   0  0  0  0  0  0
   13.6326    0.2618    2.8847 H   0  0  0  0  0  0
  1  2  1  0  0  0
  1 21  1  0  0  0
  1 22  2  0  0  0
  1 23  2  0  0  0
  2  3  1  0  0  0
  2  4  1  0  0  0
  3 33  1  0  0  0
  3 34  1  0  0  0
  3 35  1  0  0  0
  4  5  1  0  0  0
  4  9  2  0  0  0
  5  6  2  0  0  0
  5 10  1  0  0  0
  6  7  1  0  0  0
  6 36  1  0  0  0
  7  8  2  0  0  0
  7 37  1  0  0  0
  8  9  1  0  0  0
  8 38  1  0  0  0
 10 11  1  0  0  0
 10 39  1  0  0  0
 10 40  1  0  0  0
 11 14  1  0  0  0
 11 41  1  0  0  0
 12 13  1  0  0  0
 12 17  2  0  0  0
 12 18  1  0  0  0
 13 14  2  0  0  0
 13 19  1  0  0  0
 14 15  1  0  0  0
 15 16  2  0  0  0
 15 24  1  0  0  0
 16 17  1  0  0  0
 16 42  1  0  0  0
 18 20  1  0  0  0
 18 43  1  0  0  0
 19 20  2  0  0  0
 19 44  1  0  0  0
 20 26  1  0  0  0
 21 45  1  0  0  0
 21 46  1  0  0  0
 21 47  1  0  0  0
 24 25  3  0  0  0
 26 27  2  0  0  0
 26 31  1  0  0  0
 27 28  1  0  0  0
 27 48  1  0  0  0
 28 29  2  0  0  0
 28 49  1  0  0  0
 29 30  1  0  0  0
 29 32  1  0  0  0
 30 31  2  0  0  0
 30 50  1  0  0  0
 31 51  1  0  0  0
M  END
> <s_m_entry_id>
47544

> <s_m_entry_name>
dock_pv.77

> <s_m_Source_Path>
/home/csk/Desktop/cluster/DUD-E-result/fak1

> <s_m_Source_File>
dock_pv.maegz

> <i_m_Source_File_Index>
77

> <chembl_id>
CHEMBL2315580

> <chembl_pref_name>
None

> <i_lp_mmshare_version>
53161

> <i_f3d_flags>
0

> <r_lp_tautomer_probability>
1

> <s_lp_Force_Field>
OPLS_2005

> <r_lp_Energy>
17.626534

> <b_lp_Chiralities_Consistent>
1

> <s_lp_Variant>
CHEMBL2695_lig318-1

> <s_i_glide_gridfile>
glide-grid_3bz3

> <i_i_glide_lignum>
360

> <i_i_glide_rotatable_bonds>
6

> <r_i_docking_score>
-8.39225353872085

> <r_i_glide_ligand_efficiency>
-0.262257923085026

> <r_i_glide_ligand_efficiency_sa>
-0.832617005022455

> <r_i_glide_ligand_efficiency_ln>
-1.87925433151106

> <r_i_glide_gscore>
-8.39225353872085

> <r_i_glide_lipo>
-3.30712025115251

> <r_i_glide_hbond>
-0.112080394475717

> <r_i_glide_metal>
0

> <r_i_glide_rewards>
-1.65634775536238

> <r_i_glide_evdw>
-52.0992279052734

> <r_i_glide_ecoul>
-7.85258865356445

> <r_i_glide_erotb>
0.493971724783028

> <r_i_glide_esite>
-0.0278271692149271

> <r_i_glide_emodel>
-80.5896761331089

> <r_i_glide_energy>
-59.9518165588379

> <r_i_glide_einternal>
8.02610683441162

> <i_i_glide_confnum>
47

> <i_i_glide_posenum>
302

> <r_i_glide_eff_state_penalty>
0

> <s_user_duplicate_titles>
CHEMBL2695_lig318

> <s_m_subgroup_title>
dock_pv

> <s_m_subgroupid>
dock_pv

> <b_m_subgroup_collapsed>
1

$$$$
CHEMBL2695_lig371
                    3D
 Schrodinger Suite 2021-1.
 48 50  0  0  1  0            999 V2000
    7.4468    3.8152    9.9823 N   0  0  0  0  0  0
   14.2479    3.6446    6.5900 N   0  0  0  0  0  0
   13.2150    3.0849    5.9090 C   0  0  0  0  0  0
   11.9522    3.5716    5.9142 N   0  0  0  0  0  0
   11.7196    4.6421    6.7090 C   0  0  0  0  0  0
   12.6796    5.3017    7.4035 N   0  0  0  0  0  0
   13.9220    4.7629    7.2938 C   0  0  0  0  0  0
   10.3939    4.9640    7.0246 N   0  0  0  0  0  0
    9.2104    4.2727    6.6906 C   0  0  0  0  0  0
   13.4978    1.9629    5.1090 N   0  0  0  0  0  0
   12.6517    1.1630    4.2947 C   0  0  0  0  0  0
   13.1781    0.5008    3.1620 C   0  0  0  0  0  0
   12.3244   -0.2987    2.3770 C   0  0  0  0  0  0
   10.9712   -0.4370    2.6757 C   0  0  0  0  0  0
   10.4574    0.2449    3.7832 C   0  0  0  0  0  0
   11.2874    1.0125    4.5903 C   0  0  0  0  0  0
    9.0355    3.8713    5.3581 C   0  0  0  0  0  0
    7.9222    3.1408    4.9644 C   0  0  0  0  0  0
    6.9442    2.8221    5.8955 C   0  0  0  0  0  0
    7.0796    3.2388    7.2170 C   0  0  0  0  0  0
    8.2090    3.9630    7.6540 C   0  0  0  0  0  0
    8.3220    4.3681    9.1227 C   0  0  0  0  0  0
    7.3492    4.1541   11.3979 C   0  0  0  0  0  0
   14.5268    0.6486    2.8930 O   0  0  0  0  0  0
   10.2243   -1.2368    1.8341 O   0  0  0  0  0  0
   15.1277   -0.2251    1.9466 C   0  0  0  0  0  0
    8.8468   -1.4504    2.1312 C   0  0  0  0  0  0
    9.1800    5.1648    9.5091 O   0  0  0  0  0  0
    6.8251    3.0945    9.6486 H   0  0  0  0  0  0
   14.7155    5.2145    7.8686 H   0  0  0  0  0  0
   10.3141    5.5615    7.8355 H   0  0  0  0  0  0
   14.4777    1.7162    5.0678 H   0  0  0  0  0  0
   12.6909   -0.8258    1.5113 H   0  0  0  0  0  0
    9.4084    0.1939    4.0317 H   0  0  0  0  0  0
   10.8412    1.4729    5.4570 H   0  0  0  0  0  0
    9.7780    4.1126    4.6117 H   0  0  0  0  0  0
    7.8245    2.8175    3.9376 H   0  0  0  0  0  0
    6.0808    2.2462    5.5926 H   0  0  0  0  0  0
    6.2808    2.9720    7.8934 H   0  0  0  0  0  0
    6.3102    4.0993   11.7167 H   0  0  0  0  0  0
    7.7079    5.1629   11.6067 H   0  0  0  0  0  0
    7.9220    3.4533   12.0032 H   0  0  0  0  0  0
   16.1997   -0.0344    1.9090 H   0  0  0  0  0  0
   14.9876   -1.2705    2.2259 H   0  0  0  0  0  0
   14.7219   -0.0712    0.9476 H   0  0  0  0  0  0
    8.4136   -2.1177    1.3866 H   0  0  0  0  0  0
    8.7223   -1.9212    3.1073 H   0  0  0  0  0  0
    8.2780   -0.5195    2.1093 H   0  0  0  0  0  0
  1 22  1  0  0  0
  1 23  1  0  0  0
  1 29  1  0  0  0
  2  3  2  0  0  0
  2  7  1  0  0  0
  3  4  1  0  0  0
  3 10  1  0  0  0
  4  5  2  0  0  0
  5  6  1  0  0  0
  5  8  1  0  0  0
  6  7  2  0  0  0
  7 30  1  0  0  0
  8  9  1  0  0  0
  8 31  1  0  0  0
  9 17  2  0  0  0
  9 21  1  0  0  0
 10 11  1  0  0  0
 10 32  1  0  0  0
 11 12  2  0  0  0
 11 16  1  0  0  0
 12 13  1  0  0  0
 12 24  1  0  0  0
 13 14  2  0  0  0
 13 33  1  0  0  0
 14 15  1  0  0  0
 14 25  1  0  0  0
 15 16  2  0  0  0
 15 34  1  0  0  0
 16 35  1  0  0  0
 17 18  1  0  0  0
 17 36  1  0  0  0
 18 19  2  0  0  0
 18 37  1  0  0  0
 19 20  1  0  0  0
 19 38  1  0  0  0
 20 21  2  0  0  0
 20 39  1  0  0  0
 21 22  1  0  0  0
 22 28  2  0  0  0
 23 40  1  0  0  0
 23 41  1  0  0  0
 23 42  1  0  0  0
 24 26  1  0  0  0
 25 27  1  0  0  0
 26 43  1  0  0  0
 26 44  1  0  0  0
 26 45  1  0  0  0
 27 46  1  0  0  0
 27 47  1  0  0  0
 27 48  1  0  0  0
M  END
> <s_m_entry_id>
47545

> <s_m_entry_name>
dock_pv.78

> <s_m_Source_Path>
/home/csk/Desktop/cluster/DUD-E-result/fak1

> <s_m_Source_File>
dock_pv.maegz

> <i_m_Source_File_Index>
78

> <chembl_id>
CHEMBL2409587

> <chembl_pref_name>
None

> <i_lp_mmshare_version>
53161

> <i_f3d_flags>
0

> <r_lp_tautomer_probability>
0.99999997749453

> <s_lp_Force_Field>
OPLS_2005

> <r_lp_Energy>
17.794169

> <b_lp_Chiralities_Consistent>
1

> <s_lp_Variant>
CHEMBL2695_lig371-1

> <s_i_glide_gridfile>
glide-grid_3bz3

> <i_i_glide_lignum>
418

> <i_i_glide_rotatable_bonds>
8

> <r_i_docking_score>
-8.3349599191273

> <r_i_glide_ligand_efficiency>
-0.297677139968832

> <r_i_glide_ligand_efficiency_sa>
-0.903923119404825

> <r_i_glide_ligand_efficiency_ln>
-1.92395347439177

> <r_i_glide_gscore>
-8.3349599191273

> <r_i_glide_lipo>
-1.61452902142183

> <r_i_glide_hbond>
-0.604011597512467

> <r_i_glide_metal>
0

> <r_i_glide_rewards>
-2.96752098268652

> <r_i_glide_evdw>
-44.8852767944336

> <r_i_glide_ecoul>
-10.4997930526733

> <r_i_glide_erotb>
0.670334480116202

> <r_i_glide_esite>
0

> <r_i_glide_emodel>
-76.7451620931734

> <r_i_glide_energy>
-55.3850698471069

> <r_i_glide_einternal>
3.24972176551819

> <i_i_glide_confnum>
8

> <i_i_glide_posenum>
129

> <r_i_glide_eff_state_penalty>
0

> <s_user_duplicate_titles>
CHEMBL2695_lig371

> <s_m_subgroup_title>
dock_pv

> <s_m_subgroupid>
dock_pv

> <b_m_subgroup_collapsed>
1

$$$$
CHEMBL2695_lig791
                    3D
 Schrodinger Suite 2021-1.
 42 45  0  0  1  0            999 V2000
   10.6793   -2.1641    2.6143 C   0  0  0  0  0  0
   10.7623   -0.6818    2.2152 C   0  0  0  0  0  0
   11.9217   -0.0370    2.8187 N   0  0  0  0  0  0
   11.9407    0.7931    3.9090 C   0  0  0  0  0  0
   13.2702    1.1630    4.1150 C   0  0  0  0  0  0
   13.8542    1.9630    5.0761 N   0  0  0  0  0  0
   13.2944    2.9696    5.8267 C   0  0  0  0  0  0
   11.9952    3.1923    5.9090 N   0  0  0  0  0  0
   11.9157    4.2972    6.6868 C   0  0  0  0  0  0
   10.8230    4.9935    7.2410 C   0  0  0  0  0  0
   11.1220    5.9981    8.1768 C   0  0  0  0  0  0
   12.4304    6.3470    8.5097 C   0  0  0  0  0  0
   13.4916    5.6582    7.9335 C   0  0  0  0  0  0
   13.2129    4.6635    7.0431 N   0  0  0  0  0  0
   14.0843    3.7911    6.4957 N   0  0  0  0  0  0
    9.4273    4.5730    6.9451 C   0  0  0  0  0  0
    8.5103    4.3630    7.9810 C   0  0  0  0  0  0
    7.2006    3.9820    7.7002 C   0  0  0  0  0  0
    6.7872    3.8070    6.3763 C   0  0  0  0  0  0
    7.7083    3.9858    5.3392 C   0  0  0  0  0  0
    9.0167    4.3630    5.6244 C   0  0  0  0  0  0
    5.3338    3.4321    6.0867 C   0  0  0  0  0  0
    5.1220    3.1630    4.7964 F   0  0  0  0  0  0
    4.9833    2.3624    6.8014 F   0  0  0  0  0  0
    4.5478    4.4528    6.4306 F   0  0  0  0  0  0
   13.9394    0.4524    3.1038 C   0  0  0  0  0  0
   13.1473   -0.2535    2.3256 N   0  0  0  0  0  0
    9.8174   -2.6415    2.1468 H   0  0  0  0  0  0
   10.5645   -2.2749    3.6923 H   0  0  0  0  0  0
   11.5695   -2.7155    2.3090 H   0  0  0  0  0  0
   10.8298   -0.5700    1.1319 H   0  0  0  0  0  0
    9.8636   -0.1473    2.5297 H   0  0  0  0  0  0
   11.0309    1.0567    4.4292 H   0  0  0  0  0  0
   14.8438    1.8178    5.2207 H   0  0  0  0  0  0
   10.3220    6.4885    8.7030 H   0  0  0  0  0  0
   12.6180    7.1157    9.2466 H   0  0  0  0  0  0
   14.5208    5.8008    8.2011 H   0  0  0  0  0  0
    8.8087    4.4976    9.0101 H   0  0  0  0  0  0
    6.5021    3.8360    8.5124 H   0  0  0  0  0  0
    7.4209    3.8389    4.3090 H   0  0  0  0  0  0
    9.7132    4.4986    4.8094 H   0  0  0  0  0  0
   15.0088    0.4504    2.9512 H   0  0  0  0  0  0
  1  2  1  0  0  0
  1 28  1  0  0  0
  1 29  1  0  0  0
  1 30  1  0  0  0
  2  3  1  0  0  0
  2 31  1  0  0  0
  2 32  1  0  0  0
  3  4  1  0  0  0
  3 27  1  0  0  0
  4  5  2  0  0  0
  4 33  1  0  0  0
  5  6  1  0  0  0
  5 26  1  0  0  0
  6  7  1  0  0  0
  6 34  1  0  0  0
  7  8  1  0  0  0
  7 15  2  0  0  0
  8  9  2  0  0  0
  9 10  1  0  0  0
  9 14  1  0  0  0
 10 11  2  0  0  0
 10 16  1  0  0  0
 11 12  1  0  0  0
 11 35  1  0  0  0
 12 13  2  0  0  0
 12 36  1  0  0  0
 13 14  1  0  0  0
 13 37  1  0  0  0
 14 15  1  0  0  0
 16 17  2  0  0  0
 16 21  1  0  0  0
 17 18  1  0  0  0
 17 38  1  0  0  0
 18 19  2  0  0  0
 18 39  1  0  0  0
 19 20  1  0  0  0
 19 22  1  0  0  0
 20 21  2  0  0  0
 20 40  1  0  0  0
 21 41  1  0  0  0
 22 23  1  0  0  0
 22 24  1  0  0  0
 22 25  1  0  0  0
 26 27  2  0  0  0
 26 42  1  0  0  0
M  END
> <s_m_entry_id>
47546

> <s_m_entry_name>
dock_pv.79

> <s_m_Source_Path>
/home/csk/Desktop/cluster/DUD-E-result/fak1

> <s_m_Source_File>
dock_pv.maegz

> <i_m_Source_File_Index>
79

> <chembl_id>
CHEMBL3644963

> <chembl_pref_name>
None

> <i_lp_mmshare_version>
53161

> <i_f3d_flags>
0

> <r_lp_tautomer_probability>
1

> <s_lp_Force_Field>
OPLS_2005

> <r_lp_Energy>
12.386866

> <b_lp_Chiralities_Consistent>
1

> <s_lp_Variant>
CHEMBL2695_lig791-1

> <s_i_glide_gridfile>
glide-grid_3bz3

> <i_i_glide_lignum>
849

> <i_i_glide_rotatable_bonds>
5

> <r_i_docking_score>
-8.32578668013969

> <r_i_glide_ligand_efficiency>
-0.308362469634803

> <r_i_glide_ligand_efficiency_sa>
-0.925087407888098

> <r_i_glide_ligand_efficiency_ln>
-1.93810587781554

> <r_i_glide_gscore>
-8.32578668013969

> <r_i_glide_lipo>
-2.65734837075478

> <r_i_glide_hbond>
-0.456830121122759

> <r_i_glide_metal>
0

> <r_i_glide_rewards>
-3.27021194876759

> <r_i_glide_evdw>
-32.420223236084

> <r_i_glide_ecoul>
-4.78477907180786

> <r_i_glide_erotb>
0.417905504225624

> <r_i_glide_esite>
-0.0205737211448065

> <r_i_glide_emodel>
-54.3152287460775

> <r_i_glide_energy>
-37.2050023078918

> <r_i_glide_einternal>
1.65878772735596

> <i_i_glide_confnum>
4

> <i_i_glide_posenum>
92

> <r_i_glide_eff_state_penalty>
0

> <s_user_duplicate_titles>
CHEMBL2695_lig791

> <s_m_subgroup_title>
dock_pv

> <s_m_subgroupid>
dock_pv

> <b_m_subgroup_collapsed>
1

$$$$
CHEMBL2695_lig434
                    3D
 Schrodinger Suite 2021-1.
 49 52  0  0  1  0            999 V2000
    6.8825    3.4896    5.8408 C   0  0  0  0  0  0
    7.3201    3.8220    7.2554 C   0  0  0  0  0  0
    8.6290    4.2835    7.5534 C   0  0  0  0  0  0
    8.9432    4.6009    8.8829 C   0  0  0  0  0  0
    8.0139    4.4408    9.9083 C   0  0  0  0  0  0
    6.7419    3.9630    9.6214 C   0  0  0  0  0  0
    6.3970    3.6655    8.3067 C   0  0  0  0  0  0
    7.2906    4.1454    4.8803 O   0  0  0  0  0  0
    6.0565    2.4379    5.7131 N   0  0  0  0  0  0
    5.5229    1.9630    4.4439 C   0  0  0  0  0  0
    9.6056    4.3467    6.5345 N   0  0  0  0  0  0
   11.8324    5.1631    7.1980 N   0  0  0  0  0  0
   13.2204    4.9300    7.1714 C   0  0  0  0  0  0
   13.7605    3.8858    6.5269 N   0  0  0  0  0  0
   12.8775    3.0641    5.9090 C   0  0  0  0  0  0
   11.5297    3.2124    5.9090 N   0  0  0  0  0  0
   11.0024    4.2603    6.5774 C   0  0  0  0  0  0
   13.8753    5.8569    7.9045 N   0  0  0  0  0  0
   12.9495    6.6964    8.3090 C   0  0  0  0  0  0
   11.6727    6.3427    7.8915 C   0  0  0  0  0  0
   13.4650    2.0239    5.1750 N   0  0  0  0  0  0
   12.9574    1.1630    4.1829 C   0  0  0  0  0  0
   13.8529    0.7142    3.2089 C   0  0  0  0  0  0
   13.4187   -0.1311    2.1904 C   0  0  0  0  0  0
   12.0822   -0.5442    2.1399 C   0  0  0  0  0  0
   11.1837   -0.0892    3.1090 C   0  0  0  0  0  0
   11.6140    0.7630    4.1221 C   0  0  0  0  0  0
   11.5585   -1.4477    1.0246 C   0  0  0  0  0  0
   12.5230   -2.4370    0.5654 N   0  0  0  0  0  0
    9.9220    4.9524    9.1510 H   0  0  0  0  0  0
    8.2781    4.6856   10.9266 H   0  0  0  0  0  0
    6.0162    3.8378   10.4137 H   0  0  0  0  0  0
    5.3899    3.3210    8.1159 H   0  0  0  0  0  0
    5.9120    1.8346    6.5088 H   0  0  0  0  0  0
    4.7998    1.1654    4.6179 H   0  0  0  0  0  0
    6.3211    1.5634    3.8157 H   0  0  0  0  0  0
    5.0162    2.7658    3.9090 H   0  0  0  0  0  0
    9.2424    3.9276    5.6885 H   0  0  0  0  0  0
   13.2058    7.5630    8.9030 H   0  0  0  0  0  0
   10.7220    6.8198    8.0458 H   0  0  0  0  0  0
   14.4690    2.0056    5.2666 H   0  0  0  0  0  0
   14.8907    1.0129    3.2422 H   0  0  0  0  0  0
   14.1228   -0.4660    1.4432 H   0  0  0  0  0  0
   10.1436   -0.3831    3.0759 H   0  0  0  0  0  0
   10.8946    1.0810    4.8598 H   0  0  0  0  0  0
   10.6665   -1.9725    1.3718 H   0  0  0  0  0  0
   11.2497   -0.8264    0.1827 H   0  0  0  0  0  0
   12.8029   -2.9942    1.3624 H   0  0  0  0  0  0
   12.0472   -3.0866   -0.0461 H   0  0  0  0  0  0
  1  2  1  0  0  0
  1  8  2  0  0  0
  1  9  1  0  0  0
  2  3  1  0  0  0
  2  7  2  0  0  0
  3  4  2  0  0  0
  3 11  1  0  0  0
  4  5  1  0  0  0
  4 30  1  0  0  0
  5  6  2  0  0  0
  5 31  1  0  0  0
  6  7  1  0  0  0
  6 32  1  0  0  0
  7 33  1  0  0  0
  9 10  1  0  0  0
  9 34  1  0  0  0
 10 35  1  0  0  0
 10 36  1  0  0  0
 10 37  1  0  0  0
 11 17  1  0  0  0
 11 38  1  0  0  0
 12 13  1  0  0  0
 12 17  1  0  0  0
 12 20  1  0  0  0
 13 14  1  0  0  0
 13 18  2  0  0  0
 14 15  2  0  0  0
 15 16  1  0  0  0
 15 21  1  0  0  0
 16 17  2  0  0  0
 18 19  1  0  0  0
 19 20  2  0  0  0
 19 39  1  0  0  0
 20 40  1  0  0  0
 21 22  1  0  0  0
 21 41  1  0  0  0
 22 23  1  0  0  0
 22 27  2  0  0  0
 23 24  2  0  0  0
 23 42  1  0  0  0
 24 25  1  0  0  0
 24 43  1  0  0  0
 25 26  2  0  0  0
 25 28  1  0  0  0
 26 27  1  0  0  0
 26 44  1  0  0  0
 27 45  1  0  0  0
 28 29  1  0  0  0
 28 46  1  0  0  0
 28 47  1  0  0  0
 29 48  1  0  0  0
 29 49  1  0  0  0
M  END
> <s_m_entry_id>
47547

> <s_m_entry_name>
dock_pv.80

> <s_m_Source_Path>
/home/csk/Desktop/cluster/DUD-E-result/fak1

> <s_m_Source_File>
dock_pv.maegz

> <i_m_Source_File_Index>
80

> <chembl_id>
CHEMBL3393284

> <chembl_pref_name>
None

> <i_lp_mmshare_version>
53161

> <i_f3d_flags>
0

> <r_lp_tautomer_probability>
1

> <s_lp_Force_Field>
OPLS_2005

> <r_lp_Energy>
32.000725

> <b_lp_Chiralities_Consistent>
1

> <s_lp_Variant>
CHEMBL2695_lig434-1

> <s_i_glide_gridfile>
glide-grid_3bz3

> <i_i_glide_lignum>
487

> <i_i_glide_rotatable_bonds>
7

> <r_i_docking_score>
-8.31728545688013

> <r_i_glide_ligand_efficiency>
-0.28680294678897

> <r_i_glide_ligand_efficiency_sa>
-0.881149518087005

> <r_i_glide_ligand_efficiency_ln>
-1.90444746146402

> <r_i_glide_gscore>
-8.31728545688013

> <r_i_glide_lipo>
-2.92104416320083

> <r_i_glide_hbond>
-0.081900194885204

> <r_i_glide_metal>
0

> <r_i_glide_rewards>
-3.12845752146451

> <r_i_glide_evdw>
-43.7714500427246

> <r_i_glide_ecoul>
-3.90384697914124

> <r_i_glide_erotb>
0.645697973374854

> <r_i_glide_esite>
-0.057432001697025

> <r_i_glide_emodel>
-61.9552859974282

> <r_i_glide_energy>
-47.6752970218658

> <r_i_glide_einternal>
17.0104465484619

> <i_i_glide_confnum>
26

> <i_i_glide_posenum>
32

> <r_i_glide_eff_state_penalty>
0

> <s_user_duplicate_titles>
CHEMBL2695_lig434

> <s_m_subgroup_title>
dock_pv

> <s_m_subgroupid>
dock_pv

> <b_m_subgroup_collapsed>
1

$$$$
CHEMBL2695_lig940
                    3D
 Schrodinger Suite 2021-1.
 70 73  0  0  1  0            999 V2000
   15.0375   -0.1163    2.1359 C   0  0  0  0  0  0
   14.3195    0.7413    3.0131 O   0  0  0  0  0  0
   12.9663    0.5180    3.2076 C   0  0  0  0  0  0
   12.1974   -0.3365    2.3929 C   0  0  0  0  0  0
   10.8286   -0.5164    2.6236 C   0  0  0  0  0  0
   10.2367    0.1691    3.6871 C   0  0  0  0  0  0
   10.9843    0.9730    4.5284 C   0  0  0  0  0  0
   12.3490    1.1630    4.3036 C   0  0  0  0  0  0
   13.1219    1.9685    5.1609 N   0  0  0  0  0  0
   12.7800    3.1120    5.9090 C   0  0  0  0  0  0
   13.8290    3.7992    6.4228 N   0  0  0  0  0  0
   13.5342    4.9325    7.1089 C   0  0  0  0  0  0
   12.2279    5.4087    7.2771 C   0  0  0  0  0  0
   11.1958    4.6462    6.7042 C   0  0  0  0  0  0
    9.8652    5.0341    6.8554 O   0  0  0  0  0  0
    8.7991    4.1914    6.5519 C   0  0  0  0  0  0
    8.4564    3.8873    5.2253 C   0  0  0  0  0  0
    9.1218    4.7549    3.9131 Cl  0  0  0  0  0  0
    7.4995    2.9234    4.9326 C   0  0  0  0  0  0
    6.7703    2.3423    5.9542 C   0  0  0  0  0  0
    6.9915    2.7390    7.2658 C   0  0  0  0  0  0
    7.9924    3.6724    7.5817 C   0  0  0  0  0  0
    8.1972    4.1167    8.8985 N   0  0  0  0  0  0
    7.3583    3.4602   10.3073 S   0  0  0  0  0  0
    7.8820    4.1968   11.4573 O   0  0  0  0  0  0
    5.9247    3.4342   10.0022 O   0  0  0  0  0  0
    8.0848    1.7185   10.2699 C   0  0  0  0  0  0
   11.4768    3.4959    6.0257 N   0  0  0  0  0  0
   11.9500    6.6611    8.0984 C   0  0  0  0  0  0
   11.0887    6.3627    9.0716 F   0  0  0  0  0  0
   13.0546    7.1466    8.6670 F   0  0  0  0  0  0
   11.4383    7.6072    7.3136 F   0  0  0  0  0  0
   10.0173   -1.4825    1.7941 C   0  0  0  0  0  0
   10.5541   -2.4481    1.2505 O   0  0  0  0  0  0
    8.6931   -1.2388    1.7619 N   0  0  0  0  0  0
    7.6239   -2.1943    1.4848 C   0  0  0  0  0  0
    6.2206   -1.5954    1.6939 C   0  0  0  0  0  0
    5.0896   -2.6164    1.4717 C   0  0  0  0  0  0
    5.1954   -3.2736    0.1644 N   0  0  2  0  0  0
    4.1014   -4.2224   -0.0162 C   0  0  0  0  0  0
    6.4909   -3.9341   -0.0273 C   0  0  0  0  0  0
    7.6721   -2.9571    0.1421 C   0  0  0  0  0  0
   16.0915    0.1592    2.1501 H   0  0  0  0  0  0
   14.9555   -1.1581    2.4500 H   0  0  0  0  0  0
   14.6832   -0.0369    1.1087 H   0  0  0  0  0  0
   12.6530   -0.8682    1.5710 H   0  0  0  0  0  0
    9.1845    0.0568    3.9089 H   0  0  0  0  0  0
   10.4736    1.4149    5.3685 H   0  0  0  0  0  0
   14.1181    1.8282    5.0625 H   0  0  0  0  0  0
   14.3788    5.4610    7.5272 H   0  0  0  0  0  0
    7.3071    2.6388    3.9093 H   0  0  0  0  0  0
    6.0175    1.5994    5.7286 H   0  0  0  0  0  0
    6.3600    2.2866    8.0120 H   0  0  0  0  0  0
    8.9567    4.7583    9.0665 H   0  0  0  0  0  0
    7.9220    1.0632   11.1087 H   0  0  0  0  0  0
    7.8170    1.2078    9.3496 H   0  0  0  0  0  0
    9.1228    1.9047   10.3090 H   0  0  0  0  0  0
    8.3880   -0.3105    2.0282 H   0  0  0  0  0  0
    7.7311   -2.9628    2.2591 H   0  0  0  0  0  0
    6.0561   -0.7439    1.0332 H   0  0  0  0  0  0
    6.1329   -1.2067    2.7088 H   0  0  0  0  0  0
    4.1270   -2.1060    1.5351 H   0  0  0  0  0  0
    5.0923   -3.3642    2.2672 H   0  0  0  0  0  0
    3.1372   -3.7169    0.0551 H   0  0  0  0  0  0
    4.1509   -4.6891   -1.0010 H   0  0  0  0  0  0
    4.1259   -5.0143    0.7349 H   0  0  0  0  0  0
    6.5230   -4.3670   -1.0270 H   0  0  0  0  0  0
    6.5843   -4.7687    0.6699 H   0  0  0  0  0  0
    8.5935   -3.5336    0.0665 H   0  0  0  0  0  0
    7.6815   -2.2627   -0.6994 H   0  0  0  0  0  0
  1  2  1  0  0  0
  1 43  1  0  0  0
  1 44  1  0  0  0
  1 45  1  0  0  0
  2  3  1  0  0  0
  3  4  2  0  0  0
  3  8  1  0  0  0
  4  5  1  0  0  0
  4 46  1  0  0  0
  5  6  2  0  0  0
  5 33  1  0  0  0
  6  7  1  0  0  0
  6 47  1  0  0  0
  7  8  2  0  0  0
  7 48  1  0  0  0
  8  9  1  0  0  0
  9 10  1  0  0  0
  9 49  1  0  0  0
 10 11  2  0  0  0
 10 28  1  0  0  0
 11 12  1  0  0  0
 12 13  2  0  0  0
 12 50  1  0  0  0
 13 14  1  0  0  0
 13 29  1  0  0  0
 14 15  1  0  0  0
 14 28  2  0  0  0
 15 16  1  0  0  0
 16 17  2  0  0  0
 16 22  1  0  0  0
 17 18  1  0  0  0
 17 19  1  0  0  0
 19 20  2  0  0  0
 19 51  1  0  0  0
 20 21  1  0  0  0
 20 52  1  0  0  0
 21 22  2  0  0  0
 21 53  1  0  0  0
 22 23  1  0  0  0
 23 24  1  0  0  0
 23 54  1  0  0  0
 24 25  2  0  0  0
 24 26  2  0  0  0
 24 27  1  0  0  0
 27 55  1  0  0  0
 27 56  1  0  0  0
 27 57  1  0  0  0
 29 30  1  0  0  0
 29 31  1  0  0  0
 29 32  1  0  0  0
 33 34  2  0  0  0
 33 35  1  0  0  0
 35 36  1  0  0  0
 35 58  1  0  0  0
 36 37  1  0  0  0
 36 42  1  0  0  0
 36 59  1  0  0  0
 37 38  1  0  0  0
 37 60  1  0  0  0
 37 61  1  0  0  0
 38 39  1  0  0  0
 38 62  1  0  0  0
 38 63  1  0  0  0
 39 40  1  0  0  0
 39 41  1  0  0  0
 40 64  1  0  0  0
 40 65  1  0  0  0
 40 66  1  0  0  0
 41 42  1  0  0  0
 41 67  1  0  0  0
 41 68  1  0  0  0
 42 69  1  0  0  0
 42 70  1  0  0  0
M  END
> <s_m_entry_id>
47548

> <s_m_entry_name>
dock_pv.81

> <s_m_Source_Path>
/home/csk/Desktop/cluster/DUD-E-result/fak1

> <s_m_Source_File>
dock_pv.maegz

> <i_m_Source_File_Index>
81

> <chembl_id>
CHEMBL3665940

> <chembl_pref_name>
None

> <i_lp_mmshare_version>
53161

> <i_f3d_flags>
0

> <r_lp_tautomer_probability>
0.999999917912647

> <s_lp_Force_Field>
OPLS_2005

> <r_lp_Energy>
16.873495

> <b_lp_Chiralities_Consistent>
1

> <s_lp_Variant>
CHEMBL2695_lig940-1

> <s_i_glide_gridfile>
glide-grid_3bz3

> <i_i_glide_lignum>
1014

> <i_i_glide_rotatable_bonds>
11

> <r_i_docking_score>
-8.31173868542744

> <r_i_glide_ligand_efficiency>
-0.197898540129225

> <r_i_glide_ligand_efficiency_sa>
-0.687900597616267

> <r_i_glide_ligand_efficiency_ln>
-1.75439390145552

> <r_i_glide_gscore>
-8.31173868542744

> <r_i_glide_lipo>
-2.46990702982669

> <r_i_glide_hbond>
-0.23936998251767

> <r_i_glide_metal>
0

> <r_i_glide_rewards>
-2.63281996933712

> <r_i_glide_evdw>
-43.2287521362305

> <r_i_glide_ecoul>
-6.81728792190552

> <r_i_glide_erotb>
0.289492987613553

> <r_i_glide_esite>
-0.0751038962621603

> <r_i_glide_emodel>
-56.8800952885532

> <r_i_glide_energy>
-50.046040058136

> <r_i_glide_einternal>
15.4502973556519

> <i_i_glide_confnum>
2

> <i_i_glide_posenum>
366

> <r_i_glide_eff_state_penalty>
0

> <s_user_duplicate_titles>
CHEMBL2695_lig940

> <s_m_subgroup_title>
dock_pv

> <s_m_subgroupid>
dock_pv

> <b_m_subgroup_collapsed>
1

$$$$
CHEMBL2695_lig1975
                    3D
 Schrodinger Suite 2021-1.
 50 53  0  0  1  0            999 V2000
    8.9434    3.3387    5.7413 O   0  0  0  0  0  0
    4.7648    3.1638    9.6327 N   0  0  0  0  0  0
   11.4864    1.0023    4.3840 N   0  0  0  0  0  0
    6.9481    1.5631    6.3096 N   0  0  0  0  0  0
   11.7846    7.8217    7.9922 N   0  0  0  0  0  0
    6.5033    3.9627    8.4744 C   0  0  0  0  0  0
    5.4862    3.5619    7.5421 C   0  0  0  0  0  0
    6.0008    3.7412    9.7852 C   0  0  0  0  0  0
    4.4462    3.0693    8.3059 C   0  0  0  0  0  0
    7.7790    4.5273    8.3358 C   0  0  0  0  0  0
    5.5787    3.6261    6.0309 C   0  0  0  0  0  0
    6.7142    4.1059   10.9296 C   0  0  0  0  0  0
    6.5819    2.6257    5.3861 C   0  0  1  0  0  0
    8.4794    4.9223    9.4675 C   0  0  0  0  0  0
    7.9208    4.7545   10.7291 C   0  0  0  0  0  0
   10.1145    2.6456    5.5174 C   0  0  0  0  0  0
   12.5175    2.6248    5.8647 C   0  0  0  0  0  0
    7.8690    3.2554    4.8032 C   0  0  0  0  0  0
   11.2416    3.0956    6.2003 C   0  0  0  0  0  0
   10.2785    1.5552    4.6501 C   0  0  0  0  0  0
   12.5772    1.5628    4.9671 C   0  0  0  0  0  0
   13.7986    3.1989    6.3122 C   0  0  0  0  0  0
   13.2220    5.4996    7.3150 C   0  0  0  0  0  0
   14.0797    4.3611    6.9434 C   0  0  0  0  0  0
   12.1815    5.9629    6.5015 C   0  0  0  0  0  0
   13.5192    6.2129    8.4789 C   0  0  0  0  0  0
   11.5015    7.1223    6.8706 C   0  0  0  0  0  0
   12.7780    7.3541    8.7848 C   0  0  0  0  0  0
    4.1526    2.8715   10.3866 H   0  0  0  0  0  0
    6.3287    1.6415    7.1078 H   0  0  0  0  0  0
    6.7197    0.6522    5.8761 H   0  0  0  0  0  0
    3.4960    2.6502    8.0089 H   0  0  0  0  0  0
    8.1868    4.7306    7.3611 H   0  0  0  0  0  0
    5.7881    4.6504    5.7097 H   0  0  0  0  0  0
    4.5904    3.4161    5.6123 H   0  0  0  0  0  0
    6.3274    3.9536   11.9265 H   0  0  0  0  0  0
    6.0586    2.1494    4.5550 H   0  0  0  0  0  0
    9.4397    5.4041    9.3583 H   0  0  0  0  0  0
    8.4414    5.1047   11.5996 H   0  0  0  0  0  0
    7.6644    4.2670    4.4481 H   0  0  0  0  0  0
    8.1450    2.7196    3.9085 H   0  0  0  0  0  0
   11.0993    3.8551    6.9477 H   0  0  0  0  0  0
    9.4452    1.1008    4.1373 H   0  0  0  0  0  0
   13.5288    1.1490    4.6684 H   0  0  0  0  0  0
   14.6484    2.5571    6.1256 H   0  0  0  0  0  0
   15.1174    4.5189    7.1957 H   0  0  0  0  0  0
   11.9493    5.4898    5.5585 H   0  0  0  0  0  0
   14.3389    5.9110    9.1106 H   0  0  0  0  0  0
   10.7159    7.5266    6.2512 H   0  0  0  0  0  0
   13.0112    7.9405    9.6618 H   0  0  0  0  0  0
  1 16  1  0  0  0
  1 18  1  0  0  0
  2  8  1  0  0  0
  2  9  1  0  0  0
  2 29  1  0  0  0
  3 20  1  0  0  0
  3 21  2  0  0  0
  4 13  1  0  0  0
  4 30  1  0  0  0
  4 31  1  0  0  0
  5 27  2  0  0  0
  5 28  1  0  0  0
  6  7  1  0  0  0
  6  8  1  0  0  0
  6 10  2  0  0  0
  7  9  2  0  0  0
  7 11  1  0  0  0
  8 12  2  0  0  0
  9 32  1  0  0  0
 10 14  1  0  0  0
 10 33  1  0  0  0
 11 13  1  0  0  0
 11 34  1  0  0  0
 11 35  1  0  0  0
 12 15  1  0  0  0
 12 36  1  0  0  0
 13 18  1  0  0  0
 13 37  1  0  0  0
 14 15  2  0  0  0
 14 38  1  0  0  0
 15 39  1  0  0  0
 16 19  1  0  0  0
 16 20  2  0  0  0
 17 19  2  0  0  0
 17 21  1  0  0  0
 17 22  1  0  0  0
 18 40  1  0  0  0
 18 41  1  0  0  0
 19 42  1  0  0  0
 20 43  1  0  0  0
 21 44  1  0  0  0
 22 24  2  3  0  0
 22 45  1  0  0  0
 23 24  1  0  0  0
 23 25  2  0  0  0
 23 26  1  0  0  0
 24 46  1  0  0  0
 25 27  1  0  0  0
 25 47  1  0  0  0
 26 28  2  0  0  0
 26 48  1  0  0  0
 27 49  1  0  0  0
 28 50  1  0  0  0
M  END
> <s_m_entry_id>
47549

> <s_m_entry_name>
dock_pv.82

> <s_m_Source_Path>
/home/csk/Desktop/cluster/DUD-E-result/fak1

> <s_m_Source_File>
dock_pv.maegz

> <i_m_Source_File_Index>
82

> <chembl_id>
CHEMBL1974935

> <chembl_pref_name>
None

> <i_lp_mmshare_version>
53161

> <i_f3d_flags>
0

> <r_lp_tautomer_probability>
1

> <s_lp_Force_Field>
OPLS_2005

> <r_lp_Energy>
27.108831

> <b_lp_Chiralities_Consistent>
1

> <s_lp_Variant>
CHEMBL2695_lig1975-4

> <s_i_glide_gridfile>
glide-grid_3bz3

> <i_i_glide_lignum>
2311

> <i_i_glide_rotatable_bonds>
7

> <r_i_docking_score>
-8.30428543931786

> <r_i_glide_ligand_efficiency>
-0.296581622832781

> <r_i_glide_ligand_efficiency_sa>
-0.900596484154685

> <r_i_glide_ligand_efficiency_ln>
-1.91687290380989

> <r_i_glide_gscore>
-8.30428543931786

> <r_i_glide_lipo>
-4.49191070933772

> <r_i_glide_hbond>
-0.365896486129422

> <r_i_glide_metal>
0

> <r_i_glide_rewards>
-1.08956361760265

> <r_i_glide_evdw>
-36.0386581420898

> <r_i_glide_ecoul>
-9.27222919464111

> <r_i_glide_erotb>
0.843491268241451

> <r_i_glide_esite>
-0.00763860818886091

> <r_i_glide_emodel>
-57.2758825189949

> <r_i_glide_energy>
-45.310887336731

> <r_i_glide_einternal>
19.8777694702148

> <i_i_glide_confnum>
11

> <i_i_glide_posenum>
303

> <r_i_glide_eff_state_penalty>
0

> <s_user_duplicate_titles>
CHEMBL2695_lig1975

> <s_m_subgroup_title>
dock_pv

> <s_m_subgroupid>
dock_pv

> <b_m_subgroup_collapsed>
1

$$$$
CHEMBL2695_lig789
                    3D
 Schrodinger Suite 2021-1.
 60 64  0  0  1  0            999 V2000
    5.3312    5.4792    5.1548 C   0  0  0  0  0  0
    5.9642    4.5877    6.0590 O   0  0  0  0  0  0
    5.3865    3.3548    6.2861 C   0  0  0  0  0  0
    4.5301    2.7394    5.3573 C   0  0  0  0  0  0
    3.9219    1.5213    5.6449 C   0  0  0  0  0  0
    4.1655    0.8816    6.8608 C   0  0  0  0  0  0
    5.0479    1.4747    7.7674 C   0  0  0  0  0  0
    5.6540    2.7137    7.5106 C   0  0  0  0  0  0
    6.4603    3.3558    8.5938 C   0  0  0  0  0  0
    5.9223    3.3837    9.8904 C   0  0  0  0  0  0
    6.5718    3.9974   10.9537 C   0  0  0  0  0  0
    7.7855    4.6242   10.7619 C   0  0  0  0  0  0
    8.3266    4.5932    9.5153 N   0  0  0  0  0  0
    9.4809    5.1631    9.1682 N   0  0  0  0  0  0
    9.5223    4.9199    7.8794 C   0  0  0  0  0  0
   10.5183    5.5071    7.1551 N   0  0  0  0  0  0
   11.6521    4.7712    6.8239 C   0  0  0  0  0  0
   12.9076    5.2154    7.2389 C   0  0  0  0  0  0
   14.0327    4.4317    6.9987 C   0  0  0  0  0  0
   13.9070    3.2265    6.3090 C   0  0  0  0  0  0
   12.6515    2.7738    5.8873 C   0  0  0  0  0  0
   11.5315    3.5670    6.1405 C   0  0  0  0  0  0
   12.5251    1.6003    5.1579 N   0  0  0  0  0  0
   13.5694    1.1441    4.2204 C   0  0  0  0  0  0
   13.0229    0.6473    2.8665 C   0  0  0  0  0  0
   11.9221   -0.3085    3.0281 N   0  0  0  0  0  0
   11.4556   -0.8202    1.7434 C   0  0  0  0  0  0
   10.8317    0.3161    3.7741 C   0  0  0  0  0  0
   11.3180    0.7523    5.1722 C   0  0  0  0  0  0
    8.5587    4.1857    7.3493 N   0  0  0  0  0  0
    7.7238    3.9852    8.4064 C   0  0  0  0  0  0
    3.4938   -0.4506    7.1915 C   0  0  0  0  0  0
    3.1232   -1.1152    6.0957 F   0  0  0  0  0  0
    2.3996   -0.2040    7.9097 F   0  0  0  0  0  0
    4.2945   -1.2426    7.9092 F   0  0  0  0  0  0
    5.9200    6.3855    5.1080 H   0  0  0  0  0  0
    5.2843    5.0920    4.1388 H   0  0  0  0  0  0
    4.3310    5.7374    5.5086 H   0  0  0  0  0  0
    4.3088    3.1963    4.4053 H   0  0  0  0  0  0
    3.2616    1.0785    4.9125 H   0  0  0  0  0  0
    5.2403    0.9805    8.7086 H   0  0  0  0  0  0
    4.9574    2.9334   10.0845 H   0  0  0  0  0  0
    6.1087    3.9988   11.9278 H   0  0  0  0  0  0
    8.3220    5.1528   11.5337 H   0  0  0  0  0  0
   10.7478    6.4474    7.4305 H   0  0  0  0  0  0
   13.0133    6.1415    7.7843 H   0  0  0  0  0  0
   14.9972    4.7630    7.3500 H   0  0  0  0  0  0
   14.7766    2.6209    6.1144 H   0  0  0  0  0  0
   10.5542    3.2718    5.7922 H   0  0  0  0  0  0
   14.2586    1.9628    4.0147 H   0  0  0  0  0  0
   14.1919    0.3761    4.6728 H   0  0  0  0  0  0
   12.7220    1.5270    2.3090 H   0  0  0  0  0  0
   13.8299    0.1792    2.3010 H   0  0  0  0  0  0
   10.6782   -1.5705    1.8919 H   0  0  0  0  0  0
   11.0424   -0.0372    1.1081 H   0  0  0  0  0  0
   12.2719   -1.3029    1.2032 H   0  0  0  0  0  0
   10.0199   -0.4020    3.8888 H   0  0  0  0  0  0
   10.4079    1.1633    3.2359 H   0  0  0  0  0  0
   11.5220   -0.1140    5.7930 H   0  0  0  0  0  0
   10.4887    1.2332    5.6866 H   0  0  0  0  0  0
  1  2  1  0  0  0
  1 36  1  0  0  0
  1 37  1  0  0  0
  1 38  1  0  0  0
  2  3  1  0  0  0
  3  4  2  0  0  0
  3  8  1  0  0  0
  4  5  1  0  0  0
  4 39  1  0  0  0
  5  6  2  0  0  0
  5 40  1  0  0  0
  6  7  1  0  0  0
  6 32  1  0  0  0
  7  8  2  0  0  0
  7 41  1  0  0  0
  8  9  1  0  0  0
  9 10  2  0  0  0
  9 31  1  0  0  0
 10 11  1  0  0  0
 10 42  1  0  0  0
 11 12  2  0  0  0
 11 43  1  0  0  0
 12 13  1  0  0  0
 12 44  1  0  0  0
 13 14  1  0  0  0
 13 31  1  0  0  0
 14 15  2  0  0  0
 15 16  1  0  0  0
 15 30  1  0  0  0
 16 17  1  0  0  0
 16 45  1  0  0  0
 17 18  2  0  0  0
 17 22  1  0  0  0
 18 19  1  0  0  0
 18 46  1  0  0  0
 19 20  2  0  0  0
 19 47  1  0  0  0
 20 21  1  0  0  0
 20 48  1  0  0  0
 21 22  2  0  0  0
 21 23  1  0  0  0
 22 49  1  0  0  0
 23 24  1  0  0  0
 23 29  1  0  0  0
 24 25  1  0  0  0
 24 50  1  0  0  0
 24 51  1  0  0  0
 25 26  1  0  0  0
 25 52  1  0  0  0
 25 53  1  0  0  0
 26 27  1  0  0  0
 26 28  1  0  0  0
 27 54  1  0  0  0
 27 55  1  0  0  0
 27 56  1  0  0  0
 28 29  1  0  0  0
 28 57  1  0  0  0
 28 58  1  0  0  0
 29 59  1  0  0  0
 29 60  1  0  0  0
 30 31  2  0  0  0
 32 33  1  0  0  0
 32 34  1  0  0  0
 32 35  1  0  0  0
M  END
> <s_m_entry_id>
47550

> <s_m_entry_name>
dock_pv.83

> <s_m_Source_Path>
/home/csk/Desktop/cluster/DUD-E-result/fak1

> <s_m_Source_File>
dock_pv.maegz

> <i_m_Source_File_Index>
83

> <chembl_id>
CHEMBL3644987

> <chembl_pref_name>
None

> <i_lp_mmshare_version>
53161

> <i_f3d_flags>
0

> <r_lp_tautomer_probability>
1

> <s_lp_Force_Field>
OPLS_2005

> <r_lp_Energy>
48.707965

> <b_lp_Chiralities_Consistent>
1

> <s_lp_Variant>
CHEMBL2695_lig789-1

> <s_i_glide_gridfile>
glide-grid_3bz3

> <i_i_glide_lignum>
847

> <i_i_glide_rotatable_bonds>
6

> <r_i_docking_score>
-8.29659824110436

> <r_i_glide_ligand_efficiency>
-0.237045664031553

> <r_i_glide_ligand_efficiency_sa>
-0.775392084670967

> <r_i_glide_ligand_efficiency_ln>
-1.82128744699954

> <r_i_glide_gscore>
-8.29659824110436

> <r_i_glide_lipo>
-3.16697792977194

> <r_i_glide_hbond>
-0.0284828836998593

> <r_i_glide_metal>
0

> <r_i_glide_rewards>
-2.21882206415626

> <r_i_glide_evdw>
-42.2301330566406

> <r_i_glide_ecoul>
-6.21847105026245

> <r_i_glide_erotb>
0.348683580526066

> <r_i_glide_esite>
-0.186721633630961

> <r_i_glide_emodel>
-57.8057490974705

> <r_i_glide_energy>
-48.4486041069031

> <r_i_glide_einternal>
18.3711471557617

> <i_i_glide_confnum>
43

> <i_i_glide_posenum>
116

> <r_i_glide_eff_state_penalty>
0

> <s_user_duplicate_titles>
CHEMBL2695_lig789

> <s_m_subgroup_title>
dock_pv

> <s_m_subgroupid>
dock_pv

> <b_m_subgroup_collapsed>
1

$$$$
CHEMBL2695_lig2184
                    3D
 Schrodinger Suite 2021-1.
 37 39  0  0  1  0            999 V2000
    3.6577    4.8091    6.3091 O   0  0  0  0  0  0
   10.2351    3.7552    5.8730 N   0  0  0  0  0  0
    8.5078    2.2826    5.1092 N   0  0  0  0  0  0
   10.7164    1.5286    5.1128 N   0  0  0  0  0  0
   12.5016    2.9490    5.9091 N   0  0  0  0  0  0
    3.0702    3.1629    3.5099 N   0  0  0  0  0  0
   11.5601    3.9048    6.1451 C   0  0  0  0  0  0
    9.8594    2.5489    5.3728 C   0  0  0  0  0  0
    7.3043    2.9498    5.4157 C   0  0  0  0  0  0
   11.9848    5.1627    6.8471 C   0  0  0  0  0  0
    4.8707    3.0282    5.1798 C   0  0  0  0  0  0
    6.1087    2.4242    4.9092 C   0  0  0  0  0  0
    4.8311    4.1757    5.9851 C   0  0  0  0  0  0
    7.2367    4.0934    6.2209 C   0  0  0  0  0  0
    6.0135    4.6975    6.4933 C   0  0  0  0  0  0
   12.0150    1.7859    5.4135 C   0  0  0  0  0  0
   13.1837    5.2160    7.5776 C   0  0  0  0  0  0
   11.1662    6.3037    6.8456 C   0  0  0  0  0  0
    3.5943    2.4038    4.6323 C   0  0  0  0  0  0
   13.5148    6.3390    8.3302 C   0  0  0  0  0  0
   11.5220    7.4488    7.5524 C   0  0  0  0  0  0
   12.6855    7.4528    8.3103 C   0  0  0  0  0  0
    3.1576    5.0994    5.5385 H   0  0  0  0  0  0
    8.3746    1.3783    4.6805 H   0  0  0  0  0  0
    2.3208    2.6456    3.0675 H   0  0  0  0  0  0
    2.6470    4.0238    3.8424 H   0  0  0  0  0  0
    6.1386    1.5365    4.2941 H   0  0  0  0  0  0
    8.1109    4.5351    6.6657 H   0  0  0  0  0  0
    5.9803    5.5761    7.1089 H   0  0  0  0  0  0
   12.7386    1.0132    5.2089 H   0  0  0  0  0  0
   13.8445    4.3625    7.6174 H   0  0  0  0  0  0
   10.2299    6.3036    6.3095 H   0  0  0  0  0  0
    2.8423    2.3404    5.4215 H   0  0  0  0  0  0
    3.7930    1.3798    4.3076 H   0  0  0  0  0  0
   14.4015    6.3434    8.9434 H   0  0  0  0  0  0
   10.8835    8.3197    7.5390 H   0  0  0  0  0  0
   12.9419    8.3228    8.8968 H   0  0  0  0  0  0
  1 13  1  0  0  0
  1 23  1  0  0  0
  2  7  2  0  0  0
  2  8  1  0  0  0
  3  8  1  0  0  0
  3  9  1  0  0  0
  3 24  1  0  0  0
  4  8  2  0  0  0
  4 16  1  0  0  0
  5  7  1  0  0  0
  5 16  2  0  0  0
  6 19  1  0  0  0
  6 25  1  0  0  0
  6 26  1  0  0  0
  7 10  1  0  0  0
  9 12  1  0  0  0
  9 14  2  0  0  0
 10 17  2  0  0  0
 10 18  1  0  0  0
 11 12  2  0  0  0
 11 13  1  0  0  0
 11 19  1  0  0  0
 12 27  1  0  0  0
 13 15  2  0  0  0
 14 15  1  0  0  0
 14 28  1  0  0  0
 15 29  1  0  0  0
 16 30  1  0  0  0
 17 20  1  0  0  0
 17 31  1  0  0  0
 18 21  2  0  0  0
 18 32  1  0  0  0
 19 33  1  0  0  0
 19 34  1  0  0  0
 20 22  2  0  0  0
 20 35  1  0  0  0
 21 22  1  0  0  0
 21 36  1  0  0  0
 22 37  1  0  0  0
M  END
> <s_m_entry_id>
47551

> <s_m_entry_name>
dock_pv.84

> <s_m_Source_Path>
/home/csk/Desktop/cluster/DUD-E-result/fak1

> <s_m_Source_File>
dock_pv.maegz

> <i_m_Source_File_Index>
84

> <chembl_id>
CHEMBL1980246

> <chembl_pref_name>
None

> <i_lp_mmshare_version>
53161

> <i_f3d_flags>
0

> <r_lp_tautomer_probability>
1

> <s_lp_Force_Field>
OPLS_2005

> <r_lp_Energy>
6.848779

> <b_lp_Chiralities_Consistent>
1

> <s_lp_Variant>
CHEMBL2695_lig2184-1

> <s_i_glide_gridfile>
glide-grid_3bz3

> <i_i_glide_lignum>
2654

> <i_i_glide_rotatable_bonds>
5

> <r_i_docking_score>
-8.2880924830981

> <r_i_glide_ligand_efficiency>
-0.376731476504459

> <r_i_glide_ligand_efficiency_sa>
-1.05561641317372

> <r_i_glide_ligand_efficiency_ln>
-2.02591211838793

> <r_i_glide_gscore>
-8.2880924830981

> <r_i_glide_lipo>
-2.31849308192547

> <r_i_glide_hbond>
-0.860397968409844

> <r_i_glide_metal>
0

> <r_i_glide_rewards>
-2.61984298559434

> <r_i_glide_evdw>
-33.4785041809082

> <r_i_glide_ecoul>
-9.40164566040039

> <r_i_glide_erotb>
0.637076170713939

> <r_i_glide_esite>
-0.0422625597769062

> <r_i_glide_emodel>
-60.8974605863155

> <r_i_glide_energy>
-42.8801498413086

> <r_i_glide_einternal>
3.94369626045227

> <i_i_glide_confnum>
7

> <i_i_glide_posenum>
229

> <r_i_glide_eff_state_penalty>
0

> <s_user_duplicate_titles>
CHEMBL2695_lig2184

> <s_m_subgroup_title>
dock_pv

> <s_m_subgroupid>
dock_pv

> <b_m_subgroup_collapsed>
1

$$$$
CHEMBL2695_lig324
                    3D
 Schrodinger Suite 2021-1.
 45 48  0  0  1  0            999 V2000
    8.6076    4.0365    6.6726 C   0  0  0  0  0  0
    9.8563    4.6316    6.9055 N   0  0  0  0  0  0
   12.9086    2.7155    5.8380 C   0  0  0  0  0  0
   11.5248    3.0314    5.9331 C   0  0  0  0  0  0
   11.1797    4.2476    6.5977 C   0  0  0  0  0  0
   12.2516    5.0674    7.0315 C   0  0  0  0  0  0
   13.5659    4.6231    6.8680 C   0  0  0  0  0  0
   13.9220    3.4419    6.3089 N   0  0  0  0  0  0
   13.0246    1.5632    5.0898 N   0  0  0  0  0  0
   10.8527    1.9226    5.2965 C   0  0  0  0  0  0
   11.7899    1.1630    4.6161 C   0  0  0  0  0  0
   11.5938    0.1715    3.5089 C   0  0  0  0  0  0
   12.6817   -0.1978    2.7078 C   0  0  0  0  0  0
   12.5071   -1.0867    1.6524 C   0  0  0  0  0  0
   11.2428   -1.6016    1.3850 C   0  0  0  0  0  0
   10.1500   -1.2367    2.1675 C   0  0  0  0  0  0
   10.3247   -0.3462    3.2238 C   0  0  0  0  0  0
   11.0774   -2.4547    0.3492 F   0  0  0  0  0  0
    8.2917    3.6338    5.3713 C   0  0  0  0  0  0
    7.1203    2.9343    5.1091 C   0  0  0  0  0  0
    6.1948    2.7292    6.1208 C   0  0  0  0  0  0
    6.4498    3.2091    7.4004 C   0  0  0  0  0  0
    7.6603    3.8631    7.7155 C   0  0  0  0  0  0
    7.9009    4.3597    9.1389 C   0  0  0  0  0  0
    8.7969    5.1628    9.4129 O   0  0  0  0  0  0
    7.0667    3.8765   10.0761 N   0  0  0  0  0  0
    6.9741    4.3676   11.4393 C   0  0  0  0  0  0
   12.0648    6.3637    7.6833 C   0  0  0  0  0  0
   11.9221    7.3890    8.1977 N   0  0  0  0  0  0
    9.8166    5.2418    7.7144 H   0  0  0  0  0  0
   14.3980    5.2207    7.2204 H   0  0  0  0  0  0
   13.8875    1.1215    4.8055 H   0  0  0  0  0  0
    9.7965    1.7524    5.1896 H   0  0  0  0  0  0
   13.6690    0.1985    2.8904 H   0  0  0  0  0  0
   13.3497   -1.3761    1.0424 H   0  0  0  0  0  0
    9.1683   -1.6290    1.9464 H   0  0  0  0  0  0
    9.4649   -0.0438    3.8051 H   0  0  0  0  0  0
    8.9890    3.8092    4.5649 H   0  0  0  0  0  0
    6.9387    2.5321    4.1240 H   0  0  0  0  0  0
    5.2794    2.1942    5.9115 H   0  0  0  0  0  0
    5.6815    3.0457    8.1423 H   0  0  0  0  0  0
    6.4551    3.1123    9.8301 H   0  0  0  0  0  0
    5.9265    4.3627   11.7437 H   0  0  0  0  0  0
    7.3383    5.3940   11.5097 H   0  0  0  0  0  0
    7.5443    3.7389   12.1237 H   0  0  0  0  0  0
  1  2  1  0  0  0
  1 19  2  0  0  0
  1 23  1  0  0  0
  2  5  1  0  0  0
  2 30  1  0  0  0
  3  4  1  0  0  0
  3  8  2  0  0  0
  3  9  1  0  0  0
  4  5  2  0  0  0
  4 10  1  0  0  0
  5  6  1  0  0  0
  6  7  2  0  0  0
  6 28  1  0  0  0
  7  8  1  0  0  0
  7 31  1  0  0  0
  9 11  1  0  0  0
  9 32  1  0  0  0
 10 11  2  0  0  0
 10 33  1  0  0  0
 11 12  1  0  0  0
 12 13  2  0  0  0
 12 17  1  0  0  0
 13 14  1  0  0  0
 13 34  1  0  0  0
 14 15  2  0  0  0
 14 35  1  0  0  0
 15 16  1  0  0  0
 15 18  1  0  0  0
 16 17  2  0  0  0
 16 36  1  0  0  0
 17 37  1  0  0  0
 19 20  1  0  0  0
 19 38  1  0  0  0
 20 21  2  0  0  0
 20 39  1  0  0  0
 21 22  1  0  0  0
 21 40  1  0  0  0
 22 23  2  0  0  0
 22 41  1  0  0  0
 23 24  1  0  0  0
 24 25  2  0  0  0
 24 26  1  0  0  0
 26 27  1  0  0  0
 26 42  1  0  0  0
 27 43  1  0  0  0
 27 44  1  0  0  0
 27 45  1  0  0  0
 28 29  3  0  0  0
M  END
> <s_m_entry_id>
47552

> <s_m_entry_name>
dock_pv.85

> <s_m_Source_Path>
/home/csk/Desktop/cluster/DUD-E-result/fak1

> <s_m_Source_File>
dock_pv.maegz

> <i_m_Source_File_Index>
85

> <chembl_id>
CHEMBL2315564

> <chembl_pref_name>
None

> <i_lp_mmshare_version>
53161

> <i_f3d_flags>
0

> <r_lp_tautomer_probability>
1

> <s_lp_Force_Field>
OPLS_2005

> <r_lp_Energy>
26.474779

> <b_lp_Chiralities_Consistent>
1

> <s_lp_Variant>
CHEMBL2695_lig324-1

> <s_i_glide_gridfile>
glide-grid_3bz3

> <i_i_glide_lignum>
366

> <i_i_glide_rotatable_bonds>
5

> <r_i_docking_score>
-8.26286927576185

> <r_i_glide_ligand_efficiency>
-0.284926526750409

> <r_i_glide_ligand_efficiency_sa>
-0.87538456123695

> <r_i_glide_ligand_efficiency_ln>
-1.89198753586323

> <r_i_glide_gscore>
-8.26286927576185

> <r_i_glide_lipo>
-2.50322951852691

> <r_i_glide_hbond>
-0.134183920294578

> <r_i_glide_metal>
0

> <r_i_glide_rewards>
-2.39926580127516

> <r_i_glide_evdw>
-48.3283882141113

> <r_i_glide_ecoul>
-8.698561668396

> <r_i_glide_erotb>
0.523874479693801

> <r_i_glide_esite>
-0.0288608543940383

> <r_i_glide_emodel>
-76.2367394282626

> <r_i_glide_energy>
-57.0269498825073

> <r_i_glide_einternal>
8.00415229797363

> <i_i_glide_confnum>
14

> <i_i_glide_posenum>
37

> <r_i_glide_eff_state_penalty>
0

> <s_user_duplicate_titles>
CHEMBL2695_lig324

> <s_m_subgroup_title>
dock_pv

> <s_m_subgroupid>
dock_pv

> <b_m_subgroup_collapsed>
1

$$$$
CHEMBL2695_lig2101
                    3D
 Schrodinger Suite 2021-1.
 43 45  0  0  1  0            999 V2000
   12.2213    2.5040    5.6811 N   0  0  0  0  0  0
   13.5129    2.7461    6.0052 C   0  0  0  0  0  0
   14.0095    3.8344    6.6377 N   0  0  0  0  0  0
   11.2707    3.4668    5.9096 C   0  0  0  0  0  0
   11.6966    4.6895    6.5143 C   0  0  0  0  0  0
   13.0826    4.7635    6.8695 C   0  0  0  0  0  0
   13.3056    5.9596    7.5103 N   0  0  0  0  0  0
   12.1493    6.6958    7.5114 C   0  0  0  0  0  0
   11.1546    5.9754    6.8771 C   0  0  0  0  0  0
    9.9308    3.1894    5.4692 N   0  0  0  0  0  0
    8.7467    3.7622    6.1642 C   0  0  2  0  0  0
    9.7246    1.8952    4.7895 C   0  0  0  0  0  0
    8.4204    2.9389    7.4270 C   0  0  0  0  0  0
    7.1667    3.4067    8.0683 N   0  0  0  0  0  0
    5.9684    3.6604    7.2319 C   0  0  0  0  0  0
    6.3902    4.5608    6.0607 C   0  0  0  0  0  0
    7.5062    3.9075    5.2406 C   0  0  1  0  0  0
    7.8300    4.7404    4.0003 C   0  0  0  0  0  0
    7.0964    3.3982    9.4273 C   0  0  0  0  0  0
    8.0689    3.1625   10.1495 O   0  0  0  0  0  0
    5.7754    3.7381   10.1188 C   0  0  0  0  0  0
    4.6214    2.8827    9.7841 C   0  0  0  0  0  0
    3.7139    2.2155    9.5089 N   0  0  0  0  0  0
   14.2144    1.9633    5.7649 H   0  0  0  0  0  0
   14.1817    6.2910    7.8932 H   0  0  0  0  0  0
   12.1415    7.6883    7.9413 H   0  0  0  0  0  0
   10.1679    6.3609    6.7093 H   0  0  0  0  0  0
    8.9906    4.7601    6.4987 H   0  0  0  0  0  0
   10.4689    1.7401    4.0072 H   0  0  0  0  0  0
    9.8296    1.0744    5.5000 H   0  0  0  0  0  0
    8.7545    1.7971    4.3093 H   0  0  0  0  0  0
    9.2704    3.1631    8.0740 H   0  0  0  0  0  0
    8.3379    1.8766    7.1919 H   0  0  0  0  0  0
    5.5821    2.7107    6.8566 H   0  0  0  0  0  0
    5.1887    4.2196    7.7476 H   0  0  0  0  0  0
    5.5246    4.7346    5.4186 H   0  0  0  0  0  0
    6.6661    5.5581    6.3976 H   0  0  0  0  0  0
    7.1367    2.9296    4.9294 H   0  0  0  0  0  0
    8.4550    5.5628    4.3096 H   0  0  0  0  0  0
    8.3857    4.1629    3.2633 H   0  0  0  0  0  0
    6.9463    5.1627    3.5203 H   0  0  0  0  0  0
    5.5221    4.7641    9.8775 H   0  0  0  0  0  0
    5.9227    3.7158   11.1957 H   0  0  0  0  0  0
  1  2  1  0  0  0
  1  4  2  0  0  0
  2  3  2  0  0  0
  2 24  1  0  0  0
  3  6  1  0  0  0
  4  5  1  0  0  0
  4 10  1  0  0  0
  5  9  1  0  0  0
  5  6  2  0  0  0
  6  7  1  0  0  0
  7  8  1  0  0  0
  7 25  1  0  0  0
  8  9  2  0  0  0
  8 26  1  0  0  0
  9 27  1  0  0  0
 10 11  1  0  0  0
 10 12  1  0  0  0
 11 13  1  0  0  0
 11 17  1  0  0  0
 11 28  1  0  0  0
 12 29  1  0  0  0
 12 30  1  0  0  0
 12 31  1  0  0  0
 13 14  1  0  0  0
 13 32  1  0  0  0
 13 33  1  0  0  0
 14 15  1  0  0  0
 14 19  1  0  0  0
 15 16  1  0  0  0
 15 34  1  0  0  0
 15 35  1  0  0  0
 16 17  1  0  0  0
 16 36  1  0  0  0
 16 37  1  0  0  0
 17 18  1  0  0  0
 17 38  1  0  0  0
 18 39  1  0  0  0
 18 40  1  0  0  0
 18 41  1  0  0  0
 19 20  2  0  0  0
 19 21  1  0  0  0
 21 22  1  0  0  0
 21 42  1  0  0  0
 21 43  1  0  0  0
 22 23  3  0  0  0
M  END
> <s_m_entry_id>
47553

> <s_m_entry_name>
dock_pv.86

> <s_m_Source_Path>
/home/csk/Desktop/cluster/DUD-E-result/fak1

> <s_m_Source_File>
dock_pv.maegz

> <i_m_Source_File_Index>
86

> <chembl_id>
CHEMBL234085

> <chembl_pref_name>
None

> <i_lp_mmshare_version>
53161

> <i_f3d_flags>
0

> <r_lp_tautomer_probability>
0.999998369746258

> <s_lp_Force_Field>
OPLS_2005

> <r_lp_Energy>
24.687755

> <b_lp_Chiralities_Consistent>
1

> <s_lp_Variant>
CHEMBL2695_lig2101-3

> <s_i_glide_gridfile>
glide-grid_3bz3

> <i_i_glide_lignum>
2529

> <i_i_glide_rotatable_bonds>
4

> <r_i_docking_score>
-8.25612125989262

> <r_i_glide_ligand_efficiency>
-0.358961793908375

> <r_i_glide_ligand_efficiency_sa>
-1.02083959165736

> <r_i_glide_ligand_efficiency_ln>
-1.99640498301064

> <r_i_glide_gscore>
-8.25612125989262

> <r_i_glide_lipo>
-2.30148273914284

> <r_i_glide_hbond>
-0.313830125079068

> <r_i_glide_metal>
0

> <r_i_glide_rewards>
-3.47332652750718

> <r_i_glide_evdw>
-33.3833045959473

> <r_i_glide_ecoul>
-5.73197603225708

> <r_i_glide_erotb>
0.399420155265354

> <r_i_glide_esite>
-0.0379403887929588

> <r_i_glide_emodel>
-56.1612365569473

> <r_i_glide_energy>
-39.1152806282043

> <r_i_glide_einternal>
2.70727109909058

> <i_i_glide_confnum>
6

> <i_i_glide_posenum>
67

> <r_i_glide_eff_state_penalty>
0

> <s_user_duplicate_titles>
CHEMBL2695_lig2101

> <s_m_subgroup_title>
dock_pv

> <s_m_subgroupid>
dock_pv

> <b_m_subgroup_collapsed>
1

$$$$
CHEMBL2695_lig1293
                    3D
 Schrodinger Suite 2021-1.
 58 61  0  0  1  0            999 V2000
    3.7032    2.6435    4.0263 C   0  0  0  0  0  0
    4.5884    1.9777    5.0932 C   0  0  0  0  0  0
    3.9126    1.9701    6.4702 C   0  0  0  0  0  0
    5.9428    2.5906    5.1196 N   0  0  3  0  0  0
    6.3001    4.2511    5.6051 S   0  0  0  0  0  0
    7.3505    4.7350    4.7068 O   0  0  0  0  0  0
    5.0404    4.9932    5.7199 O   0  0  0  0  0  0
    6.9788    4.1502    7.2777 C   0  0  0  0  0  0
    6.0608    3.9632    8.3211 C   0  0  0  0  0  0
    6.4732    3.9638    9.6500 C   0  0  0  0  0  0
    7.8086    4.1909    9.9540 C   0  0  0  0  0  0
    8.7300    4.3693    8.9245 C   0  0  0  0  0  0
    8.3510    4.3077    7.5775 C   0  0  0  0  0  0
    9.3151    4.3437    6.5489 N   0  0  0  0  0  0
   10.7164    4.3025    6.5699 C   0  0  0  0  0  0
   11.2791    3.2528    5.9088 N   0  0  0  0  0  0
   12.6401    3.1458    5.9092 C   0  0  0  0  0  0
   13.2729    2.0358    5.3238 N   0  0  0  0  0  0
   12.8500    1.1631    4.3092 C   0  0  0  0  0  0
   11.5199    0.7629    4.1650 C   0  0  0  0  0  0
   11.1552   -0.0671    3.1090 C   0  0  0  0  0  0
   12.1138   -0.4739    2.1662 C   0  0  0  0  0  0
   11.8520   -1.2727    1.0684 O   0  0  0  0  0  0
   10.5448   -1.8024    0.8579 C   0  0  0  0  0  0
   10.6025   -2.5445   -0.2472 F   0  0  0  0  0  0
   10.1661   -2.5953    1.8626 F   0  0  0  0  0  0
    9.6491   -0.8375    0.6485 F   0  0  0  0  0  0
   13.4348   -0.0512    2.3092 C   0  0  0  0  0  0
   13.8056    0.7624    3.3752 C   0  0  0  0  0  0
   13.4836    4.0354    6.4928 N   0  0  0  0  0  0
   12.8883    5.0880    7.1088 C   0  0  0  0  0  0
   13.5581    6.0761    7.8189 N   0  0  0  0  0  0
   12.6448    7.1529    8.1621 C   0  0  0  0  0  0
   11.2490    6.5852    7.8717 C   0  0  0  0  0  0
   11.5209    5.2858    7.1586 C   0  0  0  0  0  0
    2.7505    2.1217    3.9279 H   0  0  0  0  0  0
    4.1872    2.6144    3.0509 H   0  0  0  0  0  0
    3.4749    3.6834    4.2604 H   0  0  0  0  0  0
    4.7226    0.9397    4.7843 H   0  0  0  0  0  0
    3.0276    1.3341    6.4565 H   0  0  0  0  0  0
    4.5784    1.5784    7.2397 H   0  0  0  0  0  0
    3.5813    2.9653    6.7630 H   0  0  0  0  0  0
    6.6913    2.0636    4.6616 H   0  0  0  0  0  0
    5.0078    3.8625    8.1155 H   0  0  0  0  0  0
    5.7498    3.8295   10.4425 H   0  0  0  0  0  0
    8.1275    4.2284   10.9855 H   0  0  0  0  0  0
    9.7548    4.5531    9.1905 H   0  0  0  0  0  0
    8.9379    3.9877    5.6801 H   0  0  0  0  0  0
   14.2703    2.0310    5.4733 H   0  0  0  0  0  0
   10.7605    1.0601    4.8717 H   0  0  0  0  0  0
   10.1181   -0.3611    3.0313 H   0  0  0  0  0  0
   14.1799   -0.3599    1.5898 H   0  0  0  0  0  0
   14.8345    1.0786    3.4711 H   0  0  0  0  0  0
   14.5489    6.2595    7.9435 H   0  0  0  0  0  0
   12.7602    7.4446    9.2073 H   0  0  0  0  0  0
   12.8546    8.0204    7.5358 H   0  0  0  0  0  0
   10.7222    7.2915    7.2317 H   0  0  0  0  0  0
   10.7186    6.4777    8.8145 H   0  0  0  0  0  0
  1  2  1  0  0  0
  1 36  1  0  0  0
  1 37  1  0  0  0
  1 38  1  0  0  0
  2  3  1  0  0  0
  2  4  1  0  0  0
  2 39  1  0  0  0
  3 40  1  0  0  0
  3 41  1  0  0  0
  3 42  1  0  0  0
  4  5  1  0  0  0
  4 43  1  0  0  0
  5  6  2  0  0  0
  5  7  2  0  0  0
  5  8  1  0  0  0
  8  9  2  0  0  0
  8 13  1  0  0  0
  9 10  1  0  0  0
  9 44  1  0  0  0
 10 11  2  0  0  0
 10 45  1  0  0  0
 11 12  1  0  0  0
 11 46  1  0  0  0
 12 13  2  0  0  0
 12 47  1  0  0  0
 13 14  1  0  0  0
 14 15  1  0  0  0
 14 48  1  0  0  0
 15 16  2  0  0  0
 15 35  1  0  0  0
 16 17  1  0  0  0
 17 18  1  0  0  0
 17 30  2  0  0  0
 18 19  1  0  0  0
 18 49  1  0  0  0
 19 20  2  0  0  0
 19 29  1  0  0  0
 20 21  1  0  0  0
 20 50  1  0  0  0
 21 22  2  0  0  0
 21 51  1  0  0  0
 22 23  1  0  0  0
 22 28  1  0  0  0
 23 24  1  0  0  0
 24 25  1  0  0  0
 24 26  1  0  0  0
 24 27  1  0  0  0
 28 29  2  0  0  0
 28 52  1  0  0  0
 29 53  1  0  0  0
 30 31  1  0  0  0
 31 32  1  0  0  0
 31 35  2  0  0  0
 32 33  1  0  0  0
 32 54  1  0  0  0
 33 34  1  0  0  0
 33 55  1  0  0  0
 33 56  1  0  0  0
 34 35  1  0  0  0
 34 57  1  0  0  0
 34 58  1  0  0  0
M  END
> <s_m_entry_id>
47554

> <s_m_entry_name>
dock_pv.87

> <s_m_Source_Path>
/home/csk/Desktop/cluster/DUD-E-result/fak1

> <s_m_Source_File>
dock_pv.maegz

> <i_m_Source_File_Index>
87

> <chembl_id>
CHEMBL3979231

> <chembl_pref_name>
None

> <i_lp_mmshare_version>
53161

> <i_f3d_flags>
0

> <r_lp_tautomer_probability>
1

> <s_lp_Force_Field>
OPLS_2005

> <r_lp_Energy>
26.832854

> <b_lp_Chiralities_Consistent>
1

> <s_lp_Variant>
CHEMBL2695_lig1293-1

> <s_i_glide_gridfile>
glide-grid_3bz3

> <i_i_glide_lignum>
1411

> <i_i_glide_rotatable_bonds>
9

> <r_i_docking_score>
-8.25473305554603

> <r_i_glide_ligand_efficiency>
-0.235849515872744

> <r_i_glide_ligand_efficiency_sa>
-0.771479404731328

> <r_i_glide_ligand_efficiency_ln>
-1.81209710962175

> <r_i_glide_gscore>
-8.25473305554603

> <r_i_glide_lipo>
-3.76426909805574

> <r_i_glide_hbond>
-0.342663809876055

> <r_i_glide_metal>
0

> <r_i_glide_rewards>
-1.31878434112616

> <r_i_glide_evdw>
-49.2505226135254

> <r_i_glide_ecoul>
-5.23004961013794

> <r_i_glide_erotb>
0.554223512639817

> <r_i_glide_esite>
-0.136205746930931

> <r_i_glide_emodel>
-71.1014330085195

> <r_i_glide_energy>
-54.4805722236633

> <r_i_glide_einternal>
17.2745666503906

> <i_i_glide_confnum>
6

> <i_i_glide_posenum>
337

> <r_i_glide_eff_state_penalty>
0

> <s_user_duplicate_titles>
CHEMBL2695_lig1293

> <s_m_subgroup_title>
dock_pv

> <s_m_subgroupid>
dock_pv

> <b_m_subgroup_collapsed>
1

$$$$
CHEMBL2695_lig405
                    3D
 Schrodinger Suite 2021-1.
 32 34  0  0  1  0            999 V2000
    9.2298    1.1666    4.7088 O   0  0  0  0  0  0
    9.7406    2.2816    5.3121 C   0  0  0  0  0  0
    9.0165    3.3673    5.6749 C   0  0  0  0  0  0
    9.5490    4.4571    6.2959 O   0  0  0  0  0  0
   10.9110    4.5118    6.5046 C   0  0  0  0  0  0
   11.3923    5.6363    7.1679 C   0  0  0  0  0  0
   12.7484    5.7487    7.4381 C   0  0  0  0  0  0
   13.2279    6.8215    8.1314 O   0  0  0  0  0  0
   13.6277    4.7695    6.9965 C   0  0  0  0  0  0
   13.1522    3.6591    6.3090 C   0  0  0  0  0  0
   14.0702    2.7311    5.9091 O   0  0  0  0  0  0
   11.7728    3.4837    6.0978 C   0  0  0  0  0  0
   11.1959    2.2318    5.5090 C   0  0  0  0  0  0
   11.9215    1.2784    5.2114 O   0  0  0  0  0  0
    7.5438    3.4993    5.5811 C   0  0  0  0  0  0
    6.9725    4.7231    5.2159 C   0  0  0  0  0  0
    5.5888    4.8727    5.1290 C   0  0  0  0  0  0
    4.7510    3.7914    5.4006 C   0  0  0  0  0  0
    3.3924    3.9630    5.3158 O   0  0  0  0  0  0
    5.3078    2.5506    5.7413 C   0  0  0  0  0  0
    4.5211    1.4492    5.9701 O   0  0  0  0  0  0
    6.6935    2.4149    5.8345 C   0  0  0  0  0  0
    8.3968    1.3615    4.2642 H   0  0  0  0  0  0
   10.7167    6.4093    7.4923 H   0  0  0  0  0  0
   14.1812    6.7622    8.2476 H   0  0  0  0  0  0
   14.6868    4.8694    7.1878 H   0  0  0  0  0  0
   13.6289    1.9700    5.5099 H   0  0  0  0  0  0
    7.6141    5.5630    5.0018 H   0  0  0  0  0  0
    5.1715    5.8300    4.8541 H   0  0  0  0  0  0
    3.1223    4.8176    4.9452 H   0  0  0  0  0  0
    5.0130    0.6213    5.8618 H   0  0  0  0  0  0
    7.1058    1.4579    6.1216 H   0  0  0  0  0  0
  1  2  1  0  0  0
  1 23  1  0  0  0
  2  3  2  0  0  0
  2 13  1  0  0  0
  3  4  1  0  0  0
  3 15  1  0  0  0
  4  5  1  0  0  0
  5  6  2  0  0  0
  5 12  1  0  0  0
  6  7  1  0  0  0
  6 24  1  0  0  0
  7  8  1  0  0  0
  7  9  2  0  0  0
  8 25  1  0  0  0
  9 10  1  0  0  0
  9 26  1  0  0  0
 10 11  1  0  0  0
 10 12  2  0  0  0
 11 27  1  0  0  0
 12 13  1  0  0  0
 13 14  2  0  0  0
 15 16  2  0  0  0
 15 22  1  0  0  0
 16 17  1  0  0  0
 16 28  1  0  0  0
 17 18  2  0  0  0
 17 29  1  0  0  0
 18 19  1  0  0  0
 18 20  1  0  0  0
 19 30  1  0  0  0
 20 21  1  0  0  0
 20 22  2  0  0  0
 21 31  1  0  0  0
 22 32  1  0  0  0
M  END
> <s_m_entry_id>
47555

> <s_m_entry_name>
dock_pv.88

> <s_m_Source_Path>
/home/csk/Desktop/cluster/DUD-E-result/fak1

> <s_m_Source_File>
dock_pv.maegz

> <i_m_Source_File_Index>
88

> <chembl_id>
CHEMBL50

> <chembl_pref_name>
QUERCETIN

> <i_lp_mmshare_version>
53161

> <i_f3d_flags>
0

> <r_lp_tautomer_probability>
0.999999999999776

> <s_lp_Force_Field>
OPLS_2005

> <r_lp_Energy>
20.019118

> <b_lp_Chiralities_Consistent>
1

> <s_lp_Variant>
CHEMBL2695_lig405-1

> <s_i_glide_gridfile>
glide-grid_3bz3

> <i_i_glide_lignum>
453

> <i_i_glide_rotatable_bonds>
6

> <r_i_docking_score>
-8.23559047938809

> <r_i_glide_ligand_efficiency>
-0.374345021790368

> <r_i_glide_ligand_efficiency_sa>
-1.0489294732109

> <r_i_glide_ligand_efficiency_ln>
-2.01307871362409

> <r_i_glide_gscore>
-8.23559047938809

> <r_i_glide_lipo>
-3.18943887709042

> <r_i_glide_hbond>
-0.0929307892181211

> <r_i_glide_metal>
0

> <r_i_glide_rewards>
-1.44839295454545

> <r_i_glide_evdw>
-31.3652839660645

> <r_i_glide_ecoul>
-14.2539577484131

> <r_i_glide_erotb>
0.20153000203109

> <r_i_glide_esite>
0

> <r_i_glide_emodel>
-66.9842314167571

> <r_i_glide_energy>
-45.6192417144775

> <r_i_glide_einternal>
3.20769214630127

> <i_i_glide_confnum>
2

> <i_i_glide_posenum>
288

> <r_i_glide_eff_state_penalty>
0

> <s_user_duplicate_titles>
CHEMBL2695_lig405

> <s_m_subgroup_title>
dock_pv

> <s_m_subgroupid>
dock_pv

> <b_m_subgroup_collapsed>
1

$$$$
CHEMBL2695_lig1760
                    3D
 Schrodinger Suite 2021-1.
 39 42  0  0  1  0            999 V2000
    8.2129    4.7628    5.3073 O   0  0  0  0  0  0
    4.5111    2.7542    4.7610 O   0  0  0  0  0  0
    5.9221    3.5627   10.3087 O   0  0  0  0  0  0
    5.0133    2.2691    6.9479 N   0  0  0  0  0  0
    6.8304    4.5898    5.2839 N   0  0  0  0  0  0
   14.3220    3.7059    6.7090 N   0  0  0  0  0  0
   14.3218    4.9160    7.2875 N   0  0  0  0  0  0
    8.8101    3.5679    5.5476 C   0  0  0  0  0  0
    6.6190    3.3110    5.5094 C   0  0  0  0  0  0
   10.2797    3.5694    5.7679 C   0  0  0  0  0  0
    5.3072    2.7548    5.7042 C   0  0  0  0  0  0
    7.8260    2.6052    5.5978 C   0  0  0  0  0  0
   12.2254    4.7035    6.6208 C   0  0  0  0  0  0
   13.0220    3.5569    6.3090 C   0  0  0  0  0  0
   10.8631    4.7186    6.3082 C   0  0  0  0  0  0
   11.0508    2.4328    5.5090 C   0  0  0  0  0  0
   12.4264    2.4130    5.7546 C   0  0  0  0  0  0
   13.1241    5.5838    7.2654 C   0  0  0  0  0  0
    5.8633    2.4183    8.1545 C   0  0  0  0  0  0
    3.6749    1.7241    7.2261 C   0  0  0  0  0  0
    5.1989    3.4520    9.0969 C   0  0  1  0  0  0
    2.9379    2.7799    8.0786 C   0  0  0  0  0  0
    3.7106    3.1267    9.3681 C   0  0  0  0  0  0
    5.3908    3.1638   11.0127 H   0  0  0  0  0  0
   15.1740    5.3190    7.6741 H   0  0  0  0  0  0
    7.9467    1.5452    5.7753 H   0  0  0  0  0  0
   10.2614    5.5844    6.5450 H   0  0  0  0  0  0
   10.5780    1.5497    5.1031 H   0  0  0  0  0  0
   13.0099    1.5275    5.5496 H   0  0  0  0  0  0
   13.0368    6.5689    7.6999 H   0  0  0  0  0  0
    6.9006    2.6654    7.9385 H   0  0  0  0  0  0
    5.9402    1.4550    8.6608 H   0  0  0  0  0  0
    3.8164    0.8044    7.7958 H   0  0  0  0  0  0
    3.1435    1.4067    6.3270 H   0  0  0  0  0  0
    5.2565    4.4357    8.6281 H   0  0  0  0  0  0
    1.9437    2.4129    8.3339 H   0  0  0  0  0  0
    2.7750    3.6807    7.4841 H   0  0  0  0  0  0
    3.6440    2.2789   10.0519 H   0  0  0  0  0  0
    3.2284    3.9628    9.8760 H   0  0  0  0  0  0
  1  5  1  0  0  0
  1  8  1  0  0  0
  2 11  2  0  0  0
  3 21  1  0  0  0
  3 24  1  0  0  0
  4 11  1  0  0  0
  4 19  1  0  0  0
  4 20  1  0  0  0
  5  9  2  0  0  0
  6  7  1  0  0  0
  6 14  2  0  0  0
  7 25  1  0  0  0
  7 18  1  0  0  0
  8 12  2  0  0  0
  8 10  1  0  0  0
  9 11  1  0  0  0
  9 12  1  0  0  0
 10 16  1  0  0  0
 10 15  2  0  0  0
 12 26  1  0  0  0
 13 15  1  0  0  0
 13 14  1  0  0  0
 13 18  2  0  0  0
 14 17  1  0  0  0
 15 27  1  0  0  0
 16 17  2  0  0  0
 16 28  1  0  0  0
 17 29  1  0  0  0
 18 30  1  0  0  0
 19 21  1  0  0  0
 19 31  1  0  0  0
 19 32  1  0  0  0
 20 22  1  0  0  0
 20 33  1  0  0  0
 20 34  1  0  0  0
 21 23  1  0  0  0
 21 35  1  0  0  0
 22 23  1  0  0  0
 22 36  1  0  0  0
 22 37  1  0  0  0
 23 38  1  0  0  0
 23 39  1  0  0  0
M  END
> <s_m_entry_id>
47556

> <s_m_entry_name>
dock_pv.89

> <s_m_Source_Path>
/home/csk/Desktop/cluster/DUD-E-result/fak1

> <s_m_Source_File>
dock_pv.maegz

> <i_m_Source_File_Index>
89

> <chembl_id>
CHEMBL1997340

> <chembl_pref_name>
None

> <i_lp_mmshare_version>
53161

> <i_f3d_flags>
0

> <r_lp_tautomer_probability>
0.0196078431372549

> <s_lp_Force_Field>
OPLS_2005

> <r_lp_Energy>
46.268019

> <b_lp_Chiralities_Consistent>
1

> <s_lp_Variant>
CHEMBL2695_lig1760-4

> <s_i_glide_gridfile>
glide-grid_3bz3

> <i_i_glide_lignum>
2008

> <i_i_glide_rotatable_bonds>
4

> <r_i_docking_score>
-8.23058984222317

> <r_i_glide_ligand_efficiency>
-0.357851732270572

> <r_i_glide_ligand_efficiency_sa>
-1.01768272402332

> <r_i_glide_ligand_efficiency_ln>
-1.99023125471207

> <r_i_glide_gscore>
-8.23058984222317

> <r_i_glide_lipo>
-2.28700442133957

> <r_i_glide_hbond>
-0.864

> <r_i_glide_metal>
0

> <r_i_glide_rewards>
-2.13937403107848

> <r_i_glide_evdw>
-32.4865837097168

> <r_i_glide_ecoul>
-10.9265041351318

> <r_i_glide_erotb>
0.399524359473748

> <r_i_glide_esite>
-0.0764309435232472

> <r_i_glide_emodel>
-59.3421321886699

> <r_i_glide_energy>
-43.4130878448486

> <r_i_glide_einternal>
7.51904392242432

> <i_i_glide_confnum>
3

> <i_i_glide_posenum>
189

> <r_i_glide_eff_state_penalty>
0

> <s_user_duplicate_titles>
CHEMBL2695_lig1760,CHEMBL2695_lig1760

> <s_m_subgroup_title>
dock_pv

> <s_m_subgroupid>
dock_pv

> <b_m_subgroup_collapsed>
1

$$$$
CHEMBL2695_lig1760
                    3D
 Schrodinger Suite 2021-1.
 39 42  0  0  1  0            999 V2000
    8.2810    4.8451    5.1021 O   0  0  0  0  0  0
    4.6330    2.5875    4.5758 O   0  0  0  0  0  0
    5.9217    3.5299   10.2141 O   0  0  0  0  0  0
    4.6333    3.3465    6.7429 N   0  0  0  0  0  0
    6.8939    4.7633    5.0168 N   0  0  0  0  0  0
   14.2941    3.6538    6.7062 N   0  0  0  0  0  0
   14.3217    4.8730    7.2675 N   0  0  0  0  0  0
    8.7782    3.6565    5.5272 C   0  0  0  0  0  0
    6.5761    3.5376    5.3685 C   0  0  0  0  0  0
   10.2436    3.5976    5.7721 C   0  0  0  0  0  0
    5.2152    3.1087    5.5307 C   0  0  0  0  0  0
    7.7176    2.7842    5.6765 C   0  0  0  0  0  0
   12.2170    4.6934    6.6146 C   0  0  0  0  0  0
   12.9885    3.5281    6.3090 C   0  0  0  0  0  0
   10.8539    4.7341    6.3097 C   0  0  0  0  0  0
   10.9891    2.4445    5.5111 C   0  0  0  0  0  0
   12.3658    2.3944    5.7596 C   0  0  0  0  0  0
   13.1360    5.5629    7.2447 C   0  0  0  0  0  0
    5.3140    3.9646    7.9062 C   0  0  0  0  0  0
    3.2407    2.9387    6.9918 C   0  0  0  0  0  0
    5.3847    2.9286    9.0510 C   0  0  2  0  0  0
    3.2894    1.8296    8.0640 C   0  0  0  0  0  0
    4.0066    2.2927    9.3478 C   0  0  0  0  0  0
    5.3385    3.3199   10.9567 H   0  0  0  0  0  0
   15.1805    5.2644    7.6461 H   0  0  0  0  0  0
    7.7505    1.7562    6.0111 H   0  0  0  0  0  0
   10.2714    5.6146    6.5389 H   0  0  0  0  0  0
   10.4953    1.5747    5.1037 H   0  0  0  0  0  0
   12.9321    1.4977    5.5548 H   0  0  0  0  0  0
   13.0695    6.5550    7.6685 H   0  0  0  0  0  0
    4.7394    4.8306    8.2380 H   0  0  0  0  0  0
    6.2986    4.3709    7.6763 H   0  0  0  0  0  0
    2.7012    2.6495    6.0874 H   0  0  0  0  0  0
    2.7127    3.8115    7.3775 H   0  0  0  0  0  0
    6.0877    2.1428    8.7676 H   0  0  0  0  0  0
    3.7850    0.9475    7.6533 H   0  0  0  0  0  0
    2.2736    1.5143    8.3058 H   0  0  0  0  0  0
    4.1162    1.4503   10.0303 H   0  0  0  0  0  0
    3.3751    3.0184    9.8654 H   0  0  0  0  0  0
  1  5  1  0  0  0
  1  8  1  0  0  0
  2 11  2  0  0  0
  3 21  1  0  0  0
  3 24  1  0  0  0
  4 11  1  0  0  0
  4 19  1  0  0  0
  4 20  1  0  0  0
  5  9  2  0  0  0
  6  7  1  0  0  0
  6 14  2  0  0  0
  7 25  1  0  0  0
  7 18  1  0  0  0
  8 12  2  0  0  0
  8 10  1  0  0  0
  9 11  1  0  0  0
  9 12  1  0  0  0
 10 16  1  0  0  0
 10 15  2  0  0  0
 12 26  1  0  0  0
 13 15  1  0  0  0
 13 14  1  0  0  0
 13 18  2  0  0  0
 14 17  1  0  0  0
 15 27  1  0  0  0
 16 17  2  0  0  0
 16 28  1  0  0  0
 17 29  1  0  0  0
 18 30  1  0  0  0
 19 21  1  0  0  0
 19 31  1  0  0  0
 19 32  1  0  0  0
 20 22  1  0  0  0
 20 33  1  0  0  0
 20 34  1  0  0  0
 21 23  1  0  0  0
 21 35  1  0  0  0
 22 23  1  0  0  0
 22 36  1  0  0  0
 22 37  1  0  0  0
 23 38  1  0  0  0
 23 39  1  0  0  0
M  END
> <s_m_entry_id>
47557

> <s_m_entry_name>
dock_pv.90

> <s_m_Source_Path>
/home/csk/Desktop/cluster/DUD-E-result/fak1

> <s_m_Source_File>
dock_pv.maegz

> <i_m_Source_File_Index>
90

> <chembl_id>
CHEMBL1997340

> <chembl_pref_name>
None

> <i_lp_mmshare_version>
53161

> <i_f3d_flags>
0

> <r_lp_tautomer_probability>
0.0196078431372549

> <s_lp_Force_Field>
OPLS_2005

> <r_lp_Energy>
46.26802

> <b_lp_Chiralities_Consistent>
1

> <s_lp_Variant>
CHEMBL2695_lig1760-3

> <s_i_glide_gridfile>
glide-grid_3bz3

> <i_i_glide_lignum>
2007

> <i_i_glide_rotatable_bonds>
4

> <r_i_docking_score>
-8.22064294846921

> <r_i_glide_ligand_efficiency>
-0.357419258629096

> <r_i_glide_ligand_efficiency_sa>
-1.01645282651595

> <r_i_glide_ligand_efficiency_ln>
-1.98782600560892

> <r_i_glide_gscore>
-8.22064294846921

> <r_i_glide_lipo>
-2.36540133329416

> <r_i_glide_hbond>
-0.864

> <r_i_glide_metal>
0

> <r_i_glide_rewards>
-2.23869695521364

> <r_i_glide_evdw>
-32.8294639587402

> <r_i_glide_ecoul>
-9.85432434082031

> <r_i_glide_erotb>
0.399524359473748

> <r_i_glide_esite>
-0.0324471703750947

> <r_i_glide_emodel>
-57.9825328847936

> <r_i_glide_energy>
-42.6837882995605

> <r_i_glide_einternal>
8.74430274963379

> <i_i_glide_confnum>
3

> <i_i_glide_posenum>
102

> <r_i_glide_eff_state_penalty>
0

> <s_user_duplicate_titles>
CHEMBL2695_lig1760,CHEMBL2695_lig1760

> <s_m_subgroup_title>
dock_pv

> <s_m_subgroupid>
dock_pv

> <b_m_subgroup_collapsed>
1

$$$$
CHEMBL2695_lig1911
                    3D
 Schrodinger Suite 2021-1.
 49 53  0  0  1  0            999 V2000
    5.4383    2.1316    8.0626 C   0  0  0  0  0  0
    6.3366    3.1224    8.7828 C   0  0  0  0  0  0
    6.3220    3.1347   10.1764 C   0  0  0  0  0  0
    7.1692    3.9641   10.9028 C   0  0  0  0  0  0
    8.0792    4.7631   10.2280 C   0  0  0  0  0  0
    8.1061    4.7631    8.8371 C   0  0  0  0  0  0
    7.1956    3.9988    8.1038 C   0  0  0  0  0  0
    7.1397    4.2792    6.6435 C   0  0  0  0  0  0
    8.1206    4.2415    5.6527 C   0  0  0  0  0  0
    7.6352    4.6964    4.5150 N   0  0  0  0  0  0
    6.3146    5.0407    4.7087 N   0  0  0  0  0  0
    6.0295    4.7624    5.9794 N   0  0  0  0  0  0
    4.6817    5.0459    6.4767 C   0  0  0  0  0  0
    3.5857    4.0420    6.1074 C   0  0  0  0  0  0
    3.7924    3.0054    5.1858 C   0  0  0  0  0  0
    2.7571    2.1286    4.8756 C   0  0  0  0  0  0
    1.5127    2.2886    5.4799 C   0  0  0  0  0  0
    1.2953    3.3161    6.3947 C   0  0  0  0  0  0
    2.3317    4.1917    6.7070 C   0  0  0  0  0  0
    9.5316    3.8019    5.7545 C   0  0  0  0  0  0
    9.8809    2.5130    5.3445 C   0  0  0  0  0  0
   11.1942    2.0439    5.4186 C   0  0  0  0  0  0
   12.1538    2.9364    5.9090 C   0  0  0  0  0  0
   13.5221    2.8342    6.0710 N   0  0  0  0  0  0
   14.0397    3.9306    6.6640 N   0  0  0  0  0  0
   13.0525    4.7642    6.8588 C   0  0  0  0  0  0
   13.2071    5.9553    7.5091 N   0  0  0  0  0  0
   11.8199    4.2404    6.3570 C   0  0  0  0  0  0
   10.4906    4.6763    6.2703 C   0  0  0  0  0  0
    5.5308    1.1516    8.5287 H   0  0  0  0  0  0
    4.3922    2.4261    8.1441 H   0  0  0  0  0  0
    5.7133    2.0008    7.0162 H   0  0  0  0  0  0
    5.6474    2.4775   10.7042 H   0  0  0  0  0  0
    7.1301    3.9646   11.9825 H   0  0  0  0  0  0
    8.7221    5.4221   10.7826 H   0  0  0  0  0  0
    8.7773    5.4365    8.3276 H   0  0  0  0  0  0
    4.3809    6.0226    6.0965 H   0  0  0  0  0  0
    4.7319    5.1429    7.5618 H   0  0  0  0  0  0
    4.7500    2.8608    4.7077 H   0  0  0  0  0  0
    2.9211    1.3283    4.1684 H   0  0  0  0  0  0
    0.7088    1.6104    5.2339 H   0  0  0  0  0  0
    0.3267    3.4367    6.8567 H   0  0  0  0  0  0
    2.1575    4.9911    7.4128 H   0  0  0  0  0  0
    9.1128    1.8594    4.9519 H   0  0  0  0  0  0
   11.4494    1.0492    5.0851 H   0  0  0  0  0  0
   14.1125    2.0456    5.8406 H   0  0  0  0  0  0
   12.6516    6.7566    7.2520 H   0  0  0  0  0  0
   14.1110    6.1777    7.9089 H   0  0  0  0  0  0
   10.2162    5.6682    6.5954 H   0  0  0  0  0  0
  1  2  1  0  0  0
  1 30  1  0  0  0
  1 31  1  0  0  0
  1 32  1  0  0  0
  2  3  2  0  0  0
  2  7  1  0  0  0
  3  4  1  0  0  0
  3 33  1  0  0  0
  4  5  2  0  0  0
  4 34  1  0  0  0
  5  6  1  0  0  0
  5 35  1  0  0  0
  6  7  2  0  0  0
  6 36  1  0  0  0
  7  8  1  0  0  0
  8  9  2  0  0  0
  8 12  1  0  0  0
  9 10  1  0  0  0
  9 20  1  0  0  0
 10 11  2  0  0  0
 11 12  1  0  0  0
 12 13  1  0  0  0
 13 14  1  0  0  0
 13 37  1  0  0  0
 13 38  1  0  0  0
 14 15  2  0  0  0
 14 19  1  0  0  0
 15 16  1  0  0  0
 15 39  1  0  0  0
 16 17  2  0  0  0
 16 40  1  0  0  0
 17 18  1  0  0  0
 17 41  1  0  0  0
 18 19  2  0  0  0
 18 42  1  0  0  0
 19 43  1  0  0  0
 20 21  2  0  0  0
 20 29  1  0  0  0
 21 22  1  0  0  0
 21 44  1  0  0  0
 22 23  2  0  0  0
 22 45  1  0  0  0
 23 24  1  0  0  0
 23 28  1  0  0  0
 24 25  1  0  0  0
 24 46  1  0  0  0
 25 26  2  0  0  0
 26 27  1  0  0  0
 26 28  1  0  0  0
 27 47  1  0  0  0
 27 48  1  0  0  0
 28 29  2  0  0  0
 29 49  1  0  0  0
M  END
> <s_m_entry_id>
47558

> <s_m_entry_name>
dock_pv.91

> <s_m_Source_Path>
/home/csk/Desktop/cluster/DUD-E-result/fak1

> <s_m_Source_File>
dock_pv.maegz

> <i_m_Source_File_Index>
91

> <chembl_id>
CHEMBL2000029

> <chembl_pref_name>
None

> <i_lp_mmshare_version>
53161

> <i_f3d_flags>
0

> <r_lp_tautomer_probability>
1

> <s_lp_Force_Field>
OPLS_2005

> <r_lp_Energy>
18.815399

> <b_lp_Chiralities_Consistent>
1

> <s_lp_Variant>
CHEMBL2695_lig1911-1

> <s_i_glide_gridfile>
glide-grid_3bz3

> <i_i_glide_lignum>
2225

> <i_i_glide_rotatable_bonds>
4

> <r_i_docking_score>
-8.198158442146

> <r_i_glide_ligand_efficiency>
-0.28269511869469

> <r_i_glide_ligand_efficiency_sa>
-0.868528968730088

> <r_i_glide_ligand_efficiency_ln>
-1.87717039589035

> <r_i_glide_gscore>
-8.198158442146

> <r_i_glide_lipo>
-3.62804928907896

> <r_i_glide_hbond>
-0.249461637889455

> <r_i_glide_metal>
0

> <r_i_glide_rewards>
-1.99922729111658

> <r_i_glide_evdw>
-42.7868995666504

> <r_i_glide_ecoul>
-3.71589136123657

> <r_i_glide_erotb>
0.375308458457003

> <r_i_glide_esite>
0

> <r_i_glide_emodel>
-64.3781681976316

> <r_i_glide_energy>
-46.502790927887

> <r_i_glide_einternal>
5.14891672134399

> <i_i_glide_confnum>
14

> <i_i_glide_posenum>
396

> <r_i_glide_eff_state_penalty>
0

> <s_user_duplicate_titles>
CHEMBL2695_lig1911

> <s_m_subgroup_title>
dock_pv

> <s_m_subgroupid>
dock_pv

> <b_m_subgroup_collapsed>
1

$$$$
CHEMBL2695_lig2023
                    3D
 Schrodinger Suite 2021-1.
 49 53  0  0  1  0            999 V2000
    3.6081    3.6371    6.2028 S   0  0  0  0  0  0
    2.6810    4.6552    6.7055 O   0  0  0  0  0  0
    3.9014    2.4467    7.0076 O   0  0  0  0  0  0
   11.1414    3.6544    6.0446 N   0  0  0  0  0  0
    9.5305    2.3677    5.2017 N   0  0  0  0  0  0
    5.1173    4.4552    5.8158 N   0  0  1  0  0  0
   13.9220    3.3184    6.3090 N   0  0  0  0  0  0
   13.8515    5.4464    7.4923 N   0  0  0  0  0  0
    9.7861    3.5422    5.7563 C   0  0  0  0  0  0
    8.6953    4.5781    6.0922 C   0  0  2  0  0  0
   11.9149    4.6731    6.6667 C   0  0  0  0  0  0
   11.7319    2.4622    5.6021 C   0  0  0  0  0  0
   13.3013    4.4107    6.7612 C   0  0  0  0  0  0
    7.9614    4.2928    7.4272 C   0  0  1  0  0  0
    6.3810    3.6911    5.6844 C   0  0  1  0  0  0
    7.5245    4.5476    5.0781 C   0  0  0  0  0  0
   10.6567    1.7021    5.0964 C   0  0  0  0  0  0
    2.9993    3.0873    4.4986 C   0  0  0  0  0  0
   13.1282    2.3582    5.7539 C   0  0  0  0  0  0
    6.9406    3.2200    7.0361 C   0  0  0  0  0  0
   11.6527    5.9425    7.2763 C   0  0  0  0  0  0
    3.5283    1.7900    3.9428 C   0  0  0  0  0  0
    2.0886    1.8909    4.4428 C   0  0  0  0  0  0
   12.8667    6.3635    7.7951 C   0  0  0  0  0  0
    8.8369    3.9633    8.6466 C   0  0  0  0  0  0
    8.0479    3.5509    9.9004 C   0  0  0  0  0  0
    5.0238    5.2922    5.2362 H   0  0  0  0  0  0
   14.8224    5.5705    7.7631 H   0  0  0  0  0  0
    9.1854    5.5511    6.0551 H   0  0  0  0  0  0
    7.3739    5.1628    7.7124 H   0  0  0  0  0  0
    6.1864    2.8827    4.9767 H   0  0  0  0  0  0
    7.8336    4.1948    4.0925 H   0  0  0  0  0  0
    7.1567    5.5630    4.9462 H   0  0  0  0  0  0
   10.6770    0.7165    4.6554 H   0  0  0  0  0  0
    2.7966    3.9420    3.8561 H   0  0  0  0  0  0
   13.6463    1.4772    5.4076 H   0  0  0  0  0  0
    6.1652    3.1199    7.7950 H   0  0  0  0  0  0
    7.4151    2.2423    6.9388 H   0  0  0  0  0  0
   10.7221    6.4716    7.3737 H   0  0  0  0  0  0
    4.2546    1.2193    4.5259 H   0  0  0  0  0  0
    3.7146    1.7173    2.8717 H   0  0  0  0  0  0
    1.2720    1.8967    3.7204 H   0  0  0  0  0  0
    1.8142    1.3980    5.3759 H   0  0  0  0  0  0
   13.1228    7.2528    8.3537 H   0  0  0  0  0  0
    9.5143    3.1647    8.3783 H   0  0  0  0  0  0
    9.4640    4.8223    8.8855 H   0  0  0  0  0  0
    8.7223    3.2814   10.7089 H   0  0  0  0  0  0
    7.4026    4.3571   10.2517 H   0  0  0  0  0  0
    7.4228    2.6764    9.7180 H   0  0  0  0  0  0
  1  2  2  0  0  0
  1  3  2  0  0  0
  1  6  1  0  0  0
  1 18  1  0  0  0
  4  9  1  0  0  0
  4 11  1  0  0  0
  4 12  1  0  0  0
  5  9  2  0  0  0
  5 17  1  0  0  0
  6 15  1  0  0  0
  6 27  1  0  0  0
  7 13  1  0  0  0
  7 19  2  0  0  0
  8 13  1  0  0  0
  8 24  1  0  0  0
  8 28  1  0  0  0
  9 10  1  0  0  0
 10 14  1  0  0  0
 10 16  1  0  0  0
 10 29  1  0  0  0
 11 13  2  0  0  0
 11 21  1  0  0  0
 12 17  2  0  0  0
 12 19  1  0  0  0
 14 20  1  0  0  0
 14 25  1  0  0  0
 14 30  1  0  0  0
 15 16  1  0  0  0
 15 20  1  0  0  0
 15 31  1  0  0  0
 16 32  1  0  0  0
 16 33  1  0  0  0
 17 34  1  0  0  0
 18 22  1  0  0  0
 18 23  1  0  0  0
 18 35  1  0  0  0
 19 36  1  0  0  0
 20 37  1  0  0  0
 20 38  1  0  0  0
 21 24  2  0  0  0
 21 39  1  0  0  0
 22 23  1  0  0  0
 22 40  1  0  0  0
 22 41  1  0  0  0
 23 42  1  0  0  0
 23 43  1  0  0  0
 24 44  1  0  0  0
 25 26  1  0  0  0
 25 45  1  0  0  0
 25 46  1  0  0  0
 26 47  1  0  0  0
 26 48  1  0  0  0
 26 49  1  0  0  0
M  END
> <s_m_entry_id>
47559

> <s_m_entry_name>
dock_pv.92

> <s_m_Source_Path>
/home/csk/Desktop/cluster/DUD-E-result/fak1

> <s_m_Source_File>
dock_pv.maegz

> <i_m_Source_File_Index>
92

> <chembl_id>
CHEMBL1992073

> <chembl_pref_name>
None

> <i_lp_mmshare_version>
53161

> <i_f3d_flags>
0

> <r_lp_tautomer_probability>
1

> <s_lp_Force_Field>
OPLS_2005

> <r_lp_Energy>
61.636555

> <b_lp_Chiralities_Consistent>
1

> <s_lp_Variant>
CHEMBL2695_lig2023-7

> <s_i_glide_gridfile>
glide-grid_3bz3

> <i_i_glide_lignum>
2397

> <i_i_glide_rotatable_bonds>
5

> <r_i_docking_score>
-8.17871622903842

> <r_i_glide_ligand_efficiency>
-0.31456600880917

> <r_i_glide_ligand_efficiency_sa>
-0.93190056333969

> <r_i_glide_ligand_efficiency_ln>
-1.92074466983284

> <r_i_glide_gscore>
-8.17871622903842

> <r_i_glide_lipo>
-2.81597602057798

> <r_i_glide_hbond>
-0.467221806047721

> <r_i_glide_metal>
0

> <r_i_glide_rewards>
-3.0700274937067

> <r_i_glide_evdw>
-36.0516242980957

> <r_i_glide_ecoul>
-3.8363938331604

> <r_i_glide_erotb>
0.554205160720862

> <r_i_glide_esite>
-0.00165577954803212

> <r_i_glide_emodel>
-58.7931287095568

> <r_i_glide_energy>
-39.8880181312561

> <r_i_glide_einternal>
3.71356391906738

> <i_i_glide_confnum>
131

> <i_i_glide_posenum>
312

> <r_i_glide_eff_state_penalty>
0

> <s_user_duplicate_titles>
CHEMBL2695_lig2023

> <s_m_subgroup_title>
dock_pv

> <s_m_subgroupid>
dock_pv

> <b_m_subgroup_collapsed>
1

$$$$
CHEMBL2695_lig207
                    3D
 Schrodinger Suite 2021-1.
 41 44  0  0  1  0            999 V2000
   13.5813    0.5728    3.1678 C   0  0  0  0  0  0
   12.8322    1.1630    4.1968 C   0  0  0  0  0  0
   11.4606    0.8717    4.3090 C   0  0  0  0  0  0
   10.8546   -0.0370    3.4351 C   0  0  0  0  0  0
   12.9740   -0.3405    2.3090 C   0  0  0  0  0  0
   11.6333   -0.6399    2.4494 C   0  0  0  0  0  0
   11.2813   -1.5972    1.5131 N   0  0  0  0  0  0
   12.3191   -1.9867    0.7518 C   0  0  0  0  0  0
   13.5255   -1.1580    1.1889 C   0  0  0  0  0  0
   12.3220   -2.8370   -0.1333 O   0  0  0  0  0  0
   13.5220    1.9736    5.1090 N   0  0  0  0  0  0
   13.1499    3.0584    5.9090 C   0  0  0  0  0  0
   11.8695    3.5151    5.9090 N   0  0  0  0  0  0
   11.6197    4.6478    6.6249 C   0  0  0  0  0  0
   12.6316    5.3262    7.3068 C   0  0  0  0  0  0
   13.9057    4.7630    7.2750 C   0  0  0  0  0  0
   14.1790    3.6290    6.5844 N   0  0  0  0  0  0
   10.3212    5.1630    6.7090 N   0  0  0  0  0  0
    9.1342    4.3159    6.5499 C   0  0  0  0  0  0
    8.4199    3.9907    7.8696 C   0  0  0  0  0  0
    7.4540    2.9784    7.8986 C   0  0  0  0  0  0
    6.7368    2.7630    9.0786 C   0  0  0  0  0  0
    6.9873    3.5639   10.1941 C   0  0  0  0  0  0
    7.9725    4.5450   10.0984 C   0  0  0  0  0  0
    8.6867    4.7630    8.9643 N   0  0  0  0  0  0
   14.6372    0.7838    3.0799 H   0  0  0  0  0  0
   10.8655    1.3102    5.0953 H   0  0  0  0  0  0
    9.8028   -0.2638    3.5376 H   0  0  0  0  0  0
   10.3568   -1.9915    1.4230 H   0  0  0  0  0  0
   13.8755   -0.5386    0.3634 H   0  0  0  0  0  0
   14.3250   -1.8214    1.5207 H   0  0  0  0  0  0
   14.5139    1.7854    5.1494 H   0  0  0  0  0  0
   12.4361    6.2234    7.8750 H   0  0  0  0  0  0
   14.7219    5.1970    7.8286 H   0  0  0  0  0  0
   10.1974    5.9750    7.2942 H   0  0  0  0  0  0
    9.3787    3.3837    6.0389 H   0  0  0  0  0  0
    8.4303    4.8400    5.9029 H   0  0  0  0  0  0
    7.2469    2.3808    7.0219 H   0  0  0  0  0  0
    5.9822    1.9904    9.1246 H   0  0  0  0  0  0
    6.4240    3.4339   11.1076 H   0  0  0  0  0  0
    8.1879    5.1896   10.9384 H   0  0  0  0  0  0
  1  5  1  0  0  0
  1  2  2  0  0  0
  1 26  1  0  0  0
  2  3  1  0  0  0
  2 11  1  0  0  0
  3  4  2  0  0  0
  3 27  1  0  0  0
  4  6  1  0  0  0
  4 28  1  0  0  0
  5  9  1  0  0  0
  5  6  2  0  0  0
  6  7  1  0  0  0
  7  8  1  0  0  0
  7 29  1  0  0  0
  8  9  1  0  0  0
  8 10  2  0  0  0
  9 30  1  0  0  0
  9 31  1  0  0  0
 11 12  1  0  0  0
 11 32  1  0  0  0
 12 13  2  0  0  0
 12 17  1  0  0  0
 13 14  1  0  0  0
 14 15  2  0  0  0
 14 18  1  0  0  0
 15 16  1  0  0  0
 15 33  1  0  0  0
 16 17  2  0  0  0
 16 34  1  0  0  0
 18 19  1  0  0  0
 18 35  1  0  0  0
 19 20  1  0  0  0
 19 36  1  0  0  0
 19 37  1  0  0  0
 20 21  2  0  0  0
 20 25  1  0  0  0
 21 22  1  0  0  0
 21 38  1  0  0  0
 22 23  2  0  0  0
 22 39  1  0  0  0
 23 24  1  0  0  0
 23 40  1  0  0  0
 24 25  2  0  0  0
 24 41  1  0  0  0
M  END
> <s_m_entry_id>
47560

> <s_m_entry_name>
dock_pv.93

> <s_m_Source_Path>
/home/csk/Desktop/cluster/DUD-E-result/fak1

> <s_m_Source_File>
dock_pv.maegz

> <i_m_Source_File_Index>
93

> <chembl_id>
CHEMBL471697

> <chembl_pref_name>
None

> <i_lp_mmshare_version>
53161

> <i_f3d_flags>
0

> <r_lp_tautomer_probability>
0.999999624730965

> <s_lp_Force_Field>
OPLS_2005

> <r_lp_Energy>
16.167094

> <b_lp_Chiralities_Consistent>
1

> <s_lp_Variant>
CHEMBL2695_lig207-1

> <s_i_glide_gridfile>
glide-grid_3bz3

> <i_i_glide_lignum>
239

> <i_i_glide_rotatable_bonds>
5

> <r_i_docking_score>
-8.16872100428711

> <r_i_glide_ligand_efficiency>
-0.326748840171484

> <r_i_glide_ligand_efficiency_sa>
-0.955419403576776

> <r_i_glide_ligand_efficiency_ln>
-1.93623167483065

> <r_i_glide_gscore>
-8.16872100428711

> <r_i_glide_lipo>
-2.88638641560639

> <r_i_glide_hbond>
-0.657077053241984

> <r_i_glide_metal>
0

> <r_i_glide_rewards>
-2.32850254263052

> <r_i_glide_evdw>
-37.3664855957031

> <r_i_glide_ecoul>
-8.23865509033203

> <r_i_glide_erotb>
0.852478798522393

> <r_i_glide_esite>
-0.045111247995654

> <r_i_glide_emodel>
-63.8101627185246

> <r_i_glide_energy>
-45.6051406860352

> <r_i_glide_einternal>
6.59473371505737

> <i_i_glide_confnum>
2

> <i_i_glide_posenum>
59

> <r_i_glide_eff_state_penalty>
0

> <s_user_duplicate_titles>
CHEMBL2695_lig207

> <s_m_subgroup_title>
dock_pv

> <s_m_subgroupid>
dock_pv

> <b_m_subgroup_collapsed>
1

$$$$
CHEMBL2695_lig2063
                    3D
 Schrodinger Suite 2021-1.
 37 40  0  0  1  0            999 V2000
   13.9207    5.8122    7.8614 N   0  0  0  0  0  0
   14.3222    3.9306    6.7087 O   0  0  0  0  0  0
    3.8487    3.9637    6.3616 C   0  0  0  0  0  0
    7.4658    3.9533    6.7306 C   0  0  0  0  0  0
    2.6313    4.1646    7.0107 C   0  0  0  0  0  0
   11.2475    3.8275    6.2996 C   0  0  0  0  0  0
   13.0370    6.7133    8.6256 C   0  0  0  0  0  0
   11.8496    7.1687    7.7420 C   0  0  0  0  0  0
   12.0967    4.7891    6.8707 C   0  0  0  0  0  0
   13.5175    4.7627    7.1094 C   0  0  0  0  0  0
    8.5866    2.6853    5.0155 C   0  0  0  0  0  0
    7.3573    2.1060    4.7091 C   0  0  0  0  0  0
   11.3141    5.9054    7.1022 C   0  0  0  0  0  0
    8.6418    3.6383    6.0340 C   0  0  0  0  0  0
    9.9351    4.2833    6.3701 C   0  0  0  0  0  0
    6.2690    3.3250    6.3669 C   0  0  0  0  0  0
    4.9883    3.5687    7.0770 C   0  0  0  0  0  0
    4.8827    3.3857    8.4649 C   0  0  0  0  0  0
    3.6583    3.5625    9.1090 C   0  0  0  0  0  0
    2.5339    3.9583    8.3851 C   0  0  0  0  0  0
    5.9604    3.0166    9.1973 F   0  0  0  0  0  0
   10.0190    5.5623    6.8490 N   0  0  0  0  0  0
    6.2089    2.4239    5.3524 N   0  0  0  0  0  0
   14.9287    5.9629    7.9158 H   0  0  0  0  0  0
    3.9058    4.1196    5.2932 H   0  0  0  0  0  0
    7.4745    4.6608    7.5463 H   0  0  0  0  0  0
    1.7664    4.4788    6.4444 H   0  0  0  0  0  0
   11.5555    2.8514    5.9526 H   0  0  0  0  0  0
   13.6120    7.5632    8.9871 H   0  0  0  0  0  0
   12.6765    6.1821    9.5087 H   0  0  0  0  0  0
   12.1862    7.8770    6.9840 H   0  0  0  0  0  0
   11.1154    7.6973    8.3445 H   0  0  0  0  0  0
    9.4680    2.4047    4.4577 H   0  0  0  0  0  0
    7.2726    1.3649    3.9254 H   0  0  0  0  0  0
    3.5907    3.4186   10.1778 H   0  0  0  0  0  0
    1.5937    4.1170    8.8921 H   0  0  0  0  0  0
    9.2270    6.1690    7.0028 H   0  0  0  0  0  0
  1 10  1  0  0  0
  1  7  1  0  0  0
  1 24  1  0  0  0
  2 10  2  0  0  0
  3  5  2  0  0  0
  3 17  1  0  0  0
  3 25  1  0  0  0
  4 16  2  0  0  0
  4 14  1  0  0  0
  4 26  1  0  0  0
  5 20  1  0  0  0
  5 27  1  0  0  0
  6 15  2  0  0  0
  6  9  1  0  0  0
  6 28  1  0  0  0
  7  8  1  0  0  0
  7 29  1  0  0  0
  7 30  1  0  0  0
  8 13  1  0  0  0
  8 31  1  0  0  0
  8 32  1  0  0  0
  9 10  1  0  0  0
  9 13  2  0  0  0
 11 12  1  0  0  0
 11 14  2  0  0  0
 11 33  1  0  0  0
 12 23  2  0  0  0
 12 34  1  0  0  0
 13 22  1  0  0  0
 14 15  1  0  0  0
 15 22  1  0  0  0
 16 23  1  0  0  0
 16 17  1  0  0  0
 17 18  2  0  0  0
 18 19  1  0  0  0
 18 21  1  0  0  0
 19 20  2  0  0  0
 19 35  1  0  0  0
 20 36  1  0  0  0
 22 37  1  0  0  0
M  END
> <s_m_entry_id>
47561

> <s_m_entry_name>
dock_pv.94

> <s_m_Source_Path>
/home/csk/Desktop/cluster/DUD-E-result/fak1

> <s_m_Source_File>
dock_pv.maegz

> <i_m_Source_File_Index>
94

> <chembl_id>
CHEMBL226471

> <chembl_pref_name>
None

> <i_lp_mmshare_version>
53161

> <i_f3d_flags>
0

> <r_lp_tautomer_probability>
1

> <s_lp_Force_Field>
OPLS_2005

> <r_lp_Energy>
23.695039

> <b_lp_Chiralities_Consistent>
1

> <s_lp_Variant>
CHEMBL2695_lig2063-1

> <s_i_glide_gridfile>
glide-grid_3bz3

> <i_i_glide_lignum>
2474

> <i_i_glide_rotatable_bonds>
2

> <r_i_docking_score>
-8.16452638683445

> <r_i_glide_ligand_efficiency>
-0.354979408123237

> <r_i_glide_ligand_efficiency_sa>
-1.00951421623382

> <r_i_glide_ligand_efficiency_ln>
-1.97425651216878

> <r_i_glide_gscore>
-8.16452638683445

> <r_i_glide_lipo>
-2.33735783520838

> <r_i_glide_hbond>
-0.608

> <r_i_glide_metal>
0

> <r_i_glide_rewards>
-2.78547797149589

> <r_i_glide_evdw>
-31.5198764801025

> <r_i_glide_ecoul>
-7.54469919204712

> <r_i_glide_erotb>
0.274008122682014

> <r_i_glide_esite>
0

> <r_i_glide_emodel>
-57.3281283445393

> <r_i_glide_energy>
-39.0645756721497

> <r_i_glide_einternal>
0.849769055843353

> <i_i_glide_confnum>
2

> <i_i_glide_posenum>
308

> <r_i_glide_eff_state_penalty>
0

> <s_user_duplicate_titles>
CHEMBL2695_lig2063

> <s_m_subgroup_title>
dock_pv

> <s_m_subgroupid>
dock_pv

> <b_m_subgroup_collapsed>
1

$$$$
CHEMBL2695_lig1888
                    3D
 Schrodinger Suite 2021-1.
 27 30  0  0  1  0            999 V2000
    6.5251    4.3855    4.7144 O   0  0  0  0  0  0
    5.5015    4.3372    6.7332 O   0  0  0  0  0  0
   11.7061    3.4849    5.9091 N   0  0  0  0  0  0
   13.9221    4.2305    6.6045 N   0  0  0  0  0  0
   13.8970    6.1158    8.1282 N   0  0  0  0  0  0
   11.1083    4.4238    6.6953 C   0  0  0  0  0  0
   11.8913    5.3351    7.4391 C   0  0  0  0  0  0
    9.6211    4.3868    6.7540 C   0  0  0  0  0  0
    7.4667    4.3423    5.6914 C   0  0  0  0  0  0
   13.3017    5.1629    7.3343 C   0  0  0  0  0  0
    6.8464    4.3259    6.9086 C   0  0  0  0  0  0
    8.8525    4.3634    5.5735 C   0  0  0  0  0  0
    8.9586    4.3772    8.0021 C   0  0  0  0  0  0
    7.5627    4.3421    8.0957 C   0  0  0  0  0  0
   11.6757    6.4349    8.3357 C   0  0  0  0  0  0
   13.0632    3.4398    5.9090 C   0  0  0  0  0  0
   12.9252    6.8915    8.7159 C   0  0  0  0  0  0
    5.3103    4.1184    5.3634 C   0  0  0  0  0  0
   14.8976    6.2683    8.2562 H   0  0  0  0  0  0
    9.3273    4.3783    4.6029 H   0  0  0  0  0  0
    9.5228    4.3943    8.9202 H   0  0  0  0  0  0
    7.0680    4.3385    9.0558 H   0  0  0  0  0  0
   10.7331    6.8503    8.6582 H   0  0  0  0  0  0
   13.5128    2.6754    5.2915 H   0  0  0  0  0  0
   13.2097    7.7033    9.3712 H   0  0  0  0  0  0
    5.0336    3.0747    5.1972 H   0  0  0  0  0  0
    4.5170    4.7615    4.9908 H   0  0  0  0  0  0
  1  9  1  0  0  0
  1 18  1  0  0  0
  2 11  1  0  0  0
  2 18  1  0  0  0
  3  6  2  0  0  0
  3 16  1  0  0  0
  4 10  1  0  0  0
  4 16  2  0  0  0
  5 10  1  0  0  0
  5 17  1  0  0  0
  5 19  1  0  0  0
  6  7  1  0  0  0
  6  8  1  0  0  0
  7 10  2  0  0  0
  7 15  1  0  0  0
  8 12  1  0  0  0
  8 13  2  0  0  0
  9 11  1  0  0  0
  9 12  2  0  0  0
 11 14  2  0  0  0
 12 20  1  0  0  0
 13 14  1  0  0  0
 13 21  1  0  0  0
 14 22  1  0  0  0
 15 17  2  0  0  0
 15 23  1  0  0  0
 16 24  1  0  0  0
 17 25  1  0  0  0
 18 26  1  0  0  0
 18 27  1  0  0  0
M  END
> <s_m_entry_id>
47562

> <s_m_entry_name>
dock_pv.95

> <s_m_Source_Path>
/home/csk/Desktop/cluster/DUD-E-result/fak1

> <s_m_Source_File>
dock_pv.maegz

> <i_m_Source_File_Index>
95

> <chembl_id>
CHEMBL2004515

> <chembl_pref_name>
None

> <i_lp_mmshare_version>
53161

> <i_f3d_flags>
0

> <r_lp_tautomer_probability>
0.999998369746258

> <s_lp_Force_Field>
OPLS_2005

> <r_lp_Energy>
22.350606

> <b_lp_Chiralities_Consistent>
1

> <s_lp_Variant>
CHEMBL2695_lig1888-1

> <s_i_glide_gridfile>
glide-grid_3bz3

> <i_i_glide_lignum>
2188

> <i_i_glide_rotatable_bonds>
1

> <r_i_docking_score>
-8.13914597046419

> <r_i_glide_ligand_efficiency>
-0.452174776136899

> <r_i_glide_ligand_efficiency_sa>
-1.18503315209738

> <r_i_glide_ligand_efficiency_ln>
-2.09212550290198

> <r_i_glide_gscore>
-8.13914597046419

> <r_i_glide_lipo>
-2.17516139240837

> <r_i_glide_hbond>
-0.32

> <r_i_glide_metal>
0

> <r_i_glide_rewards>
-3.68463546349627

> <r_i_glide_evdw>
-28.3605766296387

> <r_i_glide_ecoul>
-5.62144422531128

> <r_i_glide_erotb>
0.301896350719078

> <r_i_glide_esite>
0

> <r_i_glide_emodel>
-50.0613115598622

> <r_i_glide_energy>
-33.98202085495

> <r_i_glide_einternal>
0.0200443584471941

> <i_i_glide_confnum>
3

> <i_i_glide_posenum>
153

> <r_i_glide_eff_state_penalty>
0

> <s_user_duplicate_titles>
CHEMBL2695_lig1888

> <s_m_subgroup_title>
dock_pv

> <s_m_subgroupid>
dock_pv

> <b_m_subgroup_collapsed>
1

$$$$
CHEMBL2695_lig1023
                    3D
 Schrodinger Suite 2021-1.
 43 46  0  0  1  0            999 V2000
   15.1220   -0.1381    2.0080 C   0  0  0  0  0  0
   14.4453    0.7072    2.9285 O   0  0  0  0  0  0
   13.0898    0.5173    3.1352 C   0  0  0  0  0  0
   12.2981   -0.3040    2.3114 C   0  0  0  0  0  0
   10.9394   -0.4638    2.5627 C   0  0  0  0  0  0
   10.1942   -1.2476    1.7527 F   0  0  0  0  0  0
   10.3508    0.1856    3.6403 C   0  0  0  0  0  0
   11.1220    0.9821    4.4831 C   0  0  0  0  0  0
   12.4946    1.1630    4.2454 C   0  0  0  0  0  0
   13.3052    1.9345    5.1090 N   0  0  0  0  0  0
   13.0238    3.0496    5.9090 C   0  0  0  0  0  0
   14.0929    3.6161    6.5182 N   0  0  0  0  0  0
   13.8663    4.7630    7.2076 C   0  0  0  0  0  0
   12.5999    5.3493    7.2963 C   0  0  0  0  0  0
   11.5468    4.6855    6.6627 C   0  0  0  0  0  0
   10.2513    5.1543    6.8150 O   0  0  0  0  0  0
    9.1602    4.3381    6.5784 C   0  0  0  0  0  0
    8.8579    3.8630    5.2960 C   0  0  0  0  0  0
    7.8022    2.9705    5.1090 C   0  0  0  0  0  0
    7.0251    2.5673    6.1946 C   0  0  0  0  0  0
    7.2884    3.0739    7.4686 C   0  0  0  0  0  0
    6.5775    2.7830    8.7643 C   0  0  0  0  0  0
    7.2951    3.6337    9.8146 C   0  0  0  0  0  0
    8.4103    4.3715    9.0808 C   0  0  0  0  0  0
    9.1993    5.1630    9.5952 O   0  0  0  0  0  0
    8.3464    3.9630    7.6582 C   0  0  0  0  0  0
   11.7593    3.5385    5.9571 N   0  0  0  0  0  0
   16.1780    0.1292    1.9758 H   0  0  0  0  0  0
   15.0496   -1.1839    2.3090 H   0  0  0  0  0  0
   14.7220   -0.0370    1.0002 H   0  0  0  0  0  0
   12.7104   -0.8244    1.4628 H   0  0  0  0  0  0
    9.2926    0.0654    3.8258 H   0  0  0  0  0  0
   10.6344    1.4322    5.3335 H   0  0  0  0  0  0
   14.2918    1.7253    5.0367 H   0  0  0  0  0  0
   14.7220    5.1920    7.7071 H   0  0  0  0  0  0
   12.4310    6.2494    7.8679 H   0  0  0  0  0  0
    9.4680    4.1546    4.4538 H   0  0  0  0  0  0
    7.5941    2.5753    4.1252 H   0  0  0  0  0  0
    6.2233    1.8600    6.0333 H   0  0  0  0  0  0
    5.5219    3.0561    8.7268 H   0  0  0  0  0  0
    6.6439    1.7287    9.0385 H   0  0  0  0  0  0
    6.6216    4.3571   10.2752 H   0  0  0  0  0  0
    7.7214    3.0214   10.6090 H   0  0  0  0  0  0
  1  2  1  0  0  0
  1 28  1  0  0  0
  1 29  1  0  0  0
  1 30  1  0  0  0
  2  3  1  0  0  0
  3  4  2  0  0  0
  3  9  1  0  0  0
  4  5  1  0  0  0
  4 31  1  0  0  0
  5  6  1  0  0  0
  5  7  2  0  0  0
  7  8  1  0  0  0
  7 32  1  0  0  0
  8  9  2  0  0  0
  8 33  1  0  0  0
  9 10  1  0  0  0
 10 11  1  0  0  0
 10 34  1  0  0  0
 11 12  2  0  0  0
 11 27  1  0  0  0
 12 13  1  0  0  0
 13 14  2  0  0  0
 13 35  1  0  0  0
 14 15  1  0  0  0
 14 36  1  0  0  0
 15 16  1  0  0  0
 15 27  2  0  0  0
 16 17  1  0  0  0
 17 18  2  0  0  0
 17 26  1  0  0  0
 18 19  1  0  0  0
 18 37  1  0  0  0
 19 20  2  0  0  0
 19 38  1  0  0  0
 20 21  1  0  0  0
 20 39  1  0  0  0
 21 22  1  0  0  0
 21 26  2  0  0  0
 22 23  1  0  0  0
 22 40  1  0  0  0
 22 41  1  0  0  0
 23 24  1  0  0  0
 23 42  1  0  0  0
 23 43  1  0  0  0
 24 25  2  0  0  0
 24 26  1  0  0  0
M  END
> <s_m_entry_id>
47563

> <s_m_entry_name>
dock_pv.96

> <s_m_Source_Path>
/home/csk/Desktop/cluster/DUD-E-result/fak1

> <s_m_Source_File>
dock_pv.maegz

> <i_m_Source_File_Index>
96

> <chembl_id>
CHEMBL3657322

> <chembl_pref_name>
None

> <i_lp_mmshare_version>
53161

> <i_f3d_flags>
0

> <r_lp_tautomer_probability>
0.999949917916752

> <s_lp_Force_Field>
OPLS_2005

> <r_lp_Energy>
31.724981

> <b_lp_Chiralities_Consistent>
1

> <s_lp_Variant>
CHEMBL2695_lig1023-1

> <s_i_glide_gridfile>
glide-grid_3bz3

> <i_i_glide_lignum>
1105

> <i_i_glide_rotatable_bonds>
5

> <r_i_docking_score>
-8.13333360257581

> <r_i_glide_ligand_efficiency>
-0.301234577873178

> <r_i_glide_ligand_efficiency_sa>
-0.903703732626714

> <r_i_glide_ligand_efficiency_ln>
-1.89330597419562

> <r_i_glide_gscore>
-8.13333360257581

> <r_i_glide_lipo>
-2.50371430158922

> <r_i_glide_hbond>
-0.520636864196509

> <r_i_glide_metal>
0

> <r_i_glide_rewards>
-2.51636343874883

> <r_i_glide_evdw>
-39.0538101196289

> <r_i_glide_ecoul>
-7.91289806365967

> <r_i_glide_erotb>
0.576395810473997

> <r_i_glide_esite>
-0.0293895929848508

> <r_i_glide_emodel>
-67.915834351886

> <r_i_glide_energy>
-46.9667081832886

> <r_i_glide_einternal>
2.77631139755249

> <i_i_glide_confnum>
10

> <i_i_glide_posenum>
327

> <r_i_glide_eff_state_penalty>
0

> <s_user_duplicate_titles>
CHEMBL2695_lig1023

> <s_m_subgroup_title>
dock_pv

> <s_m_subgroupid>
dock_pv

> <b_m_subgroup_collapsed>
1

$$$$
CHEMBL2695_lig2127
                    3D
 Schrodinger Suite 2021-1.
 49 53  0  0  1  0            999 V2000
   13.9013    0.7630    3.3873 S   0  0  0  0  0  0
    6.5644    1.9392    4.0313 F   0  0  0  0  0  0
   12.4853    8.0041    8.7090 F   0  0  0  0  0  0
   11.7485    1.4040    4.7090 N   0  0  0  0  0  0
    7.1021    4.1056    8.0097 N   0  0  0  0  0  0
   13.4960    2.5483    5.5276 N   0  0  0  0  0  0
    5.6879    3.3884    6.4115 N   0  0  0  0  0  0
    4.7010    4.3630    8.2757 N   0  0  0  0  0  0
   11.2214    2.4019    5.5363 C   0  0  0  0  0  0
    9.7402    2.6547    5.7515 C   0  0  0  0  0  0
   12.3774    3.1369    5.9090 C   0  0  0  0  0  0
    7.9015    3.5461    7.0287 C   0  0  0  0  0  0
   13.1209    1.6050    4.7090 C   0  0  0  0  0  0
    6.9751    3.0867    6.0688 C   0  0  0  0  0  0
    9.2837    3.3529    6.8830 C   0  0  0  0  0  0
    7.4363    2.4059    4.9490 C   0  0  0  0  0  0
    8.8078    2.2143    4.8057 C   0  0  0  0  0  0
   12.4762    4.4719    6.5866 C   0  0  0  0  0  0
    5.7950    3.9630    7.5705 C   0  0  0  0  0  0
   11.3402    0.3808    3.8592 C   0  0  0  0  0  0
   12.3712   -0.0370    3.0381 C   0  0  0  0  0  0
    7.5396    4.6320    9.2997 C   0  0  0  0  0  0
   13.5220    4.7630    7.4740 C   0  0  0  0  0  0
   11.5125    5.4489    6.3264 C   0  0  0  0  0  0
    8.0096    3.5432   10.3003 C   0  0  0  0  0  0
   13.5220    5.9531    8.1895 C   0  0  0  0  0  0
   11.5220    6.6492    7.0280 C   0  0  0  0  0  0
   12.5099    6.8777    7.9776 C   0  0  0  0  0  0
    7.5586    2.0999    9.9757 C   0  0  0  0  0  0
    7.5573    3.9578   11.7162 C   0  0  0  0  0  0
    3.7811    4.2288    7.8845 H   0  0  0  0  0  0
    4.7427    4.8627    9.1546 H   0  0  0  0  0  0
    9.9678    3.6932    7.6406 H   0  0  0  0  0  0
    9.1231    1.7217    3.9090 H   0  0  0  0  0  0
   10.3124    0.0526    3.8157 H   0  0  0  0  0  0
   12.3208   -0.7698    2.2448 H   0  0  0  0  0  0
    6.7003    5.1630    9.7393 H   0  0  0  0  0  0
    8.3217    5.3723    9.1232 H   0  0  0  0  0  0
   14.3017    4.0396    7.6631 H   0  0  0  0  0  0
   10.7318    5.2593    5.6048 H   0  0  0  0  0  0
    9.1005    3.5336   10.2849 H   0  0  0  0  0  0
   14.3019    6.1561    8.9093 H   0  0  0  0  0  0
   10.7546    7.3882    6.8531 H   0  0  0  0  0  0
    6.4711    2.0221    9.9538 H   0  0  0  0  0  0
    7.9396    1.3890   10.7090 H   0  0  0  0  0  0
    7.9220    1.7501    9.0119 H   0  0  0  0  0  0
    6.4692    3.9691   11.7994 H   0  0  0  0  0  0
    7.9227    3.2758   12.4808 H   0  0  0  0  0  0
    7.9220    4.9540   11.9680 H   0  0  0  0  0  0
  1 13  1  0  0  0
  1 21  1  0  0  0
  2 16  1  0  0  0
  3 28  1  0  0  0
  4  9  1  0  0  0
  4 13  1  0  0  0
  4 20  1  0  0  0
  5 12  1  0  0  0
  5 19  1  0  0  0
  5 22  1  0  0  0
  6 11  1  0  0  0
  6 13  2  0  0  0
  7 14  1  0  0  0
  7 19  2  0  0  0
  8 19  1  0  0  0
  8 31  1  0  0  0
  8 32  1  0  0  0
  9 10  1  0  0  0
  9 11  2  0  0  0
 10 15  1  0  0  0
 10 17  2  0  0  0
 11 18  1  0  0  0
 12 14  1  0  0  0
 12 15  2  0  0  0
 14 16  2  0  0  0
 15 33  1  0  0  0
 16 17  1  0  0  0
 17 34  1  0  0  0
 18 23  2  0  0  0
 18 24  1  0  0  0
 20 21  2  0  0  0
 20 35  1  0  0  0
 21 36  1  0  0  0
 22 25  1  0  0  0
 22 37  1  0  0  0
 22 38  1  0  0  0
 23 26  1  0  0  0
 23 39  1  0  0  0
 24 27  2  0  0  0
 24 40  1  0  0  0
 25 29  1  0  0  0
 25 30  1  0  0  0
 25 41  1  0  0  0
 26 28  2  0  0  0
 26 42  1  0  0  0
 27 28  1  0  0  0
 27 43  1  0  0  0
 29 44  1  0  0  0
 29 45  1  0  0  0
 29 46  1  0  0  0
 30 47  1  0  0  0
 30 48  1  0  0  0
 30 49  1  0  0  0
M  END
> <s_m_entry_id>
47565

> <s_m_entry_name>
dock_pv.98

> <s_m_Source_Path>
/home/csk/Desktop/cluster/DUD-E-result/fak1

> <s_m_Source_File>
dock_pv.maegz

> <i_m_Source_File_Index>
98

> <chembl_id>
CHEMBL2004419

> <chembl_pref_name>
None

> <i_lp_mmshare_version>
53161

> <i_f3d_flags>
0

> <r_lp_tautomer_probability>
1

> <s_lp_Force_Field>
OPLS_2005

> <r_lp_Energy>
23.279408

> <b_lp_Chiralities_Consistent>
1

> <s_lp_Variant>
CHEMBL2695_lig2127-1

> <s_i_glide_gridfile>
glide-grid_3bz3

> <i_i_glide_lignum>
2573

> <i_i_glide_rotatable_bonds>
4

> <r_i_docking_score>
-8.10069200119285

> <r_i_glide_ligand_efficiency>
-0.270023066706428

> <r_i_glide_ligand_efficiency_sa>
-0.839024449276332

> <r_i_glide_ligand_efficiency_ln>
-1.84056548677977

> <r_i_glide_gscore>
-8.10069200119285

> <r_i_glide_lipo>
-3.8601407672598

> <r_i_glide_hbond>
-0.264163563781667

> <r_i_glide_metal>
0

> <r_i_glide_rewards>
-2.04205504086053

> <r_i_glide_evdw>
-35.6143569946289

> <r_i_glide_ecoul>
-2.72915625572205

> <r_i_glide_erotb>
0.331550418617652

> <r_i_glide_esite>
-0.0757917598187606

> <r_i_glide_emodel>
-54.0503523483997

> <r_i_glide_energy>
-38.343513250351

> <r_i_glide_einternal>
3.88472008705139

> <i_i_glide_confnum>
11

> <i_i_glide_posenum>
312

> <r_i_glide_eff_state_penalty>
0

> <s_user_duplicate_titles>
CHEMBL2695_lig2127

> <s_m_subgroup_title>
dock_pv

> <s_m_subgroupid>
dock_pv

> <b_m_subgroup_collapsed>
1

$$$$
CHEMBL2695_lig1907
                    3D
 Schrodinger Suite 2021-1.
 35 37  0  0  1  0            999 V2000
   13.2972    7.5630    9.1092 Cl  0  0  0  0  0  0
    8.6716    4.9590    9.4635 F   0  0  0  0  0  0
    8.3214    3.1024   10.5228 F   0  0  0  0  0  0
    6.9295    4.7415   10.7195 F   0  0  0  0  0  0
    9.6078    1.0790    4.3907 O   0  0  0  0  0  0
    7.7282    2.9670    7.6998 N   0  0  0  0  0  0
    9.8370    2.8327    5.8147 N   0  0  0  0  0  0
   13.9875    3.4181    6.3089 N   0  0  0  0  0  0
    7.8512    1.7177    5.6225 N   0  0  0  0  0  0
   11.6929    4.2396    6.4908 C   0  0  0  0  0  0
   11.2244    3.0336    5.8855 C   0  0  0  0  0  0
   13.0999    4.3630    6.7091 C   0  0  0  0  0  0
    6.9660    3.5348    8.6726 C   0  0  0  0  0  0
    7.7311    4.1019    9.8676 C   0  0  0  0  0  0
    7.1168    2.3889    6.6250 C   0  0  0  0  0  0
   10.8409    5.2753    6.9718 C   0  0  0  0  0  0
    9.1377    1.8441    5.2294 C   0  0  0  0  0  0
   13.5886    5.4220    7.5017 C   0  0  0  0  0  0
   12.1642    2.0594    5.5090 C   0  0  0  0  0  0
   12.7173    6.3622    8.0298 C   0  0  0  0  0  0
    5.5683    3.5631    8.5970 C   0  0  0  0  0  0
   11.3664    6.3134    7.7335 C   0  0  0  0  0  0
   13.5163    2.3058    5.7057 C   0  0  0  0  0  0
    5.7242    2.3628    6.5068 C   0  0  0  0  0  0
    4.9475    2.9686    7.4973 C   0  0  0  0  0  0
    9.2924    3.4506    6.3965 H   0  0  0  0  0  0
    7.3133    1.0297    5.1075 H   0  0  0  0  0  0
    9.7746    5.2286    6.8071 H   0  0  0  0  0  0
   14.6407    5.4593    7.7333 H   0  0  0  0  0  0
   11.8737    1.1180    5.0713 H   0  0  0  0  0  0
    4.9715    4.0156    9.3777 H   0  0  0  0  0  0
   10.7220    7.0688    8.1480 H   0  0  0  0  0  0
   14.2521    1.5758    5.4012 H   0  0  0  0  0  0
    5.2477    1.8758    5.6667 H   0  0  0  0  0  0
    3.8704    2.9629    7.4209 H   0  0  0  0  0  0
  1 20  1  0  0  0
  2 14  1  0  0  0
  3 14  1  0  0  0
  4 14  1  0  0  0
  5 17  2  0  0  0
  6 13  1  0  0  0
  6 15  2  0  0  0
  7 11  1  0  0  0
  7 17  1  0  0  0
  7 26  1  0  0  0
  8 12  1  0  0  0
  8 23  2  0  0  0
  9 15  1  0  0  0
  9 17  1  0  0  0
  9 27  1  0  0  0
 10 11  1  0  0  0
 10 12  1  0  0  0
 10 16  2  0  0  0
 11 19  2  0  0  0
 12 18  2  0  0  0
 13 14  1  0  0  0
 13 21  2  0  0  0
 15 24  1  0  0  0
 16 22  1  0  0  0
 16 28  1  0  0  0
 18 20  1  0  0  0
 18 29  1  0  0  0
 19 23  1  0  0  0
 19 30  1  0  0  0
 20 22  2  0  0  0
 21 25  1  0  0  0
 21 31  1  0  0  0
 22 32  1  0  0  0
 23 33  1  0  0  0
 24 25  2  0  0  0
 24 34  1  0  0  0
 25 35  1  0  0  0
M  END
> <s_m_entry_id>
47566

> <s_m_entry_name>
dock_pv.99

> <s_m_Source_Path>
/home/csk/Desktop/cluster/DUD-E-result/fak1

> <s_m_Source_File>
dock_pv.maegz

> <i_m_Source_File_Index>
99

> <chembl_id>
CHEMBL1981744

> <chembl_pref_name>
None

> <i_lp_mmshare_version>
53161

> <i_f3d_flags>
0

> <r_lp_tautomer_probability>
1

> <s_lp_Force_Field>
OPLS_2005

> <r_lp_Energy>
23.24556

> <b_lp_Chiralities_Consistent>
1

> <s_lp_Variant>
CHEMBL2695_lig1907-1

> <s_i_glide_gridfile>
glide-grid_3bz3

> <i_i_glide_lignum>
2220

> <i_i_glide_rotatable_bonds>
5

> <r_i_docking_score>
-8.09897893681513

> <r_i_glide_ligand_efficiency>
-0.323959157472605

> <r_i_glide_ligand_efficiency_sa>
-0.94726232189002

> <r_i_glide_ligand_efficiency_ln>
-1.91970071483868

> <r_i_glide_gscore>
-8.09897893681513

> <r_i_glide_lipo>
-3.38427962738684

> <r_i_glide_hbond>
-0.325425685675214

> <r_i_glide_metal>
0

> <r_i_glide_rewards>
-2.09835859629365

> <r_i_glide_evdw>
-38.341724395752

> <r_i_glide_ecoul>
-4.90812492370605

> <r_i_glide_erotb>
0.429424059202519

> <r_i_glide_esite>
-0.0670341283184479

> <r_i_glide_emodel>
-57.2038836988299

> <r_i_glide_energy>
-43.249849319458

> <r_i_glide_einternal>
2.82692623138428

> <i_i_glide_confnum>
1

> <i_i_glide_posenum>
329

> <r_i_glide_eff_state_penalty>
0

> <s_user_duplicate_titles>
CHEMBL2695_lig1907

> <s_m_subgroup_title>
dock_pv

> <s_m_subgroupid>
dock_pv

> <b_m_subgroup_collapsed>
1

$$$$
CHEMBL2695_lig1540
                    3D
 Schrodinger Suite 2021-1.
 49 52  0  0  1  0            999 V2000
    4.3277    4.1328    7.9084 O   0  0  0  0  0  0
    3.1224    1.7108   10.3090 O   0  0  0  0  0  0
    3.5146   -0.4932    6.2441 N   0  0  0  0  0  0
    5.9974    5.1649    4.8500 N   0  0  0  0  0  0
   14.1904    3.1554    6.3090 N   0  0  0  0  0  0
    1.7957   -0.2609    7.6724 C   0  0  0  0  0  0
    2.4307    1.0235    7.5226 C   0  0  0  0  0  0
    2.5038   -1.1965    6.8559 C   0  0  0  0  0  0
    3.4636    0.8206    6.6260 C   0  0  0  0  0  0
    0.6966   -0.7223    8.4167 C   0  0  0  0  0  0
    2.0498    2.3206    8.2180 C   0  0  0  0  0  0
    2.1436   -2.5461    6.7755 C   0  0  0  0  0  0
    3.0070    2.7491    9.3604 C   0  0  2  0  0  0
    0.3328   -2.0651    8.3349 C   0  0  0  0  0  0
    1.0399   -2.9513    7.5274 C   0  0  0  0  0  0
    5.3573    4.2763    7.0085 C   0  0  0  0  0  0
    7.6328    4.0139    6.2181 C   0  0  0  0  0  0
    4.4277    3.1210    8.9032 C   0  0  0  0  0  0
    6.6620    3.7917    7.1972 C   0  0  0  0  0  0
    5.0813    4.9604    5.8260 C   0  0  0  0  0  0
    7.2538    4.7053    5.0632 C   0  0  0  0  0  0
    9.0116    3.5554    6.4085 C   0  0  0  0  0  0
   11.4888    3.9048    6.2673 C   0  0  0  0  0  0
   10.0880    4.3349    6.1955 C   0  0  0  0  0  0
   12.4712    4.8094    6.6828 C   0  0  0  0  0  0
   11.8750    2.6067    5.9076 C   0  0  0  0  0  0
   13.8022    4.3913    6.7089 C   0  0  0  0  0  0
   13.2321    2.2828    5.9091 C   0  0  0  0  0  0
    3.7070    2.0198   11.0176 H   0  0  0  0  0  0
    4.2381   -0.8382    5.6179 H   0  0  0  0  0  0
    4.1999    1.5113    6.2380 H   0  0  0  0  0  0
    0.1381   -0.0413    9.0407 H   0  0  0  0  0  0
    1.0356    2.2538    8.6131 H   0  0  0  0  0  0
    1.9996    3.1237    7.4813 H   0  0  0  0  0  0
    2.6853   -3.2383    6.1474 H   0  0  0  0  0  0
    2.5726    3.6170    9.8604 H   0  0  0  0  0  0
   -0.5150   -2.4197    8.9019 H   0  0  0  0  0  0
    0.7228   -3.9814    7.4765 H   0  0  0  0  0  0
    4.9260    2.2274    8.5210 H   0  0  0  0  0  0
    5.0207    3.4905    9.7421 H   0  0  0  0  0  0
    6.9327    3.2698    8.1027 H   0  0  0  0  0  0
    4.0889    5.3438    5.6401 H   0  0  0  0  0  0
    7.9658    4.8932    4.2729 H   0  0  0  0  0  0
    9.1370    2.5235    6.7043 H   0  0  0  0  0  0
    9.9318    5.3669    5.9177 H   0  0  0  0  0  0
   12.2101    5.8150    6.9804 H   0  0  0  0  0  0
   11.1479    1.8790    5.5773 H   0  0  0  0  0  0
   14.5816    5.0659    7.0361 H   0  0  0  0  0  0
   13.5713    1.3012    5.6100 H   0  0  0  0  0  0
  1 16  1  0  0  0
  1 18  1  0  0  0
  2 13  1  0  0  0
  2 29  1  0  0  0
  3  8  1  0  0  0
  3  9  1  0  0  0
  3 30  1  0  0  0
  4 20  1  0  0  0
  4 21  2  0  0  0
  5 27  2  0  0  0
  5 28  1  0  0  0
  6  7  1  0  0  0
  6  8  1  0  0  0
  6 10  2  0  0  0
  7  9  2  0  0  0
  7 11  1  0  0  0
  8 12  2  0  0  0
  9 31  1  0  0  0
 10 14  1  0  0  0
 10 32  1  0  0  0
 11 13  1  0  0  0
 11 33  1  0  0  0
 11 34  1  0  0  0
 12 15  1  0  0  0
 12 35  1  0  0  0
 13 18  1  0  0  0
 13 36  1  0  0  0
 14 15  2  0  0  0
 14 37  1  0  0  0
 15 38  1  0  0  0
 16 19  1  0  0  0
 16 20  2  0  0  0
 17 19  2  0  0  0
 17 21  1  0  0  0
 17 22  1  0  0  0
 18 39  1  0  0  0
 18 40  1  0  0  0
 19 41  1  0  0  0
 20 42  1  0  0  0
 21 43  1  0  0  0
 22 24  2  3  0  0
 22 44  1  0  0  0
 23 24  1  0  0  0
 23 25  2  0  0  0
 23 26  1  0  0  0
 24 45  1  0  0  0
 25 27  1  0  0  0
 25 46  1  0  0  0
 26 28  2  0  0  0
 26 47  1  0  0  0
 27 48  1  0  0  0
 28 49  1  0  0  0
M  END
> <s_m_entry_id>
47567

> <s_m_entry_name>
dock_pv.100

> <s_m_Source_Path>
/home/csk/Desktop/cluster/DUD-E-result/fak1

> <s_m_Source_File>
dock_pv.maegz

> <i_m_Source_File_Index>
100

> <chembl_id>
CHEMBL1993584

> <chembl_pref_name>
None

> <i_lp_mmshare_version>
53161

> <i_f3d_flags>
0

> <r_lp_tautomer_probability>
1

> <s_lp_Force_Field>
OPLS_2005

> <r_lp_Energy>
21.142293

> <b_lp_Chiralities_Consistent>
1

> <s_lp_Variant>
CHEMBL2695_lig1540-1

> <s_i_glide_gridfile>
glide-grid_3bz3

> <i_i_glide_lignum>
1691

> <i_i_glide_rotatable_bonds>
8

> <r_i_docking_score>
-8.09355216252141

> <r_i_glide_ligand_efficiency>
-0.289055434375765

> <r_i_glide_ligand_efficiency_sa>
-0.877742543311237

> <r_i_glide_ligand_efficiency_ln>
-1.86822947612741

> <r_i_glide_gscore>
-8.09355216252141

> <r_i_glide_lipo>
-2.64780758325284

> <r_i_glide_hbond>
-0.711310391872621

> <r_i_glide_metal>
0

> <r_i_glide_rewards>
-1.67628582812127

> <r_i_glide_evdw>
-31.2002468109131

> <r_i_glide_ecoul>
-14.9727020263672

> <r_i_glide_erotb>
0.839497685459311

> <r_i_glide_esite>
-0.091728400233261

> <r_i_glide_emodel>
-64.8717921976084

> <r_i_glide_energy>
-46.1729488372803

> <r_i_glide_einternal>
6.90211868286133

> <i_i_glide_confnum>
14

> <i_i_glide_posenum>
364

> <r_i_glide_eff_state_penalty>
0

> <s_user_duplicate_titles>
CHEMBL2695_lig1540,CHEMBL2695_lig1540

> <s_m_subgroup_title>
dock_pv

> <s_m_subgroupid>
dock_pv

> <b_m_subgroup_collapsed>
1

$$$$
CHEMBL2695_lig2059
                    3D
 Schrodinger Suite 2021-1.
 47 49  0  0  1  0            999 V2000
   11.5214    7.6112    7.0616 F   0  0  0  0  0  0
   11.1532    6.4594    8.8668 F   0  0  0  0  0  0
   13.1542    7.1210    8.3904 F   0  0  0  0  0  0
    9.0286    3.7436    4.7777 O   0  0  0  0  0  0
    0.2786    2.7748   10.7042 O   0  0  0  0  0  0
    1.8953    4.3629   11.0135 O   0  0  0  0  0  0
    3.1319    4.2066    7.5592 N   0  0  2  0  0  0
    1.7071    3.3063    8.8176 C   0  0  0  0  0  0
    5.4631    4.7629    6.7536 C   0  0  0  0  0  0
    1.8179    4.6236    8.0580 C   0  0  0  0  0  0
    3.2247    3.2581    8.6733 C   0  0  0  0  0  0
   12.1932    5.3642    7.0998 C   0  0  0  0  0  0
    4.1438    5.2407    7.3694 C   0  0  0  0  0  0
    6.4753    4.0990    7.4814 C   0  0  0  0  0  0
   12.0129    6.6700    7.8684 C   0  0  0  0  0  0
    7.8853    4.0517    5.4888 C   0  0  0  0  0  0
   11.1820    3.4934    5.9127 C   0  0  0  0  0  0
   11.0697    4.7358    6.5485 C   0  0  0  0  0  0
    1.2084    3.4492   10.2686 C   0  0  0  0  0  0
    7.6629    3.7327    6.8360 C   0  0  0  0  0  0
    5.7006    5.0921    5.4162 C   0  0  0  0  0  0
    6.9054    4.7626    4.8044 C   0  0  0  0  0  0
   13.4517    4.7635    6.9562 C   0  0  0  0  0  0
    9.9717    2.8002    5.2913 C   0  0  0  0  0  0
   12.4354    2.8772    5.8465 C   0  0  0  0  0  0
   13.5718    3.5334    6.3090 C   0  0  0  0  0  0
    6.3760    3.8180    8.9753 C   0  0  0  0  0  0
    2.5541    4.8728   10.5254 H   0  0  0  0  0  0
    1.1769    2.5194    8.2797 H   0  0  0  0  0  0
    1.0947    4.7906    7.2586 H   0  0  0  0  0  0
    1.8471    5.5155    8.6898 H   0  0  0  0  0  0
    3.7667    3.6358    9.5416 H   0  0  0  0  0  0
    3.6592    2.3007    8.3806 H   0  0  0  0  0  0
    3.7137    6.0048    6.7194 H   0  0  0  0  0  0
    4.3219    5.7502    8.3086 H   0  0  0  0  0  0
   10.1047    5.2150    6.6320 H   0  0  0  0  0  0
    8.4244    3.2271    7.4089 H   0  0  0  0  0  0
    4.9558    5.6277    4.8457 H   0  0  0  0  0  0
    7.0849    5.0640    3.7841 H   0  0  0  0  0  0
   14.3358    5.2398    7.3578 H   0  0  0  0  0  0
    9.5446    2.0654    5.9745 H   0  0  0  0  0  0
   10.3083    2.2249    4.4278 H   0  0  0  0  0  0
   12.5426    1.9125    5.3710 H   0  0  0  0  0  0
   14.5352    3.0597    6.2039 H   0  0  0  0  0  0
    7.3613    3.8541    9.4408 H   0  0  0  0  0  0
    5.7843    4.5669    9.4989 H   0  0  0  0  0  0
    5.9588    2.8276    9.1573 H   0  0  0  0  0  0
  1 15  1  0  0  0
  2 15  1  0  0  0
  3 15  1  0  0  0
  4 16  1  0  0  0
  4 24  1  0  0  0
  5 19  2  0  0  0
  6 19  1  0  0  0
  6 28  1  0  0  0
  7 10  1  0  0  0
  7 11  1  0  0  0
  7 13  1  0  0  0
  8 10  1  0  0  0
  8 11  1  0  0  0
  8 19  1  0  0  0
  8 29  1  0  0  0
  9 13  1  0  0  0
  9 14  1  0  0  0
  9 21  2  0  0  0
 10 30  1  0  0  0
 10 31  1  0  0  0
 11 32  1  0  0  0
 11 33  1  0  0  0
 12 15  1  0  0  0
 12 18  2  0  0  0
 12 23  1  0  0  0
 13 34  1  0  0  0
 13 35  1  0  0  0
 14 20  2  0  0  0
 14 27  1  0  0  0
 16 20  1  0  0  0
 16 22  2  0  0  0
 17 18  1  0  0  0
 17 24  1  0  0  0
 17 25  2  0  0  0
 18 36  1  0  0  0
 20 37  1  0  0  0
 21 22  1  0  0  0
 21 38  1  0  0  0
 22 39  1  0  0  0
 23 26  2  0  0  0
 23 40  1  0  0  0
 24 41  1  0  0  0
 24 42  1  0  0  0
 25 26  1  0  0  0
 25 43  1  0  0  0
 26 44  1  0  0  0
 27 45  1  0  0  0
 27 46  1  0  0  0
 27 47  1  0  0  0
M  END
> <s_m_entry_id>
47568

> <s_m_entry_name>
dock_pv.101

> <s_m_Source_Path>
/home/csk/Desktop/cluster/DUD-E-result/fak1

> <s_m_Source_File>
dock_pv.maegz

> <i_m_Source_File_Index>
101

> <chembl_id>
CHEMBL1966501

> <chembl_pref_name>
None

> <i_lp_mmshare_version>
53161

> <i_f3d_flags>
0

> <r_lp_tautomer_probability>
1

> <s_lp_Force_Field>
OPLS_2005

> <r_lp_Energy>
25.044989

> <b_lp_Chiralities_Consistent>
1

> <s_lp_Variant>
CHEMBL2695_lig2059-1

> <s_i_glide_gridfile>
glide-grid_3bz3

> <i_i_glide_lignum>
2470

> <i_i_glide_rotatable_bonds>
8

> <r_i_docking_score>
-8.07983302422141

> <r_i_glide_ligand_efficiency>
-0.299253074971163

> <r_i_glide_ligand_efficiency_sa>
-0.8977592239272

> <r_i_glide_ligand_efficiency_ln>
-1.88085192158069

> <r_i_glide_gscore>
-8.07983302422141

> <r_i_glide_lipo>
-3.77761006399031

> <r_i_glide_hbond>
0

> <r_i_glide_metal>
0

> <r_i_glide_rewards>
-2.20305138772584

> <r_i_glide_evdw>
-39.0422973632812

> <r_i_glide_ecoul>
-6.07660913467407

> <r_i_glide_erotb>
0.80830922091194

> <r_i_glide_esite>
-0.0438745550520218

> <r_i_glide_emodel>
-64.9324748407863

> <r_i_glide_energy>
-45.1189064979553

> <r_i_glide_einternal>
5.10253381729126

> <i_i_glide_confnum>
127

> <i_i_glide_posenum>
55

> <r_i_glide_eff_state_penalty>
0

> <s_user_duplicate_titles>
CHEMBL2695_lig2059

> <s_m_subgroup_title>
dock_pv

> <s_m_subgroupid>
dock_pv

> <b_m_subgroup_collapsed>
1

$$$$
CHEMBL2695_lig2022
                    3D
 Schrodinger Suite 2021-1.
 63 67  0  0  1  0            999 V2000
   11.5872    6.7227    8.1995 F   0  0  0  0  0  0
    8.1628    3.2321    9.6603 O   0  0  0  0  0  0
    9.8995    4.8377    6.9538 N   0  0  0  0  0  0
   11.8397    3.7244    6.1321 N   0  0  0  0  0  0
   13.7872    2.4810    5.5308 N   0  0  0  0  0  0
   12.0608   -1.1306    1.6074 N   0  0  0  0  0  0
   14.0335    4.3720    6.8649 N   0  0  0  0  0  0
    6.6094    1.9603    8.7018 N   0  0  0  0  0  0
   11.1443   -3.2325   -0.2190 N   0  0  0  0  0  0
    9.0437    3.6642    6.7418 C   0  0  1  0  0  0
    7.6236    3.8048    7.3845 C   0  0  1  0  0  0
    8.7002    3.3388    5.2632 C   0  0  1  0  0  0
    6.6828    3.4025    6.2014 C   0  0  2  0  0  0
    7.5159    2.3955    5.4104 C   0  0  0  0  0  0
    7.9576    4.5103    4.6397 C   0  0  0  0  0  0
    6.7294    4.5450    5.1953 C   0  0  0  0  0  0
   11.2965    4.7625    6.8185 C   0  0  0  0  0  0
    7.4804    2.9655    8.6761 C   0  0  0  0  0  0
   12.1052    5.6782    7.5092 C   0  0  0  0  0  0
   13.1861    3.5609    6.1880 C   0  0  0  0  0  0
   12.4260   -0.2078    2.5773 C   0  0  0  0  0  0
   13.2974    1.5630    4.5949 C   0  0  0  0  0  0
   11.5061    0.3197    3.5106 C   0  0  0  0  0  0
   13.4814    5.4371    7.5091 C   0  0  0  0  0  0
   11.9596    1.1630    4.5340 C   0  0  0  0  0  0
   13.7680    0.1787    2.6697 C   0  0  0  0  0  0
   14.1926    1.0606    3.6533 C   0  0  0  0  0  0
   11.0489   -0.8854    0.5664 C   0  0  0  0  0  0
   12.9152   -2.2718    1.2317 C   0  0  0  0  0  0
   10.0283   -0.0474    3.5246 C   0  0  0  0  0  0
   10.2438   -2.1645    0.2336 C   0  0  0  0  0  0
   12.0884   -3.5260    0.8610 C   0  0  0  0  0  0
   10.3605   -4.4328   -0.5028 C   0  0  0  0  0  0
    9.5334    5.5785    7.5325 H   0  0  0  0  0  0
   14.7876    2.4620    5.6156 H   0  0  0  0  0  0
    6.0972    1.7111    7.8678 H   0  0  0  0  0  0
    6.5050    1.3936    9.5355 H   0  0  0  0  0  0
    9.5523    2.7716    7.1131 H   0  0  0  0  0  0
    7.4041    4.8201    7.7095 H   0  0  0  0  0  0
    9.5130    2.9344    4.6591 H   0  0  0  0  0  0
    5.6756    3.0630    6.4495 H   0  0  0  0  0  0
    7.7487    1.4860    5.9703 H   0  0  0  0  0  0
    7.0713    2.0892    4.4580 H   0  0  0  0  0  0
    8.3932    5.1622    3.9089 H   0  0  0  0  0  0
    5.9261    5.2461    5.0205 H   0  0  0  0  0  0
   14.1646    6.0869    8.0414 H   0  0  0  0  0  0
   11.2554    1.5102    5.2691 H   0  0  0  0  0  0
   14.4994   -0.2114    1.9766 H   0  0  0  0  0  0
   15.2357    1.3353    3.6989 H   0  0  0  0  0  0
   10.3858   -0.0619    0.8207 H   0  0  0  0  0  0
   11.5623   -0.5419   -0.3356 H   0  0  0  0  0  0
   13.5459   -1.9859    0.3889 H   0  0  0  0  0  0
   13.5935   -2.5131    2.0521 H   0  0  0  0  0  0
    9.8953   -1.1290    3.5071 H   0  0  0  0  0  0
    9.5071    0.3633    4.3930 H   0  0  0  0  0  0
    9.5237    0.3581    2.6601 H   0  0  0  0  0  0
    9.6664   -2.4762    1.1100 H   0  0  0  0  0  0
    9.5230   -1.9375   -0.5540 H   0  0  0  0  0  0
   12.7646   -4.3226    0.5431 H   0  0  0  0  0  0
   11.5690   -3.8959    1.7507 H   0  0  0  0  0  0
   11.0004   -5.2295   -0.8815 H   0  0  0  0  0  0
    9.8493   -4.8050    0.3879 H   0  0  0  0  0  0
    9.6004   -4.2327   -1.2545 H   0  0  0  0  0  0
  1 19  1  0  0  0
  2 18  2  0  0  0
  3 10  1  0  0  0
  3 17  1  0  0  0
  3 34  1  0  0  0
  4 17  2  0  0  0
  4 20  1  0  0  0
  5 20  1  0  0  0
  5 22  1  0  0  0
  5 35  1  0  0  0
  6 21  1  0  0  0
  6 28  1  0  0  0
  6 29  1  0  0  0
  7 20  2  0  0  0
  7 24  1  0  0  0
  8 18  1  0  0  0
  8 36  1  0  0  0
  8 37  1  0  0  0
  9 31  1  0  0  0
  9 32  1  0  0  0
  9 33  1  0  0  0
 10 11  1  0  0  0
 10 12  1  0  0  0
 10 38  1  0  0  0
 11 13  1  0  0  0
 11 18  1  0  0  0
 11 39  1  0  0  0
 12 14  1  0  0  0
 12 15  1  0  0  0
 12 40  1  0  0  0
 13 14  1  0  0  0
 13 16  1  0  0  0
 13 41  1  0  0  0
 14 42  1  0  0  0
 14 43  1  0  0  0
 15 16  2  0  0  0
 15 44  1  0  0  0
 16 45  1  0  0  0
 17 19  1  0  0  0
 19 24  2  0  0  0
 21 23  1  0  0  0
 21 26  2  0  0  0
 22 25  1  0  0  0
 22 27  2  0  0  0
 23 25  2  0  0  0
 23 30  1  0  0  0
 24 46  1  0  0  0
 25 47  1  0  0  0
 26 27  1  0  0  0
 26 48  1  0  0  0
 27 49  1  0  0  0
 28 31  1  0  0  0
 28 50  1  0  0  0
 28 51  1  0  0  0
 29 32  1  0  0  0
 29 52  1  0  0  0
 29 53  1  0  0  0
 30 54  1  0  0  0
 30 55  1  0  0  0
 30 56  1  0  0  0
 31 57  1  0  0  0
 31 58  1  0  0  0
 32 59  1  0  0  0
 32 60  1  0  0  0
 33 61  1  0  0  0
 33 62  1  0  0  0
 33 63  1  0  0  0
M  END
> <s_m_entry_id>
47569

> <s_m_entry_name>
dock_pv.102

> <s_m_Source_Path>
/home/csk/Desktop/cluster/DUD-E-result/fak1

> <s_m_Source_File>
dock_pv.maegz

> <i_m_Source_File_Index>
102

> <chembl_id>
CHEMBL1967878

> <chembl_pref_name>
CENISERTIB

> <i_lp_mmshare_version>
53161

> <i_f3d_flags>
0

> <r_lp_tautomer_probability>
0.999999624730965

> <s_lp_Force_Field>
OPLS_2005

> <r_lp_Energy>
84.736168

> <b_lp_Chiralities_Consistent>
1

> <s_lp_Variant>
CHEMBL2695_lig2022-4

> <s_i_glide_gridfile>
glide-grid_3bz3

> <i_i_glide_lignum>
2386

> <i_i_glide_rotatable_bonds>
6

> <r_i_docking_score>
-8.07106559762497

> <r_i_glide_ligand_efficiency>
-0.244577745382575

> <r_i_glide_ligand_efficiency_sa>
-0.784491513753261

> <r_i_glide_ligand_efficiency_ln>
-1.79496319917067

> <r_i_glide_gscore>
-8.07106559762497

> <r_i_glide_lipo>
-2.67748408933801

> <r_i_glide_hbond>
-0.365156384102342

> <r_i_glide_metal>
0

> <r_i_glide_rewards>
-2.35225515742482

> <r_i_glide_evdw>
-40.1394462585449

> <r_i_glide_ecoul>
-7.70653676986694

> <r_i_glide_erotb>
0.491884757411642

> <r_i_glide_esite>
-0.00510189576415817

> <r_i_glide_emodel>
-67.762465498378

> <r_i_glide_energy>
-47.8459830284119

> <r_i_glide_einternal>
7.35182619094849

> <i_i_glide_confnum>
2

> <i_i_glide_posenum>
247

> <r_i_glide_eff_state_penalty>
0

> <s_user_duplicate_titles>
CHEMBL2695_lig2022

> <s_m_subgroup_title>
dock_pv

> <s_m_subgroupid>
dock_pv

> <b_m_subgroup_collapsed>
1

$$$$
CHEMBL2695_lig292
                    3D
 Schrodinger Suite 2021-1.
 42 45  0  0  1  0            999 V2000
    6.4417    2.8279    5.6707 C   0  0  0  0  0  0
    7.3176    2.3453    4.7117 C   0  0  0  0  0  0
    8.6890    2.5235    4.8620 C   0  0  0  0  0  0
    6.9459    3.4839    6.7852 C   0  0  0  0  0  0
   10.5705    5.5777    7.1609 C   0  0  0  0  0  0
    9.2293    3.1727    5.9844 C   0  0  0  0  0  0
    8.3220    3.6510    6.9710 C   0  0  0  0  0  0
    8.7282    4.3221    8.1263 N   0  0  0  0  0  0
    9.7397    5.1630    8.3772 C   0  0  0  0  0  0
    9.9808    5.5630    9.5090 O   0  0  0  0  0  0
   11.3818    4.4232    6.6053 C   0  0  0  0  0  0
   10.7320    3.3002    6.0592 C   0  0  0  0  0  0
   11.4574    2.2813    5.5090 N   0  0  0  0  0  0
   12.8124    2.3825    5.5090 C   0  0  0  0  0  0
   13.5119    3.3942    6.0762 N   0  0  0  0  0  0
   12.7830    4.4105    6.6013 C   0  0  0  0  0  0
   13.5770    1.5630    4.6585 N   0  0  0  0  0  0
   13.3065    0.7630    3.5226 C   0  0  0  0  0  0
   12.0206    0.3630    3.1404 C   0  0  0  0  0  0
   11.8257   -0.5112    2.0736 C   0  0  0  0  0  0
   12.9161   -1.0325    1.3610 C   0  0  0  0  0  0
   14.2074   -0.6437    1.7467 C   0  0  0  0  0  0
   14.3946    0.2463    2.8108 C   0  0  0  0  0  0
   12.7813   -1.9256    0.3091 O   0  0  0  0  0  0
   11.5221   -2.5620    0.1029 C   0  0  0  0  0  0
   15.3082   -1.1644    1.1090 O   0  0  0  0  0  0
    5.3774    2.6831    5.5549 H   0  0  0  0  0  0
    6.9325    1.8098    3.8573 H   0  0  0  0  0  0
    9.3315    2.1413    4.0824 H   0  0  0  0  0  0
    6.2497    3.8540    7.5246 H   0  0  0  0  0  0
    9.9220    5.9700    6.3783 H   0  0  0  0  0  0
   11.2271    6.4001    7.4478 H   0  0  0  0  0  0
    8.1587    4.1559    8.9418 H   0  0  0  0  0  0
   13.3474    5.2303    7.0233 H   0  0  0  0  0  0
   14.5655    1.6687    4.8352 H   0  0  0  0  0  0
   11.1463    0.7046    3.6675 H   0  0  0  0  0  0
   10.8105   -0.7789    1.8227 H   0  0  0  0  0  0
   15.3996    0.5066    3.1105 H   0  0  0  0  0  0
   11.6209   -3.3162   -0.6776 H   0  0  0  0  0  0
   11.1736   -3.0680    1.0050 H   0  0  0  0  0  0
   10.7630   -1.8492   -0.2231 H   0  0  0  0  0  0
   16.0537   -1.2687    1.7163 H   0  0  0  0  0  0
  1  2  2  0  0  0
  1  4  1  0  0  0
  1 27  1  0  0  0
  2  3  1  0  0  0
  2 28  1  0  0  0
  3  6  2  0  0  0
  3 29  1  0  0  0
  4  7  2  0  0  0
  4 30  1  0  0  0
  5 11  1  0  0  0
  5  9  1  0  0  0
  5 31  1  0  0  0
  5 32  1  0  0  0
  6 12  1  0  0  0
  6  7  1  0  0  0
  7  8  1  0  0  0
  8  9  1  0  0  0
  8 33  1  0  0  0
  9 10  2  0  0  0
 11 16  1  0  0  0
 11 12  2  0  0  0
 12 13  1  0  0  0
 13 14  2  0  0  0
 14 15  1  0  0  0
 14 17  1  0  0  0
 15 16  2  0  0  0
 16 34  1  0  0  0
 17 18  1  0  0  0
 17 35  1  0  0  0
 18 19  2  0  0  0
 18 23  1  0  0  0
 19 20  1  0  0  0
 19 36  1  0  0  0
 20 21  2  0  0  0
 20 37  1  0  0  0
 21 22  1  0  0  0
 21 24  1  0  0  0
 22 23  2  0  0  0
 22 26  1  0  0  0
 23 38  1  0  0  0
 24 25  1  0  0  0
 25 39  1  0  0  0
 25 40  1  0  0  0
 25 41  1  0  0  0
 26 42  1  0  0  0
M  END
> <s_m_entry_id>
47570

> <s_m_entry_name>
dock_pv.103

> <s_m_Source_Path>
/home/csk/Desktop/cluster/DUD-E-result/fak1

> <s_m_Source_File>
dock_pv.maegz

> <i_m_Source_File_Index>
103

> <chembl_id>
CHEMBL603463

> <chembl_pref_name>
None

> <i_lp_mmshare_version>
53161

> <i_f3d_flags>
0

> <r_lp_tautomer_probability>
0.99999998756527

> <s_lp_Force_Field>
OPLS_2005

> <r_lp_Energy>
25.106919

> <b_lp_Chiralities_Consistent>
1

> <s_lp_Variant>
CHEMBL2695_lig292-1

> <s_i_glide_gridfile>
glide-grid_3bz3

> <i_i_glide_lignum>
329

> <i_i_glide_rotatable_bonds>
4

> <r_i_docking_score>
-8.06006391055507

> <r_i_glide_ligand_efficiency>
-0.310002458098272

> <r_i_glide_ligand_efficiency_sa>
-0.91838106231536

> <r_i_glide_ligand_efficiency_ln>
-1.89287956216704

> <r_i_glide_gscore>
-8.06006391055507

> <r_i_glide_lipo>
-2.29437394249866

> <r_i_glide_hbond>
-0.555591690641367

> <r_i_glide_metal>
0

> <r_i_glide_rewards>
-2.11176131505921

> <r_i_glide_evdw>
-29.3590698242188

> <r_i_glide_ecoul>
-12.9607334136963

> <r_i_glide_erotb>
0.313726540909544

> <r_i_glide_esite>
0

> <r_i_glide_emodel>
-58.0896657456794

> <r_i_glide_energy>
-42.319803237915

> <r_i_glide_einternal>
7.85115623474121

> <i_i_glide_confnum>
1

> <i_i_glide_posenum>
28

> <r_i_glide_eff_state_penalty>
0

> <s_user_duplicate_titles>
CHEMBL2695_lig292

> <s_m_subgroup_title>
dock_pv

> <s_m_subgroupid>
dock_pv

> <b_m_subgroup_collapsed>
1

$$$$
CHEMBL2695_lig859
                    3D
 Schrodinger Suite 2021-1.
 45 48  0  0  1  0            999 V2000
   11.2010   -1.5428    1.3579 C   0  0  0  0  0  0
   11.9058   -0.5962    2.3090 C   0  0  0  0  0  0
   13.2726   -0.3282    2.1971 C   0  0  0  0  0  0
   13.8544    0.5550    3.1090 C   0  0  0  0  0  0
   13.0706    1.1630    4.0976 C   0  0  0  0  0  0
   13.7189    1.9820    5.0354 N   0  0  0  0  0  0
   13.2842    3.0143    5.8680 C   0  0  0  0  0  0
   14.2758    3.6718    6.5086 N   0  0  0  0  0  0
   13.9318    4.7630    7.2300 C   0  0  0  0  0  0
   12.5930    5.1229    7.3744 C   0  0  0  0  0  0
   11.8667    6.3351    8.3944 S   0  0  0  0  0  0
   10.3220    5.5630    8.1199 C   0  0  0  0  0  0
   10.2813    4.6117    7.1194 C   0  0  0  0  0  0
    9.0498    3.8896    6.6877 C   0  0  0  0  0  0
    8.8454    3.5986    5.3360 C   0  0  0  0  0  0
    7.7441    2.8433    4.9437 C   0  0  0  0  0  0
    6.8456    2.3630    5.8889 C   0  0  0  0  0  0
    7.0477    2.6265    7.2404 C   0  0  0  0  0  0
    6.1808    2.0574    8.1743 N   0  0  0  0  0  0
    4.7736    2.9224    8.7731 S   0  0  0  0  0  0
    4.3022    3.7989    7.6963 O   0  0  0  0  0  0
    3.8888    1.9267    9.3862 O   0  0  0  0  0  0
    5.5453    3.9630   10.1180 C   0  0  0  0  0  0
    8.1367    3.4081    7.6380 C   0  0  0  0  0  0
   11.6171    4.3258    6.7090 C   0  0  0  0  0  0
   11.9679    3.3178    5.9090 N   0  0  0  0  0  0
   11.7014    0.8358    4.1312 C   0  0  0  0  0  0
   11.1220   -0.0370    3.2659 N   0  0  0  0  0  0
   11.9059   -2.0624    0.7090 H   0  0  0  0  0  0
   10.4999   -0.9909    0.7306 H   0  0  0  0  0  0
   10.6396   -2.2955    1.9132 H   0  0  0  0  0  0
   13.8744   -0.7997    1.4350 H   0  0  0  0  0  0
   14.9158    0.7498    3.0570 H   0  0  0  0  0  0
   14.7174    1.8443    5.0877 H   0  0  0  0  0  0
   14.7220    5.2731    7.7585 H   0  0  0  0  0  0
    9.4778    5.9088    8.6963 H   0  0  0  0  0  0
    9.5482    3.9368    4.5880 H   0  0  0  0  0  0
    7.5951    2.5956    3.9090 H   0  0  0  0  0  0
    6.0167    1.7447    5.5712 H   0  0  0  0  0  0
    6.3220    1.1073    8.4865 H   0  0  0  0  0  0
    4.7298    4.3630   10.7090 H   0  0  0  0  0  0
    6.1731    3.3225   10.7331 H   0  0  0  0  0  0
    6.1274    4.7616    9.6641 H   0  0  0  0  0  0
    8.3037    3.5902    8.6892 H   0  0  0  0  0  0
   11.0406    1.2324    4.8863 H   0  0  0  0  0  0
  1  2  1  0  0  0
  1 29  1  0  0  0
  1 30  1  0  0  0
  1 31  1  0  0  0
  2  3  2  0  0  0
  2 28  1  0  0  0
  3  4  1  0  0  0
  3 32  1  0  0  0
  4  5  2  0  0  0
  4 33  1  0  0  0
  5  6  1  0  0  0
  5 27  1  0  0  0
  6  7  1  0  0  0
  6 34  1  0  0  0
  7  8  2  0  0  0
  7 26  1  0  0  0
  8  9  1  0  0  0
  9 10  2  0  0  0
  9 35  1  0  0  0
 10 11  1  0  0  0
 10 25  1  0  0  0
 11 12  1  0  0  0
 12 13  2  0  0  0
 12 36  1  0  0  0
 13 14  1  0  0  0
 13 25  1  0  0  0
 14 15  2  0  0  0
 14 24  1  0  0  0
 15 16  1  0  0  0
 15 37  1  0  0  0
 16 17  2  0  0  0
 16 38  1  0  0  0
 17 18  1  0  0  0
 17 39  1  0  0  0
 18 19  1  0  0  0
 18 24  2  0  0  0
 19 20  1  0  0  0
 19 40  1  0  0  0
 20 21  2  0  0  0
 20 22  2  0  0  0
 20 23  1  0  0  0
 23 41  1  0  0  0
 23 42  1  0  0  0
 23 43  1  0  0  0
 24 44  1  0  0  0
 25 26  2  0  0  0
 27 28  2  0  0  0
 27 45  1  0  0  0
M  END
> <s_m_entry_id>
47571

> <s_m_entry_name>
dock_pv.104

> <s_m_Source_Path>
/home/csk/Desktop/cluster/DUD-E-result/fak1

> <s_m_Source_File>
dock_pv.maegz

> <i_m_Source_File_Index>
104

> <chembl_id>
CHEMBL3642819

> <chembl_pref_name>
None

> <i_lp_mmshare_version>
53161

> <i_f3d_flags>
0

> <r_lp_tautomer_probability>
0.999999999999999

> <s_lp_Force_Field>
OPLS_2005

> <r_lp_Energy>
1.164512

> <b_lp_Chiralities_Consistent>
1

> <s_lp_Variant>
CHEMBL2695_lig859-1

> <s_i_glide_gridfile>
glide-grid_3bz3

> <i_i_glide_lignum>
926

> <i_i_glide_rotatable_bonds>
5

> <r_i_docking_score>
-8.05532005767686

> <r_i_glide_ligand_efficiency>
-0.287690002059888

> <r_i_glide_ligand_efficiency_sa>
-0.873596286603608

> <r_i_glide_ligand_efficiency_ln>
-1.85940438378591

> <r_i_glide_gscore>
-8.05532005767686

> <r_i_glide_lipo>
-2.91318429756881

> <r_i_glide_hbond>
-0.523769002175318

> <r_i_glide_metal>
0

> <r_i_glide_rewards>
-2.15629406215036

> <r_i_glide_evdw>
-37.549503326416

> <r_i_glide_ecoul>
-6.95891618728638

> <r_i_glide_erotb>
0.465592187766904

> <r_i_glide_esite>
-0.00635228913551478

> <r_i_glide_emodel>
-58.2916897115025

> <r_i_glide_energy>
-44.5084195137024

> <r_i_glide_einternal>
5.83197736740112

> <i_i_glide_confnum>
6

> <i_i_glide_posenum>
274

> <r_i_glide_eff_state_penalty>
0

> <s_user_duplicate_titles>
CHEMBL2695_lig859

> <s_m_subgroup_title>
dock_pv

> <s_m_subgroupid>
dock_pv

> <b_m_subgroup_collapsed>
1

$$$$
CHEMBL2695_lig2066
                    3D
 Schrodinger Suite 2021-1.
 42 45  0  0  1  0            999 V2000
   13.9219    5.1640    8.0013 O   0  0  0  0  0  0
    7.2864    4.1932    6.8359 N   0  0  0  0  0  0
    8.0156    4.6023    4.7712 N   0  0  0  0  0  0
    4.7297    4.1681    7.9967 N   0  0  0  0  0  0
    5.9221    3.7597   10.0801 N   0  0  0  0  0  0
   12.0964    4.7638    6.7181 N   0  0  0  0  0  0
   11.5220    8.7060    7.1090 N   0  0  0  0  0  0
    8.3826    4.2271    5.9850 C   0  0  0  0  0  0
    7.1561    3.9627    8.2278 C   0  0  0  0  0  0
    6.1716    4.4879    6.0423 C   0  0  0  0  0  0
    9.8291    3.8722    6.3404 C   0  0  1  0  0  0
    5.8344    3.9630    8.7205 C   0  0  0  0  0  0
    6.7145    4.7749    4.7746 C   0  0  0  0  0  0
    4.9173    4.4555    6.6771 C   0  0  0  0  0  0
   10.4145    2.8011    5.3833 C   0  0  1  0  0  0
    8.0500    3.7671    9.3267 C   0  0  0  0  0  0
   10.7357    5.1257    6.2845 C   0  0  0  0  0  0
    7.2478    3.6787   10.4476 C   0  0  0  0  0  0
   11.8814    2.5012    5.7708 C   0  0  0  0  0  0
   12.8002    3.7423    5.9091 C   0  0  0  0  0  0
   12.7668    5.4450    7.6843 C   0  0  0  0  0  0
    9.5795    1.5089    5.3249 C   0  0  0  0  0  0
   12.0558    6.5392    8.4843 C   0  0  0  0  0  0
   11.7580    7.7539    7.7180 C   0  0  0  0  0  0
    5.1590    3.6976   10.7421 H   0  0  0  0  0  0
    9.8720    3.4588    7.3437 H   0  0  0  0  0  0
    6.1963    5.1617    3.9091 H   0  0  0  0  0  0
    4.0185    4.6724    6.1161 H   0  0  0  0  0  0
   10.4073    3.2340    4.3825 H   0  0  0  0  0  0
    9.1220    3.7331    9.3347 H   0  0  0  0  0  0
   10.2890    5.9645    6.8173 H   0  0  0  0  0  0
   10.8656    5.4218    5.2471 H   0  0  0  0  0  0
    7.5067    3.5633   11.4897 H   0  0  0  0  0  0
   12.3161    1.7894    5.0675 H   0  0  0  0  0  0
   11.8978    1.9637    6.7093 H   0  0  0  0  0  0
   13.0478    4.1736    4.9421 H   0  0  0  0  0  0
   13.7108    3.3935    6.3967 H   0  0  0  0  0  0
    9.4952    1.0407    6.3055 H   0  0  0  0  0  0
    8.5678    1.6949    4.9606 H   0  0  0  0  0  0
   10.0268    0.7803    4.6487 H   0  0  0  0  0  0
   12.6731    6.8369    9.3323 H   0  0  0  0  0  0
   11.1263    6.1532    8.9036 H   0  0  0  0  0  0
  1 21  2  0  0  0
  2  8  1  0  0  0
  2  9  1  0  0  0
  2 10  1  0  0  0
  3  8  2  0  0  0
  3 13  1  0  0  0
  4 12  1  0  0  0
  4 14  2  0  0  0
  5 12  1  0  0  0
  5 18  1  0  0  0
  5 25  1  0  0  0
  6 17  1  0  0  0
  6 20  1  0  0  0
  6 21  1  0  0  0
  7 24  3  0  0  0
  8 11  1  0  0  0
  9 12  2  0  0  0
  9 16  1  0  0  0
 10 13  2  0  0  0
 10 14  1  0  0  0
 11 15  1  0  0  0
 11 17  1  0  0  0
 11 26  1  0  0  0
 13 27  1  0  0  0
 14 28  1  0  0  0
 15 19  1  0  0  0
 15 22  1  0  0  0
 15 29  1  0  0  0
 16 18  2  0  0  0
 16 30  1  0  0  0
 17 31  1  0  0  0
 17 32  1  0  0  0
 18 33  1  0  0  0
 19 20  1  0  0  0
 19 34  1  0  0  0
 19 35  1  0  0  0
 20 36  1  0  0  0
 20 37  1  0  0  0
 21 23  1  0  0  0
 22 38  1  0  0  0
 22 39  1  0  0  0
 22 40  1  0  0  0
 23 24  1  0  0  0
 23 41  1  0  0  0
 23 42  1  0  0  0
M  END
> <s_m_entry_id>
47572

> <s_m_entry_name>
dock_pv.105

> <s_m_Source_Path>
/home/csk/Desktop/cluster/DUD-E-result/fak1

> <s_m_Source_File>
dock_pv.maegz

> <i_m_Source_File_Index>
105

> <chembl_id>
CHEMBL1966175

> <chembl_pref_name>
None

> <i_lp_mmshare_version>
53161

> <i_f3d_flags>
0

> <r_lp_tautomer_probability>
1

> <s_lp_Force_Field>
OPLS_2005

> <r_lp_Energy>
62.308305

> <b_lp_Chiralities_Consistent>
1

> <s_lp_Variant>
CHEMBL2695_lig2066-4

> <s_i_glide_gridfile>
glide-grid_3bz3

> <i_i_glide_lignum>
2481

> <i_i_glide_rotatable_bonds>
3

> <r_i_docking_score>
-8.0455884120155

> <r_i_glide_ligand_efficiency>
-0.335232850500646

> <r_i_glide_ligand_efficiency_sa>
-0.966978868150598

> <r_i_glide_ligand_efficiency_ln>
-1.92567849499092

> <r_i_glide_gscore>
-8.0455884120155

> <r_i_glide_lipo>
-2.89218351876616

> <r_i_glide_hbond>
-0.27116236084729

> <r_i_glide_metal>
0

> <r_i_glide_rewards>
-3.1363160456724

> <r_i_glide_evdw>
-41.4334716796875

> <r_i_glide_ecoul>
-0.227574452757835

> <r_i_glide_erotb>
0.3598832651684

> <r_i_glide_esite>
0

> <r_i_glide_emodel>
-61.4077837624377

> <r_i_glide_energy>
-41.6610461324453

> <r_i_glide_einternal>
2.3962242603302

> <i_i_glide_confnum>
6

> <i_i_glide_posenum>
119

> <r_i_glide_eff_state_penalty>
0

> <s_user_duplicate_titles>
CHEMBL2695_lig2066

> <s_m_subgroup_title>
dock_pv

> <s_m_subgroupid>
dock_pv

> <b_m_subgroup_collapsed>
1

$$$$
CHEMBL2695_lig436
                    3D
 Schrodinger Suite 2021-1.
 48 51  0  0  1  0            999 V2000
    8.0082    4.3629    8.9847 C   0  0  0  0  0  0
    7.9164    3.7880    7.5846 C   0  0  0  0  0  0
    8.8370    4.1107    6.5552 C   0  0  0  0  0  0
    8.7361    3.5029    5.2995 C   0  0  0  0  0  0
    7.7216    2.5893    5.0381 C   0  0  0  0  0  0
    6.7979    2.2813    6.0269 C   0  0  0  0  0  0
    6.8970    2.8637    7.2854 C   0  0  0  0  0  0
    8.9089    5.1162    9.3733 O   0  0  0  0  0  0
    6.9820    3.9911    9.7809 O   0  0  0  0  0  0
    9.8363    5.0701    6.7571 N   0  0  0  0  0  0
   11.9935    5.6892    7.5068 N   0  0  0  0  0  0
   13.3555    5.3889    7.6370 C   0  0  0  0  0  0
   13.9213    4.3630    6.9729 N   0  0  0  0  0  0
   13.0770    3.6350    6.1935 C   0  0  0  0  0  0
   11.7588    3.8813    6.0130 N   0  0  0  0  0  0
   11.2165    4.9004    6.7082 C   0  0  0  0  0  0
   13.9219    6.2225    8.5429 N   0  0  0  0  0  0
   12.9741    7.0571    8.9026 C   0  0  0  0  0  0
   11.7474    6.7648    8.3303 C   0  0  0  0  0  0
   13.6242    2.5012    5.5784 N   0  0  0  0  0  0
   13.0386    1.5630    4.7091 C   0  0  0  0  0  0
   11.7006    1.1630    4.8372 C   0  0  0  0  0  0
   11.1224    0.3325    3.8857 C   0  0  0  0  0  0
   11.8924   -0.1507    2.8234 C   0  0  0  0  0  0
   13.2358    0.2204    2.7088 C   0  0  0  0  0  0
   13.8067    1.0761    3.6491 C   0  0  0  0  0  0
   11.2618   -1.0647    1.7837 C   0  0  0  0  0  0
   10.7196   -2.2692    2.3902 N   0  0  0  0  0  0
    6.8788    4.4733   11.1087 C   0  0  0  0  0  0
    9.4388    3.7474    4.5159 H   0  0  0  0  0  0
    7.6425    2.1197    4.0689 H   0  0  0  0  0  0
    6.0152    1.5635    5.8225 H   0  0  0  0  0  0
    6.1651    2.5651    8.0232 H   0  0  0  0  0  0
    9.5922    5.7046    7.5035 H   0  0  0  0  0  0
   13.1687    7.8544    9.6068 H   0  0  0  0  0  0
   10.7767    7.2214    8.4526 H   0  0  0  0  0  0
   14.6098    2.3762    5.7396 H   0  0  0  0  0  0
   11.0886    1.5091    5.6561 H   0  0  0  0  0  0
   10.0803    0.0610    3.9758 H   0  0  0  0  0  0
   13.8384   -0.1500    1.8928 H   0  0  0  0  0  0
   14.8429    1.3620    3.5496 H   0  0  0  0  0  0
   10.4711   -0.5279    1.2571 H   0  0  0  0  0  0
   12.0046   -1.3511    1.0380 H   0  0  0  0  0  0
    9.8538   -2.0399    2.8611 H   0  0  0  0  0  0
   10.4592   -2.9254    1.6675 H   0  0  0  0  0  0
    5.9211    4.1627   11.5108 H   0  0  0  0  0  0
    6.9187    5.5619   11.1403 H   0  0  0  0  0  0
    7.6712    4.0731   11.7414 H   0  0  0  0  0  0
  1  2  1  0  0  0
  1  8  2  0  0  0
  1  9  1  0  0  0
  2  3  1  0  0  0
  2  7  2  0  0  0
  3  4  2  0  0  0
  3 10  1  0  0  0
  4  5  1  0  0  0
  4 30  1  0  0  0
  5  6  2  0  0  0
  5 31  1  0  0  0
  6  7  1  0  0  0
  6 32  1  0  0  0
  7 33  1  0  0  0
  9 29  1  0  0  0
 10 16  1  0  0  0
 10 34  1  0  0  0
 11 12  1  0  0  0
 11 16  1  0  0  0
 11 19  1  0  0  0
 12 13  1  0  0  0
 12 17  2  0  0  0
 13 14  2  0  0  0
 14 15  1  0  0  0
 14 20  1  0  0  0
 15 16  2  0  0  0
 17 18  1  0  0  0
 18 19  2  0  0  0
 18 35  1  0  0  0
 19 36  1  0  0  0
 20 21  1  0  0  0
 20 37  1  0  0  0
 21 22  1  0  0  0
 21 26  2  0  0  0
 22 23  2  0  0  0
 22 38  1  0  0  0
 23 24  1  0  0  0
 23 39  1  0  0  0
 24 25  2  0  0  0
 24 27  1  0  0  0
 25 26  1  0  0  0
 25 40  1  0  0  0
 26 41  1  0  0  0
 27 28  1  0  0  0
 27 42  1  0  0  0
 27 43  1  0  0  0
 28 44  1  0  0  0
 28 45  1  0  0  0
 29 46  1  0  0  0
 29 47  1  0  0  0
 29 48  1  0  0  0
M  END
> <s_m_entry_id>
47573

> <s_m_entry_name>
dock_pv.106

> <s_m_Source_Path>
/home/csk/Desktop/cluster/DUD-E-result/fak1

> <s_m_Source_File>
dock_pv.maegz

> <i_m_Source_File_Index>
106

> <chembl_id>
CHEMBL3393282

> <chembl_pref_name>
None

> <i_lp_mmshare_version>
53161

> <i_f3d_flags>
0

> <r_lp_tautomer_probability>
1

> <s_lp_Force_Field>
OPLS_2005

> <r_lp_Energy>
31.835873

> <b_lp_Chiralities_Consistent>
1

> <s_lp_Variant>
CHEMBL2695_lig436-1

> <s_i_glide_gridfile>
glide-grid_3bz3

> <i_i_glide_lignum>
489

> <i_i_glide_rotatable_bonds>
7

> <r_i_docking_score>
-8.01777072624793

> <r_i_glide_ligand_efficiency>
-0.276474852629239

> <r_i_glide_ligand_efficiency_sa>
-0.849418340658412

> <r_i_glide_ligand_efficiency_ln>
-1.8358661831875

> <r_i_glide_gscore>
-8.01777072624793

> <r_i_glide_lipo>
-2.36442734619722

> <r_i_glide_hbond>
-0.0102594869763433

> <r_i_glide_metal>
0

> <r_i_glide_rewards>
-3.3040183034267

> <r_i_glide_evdw>
-47.4268531799316

> <r_i_glide_ecoul>
-4.06994724273682

> <r_i_glide_erotb>
0.642769155759432

> <r_i_glide_esite>
0

> <r_i_glide_emodel>
-69.7723187259473

> <r_i_glide_energy>
-51.4968004226685

> <r_i_glide_einternal>
7.64779090881348

> <i_i_glide_confnum>
3

> <i_i_glide_posenum>
115

> <r_i_glide_eff_state_penalty>
0

> <s_user_duplicate_titles>
CHEMBL2695_lig436

> <s_m_subgroup_title>
dock_pv

> <s_m_subgroupid>
dock_pv

> <b_m_subgroup_collapsed>
1

$$$$
CHEMBL2695_lig1728
                    3D
 Schrodinger Suite 2021-1.
 33 35  0  0  1  0            999 V2000
    7.2868    4.3618   10.8526 O   0  0  0  0  0  0
    5.2194    4.0332    7.2764 N   0  0  0  0  0  0
    5.6833    3.1287    9.9090 N   0  0  0  0  0  0
   13.5221    6.7669    8.7158 N   0  0  0  0  0  0
    6.5833    4.1570    7.2520 C   0  0  0  0  0  0
    7.3597    4.1289    8.4641 C   0  0  0  0  0  0
    7.2595    4.3711    6.0095 C   0  0  0  0  0  0
    9.3945    4.5426    7.1541 C   0  0  0  0  0  0
    8.7368    4.3607    8.3734 C   0  0  0  0  0  0
    8.6593    4.5133    5.9753 C   0  0  0  0  0  0
   10.8597    4.7626    7.1020 C   0  0  0  0  0  0
    6.7649    3.8996    9.8395 C   0  0  0  0  0  0
    6.4929    4.5119    4.8353 C   0  0  0  0  0  0
   11.4875    5.7224    7.9086 C   0  0  0  0  0  0
   11.6483    3.9633    6.2637 C   0  0  0  0  0  0
    4.5178    4.1238    6.1244 C   0  0  0  0  0  0
    5.1143    4.3630    4.8966 C   0  0  0  0  0  0
   12.8777    5.8380    7.9104 C   0  0  0  0  0  0
   13.0365    4.0784    6.2679 C   0  0  0  0  0  0
   13.6479    5.0032    7.1090 C   0  0  0  0  0  0
    5.2465    2.7946    9.0643 H   0  0  0  0  0  0
    5.2625    2.9331   10.8142 H   0  0  0  0  0  0
   14.5366    6.7724    8.7103 H   0  0  0  0  0  0
   12.9917    7.3844    9.3122 H   0  0  0  0  0  0
    9.3298    4.3744    9.2779 H   0  0  0  0  0  0
    9.1490    4.6708    5.0231 H   0  0  0  0  0  0
    6.9882    4.7625    3.9093 H   0  0  0  0  0  0
   10.8932    6.3562    8.5515 H   0  0  0  0  0  0
   11.1850    3.2198    5.6309 H   0  0  0  0  0  0
    3.4444    4.0211    6.2003 H   0  0  0  0  0  0
    4.5083    4.4497    4.0092 H   0  0  0  0  0  0
   13.6319    3.4401    5.6317 H   0  0  0  0  0  0
   14.7224    5.0921    7.1134 H   0  0  0  0  0  0
  1 12  2  0  0  0
  2  5  2  0  0  0
  2 16  1  0  0  0
  3 12  1  0  0  0
  3 21  1  0  0  0
  3 22  1  0  0  0
  4 18  1  0  0  0
  4 23  1  0  0  0
  4 24  1  0  0  0
  5  6  1  0  0  0
  5  7  1  0  0  0
  6  9  2  0  0  0
  6 12  1  0  0  0
  7 10  1  0  0  0
  7 13  2  0  0  0
  8  9  1  0  0  0
  8 10  2  0  0  0
  8 11  1  0  0  0
  9 25  1  0  0  0
 10 26  1  0  0  0
 11 14  1  0  0  0
 11 15  2  0  0  0
 13 17  1  0  0  0
 13 27  1  0  0  0
 14 18  2  0  0  0
 14 28  1  0  0  0
 15 19  1  0  0  0
 15 29  1  0  0  0
 16 17  2  0  0  0
 16 30  1  0  0  0
 17 31  1  0  0  0
 18 20  1  0  0  0
 19 20  2  0  0  0
 19 32  1  0  0  0
 20 33  1  0  0  0
M  END
> <s_m_entry_id>
47574

> <s_m_entry_name>
dock_pv.107

> <s_m_Source_Path>
/home/csk/Desktop/cluster/DUD-E-result/fak1

> <s_m_Source_File>
dock_pv.maegz

> <i_m_Source_File_Index>
107

> <chembl_id>
CHEMBL1970314

> <chembl_pref_name>
None

> <i_lp_mmshare_version>
53161

> <i_f3d_flags>
0

> <r_lp_tautomer_probability>
1

> <s_lp_Force_Field>
OPLS_2005

> <r_lp_Energy>
23.802917

> <b_lp_Chiralities_Consistent>
1

> <s_lp_Variant>
CHEMBL2695_lig1728-1

> <s_i_glide_gridfile>
glide-grid_3bz3

> <i_i_glide_lignum>
1960

> <i_i_glide_rotatable_bonds>
2

> <r_i_docking_score>
-7.99312333221365

> <r_i_glide_ligand_efficiency>
-0.399656166610683

> <r_i_glide_ligand_efficiency_sa>
-1.08483373814554

> <r_i_glide_ligand_efficiency_ln>
-2.00041513920156

> <r_i_glide_gscore>
-7.99312333221365

> <r_i_glide_lipo>
-3.25640961030067

> <r_i_glide_hbond>
-0.587183786196565

> <r_i_glide_metal>
0

> <r_i_glide_rewards>
-2.06145079183233

> <r_i_glide_evdw>
-33.5400772094727

> <r_i_glide_ecoul>
-4.44806146621704

> <r_i_glide_erotb>
0.256133936522098

> <r_i_glide_esite>
0

> <r_i_glide_emodel>
-54.0317455613798

> <r_i_glide_energy>
-37.9881386756897

> <r_i_glide_einternal>
1.41167998313904

> <i_i_glide_confnum>
3

> <i_i_glide_posenum>
360

> <r_i_glide_eff_state_penalty>
0

> <s_user_duplicate_titles>
CHEMBL2695_lig1728

> <s_m_subgroup_title>
dock_pv

> <s_m_subgroupid>
dock_pv

> <b_m_subgroup_collapsed>
1

$$$$
CHEMBL2695_lig2023
                    3D
 Schrodinger Suite 2021-1.
 49 53  0  0  1  0            999 V2000
    3.6625    3.2635    6.0890 S   0  0  0  0  0  0
    2.5886    2.7625    5.2253 O   0  0  0  0  0  0
    3.5184    4.5482    6.7812 O   0  0  0  0  0  0
   11.3108    3.5747    6.0636 N   0  0  0  0  0  0
   10.0432    1.9639    5.2024 N   0  0  0  0  0  0
    5.1225    3.3181    5.1086 N   0  0  3  0  0  0
   14.0732    3.7905    6.5300 N   0  0  0  0  0  0
   13.5226    5.9446    7.5104 N   0  0  0  0  0  0
   10.0273    3.1896    5.7025 C   0  0  0  0  0  0
    8.7447    4.0325    5.8022 C   0  0  2  0  0  0
   11.8366    4.7581    6.6435 C   0  0  0  0  0  0
   12.1499    2.5126    5.7010 C   0  0  0  0  0  0
   13.2268    4.7630    6.8694 C   0  0  0  0  0  0
    8.0833    4.2758    7.1839 C   0  0  1  0  0  0
    6.3214    4.1373    5.4131 C   0  0  2  0  0  0
    7.6044    3.4602    4.9530 C   0  0  0  0  0  0
   11.2829    1.5456    5.1536 C   0  0  0  0  0  0
    4.0501    1.9131    7.3716 C   0  0  0  0  0  0
   13.5255    2.7038    5.9151 C   0  0  0  0  0  0
    6.5847    4.5201    6.8769 C   0  0  0  0  0  0
   11.3134    6.0102    7.0736 C   0  0  0  0  0  0
    2.8910    1.1750    7.9820 C   0  0  0  0  0  0
    3.8108    0.4808    6.9780 C   0  0  0  0  0  0
   12.3763    6.6999    7.6315 C   0  0  0  0  0  0
    8.3222    3.1961    8.2492 C   0  0  0  0  0  0
    7.7175    3.4865    9.6359 C   0  0  0  0  0  0
    5.2344    2.5711    4.4185 H   0  0  0  0  0  0
   14.4361    6.2510    7.8274 H   0  0  0  0  0  0
    9.0040    5.0037    5.3774 H   0  0  0  0  0  0
    8.5231    5.1630    7.6203 H   0  0  0  0  0  0
    6.1352    5.0271    4.8084 H   0  0  0  0  0  0
    7.5205    2.3800    5.0910 H   0  0  0  0  0  0
    7.8254    3.6368    3.9087 H   0  0  0  0  0  0
   11.5211    0.5811    4.7338 H   0  0  0  0  0  0
    4.9096    2.1640    7.9877 H   0  0  0  0  0  0
   14.2360    1.9629    5.5941 H   0  0  0  0  0  0
    6.3217    5.5650    7.0012 H   0  0  0  0  0  0
    5.9500    3.9763    7.5650 H   0  0  0  0  0  0
   10.3108    6.3630    6.9913 H   0  0  0  0  0  0
    1.8809    1.4511    7.6771 H   0  0  0  0  0  0
    2.9520    0.9126    9.0385 H   0  0  0  0  0  0
    4.5296   -0.2655    7.3194 H   0  0  0  0  0  0
    3.4538    0.2710    5.9683 H   0  0  0  0  0  0
   12.4227    7.6786    8.0883 H   0  0  0  0  0  0
    7.9779    2.2258    7.8860 H   0  0  0  0  0  0
    9.3997    3.1630    8.3792 H   0  0  0  0  0  0
    8.0437    2.7385   10.3590 H   0  0  0  0  0  0
    8.0296    4.4624   10.0104 H   0  0  0  0  0  0
    6.6277    3.4659    9.6268 H   0  0  0  0  0  0
  1  2  2  0  0  0
  1  3  2  0  0  0
  1  6  1  0  0  0
  1 18  1  0  0  0
  4  9  1  0  0  0
  4 11  1  0  0  0
  4 12  1  0  0  0
  5  9  2  0  0  0
  5 17  1  0  0  0
  6 15  1  0  0  0
  6 27  1  0  0  0
  7 13  1  0  0  0
  7 19  2  0  0  0
  8 13  1  0  0  0
  8 24  1  0  0  0
  8 28  1  0  0  0
  9 10  1  0  0  0
 10 14  1  0  0  0
 10 16  1  0  0  0
 10 29  1  0  0  0
 11 13  2  0  0  0
 11 21  1  0  0  0
 12 17  2  0  0  0
 12 19  1  0  0  0
 14 20  1  0  0  0
 14 25  1  0  0  0
 14 30  1  0  0  0
 15 16  1  0  0  0
 15 20  1  0  0  0
 15 31  1  0  0  0
 16 32  1  0  0  0
 16 33  1  0  0  0
 17 34  1  0  0  0
 18 22  1  0  0  0
 18 23  1  0  0  0
 18 35  1  0  0  0
 19 36  1  0  0  0
 20 37  1  0  0  0
 20 38  1  0  0  0
 21 24  2  0  0  0
 21 39  1  0  0  0
 22 23  1  0  0  0
 22 40  1  0  0  0
 22 41  1  0  0  0
 23 42  1  0  0  0
 23 43  1  0  0  0
 24 44  1  0  0  0
 25 26  1  0  0  0
 25 45  1  0  0  0
 25 46  1  0  0  0
 26 47  1  0  0  0
 26 48  1  0  0  0
 26 49  1  0  0  0
M  END
> <s_m_entry_id>
47575

> <s_m_entry_name>
dock_pv.108

> <s_m_Source_Path>
/home/csk/Desktop/cluster/DUD-E-result/fak1

> <s_m_Source_File>
dock_pv.maegz

> <i_m_Source_File_Index>
108

> <chembl_id>
CHEMBL1992073

> <chembl_pref_name>
None

> <i_lp_mmshare_version>
53161

> <i_f3d_flags>
0

> <r_lp_tautomer_probability>
1

> <s_lp_Force_Field>
OPLS_2005

> <r_lp_Energy>
61.599872

> <b_lp_Chiralities_Consistent>
1

> <s_lp_Variant>
CHEMBL2695_lig2023-3

> <s_i_glide_gridfile>
glide-grid_3bz3

> <i_i_glide_lignum>
2393

> <i_i_glide_rotatable_bonds>
5

> <r_i_docking_score>
-7.97694594832025

> <r_i_glide_ligand_efficiency>
-0.306805613396933

> <r_i_glide_ligand_efficiency_sa>
-0.908910422466619

> <r_i_glide_ligand_efficiency_ln>
-1.87335958146847

> <r_i_glide_gscore>
-7.97694594832025

> <r_i_glide_lipo>
-2.74399987232933

> <r_i_glide_hbond>
-0.527226091477481

> <r_i_glide_metal>
0

> <r_i_glide_rewards>
-2.79904106846504

> <r_i_glide_evdw>
-35.3403091430664

> <r_i_glide_ecoul>
-3.51738047599792

> <r_i_glide_erotb>
0.387943612504603

> <r_i_glide_esite>
0

> <r_i_glide_emodel>
-55.383122767471

> <r_i_glide_energy>
-38.8576896190643

> <r_i_glide_einternal>
2.55673861503601

> <i_i_glide_confnum>
56

> <i_i_glide_posenum>
183

> <r_i_glide_eff_state_penalty>
0

> <s_user_duplicate_titles>
CHEMBL2695_lig2023

> <s_m_subgroup_title>
dock_pv

> <s_m_subgroupid>
dock_pv

> <b_m_subgroup_collapsed>
1

$$$$
CHEMBL2695_lig581
                    3D
 Schrodinger Suite 2021-1.
 58 63  0  0  1  0            999 V2000
    2.2242    2.6839    9.1276 F   0  0  0  0  0  0
    3.4530    3.0108    8.6656 C   0  0  0  0  0  0
    4.5839    2.5662    9.3444 C   0  0  0  0  0  0
    5.8524    2.8975    8.8779 C   0  0  0  0  0  0
    5.9853    3.6675    7.7171 C   0  0  0  0  0  0
    4.8440    4.1096    7.0331 C   0  0  0  0  0  0
    3.5781    3.7823    7.5124 C   0  0  0  0  0  0
    7.2723    4.0009    7.2433 N   0  0  0  0  0  0
    8.3755    4.3631    7.9810 C   0  0  0  0  0  0
    9.3869    4.6581    7.0781 C   0  0  0  0  0  0
    8.8001    4.3634    5.8373 C   0  0  0  0  0  0
    7.5415    4.0046    5.9276 N   0  0  0  0  0  0
   10.7791    5.1164    7.3409 C   0  0  0  0  0  0
   11.1220    6.0858    8.2958 C   0  0  0  0  0  0
   12.4499    6.3956    8.5905 C   0  0  0  0  0  0
   13.4748    5.6964    7.9606 C   0  0  0  0  0  0
   13.1426    4.7372    7.0485 N   0  0  0  0  0  0
   13.9654    3.8323    6.4754 N   0  0  0  0  0  0
   13.1220    3.0382    5.8401 C   0  0  0  0  0  0
   13.5910    1.9778    5.1090 N   0  0  0  0  0  0
   12.9083    1.1630    4.1850 C   0  0  0  0  0  0
   13.6475    0.6528    3.1141 C   0  0  0  0  0  0
   13.0495   -0.1978    2.1893 C   0  0  0  0  0  0
   11.7016   -0.5507    2.3151 C   0  0  0  0  0  0
   10.9573   -0.0370    3.3846 C   0  0  0  0  0  0
   11.5526    0.8150    4.3090 C   0  0  0  0  0  0
   11.0864   -1.4984    1.2772 C   0  0  0  0  0  0
   11.6383   -2.9344    1.4069 C   0  0  0  0  0  0
   11.0347   -3.8935    0.3593 C   0  0  0  0  0  0
    9.5730   -3.8691    0.3717 N   0  0  1  0  0  0
    9.0150   -2.5299    0.1809 C   0  0  0  0  0  0
    9.5396   -1.5424    1.2416 C   0  0  0  0  0  0
   11.8446    3.3444    5.9090 N   0  0  0  0  0  0
   11.8283    4.4260    6.7090 C   0  0  0  0  0  0
    4.4793    1.9630   10.2345 H   0  0  0  0  0  0
    6.7188    2.5357    9.4131 H   0  0  0  0  0  0
    4.9306    4.7089    6.1374 H   0  0  0  0  0  0
    2.6961    4.1238    6.9911 H   0  0  0  0  0  0
    8.3298    4.4136    9.0580 H   0  0  0  0  0  0
    9.2920    4.4325    4.8775 H   0  0  0  0  0  0
   10.3427    6.5715    8.8598 H   0  0  0  0  0  0
   12.6809    7.1352    9.3447 H   0  0  0  0  0  0
   14.5146    5.7964    8.2065 H   0  0  0  0  0  0
   14.5869    1.8144    5.1076 H   0  0  0  0  0  0
   14.6939    0.8988    3.0067 H   0  0  0  0  0  0
   13.6409   -0.5874    1.3741 H   0  0  0  0  0  0
    9.9140   -0.2800    3.5172 H   0  0  0  0  0  0
   10.9546    1.1709    5.1336 H   0  0  0  0  0  0
   11.4121   -1.0854    0.3201 H   0  0  0  0  0  0
   12.7159   -2.9322    1.2412 H   0  0  0  0  0  0
   11.4743   -3.3416    2.4059 H   0  0  0  0  0  0
   11.3867   -3.6369   -0.6411 H   0  0  0  0  0  0
   11.3604   -4.9146    0.5621 H   0  0  0  0  0  0
    9.2013   -4.5027   -0.3230 H   0  0  0  0  0  0
    9.2621   -2.1785   -0.8223 H   0  0  0  0  0  0
    7.9276   -2.5959    0.2404 H   0  0  0  0  0  0
    9.1064   -1.8252    2.2021 H   0  0  0  0  0  0
    9.1492   -0.5554    0.9881 H   0  0  0  0  0  0
  1  2  1  0  0  0
  2  3  2  0  0  0
  2  7  1  0  0  0
  3  4  1  0  0  0
  3 35  1  0  0  0
  4  5  2  0  0  0
  4 36  1  0  0  0
  5  6  1  0  0  0
  5  8  1  0  0  0
  6  7  2  0  0  0
  6 37  1  0  0  0
  7 38  1  0  0  0
  8  9  1  0  0  0
  8 12  1  0  0  0
  9 10  2  0  0  0
  9 39  1  0  0  0
 10 11  1  0  0  0
 10 13  1  0  0  0
 11 12  2  0  0  0
 11 40  1  0  0  0
 13 14  2  0  0  0
 13 34  1  0  0  0
 14 15  1  0  0  0
 14 41  1  0  0  0
 15 16  2  0  0  0
 15 42  1  0  0  0
 16 17  1  0  0  0
 16 43  1  0  0  0
 17 18  1  0  0  0
 17 34  1  0  0  0
 18 19  2  0  0  0
 19 20  1  0  0  0
 19 33  1  0  0  0
 20 21  1  0  0  0
 20 44  1  0  0  0
 21 22  2  0  0  0
 21 26  1  0  0  0
 22 23  1  0  0  0
 22 45  1  0  0  0
 23 24  2  0  0  0
 23 46  1  0  0  0
 24 25  1  0  0  0
 24 27  1  0  0  0
 25 26  2  0  0  0
 25 47  1  0  0  0
 26 48  1  0  0  0
 27 28  1  0  0  0
 27 32  1  0  0  0
 27 49  1  0  0  0
 28 29  1  0  0  0
 28 50  1  0  0  0
 28 51  1  0  0  0
 29 30  1  0  0  0
 29 52  1  0  0  0
 29 53  1  0  0  0
 30 31  1  0  0  0
 30 54  1  0  0  0
 31 32  1  0  0  0
 31 55  1  0  0  0
 31 56  1  0  0  0
 32 57  1  0  0  0
 32 58  1  0  0  0
 33 34  2  0  0  0
M  END
> <s_m_entry_id>
47576

> <s_m_entry_name>
dock_pv.109

> <s_m_Source_Path>
/home/csk/Desktop/cluster/DUD-E-result/fak1

> <s_m_Source_File>
dock_pv.maegz

> <i_m_Source_File_Index>
109

> <chembl_id>
CHEMBL3645014

> <chembl_pref_name>
None

> <i_lp_mmshare_version>
53161

> <i_f3d_flags>
0

> <r_lp_tautomer_probability>
1

> <s_lp_Force_Field>
OPLS_2005

> <r_lp_Energy>
34.005195

> <b_lp_Chiralities_Consistent>
1

> <s_lp_Variant>
CHEMBL2695_lig581-1

> <s_i_glide_gridfile>
glide-grid_3bz3

> <i_i_glide_lignum>
635

> <i_i_glide_rotatable_bonds>
5

> <r_i_docking_score>
-7.9721810146876

> <r_i_glide_ligand_efficiency>
-0.234475912196694

> <r_i_glide_ligand_efficiency_sa>
-0.759610931374826

> <r_i_glide_ligand_efficiency_ln>
-1.76127839824771

> <r_i_glide_gscore>
-7.9721810146876

> <r_i_glide_lipo>
-3.24992479911518

> <r_i_glide_hbond>
-0.310884650565862

> <r_i_glide_metal>
0

> <r_i_glide_rewards>
-1.88851731864947

> <r_i_glide_evdw>
-43.0015602111816

> <r_i_glide_ecoul>
-5.60190105438232

> <r_i_glide_erotb>
0.487996459019141

> <r_i_glide_esite>
-0.0204875366597932

> <r_i_glide_emodel>
-65.6712881129963

> <r_i_glide_energy>
-48.603461265564

> <r_i_glide_einternal>
5.66838073730469

> <i_i_glide_confnum>
3

> <i_i_glide_posenum>
83

> <r_i_glide_eff_state_penalty>
0

> <s_user_duplicate_titles>
CHEMBL2695_lig581

> <s_m_subgroup_title>
dock_pv

> <s_m_subgroupid>
dock_pv

> <b_m_subgroup_collapsed>
1

$$$$
CHEMBL2695_lig438
                    3D
 Schrodinger Suite 2021-1.
 56 59  0  0  1  0            999 V2000
   10.9460   -3.6676    2.5132 C   0  0  0  0  0  0
   11.2759   -2.8717    1.4277 N   0  0  0  0  0  0
   10.3220   -3.2993    3.5090 O   0  0  0  0  0  0
   11.4218   -4.9247    2.2821 O   0  0  0  0  0  0
   10.9127   -1.4557    1.3187 C   0  0  0  0  0  0
   11.5188   -0.5498    2.3870 C   0  0  0  0  0  0
   10.7220   -0.0843    3.4355 C   0  0  0  0  0  0
   11.2623    0.7630    4.3971 C   0  0  0  0  0  0
   12.6019    1.1630    4.3073 C   0  0  0  0  0  0
   13.3865    0.7276    3.2370 C   0  0  0  0  0  0
   12.8486   -0.1330    2.2833 C   0  0  0  0  0  0
   13.2098    2.0143    5.2436 N   0  0  0  0  0  0
   11.7561    5.2618    7.2204 N   0  0  0  0  0  0
   13.1347    4.9871    7.1556 C   0  0  0  0  0  0
   13.6236    3.9278    6.4958 N   0  0  0  0  0  0
   12.6973    3.1323    5.9090 C   0  0  0  0  0  0
   11.3602    3.3426    5.9090 N   0  0  0  0  0  0
   10.8860    4.3964    6.6008 C   0  0  0  0  0  0
   13.8377    5.8839    7.8808 N   0  0  0  0  0  0
   12.9489    6.7420    8.3253 C   0  0  0  0  0  0
   11.6508    6.4294    7.9436 C   0  0  0  0  0  0
    9.4947    4.5211    6.5877 N   0  0  0  0  0  0
    8.5555    4.3630    7.6289 C   0  0  0  0  0  0
    7.2577    3.8620    7.3487 C   0  0  0  0  0  0
    6.3614    3.6637    8.4153 C   0  0  0  0  0  0
    6.7221    3.9630    9.7260 C   0  0  0  0  0  0
    7.9882    4.4666    9.9957 C   0  0  0  0  0  0
    8.8944    4.6632    8.9561 C   0  0  0  0  0  0
    6.8056    3.5359    5.9368 C   0  0  0  0  0  0
    6.0315    2.4463    5.8016 N   0  0  0  0  0  0
    7.1646    4.2275    4.9819 O   0  0  0  0  0  0
    5.5140    1.9630    4.5274 C   0  0  0  0  0  0
   11.5219   -5.8923    3.2421 C   0  0  0  0  0  0
   11.5220   -5.7870    4.5863 C   0  0  0  0  0  0
   11.7501   -3.3157    0.6577 H   0  0  0  0  0  0
   11.2353   -1.0960    0.3409 H   0  0  0  0  0  0
    9.8241   -1.3598    1.3114 H   0  0  0  0  0  0
    9.6858   -0.3851    3.5090 H   0  0  0  0  0  0
   10.6323    1.0781    5.2144 H   0  0  0  0  0  0
   14.4183    1.0368    3.1533 H   0  0  0  0  0  0
   13.4655   -0.4745    1.4655 H   0  0  0  0  0  0
   14.2129    1.9357    5.3088 H   0  0  0  0  0  0
   13.2469    7.5901    8.9262 H   0  0  0  0  0  0
   10.7220    6.9322    8.1374 H   0  0  0  0  0  0
    9.1087    4.1381    5.7342 H   0  0  0  0  0  0
    5.3618    3.2907    8.2386 H   0  0  0  0  0  0
    6.0146    3.8110   10.5301 H   0  0  0  0  0  0
    8.2642    4.7070   11.0119 H   0  0  0  0  0  0
    9.8703    5.0428    9.2035 H   0  0  0  0  0  0
    5.9159    1.8298    6.5919 H   0  0  0  0  0  0
    4.7889    1.1659    4.6955 H   0  0  0  0  0  0
    5.0159    2.7610    3.9762 H   0  0  0  0  0  0
    6.3217    1.5630    3.9120 H   0  0  0  0  0  0
   11.6322   -6.8638    2.7812 H   0  0  0  0  0  0
   11.4384   -4.8410    5.0988 H   0  0  0  0  0  0
   11.6142   -6.6680    5.2030 H   0  0  0  0  0  0
  1  2  1  0  0  0
  1  3  2  0  0  0
  1  4  1  0  0  0
  2  5  1  0  0  0
  2 35  1  0  0  0
  4 33  1  0  0  0
  5  6  1  0  0  0
  5 36  1  0  0  0
  5 37  1  0  0  0
  6  7  1  0  0  0
  6 11  2  0  0  0
  7  8  2  0  0  0
  7 38  1  0  0  0
  8  9  1  0  0  0
  8 39  1  0  0  0
  9 10  2  0  0  0
  9 12  1  0  0  0
 10 11  1  0  0  0
 10 40  1  0  0  0
 11 41  1  0  0  0
 12 16  1  0  0  0
 12 42  1  0  0  0
 13 14  1  0  0  0
 13 18  1  0  0  0
 13 21  1  0  0  0
 14 15  1  0  0  0
 14 19  2  0  0  0
 15 16  2  0  0  0
 16 17  1  0  0  0
 17 18  2  0  0  0
 18 22  1  0  0  0
 19 20  1  0  0  0
 20 21  2  0  0  0
 20 43  1  0  0  0
 21 44  1  0  0  0
 22 23  1  0  0  0
 22 45  1  0  0  0
 23 24  1  0  0  0
 23 28  2  0  0  0
 24 25  2  0  0  0
 24 29  1  0  0  0
 25 26  1  0  0  0
 25 46  1  0  0  0
 26 27  2  0  0  0
 26 47  1  0  0  0
 27 28  1  0  0  0
 27 48  1  0  0  0
 28 49  1  0  0  0
 29 30  1  0  0  0
 29 31  2  0  0  0
 30 32  1  0  0  0
 30 50  1  0  0  0
 32 51  1  0  0  0
 32 52  1  0  0  0
 32 53  1  0  0  0
 33 34  2  0  0  0
 33 54  1  0  0  0
 34 55  1  0  0  0
 34 56  1  0  0  0
M  END
> <s_m_entry_id>
47577

> <s_m_entry_name>
dock_pv.110

> <s_m_Source_Path>
/home/csk/Desktop/cluster/DUD-E-result/fak1

> <s_m_Source_File>
dock_pv.maegz

> <i_m_Source_File_Index>
110

> <chembl_id>
CHEMBL3393280

> <chembl_pref_name>
None

> <i_lp_mmshare_version>
53161

> <i_f3d_flags>
0

> <r_lp_tautomer_probability>
1

> <s_lp_Force_Field>
OPLS_2005

> <r_lp_Energy>
34.57594

> <b_lp_Chiralities_Consistent>
1

> <s_lp_Variant>
CHEMBL2695_lig438-1

> <s_i_glide_gridfile>
glide-grid_3bz3

> <i_i_glide_lignum>
491

> <i_i_glide_rotatable_bonds>
11

> <r_i_docking_score>
-7.96837149067015

> <r_i_glide_ligand_efficiency>
-0.234363867372651

> <r_i_glide_ligand_efficiency_sa>
-0.759247949641012

> <r_i_glide_ligand_efficiency_ln>
-1.76043676753872

> <r_i_glide_gscore>
-7.96837149067015

> <r_i_glide_lipo>
-3.15303281814281

> <r_i_glide_hbond>
-0.339290295076513

> <r_i_glide_metal>
0

> <r_i_glide_rewards>
-1.9983390972175

> <r_i_glide_evdw>
-52.4477500915527

> <r_i_glide_ecoul>
-5.05026483535767

> <r_i_glide_erotb>
0.956865425924921

> <r_i_glide_esite>
-0.0546474762769641

> <r_i_glide_emodel>
-75.6820724867234

> <r_i_glide_energy>
-57.4980149269104

> <r_i_glide_einternal>
15.2187595367432

> <i_i_glide_confnum>
45

> <i_i_glide_posenum>
364

> <r_i_glide_eff_state_penalty>
0

> <s_user_duplicate_titles>
CHEMBL2695_lig438

> <s_m_subgroup_title>
dock_pv

> <s_m_subgroupid>
dock_pv

> <b_m_subgroup_collapsed>
1

$$$$
CHEMBL2695_lig466
                    3D
 Schrodinger Suite 2021-1.
 58 62  0  0  1  0            999 V2000
    5.4322    5.4121    5.0322 C   0  0  0  0  0  0
    5.8770    4.6177    6.1132 O   0  0  0  0  0  0
    5.3072    3.3760    6.3162 C   0  0  0  0  0  0
    4.4721    2.7523    5.3739 C   0  0  0  0  0  0
    3.8778    1.5249    5.6517 C   0  0  0  0  0  0
    4.1094    0.8890    6.8730 C   0  0  0  0  0  0
    4.9652    1.4972    7.7947 C   0  0  0  0  0  0
    5.5633    2.7379    7.5430 C   0  0  0  0  0  0
    6.3830    3.3892    8.6071 C   0  0  0  0  0  0
    5.8695    3.5027    9.9070 C   0  0  0  0  0  0
    6.5526    4.1718   10.9191 C   0  0  0  0  0  0
    7.7769    4.7630   10.6623 C   0  0  0  0  0  0
    8.2961    4.6431    9.4066 N   0  0  0  0  0  0
    9.4546    5.1630    8.9702 N   0  0  0  0  0  0
    9.4830    4.7551    7.7167 C   0  0  0  0  0  0
   10.5503    5.0870    6.9362 N   0  0  0  0  0  0
   11.4053    4.1323    6.3707 C   0  0  0  0  0  0
   12.7737    4.3626    6.4957 C   0  0  0  0  0  0
   13.6716    3.3632    6.1383 C   0  0  0  0  0  0
   13.2210    2.1759    5.5646 C   0  0  0  0  0  0
   11.8567    1.9632    5.3293 C   0  0  0  0  0  0
   10.9537    2.9449    5.7732 C   0  0  0  0  0  0
   11.4055    0.7612    4.4842 C   0  0  0  0  0  0
    9.9337    0.7724    4.0214 C   0  0  0  0  0  0
    9.5897   -0.4367    3.1100 C   0  0  0  0  0  0
   10.4430   -0.4374    1.9285 N   0  0  2  0  0  0
   11.8440   -0.6130    2.2950 C   0  0  0  0  0  0
   12.3390    0.4915    3.2572 C   0  0  0  0  0  0
    8.4686    4.0312    7.2823 N   0  0  0  0  0  0
    7.6574    3.9631    8.3656 C   0  0  0  0  0  0
    3.4648   -0.4600    7.1927 C   0  0  0  0  0  0
    2.3602   -0.2478    7.9085 F   0  0  0  0  0  0
    4.2836   -1.2345    7.9081 F   0  0  0  0  0  0
    3.1211   -1.1284    6.0897 F   0  0  0  0  0  0
    5.9219    6.3773    5.0869 H   0  0  0  0  0  0
    5.6756    4.9704    4.0659 H   0  0  0  0  0  0
    4.3598    5.5723    5.1093 H   0  0  0  0  0  0
    4.2609    3.2126    4.4226 H   0  0  0  0  0  0
    3.2381    1.0688    4.9106 H   0  0  0  0  0  0
    5.1575    1.0001    8.7291 H   0  0  0  0  0  0
    4.8982    3.0852   10.1373 H   0  0  0  0  0  0
    6.1079    4.2524   11.9009 H   0  0  0  0  0  0
    8.3219    5.3381   11.3921 H   0  0  0  0  0  0
   11.0252    5.9407    7.1744 H   0  0  0  0  0  0
   13.1443    5.2691    6.9520 H   0  0  0  0  0  0
   14.7223    3.5183    6.3075 H   0  0  0  0  0  0
   13.9452    1.4356    5.2654 H   0  0  0  0  0  0
    9.8948    2.8053    5.6287 H   0  0  0  0  0  0
   11.5219   -0.0458    5.1981 H   0  0  0  0  0  0
    9.2616    0.7602    4.8800 H   0  0  0  0  0  0
    9.7448    1.7098    3.5090 H   0  0  0  0  0  0
    9.7603   -1.3855    3.6175 H   0  0  0  0  0  0
    8.5396   -0.4216    2.8134 H   0  0  0  0  0  0
   10.3275    0.4721    1.5071 H   0  0  0  0  0  0
   11.9904   -1.6109    2.7089 H   0  0  0  0  0  0
   12.4279   -0.5748    1.3745 H   0  0  0  0  0  0
   12.5426    1.4070    2.7089 H   0  0  0  0  0  0
   13.3262    0.1529    3.5626 H   0  0  0  0  0  0
  1  2  1  0  0  0
  1 35  1  0  0  0
  1 36  1  0  0  0
  1 37  1  0  0  0
  2  3  1  0  0  0
  3  4  2  0  0  0
  3  8  1  0  0  0
  4  5  1  0  0  0
  4 38  1  0  0  0
  5  6  2  0  0  0
  5 39  1  0  0  0
  6  7  1  0  0  0
  6 31  1  0  0  0
  7  8  2  0  0  0
  7 40  1  0  0  0
  8  9  1  0  0  0
  9 10  2  0  0  0
  9 30  1  0  0  0
 10 11  1  0  0  0
 10 41  1  0  0  0
 11 12  2  0  0  0
 11 42  1  0  0  0
 12 13  1  0  0  0
 12 43  1  0  0  0
 13 14  1  0  0  0
 13 30  1  0  0  0
 14 15  2  0  0  0
 15 16  1  0  0  0
 15 29  1  0  0  0
 16 17  1  0  0  0
 16 44  1  0  0  0
 17 18  2  0  0  0
 17 22  1  0  0  0
 18 19  1  0  0  0
 18 45  1  0  0  0
 19 20  2  0  0  0
 19 46  1  0  0  0
 20 21  1  0  0  0
 20 47  1  0  0  0
 21 22  2  0  0  0
 21 23  1  0  0  0
 22 48  1  0  0  0
 23 24  1  0  0  0
 23 28  1  0  0  0
 23 49  1  0  0  0
 24 25  1  0  0  0
 24 50  1  0  0  0
 24 51  1  0  0  0
 25 26  1  0  0  0
 25 52  1  0  0  0
 25 53  1  0  0  0
 26 27  1  0  0  0
 26 54  1  0  0  0
 27 28  1  0  0  0
 27 55  1  0  0  0
 27 56  1  0  0  0
 28 57  1  0  0  0
 28 58  1  0  0  0
 29 30  2  0  0  0
 31 32  1  0  0  0
 31 33  1  0  0  0
 31 34  1  0  0  0
M  END
> <s_m_entry_id>
47578

> <s_m_entry_name>
dock_pv.111

> <s_m_Source_Path>
/home/csk/Desktop/cluster/DUD-E-result/fak1

> <s_m_Source_File>
dock_pv.maegz

> <i_m_Source_File_Index>
111

> <chembl_id>
CHEMBL3644989

> <chembl_pref_name>
None

> <i_lp_mmshare_version>
53161

> <i_f3d_flags>
0

> <r_lp_tautomer_probability>
1

> <s_lp_Force_Field>
OPLS_2005

> <r_lp_Energy>
36.132708

> <b_lp_Chiralities_Consistent>
1

> <s_lp_Variant>
CHEMBL2695_lig466-1

> <s_i_glide_gridfile>
glide-grid_3bz3

> <i_i_glide_lignum>
519

> <i_i_glide_rotatable_bonds>
6

> <r_i_docking_score>
-7.96232678731335

> <r_i_glide_ligand_efficiency>
-0.234186081979805

> <r_i_glide_ligand_efficiency_sa>
-0.758671993984927

> <r_i_glide_ligand_efficiency_ln>
-1.75910132301902

> <r_i_glide_gscore>
-7.96232678731335

> <r_i_glide_lipo>
-3.56066401776824

> <r_i_glide_hbond>
-0.00988097664153277

> <r_i_glide_metal>
0

> <r_i_glide_rewards>
-1.98082332941837

> <r_i_glide_evdw>
-40.7048568725586

> <r_i_glide_ecoul>
-3.7238175868988

> <r_i_glide_erotb>
0.369404369419423

> <r_i_glide_esite>
-0.186547351241886

> <r_i_glide_emodel>
-54.5597435195318

> <r_i_glide_energy>
-44.4286744594574

> <r_i_glide_einternal>
14.6180143356323

> <i_i_glide_confnum>
19

> <i_i_glide_posenum>
15

> <r_i_glide_eff_state_penalty>
0

> <s_user_duplicate_titles>
CHEMBL2695_lig466

> <s_m_subgroup_title>
dock_pv

> <s_m_subgroupid>
dock_pv

> <b_m_subgroup_collapsed>
1

$$$$
CHEMBL2695_lig2023
                    3D
 Schrodinger Suite 2021-1.
 49 53  0  0  1  0            999 V2000
    5.3209    3.5310    8.9262 S   0  0  0  0  0  0
    5.3341    4.5081    7.8394 O   0  0  0  0  0  0
    5.5239    3.9629   10.3090 O   0  0  0  0  0  0
   11.1862    3.2706    5.9093 N   0  0  0  0  0  0
    9.8148    1.7607    5.0118 N   0  0  0  0  0  0
    6.5463    2.3200    8.6136 N   0  0  3  0  0  0
   13.9476    3.3513    6.3090 N   0  0  0  0  0  0
   13.5220    5.5103    7.3745 N   0  0  0  0  0  0
    9.8868    2.9554    5.5729 C   0  0  0  0  0  0
    8.6881    3.8185    5.9293 C   0  0  1  0  0  0
   11.7636    4.4039    6.5386 C   0  0  0  0  0  0
   11.9505    2.1791    5.5090 C   0  0  0  0  0  0
   13.1631    4.3630    6.6973 C   0  0  0  0  0  0
    7.3883    3.3954    5.2076 C   0  0  1  0  0  0
    7.4603    2.4082    7.4634 C   0  0  2  0  0  0
    8.3507    3.6599    7.4189 C   0  0  0  0  0  0
   11.0272    1.2725    4.9468 C   0  0  0  0  0  0
    3.6998    2.5756    8.7325 C   0  0  0  0  0  0
   13.3238    2.2801    5.7330 C   0  0  0  0  0  0
    6.8095    2.2639    6.0869 C   0  0  0  0  0  0
   11.2751    5.6217    7.1038 C   0  0  0  0  0  0
    3.2205    1.6827    9.8362 C   0  0  0  0  0  0
    2.5469    3.0297    9.5880 C   0  0  0  0  0  0
   12.3930    6.2713    7.6079 C   0  0  0  0  0  0
    6.4683    4.6083    4.9560 C   0  0  0  0  0  0
    5.0057    4.2660    4.6649 C   0  0  0  0  0  0
    6.7411    1.6340    9.3491 H   0  0  0  0  0  0
   14.4528    5.7870    7.6646 H   0  0  0  0  0  0
    8.9809    4.8373    5.6738 H   0  0  0  0  0  0
    7.6199    2.9810    4.2249 H   0  0  0  0  0  0
    8.0888    1.5318    7.6216 H   0  0  0  0  0  0
    7.7993    4.5385    7.7512 H   0  0  0  0  0  0
    9.2315    3.5712    8.0545 H   0  0  0  0  0  0
   11.2044    0.3069    4.4995 H   0  0  0  0  0  0
    3.5304    2.2991    7.6914 H   0  0  0  0  0  0
   13.9221    1.4533    5.4136 H   0  0  0  0  0  0
    7.0899    1.3009    5.6631 H   0  0  0  0  0  0
    5.7233    2.2589    6.1468 H   0  0  0  0  0  0
   10.2567    5.9632    7.1621 H   0  0  0  0  0  0
    3.8592    1.5459   10.7067 H   0  0  0  0  0  0
    2.7212    0.7658    9.5274 H   0  0  0  0  0  0
    1.5532    3.0632    9.1397 H   0  0  0  0  0  0
    2.7139    3.8493   10.2909 H   0  0  0  0  0  0
   12.4837    7.2148    8.1278 H   0  0  0  0  0  0
    6.5037    5.3063    5.7921 H   0  0  0  0  0  0
    6.8681    5.1629    4.1059 H   0  0  0  0  0  0
    4.5232    5.1626    4.3093 H   0  0  0  0  0  0
    4.8961    3.4899    3.9092 H   0  0  0  0  0  0
    4.4566    3.9482    5.5488 H   0  0  0  0  0  0
  1  2  2  0  0  0
  1  3  2  0  0  0
  1  6  1  0  0  0
  1 18  1  0  0  0
  4  9  1  0  0  0
  4 11  1  0  0  0
  4 12  1  0  0  0
  5  9  2  0  0  0
  5 17  1  0  0  0
  6 15  1  0  0  0
  6 27  1  0  0  0
  7 13  1  0  0  0
  7 19  2  0  0  0
  8 13  1  0  0  0
  8 24  1  0  0  0
  8 28  1  0  0  0
  9 10  1  0  0  0
 10 14  1  0  0  0
 10 16  1  0  0  0
 10 29  1  0  0  0
 11 13  2  0  0  0
 11 21  1  0  0  0
 12 17  2  0  0  0
 12 19  1  0  0  0
 14 20  1  0  0  0
 14 25  1  0  0  0
 14 30  1  0  0  0
 15 16  1  0  0  0
 15 20  1  0  0  0
 15 31  1  0  0  0
 16 32  1  0  0  0
 16 33  1  0  0  0
 17 34  1  0  0  0
 18 22  1  0  0  0
 18 23  1  0  0  0
 18 35  1  0  0  0
 19 36  1  0  0  0
 20 37  1  0  0  0
 20 38  1  0  0  0
 21 24  2  0  0  0
 21 39  1  0  0  0
 22 23  1  0  0  0
 22 40  1  0  0  0
 22 41  1  0  0  0
 23 42  1  0  0  0
 23 43  1  0  0  0
 24 44  1  0  0  0
 25 26  1  0  0  0
 25 45  1  0  0  0
 25 46  1  0  0  0
 26 47  1  0  0  0
 26 48  1  0  0  0
 26 49  1  0  0  0
M  END
> <s_m_entry_id>
47579

> <s_m_entry_name>
dock_pv.112

> <s_m_Source_Path>
/home/csk/Desktop/cluster/DUD-E-result/fak1

> <s_m_Source_File>
dock_pv.maegz

> <i_m_Source_File_Index>
112

> <chembl_id>
CHEMBL1992073

> <chembl_pref_name>
None

> <i_lp_mmshare_version>
53161

> <i_f3d_flags>
0

> <r_lp_tautomer_probability>
1

> <s_lp_Force_Field>
OPLS_2005

> <r_lp_Energy>
59.787597

> <b_lp_Chiralities_Consistent>
1

> <s_lp_Variant>
CHEMBL2695_lig2023-4

> <s_i_glide_gridfile>
glide-grid_3bz3

> <i_i_glide_lignum>
2394

> <i_i_glide_rotatable_bonds>
5

> <r_i_docking_score>
-7.95678635408068

> <r_i_glide_ligand_efficiency>
-0.306030244387719

> <r_i_glide_ligand_efficiency_sa>
-0.906613394827752

> <r_i_glide_ligand_efficiency_ln>
-1.86862516691033

> <r_i_glide_gscore>
-7.95678635408068

> <r_i_glide_lipo>
-2.43150457224163

> <r_i_glide_hbond>
-0.546106400368954

> <r_i_glide_metal>
0

> <r_i_glide_rewards>
-2.83359963057138

> <r_i_glide_evdw>
-37.4256362915039

> <r_i_glide_ecoul>
-4.4149169921875

> <r_i_glide_erotb>
0.387943612504603

> <r_i_glide_esite>
0

> <r_i_glide_emodel>
-52.8865524241898

> <r_i_glide_energy>
-41.8405532836914

> <r_i_glide_einternal>
9.87950229644775

> <i_i_glide_confnum>
221

> <i_i_glide_posenum>
80

> <r_i_glide_eff_state_penalty>
0

> <s_user_duplicate_titles>
CHEMBL2695_lig2023

> <s_m_subgroup_title>
dock_pv

> <s_m_subgroupid>
dock_pv

> <b_m_subgroup_collapsed>
1

$$$$
CHEMBL2695_lig499
                    3D
 Schrodinger Suite 2021-1.
 57 61  0  0  1  0            999 V2000
    5.0534    1.7891    5.7475 C   0  0  0  0  0  0
    5.0538    3.6418    6.0010 S   0  0  0  0  0  0
    4.2458    3.9543    7.1843 O   0  0  0  0  0  0
    4.7723    4.2741    4.7090 O   0  0  0  0  0  0
    6.7582    3.9945    6.3985 C   0  0  0  0  0  0
    7.1779    4.0305    7.7293 C   0  0  0  0  0  0
    8.4979    4.3630    8.0253 C   0  0  0  0  0  0
    9.3997    4.6631    6.9971 C   0  0  0  0  0  0
    8.9767    4.5647    5.6674 C   0  0  0  0  0  0
    7.6607    4.2411    5.3651 C   0  0  0  0  0  0
   10.7973    5.0618    7.2978 C   0  0  0  0  0  0
   11.1220    6.0440    8.2480 C   0  0  0  0  0  0
   12.4418    6.3630    8.5683 C   0  0  0  0  0  0
   13.4834    5.6672    7.9630 C   0  0  0  0  0  0
   13.1737    4.6951    7.0572 N   0  0  0  0  0  0
   14.0157    3.8091    6.4863 N   0  0  0  0  0  0
   13.1921    3.0056    5.8358 C   0  0  0  0  0  0
   13.6972    1.9630    5.1024 N   0  0  0  0  0  0
   13.0356    1.1630    4.1933 C   0  0  0  0  0  0
   11.6801    0.7676    4.1149 C   0  0  0  0  0  0
   11.4199   -0.0370    3.1090 N   0  0  0  0  0  0
   12.5885   -0.1571    2.4703 N   0  0  0  0  0  0
   12.6727   -0.9766    1.2653 C   0  0  0  0  0  0
   12.8480   -2.4810    1.5799 C   0  0  0  0  0  0
   11.7259   -3.0759    2.3085 N   0  0  0  0  0  0
   10.4624   -3.1555    1.5893 C   0  0  0  0  0  0
    9.6076   -4.1190    2.4171 C   0  0  0  0  0  0
   10.6283   -4.9827    3.1662 C   0  0  0  0  0  0
   11.9820   -4.4492    2.7089 C   0  0  0  0  0  0
   13.6015    0.5128    3.1086 C   0  0  0  0  0  0
   11.9043    3.2771    5.9090 N   0  0  0  0  0  0
   11.8664    4.3630    6.7090 C   0  0  0  0  0  0
    4.0430    1.4642    5.5089 H   0  0  0  0  0  0
    5.7227    1.5630    4.9186 H   0  0  0  0  0  0
    5.4059    1.2988    6.6537 H   0  0  0  0  0  0
    6.4815    3.8252    8.5304 H   0  0  0  0  0  0
    8.8134    4.4061    9.0572 H   0  0  0  0  0  0
    9.6666    4.7630    4.8599 H   0  0  0  0  0  0
    7.3463    4.1968    4.3322 H   0  0  0  0  0  0
   10.3312    6.5416    8.7844 H   0  0  0  0  0  0
   12.6533    7.1150    9.3159 H   0  0  0  0  0  0
   14.5191    5.7832    8.2198 H   0  0  0  0  0  0
   14.6957    1.8294    5.1699 H   0  0  0  0  0  0
   10.9006    1.0627    4.8024 H   0  0  0  0  0  0
   13.5131   -0.6155    0.6724 H   0  0  0  0  0  0
   11.7778   -0.7984    0.6672 H   0  0  0  0  0  0
   13.7624   -2.6116    2.1628 H   0  0  0  0  0  0
   13.0042   -3.0316    0.6508 H   0  0  0  0  0  0
   10.5916   -3.4813    0.5554 H   0  0  0  0  0  0
   10.0199   -2.1601    1.5306 H   0  0  0  0  0  0
    8.9578   -4.7156    1.7762 H   0  0  0  0  0  0
    8.9664   -3.5702    3.1090 H   0  0  0  0  0  0
   10.5182   -4.8891    4.2478 H   0  0  0  0  0  0
   10.5426   -6.0370    2.9102 H   0  0  0  0  0  0
   12.7220   -4.4540    3.5090 H   0  0  0  0  0  0
   12.4247   -5.0429    1.9063 H   0  0  0  0  0  0
   14.6144    0.4779    2.7378 H   0  0  0  0  0  0
  1  2  1  0  0  0
  1 33  1  0  0  0
  1 34  1  0  0  0
  1 35  1  0  0  0
  2  3  2  0  0  0
  2  4  2  0  0  0
  2  5  1  0  0  0
  5  6  2  0  0  0
  5 10  1  0  0  0
  6  7  1  0  0  0
  6 36  1  0  0  0
  7  8  2  0  0  0
  7 37  1  0  0  0
  8  9  1  0  0  0
  8 11  1  0  0  0
  9 10  2  0  0  0
  9 38  1  0  0  0
 10 39  1  0  0  0
 11 12  2  0  0  0
 11 32  1  0  0  0
 12 13  1  0  0  0
 12 40  1  0  0  0
 13 14  2  0  0  0
 13 41  1  0  0  0
 14 15  1  0  0  0
 14 42  1  0  0  0
 15 16  1  0  0  0
 15 32  1  0  0  0
 16 17  2  0  0  0
 17 18  1  0  0  0
 17 31  1  0  0  0
 18 19  1  0  0  0
 18 43  1  0  0  0
 19 20  1  0  0  0
 19 30  2  0  0  0
 20 21  2  0  0  0
 20 44  1  0  0  0
 21 22  1  0  0  0
 22 23  1  0  0  0
 22 30  1  0  0  0
 23 24  1  0  0  0
 23 45  1  0  0  0
 23 46  1  0  0  0
 24 25  1  0  0  0
 24 47  1  0  0  0
 24 48  1  0  0  0
 25 26  1  0  0  0
 25 29  1  0  0  0
 26 27  1  0  0  0
 26 49  1  0  0  0
 26 50  1  0  0  0
 27 28  1  0  0  0
 27 51  1  0  0  0
 27 52  1  0  0  0
 28 29  1  0  0  0
 28 53  1  0  0  0
 28 54  1  0  0  0
 29 55  1  0  0  0
 29 56  1  0  0  0
 30 57  1  0  0  0
 31 32  2  0  0  0
M  END
> <s_m_entry_id>
47580

> <s_m_entry_name>
dock_pv.113

> <s_m_Source_Path>
/home/csk/Desktop/cluster/DUD-E-result/fak1

> <s_m_Source_File>
dock_pv.maegz

> <i_m_Source_File_Index>
113

> <chembl_id>
CHEMBL3644966

> <chembl_pref_name>
None

> <i_lp_mmshare_version>
53161

> <i_f3d_flags>
0

> <r_lp_tautomer_probability>
1

> <s_lp_Force_Field>
OPLS_2005

> <r_lp_Energy>
32.595782

> <b_lp_Chiralities_Consistent>
1

> <s_lp_Variant>
CHEMBL2695_lig499-1

> <s_i_glide_gridfile>
glide-grid_3bz3

> <i_i_glide_lignum>
553

> <i_i_glide_rotatable_bonds>
7

> <r_i_docking_score>
-7.95154800144707

> <r_i_glide_ligand_efficiency>
-0.248485875045221

> <r_i_glide_ligand_efficiency_sa>
-0.788893477980679

> <r_i_glide_ligand_efficiency_ln>
-1.78056834853623

> <r_i_glide_gscore>
-7.95154800144707

> <r_i_glide_lipo>
-2.81459235835501

> <r_i_glide_hbond>
-0.394574171219629

> <r_i_glide_metal>
0

> <r_i_glide_rewards>
-2.53506789729153

> <r_i_glide_evdw>
-38.8235282897949

> <r_i_glide_ecoul>
-5.70923233032227

> <r_i_glide_erotb>
0.590247689457181

> <r_i_glide_esite>
0

> <r_i_glide_emodel>
-62.9441707303118

> <r_i_glide_energy>
-44.5327606201172

> <r_i_glide_einternal>
4.579674243927

> <i_i_glide_confnum>
5

> <i_i_glide_posenum>
181

> <r_i_glide_eff_state_penalty>
0

> <s_user_duplicate_titles>
CHEMBL2695_lig499

> <s_m_subgroup_title>
dock_pv

> <s_m_subgroupid>
dock_pv

> <b_m_subgroup_collapsed>
1

$$$$
CHEMBL2695_lig684
                    3D
 Schrodinger Suite 2021-1.
 44 47  0  0  1  0            999 V2000
    3.0838    2.7625    3.0964 O   0  5  0  0  0  0
    2.2818    3.1188    3.9547 N   0  3  0  0  0  0
    1.1207    3.4325    3.7084 O   0  0  0  0  0  0
    2.7396    3.1631    5.3605 C   0  0  0  0  0  0
    2.0710    3.9516    6.3075 C   0  0  0  0  0  0
    2.4996    3.9822    7.6332 C   0  0  0  0  0  0
    3.5907    3.2130    8.0305 C   0  0  0  0  0  0
    4.2729    2.4191    7.1012 C   0  0  0  0  0  0
    5.4776    1.5762    7.5029 C   0  0  0  0  0  0
    6.7079    2.3641    7.4920 N   0  0  0  0  0  0
    7.1245    3.1626    8.5727 C   0  0  0  0  0  0
    6.4733    3.1513    9.8193 C   0  0  0  0  0  0
    6.8650    3.9792   10.8642 C   0  0  0  0  0  0
    7.9499    4.8263   10.7012 C   0  0  0  0  0  0
    8.6208    4.8103    9.5072 N   0  0  0  0  0  0
    9.7106    5.5370    9.1754 N   0  0  0  0  0  0
    9.9444    5.1630    7.9206 C   0  0  0  0  0  0
    9.1106    4.2676    7.4080 N   0  0  0  0  0  0
    8.2466    4.0140    8.4267 C   0  0  0  0  0  0
   10.9912    5.6753    7.1873 N   0  0  0  0  0  0
   11.4430    5.1086    5.9055 C   0  0  0  0  0  0
   12.6685    4.1927    6.1075 C   0  0  0  0  0  0
   13.7217    4.9094    6.7422 O   0  0  0  0  0  0
   13.3437    5.5236    7.9734 C   0  0  0  0  0  0
   12.1082    6.4316    7.7775 C   0  0  0  0  0  0
    3.8498    2.4105    5.7694 C   0  0  0  0  0  0
    1.2248    4.5564    6.0119 H   0  0  0  0  0  0
    1.9881    4.6027    8.3548 H   0  0  0  0  0  0
    3.8912    3.2473    9.0642 H   0  0  0  0  0  0
    5.3045    1.0988    8.4666 H   0  0  0  0  0  0
    5.5925    0.7594    6.7910 H   0  0  0  0  0  0
    7.3061    2.2919    6.6784 H   0  0  0  0  0  0
    5.6468    2.4855   10.0121 H   0  0  0  0  0  0
    6.3217    3.9523   11.8005 H   0  0  0  0  0  0
    8.3009    5.5035   11.4652 H   0  0  0  0  0  0
   10.6400    4.5592    5.4125 H   0  0  0  0  0  0
   11.6969    5.9227    5.2264 H   0  0  0  0  0  0
   13.0394    3.8447    5.1438 H   0  0  0  0  0  0
   12.4005    3.3028    6.6747 H   0  0  0  0  0  0
   14.1812    6.1167    8.3405 H   0  0  0  0  0  0
   13.1562    4.7656    8.7302 H   0  0  0  0  0  0
   12.3565    7.2705    7.1251 H   0  0  0  0  0  0
   11.8202    6.8820    8.7279 H   0  0  0  0  0  0
    4.3824    1.7966    5.0547 H   0  0  0  0  0  0
  1  2  1  0  0  0
  2  3  2  0  0  0
  2  4  1  0  0  0
  4  5  2  0  0  0
  4 26  1  0  0  0
  5  6  1  0  0  0
  5 27  1  0  0  0
  6  7  2  0  0  0
  6 28  1  0  0  0
  7  8  1  0  0  0
  7 29  1  0  0  0
  8  9  1  0  0  0
  8 26  2  0  0  0
  9 10  1  0  0  0
  9 30  1  0  0  0
  9 31  1  0  0  0
 10 11  1  0  0  0
 10 32  1  0  0  0
 11 12  2  0  0  0
 11 19  1  0  0  0
 12 13  1  0  0  0
 12 33  1  0  0  0
 13 14  2  0  0  0
 13 34  1  0  0  0
 14 15  1  0  0  0
 14 35  1  0  0  0
 15 16  1  0  0  0
 15 19  1  0  0  0
 16 17  2  0  0  0
 17 18  1  0  0  0
 17 20  1  0  0  0
 18 19  2  0  0  0
 20 21  1  0  0  0
 20 25  1  0  0  0
 21 22  1  0  0  0
 21 36  1  0  0  0
 21 37  1  0  0  0
 22 23  1  0  0  0
 22 38  1  0  0  0
 22 39  1  0  0  0
 23 24  1  0  0  0
 24 25  1  0  0  0
 24 40  1  0  0  0
 24 41  1  0  0  0
 25 42  1  0  0  0
 25 43  1  0  0  0
 26 44  1  0  0  0
M  CHG  2   1  -1   2   1
M  END
> <s_m_entry_id>
47581

> <s_m_entry_name>
dock_pv.114

> <s_m_Source_Path>
/home/csk/Desktop/cluster/DUD-E-result/fak1

> <s_m_Source_File>
dock_pv.maegz

> <i_m_Source_File_Index>
114

> <chembl_id>
CHEMBL3642326

> <chembl_pref_name>
None

> <i_lp_mmshare_version>
53161

> <i_f3d_flags>
0

> <r_lp_tautomer_probability>
1

> <s_lp_Force_Field>
OPLS_2005

> <r_lp_Energy>
30.698436

> <b_lp_Chiralities_Consistent>
1

> <s_lp_Variant>
CHEMBL2695_lig684-1

> <s_i_glide_gridfile>
glide-grid_3bz3

> <i_i_glide_lignum>
739

> <i_i_glide_rotatable_bonds>
5

> <r_i_docking_score>
-7.94071208736594

> <r_i_glide_ligand_efficiency>
-0.305412003360228

> <r_i_glide_ligand_efficiency_sa>
-0.904781858216473

> <r_i_glide_ligand_efficiency_ln>
-1.86485017811634

> <r_i_glide_gscore>
-7.94071208736594

> <r_i_glide_lipo>
-2.25714646961436

> <r_i_glide_hbond>
-0.206341200040849

> <r_i_glide_metal>
0

> <r_i_glide_rewards>
-3.14233088041101

> <r_i_glide_evdw>
-35.2841949462891

> <r_i_glide_ecoul>
-7.58335781097412

> <r_i_glide_erotb>
0.608659307694719

> <r_i_glide_esite>
-0.0418394260338634

> <r_i_glide_emodel>
-62.4732336698993

> <r_i_glide_energy>
-42.8675527572632

> <r_i_glide_einternal>
0.270692050457001

> <i_i_glide_confnum>
33

> <i_i_glide_posenum>
199

> <r_i_glide_eff_state_penalty>
0

> <s_user_duplicate_titles>
CHEMBL2695_lig684

> <s_m_subgroup_title>
dock_pv

> <s_m_subgroupid>
dock_pv

> <b_m_subgroup_collapsed>
1

$$$$
CHEMBL2695_lig2074
                    3D
 Schrodinger Suite 2021-1.
 42 45  0  0  1  0            999 V2000
   13.5720    1.5626    4.6443 N   0  0  0  0  0  0
   13.0998    0.7634    3.5919 C   0  0  0  0  0  0
   11.7511    0.3631    3.4394 C   0  0  0  0  0  0
   10.7460    0.8124    4.3047 N   0  0  0  0  0  0
   10.5501    1.9375    5.1021 C   0  0  0  0  0  0
   11.5952    2.7281    5.6266 C   0  0  0  0  0  0
   13.0871    2.4260    5.5462 C   0  0  0  0  0  0
   11.4397   -0.5096    2.3750 C   0  0  0  0  0  0
   12.4209   -0.9786    1.5073 C   0  0  0  0  0  0
   13.7359   -0.5624    1.6558 C   0  0  0  0  0  0
   14.0628    0.3116    2.6833 C   0  0  0  0  0  0
   11.2666    3.9153    6.3092 C   0  0  0  0  0  0
    9.9430    4.3084    6.4827 C   0  0  0  0  0  0
    8.9098    3.5157    5.9953 C   0  0  0  0  0  0
    9.2297    2.3333    5.3342 C   0  0  0  0  0  0
   13.8804    2.9887    6.3058 O   0  0  0  0  0  0
    7.4983    3.9375    6.1160 C   0  0  0  0  0  0
    6.7037    3.4934    7.1769 C   0  0  0  0  0  0
    5.3497    3.8640    7.2760 C   0  0  0  0  0  0
    4.8095    4.7038    6.2885 C   0  0  0  0  0  0
    5.5994    5.1490    5.2297 C   0  0  0  0  0  0
    6.9340    4.7629    5.1420 C   0  0  0  0  0  0
    4.5110    3.4357    8.2915 O   0  0  0  0  0  0
    4.9898    2.4947    9.2468 C   0  0  0  0  0  0
    3.4926    5.0872    6.3310 O   0  0  0  0  0  0
   10.1470   -0.9053    2.1250 O   0  0  0  0  0  0
   14.5765    1.5259    4.7392 H   0  0  0  0  0  0
    9.8695    0.3413    4.1438 H   0  0  0  0  0  0
   12.1542   -1.6539    0.7079 H   0  0  0  0  0  0
   14.5022   -0.9224    0.9868 H   0  0  0  0  0  0
   15.0971    0.6047    2.8006 H   0  0  0  0  0  0
   12.0320    4.5623    6.7169 H   0  0  0  0  0  0
    9.7210    5.2335    6.9947 H   0  0  0  0  0  0
    8.4205    1.7372    4.9315 H   0  0  0  0  0  0
    7.1530    2.8468    7.9154 H   0  0  0  0  0  0
    5.1806    5.7898    4.4687 H   0  0  0  0  0  0
    7.5326    5.1077    4.3110 H   0  0  0  0  0  0
    4.1730    2.2113    9.9086 H   0  0  0  0  0  0
    5.3500    1.5830    8.7657 H   0  0  0  0  0  0
    5.7853    2.9168    9.8633 H   0  0  0  0  0  0
    3.1927    5.5562    5.5417 H   0  0  0  0  0  0
    9.4757   -0.3157    2.4788 H   0  0  0  0  0  0
  1  2  1  0  0  0
  1  7  1  0  0  0
  1 27  1  0  0  0
  2  3  1  0  0  0
  2 11  2  0  0  0
  3  4  1  0  0  0
  3  8  2  0  0  0
  4  5  1  0  0  0
  4 28  1  0  0  0
  5  6  1  0  0  0
  5 15  2  0  0  0
  6  7  1  0  0  0
  6 12  2  0  0  0
  7 16  2  0  0  0
  8  9  1  0  0  0
  8 26  1  0  0  0
  9 10  2  0  0  0
  9 29  1  0  0  0
 10 11  1  0  0  0
 10 30  1  0  0  0
 11 31  1  0  0  0
 12 13  1  0  0  0
 12 32  1  0  0  0
 13 14  2  0  0  0
 13 33  1  0  0  0
 14 15  1  0  0  0
 14 17  1  0  0  0
 15 34  1  0  0  0
 17 18  1  0  0  0
 17 22  2  0  0  0
 18 19  2  0  0  0
 18 35  1  0  0  0
 19 20  1  0  0  0
 19 23  1  0  0  0
 20 21  2  0  0  0
 20 25  1  0  0  0
 21 22  1  0  0  0
 21 36  1  0  0  0
 22 37  1  0  0  0
 23 24  1  0  0  0
 24 38  1  0  0  0
 24 39  1  0  0  0
 24 40  1  0  0  0
 25 41  1  0  0  0
 26 42  1  0  0  0
M  END
> <s_m_entry_id>
47582

> <s_m_entry_name>
dock_pv.115

> <s_m_Source_Path>
/home/csk/Desktop/cluster/DUD-E-result/fak1

> <s_m_Source_File>
dock_pv.maegz

> <i_m_Source_File_Index>
115

> <chembl_id>
CHEMBL550418

> <chembl_pref_name>
None

> <i_lp_mmshare_version>
53161

> <i_f3d_flags>
0

> <r_lp_tautomer_probability>
1

> <s_lp_Force_Field>
OPLS_2005

> <r_lp_Energy>
42.685997

> <b_lp_Chiralities_Consistent>
1

> <s_lp_Variant>
CHEMBL2695_lig2074-1

> <s_i_glide_gridfile>
glide-grid_3bz3

> <i_i_glide_lignum>
2489

> <i_i_glide_rotatable_bonds>
4

> <r_i_docking_score>
-7.93025387775834

> <r_i_glide_ligand_efficiency>
-0.305009764529167

> <r_i_glide_ligand_efficiency_sa>
-0.903590227262187

> <r_i_glide_ligand_efficiency_ln>
-1.86239410190618

> <r_i_glide_gscore>
-7.93025387775834

> <r_i_glide_lipo>
-3.10271920314889

> <r_i_glide_hbond>
-0.287566866483304

> <r_i_glide_metal>
0

> <r_i_glide_rewards>
-1.42547251118191

> <r_i_glide_evdw>
-38.4207153320312

> <r_i_glide_ecoul>
-9.00216960906982

> <r_i_glide_erotb>
0.156865911017793

> <r_i_glide_esite>
0

> <r_i_glide_emodel>
-66.9437898416501

> <r_i_glide_energy>
-47.4228849411011

> <r_i_glide_einternal>
2.86250066757202

> <i_i_glide_confnum>
4

> <i_i_glide_posenum>
364

> <r_i_glide_eff_state_penalty>
0

> <s_user_duplicate_titles>
CHEMBL2695_lig2074

> <s_m_subgroup_title>
dock_pv

> <s_m_subgroupid>
dock_pv

> <b_m_subgroup_collapsed>
1

$$$$
CHEMBL2695_lig253
                    3D
 Schrodinger Suite 2021-1.
 34 36  0  0  1  0            999 V2000
    9.9799    4.4127    6.2748 N   0  0  0  0  0  0
   11.3415    4.3983    6.4468 C   0  0  0  0  0  0
   11.7850    3.1740    5.9090 C   0  0  0  0  0  0
   10.6129    2.4961    5.4749 C   0  0  0  0  0  0
    9.4928    3.2942    5.6620 C   0  0  0  0  0  0
   13.1495    2.6743    5.8192 C   0  0  0  0  0  0
   14.1270    3.2276    6.3091 O   0  0  0  0  0  0
   13.3087    1.5631    5.1104 N   0  0  0  0  0  0
   11.9761    5.5627    7.1427 C   0  0  0  0  0  0
   11.3948    6.8285    6.9965 C   0  0  0  0  0  0
   11.7998    7.8862    7.7966 C   0  0  0  0  0  0
   12.8068    7.6762    8.7272 C   0  0  0  0  0  0
   13.4736    6.4671    8.8087 C   0  0  0  0  0  0
   13.0501    5.4084    8.0245 C   0  0  0  0  0  0
    5.9251    4.0703    5.3396 C   0  0  0  0  0  0
    7.2378    4.1824    5.6532 N   0  0  0  0  0  0
    8.0420    3.1287    5.3340 C   0  0  0  0  0  0
    7.5301    1.9855    4.7113 C   0  0  0  0  0  0
    6.1569    1.9637    4.4396 C   0  0  0  0  0  0
    5.3354    3.0022    4.7480 N   0  0  0  0  0  0
    5.1216    5.1627    5.6246 N   0  0  0  0  0  0
    9.3888    5.1755    6.5712 H   0  0  0  0  0  0
   10.5791    1.5165    5.0218 H   0  0  0  0  0  0
   12.5322    1.1408    4.6296 H   0  0  0  0  0  0
   14.2338    1.1578    5.0549 H   0  0  0  0  0  0
   10.5793    6.9906    6.3092 H   0  0  0  0  0  0
   11.3126    8.8471    7.7188 H   0  0  0  0  0  0
   13.1180    8.4736    9.3836 H   0  0  0  0  0  0
   14.2867    6.3453    9.5088 H   0  0  0  0  0  0
   13.5233    4.4563    8.1872 H   0  0  0  0  0  0
    8.1577    1.1520    4.4338 H   0  0  0  0  0  0
    5.7023    1.1320    3.9250 H   0  0  0  0  0  0
    4.1580    5.1624    5.3136 H   0  0  0  0  0  0
    5.5348    5.9696    6.0618 H   0  0  0  0  0  0
  1  2  1  0  0  0
  1  5  1  0  0  0
  1 22  1  0  0  0
  2  3  2  0  0  0
  2  9  1  0  0  0
  3  4  1  0  0  0
  3  6  1  0  0  0
  4  5  2  0  0  0
  4 23  1  0  0  0
  5 17  1  0  0  0
  6  7  2  0  0  0
  6  8  1  0  0  0
  8 24  1  0  0  0
  8 25  1  0  0  0
  9 10  1  0  0  0
  9 14  2  0  0  0
 10 11  2  0  0  0
 10 26  1  0  0  0
 11 12  1  0  0  0
 11 27  1  0  0  0
 12 13  2  0  0  0
 12 28  1  0  0  0
 13 14  1  0  0  0
 13 29  1  0  0  0
 14 30  1  0  0  0
 15 16  1  0  0  0
 15 20  2  0  0  0
 15 21  1  0  0  0
 16 17  2  0  0  0
 17 18  1  0  0  0
 18 19  2  0  0  0
 18 31  1  0  0  0
 19 20  1  0  0  0
 19 32  1  0  0  0
 21 33  1  0  0  0
 21 34  1  0  0  0
M  END
> <s_m_entry_id>
47583

> <s_m_entry_name>
dock_pv.116

> <s_m_Source_Path>
/home/csk/Desktop/cluster/DUD-E-result/fak1

> <s_m_Source_File>
dock_pv.maegz

> <i_m_Source_File_Index>
116

> <chembl_id>
CHEMBL1270230

> <chembl_pref_name>
None

> <i_lp_mmshare_version>
53161

> <i_f3d_flags>
0

> <r_lp_tautomer_probability>
0.999999987636

> <s_lp_Force_Field>
OPLS_2005

> <r_lp_Energy>
0.265656

> <b_lp_Chiralities_Consistent>
1

> <s_lp_Variant>
CHEMBL2695_lig253-1

> <s_i_glide_gridfile>
glide-grid_3bz3

> <i_i_glide_lignum>
286

> <i_i_glide_rotatable_bonds>
3

> <r_i_docking_score>
-7.92205412218856

> <r_i_glide_ligand_efficiency>
-0.37724067248517

> <r_i_glide_ligand_efficiency_sa>
-1.04077841057738

> <r_i_glide_ligand_efficiency_ln>
-1.95871187369348

> <r_i_glide_gscore>
-7.92205412218856

> <r_i_glide_lipo>
-2.74822229899101

> <r_i_glide_hbond>
-0.719790889705296

> <r_i_glide_metal>
0

> <r_i_glide_rewards>
-2.45237841528698

> <r_i_glide_evdw>
-30.5955276489258

> <r_i_glide_ecoul>
-6.22952270507812

> <r_i_glide_erotb>
0.462542270002731

> <r_i_glide_esite>
0

> <r_i_glide_emodel>
-54.9825144544158

> <r_i_glide_energy>
-36.8250503540039

> <r_i_glide_einternal>
0.245437398552895

> <i_i_glide_confnum>
1

> <i_i_glide_posenum>
55

> <r_i_glide_eff_state_penalty>
0

> <s_user_duplicate_titles>
CHEMBL2695_lig253

> <s_m_subgroup_title>
dock_pv

> <s_m_subgroupid>
dock_pv

> <b_m_subgroup_collapsed>
1

$$$$
CHEMBL2695_lig2170
                    3D
 Schrodinger Suite 2021-1.
 51 54  0  0  1  0            999 V2000
    0.2675   -1.4865    4.1418 C   0  0  0  0  0  0
    1.2234   -1.5569    5.1965 O   0  0  0  0  0  0
    2.0634   -0.4793    5.4308 C   0  0  0  0  0  0
    1.9819    0.7199    4.7008 C   0  0  0  0  0  0
    2.8774    1.7513    4.9962 C   0  0  0  0  0  0
    2.9933    2.9833    4.4114 N   0  0  0  0  0  0
    3.9592    3.5615    5.0784 C   0  0  0  0  0  0
    4.5199    2.7763    6.0603 N   0  0  0  0  0  0
    5.5309    3.1659    6.8910 C   0  0  0  0  0  0
    6.8614    3.2670    6.5253 C   0  0  0  0  0  0
    7.6890    3.6756    7.5878 C   0  0  0  0  0  0
    9.0502    3.8229    7.5273 O   0  0  0  0  0  0
    9.5839    4.4753    6.3813 C   0  0  0  0  0  0
   11.0179    3.9863    6.2292 C   0  0  0  0  0  0
   11.1940    2.7002    5.7043 C   0  0  0  0  0  0
   12.4675    2.1572    5.5576 C   0  0  0  0  0  0
   13.5797    2.9129    5.9091 C   0  0  0  0  0  0
   13.4212    4.1955    6.4387 C   0  0  0  0  0  0
   12.1407    4.7384    6.6422 C   0  0  0  0  0  0
   11.9957    6.0862    7.3666 C   0  0  0  0  0  0
   13.1550    6.5330    7.8558 F   0  0  0  0  0  0
   11.5217    7.0112    6.5320 F   0  0  0  0  0  0
   11.1577    5.9654    8.3977 F   0  0  0  0  0  0
    6.9726    3.8536    8.7792 C   0  0  0  0  0  0
    5.2588    3.5628    8.5473 S   0  0  0  0  0  0
    7.5085    4.2866   10.0521 C   0  0  0  0  0  0
    6.7223    4.1141   11.1118 N   0  0  0  0  0  0
    8.6328    4.7675   10.1640 O   0  0  0  0  0  0
    3.8268    1.5824    6.0303 C   0  0  0  0  0  0
    3.9207    0.4017    6.7707 C   0  0  0  0  0  0
    3.0351   -0.6407    6.4367 C   0  0  0  0  0  0
    3.0777   -1.8744    7.0677 O   0  0  0  0  0  0
    4.2239   -2.2149    7.8395 C   0  0  0  0  0  0
   -0.2756   -2.4293    4.0845 H   0  0  0  0  0  0
   -0.4647   -0.6959    4.3142 H   0  0  0  0  0  0
    0.7479   -1.3268    3.1749 H   0  0  0  0  0  0
    1.2596    0.8631    3.9137 H   0  0  0  0  0  0
    4.3228    4.5655    4.9162 H   0  0  0  0  0  0
    7.2164    3.0285    5.5344 H   0  0  0  0  0  0
    9.5260    5.5580    6.5016 H   0  0  0  0  0  0
    9.0567    4.2500    5.4522 H   0  0  0  0  0  0
   10.3348    2.1100    5.4160 H   0  0  0  0  0  0
   12.5913    1.1637    5.1555 H   0  0  0  0  0  0
   14.5676    2.4912    5.7843 H   0  0  0  0  0  0
   14.3018    4.7492    6.7340 H   0  0  0  0  0  0
    7.0543    4.3660   12.0307 H   0  0  0  0  0  0
    5.8028    3.7037   11.0153 H   0  0  0  0  0  0
    4.6778    0.3014    7.5335 H   0  0  0  0  0  0
    4.1319   -3.2401    8.1973 H   0  0  0  0  0  0
    5.1352   -2.1547    7.2400 H   0  0  0  0  0  0
    4.3268   -1.5675    8.7090 H   0  0  0  0  0  0
  1  2  1  0  0  0
  1 34  1  0  0  0
  1 35  1  0  0  0
  1 36  1  0  0  0
  2  3  1  0  0  0
  3  4  1  0  0  0
  3 31  2  0  0  0
  4  5  2  0  0  0
  4 37  1  0  0  0
  5  6  1  0  0  0
  5 29  1  0  0  0
  6  7  2  0  0  0
  7  8  1  0  0  0
  7 38  1  0  0  0
  8  9  1  0  0  0
  8 29  1  0  0  0
  9 10  2  0  0  0
  9 25  1  0  0  0
 10 11  1  0  0  0
 10 39  1  0  0  0
 11 12  1  0  0  0
 11 24  2  0  0  0
 12 13  1  0  0  0
 13 14  1  0  0  0
 13 40  1  0  0  0
 13 41  1  0  0  0
 14 15  2  0  0  0
 14 19  1  0  0  0
 15 16  1  0  0  0
 15 42  1  0  0  0
 16 17  2  0  0  0
 16 43  1  0  0  0
 17 18  1  0  0  0
 17 44  1  0  0  0
 18 19  2  0  0  0
 18 45  1  0  0  0
 19 20  1  0  0  0
 20 21  1  0  0  0
 20 22  1  0  0  0
 20 23  1  0  0  0
 24 25  1  0  0  0
 24 26  1  0  0  0
 26 27  1  0  0  0
 26 28  2  0  0  0
 27 46  1  0  0  0
 27 47  1  0  0  0
 29 30  2  0  0  0
 30 31  1  0  0  0
 30 48  1  0  0  0
 31 32  1  0  0  0
 32 33  1  0  0  0
 33 49  1  0  0  0
 33 50  1  0  0  0
 33 51  1  0  0  0
M  END
> <s_m_entry_id>
47584

> <s_m_entry_name>
dock_pv.117

> <s_m_Source_Path>
/home/csk/Desktop/cluster/DUD-E-result/fak1

> <s_m_Source_File>
dock_pv.maegz

> <i_m_Source_File_Index>
117

> <chembl_id>
CHEMBL514499

> <chembl_pref_name>
GW843682X

> <i_lp_mmshare_version>
53161

> <i_f3d_flags>
0

> <r_lp_tautomer_probability>
1

> <s_lp_Force_Field>
OPLS_2005

> <r_lp_Energy>
28.723206

> <b_lp_Chiralities_Consistent>
1

> <s_lp_Variant>
CHEMBL2695_lig2170-1

> <s_i_glide_gridfile>
glide-grid_3bz3

> <i_i_glide_lignum>
2637

> <i_i_glide_rotatable_bonds>
8

> <r_i_docking_score>
-7.91387091558278

> <r_i_glide_ligand_efficiency>
-0.239814270169175

> <r_i_glide_ligand_efficiency_sa>
-0.769212503494004

> <r_i_glide_ligand_efficiency_ln>
-1.76000391579499

> <r_i_glide_gscore>
-7.91387091558278

> <r_i_glide_lipo>
-2.71668218353111

> <r_i_glide_hbond>
-0.284382298399815

> <r_i_glide_metal>
0

> <r_i_glide_rewards>
-2.15125261766477

> <r_i_glide_evdw>
-43.8964691162109

> <r_i_glide_ecoul>
-6.11426877975464

> <r_i_glide_erotb>
0.355444484812975

> <r_i_glide_esite>
-0.00503452802633031

> <r_i_glide_emodel>
-70.209268879779

> <r_i_glide_energy>
-50.0107378959656

> <r_i_glide_einternal>
6.87507343292236

> <i_i_glide_confnum>
3

> <i_i_glide_posenum>
121

> <r_i_glide_eff_state_penalty>
0

> <s_user_duplicate_titles>
CHEMBL2695_lig2170

> <s_m_subgroup_title>
dock_pv

> <s_m_subgroupid>
dock_pv

> <b_m_subgroup_collapsed>
1

$$$$
CHEMBL2695_lig1605
                    3D
 Schrodinger Suite 2021-1.
 31 33  0  0  1  0            999 V2000
   11.5464    6.1447    8.9247 F   0  0  0  0  0  0
   11.5218    7.1033    6.9872 F   0  0  0  0  0  0
   12.8348    5.4178    7.3482 F   0  0  0  0  0  0
    1.6653    3.8195    7.9342 O   0  0  0  0  0  0
    7.1905    3.3790    9.4869 N   0  0  0  0  0  0
    5.9227    3.2640    9.9089 N   0  0  0  0  0  0
    3.6493    3.5627    8.9736 N   0  0  0  0  0  0
    5.7712    3.9100    7.8106 C   0  0  0  0  0  0
    7.1145    3.7386    8.2126 C   0  0  0  0  0  0
    5.0295    3.5623    8.9256 C   0  0  0  0  0  0
    8.3529    3.9359    7.4055 C   0  0  0  0  0  0
    5.0047    4.3529    6.6297 C   0  0  0  0  0  0
   10.5260    4.9975    7.1075 C   0  0  0  0  0  0
    9.3776    4.7630    7.8762 C   0  0  0  0  0  0
    2.8885    3.9170    7.9071 C   0  0  0  0  0  0
    3.6478    4.3698    6.7428 C   0  0  0  0  0  0
   11.6306    5.9294    7.6094 C   0  0  0  0  0  0
    8.5002    3.3044    6.1673 C   0  0  0  0  0  0
   10.6505    4.3621    5.8669 C   0  0  0  0  0  0
    9.6440    3.5176    5.3995 C   0  0  0  0  0  0
    5.7014    4.8689    5.3838 C   0  0  0  0  0  0
    5.6742    2.9853   10.8510 H   0  0  0  0  0  0
    3.1398    3.2461    9.7843 H   0  0  0  0  0  0
    9.2577    5.2496    8.8336 H   0  0  0  0  0  0
    3.0605    4.7307    5.9101 H   0  0  0  0  0  0
    7.7278    2.6454    5.7982 H   0  0  0  0  0  0
   11.5291    4.5241    5.2595 H   0  0  0  0  0  0
    9.7471    3.0296    4.4399 H   0  0  0  0  0  0
    5.0129    5.3915    4.7191 H   0  0  0  0  0  0
    6.4979    5.5633    5.6511 H   0  0  0  0  0  0
    6.1336    4.0418    4.8225 H   0  0  0  0  0  0
  1 17  1  0  0  0
  2 17  1  0  0  0
  3 17  1  0  0  0
  4 15  2  0  0  0
  5  6  1  0  0  0
  5  9  2  0  0  0
  6 10  1  0  0  0
  6 22  1  0  0  0
  7 10  1  0  0  0
  7 15  1  0  0  0
  7 23  1  0  0  0
  8  9  1  0  0  0
  8 10  2  0  0  0
  8 12  1  0  0  0
  9 11  1  0  0  0
 11 14  1  0  0  0
 11 18  2  0  0  0
 12 16  2  0  0  0
 12 21  1  0  0  0
 13 14  2  0  0  0
 13 17  1  0  0  0
 13 19  1  0  0  0
 14 24  1  0  0  0
 15 16  1  0  0  0
 16 25  1  0  0  0
 18 20  1  0  0  0
 18 26  1  0  0  0
 19 20  2  0  0  0
 19 27  1  0  0  0
 20 28  1  0  0  0
 21 29  1  0  0  0
 21 30  1  0  0  0
 21 31  1  0  0  0
M  END
> <s_m_entry_id>
47585

> <s_m_entry_name>
dock_pv.118

> <s_m_Source_Path>
/home/csk/Desktop/cluster/DUD-E-result/fak1

> <s_m_Source_File>
dock_pv.maegz

> <i_m_Source_File_Index>
118

> <chembl_id>
CHEMBL1991377

> <chembl_pref_name>
None

> <i_lp_mmshare_version>
53161

> <i_f3d_flags>
0

> <r_lp_tautomer_probability>
1

> <s_lp_Force_Field>
OPLS_2005

> <r_lp_Energy>
27.517932

> <b_lp_Chiralities_Consistent>
1

> <s_lp_Variant>
CHEMBL2695_lig1605-1

> <s_i_glide_gridfile>
glide-grid_3bz3

> <i_i_glide_lignum>
1776

> <i_i_glide_rotatable_bonds>
2

> <r_i_docking_score>
-7.90531761915362

> <r_i_glide_ligand_efficiency>
-0.376443696150172

> <r_i_glide_ligand_efficiency_sa>
-1.03857961330099

> <r_i_glide_ligand_efficiency_ln>
-1.95457380713738

> <r_i_glide_gscore>
-7.90531761915362

> <r_i_glide_lipo>
-2.37430923508436

> <r_i_glide_hbond>
-0.32

> <r_i_glide_metal>
0

> <r_i_glide_rewards>
-3.06736004747224

> <r_i_glide_evdw>
-32.0285377502441

> <r_i_glide_ecoul>
-4.91970777511597

> <r_i_glide_erotb>
0.212458973942849

> <r_i_glide_esite>
-0.0167242567602639

> <r_i_glide_emodel>
-54.6529649076006

> <r_i_glide_energy>
-36.9482455253601

> <r_i_glide_einternal>
0.45617401599884

> <i_i_glide_confnum>
3

> <i_i_glide_posenum>
251

> <r_i_glide_eff_state_penalty>
0

> <s_user_duplicate_titles>
CHEMBL2695_lig1605

> <s_m_subgroup_title>
dock_pv

> <s_m_subgroupid>
dock_pv

> <b_m_subgroup_collapsed>
1

$$$$
CHEMBL2695_lig294
                    3D
 Schrodinger Suite 2021-1.
 43 46  0  0  1  0            999 V2000
    5.6199    3.2942    9.0047 C   0  0  0  0  0  0
    5.3288    2.5172    7.8826 C   0  0  0  0  0  0
    6.2327    2.3716    6.8258 C   0  0  0  0  0  0
    6.8387    3.9630    9.1227 C   0  0  0  0  0  0
    7.7670    3.8337    8.0796 C   0  0  0  0  0  0
    7.4556    3.0445    6.9469 C   0  0  0  0  0  0
    8.5802    3.1337    6.1456 N   0  0  0  0  0  0
    9.5223    3.8638    6.8664 C   0  0  0  0  0  0
    9.0212    4.3630    7.9754 N   0  0  0  0  0  0
   10.9884    4.0113    6.5544 C   0  0  0  0  0  0
   11.7338    5.0917    7.0509 C   0  0  0  0  0  0
   13.1220    5.0210    6.9226 C   0  0  0  0  0  0
   13.7442    3.9729    6.3227 N   0  0  0  0  0  0
   12.9514    2.9964    5.8164 C   0  0  0  0  0  0
   11.5934    2.9728    5.9090 N   0  0  0  0  0  0
   13.6415    2.0087    5.0969 N   0  0  0  0  0  0
   13.2912    1.1630    4.0282 C   0  0  0  0  0  0
   11.9778    0.7630    3.7531 C   0  0  0  0  0  0
   11.7023   -0.1194    2.7090 C   0  0  0  0  0  0
   12.7330   -0.6399    1.9090 C   0  0  0  0  0  0
   14.0548   -0.2821    2.2129 C   0  0  0  0  0  0
   14.3220    0.6168    3.2521 C   0  0  0  0  0  0
    8.7486    2.4431    4.8736 C   0  0  0  0  0  0
   12.5160   -1.5043    0.8473 O   0  0  0  0  0  0
   11.1849   -1.9135    0.5455 C   0  0  0  0  0  0
   15.1023   -0.8369    1.5116 O   0  0  0  0  0  0
    4.8911    3.3734    9.8002 H   0  0  0  0  0  0
    4.3779    2.0064    7.8331 H   0  0  0  0  0  0
    6.0004    1.7489    5.9718 H   0  0  0  0  0  0
    7.0599    4.5569    9.9971 H   0  0  0  0  0  0
   11.2623    5.9107    7.5741 H   0  0  0  0  0  0
   13.7602    5.7989    7.3193 H   0  0  0  0  0  0
   14.6404    2.0756    5.2202 H   0  0  0  0  0  0
   11.1540    1.1153    4.3471 H   0  0  0  0  0  0
   10.6691   -0.3801    2.5346 H   0  0  0  0  0  0
   15.3481    0.8694    3.4775 H   0  0  0  0  0  0
    8.9955    1.3978    5.0592 H   0  0  0  0  0  0
    7.8166    2.4885    4.3090 H   0  0  0  0  0  0
    9.5236    2.9208    4.2746 H   0  0  0  0  0  0
   11.1994   -2.5961   -0.3040 H   0  0  0  0  0  0
   10.7289   -2.4434    1.3833 H   0  0  0  0  0  0
   10.5569   -1.0631    0.2744 H   0  0  0  0  0  0
   15.8502   -1.0608    2.0827 H   0  0  0  0  0  0
  1  2  2  0  0  0
  1  4  1  0  0  0
  1 27  1  0  0  0
  2  3  1  0  0  0
  2 28  1  0  0  0
  3  6  2  0  0  0
  3 29  1  0  0  0
  4  5  2  0  0  0
  4 30  1  0  0  0
  5  9  1  0  0  0
  5  6  1  0  0  0
  6  7  1  0  0  0
  7  8  1  0  0  0
  7 23  1  0  0  0
  8 10  1  0  0  0
  8  9  2  0  0  0
 10 15  1  0  0  0
 10 11  2  0  0  0
 11 12  1  0  0  0
 11 31  1  0  0  0
 12 13  2  0  0  0
 12 32  1  0  0  0
 13 14  1  0  0  0
 14 15  2  0  0  0
 14 16  1  0  0  0
 16 17  1  0  0  0
 16 33  1  0  0  0
 17 18  2  0  0  0
 17 22  1  0  0  0
 18 19  1  0  0  0
 18 34  1  0  0  0
 19 20  2  0  0  0
 19 35  1  0  0  0
 20 21  1  0  0  0
 20 24  1  0  0  0
 21 22  2  0  0  0
 21 26  1  0  0  0
 22 36  1  0  0  0
 23 37  1  0  0  0
 23 38  1  0  0  0
 23 39  1  0  0  0
 24 25  1  0  0  0
 25 40  1  0  0  0
 25 41  1  0  0  0
 25 42  1  0  0  0
 26 43  1  0  0  0
M  END
> <s_m_entry_id>
47586

> <s_m_entry_name>
dock_pv.119

> <s_m_Source_Path>
/home/csk/Desktop/cluster/DUD-E-result/fak1

> <s_m_Source_File>
dock_pv.maegz

> <i_m_Source_File_Index>
119

> <chembl_id>
CHEMBL2036866

> <chembl_pref_name>
None

> <i_lp_mmshare_version>
53161

> <i_f3d_flags>
0

> <r_lp_tautomer_probability>
0.99999998756527

> <s_lp_Force_Field>
OPLS_2005

> <r_lp_Energy>
13.989057

> <b_lp_Chiralities_Consistent>
1

> <s_lp_Variant>
CHEMBL2695_lig294-1

> <s_i_glide_gridfile>
glide-grid_3bz3

> <i_i_glide_lignum>
331

> <i_i_glide_rotatable_bonds>
5

> <r_i_docking_score>
-7.90440153942061

> <r_i_glide_ligand_efficiency>
-0.30401544382387

> <r_i_glide_ligand_efficiency_sa>
-0.900644556085207

> <r_i_glide_ligand_efficiency_ln>
-1.85632276507601

> <r_i_glide_gscore>
-7.90440153942061

> <r_i_glide_lipo>
-2.54247977696072

> <r_i_glide_hbond>
-0.0724131496695244

> <r_i_glide_metal>
0

> <r_i_glide_rewards>
-2.65801073202117

> <r_i_glide_evdw>
-36.3227729797363

> <r_i_glide_ecoul>
-8.58881282806396

> <r_i_glide_erotb>
0.472962692427211

> <r_i_glide_esite>
0

> <r_i_glide_emodel>
-63.0905833894779

> <r_i_glide_energy>
-44.9115858078003

> <r_i_glide_einternal>
4.15326642990112

> <i_i_glide_confnum>
1

> <i_i_glide_posenum>
203

> <r_i_glide_eff_state_penalty>
0

> <s_user_duplicate_titles>
CHEMBL2695_lig294

> <s_m_subgroup_title>
dock_pv

> <s_m_subgroupid>
dock_pv

> <b_m_subgroup_collapsed>
1

$$$$
CHEMBL2695_lig368
                    3D
 Schrodinger Suite 2021-1.
 46 48  0  0  1  0            999 V2000
    7.2877    3.7315   10.0120 S   0  0  0  0  0  0
    7.6691    2.3210    9.9088 O   0  0  0  0  0  0
    7.5251    4.4933   11.2391 O   0  0  0  0  0  0
   14.3218    4.1017    7.0504 N   0  0  0  0  0  0
   13.4001    3.5677    6.2185 C   0  0  0  0  0  0
   12.1370    4.0347    6.0936 N   0  0  0  0  0  0
   11.7790    5.0368    6.9334 C   0  0  0  0  0  0
   12.6210    5.6544    7.7946 N   0  0  0  0  0  0
   13.8829    5.1516    7.7956 C   0  0  0  0  0  0
   10.4182    5.3216    7.0909 N   0  0  0  0  0  0
    9.3364    4.5735    6.5819 C   0  0  0  0  0  0
   13.7724    2.4149    5.5089 N   0  0  0  0  0  0
   12.9844    1.5632    4.7194 C   0  0  0  0  0  0
   13.5447    0.9985    3.5676 C   0  0  0  0  0  0
   12.7697    0.1839    2.7419 C   0  0  0  0  0  0
   11.4323   -0.0652    3.0686 C   0  0  0  0  0  0
   10.8682    0.5140    4.2050 C   0  0  0  0  0  0
   11.6475    1.2982    5.0426 C   0  0  0  0  0  0
    9.3320    4.2290    5.2273 C   0  0  0  0  0  0
    8.3466    3.4065    4.7094 C   0  0  0  0  0  0
    7.3594    2.8847    5.5308 C   0  0  0  0  0  0
    7.3277    3.2477    6.8718 C   0  0  0  0  0  0
    8.2811    4.1281    7.4082 C   0  0  0  0  0  0
    8.1720    4.5769    8.7374 N   0  0  0  0  0  0
    5.4780    3.9349    9.5236 C   0  0  0  0  0  0
   10.5761   -0.9452    2.1701 C   0  0  0  0  0  0
   10.1212   -2.1385    2.8678 N   0  0  0  0  0  0
   14.5729    5.5634    8.5165 H   0  0  0  0  0  0
   10.2353    5.9155    7.8810 H   0  0  0  0  0  0
   14.7216    2.1013    5.6494 H   0  0  0  0  0  0
   14.5775    1.1859    3.3141 H   0  0  0  0  0  0
   13.2099   -0.2546    1.8578 H   0  0  0  0  0  0
    9.8256    0.3630    4.4420 H   0  0  0  0  0  0
   11.1884    1.7174    5.9239 H   0  0  0  0  0  0
   10.1071    4.5870    4.5664 H   0  0  0  0  0  0
    8.3703    3.1636    3.6694 H   0  0  0  0  0  0
    6.6157    2.2096    5.1283 H   0  0  0  0  0  0
    6.5389    2.8273    7.4700 H   0  0  0  0  0  0
    8.6604    5.4126    9.0111 H   0  0  0  0  0  0
    4.8952    4.1356   10.4169 H   0  0  0  0  0  0
    5.3730    4.7623    8.8253 H   0  0  0  0  0  0
    5.1190    3.0059    9.0824 H   0  0  0  0  0  0
   11.1468   -1.2472    1.2897 H   0  0  0  0  0  0
    9.7152   -0.3777    1.8103 H   0  0  0  0  0  0
    9.3442   -1.8934    3.4698 H   0  0  0  0  0  0
    9.7316   -2.7887    2.1980 H   0  0  0  0  0  0
  1  2  2  0  0  0
  1  3  2  0  0  0
  1 24  1  0  0  0
  1 25  1  0  0  0
  4  5  2  0  0  0
  4  9  1  0  0  0
  5  6  1  0  0  0
  5 12  1  0  0  0
  6  7  2  0  0  0
  7  8  1  0  0  0
  7 10  1  0  0  0
  8  9  2  0  0  0
  9 28  1  0  0  0
 10 11  1  0  0  0
 10 29  1  0  0  0
 11 19  2  0  0  0
 11 23  1  0  0  0
 12 13  1  0  0  0
 12 30  1  0  0  0
 13 14  2  0  0  0
 13 18  1  0  0  0
 14 15  1  0  0  0
 14 31  1  0  0  0
 15 16  2  0  0  0
 15 32  1  0  0  0
 16 17  1  0  0  0
 16 26  1  0  0  0
 17 18  2  0  0  0
 17 33  1  0  0  0
 18 34  1  0  0  0
 19 20  1  0  0  0
 19 35  1  0  0  0
 20 21  2  0  0  0
 20 36  1  0  0  0
 21 22  1  0  0  0
 21 37  1  0  0  0
 22 23  2  0  0  0
 22 38  1  0  0  0
 23 24  1  0  0  0
 24 39  1  0  0  0
 25 40  1  0  0  0
 25 41  1  0  0  0
 25 42  1  0  0  0
 26 27  1  0  0  0
 26 43  1  0  0  0
 26 44  1  0  0  0
 27 45  1  0  0  0
 27 46  1  0  0  0
M  END
> <s_m_entry_id>
47587

> <s_m_entry_name>
dock_pv.120

> <s_m_Source_Path>
/home/csk/Desktop/cluster/DUD-E-result/fak1

> <s_m_Source_File>
dock_pv.maegz

> <i_m_Source_File_Index>
120

> <chembl_id>
CHEMBL2409591

> <chembl_pref_name>
None

> <i_lp_mmshare_version>
53161

> <i_f3d_flags>
0

> <r_lp_tautomer_probability>
0.99999997749453

> <s_lp_Force_Field>
OPLS_2005

> <r_lp_Energy>
-8.328017

> <b_lp_Chiralities_Consistent>
1

> <s_lp_Variant>
CHEMBL2695_lig368-1

> <s_i_glide_gridfile>
glide-grid_3bz3

> <i_i_glide_lignum>
415

> <i_i_glide_rotatable_bonds>
7

> <r_i_docking_score>
-7.90201500154278

> <r_i_glide_ligand_efficiency>
-0.292667222279362

> <r_i_glide_ligand_efficiency_sa>
-0.878001665873503

> <r_i_glide_ligand_efficiency_ln>
-1.83945881746032

> <r_i_glide_gscore>
-7.90201500154278

> <r_i_glide_lipo>
-1.80365564076329

> <r_i_glide_hbond>
-0.514560551389106

> <r_i_glide_metal>
0

> <r_i_glide_rewards>
-2.89278209146984

> <r_i_glide_evdw>
-43.7459716796875

> <r_i_glide_ecoul>
-7.72271108627319

> <r_i_glide_erotb>
0.65468852900481

> <r_i_glide_esite>
0

> <r_i_glide_emodel>
-70.269471598574

> <r_i_glide_energy>
-51.4686827659607

> <r_i_glide_einternal>
9.00484466552734

> <i_i_glide_confnum>
24

> <i_i_glide_posenum>
154

> <r_i_glide_eff_state_penalty>
0

> <s_user_duplicate_titles>
CHEMBL2695_lig368

> <s_m_subgroup_title>
dock_pv

> <s_m_subgroupid>
dock_pv

> <b_m_subgroup_collapsed>
1

$$$$
CHEMBL2695_lig1618
                    3D
 Schrodinger Suite 2021-1.
 43 45  0  0  1  0            999 V2000
    8.8120    2.7202    5.8612 O   0  0  0  0  0  0
    9.6683    4.5849    6.8643 N   0  0  0  0  0  0
   13.9117    6.0752    8.1127 N   0  0  0  0  0  0
   13.9198    4.1964    6.5905 N   0  0  0  0  0  0
    1.9637    4.3631    6.3102 N   0  0  0  0  0  0
   11.8980    5.3133    7.4296 C   0  0  0  0  0  0
   11.0592    4.4420    6.7043 C   0  0  0  0  0  0
   13.3056    5.1338    7.3130 C   0  0  0  0  0  0
   11.7023    6.3848    8.3626 C   0  0  0  0  0  0
    8.6618    3.7695    6.4865 C   0  0  0  0  0  0
   11.6893    3.4619    5.9150 C   0  0  0  0  0  0
    7.2416    4.2175    6.9139 C   0  0  2  0  0  0
   12.9533    6.8341    8.7355 C   0  0  0  0  0  0
   13.0837    3.3706    5.9091 C   0  0  0  0  0  0
    6.6213    3.1209    7.8181 C   0  0  0  0  0  0
    6.3627    4.3791    5.6464 C   0  0  0  0  0  0
    4.2658    3.8258    7.0456 C   0  0  2  0  0  0
    5.2091    3.5724    8.2565 C   0  0  0  0  0  0
    4.9446    4.8272    6.0680 C   0  0  0  0  0  0
    2.8405    4.2909    7.4684 C   0  0  2  0  0  0
    2.1428    3.3795    8.4955 C   0  0  0  0  0  0
    9.4010    5.3929    7.4048 H   0  0  0  0  0  0
   14.9145    6.2180    8.2415 H   0  0  0  0  0  0
    1.0616    4.7289    6.5753 H   0  0  0  0  0  0
    2.3322    4.9973    5.6061 H   0  0  0  0  0  0
   10.7655    6.7637    8.7323 H   0  0  0  0  0  0
   11.1216    2.7514    5.3350 H   0  0  0  0  0  0
    7.3295    5.1584    7.4601 H   0  0  0  0  0  0
   13.2484    7.6118    9.4241 H   0  0  0  0  0  0
   13.5664    2.5981    5.3276 H   0  0  0  0  0  0
    7.1990    2.9881    8.7359 H   0  0  0  0  0  0
    6.4964    2.1728    7.2890 H   0  0  0  0  0  0
    6.2449    3.4361    5.1070 H   0  0  0  0  0  0
    6.7477    5.1625    4.9905 H   0  0  0  0  0  0
    4.1825    2.8724    6.5198 H   0  0  0  0  0  0
    5.2779    4.4778    8.8620 H   0  0  0  0  0  0
    4.7853    2.8226    8.9235 H   0  0  0  0  0  0
    4.3244    4.9663    5.1824 H   0  0  0  0  0  0
    4.9915    5.8106    6.5382 H   0  0  0  0  0  0
    2.9149    5.2911    7.8971 H   0  0  0  0  0  0
    2.6712    3.3723    9.4471 H   0  0  0  0  0  0
    2.0848    2.3504    8.1396 H   0  0  0  0  0  0
    1.1260    3.7147    8.7066 H   0  0  0  0  0  0
  1 10  2  0  0  0
  2  7  1  0  0  0
  2 10  1  0  0  0
  2 22  1  0  0  0
  3  8  1  0  0  0
  3 13  1  0  0  0
  3 23  1  0  0  0
  4  8  1  0  0  0
  4 14  2  0  0  0
  5 20  1  0  0  0
  5 24  1  0  0  0
  5 25  1  0  0  0
  6  7  1  0  0  0
  6  8  2  0  0  0
  6  9  1  0  0  0
  7 11  2  0  0  0
  9 13  2  0  0  0
  9 26  1  0  0  0
 10 12  1  0  0  0
 11 14  1  0  0  0
 11 27  1  0  0  0
 12 15  1  0  0  0
 12 16  1  0  0  0
 12 28  1  0  0  0
 13 29  1  0  0  0
 14 30  1  0  0  0
 15 18  1  0  0  0
 15 31  1  0  0  0
 15 32  1  0  0  0
 16 19  1  0  0  0
 16 33  1  0  0  0
 16 34  1  0  0  0
 17 18  1  0  0  0
 17 19  1  0  0  0
 17 20  1  0  0  0
 17 35  1  0  0  0
 18 36  1  0  0  0
 18 37  1  0  0  0
 19 38  1  0  0  0
 19 39  1  0  0  0
 20 21  1  0  0  0
 20 40  1  0  0  0
 21 41  1  0  0  0
 21 42  1  0  0  0
 21 43  1  0  0  0
M  END
> <s_m_entry_id>
47588

> <s_m_entry_name>
dock_pv.121

> <s_m_Source_Path>
/home/csk/Desktop/cluster/DUD-E-result/fak1

> <s_m_Source_File>
dock_pv.maegz

> <i_m_Source_File_Index>
121

> <chembl_id>
CHEMBL2002992

> <chembl_pref_name>
None

> <i_lp_mmshare_version>
53161

> <i_f3d_flags>
0

> <r_lp_tautomer_probability>
0.999998432528457

> <s_lp_Force_Field>
OPLS_2005

> <r_lp_Energy>
23.195125

> <b_lp_Chiralities_Consistent>
1

> <s_lp_Variant>
CHEMBL2695_lig1618-1

> <s_i_glide_gridfile>
glide-grid_3bz3

> <i_i_glide_lignum>
1795

> <i_i_glide_rotatable_bonds>
4

> <r_i_docking_score>
-7.88189038411026

> <r_i_glide_ligand_efficiency>
-0.37532811352906

> <r_i_glide_ligand_efficiency_sa>
-1.03550180543997

> <r_i_glide_ligand_efficiency_ln>
-1.94878147061209

> <r_i_glide_gscore>
-7.88189038411026

> <r_i_glide_lipo>
-2.64886228382606

> <r_i_glide_hbond>
-0.608

> <r_i_glide_metal>
0

> <r_i_glide_rewards>
-2.79641927071968

> <r_i_glide_evdw>
-29.2501411437988

> <r_i_glide_ecoul>
-6.86920928955078

> <r_i_glide_erotb>
0.664279621058043

> <r_i_glide_esite>
0

> <r_i_glide_emodel>
-52.9145844587191

> <r_i_glide_energy>
-36.1193504333496

> <r_i_glide_einternal>
0.58635401725769

> <i_i_glide_confnum>
1

> <i_i_glide_posenum>
224

> <r_i_glide_eff_state_penalty>
0

> <s_user_duplicate_titles>
CHEMBL2695_lig1618

> <s_m_subgroup_title>
dock_pv

> <s_m_subgroupid>
dock_pv

> <b_m_subgroup_collapsed>
1

$$$$
CHEMBL2695_lig1900
                    3D
 Schrodinger Suite 2021-1.
 46 48  0  0  1  0            999 V2000
    2.5733    3.5219    6.7812 S   0  0  0  0  0  0
    1.2212    3.6645    6.2312 O   0  0  0  0  0  0
    2.9722    2.2904    7.4697 O   0  0  0  0  0  0
   11.0074    5.8534    8.2897 O   0  0  0  0  0  0
   13.4169    2.4443    5.8051 N   0  0  0  0  0  0
   13.8480    3.6149    6.3091 N   0  0  0  0  0  0
   12.9575    5.6140    7.1089 N   0  0  0  0  0  0
    3.6813    3.7964    5.4218 N   0  0  0  0  0  0
   11.5869    3.6914    6.1089 C   0  0  0  0  0  0
   12.0448    2.4278    5.6421 C   0  0  0  0  0  0
   12.7947    4.3629    6.5358 C   0  0  0  0  0  0
    9.3206    3.0025    5.5651 C   0  0  0  0  0  0
   10.2079    3.9713    6.0480 C   0  0  0  0  0  0
    7.8497    3.2448    5.5652 C   0  0  0  0  0  0
   11.1805    1.4619    5.1180 C   0  0  0  0  0  0
    9.8232    1.7816    5.1011 C   0  0  0  0  0  0
    5.0675    3.6269    5.5263 C   0  0  0  0  0  0
    6.9825    2.2399    6.0015 C   0  0  0  0  0  0
    7.3039    4.4575    5.1274 C   0  0  0  0  0  0
    5.6064    2.4207    5.9703 C   0  0  0  0  0  0
    5.9207    4.6503    5.1098 C   0  0  0  0  0  0
   12.0700    6.2922    7.8607 C   0  0  0  0  0  0
    2.9454    4.9949    7.9084 C   0  0  0  0  0  0
   12.4745    7.7125    8.2194 C   0  0  0  0  0  0
    2.8452    6.3552    7.1838 C   0  0  0  0  0  0
    1.4242    6.7584    6.7630 C   0  0  0  0  0  0
   14.0779    1.7162    5.5661 H   0  0  0  0  0  0
   13.8775    6.0182    7.0197 H   0  0  0  0  0  0
    3.3633    4.5461    4.8215 H   0  0  0  0  0  0
    9.8218    4.9175    6.3911 H   0  0  0  0  0  0
   11.5289    0.5108    4.7489 H   0  0  0  0  0  0
    9.1344    1.0481    4.7022 H   0  0  0  0  0  0
    7.3672    1.2879    6.3386 H   0  0  0  0  0  0
    7.9551    5.2443    4.7773 H   0  0  0  0  0  0
    4.9715    1.5964    6.2594 H   0  0  0  0  0  0
    5.5165    5.5847    4.7490 H   0  0  0  0  0  0
    2.2606    4.9332    8.7525 H   0  0  0  0  0  0
    3.9546    4.8391    8.2903 H   0  0  0  0  0  0
   13.3292    7.7066    8.8943 H   0  0  0  0  0  0
   11.6515    8.2321    8.7049 H   0  0  0  0  0  0
   12.7220    8.2720    7.3181 H   0  0  0  0  0  0
    3.2267    7.1258    7.8558 H   0  0  0  0  0  0
    3.5039    6.3614    6.3155 H   0  0  0  0  0  0
    1.4008    7.7886    6.4126 H   0  0  0  0  0  0
    1.0503    6.1428    5.9460 H   0  0  0  0  0  0
    0.7240    6.6816    7.5949 H   0  0  0  0  0  0
  1  2  2  0  0  0
  1  3  2  0  0  0
  1  8  1  0  0  0
  1 23  1  0  0  0
  4 22  2  0  0  0
  5  6  1  0  0  0
  5 10  1  0  0  0
  5 27  1  0  0  0
  6 11  2  0  0  0
  7 11  1  0  0  0
  7 22  1  0  0  0
  7 28  1  0  0  0
  8 17  1  0  0  0
  8 29  1  0  0  0
  9 10  1  0  0  0
  9 11  1  0  0  0
  9 13  2  0  0  0
 10 15  2  0  0  0
 12 13  1  0  0  0
 12 14  1  0  0  0
 12 16  2  0  0  0
 13 30  1  0  0  0
 14 18  2  0  0  0
 14 19  1  0  0  0
 15 16  1  0  0  0
 15 31  1  0  0  0
 16 32  1  0  0  0
 17 20  2  0  0  0
 17 21  1  0  0  0
 18 20  1  0  0  0
 18 33  1  0  0  0
 19 21  2  0  0  0
 19 34  1  0  0  0
 20 35  1  0  0  0
 21 36  1  0  0  0
 22 24  1  0  0  0
 23 25  1  0  0  0
 23 37  1  0  0  0
 23 38  1  0  0  0
 24 39  1  0  0  0
 24 40  1  0  0  0
 24 41  1  0  0  0
 25 26  1  0  0  0
 25 42  1  0  0  0
 25 43  1  0  0  0
 26 44  1  0  0  0
 26 45  1  0  0  0
 26 46  1  0  0  0
M  END
> <s_m_entry_id>
47589

> <s_m_entry_name>
dock_pv.122

> <s_m_Source_Path>
/home/csk/Desktop/cluster/DUD-E-result/fak1

> <s_m_Source_File>
dock_pv.maegz

> <i_m_Source_File_Index>
122

> <chembl_id>
CHEMBL1973893

> <chembl_pref_name>
None

> <i_lp_mmshare_version>
53161

> <i_f3d_flags>
0

> <r_lp_tautomer_probability>
0.980392156862745

> <s_lp_Force_Field>
OPLS_2005

> <r_lp_Energy>
7.98917

> <b_lp_Chiralities_Consistent>
1

> <s_lp_Variant>
CHEMBL2695_lig1900-1

> <s_i_glide_gridfile>
glide-grid_3bz3

> <i_i_glide_lignum>
2210

> <i_i_glide_rotatable_bonds>
7

> <r_i_docking_score>
-7.87604218482374

> <r_i_glide_ligand_efficiency>
-0.302924699416298

> <r_i_glide_ligand_efficiency_sa>
-0.897413230069646

> <r_i_glide_ligand_efficiency_ln>
-1.84966266370356

> <r_i_glide_gscore>
-7.87604218482374

> <r_i_glide_lipo>
-3.07084371614812

> <r_i_glide_hbond>
-0.460875166311562

> <r_i_glide_metal>
0

> <r_i_glide_rewards>
-2.06751226033701

> <r_i_glide_evdw>
-42.8184089660645

> <r_i_glide_ecoul>
-5.45284414291382

> <r_i_glide_erotb>
0.696190519797941

> <r_i_glide_esite>
-0.0141544920846838

> <r_i_glide_emodel>
-67.4117106156842

> <r_i_glide_energy>
-48.2712531089783

> <r_i_glide_einternal>
6.64987802505493

> <i_i_glide_confnum>
22

> <i_i_glide_posenum>
306

> <r_i_glide_eff_state_penalty>
0

> <s_user_duplicate_titles>
CHEMBL2695_lig1900

> <s_m_subgroup_title>
dock_pv

> <s_m_subgroupid>
dock_pv

> <b_m_subgroup_collapsed>
1

$$$$
CHEMBL2695_lig1859
                    3D
 Schrodinger Suite 2021-1.
 36 38  0  0  1  0            999 V2000
    5.2665    2.3441    7.1444 O   0  0  0  0  0  0
   13.9134    3.9628    6.6257 N   0  0  0  0  0  0
   13.9221    5.1631    7.2251 N   0  0  0  0  0  0
    6.3728    4.8815    4.7752 N   0  0  0  0  0  0
    5.5221    3.5630    9.9087 N   0  0  0  0  0  0
   11.8086    4.9392    6.6599 C   0  0  0  0  0  0
   12.5925    3.7979    6.3090 C   0  0  0  0  0  0
    9.8259    3.8116    5.8626 C   0  0  0  0  0  0
   10.4356    4.9491    6.3983 C   0  0  0  0  0  0
   12.7245    5.8324    7.2704 C   0  0  0  0  0  0
    8.3556    3.8138    5.6832 C   0  0  0  0  0  0
   11.9729    2.6538    5.7839 C   0  0  0  0  0  0
   10.5926    2.6800    5.5701 C   0  0  0  0  0  0
    7.5421    2.9303    6.3979 C   0  0  0  0  0  0
    6.1451    3.0721    6.3690 C   0  0  0  0  0  0
    7.7203    4.7628    4.8779 C   0  0  0  0  0  0
    5.6113    4.0437    5.5204 C   0  0  0  0  0  0
   12.5750    7.2093    7.8748 C   0  0  0  0  0  0
    5.7424    1.6609    8.3090 C   0  0  0  0  0  0
    6.4317    2.5709    9.3622 C   0  0  0  0  0  0
   14.7882    5.5618    7.5741 H   0  0  0  0  0  0
    4.8418    3.1191   10.5185 H   0  0  0  0  0  0
    6.0194    4.2151   10.4973 H   0  0  0  0  0  0
    9.8456    5.8134    6.6614 H   0  0  0  0  0  0
   12.5474    1.7697    5.5500 H   0  0  0  0  0  0
   10.1070    1.8010    5.1697 H   0  0  0  0  0  0
    8.0054    2.1829    7.0229 H   0  0  0  0  0  0
    8.3040    5.4680    4.3090 H   0  0  0  0  0  0
    4.5423    4.1848    5.4584 H   0  0  0  0  0  0
   11.7926    7.2275    8.6335 H   0  0  0  0  0  0
   13.4912    7.5588    8.3521 H   0  0  0  0  0  0
   12.3059    7.9473    7.1189 H   0  0  0  0  0  0
    6.4136    0.8554    8.0071 H   0  0  0  0  0  0
    4.8792    1.1682    8.7568 H   0  0  0  0  0  0
    7.2876    3.0958    8.9426 H   0  0  0  0  0  0
    6.8211    1.9635   10.1782 H   0  0  0  0  0  0
  1 15  1  0  0  0
  1 19  1  0  0  0
  2  3  1  0  0  0
  2  7  2  0  0  0
  3 21  1  0  0  0
  3 10  1  0  0  0
  4 16  1  0  0  0
  4 17  2  0  0  0
  5 20  1  0  0  0
  5 22  1  0  0  0
  5 23  1  0  0  0
  6  9  1  0  0  0
  6  7  1  0  0  0
  6 10  2  0  0  0
  7 12  1  0  0  0
  8 13  1  0  0  0
  8 11  1  0  0  0
  8  9  2  0  0  0
  9 24  1  0  0  0
 10 18  1  0  0  0
 11 14  1  0  0  0
 11 16  2  0  0  0
 12 25  1  0  0  0
 12 13  2  0  0  0
 13 26  1  0  0  0
 14 15  2  0  0  0
 14 27  1  0  0  0
 15 17  1  0  0  0
 16 28  1  0  0  0
 17 29  1  0  0  0
 18 30  1  0  0  0
 18 31  1  0  0  0
 18 32  1  0  0  0
 19 20  1  0  0  0
 19 33  1  0  0  0
 19 34  1  0  0  0
 20 35  1  0  0  0
 20 36  1  0  0  0
M  END
> <s_m_entry_id>
47590

> <s_m_entry_name>
dock_pv.123

> <s_m_Source_Path>
/home/csk/Desktop/cluster/DUD-E-result/fak1

> <s_m_Source_File>
dock_pv.maegz

> <i_m_Source_File_Index>
123

> <chembl_id>
CHEMBL1967887

> <chembl_pref_name>
None

> <i_lp_mmshare_version>
53161

> <i_f3d_flags>
0

> <r_lp_tautomer_probability>
0.0196078431372549

> <s_lp_Force_Field>
OPLS_2005

> <r_lp_Energy>
34.252731

> <b_lp_Chiralities_Consistent>
1

> <s_lp_Variant>
CHEMBL2695_lig1859-2

> <s_i_glide_gridfile>
glide-grid_3bz3

> <i_i_glide_lignum>
2147

> <i_i_glide_rotatable_bonds>
4

> <r_i_docking_score>
-7.85109156251947

> <r_i_glide_ligand_efficiency>
-0.392554578125973

> <r_i_glide_ligand_efficiency_sa>
-1.06555706127608

> <r_i_glide_ligand_efficiency_ln>
-1.96486927176839

> <r_i_glide_gscore>
-7.85109156251947

> <r_i_glide_lipo>
-2.88590660947937

> <r_i_glide_hbond>
-0.647261415078162

> <r_i_glide_metal>
0

> <r_i_glide_rewards>
-2.4092965860445

> <r_i_glide_evdw>
-30.8747119903564

> <r_i_glide_ecoul>
-5.90343856811523

> <r_i_glide_erotb>
0.520624432817676

> <r_i_glide_esite>
0

> <r_i_glide_emodel>
-51.857824219099

> <r_i_glide_energy>
-36.7781505584717

> <r_i_glide_einternal>
3.9895350933075

> <i_i_glide_confnum>
9

> <i_i_glide_posenum>
215

> <r_i_glide_eff_state_penalty>
0

> <s_user_duplicate_titles>
CHEMBL2695_lig1859

> <s_m_subgroup_title>
dock_pv

> <s_m_subgroupid>
dock_pv

> <b_m_subgroup_collapsed>
1

$$$$
CHEMBL2695_lig91
                    3D
 Schrodinger Suite 2021-1.
 38 41  0  0  1  0            999 V2000
   14.3220    3.7004    6.5600 N   0  0  0  0  0  0
   13.3691    3.0093    5.8843 C   0  0  0  0  0  0
   12.0356    3.2574    5.9090 N   0  0  0  0  0  0
   13.9220    4.7630    7.3046 C   0  0  0  0  0  0
   12.5654    5.0847    7.4490 C   0  0  0  0  0  0
   11.6642    4.2634    6.7090 C   0  0  0  0  0  0
   10.3685    4.5905    7.0846 N   0  0  0  0  0  0
   10.4733    5.5630    8.0552 C   0  0  0  0  0  0
   11.7799    5.9814    8.2295 C   0  0  0  0  0  0
    9.1723    3.9599    6.6824 C   0  0  0  0  0  0
    8.1995    3.6056    7.6282 C   0  0  0  0  0  0
    7.0650    2.9180    7.1931 C   0  0  0  0  0  0
    6.9295    2.6039    5.8399 C   0  0  0  0  0  0
    7.9370    3.0012    4.9599 C   0  0  0  0  0  0
    9.0441    3.6756    5.3580 N   0  0  0  0  0  0
   13.8582    2.0001    5.0418 N   0  0  0  0  0  0
   13.2653    1.1630    4.0800 C   0  0  0  0  0  0
   14.1140    0.5864    3.1317 C   0  0  0  0  0  0
   13.6114   -0.2878    2.1733 C   0  0  0  0  0  0
   12.2479   -0.6002    2.1542 C   0  0  0  0  0  0
   11.3961   -0.0370    3.1090 C   0  0  0  0  0  0
   11.8989    0.8419    4.0609 C   0  0  0  0  0  0
   11.6712   -1.5514    1.1090 C   0  0  0  0  0  0
   12.6121   -2.0611    0.3096 F   0  0  0  0  0  0
   10.7966   -0.8944    0.3467 F   0  0  0  0  0  0
   11.0464   -2.5622    1.7133 F   0  0  0  0  0  0
   14.6879    5.2799    7.8599 H   0  0  0  0  0  0
    9.5788    5.9111    8.5476 H   0  0  0  0  0  0
   12.1193    6.7431    8.9177 H   0  0  0  0  0  0
    8.3257    3.8263    8.6779 H   0  0  0  0  0  0
    6.3062    2.6139    7.8995 H   0  0  0  0  0  0
    6.0728    2.0489    5.4839 H   0  0  0  0  0  0
    7.8764    2.7630    3.9090 H   0  0  0  0  0  0
   14.8587    1.8792    5.1090 H   0  0  0  0  0  0
   15.1733    0.7992    3.1472 H   0  0  0  0  0  0
   14.2914   -0.7239    1.4566 H   0  0  0  0  0  0
   10.3400   -0.2707    3.1088 H   0  0  0  0  0  0
   11.2136    1.2429    4.7904 H   0  0  0  0  0  0
  1  2  2  0  0  0
  1  4  1  0  0  0
  2  3  1  0  0  0
  2 16  1  0  0  0
  3  6  2  0  0  0
  4  5  2  0  0  0
  4 27  1  0  0  0
  5  9  1  0  0  0
  5  6  1  0  0  0
  6  7  1  0  0  0
  7  8  1  0  0  0
  7 10  1  0  0  0
  8  9  2  0  0  0
  8 28  1  0  0  0
  9 29  1  0  0  0
 10 15  1  0  0  0
 10 11  2  0  0  0
 11 12  1  0  0  0
 11 30  1  0  0  0
 12 13  2  0  0  0
 12 31  1  0  0  0
 13 14  1  0  0  0
 13 32  1  0  0  0
 14 15  2  0  0  0
 14 33  1  0  0  0
 16 17  1  0  0  0
 16 34  1  0  0  0
 17 18  2  0  0  0
 17 22  1  0  0  0
 18 19  1  0  0  0
 18 35  1  0  0  0
 19 20  2  0  0  0
 19 36  1  0  0  0
 20 21  1  0  0  0
 20 23  1  0  0  0
 21 22  2  0  0  0
 21 37  1  0  0  0
 22 38  1  0  0  0
 23 24  1  0  0  0
 23 25  1  0  0  0
 23 26  1  0  0  0
M  END
> <s_m_entry_id>
47591

> <s_m_entry_name>
dock_pv.124

> <s_m_Source_Path>
/home/csk/Desktop/cluster/DUD-E-result/fak1

> <s_m_Source_File>
dock_pv.maegz

> <i_m_Source_File_Index>
124

> <chembl_id>
CHEMBL207312

> <chembl_pref_name>
None

> <i_lp_mmshare_version>
53161

> <i_f3d_flags>
0

> <r_lp_tautomer_probability>
1

> <s_lp_Force_Field>
OPLS_2005

> <r_lp_Energy>
12.175355

> <b_lp_Chiralities_Consistent>
1

> <s_lp_Variant>
CHEMBL2695_lig91-1

> <s_i_glide_gridfile>
glide-grid_3bz3

> <i_i_glide_lignum>
113

> <i_i_glide_rotatable_bonds>
4

> <r_i_docking_score>
-7.84547748504491

> <r_i_glide_ligand_efficiency>
-0.301749134040189

> <r_i_glide_ligand_efficiency_sa>
-0.893930622268551

> <r_i_glide_ligand_efficiency_ln>
-1.84248464425147

> <r_i_glide_gscore>
-7.84547748504491

> <r_i_glide_lipo>
-2.17403775589857

> <r_i_glide_hbond>
-0.501245326853747

> <r_i_glide_metal>
0

> <r_i_glide_rewards>
-3.09290886017685

> <r_i_glide_evdw>
-27.7630577087402

> <r_i_glide_ecoul>
-6.89138221740723

> <r_i_glide_erotb>
0.454316365255308

> <r_i_glide_esite>
-0.109741689322957

> <r_i_glide_emodel>
-50.9132402080287

> <r_i_glide_energy>
-34.6544399261475

> <r_i_glide_einternal>
1.78887224197388

> <i_i_glide_confnum>
6

> <i_i_glide_posenum>
29

> <r_i_glide_eff_state_penalty>
0

> <s_user_duplicate_titles>
CHEMBL2695_lig91

> <s_m_subgroup_title>
dock_pv

> <s_m_subgroupid>
dock_pv

> <b_m_subgroup_collapsed>
1

$$$$
CHEMBL2695_lig1086
                    3D
 Schrodinger Suite 2021-1.
 66 70  0  0  1  0            999 V2000
   15.2540   -0.0381    2.1594 C   0  0  0  0  0  0
   14.4784    0.8657    2.9268 O   0  0  0  0  0  0
   13.1389    0.5799    3.1091 C   0  0  0  0  0  0
   12.4281   -0.2773    2.2566 C   0  0  0  0  0  0
   11.0927   -0.6057    2.5017 C   0  0  0  0  0  0
   10.4301    0.0401    3.5497 C   0  0  0  0  0  0
   11.1175    0.9071    4.4028 C   0  0  0  0  0  0
   12.4826    1.1630    4.2102 C   0  0  0  0  0  0
   13.2561    1.9221    5.1090 N   0  0  0  0  0  0
   12.9668    3.0233    5.9090 C   0  0  0  0  0  0
   14.0517    3.6125    6.4560 N   0  0  0  0  0  0
   13.8406    4.7635    7.1342 C   0  0  0  0  0  0
   12.5696    5.3335    7.2810 C   0  0  0  0  0  0
   11.4971    4.6311    6.7092 C   0  0  0  0  0  0
   10.1992    5.0687    6.9123 O   0  0  0  0  0  0
    9.0989    4.2612    6.6932 C   0  0  0  0  0  0
    8.7763    3.7375    5.4333 C   0  0  0  0  0  0
    7.6505    2.9241    5.2772 C   0  0  0  0  0  0
    6.8152    2.6622    6.3669 C   0  0  0  0  0  0
    7.1128    3.2157    7.6140 C   0  0  0  0  0  0
    6.3893    3.1369    8.9272 C   0  0  0  0  0  0
    7.2473    3.9341    9.7974 N   0  0  0  0  0  0
    6.8677    4.3430   11.1462 C   0  0  0  0  0  0
    8.3390    4.4484    9.1955 C   0  0  0  0  0  0
    9.1953    5.1630    9.7135 O   0  0  0  0  0  0
    8.2482    3.9920    7.7726 C   0  0  0  0  0  0
   11.6951    3.4759    6.0124 N   0  0  0  0  0  0
   12.3623    6.6240    8.0630 C   0  0  0  0  0  0
   11.7097    7.5177    7.3189 F   0  0  0  0  0  0
   11.6546    6.3662    9.1584 F   0  0  0  0  0  0
   13.5202    7.1630    8.4426 F   0  0  0  0  0  0
   10.3626   -1.6016    1.6305 C   0  0  0  0  0  0
    9.1987   -1.3975    1.2994 O   0  0  0  0  0  0
   11.0009   -2.7067    1.1924 N   0  0  0  0  0  0
   12.1255   -3.4271    1.8119 C   0  0  0  0  0  0
   11.6445   -4.4656    2.8498 C   0  0  0  0  0  0
   10.9324   -5.6672    2.1992 C   0  0  0  0  0  0
   11.7756   -6.2635    1.2161 O   0  0  0  0  0  0
   12.1477   -5.3870    0.1571 C   0  0  0  0  0  0
   12.9319   -4.1947    0.7421 C   0  0  0  0  0  0
   16.3063    0.2361    2.2315 H   0  0  0  0  0  0
   15.1215   -1.0547    2.5320 H   0  0  0  0  0  0
   14.9713   -0.0370    1.1092 H   0  0  0  0  0  0
   12.9145   -0.7116    1.3977 H   0  0  0  0  0  0
    9.3781   -0.1419    3.7259 H   0  0  0  0  0  0
   10.5838    1.3375    5.2363 H   0  0  0  0  0  0
   14.2477    1.7469    5.0231 H   0  0  0  0  0  0
   14.7217    5.2120    7.5700 H   0  0  0  0  0  0
    9.4086    3.9425    4.5823 H   0  0  0  0  0  0
    7.4253    2.4961    4.3101 H   0  0  0  0  0  0
    5.9463    2.0343    6.2269 H   0  0  0  0  0  0
    5.3812    3.5518    8.8923 H   0  0  0  0  0  0
    6.3100    2.1152    9.3032 H   0  0  0  0  0  0
    6.2165    5.2092   11.0948 H   0  0  0  0  0  0
    6.3235    3.5628   11.6695 H   0  0  0  0  0  0
    7.7320    4.6158   11.7541 H   0  0  0  0  0  0
   10.4473   -3.2609    0.5580 H   0  0  0  0  0  0
   12.8113   -2.7461    2.3090 H   0  0  0  0  0  0
   10.9882   -3.9956    3.5828 H   0  0  0  0  0  0
   12.5002   -4.8302    3.4204 H   0  0  0  0  0  0
    9.9766   -5.3749    1.7603 H   0  0  0  0  0  0
   10.7225   -6.4181    2.9592 H   0  0  0  0  0  0
   11.2662   -5.0567   -0.3954 H   0  0  0  0  0  0
   12.7705   -5.9379   -0.5481 H   0  0  0  0  0  0
   13.8583   -4.5647    1.1846 H   0  0  0  0  0  0
   13.2387   -3.5190   -0.0560 H   0  0  0  0  0  0
  1  2  1  0  0  0
  1 41  1  0  0  0
  1 42  1  0  0  0
  1 43  1  0  0  0
  2  3  1  0  0  0
  3  4  2  0  0  0
  3  8  1  0  0  0
  4  5  1  0  0  0
  4 44  1  0  0  0
  5  6  2  0  0  0
  5 32  1  0  0  0
  6  7  1  0  0  0
  6 45  1  0  0  0
  7  8  2  0  0  0
  7 46  1  0  0  0
  8  9  1  0  0  0
  9 10  1  0  0  0
  9 47  1  0  0  0
 10 11  2  0  0  0
 10 27  1  0  0  0
 11 12  1  0  0  0
 12 13  2  0  0  0
 12 48  1  0  0  0
 13 14  1  0  0  0
 13 28  1  0  0  0
 14 15  1  0  0  0
 14 27  2  0  0  0
 15 16  1  0  0  0
 16 17  2  0  0  0
 16 26  1  0  0  0
 17 18  1  0  0  0
 17 49  1  0  0  0
 18 19  2  0  0  0
 18 50  1  0  0  0
 19 20  1  0  0  0
 19 51  1  0  0  0
 20 21  1  0  0  0
 20 26  2  0  0  0
 21 22  1  0  0  0
 21 52  1  0  0  0
 21 53  1  0  0  0
 22 23  1  0  0  0
 22 24  1  0  0  0
 23 54  1  0  0  0
 23 55  1  0  0  0
 23 56  1  0  0  0
 24 25  2  0  0  0
 24 26  1  0  0  0
 28 29  1  0  0  0
 28 30  1  0  0  0
 28 31  1  0  0  0
 32 33  2  0  0  0
 32 34  1  0  0  0
 34 35  1  0  0  0
 34 57  1  0  0  0
 35 36  1  0  0  0
 35 40  1  0  0  0
 35 58  1  0  0  0
 36 37  1  0  0  0
 36 59  1  0  0  0
 36 60  1  0  0  0
 37 38  1  0  0  0
 37 61  1  0  0  0
 37 62  1  0  0  0
 38 39  1  0  0  0
 39 40  1  0  0  0
 39 63  1  0  0  0
 39 64  1  0  0  0
 40 65  1  0  0  0
 40 66  1  0  0  0
M  END
> <s_m_entry_id>
47592

> <s_m_entry_name>
dock_pv.125

> <s_m_Source_Path>
/home/csk/Desktop/cluster/DUD-E-result/fak1

> <s_m_Source_File>
dock_pv.maegz

> <i_m_Source_File_Index>
125

> <chembl_id>
CHEMBL3657384

> <chembl_pref_name>
None

> <i_lp_mmshare_version>
53161

> <i_f3d_flags>
0

> <r_lp_tautomer_probability>
0.999999917912647

> <s_lp_Force_Field>
OPLS_2005

> <r_lp_Energy>
43.051351

> <b_lp_Chiralities_Consistent>
1

> <s_lp_Variant>
CHEMBL2695_lig1086-1

> <s_i_glide_gridfile>
glide-grid_3bz3

> <i_i_glide_lignum>
1176

> <i_i_glide_rotatable_bonds>
9

> <r_i_docking_score>
-7.84399703935014

> <r_i_glide_ligand_efficiency>
-0.196099925983754

> <r_i_glide_ligand_efficiency_sa>
-0.670652312329947

> <r_i_glide_ligand_efficiency_ln>
-1.67289372996526

> <r_i_glide_gscore>
-7.84399703935014

> <r_i_glide_lipo>
-3.15108519014836

> <r_i_glide_hbond>
-0.490399697270139

> <r_i_glide_metal>
0

> <r_i_glide_rewards>
-0.581079185419669

> <r_i_glide_evdw>
-55.1842613220215

> <r_i_glide_ecoul>
-8.14752197265625

> <r_i_glide_erotb>
0.390948694738419

> <r_i_glide_esite>
-0.0310402992508858

> <r_i_glide_emodel>
-80.3602911982221

> <r_i_glide_energy>
-63.3317832946777

> <r_i_glide_einternal>
8.93201541900635

> <i_i_glide_confnum>
16

> <i_i_glide_posenum>
139

> <r_i_glide_eff_state_penalty>
0

> <s_user_duplicate_titles>
CHEMBL2695_lig1086

> <s_m_subgroup_title>
dock_pv

> <s_m_subgroupid>
dock_pv

> <b_m_subgroup_collapsed>
1

$$$$
CHEMBL2695_lig86
                    3D
 Schrodinger Suite 2021-1.
 40 43  0  0  1  0            999 V2000
    9.5393    1.1646    4.7931 N   0  0  0  0  0  0
    9.1596    2.2807    5.4525 C   0  0  0  0  0  0
    9.9808    3.2385    5.9757 N   0  0  0  0  0  0
   10.8607    0.9039    4.7078 C   0  0  0  0  0  0
   11.8028    1.7784    5.2554 C   0  0  0  0  0  0
   11.2918    2.9662    5.8646 C   0  0  0  0  0  0
   12.3843    3.7287    6.2954 N   0  0  0  0  0  0
   13.5222    3.0137    5.9547 C   0  0  0  0  0  0
   13.2196    1.8196    5.3496 C   0  0  0  0  0  0
   12.4156    5.0014    6.9234 C   0  0  0  0  0  0
   11.4139    5.9559    6.7126 C   0  0  0  0  0  0
   11.5219    7.1897    7.3590 C   0  0  0  0  0  0
   12.5749    7.4240    8.2402 C   0  0  0  0  0  0
   13.5215    6.4179    8.4217 C   0  0  0  0  0  0
   13.4682    5.2338    7.7613 N   0  0  0  0  0  0
    7.7755    2.3679    5.6180 N   0  0  0  0  0  0
    6.9882    2.9601    6.6191 C   0  0  0  0  0  0
    5.5958    3.0672    6.4485 C   0  0  0  0  0  0
    4.8080    3.5680    7.4885 C   0  0  0  0  0  0
    5.3898    3.9628    8.6906 C   0  0  0  0  0  0
    6.7778    3.8949    8.8646 C   0  0  0  0  0  0
    7.5567    3.3774    7.8273 C   0  0  0  0  0  0
    4.9139    2.6382    5.1525 C   0  0  0  0  0  0
    7.4191    4.3641   10.1100 N   0  3  0  0  0  0
    8.6189    4.6338   10.0863 O   0  0  0  0  0  0
    6.7216    4.4852   11.1090 O   0  5  0  0  0  0
   11.1507   -0.0029    4.1971 H   0  0  0  0  0  0
   14.4906    3.4294    6.1868 H   0  0  0  0  0  0
   13.9337    1.0942    4.9927 H   0  0  0  0  0  0
   10.5848    5.7611    6.0511 H   0  0  0  0  0  0
   10.7753    7.9522    7.1918 H   0  0  0  0  0  0
   12.6567    8.3622    8.7683 H   0  0  0  0  0  0
   14.3498    6.5548    9.1016 H   0  0  0  0  0  0
    7.3035    1.6111    5.1405 H   0  0  0  0  0  0
    3.7367    3.6524    7.3690 H   0  0  0  0  0  0
    4.7589    4.3555    9.4762 H   0  0  0  0  0  0
    8.6171    3.2787    7.9894 H   0  0  0  0  0  0
    5.3110    3.2077    4.3098 H   0  0  0  0  0  0
    5.1078    1.5825    4.9557 H   0  0  0  0  0  0
    3.8326    2.7843    5.1826 H   0  0  0  0  0  0
  1  2  2  0  0  0
  1  4  1  0  0  0
  2  3  1  0  0  0
  2 16  1  0  0  0
  3  6  2  0  0  0
  4  5  2  0  0  0
  4 27  1  0  0  0
  5  9  1  0  0  0
  5  6  1  0  0  0
  6  7  1  0  0  0
  7  8  1  0  0  0
  7 10  1  0  0  0
  8  9  2  0  0  0
  8 28  1  0  0  0
  9 29  1  0  0  0
 10 15  1  0  0  0
 10 11  2  0  0  0
 11 12  1  0  0  0
 11 30  1  0  0  0
 12 13  2  0  0  0
 12 31  1  0  0  0
 13 14  1  0  0  0
 13 32  1  0  0  0
 14 15  2  0  0  0
 14 33  1  0  0  0
 16 17  1  0  0  0
 16 34  1  0  0  0
 17 18  2  0  0  0
 17 22  1  0  0  0
 18 19  1  0  0  0
 18 23  1  0  0  0
 19 20  2  0  0  0
 19 35  1  0  0  0
 20 21  1  0  0  0
 20 36  1  0  0  0
 21 22  2  0  0  0
 21 24  1  0  0  0
 22 37  1  0  0  0
 23 38  1  0  0  0
 23 39  1  0  0  0
 23 40  1  0  0  0
 24 25  2  0  0  0
 24 26  1  0  0  0
M  CHG  2  24   1  26  -1
M  END
> <s_m_entry_id>
47593

> <s_m_entry_name>
dock_pv.126

> <s_m_Source_Path>
/home/csk/Desktop/cluster/DUD-E-result/fak1

> <s_m_Source_File>
dock_pv.maegz

> <i_m_Source_File_Index>
126

> <chembl_id>
CHEMBL205943

> <chembl_pref_name>
None

> <i_lp_mmshare_version>
53161

> <i_f3d_flags>
0

> <r_lp_tautomer_probability>
1

> <s_lp_Force_Field>
OPLS_2005

> <r_lp_Energy>
12.582401

> <b_lp_Chiralities_Consistent>
1

> <s_lp_Variant>
CHEMBL2695_lig86-1

> <s_i_glide_gridfile>
glide-grid_3bz3

> <i_i_glide_lignum>
108

> <i_i_glide_rotatable_bonds>
4

> <r_i_docking_score>
-7.84069564840384

> <r_i_glide_ligand_efficiency>
-0.301565217246301

> <r_i_glide_ligand_efficiency_sa>
-0.893385769490337

> <r_i_glide_ligand_efficiency_ln>
-1.8413616456068

> <r_i_glide_gscore>
-7.84069564840384

> <r_i_glide_lipo>
-3.00511185751396

> <r_i_glide_hbond>
0

> <r_i_glide_metal>
0

> <r_i_glide_rewards>
-2.84547273190184

> <r_i_glide_evdw>
-45.7335815429688

> <r_i_glide_ecoul>
-0.907422482967377

> <r_i_glide_erotb>
0.475458625986255

> <r_i_glide_esite>
-0.0427772353807497

> <r_i_glide_emodel>
-63.5720965692544

> <r_i_glide_energy>
-46.6410040259361

> <r_i_glide_einternal>
8.26152038574219

> <i_i_glide_confnum>
17

> <i_i_glide_posenum>
377

> <r_i_glide_eff_state_penalty>
0

> <s_user_duplicate_titles>
CHEMBL2695_lig86

> <s_m_subgroup_title>
dock_pv

> <s_m_subgroupid>
dock_pv

> <b_m_subgroup_collapsed>
1

$$$$
CHEMBL2695_lig921
                    3D
 Schrodinger Suite 2021-1.
 70 73  0  0  1  0            999 V2000
   15.2676   -0.0975    2.1473 C   0  0  0  0  0  0
   14.5283    0.7832    2.9710 O   0  0  0  0  0  0
   13.1729    0.5617    3.1095 C   0  0  0  0  0  0
   12.4399   -0.2513    2.2262 C   0  0  0  0  0  0
   11.0700   -0.4869    2.3959 C   0  0  0  0  0  0
   10.4404    0.0834    3.5090 C   0  0  0  0  0  0
   11.1586    0.8837    4.3925 C   0  0  0  0  0  0
   12.5200    1.1630    4.2055 C   0  0  0  0  0  0
   13.2633    1.9622    5.1090 N   0  0  0  0  0  0
   12.8840    3.0591    5.8969 C   0  0  0  0  0  0
   13.8871    3.7687    6.4701 N   0  0  0  0  0  0
   13.5220    4.9110    7.1091 C   0  0  0  0  0  0
   12.1919    5.3506    7.1906 C   0  0  0  0  0  0
   11.2204    4.5423    6.5777 C   0  0  0  0  0  0
    9.8694    4.8651    6.6396 O   0  0  0  0  0  0
    8.8738    4.0345    6.0014 C   0  0  1  0  0  0
    8.6234    2.6917    6.7086 C   0  0  0  0  0  0
    7.5351    1.9073    5.9504 C   0  0  0  0  0  0
    6.2504    2.7259    5.6957 C   0  0  0  0  0  0
    6.5456    4.0441    5.1172 N   0  0  1  0  0  0
    5.3237    4.8259    4.9520 C   0  0  0  0  0  0
    7.5199    4.7630    5.9459 C   0  0  0  0  0  0
   11.5774    3.4140    5.9137 N   0  0  0  0  0  0
   11.8297    6.6415    7.9130 C   0  0  0  0  0  0
   11.1270    7.4325    7.1036 F   0  0  0  0  0  0
   11.1080    6.3576    8.9959 F   0  0  0  0  0  0
   12.9114    7.3149    8.3071 F   0  0  0  0  0  0
   10.3208   -1.3152    1.3694 C   0  0  0  0  0  0
   10.9037   -1.7418    0.3675 O   0  0  0  0  0  0
    9.0175   -1.5633    1.6026 N   0  0  0  0  0  0
    8.1373   -2.3119    0.6968 C   0  0  0  0  0  0
    6.9148   -2.8876    1.4367 C   0  0  0  0  0  0
    5.9380   -1.7967    1.9279 C   0  0  0  0  0  0
    5.4970   -0.9232    0.8318 N   0  0  1  0  0  0
    4.6212    0.1261    1.3446 C   0  0  0  0  0  0
    6.6080   -0.3405    0.0690 C   0  0  0  0  0  0
    7.5732   -1.4332   -0.4380 C   0  0  0  0  0  0
   16.3257    0.1523    2.2064 H   0  0  0  0  0  0
   15.1220   -1.1287    2.4708 H   0  0  0  0  0  0
   14.9647   -0.0372    1.1077 H   0  0  0  0  0  0
   12.9297   -0.6983    1.3757 H   0  0  0  0  0  0
    9.3850   -0.0580    3.6956 H   0  0  0  0  0  0
   10.6341    1.2653    5.2419 H   0  0  0  0  0  0
   14.2625    1.8283    5.0405 H   0  0  0  0  0  0
   14.3231    5.4781    7.5616 H   0  0  0  0  0  0
    9.1956    3.8629    4.9706 H   0  0  0  0  0  0
    9.5175    2.0850    6.7090 H   0  0  0  0  0  0
    8.2962    2.8523    7.7371 H   0  0  0  0  0  0
    7.9097    1.5159    5.0033 H   0  0  0  0  0  0
    7.2679    1.0288    6.5362 H   0  0  0  0  0  0
    5.5960    2.1807    5.0133 H   0  0  0  0  0  0
    5.6912    2.8428    6.6270 H   0  0  0  0  0  0
    5.5372    5.7839    4.4763 H   0  0  0  0  0  0
    4.6111    4.2990    4.3155 H   0  0  0  0  0  0
    4.8374    5.0258    5.9079 H   0  0  0  0  0  0
    7.1182    4.9504    6.9432 H   0  0  0  0  0  0
    7.6977    5.7346    5.5068 H   0  0  0  0  0  0
    8.5541   -1.0323    2.3242 H   0  0  0  0  0  0
    8.7007   -3.1493    0.2774 H   0  0  0  0  0  0
    7.2526   -3.4738    2.2922 H   0  0  0  0  0  0
    6.3779   -3.6029    0.8127 H   0  0  0  0  0  0
    6.4073   -1.1938    2.7087 H   0  0  0  0  0  0
    5.0680   -2.2616    2.3940 H   0  0  0  0  0  0
    5.1405    0.7633    2.0623 H   0  0  0  0  0  0
    4.2514    0.7553    0.5333 H   0  0  0  0  0  0
    3.7524   -0.3046    1.8433 H   0  0  0  0  0  0
    7.1392    0.3630    0.7083 H   0  0  0  0  0  0
    6.2148    0.2350   -0.7704 H   0  0  0  0  0  0
    7.0631   -2.0501   -1.1769 H   0  0  0  0  0  0
    8.3949   -0.9619   -0.9782 H   0  0  0  0  0  0
  1  2  1  0  0  0
  1 38  1  0  0  0
  1 39  1  0  0  0
  1 40  1  0  0  0
  2  3  1  0  0  0
  3  4  2  0  0  0
  3  8  1  0  0  0
  4  5  1  0  0  0
  4 41  1  0  0  0
  5  6  2  0  0  0
  5 28  1  0  0  0
  6  7  1  0  0  0
  6 42  1  0  0  0
  7  8  2  0  0  0
  7 43  1  0  0  0
  8  9  1  0  0  0
  9 10  1  0  0  0
  9 44  1  0  0  0
 10 11  2  0  0  0
 10 23  1  0  0  0
 11 12  1  0  0  0
 12 13  2  0  0  0
 12 45  1  0  0  0
 13 14  1  0  0  0
 13 24  1  0  0  0
 14 15  1  0  0  0
 14 23  2  0  0  0
 15 16  1  0  0  0
 16 17  1  0  0  0
 16 22  1  0  0  0
 16 46  1  0  0  0
 17 18  1  0  0  0
 17 47  1  0  0  0
 17 48  1  0  0  0
 18 19  1  0  0  0
 18 49  1  0  0  0
 18 50  1  0  0  0
 19 20  1  0  0  0
 19 51  1  0  0  0
 19 52  1  0  0  0
 20 21  1  0  0  0
 20 22  1  0  0  0
 21 53  1  0  0  0
 21 54  1  0  0  0
 21 55  1  0  0  0
 22 56  1  0  0  0
 22 57  1  0  0  0
 24 25  1  0  0  0
 24 26  1  0  0  0
 24 27  1  0  0  0
 28 29  2  0  0  0
 28 30  1  0  0  0
 30 31  1  0  0  0
 30 58  1  0  0  0
 31 32  1  0  0  0
 31 37  1  0  0  0
 31 59  1  0  0  0
 32 33  1  0  0  0
 32 60  1  0  0  0
 32 61  1  0  0  0
 33 34  1  0  0  0
 33 62  1  0  0  0
 33 63  1  0  0  0
 34 35  1  0  0  0
 34 36  1  0  0  0
 35 64  1  0  0  0
 35 65  1  0  0  0
 35 66  1  0  0  0
 36 37  1  0  0  0
 36 67  1  0  0  0
 36 68  1  0  0  0
 37 69  1  0  0  0
 37 70  1  0  0  0
M  END
> <s_m_entry_id>
47594

> <s_m_entry_name>
dock_pv.127

> <s_m_Source_Path>
/home/csk/Desktop/cluster/DUD-E-result/fak1

> <s_m_Source_File>
dock_pv.maegz

> <i_m_Source_File_Index>
127

> <chembl_id>
CHEMBL3665921

> <chembl_pref_name>
None

> <i_lp_mmshare_version>
53161

> <i_f3d_flags>
0

> <r_lp_tautomer_probability>
0.999999917912647

> <s_lp_Force_Field>
OPLS_2005

> <r_lp_Energy>
30.939957

> <b_lp_Chiralities_Consistent>
1

> <s_lp_Variant>
CHEMBL2695_lig921-2

> <s_i_glide_gridfile>
glide-grid_3bz3

> <i_i_glide_lignum>
994

> <i_i_glide_rotatable_bonds>
9

> <r_i_docking_score>
-7.83921468759338

> <r_i_glide_ligand_efficiency>
-0.211870667232254

> <r_i_glide_ligand_efficiency_sa>
-0.706000066224354

> <r_i_glide_ligand_efficiency_ln>
-1.70014188847223

> <r_i_glide_gscore>
-7.83921468759338

> <r_i_glide_lipo>
-2.54293711230323

> <r_i_glide_hbond>
-0.117192301452308

> <r_i_glide_metal>
0

> <r_i_glide_rewards>
-2.50720073036476

> <r_i_glide_evdw>
-41.7800331115723

> <r_i_glide_ecoul>
-6.96454858779907

> <r_i_glide_erotb>
0.527159411666603

> <r_i_glide_esite>
-0.0653600113912107

> <r_i_glide_emodel>
-64.4123468152275

> <r_i_glide_energy>
-48.7445816993713

> <r_i_glide_einternal>
4.31989336013794

> <i_i_glide_confnum>
10

> <i_i_glide_posenum>
81

> <r_i_glide_eff_state_penalty>
0

> <s_user_duplicate_titles>
CHEMBL2695_lig921

> <s_m_subgroup_title>
dock_pv

> <s_m_subgroupid>
dock_pv

> <b_m_subgroup_collapsed>
1

$$$$
CHEMBL2695_lig1540
                    3D
 Schrodinger Suite 2021-1.
 49 52  0  0  1  0            999 V2000
    5.7769    3.6304   10.0562 O   0  0  0  0  0  0
    3.6512    4.3628    8.3087 O   0  0  0  0  0  0
    3.9219    0.7629    5.4757 N   0  0  0  0  0  0
    9.0890    5.0269    9.5099 N   0  0  0  0  0  0
   13.7739    3.1588    6.3067 N   0  0  0  0  0  0
    2.3188    2.2630    5.9411 C   0  0  0  0  0  0
    2.8626    1.7823    7.1902 C   0  0  0  0  0  0
    3.0081    1.5974    4.8789 C   0  0  0  0  0  0
    3.8166    0.8480    6.8367 C   0  0  0  0  0  0
    1.3208    3.1927    5.6041 C   0  0  0  0  0  0
    2.5014    2.2444    8.5942 C   0  0  0  0  0  0
    2.7257    1.8331    3.5291 C   0  0  0  0  0  0
    3.4977    3.2701    9.1914 C   0  0  1  0  0  0
    1.0285    3.4200    4.2591 C   0  0  0  0  0  0
    1.7164    2.7534    3.2481 C   0  0  0  0  0  0
    6.9207    3.9628    9.3615 C   0  0  0  0  0  0
    8.3448    4.1111    7.3865 C   0  0  0  0  0  0
    4.8757    2.6586    9.5209 C   0  0  0  0  0  0
    7.1443    3.7227    7.9934 C   0  0  0  0  0  0
    7.9233    4.6240   10.0696 C   0  0  0  0  0  0
    9.2810    4.7629    8.1948 C   0  0  0  0  0  0
    8.5317    3.8438    5.9430 C   0  0  0  0  0  0
   11.0440    3.4293    5.6609 C   0  0  0  0  0  0
    9.6428    3.5586    5.2277 C   0  0  0  0  0  0
   11.8145    4.5469    6.0046 C   0  0  0  0  0  0
   11.6747    2.1809    5.5929 C   0  0  0  0  0  0
   13.1569    4.3657    6.3443 C   0  0  0  0  0  0
   13.0339    2.0911    5.9091 C   0  0  0  0  0  0
    3.9216    5.1187    8.8484 H   0  0  0  0  0  0
    4.6132    0.1553    5.0389 H   0  0  0  0  0  0
    4.4790    0.2505    7.4478 H   0  0  0  0  0  0
    0.7900    3.7301    6.3749 H   0  0  0  0  0  0
    2.4421    1.3838    9.2611 H   0  0  0  0  0  0
    1.4987    2.6735    8.6001 H   0  0  0  0  0  0
    3.2539    1.3237    2.7357 H   0  0  0  0  0  0
    3.0746    3.6692   10.1149 H   0  0  0  0  0  0
    0.2666    4.1387    3.9926 H   0  0  0  0  0  0
    1.4642    2.9581    2.2163 H   0  0  0  0  0  0
    5.2864    2.0835    8.6959 H   0  0  0  0  0  0
    4.7222    1.9210   10.3056 H   0  0  0  0  0  0
    6.3863    3.2582    7.3813 H   0  0  0  0  0  0
    7.7891    4.8501   11.1176 H   0  0  0  0  0  0
   10.2103    5.1316    7.8069 H   0  0  0  0  0  0
    7.6158    3.8947    5.3699 H   0  0  0  0  0  0
    9.5018    3.4010    4.1674 H   0  0  0  0  0  0
   11.3839    5.5373    6.0054 H   0  0  0  0  0  0
   11.1254    1.3015    5.2890 H   0  0  0  0  0  0
   13.7640    5.2002    6.6663 H   0  0  0  0  0  0
   13.5515    1.1447    5.8681 H   0  0  0  0  0  0
  1 16  1  0  0  0
  1 18  1  0  0  0
  2 13  1  0  0  0
  2 29  1  0  0  0
  3  8  1  0  0  0
  3  9  1  0  0  0
  3 30  1  0  0  0
  4 20  1  0  0  0
  4 21  2  0  0  0
  5 27  2  0  0  0
  5 28  1  0  0  0
  6  7  1  0  0  0
  6  8  1  0  0  0
  6 10  2  0  0  0
  7  9  2  0  0  0
  7 11  1  0  0  0
  8 12  2  0  0  0
  9 31  1  0  0  0
 10 14  1  0  0  0
 10 32  1  0  0  0
 11 13  1  0  0  0
 11 33  1  0  0  0
 11 34  1  0  0  0
 12 15  1  0  0  0
 12 35  1  0  0  0
 13 18  1  0  0  0
 13 36  1  0  0  0
 14 15  2  0  0  0
 14 37  1  0  0  0
 15 38  1  0  0  0
 16 19  1  0  0  0
 16 20  2  0  0  0
 17 19  2  0  0  0
 17 21  1  0  0  0
 17 22  1  0  0  0
 18 39  1  0  0  0
 18 40  1  0  0  0
 19 41  1  0  0  0
 20 42  1  0  0  0
 21 43  1  0  0  0
 22 24  2  3  0  0
 22 44  1  0  0  0
 23 24  1  0  0  0
 23 25  2  0  0  0
 23 26  1  0  0  0
 24 45  1  0  0  0
 25 27  1  0  0  0
 25 46  1  0  0  0
 26 28  2  0  0  0
 26 47  1  0  0  0
 27 48  1  0  0  0
 28 49  1  0  0  0
M  END
> <s_m_entry_id>
47595

> <s_m_entry_name>
dock_pv.128

> <s_m_Source_Path>
/home/csk/Desktop/cluster/DUD-E-result/fak1

> <s_m_Source_File>
dock_pv.maegz

> <i_m_Source_File_Index>
128

> <chembl_id>
CHEMBL1993584

> <chembl_pref_name>
None

> <i_lp_mmshare_version>
53161

> <i_f3d_flags>
0

> <r_lp_tautomer_probability>
1

> <s_lp_Force_Field>
OPLS_2005

> <r_lp_Energy>
22.414802

> <b_lp_Chiralities_Consistent>
1

> <s_lp_Variant>
CHEMBL2695_lig1540-4

> <s_i_glide_gridfile>
glide-grid_3bz3

> <i_i_glide_lignum>
1694

> <i_i_glide_rotatable_bonds>
8

> <r_i_docking_score>
-7.82145460599715

> <r_i_glide_ligand_efficiency>
-0.279337664499898

> <r_i_glide_ligand_efficiency_sa>
-0.848233670507732

> <r_i_glide_ligand_efficiency_ln>
-1.8054213709502

> <r_i_glide_gscore>
-7.82145460599715

> <r_i_glide_lipo>
-2.75182960467367

> <r_i_glide_hbond>
-0.226284296753719

> <r_i_glide_metal>
0

> <r_i_glide_rewards>
-2.40860642812946

> <r_i_glide_evdw>
-35.2518424987793

> <r_i_glide_ecoul>
-9.49259090423584

> <r_i_glide_erotb>
0.839497685459311

> <r_i_glide_esite>
-0.0877512013252747

> <r_i_glide_emodel>
-63.4712431017921

> <r_i_glide_energy>
-44.7444334030151

> <r_i_glide_einternal>
5.45058250427246

> <i_i_glide_confnum>
6

> <i_i_glide_posenum>
121

> <r_i_glide_eff_state_penalty>
0

> <s_user_duplicate_titles>
CHEMBL2695_lig1540,CHEMBL2695_lig1540

> <s_m_subgroup_title>
dock_pv

> <s_m_subgroupid>
dock_pv

> <b_m_subgroup_collapsed>
1

$$$$
CHEMBL2695_lig1970
                    3D
 Schrodinger Suite 2021-1.
 45 48  0  0  1  0            999 V2000
   11.1390    5.9603    7.9598 S   0  0  0  0  0  0
    8.5169    5.1636    9.3946 O   0  0  0  0  0  0
   13.6262    4.7959    6.9996 N   0  0  0  0  0  0
   13.9223    3.6722    6.3088 N   0  0  0  0  0  0
    7.5978    4.2545    7.5153 N   0  0  0  0  0  0
   11.6912    3.8969    6.4168 C   0  0  0  0  0  0
   12.2775    4.9480    7.1090 C   0  0  0  0  0  0
   12.7897    3.1278    5.9172 C   0  0  0  0  0  0
    9.8658    4.8064    7.5095 C   0  0  0  0  0  0
   10.2760    3.9122    6.5323 C   0  0  0  0  0  0
   12.7154    1.8768    5.1091 C   0  0  0  0  0  0
    8.6159    4.7624    8.2342 C   0  0  0  0  0  0
   11.4872    1.2214    4.9441 C   0  0  0  0  0  0
   13.7920    1.5204    4.2840 C   0  0  0  0  0  0
   11.2920    0.3497    3.8797 C   0  0  0  0  0  0
   13.6027    0.6430    3.2164 C   0  0  0  0  0  0
    6.2061    4.1099    7.9365 C   0  0  0  0  0  0
   12.3454    0.0769    3.0085 C   0  0  0  0  0  0
    5.1954    4.7954    6.9703 C   0  0  0  0  0  0
    5.3801    4.4328    5.4705 C   0  0  0  0  0  0
    3.7199    4.5186    7.3505 C   0  0  0  0  0  0
    5.0265    2.9559    5.1872 C   0  0  0  0  0  0
    3.3099    3.0514    7.0953 C   0  0  0  0  0  0
    3.5884    2.6256    5.6379 C   0  0  0  0  0  0
   14.3674    5.3538    7.4073 H   0  0  0  0  0  0
    7.8124    3.8799    6.6039 H   0  0  0  0  0  0
    9.6242    3.1705    6.0980 H   0  0  0  0  0  0
   10.6455    1.4352    5.5790 H   0  0  0  0  0  0
   14.7629    1.9690    4.4102 H   0  0  0  0  0  0
   10.3242   -0.1048    3.7229 H   0  0  0  0  0  0
   14.4257    0.4032    2.5593 H   0  0  0  0  0  0
    6.0221    4.4047    8.9722 H   0  0  0  0  0  0
    6.0289    3.0351    7.9403 H   0  0  0  0  0  0
   12.1908   -0.5977    2.1796 H   0  0  0  0  0  0
    5.3241    5.8781    7.0468 H   0  0  0  0  0  0
    6.4048    4.6250    5.1484 H   0  0  0  0  0  0
    4.7470    5.0770    4.8571 H   0  0  0  0  0  0
    3.0632    5.1798    6.7817 H   0  0  0  0  0  0
    3.5521    4.7555    8.4009 H   0  0  0  0  0  0
    5.7312    2.2942    5.6924 H   0  0  0  0  0  0
    5.1274    2.7423    4.1230 H   0  0  0  0  0  0
    3.8421    2.3885    7.7786 H   0  0  0  0  0  0
    2.2504    2.9204    7.3199 H   0  0  0  0  0  0
    3.3975    1.5578    5.5179 H   0  0  0  0  0  0
    2.8840    3.1330    4.9765 H   0  0  0  0  0  0
  1  7  1  0  0  0
  1  9  1  0  0  0
  2 12  2  0  0  0
  3  4  1  0  0  0
  3  7  1  0  0  0
  3 25  1  0  0  0
  4  8  2  0  0  0
  5 12  1  0  0  0
  5 17  1  0  0  0
  5 26  1  0  0  0
  6  7  2  0  0  0
  6  8  1  0  0  0
  6 10  1  0  0  0
  8 11  1  0  0  0
  9 10  2  0  0  0
  9 12  1  0  0  0
 10 27  1  0  0  0
 11 13  2  0  0  0
 11 14  1  0  0  0
 13 15  1  0  0  0
 13 28  1  0  0  0
 14 16  2  0  0  0
 14 29  1  0  0  0
 15 18  2  0  0  0
 15 30  1  0  0  0
 16 18  1  0  0  0
 16 31  1  0  0  0
 17 19  1  0  0  0
 17 32  1  0  0  0
 17 33  1  0  0  0
 18 34  1  0  0  0
 19 20  1  0  0  0
 19 21  1  0  0  0
 19 35  1  0  0  0
 20 22  1  0  0  0
 20 36  1  0  0  0
 20 37  1  0  0  0
 21 23  1  0  0  0
 21 38  1  0  0  0
 21 39  1  0  0  0
 22 24  1  0  0  0
 22 40  1  0  0  0
 22 41  1  0  0  0
 23 24  1  0  0  0
 23 42  1  0  0  0
 23 43  1  0  0  0
 24 44  1  0  0  0
 24 45  1  0  0  0
M  END
> <s_m_entry_id>
47596

> <s_m_entry_name>
dock_pv.129

> <s_m_Source_Path>
/home/csk/Desktop/cluster/DUD-E-result/fak1

> <s_m_Source_File>
dock_pv.maegz

> <i_m_Source_File_Index>
129

> <chembl_id>
CHEMBL2005475

> <chembl_pref_name>
None

> <i_lp_mmshare_version>
53161

> <i_f3d_flags>
0

> <r_lp_tautomer_probability>
1

> <s_lp_Force_Field>
OPLS_2005

> <r_lp_Energy>
51.31762

> <b_lp_Chiralities_Consistent>
1

> <s_lp_Variant>
CHEMBL2695_lig1970-1

> <s_i_glide_gridfile>
glide-grid_3bz3

> <i_i_glide_lignum>
2302

> <i_i_glide_rotatable_bonds>
5

> <r_i_docking_score>
-7.81285333793797

> <r_i_glide_ligand_efficiency>
-0.325535555747415

> <r_i_glide_ligand_efficiency_sa>
-0.939007029798248

> <r_i_glide_ligand_efficiency_ln>
-1.86997431224751

> <r_i_glide_gscore>
-7.81285333793797

> <r_i_glide_lipo>
-3.37281754588142

> <r_i_glide_hbond>
-0.121752451648723

> <r_i_glide_metal>
0

> <r_i_glide_rewards>
-2.97032598899946

> <r_i_glide_evdw>
-26.7663516998291

> <r_i_glide_ecoul>
-4.44389057159424

> <r_i_glide_erotb>
0.656943819322224

> <r_i_glide_esite>
0

> <r_i_glide_emodel>
-38.5878189603361

> <r_i_glide_energy>
-31.2102422714233

> <r_i_glide_einternal>
7.18316602706909

> <i_i_glide_confnum>
8

> <i_i_glide_posenum>
354

> <r_i_glide_eff_state_penalty>
0

> <s_user_duplicate_titles>
CHEMBL2695_lig1970

> <s_m_subgroup_title>
dock_pv

> <s_m_subgroupid>
dock_pv

> <b_m_subgroup_collapsed>
1

$$$$
CHEMBL2695_lig209
                    3D
 Schrodinger Suite 2021-1.
 41 44  0  0  1  0            999 V2000
   13.8578    0.9868    3.6423 C   0  0  0  0  0  0
   13.1299    1.5627    4.6966 C   0  0  0  0  0  0
   11.7595    1.2657    4.8294 C   0  0  0  0  0  0
   11.1219    0.4272    3.9107 C   0  0  0  0  0  0
   13.2199    0.1361    2.7375 C   0  0  0  0  0  0
   11.8725   -0.1329    2.8782 C   0  0  0  0  0  0
   11.4825   -1.0303    1.8983 N   0  0  0  0  0  0
   12.5013   -1.4190    1.1115 C   0  0  0  0  0  0
   13.7358   -0.6474    1.5744 C   0  0  0  0  0  0
   12.4677   -2.2345    0.1944 O   0  0  0  0  0  0
   13.8228    2.4090    5.5687 N   0  0  0  0  0  0
   13.4016    3.5347    6.2862 C   0  0  0  0  0  0
   12.1395    4.0007    6.1110 N   0  0  0  0  0  0
   11.7574    5.0879    6.8331 C   0  0  0  0  0  0
   12.6421    5.7133    7.7254 C   0  0  0  0  0  0
   13.9196    5.1633    7.8365 C   0  0  0  0  0  0
   14.3220    4.0877    7.1104 N   0  0  0  0  0  0
   10.4419    5.5571    6.7032 N   0  0  0  0  0  0
    9.4099    4.8289    5.9563 C   0  0  0  0  0  0
    8.6194    3.8488    6.8234 C   0  0  0  0  0  0
    8.2201    2.6089    6.3090 C   0  0  0  0  0  0
    7.4381    1.7695    7.1075 C   0  0  0  0  0  0
    7.0639    2.1929    8.3848 C   0  0  0  0  0  0
    7.4871    3.4474    8.8250 C   0  0  0  0  0  0
    8.2522    4.2733    8.0664 N   0  0  0  0  0  0
   12.2008    7.0813    8.6913 Cl  0  0  0  0  0  0
   14.9162    1.1810    3.5495 H   0  0  0  0  0  0
   11.1829    1.6806    5.6426 H   0  0  0  0  0  0
   10.0678    0.2151    4.0187 H   0  0  0  0  0  0
   10.5448   -1.3897    1.7973 H   0  0  0  0  0  0
   14.0933   -0.0080    0.7691 H   0  0  0  0  0  0
   14.5186   -1.3488    1.8659 H   0  0  0  0  0  0
   14.8061    2.1955    5.6447 H   0  0  0  0  0  0
   14.6338    5.5637    8.5410 H   0  0  0  0  0  0
   10.1518    6.3372    7.2742 H   0  0  0  0  0  0
    9.8517    4.2873    5.1184 H   0  0  0  0  0  0
    8.7214    5.5418    5.5048 H   0  0  0  0  0  0
    8.5019    2.2997    5.3124 H   0  0  0  0  0  0
    7.1216    0.7975    6.7434 H   0  0  0  0  0  0
    6.4566    1.5636    9.0192 H   0  0  0  0  0  0
    7.2095    3.8088    9.8048 H   0  0  0  0  0  0
  1  5  1  0  0  0
  1  2  2  0  0  0
  1 27  1  0  0  0
  2  3  1  0  0  0
  2 11  1  0  0  0
  3  4  2  0  0  0
  3 28  1  0  0  0
  4  6  1  0  0  0
  4 29  1  0  0  0
  5  9  1  0  0  0
  5  6  2  0  0  0
  6  7  1  0  0  0
  7  8  1  0  0  0
  7 30  1  0  0  0
  8  9  1  0  0  0
  8 10  2  0  0  0
  9 31  1  0  0  0
  9 32  1  0  0  0
 11 12  1  0  0  0
 11 33  1  0  0  0
 12 13  2  0  0  0
 12 17  1  0  0  0
 13 14  1  0  0  0
 14 15  2  0  0  0
 14 18  1  0  0  0
 15 16  1  0  0  0
 15 26  1  0  0  0
 16 17  2  0  0  0
 16 34  1  0  0  0
 18 19  1  0  0  0
 18 35  1  0  0  0
 19 20  1  0  0  0
 19 36  1  0  0  0
 19 37  1  0  0  0
 20 21  2  0  0  0
 20 25  1  0  0  0
 21 22  1  0  0  0
 21 38  1  0  0  0
 22 23  2  0  0  0
 22 39  1  0  0  0
 23 24  1  0  0  0
 23 40  1  0  0  0
 24 25  2  0  0  0
 24 41  1  0  0  0
M  END
> <s_m_entry_id>
47597

> <s_m_entry_name>
dock_pv.130

> <s_m_Source_Path>
/home/csk/Desktop/cluster/DUD-E-result/fak1

> <s_m_Source_File>
dock_pv.maegz

> <i_m_Source_File_Index>
130

> <chembl_id>
CHEMBL511152

> <chembl_pref_name>
None

> <i_lp_mmshare_version>
53161

> <i_f3d_flags>
0

> <r_lp_tautomer_probability>
0.999999624730965

> <s_lp_Force_Field>
OPLS_2005

> <r_lp_Energy>
18.174358

> <b_lp_Chiralities_Consistent>
1

> <s_lp_Variant>
CHEMBL2695_lig209-1

> <s_i_glide_gridfile>
glide-grid_3bz3

> <i_i_glide_lignum>
241

> <i_i_glide_rotatable_bonds>
5

> <r_i_docking_score>
-7.81237933145197

> <r_i_glide_ligand_efficiency>
-0.300476128132768

> <r_i_glide_ligand_efficiency_sa>
-0.890159347276853

> <r_i_glide_ligand_efficiency_ln>
-1.83471165148406

> <r_i_glide_gscore>
-7.81237933145197

> <r_i_glide_lipo>
-2.66600052687062

> <r_i_glide_hbond>
-0.62979446338927

> <r_i_glide_metal>
0

> <r_i_glide_rewards>
-2.17482121212121

> <r_i_glide_evdw>
-36.348518371582

> <r_i_glide_ecoul>
-8.1295280456543

> <r_i_glide_erotb>
0.715430509827818

> <r_i_glide_esite>
-0.0203385134714333

> <r_i_glide_emodel>
-64.1699247344511

> <r_i_glide_energy>
-44.4780464172363

> <r_i_glide_einternal>
4.11455011367798

> <i_i_glide_confnum>
13

> <i_i_glide_posenum>
212

> <r_i_glide_eff_state_penalty>
0

> <s_user_duplicate_titles>
CHEMBL2695_lig209,452734

> <s_m_subgroup_title>
dock_pv

> <s_m_subgroupid>
dock_pv

> <b_m_subgroup_collapsed>
1

$$$$
CHEMBL2695_lig1700
                    3D
 Schrodinger Suite 2021-1.
 29 31  0  0  1  0            999 V2000
   14.3204    3.5618    6.5057 O   0  0  0  0  0  0
   10.7767    1.5254    5.1108 N   0  0  0  0  0  0
   13.6811    1.9627    5.1104 N   0  0  0  0  0  0
   11.9626    3.4855    6.0888 C   0  0  0  0  0  0
   11.6307    0.8931    4.2083 C   0  0  0  0  0  0
   13.0189    1.1629    4.1680 C   0  0  0  0  0  0
   10.7946    2.7300    5.8198 C   0  0  0  0  0  0
   13.3950    3.0072    5.9061 C   0  0  0  0  0  0
   13.7877    0.6054    3.1339 C   0  0  0  0  0  0
   11.1050   -0.0378    3.3019 C   0  0  0  0  0  0
   11.8377    4.7527    6.7034 C   0  0  0  0  0  0
    9.5689    3.2271    6.2710 C   0  0  0  0  0  0
   13.2355   -0.2795    2.2089 C   0  0  0  0  0  0
   11.8901   -0.6173    2.3095 C   0  0  0  0  0  0
   10.5976    5.2283    7.1096 C   0  0  0  0  0  0
    9.4648    4.4491    6.9194 C   0  0  0  0  0  0
   14.0964   -0.9009    1.1265 C   0  0  0  0  0  0
    9.8344    1.1717    5.0289 H   0  0  0  0  0  0
   14.6770    1.7952    5.1257 H   0  0  0  0  0  0
   14.8440    0.8280    3.0799 H   0  0  0  0  0  0
   10.0513   -0.2787    3.3333 H   0  0  0  0  0  0
   12.7027    5.3673    6.9154 H   0  0  0  0  0  0
    8.6651    2.6582    6.1026 H   0  0  0  0  0  0
   11.4423   -1.3108    1.6125 H   0  0  0  0  0  0
   10.5241    6.1873    7.5997 H   0  0  0  0  0  0
    8.4964    4.7826    7.2582 H   0  0  0  0  0  0
   13.9219   -0.3994    0.1751 H   0  0  0  0  0  0
   15.1549   -0.8517    1.3774 H   0  0  0  0  0  0
   13.8488   -1.9556    1.0055 H   0  0  0  0  0  0
  1  8  2  0  0  0
  2  5  1  0  0  0
  2  7  1  0  0  0
  2 18  1  0  0  0
  3  6  1  0  0  0
  3  8  1  0  0  0
  3 19  1  0  0  0
  4  7  1  0  0  0
  4  8  1  0  0  0
  4 11  2  0  0  0
  5  6  1  0  0  0
  5 10  2  0  0  0
  6  9  2  0  0  0
  7 12  2  0  0  0
  9 13  1  0  0  0
  9 20  1  0  0  0
 10 14  1  0  0  0
 10 21  1  0  0  0
 11 15  1  0  0  0
 11 22  1  0  0  0
 12 16  1  0  0  0
 12 23  1  0  0  0
 13 14  2  0  0  0
 13 17  1  0  0  0
 14 24  1  0  0  0
 15 16  2  0  0  0
 15 25  1  0  0  0
 16 26  1  0  0  0
 17 27  1  0  0  0
 17 28  1  0  0  0
 17 29  1  0  0  0
M  END
> <s_m_entry_id>
47598

> <s_m_entry_name>
dock_pv.131

> <s_m_Source_Path>
/home/csk/Desktop/cluster/DUD-E-result/fak1

> <s_m_Source_File>
dock_pv.maegz

> <i_m_Source_File_Index>
131

> <chembl_id>
CHEMBL1999714

> <chembl_pref_name>
None

> <i_lp_mmshare_version>
53161

> <i_f3d_flags>
0

> <r_lp_tautomer_probability>
1

> <s_lp_Force_Field>
OPLS_2005

> <r_lp_Energy>
30.992031

> <b_lp_Chiralities_Consistent>
1

> <s_lp_Variant>
CHEMBL2695_lig1700-1

> <s_i_glide_gridfile>
glide-grid_3bz3

> <i_i_glide_lignum>
1909

> <i_i_glide_rotatable_bonds>
0

> <r_i_docking_score>
-7.81147757918717

> <r_i_glide_ligand_efficiency>
-0.459498681128657

> <r_i_glide_ligand_efficiency_sa>
-1.18150049860204

> <r_i_glide_ligand_efficiency_ln>
-2.03784054735687

> <r_i_glide_gscore>
-7.81147757918717

> <r_i_glide_lipo>
-2.4489024935937

> <r_i_glide_hbond>
-0.52695368167529

> <r_i_glide_metal>
0

> <r_i_glide_rewards>
-2.88005990909091

> <r_i_glide_evdw>
-24.2209300994873

> <r_i_glide_ecoul>
-4.96343326568604

> <r_i_glide_erotb>
0

> <r_i_glide_esite>
0

> <r_i_glide_emodel>
-44.3310610695674

> <r_i_glide_energy>
-29.1843633651733

> <r_i_glide_einternal>
0

> <i_i_glide_confnum>
2

> <i_i_glide_posenum>
107

> <r_i_glide_eff_state_penalty>
0

> <s_user_duplicate_titles>
CHEMBL2695_lig1700

> <s_m_subgroup_title>
dock_pv

> <s_m_subgroupid>
dock_pv

> <b_m_subgroup_collapsed>
1

$$$$
CHEMBL2695_lig1749
                    3D
 Schrodinger Suite 2021-1.
 27 29  0  0  1  0            999 V2000
   11.8530    7.1696    7.7466 C   0  0  0  0  0  0
   13.0419    6.7141    8.6262 C   0  0  0  0  0  0
   13.9220    5.8135    7.8579 N   0  0  0  0  0  0
   13.5130    4.7630    7.1090 C   0  0  0  0  0  0
   11.3123    5.9046    7.1154 C   0  0  0  0  0  0
   12.0874    4.7854    6.8765 C   0  0  0  0  0  0
   11.2226    3.8274    6.3090 C   0  0  0  0  0  0
    9.9104    4.2872    6.4099 C   0  0  0  0  0  0
   10.0150    5.5630    6.8870 N   0  0  0  0  0  0
    8.5858    3.6831    6.1088 C   0  0  0  0  0  0
    7.4581    4.0310    6.8680 C   0  0  0  0  0  0
    6.2182    3.4914    6.5271 C   0  0  0  0  0  0
    6.0537    2.6303    5.4945 N   0  0  0  0  0  0
    7.1563    2.2768    4.7872 C   0  0  0  0  0  0
    8.4328    2.7728    5.0607 C   0  0  0  0  0  0
   14.3220    3.9350    6.7090 O   0  0  0  0  0  0
   11.1220    7.7010    8.3508 H   0  0  0  0  0  0
   12.1870    7.8749    6.9845 H   0  0  0  0  0  0
   12.6832    6.1812    9.5090 H   0  0  0  0  0  0
   13.6186    7.5630    8.9872 H   0  0  0  0  0  0
   14.9292    5.9630    7.9090 H   0  0  0  0  0  0
   11.5195    2.8516    5.9517 H   0  0  0  0  0  0
    9.2285    6.1728    7.0548 H   0  0  0  0  0  0
    7.5313    4.7085    7.7056 H   0  0  0  0  0  0
    5.3297    3.7452    7.0868 H   0  0  0  0  0  0
    6.9974    1.5630    3.9910 H   0  0  0  0  0  0
    9.2749    2.4680    4.4567 H   0  0  0  0  0  0
  1  5  1  0  0  0
  1  2  1  0  0  0
  1 17  1  0  0  0
  1 18  1  0  0  0
  2  3  1  0  0  0
  2 19  1  0  0  0
  2 20  1  0  0  0
  3  4  1  0  0  0
  3 21  1  0  0  0
  4  6  1  0  0  0
  4 16  2  0  0  0
  5  9  1  0  0  0
  5  6  2  0  0  0
  6  7  1  0  0  0
  7  8  2  0  0  0
  7 22  1  0  0  0
  8  9  1  0  0  0
  8 10  1  0  0  0
  9 23  1  0  0  0
 10 11  2  0  0  0
 10 15  1  0  0  0
 11 12  1  0  0  0
 11 24  1  0  0  0
 12 13  2  0  0  0
 12 25  1  0  0  0
 13 14  1  0  0  0
 14 15  2  0  0  0
 14 26  1  0  0  0
 15 27  1  0  0  0
M  END
> <s_m_entry_id>
47600

> <s_m_entry_name>
dock_pv.133

> <s_m_Source_Path>
/home/csk/Desktop/cluster/DUD-E-result/fak1

> <s_m_Source_File>
dock_pv.maegz

> <i_m_Source_File_Index>
133

> <chembl_id>
CHEMBL225519

> <chembl_pref_name>
None

> <i_lp_mmshare_version>
53161

> <i_f3d_flags>
0

> <r_lp_tautomer_probability>
1

> <s_lp_Force_Field>
OPLS_2005

> <r_lp_Energy>
13.581071

> <b_lp_Chiralities_Consistent>
1

> <s_lp_Variant>
CHEMBL2695_lig1749-1

> <s_i_glide_gridfile>
glide-grid_3bz3

> <i_i_glide_lignum>
1988

> <i_i_glide_rotatable_bonds>
1

> <r_i_docking_score>
-7.80714083666418

> <r_i_glide_ligand_efficiency>
-0.487946302291511

> <r_i_glide_ligand_efficiency_sa>
-1.22954763381454

> <r_i_glide_ligand_efficiency_ln>
-2.06943862993607

> <r_i_glide_gscore>
-7.80714083666418

> <r_i_glide_lipo>
-1.99262340990825

> <r_i_glide_hbond>
-0.608

> <r_i_glide_metal>
0

> <r_i_glide_rewards>
-3.20021427272727

> <r_i_glide_evdw>
-24.2702941894531

> <r_i_glide_ecoul>
-6.9970178604126

> <r_i_glide_erotb>
0.256764234505889

> <r_i_glide_esite>
0

> <r_i_glide_emodel>
-44.9957067283324

> <r_i_glide_energy>
-31.2673120498657

> <r_i_glide_einternal>
0.184733122587204

> <i_i_glide_confnum>
2

> <i_i_glide_posenum>
195

> <r_i_glide_eff_state_penalty>
0

> <s_user_duplicate_titles>
CHEMBL2695_lig1749

> <s_m_subgroup_title>
dock_pv

> <s_m_subgroupid>
dock_pv

> <b_m_subgroup_collapsed>
1

$$$$
CHEMBL2695_lig735
                    3D
 Schrodinger Suite 2021-1.
 58 62  0  0  1  0            999 V2000
   10.4948    0.7636    4.9963 C   0  0  0  0  0  0
    9.2027    1.5735    4.7787 C   0  0  0  0  0  0
    8.8140    2.3546    5.9062 O   0  0  0  0  0  0
    9.5728    3.4423    6.3016 C   0  0  0  0  0  0
   10.7240    3.8606    5.6180 C   0  0  0  0  0  0
   11.5266    4.8892    6.0959 C   0  0  0  0  0  0
   11.1822    5.5448    7.2723 C   0  0  0  0  0  0
   10.0102    5.1635    7.9303 C   0  0  0  0  0  0
    9.1809    4.1491    7.4496 C   0  0  0  0  0  0
    7.9036    3.8868    8.1657 C   0  0  0  0  0  0
    7.8849    3.7556    9.5648 C   0  0  0  0  0  0
    6.6941    3.6141   10.2762 C   0  0  0  0  0  0
    5.4829    3.5630    9.5955 C   0  0  0  0  0  0
    5.4953    3.6799    8.2361 N   0  0  0  0  0  0
    4.4252    3.7027    7.4216 N   0  0  0  0  0  0
    4.9764    3.8670    6.2368 C   0  0  0  0  0  0
    4.1904    3.9611    5.1278 N   0  0  0  0  0  0
    3.8514    2.8771    4.3091 C   0  0  0  0  0  0
    4.7139    1.8120    4.0774 C   0  0  0  0  0  0
    4.3227    0.7649    3.2515 C   0  0  0  0  0  0
    3.0586    0.7288    2.6526 C   0  0  0  0  0  0
    2.7216   -0.4770    1.7663 C   0  0  0  0  0  0
    1.2757   -0.9905    1.8014 C   0  0  0  0  0  0
    0.3136   -0.2366    1.0132 N   0  0  1  0  0  0
    0.4675    1.2076    0.9675 C   0  0  0  0  0  0
    0.7552    1.8974    2.3061 C   0  0  0  0  0  0
    2.1794    1.8194    2.8689 C   0  0  0  0  0  0
    2.5990    2.8688    3.6970 C   0  0  0  0  0  0
    6.2914    3.9877    6.1817 N   0  0  0  0  0  0
    6.6606    3.8470    7.4841 C   0  0  0  0  0  0
   12.0840    6.6389    7.8362 C   0  0  0  0  0  0
   11.9212    6.7622    9.1519 F   0  0  0  0  0  0
   13.3679    6.3591    7.6160 F   0  0  0  0  0  0
   11.7909    7.8027    7.2558 F   0  0  0  0  0  0
   10.6502    0.0679    4.1740 H   0  0  0  0  0  0
   10.4310    0.1799    5.9089 H   0  0  0  0  0  0
   11.3955    1.3712    5.0767 H   0  0  0  0  0  0
    9.3026    2.2180    3.9091 H   0  0  0  0  0  0
    8.3806    0.8907    4.5611 H   0  0  0  0  0  0
   11.0232    3.3814    4.7100 H   0  0  0  0  0  0
   12.4168    5.1628    5.5500 H   0  0  0  0  0  0
    9.7239    5.6887    8.8296 H   0  0  0  0  0  0
    8.8129    3.7867   10.1170 H   0  0  0  0  0  0
    6.7072    3.5621   11.3553 H   0  0  0  0  0  0
    4.5194    3.4643   10.0782 H   0  0  0  0  0  0
    3.4967    4.6929    5.0969 H   0  0  0  0  0  0
    5.6919    1.7835    4.5345 H   0  0  0  0  0  0
    5.0211   -0.0459    3.0937 H   0  0  0  0  0  0
    3.0268   -0.2571    0.7430 H   0  0  0  0  0  0
    3.3644   -1.3010    2.0809 H   0  0  0  0  0  0
    1.2377   -2.0286    1.4712 H   0  0  0  0  0  0
    0.9299   -1.0041    2.8384 H   0  0  0  0  0  0
    0.2645   -0.6147    0.0764 H   0  0  0  0  0  0
    1.2602    1.4592    0.2631 H   0  0  0  0  0  0
   -0.4397    1.6200    0.5273 H   0  0  0  0  0  0
    0.0615    1.5404    3.0659 H   0  0  0  0  0  0
    0.5276    2.9552    2.1773 H   0  0  0  0  0  0
    1.9206    3.6924    3.8776 H   0  0  0  0  0  0
  1  2  1  0  0  0
  1 35  1  0  0  0
  1 36  1  0  0  0
  1 37  1  0  0  0
  2  3  1  0  0  0
  2 38  1  0  0  0
  2 39  1  0  0  0
  3  4  1  0  0  0
  4  5  2  0  0  0
  4  9  1  0  0  0
  5  6  1  0  0  0
  5 40  1  0  0  0
  6  7  2  0  0  0
  6 41  1  0  0  0
  7  8  1  0  0  0
  7 31  1  0  0  0
  8  9  2  0  0  0
  8 42  1  0  0  0
  9 10  1  0  0  0
 10 11  2  0  0  0
 10 30  1  0  0  0
 11 12  1  0  0  0
 11 43  1  0  0  0
 12 13  2  0  0  0
 12 44  1  0  0  0
 13 14  1  0  0  0
 13 45  1  0  0  0
 14 15  1  0  0  0
 14 30  1  0  0  0
 15 16  2  0  0  0
 16 17  1  0  0  0
 16 29  1  0  0  0
 17 18  1  0  0  0
 17 46  1  0  0  0
 18 19  2  0  0  0
 18 28  1  0  0  0
 19 20  1  0  0  0
 19 47  1  0  0  0
 20 21  2  0  0  0
 20 48  1  0  0  0
 21 22  1  0  0  0
 21 27  1  0  0  0
 22 23  1  0  0  0
 22 49  1  0  0  0
 22 50  1  0  0  0
 23 24  1  0  0  0
 23 51  1  0  0  0
 23 52  1  0  0  0
 24 25  1  0  0  0
 24 53  1  0  0  0
 25 26  1  0  0  0
 25 54  1  0  0  0
 25 55  1  0  0  0
 26 27  1  0  0  0
 26 56  1  0  0  0
 26 57  1  0  0  0
 27 28  2  0  0  0
 28 58  1  0  0  0
 29 30  2  0  0  0
 31 32  1  0  0  0
 31 33  1  0  0  0
 31 34  1  0  0  0
M  END
> <s_m_entry_id>
47601

> <s_m_entry_name>
dock_pv.134

> <s_m_Source_Path>
/home/csk/Desktop/cluster/DUD-E-result/fak1

> <s_m_Source_File>
dock_pv.maegz

> <i_m_Source_File_Index>
134

> <chembl_id>
CHEMBL3645036

> <chembl_pref_name>
None

> <i_lp_mmshare_version>
53161

> <i_f3d_flags>
0

> <r_lp_tautomer_probability>
1

> <s_lp_Force_Field>
OPLS_2005

> <r_lp_Energy>
33.605731

> <b_lp_Chiralities_Consistent>
1

> <s_lp_Variant>
CHEMBL2695_lig735-1

> <s_i_glide_gridfile>
glide-grid_3bz3

> <i_i_glide_lignum>
791

> <i_i_glide_rotatable_bonds>
6

> <r_i_docking_score>
-7.79493790887273

> <r_i_glide_ligand_efficiency>
-0.229262879672727

> <r_i_glide_ligand_efficiency_sa>
-0.742722729709591

> <r_i_glide_ligand_efficiency_ln>
-1.72212042467248

> <r_i_glide_gscore>
-7.79493790887273

> <r_i_glide_lipo>
-2.88192837545655

> <r_i_glide_hbond>
-0.290852833669539

> <r_i_glide_metal>
0

> <r_i_glide_rewards>
-2.17605601755321

> <r_i_glide_evdw>
-41.4438552856445

> <r_i_glide_ecoul>
-4.95541524887085

> <r_i_glide_erotb>
0.369404369419423

> <r_i_glide_esite>
0

> <r_i_glide_emodel>
-61.9855700805599

> <r_i_glide_energy>
-46.3992705345154

> <r_i_glide_einternal>
12.0697059631348

> <i_i_glide_confnum>
3

> <i_i_glide_posenum>
274

> <r_i_glide_eff_state_penalty>
0

> <s_user_duplicate_titles>
CHEMBL2695_lig735

> <s_m_subgroup_title>
dock_pv

> <s_m_subgroupid>
dock_pv

> <b_m_subgroup_collapsed>
1

$$$$
CHEMBL2695_lig1394
                    3D
 Schrodinger Suite 2021-1.
 45 47  0  0  1  0            999 V2000
   14.1922    3.6586    6.5765 N   0  0  0  0  0  0
   13.1787    3.0521    5.9088 C   0  0  0  0  0  0
   11.8920    3.4721    5.9284 N   0  0  0  0  0  0
   11.6123    4.5469    6.7090 C   0  0  0  0  0  0
   12.6446    5.2198    7.3796 C   0  0  0  0  0  0
   13.9220    4.7630    7.2932 N   0  0  0  0  0  0
   13.5455    1.9630    5.1090 N   0  0  0  0  0  0
   12.3392    6.5902    8.3944 Cl  0  0  0  0  0  0
   12.8284    1.1630    4.2048 C   0  0  0  0  0  0
   10.2740    4.8751    6.9728 N   0  0  0  0  0  0
    9.1098    4.1237    6.7270 C   0  0  0  0  0  0
   13.5220    0.6390    3.1090 C   0  0  0  0  0  0
   12.8859   -0.2329    2.2301 C   0  0  0  0  0  0
   11.5471   -0.5755    2.4329 C   0  0  0  0  0  0
   10.8409   -0.0337    3.5090 C   0  0  0  0  0  0
   11.4793    0.8327    4.3930 C   0  0  0  0  0  0
    8.1458    3.8741    7.7430 C   0  0  0  0  0  0
    7.0059    3.1210    7.3905 C   0  0  0  0  0  0
    6.8307    2.6180    6.1043 C   0  0  0  0  0  0
    7.7816    2.8668    5.1249 C   0  0  0  0  0  0
    8.9061    3.6229    5.4332 C   0  0  0  0  0  0
   10.8620   -1.5483    1.4899 C   0  0  0  0  0  0
   10.0367   -0.8370    0.5347 N   0  0  0  0  0  0
    8.3122    4.3630    9.1824 C   0  0  0  0  0  0
    9.1732    5.1881    9.4957 O   0  0  0  0  0  0
    7.4838    3.8317   10.1006 N   0  0  0  0  0  0
    7.4346    4.2069   11.5090 C   0  0  0  0  0  0
   14.5204    1.7099    5.1998 H   0  0  0  0  0  0
   10.1847    5.4536    7.7991 H   0  0  0  0  0  0
   14.5643    0.8793    2.9573 H   0  0  0  0  0  0
   13.4379   -0.6481    1.4000 H   0  0  0  0  0  0
    9.8009   -0.2848    3.6622 H   0  0  0  0  0  0
   10.9248    1.2137    5.2373 H   0  0  0  0  0  0
    6.2285    2.8990    8.1069 H   0  0  0  0  0  0
    5.9578    2.0259    5.8665 H   0  0  0  0  0  0
    7.6453    2.4727    4.1285 H   0  0  0  0  0  0
    9.6248    3.8181    4.6506 H   0  0  0  0  0  0
   11.6053   -2.1425    0.9564 H   0  0  0  0  0  0
   10.2439   -2.2451    2.0588 H   0  0  0  0  0  0
    9.2668   -0.3851    1.0138 H   0  0  0  0  0  0
   10.5728   -0.1115    0.0828 H   0  0  0  0  0  0
    6.8561    3.0964    9.8138 H   0  0  0  0  0  0
    6.3946    4.2822   11.8269 H   0  0  0  0  0  0
    7.9187    5.1630   11.7070 H   0  0  0  0  0  0
    7.9220    3.4520   12.1241 H   0  0  0  0  0  0
  1  2  2  0  0  0
  1  6  1  0  0  0
  2  3  1  0  0  0
  2  7  1  0  0  0
  3  4  2  0  0  0
  4  5  1  0  0  0
  4 10  1  0  0  0
  5  6  2  0  0  0
  5  8  1  0  0  0
  7  9  1  0  0  0
  7 28  1  0  0  0
  9 12  2  0  0  0
  9 16  1  0  0  0
 10 11  1  0  0  0
 10 29  1  0  0  0
 11 17  2  0  0  0
 11 21  1  0  0  0
 12 13  1  0  0  0
 12 30  1  0  0  0
 13 14  2  0  0  0
 13 31  1  0  0  0
 14 15  1  0  0  0
 14 22  1  0  0  0
 15 16  2  0  0  0
 15 32  1  0  0  0
 16 33  1  0  0  0
 17 18  1  0  0  0
 17 24  1  0  0  0
 18 19  2  0  0  0
 18 34  1  0  0  0
 19 20  1  0  0  0
 19 35  1  0  0  0
 20 21  2  0  0  0
 20 36  1  0  0  0
 21 37  1  0  0  0
 22 23  1  0  0  0
 22 38  1  0  0  0
 22 39  1  0  0  0
 23 40  1  0  0  0
 23 41  1  0  0  0
 24 25  2  0  0  0
 24 26  1  0  0  0
 26 27  1  0  0  0
 26 42  1  0  0  0
 27 43  1  0  0  0
 27 44  1  0  0  0
 27 45  1  0  0  0
M  END
> <s_m_entry_id>
47602

> <s_m_entry_name>
dock_pv.135

> <s_m_Source_Path>
/home/csk/Desktop/cluster/DUD-E-result/fak1

> <s_m_Source_File>
dock_pv.maegz

> <i_m_Source_File_Index>
135

> <chembl_id>
CHEMBL4098626

> <chembl_pref_name>
None

> <i_lp_mmshare_version>
53161

> <i_f3d_flags>
0

> <r_lp_tautomer_probability>
0.999981035422916

> <s_lp_Force_Field>
OPLS_2005

> <r_lp_Energy>
33.039306

> <b_lp_Chiralities_Consistent>
1

> <s_lp_Variant>
CHEMBL2695_lig1394-1

> <s_i_glide_gridfile>
glide-grid_3bz3

> <i_i_glide_lignum>
1525

> <i_i_glide_rotatable_bonds>
7

> <r_i_docking_score>
-7.77465861150845

> <r_i_glide_ligand_efficiency>
-0.287950318944757

> <r_i_glide_ligand_efficiency_sa>
-0.863850955885235

> <r_i_glide_ligand_efficiency_ln>
-1.80981234949451

> <r_i_glide_gscore>
-7.77465861150845

> <r_i_glide_lipo>
-2.63421644457168

> <r_i_glide_hbond>
-0.40122998880278

> <r_i_glide_metal>
0

> <r_i_glide_rewards>
-1.65753951981895

> <r_i_glide_evdw>
-46.0718536376953

> <r_i_glide_ecoul>
-9.48364448547363

> <r_i_glide_erotb>
0.65962211519374

> <r_i_glide_esite>
-0.0151554188029655

> <r_i_glide_emodel>
-78.5259760376317

> <r_i_glide_energy>
-55.5554981231689

> <r_i_glide_einternal>
4.68325805664062

> <i_i_glide_confnum>
7

> <i_i_glide_posenum>
35

> <r_i_glide_eff_state_penalty>
0

> <s_user_duplicate_titles>
CHEMBL2695_lig1394

> <s_m_subgroup_title>
dock_pv

> <s_m_subgroupid>
dock_pv

> <b_m_subgroup_collapsed>
1

$$$$
CHEMBL2695_lig1848
                    3D
 Schrodinger Suite 2021-1.
 25 27  0  0  1  0            999 V2000
   12.1213    2.6566    5.8442 C   0  0  0  0  0  0
   13.5042    2.8040    5.9635 C   0  0  0  0  0  0
   14.1072    3.8551    6.5776 N   0  0  0  0  0  0
   11.2457    3.6558    6.3081 C   0  0  0  0  0  0
   11.8507    4.7796    6.9277 C   0  0  0  0  0  0
   13.2731    4.7899    7.0357 C   0  0  0  0  0  0
   13.6329    5.9355    7.7079 N   0  0  0  0  0  0
   12.5177    6.6735    8.0107 C   0  0  0  0  0  0
   11.4032    6.0125    7.5266 C   0  0  0  0  0  0
    9.7630    3.5131    6.1702 C   0  0  0  0  0  0
    8.8934    4.0476    7.1327 C   0  0  0  0  0  0
    7.5103    3.9582    6.9834 C   0  0  0  0  0  0
    6.9764    3.2969    5.8805 C   0  0  0  0  0  0
    7.8202    2.7235    4.9328 C   0  0  0  0  0  0
    9.2017    2.8380    5.0750 C   0  0  0  0  0  0
   11.7310    1.7660    5.3741 H   0  0  0  0  0  0
   14.1674    2.0365    5.5856 H   0  0  0  0  0  0
   14.5763    6.2289    7.9361 H   0  0  0  0  0  0
   12.6164    7.6170    8.5347 H   0  0  0  0  0  0
   10.3848    6.3620    7.6009 H   0  0  0  0  0  0
    9.2870    4.5354    8.0113 H   0  0  0  0  0  0
    6.8515    4.3947    7.7202 H   0  0  0  0  0  0
    5.9050    3.2232    5.7584 H   0  0  0  0  0  0
    7.4032    2.1936    4.0859 H   0  0  0  0  0  0
    9.8300    2.4072    4.3089 H   0  0  0  0  0  0
  1  4  1  0  0  0
  1  2  2  0  0  0
  1 16  1  0  0  0
  2  3  1  0  0  0
  2 17  1  0  0  0
  3  6  2  0  0  0
  4  5  2  0  0  0
  4 10  1  0  0  0
  5  9  1  0  0  0
  5  6  1  0  0  0
  6  7  1  0  0  0
  7  8  1  0  0  0
  7 18  1  0  0  0
  8  9  2  0  0  0
  8 19  1  0  0  0
  9 20  1  0  0  0
 10 11  2  0  0  0
 10 15  1  0  0  0
 11 12  1  0  0  0
 11 21  1  0  0  0
 12 13  2  0  0  0
 12 22  1  0  0  0
 13 14  1  0  0  0
 13 23  1  0  0  0
 14 15  2  0  0  0
 14 24  1  0  0  0
 15 25  1  0  0  0
M  END
> <s_m_entry_id>
47603

> <s_m_entry_name>
dock_pv.136

> <s_m_Source_Path>
/home/csk/Desktop/cluster/DUD-E-result/fak1

> <s_m_Source_File>
dock_pv.maegz

> <i_m_Source_File_Index>
136

> <chembl_id>
CHEMBL482538

> <chembl_pref_name>
None

> <i_lp_mmshare_version>
53161

> <i_f3d_flags>
0

> <r_lp_tautomer_probability>
0.999998432528457

> <s_lp_Force_Field>
OPLS_2005

> <r_lp_Energy>
11.826774

> <b_lp_Chiralities_Consistent>
1

> <s_lp_Variant>
CHEMBL2695_lig1848-1

> <s_i_glide_gridfile>
glide-grid_3bz3

> <i_i_glide_lignum>
2133

> <i_i_glide_rotatable_bonds>
1

> <r_i_docking_score>
-7.77079478285546

> <r_i_glide_ligand_efficiency>
-0.518052985523697

> <r_i_glide_ligand_efficiency_sa>
-1.2776285268882

> <r_i_glide_ligand_efficiency_ln>
-2.09565522617402

> <r_i_glide_gscore>
-7.77079478285546

> <r_i_glide_lipo>
-2.21289151879974

> <r_i_glide_hbond>
-0.540797220738465

> <r_i_glide_metal>
0

> <r_i_glide_rewards>
-3.4297825

> <r_i_glide_evdw>
-23.4907379150391

> <r_i_glide_ecoul>
-4.75252151489258

> <r_i_glide_erotb>
0.300091579668585

> <r_i_glide_esite>
0

> <r_i_glide_emodel>
-41.5879893073965

> <r_i_glide_energy>
-28.2432594299316

> <r_i_glide_einternal>
0.0564678646624088

> <i_i_glide_confnum>
2

> <i_i_glide_posenum>
64

> <r_i_glide_eff_state_penalty>
0

> <s_user_duplicate_titles>
CHEMBL2695_lig1848

> <s_m_subgroup_title>
dock_pv

> <s_m_subgroupid>
dock_pv

> <b_m_subgroup_collapsed>
1

$$$$
CHEMBL2695_lig92
                    3D
 Schrodinger Suite 2021-1.
 36 39  0  0  1  0            999 V2000
    9.7561    1.1626    4.9784 N   0  0  0  0  0  0
    9.2834    2.3005    5.5268 C   0  0  0  0  0  0
   10.0224    3.3499    5.9883 N   0  0  0  0  0  0
   11.0939    0.9898    4.9191 C   0  0  0  0  0  0
   11.9677    1.9629    5.4092 C   0  0  0  0  0  0
   11.3519    3.1501    5.9094 C   0  0  0  0  0  0
   12.3839    4.0001    6.3090 N   0  0  0  0  0  0
   13.5816    3.3617    6.0645 C   0  0  0  0  0  0
   13.3813    2.1193    5.5091 C   0  0  0  0  0  0
   12.2933    5.2670    6.9136 C   0  0  0  0  0  0
   13.0402    5.5736    8.0624 C   0  0  0  0  0  0
   12.9101    6.8473    8.6185 C   0  0  0  0  0  0
   12.0630    7.7752    8.0111 C   0  0  0  0  0  0
   11.3848    7.4012    6.8522 C   0  0  0  0  0  0
   11.4806    6.1636    6.3093 N   0  0  0  0  0  0
    7.8959    2.2909    5.6578 N   0  0  0  0  0  0
    7.0002    3.2887    6.0376 C   0  0  0  0  0  0
    6.2670    3.1456    7.2175 C   0  0  0  0  0  0
    5.3002    4.0889    7.5583 C   0  0  0  0  0  0
    5.0373    5.1597    6.7043 C   0  0  0  0  0  0
    5.7607    5.2968    5.5180 C   0  0  0  0  0  0
    6.7566    4.3746    5.1961 C   0  0  0  0  0  0
    4.6121    3.9626    8.7347 O   0  0  0  0  0  0
   11.4511    0.0737    4.4752 H   0  0  0  0  0  0
   14.5032    3.8702    6.3097 H   0  0  0  0  0  0
   14.1544    1.4319    5.1977 H   0  0  0  0  0  0
   13.6908    4.8438    8.5218 H   0  0  0  0  0  0
   13.4619    7.1106    9.5085 H   0  0  0  0  0  0
   11.9231    8.7612    8.4280 H   0  0  0  0  0  0
   10.7224    8.0912    6.3516 H   0  0  0  0  0  0
    7.4680    1.4346    5.3306 H   0  0  0  0  0  0
    6.4433    2.3022    7.8685 H   0  0  0  0  0  0
    4.2791    5.8871    6.9524 H   0  0  0  0  0  0
    5.5517    6.1206    4.8513 H   0  0  0  0  0  0
    7.3178    4.4812    4.2807 H   0  0  0  0  0  0
    4.1086    4.7440    8.9848 H   0  0  0  0  0  0
  1  2  2  0  0  0
  1  4  1  0  0  0
  2  3  1  0  0  0
  2 16  1  0  0  0
  3  6  2  0  0  0
  4  5  2  0  0  0
  4 24  1  0  0  0
  5  9  1  0  0  0
  5  6  1  0  0  0
  6  7  1  0  0  0
  7  8  1  0  0  0
  7 10  1  0  0  0
  8  9  2  0  0  0
  8 25  1  0  0  0
  9 26  1  0  0  0
 10 11  2  0  0  0
 10 15  1  0  0  0
 11 12  1  0  0  0
 11 27  1  0  0  0
 12 13  2  0  0  0
 12 28  1  0  0  0
 13 14  1  0  0  0
 13 29  1  0  0  0
 14 15  2  0  0  0
 14 30  1  0  0  0
 16 17  1  0  0  0
 16 31  1  0  0  0
 17 18  2  0  0  0
 17 22  1  0  0  0
 18 19  1  0  0  0
 18 32  1  0  0  0
 19 20  2  0  0  0
 19 23  1  0  0  0
 20 21  1  0  0  0
 20 33  1  0  0  0
 21 22  2  0  0  0
 21 34  1  0  0  0
 22 35  1  0  0  0
 23 36  1  0  0  0
M  END
> <s_m_entry_id>
47604

> <s_m_entry_name>
dock_pv.137

> <s_m_Source_Path>
/home/csk/Desktop/cluster/DUD-E-result/fak1

> <s_m_Source_File>
dock_pv.maegz

> <i_m_Source_File_Index>
137

> <chembl_id>
CHEMBL438623

> <chembl_pref_name>
None

> <i_lp_mmshare_version>
53161

> <i_f3d_flags>
0

> <r_lp_tautomer_probability>
1

> <s_lp_Force_Field>
OPLS_2005

> <r_lp_Energy>
12.366987

> <b_lp_Chiralities_Consistent>
1

> <s_lp_Variant>
CHEMBL2695_lig92-1

> <s_i_glide_gridfile>
glide-grid_3bz3

> <i_i_glide_lignum>
114

> <i_i_glide_rotatable_bonds>
4

> <r_i_docking_score>
-7.75376611806213

> <r_i_glide_ligand_efficiency>
-0.337120266002701

> <r_i_glide_ligand_efficiency_sa>
-0.958725191721832

> <r_i_glide_ligand_efficiency_ln>
-1.87493095461144

> <r_i_glide_gscore>
-7.75376611806213

> <r_i_glide_lipo>
-3.20515006714774

> <r_i_glide_hbond>
-0.32

> <r_i_glide_metal>
0

> <r_i_glide_rewards>
-2.59621632538727

> <r_i_glide_evdw>
-38.8445434570312

> <r_i_glide_ecoul>
-1.65929043292999

> <r_i_glide_erotb>
0.600816014790621

> <r_i_glide_esite>
-0.042095002526677

> <r_i_glide_emodel>
-57.3917400531886

> <r_i_glide_energy>
-40.5038338899612

> <r_i_glide_einternal>
3.80293655395508

> <i_i_glide_confnum>
6

> <i_i_glide_posenum>
95

> <r_i_glide_eff_state_penalty>
0

> <s_user_duplicate_titles>
CHEMBL2695_lig92

> <s_m_subgroup_title>
dock_pv

> <s_m_subgroupid>
dock_pv

> <b_m_subgroup_collapsed>
1

$$$$
CHEMBL2695_lig96
                    3D
 Schrodinger Suite 2021-1.
 38 41  0  0  1  0            999 V2000
    9.3682    1.4295    5.2460 N   0  0  0  0  0  0
    9.1022    2.5777    5.9128 C   0  0  0  0  0  0
   10.0083    3.5109    6.3074 N   0  0  0  0  0  0
   10.6681    1.1108    5.0373 C   0  0  0  0  0  0
   11.7006    1.9630    5.4507 C   0  0  0  0  0  0
   11.2829    3.1892    6.0411 C   0  0  0  0  0  0
   12.4244    3.9409    6.3088 N   0  0  0  0  0  0
   13.5151    3.1869    5.9192 C   0  0  0  0  0  0
   13.1267    1.9618    5.4218 C   0  0  0  0  0  0
   12.4982    5.1908    6.9605 C   0  0  0  0  0  0
   13.5008    5.4339    7.9103 C   0  0  0  0  0  0
   13.4751    6.6360    8.6128 C   0  0  0  0  0  0
   12.4709    7.5630    8.3428 C   0  0  0  0  0  0
   11.5285    7.2702    7.3582 C   0  0  0  0  0  0
   11.5276    6.1009    6.6725 N   0  0  0  0  0  0
    7.7605    2.7535    6.2534 N   0  0  0  0  0  0
    7.1602    3.2549    7.4256 C   0  0  0  0  0  0
    5.7606    3.4316    7.4782 C   0  0  0  0  0  0
    5.1643    3.7822    8.6974 C   0  0  0  0  0  0
    5.9316    3.9626    9.8447 C   0  0  0  0  0  0
    7.3131    3.8358    9.7850 C   0  0  0  0  0  0
    7.9212    3.4881    8.5838 C   0  0  0  0  0  0
    4.8806    3.2520    6.2322 C   0  0  0  0  0  0
    4.9759    2.0005    5.7850 F   0  0  0  0  0  0
    3.5925    3.5002    6.4727 F   0  0  0  0  0  0
    5.2817    4.0839    5.2687 F   0  0  0  0  0  0
   10.8704    0.1756    4.5369 H   0  0  0  0  0  0
   14.5056    3.5901    6.0523 H   0  0  0  0  0  0
   13.7947    1.1915    5.0580 H   0  0  0  0  0  0
   14.2610    4.7008    8.1353 H   0  0  0  0  0  0
   14.2284    6.8427    9.3604 H   0  0  0  0  0  0
   12.4266    8.4853    8.8948 H   0  0  0  0  0  0
   10.7468    7.9737    7.1117 H   0  0  0  0  0  0
    7.1571    2.1157    5.7518 H   0  0  0  0  0  0
    4.0948    3.9206    8.7751 H   0  0  0  0  0  0
    5.4533    4.2291   10.7745 H   0  0  0  0  0  0
    7.9082    3.9919   10.6723 H   0  0  0  0  0  0
    8.9903    3.3563    8.5813 H   0  0  0  0  0  0
  1  2  2  0  0  0
  1  4  1  0  0  0
  2  3  1  0  0  0
  2 16  1  0  0  0
  3  6  2  0  0  0
  4  5  2  0  0  0
  4 27  1  0  0  0
  5  9  1  0  0  0
  5  6  1  0  0  0
  6  7  1  0  0  0
  7  8  1  0  0  0
  7 10  1  0  0  0
  8  9  2  0  0  0
  8 28  1  0  0  0
  9 29  1  0  0  0
 10 15  1  0  0  0
 10 11  2  0  0  0
 11 12  1  0  0  0
 11 30  1  0  0  0
 12 13  2  0  0  0
 12 31  1  0  0  0
 13 14  1  0  0  0
 13 32  1  0  0  0
 14 15  2  0  0  0
 14 33  1  0  0  0
 16 17  1  0  0  0
 16 34  1  0  0  0
 17 18  2  0  0  0
 17 22  1  0  0  0
 18 19  1  0  0  0
 18 23  1  0  0  0
 19 20  2  0  0  0
 19 35  1  0  0  0
 20 21  1  0  0  0
 20 36  1  0  0  0
 21 22  2  0  0  0
 21 37  1  0  0  0
 22 38  1  0  0  0
 23 24  1  0  0  0
 23 25  1  0  0  0
 23 26  1  0  0  0
M  END
> <s_m_entry_id>
47605

> <s_m_entry_name>
dock_pv.138

> <s_m_Source_Path>
/home/csk/Desktop/cluster/DUD-E-result/fak1

> <s_m_Source_File>
dock_pv.maegz

> <i_m_Source_File_Index>
138

> <chembl_id>
CHEMBL203178

> <chembl_pref_name>
None

> <i_lp_mmshare_version>
53161

> <i_f3d_flags>
0

> <r_lp_tautomer_probability>
1

> <s_lp_Force_Field>
OPLS_2005

> <r_lp_Energy>
14.351821

> <b_lp_Chiralities_Consistent>
1

> <s_lp_Variant>
CHEMBL2695_lig96-1

> <s_i_glide_gridfile>
glide-grid_3bz3

> <i_i_glide_lignum>
118

> <i_i_glide_rotatable_bonds>
4

> <r_i_docking_score>
-7.75102015696612

> <r_i_glide_ligand_efficiency>
-0.298116159883312

> <r_i_glide_ligand_efficiency_sa>
-0.883167950623867

> <r_i_glide_ligand_efficiency_ln>
-1.82030165069193

> <r_i_glide_gscore>
-7.75102015696612

> <r_i_glide_lipo>
-3.36526746456396

> <r_i_glide_hbond>
0

> <r_i_glide_metal>
0

> <r_i_glide_rewards>
-2.7279338032854

> <r_i_glide_evdw>
-43.3362350463867

> <r_i_glide_ecoul>
0.841433703899384

> <r_i_glide_erotb>
0.454316365255308

> <r_i_glide_esite>
-0.0715385576376308

> <r_i_glide_emodel>
-56.3980980361081

> <r_i_glide_energy>
-42.4948013424873

> <r_i_glide_einternal>
7.43516969680786

> <i_i_glide_confnum>
3

> <i_i_glide_posenum>
126

> <r_i_glide_eff_state_penalty>
0

> <s_user_duplicate_titles>
CHEMBL2695_lig96

> <s_m_subgroup_title>
dock_pv

> <s_m_subgroupid>
dock_pv

> <b_m_subgroup_collapsed>
1

$$$$
CHEMBL2695_lig211
                    3D
 Schrodinger Suite 2021-1.
 42 45  0  0  1  0            999 V2000
   13.3755    0.5471    3.1613 C   0  0  0  0  0  0
   12.7540    1.1630    4.2601 C   0  0  0  0  0  0
   11.3785    0.9755    4.4767 C   0  0  0  0  0  0
   10.6342    0.1618    3.6206 C   0  0  0  0  0  0
   12.6267   -0.2729    2.3191 C   0  0  0  0  0  0
   11.2783   -0.4592    2.5544 C   0  0  0  0  0  0
   10.7580   -1.3054    1.5900 N   0  0  0  0  0  0
   11.6846   -1.7197    0.7090 C   0  0  0  0  0  0
   13.0069   -1.0703    1.1165 C   0  0  0  0  0  0
   11.5221   -2.4659   -0.2519 O   0  0  0  0  0  0
   13.5446    1.9629    5.1028 N   0  0  0  0  0  0
   13.2703    3.0724    5.9090 C   0  0  0  0  0  0
   12.0387    3.6432    5.9090 N   0  0  0  0  0  0
   11.8499    4.7253    6.7082 C   0  0  0  0  0  0
   12.8967    5.2661    7.4838 C   0  0  0  0  0  0
   14.1169    4.5954    7.4289 C   0  0  0  0  0  0
   14.3211    3.5136    6.6423 N   0  0  0  0  0  0
   10.5547    5.2490    6.6760 N   0  0  0  0  0  0
    9.7644    5.0820    7.8942 C   0  0  0  0  0  0
    8.7695    3.9236    7.8614 C   0  0  0  0  0  0
    8.4874    3.1635    6.7136 C   0  0  0  0  0  0
    7.5219    2.1572    6.7971 C   0  0  0  0  0  0
    6.8614    1.9360    8.0066 C   0  0  0  0  0  0
    7.1894    2.7359    9.1022 C   0  0  0  0  0  0
    8.1288    3.7151    9.0437 N   0  0  0  0  0  0
   12.7941    6.4664    8.3013 C   0  0  0  0  0  0
   12.7216    7.4209    8.9482 N   0  0  0  0  0  0
   14.4317    0.6929    2.9878 H   0  0  0  0  0  0
   10.8809    1.4396    5.3142 H   0  0  0  0  0  0
    9.5755    0.0270    3.7938 H   0  0  0  0  0  0
    9.7887   -1.5819    1.5367 H   0  0  0  0  0  0
   13.3767   -0.4385    0.3092 H   0  0  0  0  0  0
   13.7408   -1.8410    1.3525 H   0  0  0  0  0  0
   14.5167    1.6850    5.1348 H   0  0  0  0  0  0
   14.9560    4.8821    8.0429 H   0  0  0  0  0  0
   10.0408    4.9294    5.8693 H   0  0  0  0  0  0
    9.1634    5.9609    7.9951 H   0  0  0  0  0  0
   10.3623    5.0948    8.8028 H   0  0  0  0  0  0
    8.9885    3.3353    5.7731 H   0  0  0  0  0  0
    7.2828    1.5543    5.9316 H   0  0  0  0  0  0
    6.1139    1.1604    8.0928 H   0  0  0  0  0  0
    6.6960    2.5912   10.0537 H   0  0  0  0  0  0
  1  2  2  0  0  0
  1  5  1  0  0  0
  1 28  1  0  0  0
  2  3  1  0  0  0
  2 11  1  0  0  0
  3  4  2  0  0  0
  3 29  1  0  0  0
  4  6  1  0  0  0
  4 30  1  0  0  0
  5  9  1  0  0  0
  5  6  2  0  0  0
  6  7  1  0  0  0
  7  8  1  0  0  0
  7 31  1  0  0  0
  8  9  1  0  0  0
  8 10  2  0  0  0
  9 32  1  0  0  0
  9 33  1  0  0  0
 11 12  1  0  0  0
 11 34  1  0  0  0
 12 13  2  0  0  0
 12 17  1  0  0  0
 13 14  1  0  0  0
 14 15  2  0  0  0
 14 18  1  0  0  0
 15 16  1  0  0  0
 15 26  1  0  0  0
 16 17  2  0  0  0
 16 35  1  0  0  0
 18 19  1  0  0  0
 18 36  1  0  0  0
 19 20  1  0  0  0
 19 37  1  0  0  0
 19 38  1  0  0  0
 20 21  2  0  0  0
 20 25  1  0  0  0
 21 22  1  0  0  0
 21 39  1  0  0  0
 22 23  2  0  0  0
 22 40  1  0  0  0
 23 24  1  0  0  0
 23 41  1  0  0  0
 24 25  2  0  0  0
 24 42  1  0  0  0
 26 27  3  0  0  0
M  END
> <s_m_entry_id>
47606

> <s_m_entry_name>
dock_pv.139

> <s_m_Source_Path>
/home/csk/Desktop/cluster/DUD-E-result/fak1

> <s_m_Source_File>
dock_pv.maegz

> <i_m_Source_File_Index>
139

> <chembl_id>
CHEMBL470317

> <chembl_pref_name>
None

> <i_lp_mmshare_version>
53161

> <i_f3d_flags>
0

> <r_lp_tautomer_probability>
1

> <s_lp_Force_Field>
OPLS_2005

> <r_lp_Energy>
18.875334

> <b_lp_Chiralities_Consistent>
1

> <s_lp_Variant>
CHEMBL2695_lig211-1

> <s_i_glide_gridfile>
glide-grid_3bz3

> <i_i_glide_lignum>
243

> <i_i_glide_rotatable_bonds>
5

> <r_i_docking_score>
-7.74075146139317

> <r_i_glide_ligand_efficiency>
-0.286694498570117

> <r_i_glide_ligand_efficiency_sa>
-0.860083494765454

> <r_i_glide_ligand_efficiency_ln>
-1.80191932395074

> <r_i_glide_gscore>
-7.74075146139317

> <r_i_glide_lipo>
-2.04224289714999

> <r_i_glide_hbond>
-0.663735245896188

> <r_i_glide_metal>
0

> <r_i_glide_rewards>
-2.7391528030303

> <r_i_glide_evdw>
-33.2413482666016

> <r_i_glide_ecoul>
-8.8784646987915

> <r_i_glide_erotb>
0.74946807158399

> <r_i_glide_esite>
-0.0512514687518674

> <r_i_glide_emodel>
-56.134231791628

> <r_i_glide_energy>
-42.1198129653931

> <r_i_glide_einternal>
13.4789152145386

> <i_i_glide_confnum>
23

> <i_i_glide_posenum>
90

> <r_i_glide_eff_state_penalty>
0

> <s_user_duplicate_titles>
CHEMBL2695_lig211,452801

> <s_m_subgroup_title>
dock_pv

> <s_m_subgroupid>
dock_pv

> <b_m_subgroup_collapsed>
1

$$$$
CHEMBL2695_lig372
                    3D
 Schrodinger Suite 2021-1.
 49 51  0  0  1  0            999 V2000
    7.5223    3.8632   10.2048 S   0  0  0  0  0  0
    7.9219    2.4533   10.1977 O   0  0  0  0  0  0
    7.9215    4.7629   11.2871 O   0  0  0  0  0  0
   14.2474    3.6516    6.5975 N   0  0  0  0  0  0
   13.2280    3.0762    5.9090 C   0  0  0  0  0  0
   11.9601    3.5401    5.9115 N   0  0  0  0  0  0
   11.6980    4.6106    6.6940 C   0  0  0  0  0  0
   12.6422    5.2866    7.3968 N   0  0  0  0  0  0
   13.8966    4.7630    7.3017 C   0  0  0  0  0  0
   10.3540    4.9499    6.9117 N   0  0  0  0  0  0
    9.2029    4.2125    6.5411 C   0  0  0  0  0  0
   13.5201    1.9626    5.1018 N   0  0  0  0  0  0
   12.6777    1.1626    4.2844 C   0  0  0  0  0  0
   13.2046    0.5109    3.1467 C   0  0  0  0  0  0
   12.3548   -0.2892    2.3580 C   0  0  0  0  0  0
   11.0020   -0.4373    2.6595 C   0  0  0  0  0  0
   10.4888    0.2282    3.7770 C   0  0  0  0  0  0
   11.3175    0.9943    4.5868 C   0  0  0  0  0  0
    9.0964    3.6810    5.2469 C   0  0  0  0  0  0
    8.0354    2.8523    4.8996 C   0  0  0  0  0  0
    7.0601    2.5406    5.8352 C   0  0  0  0  0  0
    7.1235    3.0963    7.1080 C   0  0  0  0  0  0
    8.1678    3.9603    7.4672 C   0  0  0  0  0  0
    8.1668    4.5839    8.7276 N   0  0  0  0  0  0
    5.6603    3.9884   10.0119 C   0  0  0  0  0  0
   14.5512    0.6719    2.8768 O   0  0  0  0  0  0
   10.2534   -1.2338    1.8161 O   0  0  0  0  0  0
   15.1570   -0.1936    1.9274 C   0  0  0  0  0  0
    8.8712   -1.4375    2.1044 C   0  0  0  0  0  0
   14.6880    5.2416    7.8624 H   0  0  0  0  0  0
   10.2422    5.6259    7.6474 H   0  0  0  0  0  0
   14.5020    1.7209    5.0581 H   0  0  0  0  0  0
   12.7233   -0.8077    1.4877 H   0  0  0  0  0  0
    9.4427    0.1627    4.0338 H   0  0  0  0  0  0
   10.8737    1.4354    5.4644 H   0  0  0  0  0  0
    9.8521    3.8872    4.5023 H   0  0  0  0  0  0
    7.9742    2.4308    3.9096 H   0  0  0  0  0  0
    6.2530    1.8714    5.5704 H   0  0  0  0  0  0
    6.3409    2.8436    7.7995 H   0  0  0  0  0  0
    8.6859    5.4379    8.8458 H   0  0  0  0  0  0
    5.2545    4.2611   10.9829 H   0  0  0  0  0  0
    5.4198    4.7589    9.2812 H   0  0  0  0  0  0
    5.2597    3.0208    9.7144 H   0  0  0  0  0  0
   16.2270    0.0102    1.8926 H   0  0  0  0  0  0
   15.0307   -1.2408    2.2064 H   0  0  0  0  0  0
   14.7387   -0.0434    0.9327 H   0  0  0  0  0  0
    8.4418   -2.1079    1.3606 H   0  0  0  0  0  0
    8.3092   -0.5030    2.0680 H   0  0  0  0  0  0
    8.7281   -1.8999    3.0823 H   0  0  0  0  0  0
  1  2  2  0  0  0
  1  3  2  0  0  0
  1 24  1  0  0  0
  1 25  1  0  0  0
  4  5  2  0  0  0
  4  9  1  0  0  0
  5  6  1  0  0  0
  5 12  1  0  0  0
  6  7  2  0  0  0
  7  8  1  0  0  0
  7 10  1  0  0  0
  8  9  2  0  0  0
  9 30  1  0  0  0
 10 11  1  0  0  0
 10 31  1  0  0  0
 11 19  2  0  0  0
 11 23  1  0  0  0
 12 13  1  0  0  0
 12 32  1  0  0  0
 13 14  2  0  0  0
 13 18  1  0  0  0
 14 15  1  0  0  0
 14 26  1  0  0  0
 15 16  2  0  0  0
 15 33  1  0  0  0
 16 17  1  0  0  0
 16 27  1  0  0  0
 17 18  2  0  0  0
 17 34  1  0  0  0
 18 35  1  0  0  0
 19 20  1  0  0  0
 19 36  1  0  0  0
 20 21  2  0  0  0
 20 37  1  0  0  0
 21 22  1  0  0  0
 21 38  1  0  0  0
 22 23  2  0  0  0
 22 39  1  0  0  0
 23 24  1  0  0  0
 24 40  1  0  0  0
 25 41  1  0  0  0
 25 42  1  0  0  0
 25 43  1  0  0  0
 26 28  1  0  0  0
 27 29  1  0  0  0
 28 44  1  0  0  0
 28 45  1  0  0  0
 28 46  1  0  0  0
 29 47  1  0  0  0
 29 48  1  0  0  0
 29 49  1  0  0  0
M  END
> <s_m_entry_id>
47607

> <s_m_entry_name>
dock_pv.140

> <s_m_Source_Path>
/home/csk/Desktop/cluster/DUD-E-result/fak1

> <s_m_Source_File>
dock_pv.maegz

> <i_m_Source_File_Index>
140

> <chembl_id>
CHEMBL2409586

> <chembl_pref_name>
None

> <i_lp_mmshare_version>
53161

> <i_f3d_flags>
0

> <r_lp_tautomer_probability>
0.99999997749453

> <s_lp_Force_Field>
OPLS_2005

> <r_lp_Energy>
0.049869

> <b_lp_Chiralities_Consistent>
1

> <s_lp_Variant>
CHEMBL2695_lig372-1

> <s_i_glide_gridfile>
glide-grid_3bz3

> <i_i_glide_lignum>
419

> <i_i_glide_rotatable_bonds>
8

> <r_i_docking_score>
-7.73577988079885

> <r_i_glide_ligand_efficiency>
-0.266751030372374

> <r_i_glide_ligand_efficiency_sa>
-0.8195436779622

> <r_i_glide_ligand_efficiency_ln>
-1.77129743025052

> <r_i_glide_gscore>
-7.73577988079885

> <r_i_glide_lipo>
-1.45992025572349

> <r_i_glide_hbond>
-0.501007858830306

> <r_i_glide_metal>
0

> <r_i_glide_rewards>
-2.77200570009257

> <r_i_glide_evdw>
-44.1340789794922

> <r_i_glide_ecoul>
-9.10464286804199

> <r_i_glide_erotb>
0.569554313028426

> <r_i_glide_esite>
0

> <r_i_glide_emodel>
-71.8170615933099

> <r_i_glide_energy>
-53.2387218475342

> <r_i_glide_einternal>
9.21650218963623

> <i_i_glide_confnum>
5

> <i_i_glide_posenum>
203

> <r_i_glide_eff_state_penalty>
0

> <s_user_duplicate_titles>
CHEMBL2695_lig372

> <s_m_subgroup_title>
dock_pv

> <s_m_subgroupid>
dock_pv

> <b_m_subgroup_collapsed>
1

$$$$
CHEMBL2695_lig630
                    3D
 Schrodinger Suite 2021-1.
 55 59  0  0  1  0            999 V2000
    5.1273    3.7409    9.4634 C   0  0  0  0  0  0
    6.5214    4.0216    9.5230 O   0  0  0  0  0  0
    7.2499    4.0907    8.3498 C   0  0  0  0  0  0
    6.7385    3.7588    7.0854 C   0  0  0  0  0  0
    7.5288    3.8926    5.9475 C   0  0  0  0  0  0
    8.8340    4.3630    6.0578 C   0  0  0  0  0  0
    9.3775    4.7029    7.3049 C   0  0  0  0  0  0
    8.5707    4.5447    8.4482 C   0  0  0  0  0  0
    9.0661    4.8354    9.6770 F   0  0  0  0  0  0
   10.7946    5.1630    7.4088 C   0  0  0  0  0  0
   11.1918    6.1862    8.2899 C   0  0  0  0  0  0
   12.5320    6.4819    8.5319 C   0  0  0  0  0  0
   13.5220    5.7317    7.9100 C   0  0  0  0  0  0
   13.1495    4.7630    7.0274 N   0  0  0  0  0  0
   13.9497    3.8500    6.4359 N   0  0  0  0  0  0
   13.0851    3.0679    5.8202 C   0  0  0  0  0  0
   13.5220    1.9934    5.0831 N   0  0  0  0  0  0
   12.7615    1.1630    4.2337 C   0  0  0  0  0  0
   13.3824    0.5964    3.1112 C   0  0  0  0  0  0
   12.6876   -0.3041    2.3013 C   0  0  0  0  0  0
   11.3545   -0.6257    2.5853 C   0  0  0  0  0  0
   10.7220   -0.0252    3.6729 C   0  0  0  0  0  0
   11.4205    0.8450    4.4970 C   0  0  0  0  0  0
   10.6011   -1.6798    1.7704 C   0  0  0  0  0  0
   10.5080   -3.0211    2.5352 C   0  0  0  0  0  0
    9.6517   -4.0627    1.7890 C   0  0  0  0  0  0
    8.3220   -3.5266    1.5090 N   0  0  2  0  0  0
    8.4076   -2.3666    0.6215 C   0  0  0  0  0  0
    9.1988   -1.2223    1.2897 C   0  0  0  0  0  0
   11.8130    3.4037    5.9090 N   0  0  0  0  0  0
   11.8217    4.4688    6.7319 C   0  0  0  0  0  0
    4.6804    3.9630   10.4308 H   0  0  0  0  0  0
    4.6107    4.3630    8.7309 H   0  0  0  0  0  0
    4.9463    2.6896    9.2354 H   0  0  0  0  0  0
    5.7309    3.3901    6.9677 H   0  0  0  0  0  0
    7.1310    3.6277    4.9785 H   0  0  0  0  0  0
    9.4287    4.4569    5.1603 H   0  0  0  0  0  0
   10.4575    6.7233    8.8674 H   0  0  0  0  0  0
   12.7990    7.2458    9.2491 H   0  0  0  0  0  0
   14.5693    5.8081    8.1277 H   0  0  0  0  0  0
   14.5162    1.8406    5.0064 H   0  0  0  0  0  0
   14.4165    0.8183    2.8922 H   0  0  0  0  0  0
   13.1955   -0.7644    1.4671 H   0  0  0  0  0  0
    9.6946   -0.2538    3.9090 H   0  0  0  0  0  0
   10.9041    1.2284    5.3624 H   0  0  0  0  0  0
   11.2043   -1.8448    0.8754 H   0  0  0  0  0  0
   11.5067   -3.4480    2.6361 H   0  0  0  0  0  0
   10.1139   -2.8917    3.5442 H   0  0  0  0  0  0
   10.1304   -4.3619    0.8547 H   0  0  0  0  0  0
    9.5420   -4.9613    2.3961 H   0  0  0  0  0  0
    7.9033   -3.2317    2.3894 H   0  0  0  0  0  0
    8.8694   -2.6587   -0.3233 H   0  0  0  0  0  0
    7.3935   -2.0356    0.3932 H   0  0  0  0  0  0
    8.5857   -0.7987    2.0857 H   0  0  0  0  0  0
    9.3160   -0.4370    0.5423 H   0  0  0  0  0  0
  1  2  1  0  0  0
  1 32  1  0  0  0
  1 33  1  0  0  0
  1 34  1  0  0  0
  2  3  1  0  0  0
  3  4  2  0  0  0
  3  8  1  0  0  0
  4  5  1  0  0  0
  4 35  1  0  0  0
  5  6  2  0  0  0
  5 36  1  0  0  0
  6  7  1  0  0  0
  6 37  1  0  0  0
  7  8  2  0  0  0
  7 10  1  0  0  0
  8  9  1  0  0  0
 10 11  2  0  0  0
 10 31  1  0  0  0
 11 12  1  0  0  0
 11 38  1  0  0  0
 12 13  2  0  0  0
 12 39  1  0  0  0
 13 14  1  0  0  0
 13 40  1  0  0  0
 14 15  1  0  0  0
 14 31  1  0  0  0
 15 16  2  0  0  0
 16 17  1  0  0  0
 16 30  1  0  0  0
 17 18  1  0  0  0
 17 41  1  0  0  0
 18 19  2  0  0  0
 18 23  1  0  0  0
 19 20  1  0  0  0
 19 42  1  0  0  0
 20 21  2  0  0  0
 20 43  1  0  0  0
 21 22  1  0  0  0
 21 24  1  0  0  0
 22 23  2  0  0  0
 22 44  1  0  0  0
 23 45  1  0  0  0
 24 25  1  0  0  0
 24 29  1  0  0  0
 24 46  1  0  0  0
 25 26  1  0  0  0
 25 47  1  0  0  0
 25 48  1  0  0  0
 26 27  1  0  0  0
 26 49  1  0  0  0
 26 50  1  0  0  0
 27 28  1  0  0  0
 27 51  1  0  0  0
 28 29  1  0  0  0
 28 52  1  0  0  0
 28 53  1  0  0  0
 29 54  1  0  0  0
 29 55  1  0  0  0
 30 31  2  0  0  0
M  END
> <s_m_entry_id>
47608

> <s_m_entry_name>
dock_pv.141

> <s_m_Source_Path>
/home/csk/Desktop/cluster/DUD-E-result/fak1

> <s_m_Source_File>
dock_pv.maegz

> <i_m_Source_File_Index>
141

> <chembl_id>
CHEMBL3645065

> <chembl_pref_name>
None

> <i_lp_mmshare_version>
53161

> <i_f3d_flags>
0

> <r_lp_tautomer_probability>
1

> <s_lp_Force_Field>
OPLS_2005

> <r_lp_Energy>
35.412165

> <b_lp_Chiralities_Consistent>
1

> <s_lp_Variant>
CHEMBL2695_lig630-1

> <s_i_glide_gridfile>
glide-grid_3bz3

> <i_i_glide_lignum>
684

> <i_i_glide_rotatable_bonds>
5

> <r_i_docking_score>
-7.7329894990347

> <r_i_glide_ligand_efficiency>
-0.24945127416241

> <r_i_glide_ligand_efficiency_sa>
-0.783621405471193

> <r_i_glide_ligand_efficiency_ln>
-1.74402611969933

> <r_i_glide_gscore>
-7.7329894990347

> <r_i_glide_lipo>
-3.11665301001551

> <r_i_glide_hbond>
-0.237420346332706

> <r_i_glide_metal>
0

> <r_i_glide_rewards>
-1.94054663130393

> <r_i_glide_evdw>
-38.2853469848633

> <r_i_glide_ecoul>
-6.51819753646851

> <r_i_glide_erotb>
0.45362746833089

> <r_i_glide_esite>
0

> <r_i_glide_emodel>
-60.7579079992224

> <r_i_glide_energy>
-44.8035445213318

> <r_i_glide_einternal>
4.24256944656372

> <i_i_glide_confnum>
16

> <i_i_glide_posenum>
174

> <r_i_glide_eff_state_penalty>
0

> <s_user_duplicate_titles>
CHEMBL2695_lig630

> <s_m_subgroup_title>
dock_pv

> <s_m_subgroupid>
dock_pv

> <b_m_subgroup_collapsed>
1

$$$$
CHEMBL2695_lig1797
                    3D
 Schrodinger Suite 2021-1.
 38 41  0  0  1  0            999 V2000
    9.7357    4.2069    6.5387 C   0  0  0  0  0  0
   10.5221    3.2691    5.8661 C   0  0  0  0  0  0
   11.9143    3.3205    5.9088 C   0  0  0  0  0  0
   10.3457    5.2380    7.2641 C   0  0  0  0  0  0
   11.7451    5.3213    7.3099 C   0  0  0  0  0  0
   12.5325    4.3582    6.6161 C   0  0  0  0  0  0
   13.9220    5.6011    7.6028 N   0  0  0  0  0  0
   12.7089    6.1534    7.9370 C   0  0  0  0  0  0
    8.2441    4.0860    6.5057 C   0  0  0  0  0  0
    7.6103    3.8619    5.3659 N   0  0  0  0  0  0
    7.3614    4.1771    7.5952 C   0  0  0  0  0  0
    6.1052    3.9880    7.0712 N   0  0  0  0  0  0
    6.2938    3.7969    5.6920 C   0  0  0  0  0  0
    5.2566    3.5873    4.8662 N   0  0  0  0  0  0
    4.0136    3.5582    5.4184 C   0  0  0  0  0  0
    3.7613    3.7438    6.7770 C   0  0  0  0  0  0
    4.8470    3.9624    7.6213 C   0  0  0  0  0  0
    8.0677    3.3820    9.8643 C   0  0  0  0  0  0
    7.4857    1.9794    9.6327 C   0  0  0  0  0  0
    7.8528    3.8475   11.3104 C   0  0  0  0  0  0
   13.8738    4.5325    6.7947 N   0  0  0  0  0  0
    7.5469    4.3726    8.9398 N   0  0  0  0  0  0
   10.0446    2.4701    5.3157 H   0  0  0  0  0  0
   12.5035    2.5661    5.4079 H   0  0  0  0  0  0
    9.7508    5.9533    7.8025 H   0  0  0  0  0  0
   12.6573    7.0200    8.5797 H   0  0  0  0  0  0
    3.1957    3.3963    4.7305 H   0  0  0  0  0  0
    2.7518    3.7235    7.1617 H   0  0  0  0  0  0
    4.7655    4.1210    8.6879 H   0  0  0  0  0  0
    9.1378    3.3286    9.6820 H   0  0  0  0  0  0
    7.9293    1.2474   10.3083 H   0  0  0  0  0  0
    6.4069    1.9710    9.7887 H   0  0  0  0  0  0
    7.6665    1.6257    8.6172 H   0  0  0  0  0  0
    8.3215    3.1584   12.0140 H   0  0  0  0  0  0
    8.2872    4.8331   11.4823 H   0  0  0  0  0  0
    6.7920    3.9114   11.5600 H   0  0  0  0  0  0
   14.8221    5.9668    7.9097 H   0  0  0  0  0  0
    7.7835    5.3037    9.2496 H   0  0  0  0  0  0
  1  2  1  0  0  0
  1  9  1  0  0  0
  1  4  2  0  0  0
  2  3  2  0  0  0
  2 23  1  0  0  0
  3  6  1  0  0  0
  3 24  1  0  0  0
  4 25  1  0  0  0
  4  5  1  0  0  0
  5  6  1  0  0  0
  5  8  2  0  0  0
  6 21  2  0  0  0
  7 37  1  0  0  0
  7 21  1  0  0  0
  7  8  1  0  0  0
  8 26  1  0  0  0
  9 10  1  0  0  0
  9 11  2  0  0  0
 10 13  2  0  0  0
 11 12  1  0  0  0
 11 22  1  0  0  0
 12 13  1  0  0  0
 12 17  1  0  0  0
 13 14  1  0  0  0
 14 15  2  0  0  0
 15 16  1  0  0  0
 15 27  1  0  0  0
 16 17  2  0  0  0
 16 28  1  0  0  0
 17 29  1  0  0  0
 18 19  1  0  0  0
 18 20  1  0  0  0
 18 22  1  0  0  0
 18 30  1  0  0  0
 19 31  1  0  0  0
 19 32  1  0  0  0
 19 33  1  0  0  0
 20 34  1  0  0  0
 20 35  1  0  0  0
 20 36  1  0  0  0
 22 38  1  0  0  0
M  END
> <s_m_entry_id>
47609

> <s_m_entry_name>
dock_pv.142

> <s_m_Source_Path>
/home/csk/Desktop/cluster/DUD-E-result/fak1

> <s_m_Source_File>
dock_pv.maegz

> <i_m_Source_File_Index>
142

> <chembl_id>
CHEMBL1682553

> <chembl_pref_name>
None

> <i_lp_mmshare_version>
53161

> <i_f3d_flags>
0

> <r_lp_tautomer_probability>
0.0196078431372549

> <s_lp_Force_Field>
OPLS_2005

> <r_lp_Energy>
32.711049

> <b_lp_Chiralities_Consistent>
1

> <s_lp_Variant>
CHEMBL2695_lig1797-2

> <s_i_glide_gridfile>
glide-grid_3bz3

> <i_i_glide_lignum>
2061

> <i_i_glide_rotatable_bonds>
3

> <r_i_docking_score>
-7.73029989117387

> <r_i_glide_ligand_efficiency>
-0.35137726778063

> <r_i_glide_ligand_efficiency_sa>
-0.984572923205104

> <r_i_glide_ligand_efficiency_ln>
-1.88956726294251

> <r_i_glide_gscore>
-7.73029989117387

> <r_i_glide_lipo>
-2.82799545915436

> <r_i_glide_hbond>
-0.32

> <r_i_glide_metal>
0

> <r_i_glide_rewards>
-2.58655868747433

> <r_i_glide_evdw>
-32.5126991271973

> <r_i_glide_ecoul>
-5.31552362442017

> <r_i_glide_erotb>
0.427217755477707

> <r_i_glide_esite>
0

> <r_i_glide_emodel>
-52.6923215662837

> <r_i_glide_energy>
-37.8282227516174

> <r_i_glide_einternal>
4.3275408744812

> <i_i_glide_confnum>
5

> <i_i_glide_posenum>
60

> <r_i_glide_eff_state_penalty>
0

> <s_user_duplicate_titles>
CHEMBL2695_lig1797,CHEMBL2695_lig1797

> <s_m_subgroup_title>
dock_pv

> <s_m_subgroupid>
dock_pv

> <b_m_subgroup_collapsed>
1

$$$$
CHEMBL2695_lig98
                    3D
 Schrodinger Suite 2021-1.
 35 38  0  0  1  0            999 V2000
    9.5126    1.1879    4.8369 N   0  0  0  0  0  0
    9.1428    2.2930    5.5247 C   0  0  0  0  0  0
    9.9694    3.2265    6.0807 N   0  0  0  0  0  0
   10.8331    0.9277    4.7275 C   0  0  0  0  0  0
   11.7869    1.7953    5.2686 C   0  0  0  0  0  0
   11.2807    2.9701    5.9090 C   0  0  0  0  0  0
   12.3831    3.7370    6.3087 N   0  0  0  0  0  0
   13.5195    3.0322    5.9419 C   0  0  0  0  0  0
   13.2082    1.8404    5.3352 C   0  0  0  0  0  0
    7.7613    2.4209    5.6700 N   0  0  0  0  0  0
   12.4164    5.0078    6.9392 C   0  0  0  0  0  0
   11.4139    5.9615    6.7327 C   0  0  0  0  0  0
   11.5220    7.1945    7.3811 C   0  0  0  0  0  0
   12.5756    7.4264    8.2628 C   0  0  0  0  0  0
   13.5219    6.4207    8.4368 C   0  0  0  0  0  0
   13.4702    5.2381    7.7753 N   0  0  0  0  0  0
    7.0423    2.9245    6.7633 C   0  0  0  0  0  0
    7.2187    2.3358    8.0199 C   0  0  0  0  0  0
    6.4698    2.7622    9.1160 C   0  0  0  0  0  0
    5.5215    3.7688    8.9601 C   0  0  0  0  0  0
    5.3391    4.3629    7.7123 C   0  0  0  0  0  0
    6.1081    3.9623    6.6179 C   0  0  0  0  0  0
    5.8717    4.7715    5.1088 Cl  0  0  0  0  0  0
   11.1148    0.0305    4.1970 H   0  0  0  0  0  0
   14.4892    3.4537    6.1545 H   0  0  0  0  0  0
   13.9223    1.1225    4.9589 H   0  0  0  0  0  0
    7.2738    1.6798    5.1832 H   0  0  0  0  0  0
   10.5839    5.7665    6.0714 H   0  0  0  0  0  0
   10.7756    7.9572    7.2166 H   0  0  0  0  0  0
   12.6602    8.3626    8.7938 H   0  0  0  0  0  0
   14.3559    6.5587    9.1095 H   0  0  0  0  0  0
    7.9218    1.5252    8.1410 H   0  0  0  0  0  0
    6.6049    2.2941   10.0796 H   0  0  0  0  0  0
    4.9283    4.0877    9.8057 H   0  0  0  0  0  0
    4.6080    5.1507    7.6003 H   0  0  0  0  0  0
  1  2  2  0  0  0
  1  4  1  0  0  0
  2  3  1  0  0  0
  2 10  1  0  0  0
  3  6  2  0  0  0
  4  5  2  0  0  0
  4 24  1  0  0  0
  5  9  1  0  0  0
  5  6  1  0  0  0
  6  7  1  0  0  0
  7 11  1  0  0  0
  7  8  1  0  0  0
  8  9  2  0  0  0
  8 25  1  0  0  0
  9 26  1  0  0  0
 10 17  1  0  0  0
 10 27  1  0  0  0
 11 12  2  0  0  0
 11 16  1  0  0  0
 12 13  1  0  0  0
 12 28  1  0  0  0
 13 14  2  0  0  0
 13 29  1  0  0  0
 14 15  1  0  0  0
 14 30  1  0  0  0
 15 16  2  0  0  0
 15 31  1  0  0  0
 17 18  2  0  0  0
 17 22  1  0  0  0
 18 19  1  0  0  0
 18 32  1  0  0  0
 19 20  2  0  0  0
 19 33  1  0  0  0
 20 21  1  0  0  0
 20 34  1  0  0  0
 21 22  2  0  0  0
 21 35  1  0  0  0
 22 23  1  0  0  0
M  END
> <s_m_entry_id>
47610

> <s_m_entry_name>
dock_pv.143

> <s_m_Source_Path>
/home/csk/Desktop/cluster/DUD-E-result/fak1

> <s_m_Source_File>
dock_pv.maegz

> <i_m_Source_File_Index>
143

> <chembl_id>
CHEMBL207935

> <chembl_pref_name>
None

> <i_lp_mmshare_version>
53161

> <i_f3d_flags>
0

> <r_lp_tautomer_probability>
1

> <s_lp_Force_Field>
OPLS_2005

> <r_lp_Energy>
11.71647

> <b_lp_Chiralities_Consistent>
1

> <s_lp_Variant>
CHEMBL2695_lig98-1

> <s_i_glide_gridfile>
glide-grid_3bz3

> <i_i_glide_lignum>
120

> <i_i_glide_rotatable_bonds>
3

> <r_i_docking_score>
-7.72095389947869

> <r_i_glide_ligand_efficiency>
-0.335693647803421

> <r_i_glide_ligand_efficiency_sa>
-0.954668079336286

> <r_i_glide_ligand_efficiency_ln>
-1.86699666263322

> <r_i_glide_gscore>
-7.72095389947869

> <r_i_glide_lipo>
-3.44868473387643

> <r_i_glide_hbond>
0

> <r_i_glide_metal>
0

> <r_i_glide_rewards>
-2.57066316022905

> <r_i_glide_evdw>
-41.0533142089844

> <r_i_glide_ecoul>
-1.00662004947662

> <r_i_glide_erotb>
0.541603989447561

> <r_i_glide_esite>
-0.0395512769500537

> <r_i_glide_emodel>
-54.4893458054244

> <r_i_glide_energy>
-42.059934258461

> <r_i_glide_einternal>
12.0042018890381

> <i_i_glide_confnum>
16

> <i_i_glide_posenum>
226

> <r_i_glide_eff_state_penalty>
0

> <s_user_duplicate_titles>
CHEMBL2695_lig98,344432

> <s_m_subgroup_title>
dock_pv

> <s_m_subgroupid>
dock_pv

> <b_m_subgroup_collapsed>
1

$$$$
CHEMBL2695_lig87
                    3D
 Schrodinger Suite 2021-1.
 42 45  0  0  1  0            999 V2000
    9.6859    1.1873    4.9255 N   0  0  0  0  0  0
    9.2805    2.3077    5.5667 C   0  0  0  0  0  0
   10.0761    3.2992    6.0625 N   0  0  0  0  0  0
   11.0156    0.9639    4.8301 C   0  0  0  0  0  0
   11.9386    1.8779    5.3459 C   0  0  0  0  0  0
   11.3928    3.0659    5.9210 C   0  0  0  0  0  0
   12.4661    3.8708    6.3078 N   0  0  0  0  0  0
   13.6241    3.1798    6.0059 C   0  0  0  0  0  0
   13.3557    1.9613    5.4333 C   0  0  0  0  0  0
   12.4516    5.1309    6.9410 C   0  0  0  0  0  0
   13.3455    5.4040    7.9888 C   0  0  0  0  0  0
   13.2655    6.6340    8.6351 C   0  0  0  0  0  0
   12.3257    7.5654    8.2030 C   0  0  0  0  0  0
   11.5216    7.2492    7.1107 C   0  0  0  0  0  0
   11.5480    6.0413    6.4967 N   0  0  0  0  0  0
    7.8942    2.3699    5.7314 N   0  0  0  0  0  0
    7.0829    2.9740    6.7073 C   0  0  0  0  0  0
    5.7083    3.1393    6.4554 C   0  0  0  0  0  0
    4.8792    3.6446    7.4595 C   0  0  0  0  0  0
    5.3987    3.9628    8.7120 C   0  0  0  0  0  0
    6.7612    3.8168    8.9715 C   0  0  0  0  0  0
    7.5965    3.3202    7.9663 C   0  0  0  0  0  0
    5.0848    2.7501    5.1192 C   0  0  0  0  0  0
    7.3127    4.1667   10.3458 C   0  0  0  0  0  0
    8.3222    5.1578   10.3084 O   0  0  0  0  0  0
   11.3243    0.0563    4.3399 H   0  0  0  0  0  0
   14.5758    3.6302    6.2397 H   0  0  0  0  0  0
   14.0884    1.2390    5.0993 H   0  0  0  0  0  0
   14.0698    4.6750    8.3218 H   0  0  0  0  0  0
   13.9240    6.8589    9.4584 H   0  0  0  0  0  0
   12.2293    8.5144    8.7039 H   0  0  0  0  0  0
   10.7942    7.9549    6.7388 H   0  0  0  0  0  0
    7.4333    1.6037    5.2533 H   0  0  0  0  0  0
    3.8225    3.7808    7.2800 H   0  0  0  0  0  0
    4.7337    4.3357    9.4752 H   0  0  0  0  0  0
    8.6392    3.1664    8.1864 H   0  0  0  0  0  0
    3.9971    2.8505    5.1193 H   0  0  0  0  0  0
    5.4879    3.3636    4.3121 H   0  0  0  0  0  0
    5.3154    1.7101    4.8838 H   0  0  0  0  0  0
    7.7503    3.2659   10.7823 H   0  0  0  0  0  0
    6.5152    4.4891   11.0205 H   0  0  0  0  0  0
    8.1624    5.7691   11.0334 H   0  0  0  0  0  0
  1  2  2  0  0  0
  1  4  1  0  0  0
  2  3  1  0  0  0
  2 16  1  0  0  0
  3  6  2  0  0  0
  4  5  2  0  0  0
  4 26  1  0  0  0
  5  9  1  0  0  0
  5  6  1  0  0  0
  6  7  1  0  0  0
  7  8  1  0  0  0
  7 10  1  0  0  0
  8  9  2  0  0  0
  8 27  1  0  0  0
  9 28  1  0  0  0
 10 15  1  0  0  0
 10 11  2  0  0  0
 11 12  1  0  0  0
 11 29  1  0  0  0
 12 13  2  0  0  0
 12 30  1  0  0  0
 13 14  1  0  0  0
 13 31  1  0  0  0
 14 15  2  0  0  0
 14 32  1  0  0  0
 16 17  1  0  0  0
 16 33  1  0  0  0
 17 18  2  0  0  0
 17 22  1  0  0  0
 18 19  1  0  0  0
 18 23  1  0  0  0
 19 20  2  0  0  0
 19 34  1  0  0  0
 20 21  1  0  0  0
 20 35  1  0  0  0
 21 22  2  0  0  0
 21 24  1  0  0  0
 22 36  1  0  0  0
 23 37  1  0  0  0
 23 38  1  0  0  0
 23 39  1  0  0  0
 24 25  1  0  0  0
 24 40  1  0  0  0
 24 41  1  0  0  0
 25 42  1  0  0  0
M  END
> <s_m_entry_id>
47611

> <s_m_entry_name>
dock_pv.144

> <s_m_Source_Path>
/home/csk/Desktop/cluster/DUD-E-result/fak1

> <s_m_Source_File>
dock_pv.maegz

> <i_m_Source_File_Index>
144

> <chembl_id>
CHEMBL205034

> <chembl_pref_name>
None

> <i_lp_mmshare_version>
53161

> <i_f3d_flags>
0

> <r_lp_tautomer_probability>
1

> <s_lp_Force_Field>
OPLS_2005

> <r_lp_Energy>
10.935144

> <b_lp_Chiralities_Consistent>
1

> <s_lp_Variant>
CHEMBL2695_lig87-1

> <s_i_glide_gridfile>
glide-grid_3bz3

> <i_i_glide_lignum>
109

> <i_i_glide_rotatable_bonds>
5

> <r_i_docking_score>
-7.71497747560744

> <r_i_glide_ligand_efficiency>
-0.308599099024297

> <r_i_glide_ligand_efficiency_sa>
-0.902349238575371

> <r_i_glide_ligand_efficiency_ln>
-1.82868086093728

> <r_i_glide_gscore>
-7.71497747560744

> <r_i_glide_lipo>
-3.26589329193461

> <r_i_glide_hbond>
-0.104937102347485

> <r_i_glide_metal>
0

> <r_i_glide_rewards>
-2.51590593026934

> <r_i_glide_evdw>
-42.7938041687012

> <r_i_glide_ecoul>
-2.24985218048096

> <r_i_glide_erotb>
0.685583276060958

> <r_i_glide_esite>
-0.0366563916097626

> <r_i_glide_emodel>
-61.600599259197

> <r_i_glide_energy>
-45.0436563491821

> <r_i_glide_einternal>
7.07389402389526

> <i_i_glide_confnum>
38

> <i_i_glide_posenum>
377

> <r_i_glide_eff_state_penalty>
0

> <s_user_duplicate_titles>
CHEMBL2695_lig87

> <s_m_subgroup_title>
dock_pv

> <s_m_subgroupid>
dock_pv

> <b_m_subgroup_collapsed>
1

$$$$
CHEMBL2695_lig366
                    3D
 Schrodinger Suite 2021-1.
 48 50  0  0  1  0            999 V2000
   10.9183    2.4119    5.4499 N   0  0  0  0  0  0
    6.6378    4.1405   10.9292 N   0  0  0  0  0  0
    6.3223    3.7885    9.6632 C   0  0  0  0  0  0
    7.1123    4.0044    8.5797 N   0  0  0  0  0  0
    8.2917    4.6140    8.8418 C   0  0  0  0  0  0
    8.7067    5.0189   10.0642 N   0  0  0  0  0  0
    7.8276    4.7620   11.0622 C   0  0  0  0  0  0
    9.1220    4.7630    7.7372 N   0  0  0  0  0  0
   10.4682    5.1455    7.5671 C   0  0  0  0  0  0
    5.0550    3.2266    9.5091 N   0  0  0  0  0  0
    4.3242    2.9765    8.3417 C   0  0  0  0  0  0
    2.9867    3.3684    8.3071 C   0  0  0  0  0  0
    2.2412    3.1944    7.1447 C   0  0  0  0  0  0
    2.8305    2.6263    6.0088 C   0  0  0  0  0  0
    4.1571    2.1881    6.0638 C   0  0  0  0  0  0
    4.9011    2.3617    7.2273 C   0  0  0  0  0  0
   11.1298    5.9744    8.4823 C   0  0  0  0  0  0
   12.5035    6.1880    8.3914 C   0  0  0  0  0  0
   13.2353    5.5622    7.3871 C   0  0  0  0  0  0
   12.5901    4.7601    6.4466 C   0  0  0  0  0  0
   11.2043    4.5618    6.5181 C   0  0  0  0  0  0
   10.5179    3.6928    5.5031 C   0  0  0  0  0  0
   10.3300    1.4106    4.5573 C   0  0  0  0  0  0
    2.0459    2.4533    4.7123 C   0  0  0  0  0  0
    1.1448    3.5634    4.4447 N   0  0  0  0  0  0
    9.6031    4.1568    4.8219 O   0  0  0  0  0  0
    8.8322    1.1527    4.8000 C   0  0  0  0  0  0
   11.6387    2.1038    6.0846 H   0  0  0  0  0  0
    8.0890    5.0876   12.0568 H   0  0  0  0  0  0
    8.7085    4.3554    6.9107 H   0  0  0  0  0  0
    4.5596    3.1415   10.3878 H   0  0  0  0  0  0
    2.5339    3.8425    9.1661 H   0  0  0  0  0  0
    1.2121    3.5229    7.1192 H   0  0  0  0  0  0
    4.6212    1.7192    5.2070 H   0  0  0  0  0  0
    5.9285    2.0280    7.2531 H   0  0  0  0  0  0
   10.5918    6.4521    9.2820 H   0  0  0  0  0  0
   13.0041    6.8221    9.1090 H   0  0  0  0  0  0
   14.3041    5.7156    7.3269 H   0  0  0  0  0  0
   13.1719    4.3020    5.6584 H   0  0  0  0  0  0
   10.8804    0.4770    4.6785 H   0  0  0  0  0  0
   10.4791    1.7161    3.5203 H   0  0  0  0  0  0
    2.7323    2.3432    3.8691 H   0  0  0  0  0  0
    1.4663    1.5296    4.7725 H   0  0  0  0  0  0
    1.6755    4.4211    4.3020 H   0  0  0  0  0  0
    0.6450    3.4022    3.5828 H   0  0  0  0  0  0
    8.4703    0.3653    4.1382 H   0  0  0  0  0  0
    8.2172    2.0290    4.5969 H   0  0  0  0  0  0
    8.6425    0.8319    5.8241 H   0  0  0  0  0  0
  1 22  1  0  0  0
  1 23  1  0  0  0
  1 28  1  0  0  0
  2  3  2  0  0  0
  2  7  1  0  0  0
  3  4  1  0  0  0
  3 10  1  0  0  0
  4  5  2  0  0  0
  5  6  1  0  0  0
  5  8  1  0  0  0
  6  7  2  0  0  0
  7 29  1  0  0  0
  8  9  1  0  0  0
  8 30  1  0  0  0
  9 17  2  0  0  0
  9 21  1  0  0  0
 10 11  1  0  0  0
 10 31  1  0  0  0
 11 12  2  0  0  0
 11 16  1  0  0  0
 12 13  1  0  0  0
 12 32  1  0  0  0
 13 14  2  0  0  0
 13 33  1  0  0  0
 14 15  1  0  0  0
 14 24  1  0  0  0
 15 16  2  0  0  0
 15 34  1  0  0  0
 16 35  1  0  0  0
 17 18  1  0  0  0
 17 36  1  0  0  0
 18 19  2  0  0  0
 18 37  1  0  0  0
 19 20  1  0  0  0
 19 38  1  0  0  0
 20 21  2  0  0  0
 20 39  1  0  0  0
 21 22  1  0  0  0
 22 26  2  0  0  0
 23 27  1  0  0  0
 23 40  1  0  0  0
 23 41  1  0  0  0
 24 25  1  0  0  0
 24 42  1  0  0  0
 24 43  1  0  0  0
 25 44  1  0  0  0
 25 45  1  0  0  0
 27 46  1  0  0  0
 27 47  1  0  0  0
 27 48  1  0  0  0
M  END
> <s_m_entry_id>
47612

> <s_m_entry_name>
dock_pv.145

> <s_m_Source_Path>
/home/csk/Desktop/cluster/DUD-E-result/fak1

> <s_m_Source_File>
dock_pv.maegz

> <i_m_Source_File_Index>
145

> <chembl_id>
CHEMBL2409593

> <chembl_pref_name>
None

> <i_lp_mmshare_version>
53161

> <i_f3d_flags>
0

> <r_lp_tautomer_probability>
0.99999997749453

> <s_lp_Force_Field>
OPLS_2005

> <r_lp_Energy>
13.33521

> <b_lp_Chiralities_Consistent>
1

> <s_lp_Variant>
CHEMBL2695_lig366-1

> <s_i_glide_gridfile>
glide-grid_3bz3

> <i_i_glide_lignum>
413

> <i_i_glide_rotatable_bonds>
8

> <r_i_docking_score>
-7.70171071643603

> <r_i_glide_ligand_efficiency>
-0.285248545053186

> <r_i_glide_ligand_efficiency_sa>
-0.855745634219427

> <r_i_glide_ligand_efficiency_ln>
-1.7928312821617

> <r_i_glide_gscore>
-7.70171071643603

> <r_i_glide_lipo>
-1.85882670737738

> <r_i_glide_hbond>
-0.660365846150612

> <r_i_glide_metal>
0

> <r_i_glide_rewards>
-3.40035897195637

> <r_i_glide_evdw>
-41.0993499755859

> <r_i_glide_ecoul>
-4.00030374526978

> <r_i_glide_erotb>
0.872853869618094

> <r_i_glide_esite>
0

> <r_i_glide_emodel>
-61.8569030188769

> <r_i_glide_energy>
-45.0996537208557

> <r_i_glide_einternal>
6.51539707183838

> <i_i_glide_confnum>
2

> <i_i_glide_posenum>
177

> <r_i_glide_eff_state_penalty>
0

> <s_user_duplicate_titles>
CHEMBL2695_lig366

> <s_m_subgroup_title>
dock_pv

> <s_m_subgroupid>
dock_pv

> <b_m_subgroup_collapsed>
1

$$$$
CHEMBL2695_lig530
                    3D
 Schrodinger Suite 2021-1.
 54 58  0  0  1  0            999 V2000
    4.8185    1.5779    7.1085 C   0  0  0  0  0  0
    5.0242    3.2129    6.1996 S   0  0  0  0  0  0
    4.8245    2.9877    4.7634 O   0  0  0  0  0  0
    4.2388    4.2273    6.9100 O   0  0  0  0  0  0
    6.7458    3.6238    6.4578 C   0  0  0  0  0  0
    7.6511    3.6041    5.3959 C   0  0  0  0  0  0
    8.9730    3.9847    5.6105 C   0  0  0  0  0  0
    9.4066    4.3763    6.8836 C   0  0  0  0  0  0
    8.4928    4.3559    7.9455 C   0  0  0  0  0  0
    7.1684    3.9860    7.7356 C   0  0  0  0  0  0
   10.8124    4.8189    7.1090 C   0  0  0  0  0  0
   11.1192    5.8829    7.9751 C   0  0  0  0  0  0
   12.4243    6.2843    8.2506 C   0  0  0  0  0  0
   13.4821    5.5947    7.6745 C   0  0  0  0  0  0
   13.2028    4.5479    6.8494 N   0  0  0  0  0  0
   14.0904    3.7003    6.3090 N   0  0  0  0  0  0
   13.3156    2.8694    5.6466 C   0  0  0  0  0  0
   13.8973    1.9630    4.8022 N   0  0  0  0  0  0
   13.2627    1.1324    3.9090 C   0  0  0  0  0  0
   13.8574    0.3626    2.8969 C   0  0  0  0  0  0
   13.0164   -0.4230    2.2570 N   0  0  0  0  0  0
   11.8213   -0.1829    2.8226 N   0  0  0  0  0  0
   11.9218    0.7630    3.8121 C   0  0  0  0  0  0
   10.6031   -0.9178    2.4218 C   0  0  0  0  0  0
   10.4050   -0.8369    0.8968 C   0  0  0  0  0  0
    9.2676   -1.7429    0.3909 C   0  0  0  0  0  0
    9.4858   -3.1296    0.8004 N   0  0  1  0  0  0
    9.5795   -3.2672    2.2533 C   0  0  0  0  0  0
   10.7219   -2.4031    2.8221 C   0  0  0  0  0  0
   12.0094    3.0044    5.8083 N   0  0  0  0  0  0
   11.9076    4.1284    6.5485 C   0  0  0  0  0  0
    3.8010    1.2259    6.9523 H   0  0  0  0  0  0
    5.0054    1.7369    8.1692 H   0  0  0  0  0  0
    5.5266    0.8539    6.7091 H   0  0  0  0  0  0
    7.3365    3.3088    4.4051 H   0  0  0  0  0  0
    9.6587    3.9839    4.7751 H   0  0  0  0  0  0
    8.8007    4.6367    8.9415 H   0  0  0  0  0  0
    6.4694    3.9990    8.5602 H   0  0  0  0  0  0
   10.3220    6.3661    8.5037 H   0  0  0  0  0  0
   12.6124    7.0984    8.9371 H   0  0  0  0  0  0
   14.5175    5.7921    7.8667 H   0  0  0  0  0  0
   14.9010    1.8800    4.8733 H   0  0  0  0  0  0
   14.9121    0.3469    2.6663 H   0  0  0  0  0  0
   11.0525    1.0574    4.3815 H   0  0  0  0  0  0
    9.7757   -0.4400    2.9528 H   0  0  0  0  0  0
   10.0763    0.1795    0.7090 H   0  0  0  0  0  0
   11.3173   -0.9419    0.3092 H   0  0  0  0  0  0
    8.3009   -1.3919    0.7582 H   0  0  0  0  0  0
    9.2278   -1.7138   -0.6987 H   0  0  0  0  0  0
    8.7273   -3.7052    0.4590 H   0  0  0  0  0  0
    8.6253   -2.9955    2.7090 H   0  0  0  0  0  0
    9.7587   -4.3179    2.4847 H   0  0  0  0  0  0
   11.7026   -2.8363    2.6223 H   0  0  0  0  0  0
   10.6140   -2.4592    3.9048 H   0  0  0  0  0  0
  1  2  1  0  0  0
  1 32  1  0  0  0
  1 33  1  0  0  0
  1 34  1  0  0  0
  2  3  2  0  0  0
  2  4  2  0  0  0
  2  5  1  0  0  0
  5  6  2  0  0  0
  5 10  1  0  0  0
  6  7  1  0  0  0
  6 35  1  0  0  0
  7  8  2  0  0  0
  7 36  1  0  0  0
  8  9  1  0  0  0
  8 11  1  0  0  0
  9 10  2  0  0  0
  9 37  1  0  0  0
 10 38  1  0  0  0
 11 12  2  0  0  0
 11 31  1  0  0  0
 12 13  1  0  0  0
 12 39  1  0  0  0
 13 14  2  0  0  0
 13 40  1  0  0  0
 14 15  1  0  0  0
 14 41  1  0  0  0
 15 16  1  0  0  0
 15 31  1  0  0  0
 16 17  2  0  0  0
 17 18  1  0  0  0
 17 30  1  0  0  0
 18 19  1  0  0  0
 18 42  1  0  0  0
 19 20  1  0  0  0
 19 23  2  0  0  0
 20 21  2  0  0  0
 20 43  1  0  0  0
 21 22  1  0  0  0
 22 23  1  0  0  0
 22 24  1  0  0  0
 23 44  1  0  0  0
 24 25  1  0  0  0
 24 29  1  0  0  0
 24 45  1  0  0  0
 25 26  1  0  0  0
 25 46  1  0  0  0
 25 47  1  0  0  0
 26 27  1  0  0  0
 26 48  1  0  0  0
 26 49  1  0  0  0
 27 28  1  0  0  0
 27 50  1  0  0  0
 28 29  1  0  0  0
 28 51  1  0  0  0
 28 52  1  0  0  0
 29 53  1  0  0  0
 29 54  1  0  0  0
 30 31  2  0  0  0
M  END
> <s_m_entry_id>
47613

> <s_m_entry_name>
dock_pv.146

> <s_m_Source_Path>
/home/csk/Desktop/cluster/DUD-E-result/fak1

> <s_m_Source_File>
dock_pv.maegz

> <i_m_Source_File_Index>
146

> <chembl_id>
CHEMBL3644961

> <chembl_pref_name>
None

> <i_lp_mmshare_version>
53161

> <i_f3d_flags>
0

> <r_lp_tautomer_probability>
1

> <s_lp_Force_Field>
OPLS_2005

> <r_lp_Energy>
28.166582

> <b_lp_Chiralities_Consistent>
1

> <s_lp_Variant>
CHEMBL2695_lig530-1

> <s_i_glide_gridfile>
glide-grid_3bz3

> <i_i_glide_lignum>
584

> <i_i_glide_rotatable_bonds>
5

> <r_i_docking_score>
-7.69871658224009

> <r_i_glide_ligand_efficiency>
-0.248345696201293

> <r_i_glide_ligand_efficiency_sa>
-0.780148364258406

> <r_i_glide_ligand_efficiency_ln>
-1.73629652662338

> <r_i_glide_gscore>
-7.69871658224009

> <r_i_glide_lipo>
-2.51968607953116

> <r_i_glide_hbond>
-0.356724728055321

> <r_i_glide_metal>
0

> <r_i_glide_rewards>
-2.53066256966784

> <r_i_glide_evdw>
-38.1472587585449

> <r_i_glide_ecoul>
-5.26219463348389

> <r_i_glide_erotb>
0.416711323412043

> <r_i_glide_esite>
-0.0116623954479817

> <r_i_glide_emodel>
-61.0314370316439

> <r_i_glide_energy>
-43.4094533920288

> <r_i_glide_einternal>
3.33027148246765

> <i_i_glide_confnum>
3

> <i_i_glide_posenum>
172

> <r_i_glide_eff_state_penalty>
0

> <s_user_duplicate_titles>
CHEMBL2695_lig530

> <s_m_subgroup_title>
dock_pv

> <s_m_subgroupid>
dock_pv

> <b_m_subgroup_collapsed>
1

$$$$
CHEMBL2695_lig1913
                    3D
 Schrodinger Suite 2021-1.
 53 55  0  0  1  0            999 V2000
   14.0126    3.5706    6.5008 N   0  0  0  0  0  0
   12.9503    2.9806    5.9087 C   0  0  0  0  0  0
   11.6907    3.4795    5.9094 N   0  0  0  0  0  0
   11.4728    4.6717    6.5273 C   0  0  0  0  0  0
   12.5294    5.3802    7.1382 C   0  0  0  0  0  0
   13.7876    4.7625    7.1091 C   0  0  0  0  0  0
   10.1565    5.1633    6.5568 N   0  0  0  0  0  0
    9.0051    4.3843    6.0941 C   0  0  0  0  0  0
    8.2941    3.6135    7.2287 C   0  0  2  0  0  0
    7.4181    2.4640    6.6748 C   0  0  0  0  0  0
    6.7531    1.6682    7.8201 C   0  0  0  0  0  0
    5.8650    2.5739    8.7113 C   0  0  1  0  0  0
    6.7254    3.7477    9.2569 C   0  0  0  0  0  0
    7.4316    4.5334    8.1271 C   0  0  0  0  0  0
    4.5841    3.0262    7.9666 C   0  0  0  0  0  0
    3.5895    3.5630    8.8797 N   0  0  0  0  0  0
   13.2325    1.8205    5.1734 N   0  0  0  0  0  0
   12.2303    1.1371    4.3399 C   0  0  0  0  0  0
   12.3693    6.6917    7.8026 N   0  3  0  0  0  0
   13.1149    6.9528    8.7402 O   0  0  0  0  0  0
   11.5229    7.4716    7.3798 O   0  5  0  0  0  0
   12.8135    0.3681    3.1329 C   0  0  0  0  0  0
   14.1895    0.3745    2.8460 C   0  0  0  0  0  0
   14.7081   -0.4363    1.8394 C   0  0  0  0  0  0
   13.8607   -1.2412    1.0860 C   0  0  0  0  0  0
   12.4919   -1.2405    1.3417 C   0  0  0  0  0  0
   11.9697   -0.4495    2.3658 C   0  0  0  0  0  0
   10.2806   -0.5729    2.7091 Cl  0  0  0  0  0  0
   14.6507    5.2198    7.5728 H   0  0  0  0  0  0
    9.9884    6.0219    7.0621 H   0  0  0  0  0  0
    8.3051    5.0471    5.5830 H   0  0  0  0  0  0
    9.3075    3.6887    5.3106 H   0  0  0  0  0  0
    9.0522    3.1630    7.8699 H   0  0  0  0  0  0
    6.6654    2.8580    5.9897 H   0  0  0  0  0  0
    8.0226    1.7938    6.0621 H   0  0  0  0  0  0
    7.5220    1.1930    8.4317 H   0  0  0  0  0  0
    6.1584    0.8545    7.3990 H   0  0  0  0  0  0
    5.5665    1.9634    9.5653 H   0  0  0  0  0  0
    7.4746    3.3560    9.9470 H   0  0  0  0  0  0
    6.1057    4.4284    9.8432 H   0  0  0  0  0  0
    8.0498    5.3224    8.5552 H   0  0  0  0  0  0
    6.6940    5.0498    7.5092 H   0  0  0  0  0  0
    4.8066    3.7589    7.1915 H   0  0  0  0  0  0
    4.1314    2.1701    7.4648 H   0  0  0  0  0  0
    3.9219    4.4144    9.3252 H   0  0  0  0  0  0
    2.7629    3.8309    8.3640 H   0  0  0  0  0  0
   14.1463    1.3984    5.2770 H   0  0  0  0  0  0
   11.4346    1.8002    4.0020 H   0  0  0  0  0  0
   11.7204    0.4175    4.9818 H   0  0  0  0  0  0
   14.8811    0.9697    3.4236 H   0  0  0  0  0  0
   15.7723   -0.4439    1.6561 H   0  0  0  0  0  0
   14.2685   -1.8765    0.3149 H   0  0  0  0  0  0
   11.8357   -1.8782    0.7683 H   0  0  0  0  0  0
  1  6  1  0  0  0
  1  2  2  0  0  0
  2 17  1  0  0  0
  2  3  1  0  0  0
  3  4  2  0  0  0
  4  7  1  0  0  0
  4  5  1  0  0  0
  5 19  1  0  0  0
  5  6  2  0  0  0
  6 29  1  0  0  0
  7  8  1  0  0  0
  7 30  1  0  0  0
  8  9  1  0  0  0
  8 31  1  0  0  0
  8 32  1  0  0  0
  9 10  1  0  0  0
  9 14  1  0  0  0
  9 33  1  0  0  0
 10 11  1  0  0  0
 10 34  1  0  0  0
 10 35  1  0  0  0
 11 12  1  0  0  0
 11 36  1  0  0  0
 11 37  1  0  0  0
 12 13  1  0  0  0
 12 15  1  0  0  0
 12 38  1  0  0  0
 13 14  1  0  0  0
 13 39  1  0  0  0
 13 40  1  0  0  0
 14 41  1  0  0  0
 14 42  1  0  0  0
 15 16  1  0  0  0
 15 43  1  0  0  0
 15 44  1  0  0  0
 16 45  1  0  0  0
 16 46  1  0  0  0
 17 18  1  0  0  0
 17 47  1  0  0  0
 18 22  1  0  0  0
 18 48  1  0  0  0
 18 49  1  0  0  0
 19 20  2  0  0  0
 19 21  1  0  0  0
 22 23  2  0  0  0
 22 27  1  0  0  0
 23 24  1  0  0  0
 23 50  1  0  0  0
 24 25  2  0  0  0
 24 51  1  0  0  0
 25 26  1  0  0  0
 25 52  1  0  0  0
 26 27  2  0  0  0
 26 53  1  0  0  0
 27 28  1  0  0  0
M  CHG  2  19   1  21  -1
M  END
> <s_m_entry_id>
47614

> <s_m_entry_name>
dock_pv.147

> <s_m_Source_Path>
/home/csk/Desktop/cluster/DUD-E-result/fak1

> <s_m_Source_File>
dock_pv.maegz

> <i_m_Source_File_Index>
147

> <chembl_id>
CHEMBL246970

> <chembl_pref_name>
None

> <i_lp_mmshare_version>
53161

> <i_f3d_flags>
0

> <r_lp_tautomer_probability>
0.999999624730965

> <s_lp_Force_Field>
OPLS_2005

> <r_lp_Energy>
23.288044

> <b_lp_Chiralities_Consistent>
1

> <s_lp_Variant>
CHEMBL2695_lig1913-2

> <s_i_glide_gridfile>
glide-grid_3bz3

> <i_i_glide_lignum>
2229

> <i_i_glide_rotatable_bonds>
8

> <r_i_docking_score>
-7.6979738276747

> <r_i_glide_ligand_efficiency>
-0.274927636702668

> <r_i_glide_ligand_efficiency_sa>
-0.834842228747872

> <r_i_glide_ligand_efficiency_ln>
-1.77691838176019

> <r_i_glide_gscore>
-7.6979738276747

> <r_i_glide_lipo>
-2.56131004064606

> <r_i_glide_hbond>
-0.71314201585762

> <r_i_glide_metal>
0

> <r_i_glide_rewards>
-2.26771805010586

> <r_i_glide_evdw>
-43.2868995666504

> <r_i_glide_ecoul>
-4.73691987991333

> <r_i_glide_erotb>
0.719079239254349

> <r_i_glide_esite>
0

> <r_i_glide_emodel>
-66.0862697486486

> <r_i_glide_energy>
-48.0238194465637

> <r_i_glide_einternal>
5.84025812149048

> <i_i_glide_confnum>
11

> <i_i_glide_posenum>
45

> <r_i_glide_eff_state_penalty>
0

> <s_user_duplicate_titles>
CHEMBL2695_lig1913

> <s_m_subgroup_title>
dock_pv

> <s_m_subgroupid>
dock_pv

> <b_m_subgroup_collapsed>
1

$$$$
CHEMBL2695_lig2103
                    3D
 Schrodinger Suite 2021-1.
 44 47  0  0  1  0            999 V2000
   12.4883    6.8650    8.7086 O   0  0  0  0  0  0
    3.9256    5.5587    7.1096 O   0  0  0  0  0  0
   14.9363   -1.3034    1.1104 O   0  0  0  0  0  0
    8.3664    1.5608    4.7182 N   0  0  0  0  0  0
    9.5275    1.0222    4.3691 N   0  0  0  0  0  0
   11.7848    1.4845    4.7601 N   0  0  0  0  0  0
    9.8658    2.8611    5.6429 C   0  0  0  0  0  0
    8.4845    2.6853    5.4763 C   0  0  0  0  0  0
   10.4461    1.7746    4.9179 C   0  0  0  0  0  0
   10.5489    3.9628    6.4203 C   0  0  0  0  0  0
    7.2798    3.4334    5.9105 C   0  0  0  0  0  0
    9.8982    4.5862    7.4965 C   0  0  0  0  0  0
   11.8545    4.3663    6.1094 C   0  0  0  0  0  0
   12.4900    0.7911    3.7475 C   0  0  0  0  0  0
    6.7961    4.4761    5.1176 C   0  0  0  0  0  0
    6.6230    3.0810    7.0922 C   0  0  0  0  0  0
   10.5421    5.5630    8.2523 C   0  0  0  0  0  0
   12.5034    5.3330    6.8753 C   0  0  0  0  0  0
   11.8443    5.9326    7.9418 C   0  0  0  0  0  0
    5.6527    5.1647    5.5108 C   0  0  0  0  0  0
    5.4973    3.7950    7.4996 C   0  0  0  0  0  0
    5.0172    4.8355    6.7062 C   0  0  0  0  0  0
   11.9218   -0.0890    2.8137 C   0  0  0  0  0  0
   13.8693    1.0247    3.7090 C   0  0  0  0  0  0
   14.1159   -0.5699    1.9263 C   0  0  0  0  0  0
   12.7371   -0.7663    1.9061 C   0  0  0  0  0  0
   14.6819    0.3426    2.8105 C   0  0  0  0  0  0
   13.4032    6.9908    8.4452 H   0  0  0  0  0  0
    3.6489    5.3634    8.0092 H   0  0  0  0  0  0
   15.7553   -1.5236    1.5731 H   0  0  0  0  0  0
    7.4872    1.1381    4.4482 H   0  0  0  0  0  0
   12.4198    1.9726    5.3708 H   0  0  0  0  0  0
    8.9030    4.2956    7.7867 H   0  0  0  0  0  0
   12.3904    3.9351    5.2812 H   0  0  0  0  0  0
    7.3030    4.7491    4.2029 H   0  0  0  0  0  0
    6.9913    2.2654    7.6997 H   0  0  0  0  0  0
   10.0393    6.0036    9.0993 H   0  0  0  0  0  0
   13.5223    5.6071    6.6461 H   0  0  0  0  0  0
    5.2680    5.9700    4.9014 H   0  0  0  0  0  0
    5.0043    3.5335    8.4238 H   0  0  0  0  0  0
   10.8623   -0.2851    2.7914 H   0  0  0  0  0  0
   14.3333    1.7027    4.4104 H   0  0  0  0  0  0
   12.2996   -1.4680    1.2133 H   0  0  0  0  0  0
   15.7501    0.4955    2.8322 H   0  0  0  0  0  0
  1 19  1  0  0  0
  1 28  1  0  0  0
  2 22  1  0  0  0
  2 29  1  0  0  0
  3 25  1  0  0  0
  3 30  1  0  0  0
  4  8  1  0  0  0
  4 31  1  0  0  0
  4  5  1  0  0  0
  5  9  2  0  0  0
  6  9  1  0  0  0
  6 14  1  0  0  0
  6 32  1  0  0  0
  7  9  1  0  0  0
  7  8  2  0  0  0
  7 10  1  0  0  0
  8 11  1  0  0  0
 10 12  2  0  0  0
 10 13  1  0  0  0
 11 15  2  0  0  0
 11 16  1  0  0  0
 12 17  1  0  0  0
 12 33  1  0  0  0
 13 18  2  0  0  0
 13 34  1  0  0  0
 14 23  2  0  0  0
 14 24  1  0  0  0
 15 20  1  0  0  0
 15 35  1  0  0  0
 16 21  2  0  0  0
 16 36  1  0  0  0
 17 19  2  0  0  0
 17 37  1  0  0  0
 18 19  1  0  0  0
 18 38  1  0  0  0
 20 22  2  0  0  0
 20 39  1  0  0  0
 21 22  1  0  0  0
 21 40  1  0  0  0
 23 26  1  0  0  0
 23 41  1  0  0  0
 24 27  2  0  0  0
 24 42  1  0  0  0
 25 26  2  0  0  0
 25 27  1  0  0  0
 26 43  1  0  0  0
 27 44  1  0  0  0
M  END
> <s_m_entry_id>
47615

> <s_m_entry_name>
dock_pv.148

> <s_m_Source_Path>
/home/csk/Desktop/cluster/DUD-E-result/fak1

> <s_m_Source_File>
dock_pv.maegz

> <i_m_Source_File_Index>
148

> <chembl_id>
CHEMBL1969042

> <chembl_pref_name>
None

> <i_lp_mmshare_version>
53161

> <i_f3d_flags>
0

> <r_lp_tautomer_probability>
0.842599999160493

> <s_lp_Force_Field>
OPLS_2005

> <r_lp_Energy>
19.257316

> <b_lp_Chiralities_Consistent>
1

> <s_lp_Variant>
CHEMBL2695_lig2103-1

> <s_i_glide_gridfile>
glide-grid_3bz3

> <i_i_glide_lignum>
2532

> <i_i_glide_rotatable_bonds>
7

> <r_i_docking_score>
-7.68686765259233

> <r_i_glide_ligand_efficiency>
-0.284698801947864

> <r_i_glide_ligand_efficiency_sa>
-0.854096404905271

> <r_i_glide_ligand_efficiency_ln>
-1.78937606160592

> <r_i_glide_gscore>
-7.68686765259233

> <r_i_glide_lipo>
-3.75845970950173

> <r_i_glide_hbond>
-0.377531548820145

> <r_i_glide_metal>
0

> <r_i_glide_rewards>
-1.06711983333333

> <r_i_glide_evdw>
-36.8050804138184

> <r_i_glide_ecoul>
-7.8233904838562

> <r_i_glide_erotb>
0.593614415198765

> <r_i_glide_esite>
-0.0636083828665369

> <r_i_glide_emodel>
-59.3078612911003

> <r_i_glide_energy>
-44.6284708976746

> <r_i_glide_einternal>
10.7630968093872

> <i_i_glide_confnum>
17

> <i_i_glide_posenum>
164

> <r_i_glide_eff_state_penalty>
0

> <s_user_duplicate_titles>
CHEMBL2695_lig2103

> <s_m_subgroup_title>
dock_pv

> <s_m_subgroupid>
dock_pv

> <b_m_subgroup_collapsed>
1

$$$$
CHEMBL2695_lig2031
                    3D
 Schrodinger Suite 2021-1.
 45 50  0  0  1  0            999 V2000
   13.4460    1.5830    5.5716 F   0  0  0  0  0  0
    1.9279   -0.6824    8.0346 F   0  0  0  0  0  0
   12.7910    4.0542    6.3420 O   0  0  0  0  0  0
   10.4692    5.7847    9.5090 O   0  0  0  0  0  0
    9.1216    4.7627    7.8703 N   0  0  0  0  0  0
    4.9323    2.8357    6.3432 N   0  0  0  0  0  0
    7.0152    3.7972    6.9503 N   0  0  0  0  0  0
    8.4980    4.7370    9.9551 N   0  0  0  0  0  0
    5.4038    3.1535    8.6551 N   0  0  0  0  0  0
    3.9763    2.7634    4.2842 N   0  0  0  0  0  0
    7.8444    4.2035    7.9454 C   0  0  0  0  0  0
    9.9496    4.9148    6.6283 C   0  0  2  0  0  0
    7.4894    4.1508    9.2616 C   0  0  0  0  0  0
    9.4776    5.1630    9.1328 C   0  0  0  0  0  0
    5.8216    3.2659    7.3567 C   0  0  0  0  0  0
   10.3952    3.6096    5.9506 C   0  0  0  0  0  0
    3.9350    1.8676    6.4093 C   0  0  0  0  0  0
   11.7536    3.2207    5.9642 C   0  0  0  0  0  0
    6.2542    3.6094    9.6157 C   0  0  0  0  0  0
    3.3656    1.8584    5.1054 C   0  0  0  0  0  0
   11.1788    5.8723    6.6582 C   0  0  0  0  0  0
    4.8872    3.3094    5.0439 C   0  0  0  0  0  0
    9.4938    2.7548    5.3001 C   0  0  0  0  0  0
   12.1491    1.9626    5.5083 C   0  0  0  0  0  0
    3.4702    1.0099    7.4198 C   0  0  0  0  0  0
   12.4483    5.1644    7.1651 C   0  0  0  0  0  0
    2.3092    0.9876    4.8071 C   0  0  0  0  0  0
    2.4153    0.1559    7.0917 C   0  0  0  0  0  0
   11.2138    1.1148    4.9212 C   0  0  0  0  0  0
    9.8914    1.5217    4.7923 C   0  0  0  0  0  0
    1.8470    0.1444    5.8182 C   0  0  0  0  0  0
    8.4756    4.9312   10.9449 H   0  0  0  0  0  0
    9.2324    5.3864    5.9544 H   0  0  0  0  0  0
    5.9090    3.5491   10.6388 H   0  0  0  0  0  0
   11.4204    6.1997    5.6476 H   0  0  0  0  0  0
   10.9793    6.7772    7.2320 H   0  0  0  0  0  0
    5.5696    4.0865    4.7310 H   0  0  0  0  0  0
    8.4635    3.0334    5.1644 H   0  0  0  0  0  0
    3.9038    0.9934    8.4083 H   0  0  0  0  0  0
   13.2881    5.8603    7.1739 H   0  0  0  0  0  0
   12.3242    4.8091    8.1845 H   0  0  0  0  0  0
    1.8691    0.9703    3.8205 H   0  0  0  0  0  0
   11.5187    0.1574    4.5290 H   0  0  0  0  0  0
    9.1683    0.8838    4.3030 H   0  0  0  0  0  0
    1.0344   -0.5361    5.6114 H   0  0  0  0  0  0
  1 24  1  0  0  0
  2 28  1  0  0  0
  3 18  1  0  0  0
  3 26  1  0  0  0
  4 14  2  0  0  0
  5 11  1  0  0  0
  5 12  1  0  0  0
  5 14  1  0  0  0
  6 15  1  0  0  0
  6 17  1  0  0  0
  6 22  1  0  0  0
  7 11  2  0  0  0
  7 15  1  0  0  0
  8 13  1  0  0  0
  8 14  1  0  0  0
  8 32  1  0  0  0
  9 15  2  0  0  0
  9 19  1  0  0  0
 10 20  1  0  0  0
 10 22  2  0  0  0
 11 13  1  0  0  0
 12 16  1  0  0  0
 12 21  1  0  0  0
 12 33  1  0  0  0
 13 19  2  0  0  0
 16 18  1  0  0  0
 16 23  2  0  0  0
 17 20  1  0  0  0
 17 25  2  0  0  0
 18 24  2  0  0  0
 19 34  1  0  0  0
 20 27  2  0  0  0
 21 26  1  0  0  0
 21 35  1  0  0  0
 21 36  1  0  0  0
 22 37  1  0  0  0
 23 30  1  0  0  0
 23 38  1  0  0  0
 24 29  1  0  0  0
 25 28  1  0  0  0
 25 39  1  0  0  0
 26 40  1  0  0  0
 26 41  1  0  0  0
 27 31  1  0  0  0
 27 42  1  0  0  0
 28 31  2  0  0  0
 29 30  2  0  0  0
 29 43  1  0  0  0
 30 44  1  0  0  0
 31 45  1  0  0  0
M  END
> <s_m_entry_id>
47616

> <s_m_entry_name>
dock_pv.149

> <s_m_Source_Path>
/home/csk/Desktop/cluster/DUD-E-result/fak1

> <s_m_Source_File>
dock_pv.maegz

> <i_m_Source_File_Index>
149

> <chembl_id>
CHEMBL2000393

> <chembl_pref_name>
None

> <i_lp_mmshare_version>
53161

> <i_f3d_flags>
0

> <r_lp_tautomer_probability>
1

> <s_lp_Force_Field>
OPLS_2005

> <r_lp_Energy>
37.783059

> <b_lp_Chiralities_Consistent>
1

> <s_lp_Variant>
CHEMBL2695_lig2031-1

> <s_i_glide_gridfile>
glide-grid_3bz3

> <i_i_glide_lignum>
2410

> <i_i_glide_rotatable_bonds>
2

> <r_i_docking_score>
-7.6753147554036

> <r_i_glide_ligand_efficiency>
-0.247590798561406

> <r_i_glide_ligand_efficiency_sa>
-0.777776943420645

> <r_i_glide_ligand_efficiency_ln>
-1.73101869749189

> <r_i_glide_gscore>
-7.6753147554036

> <r_i_glide_lipo>
-2.43932676249779

> <r_i_glide_hbond>
-0.32

> <r_i_glide_metal>
0

> <r_i_glide_rewards>
-2.26575876666545

> <r_i_glide_evdw>
-39.4282493591309

> <r_i_glide_ecoul>
-5.698486328125

> <r_i_glide_erotb>
0.22400050772532

> <r_i_glide_esite>
-0.0480443167903827

> <r_i_glide_emodel>
-58.9208113800649

> <r_i_glide_energy>
-45.1267356872559

> <r_i_glide_einternal>
9.47715759277344

> <i_i_glide_confnum>
8

> <i_i_glide_posenum>
112

> <r_i_glide_eff_state_penalty>
0

> <s_user_duplicate_titles>
CHEMBL2695_lig2031

> <s_m_subgroup_title>
dock_pv

> <s_m_subgroupid>
dock_pv

> <b_m_subgroup_collapsed>
1

$$$$
CHEMBL2695_lig210
                    3D
 Schrodinger Suite 2021-1.
 41 44  0  0  1  0            999 V2000
   13.8584    0.9857    3.6530 C   0  0  0  0  0  0
   13.1326    1.5628    4.7083 C   0  0  0  0  0  0
   11.7610    1.2707    4.8410 C   0  0  0  0  0  0
   11.1199    0.4345    3.9232 C   0  0  0  0  0  0
   13.2172    0.1354    2.7506 C   0  0  0  0  0  0
   11.8694   -0.1299    2.8927 C   0  0  0  0  0  0
   11.4774   -1.0319    1.9179 N   0  0  0  0  0  0
   12.4946   -1.4244    1.1310 C   0  0  0  0  0  0
   13.7313   -0.6543    1.5914 C   0  0  0  0  0  0
   12.4584   -2.2414    0.2147 O   0  0  0  0  0  0
   13.8269    2.4045    5.5815 N   0  0  0  0  0  0
   13.4038    3.5299    6.2955 C   0  0  0  0  0  0
   12.1427    3.9969    6.1141 N   0  0  0  0  0  0
   11.7594    5.0842    6.8339 C   0  0  0  0  0  0
   12.6491    5.7172    7.7120 C   0  0  0  0  0  0
   13.9219    5.1606    7.8380 C   0  0  0  0  0  0
   14.3220    4.0785    7.1233 N   0  0  0  0  0  0
   10.4443    5.5569    6.7067 N   0  0  0  0  0  0
    9.4118    4.8150    5.9699 C   0  0  0  0  0  0
    8.6220    3.8322    6.8336 C   0  0  0  0  0  0
    8.2286    2.5895    6.3178 C   0  0  0  0  0  0
    7.4384    1.7519    7.1111 C   0  0  0  0  0  0
    7.0498    2.1819    8.3814 C   0  0  0  0  0  0
    7.4678    3.4382    8.8221 C   0  0  0  0  0  0
    8.2421    4.2611    8.0704 N   0  0  0  0  0  0
   12.1881    7.2728    8.7084 Br  0  0  0  0  0  0
   14.9177    1.1747    3.5573 H   0  0  0  0  0  0
   11.1844    1.6848    5.6541 H   0  0  0  0  0  0
   10.0658    0.2242    4.0340 H   0  0  0  0  0  0
   10.5388   -1.3896    1.8186 H   0  0  0  0  0  0
   14.0923   -0.0197    0.7836 H   0  0  0  0  0  0
   14.5102   -1.3573    1.8894 H   0  0  0  0  0  0
   14.8094    2.1890    5.6596 H   0  0  0  0  0  0
   14.6374    5.5666    8.5370 H   0  0  0  0  0  0
   10.1396    6.2805    7.3398 H   0  0  0  0  0  0
    9.8595    4.2745    5.1346 H   0  0  0  0  0  0
    8.7180    5.5149    5.5042 H   0  0  0  0  0  0
    8.5196    2.2776    5.3252 H   0  0  0  0  0  0
    7.1245    0.7757    6.7516 H   0  0  0  0  0  0
    6.4345    1.5579    9.0113 H   0  0  0  0  0  0
    7.1776    3.8049    9.7957 H   0  0  0  0  0  0
  1  5  1  0  0  0
  1  2  2  0  0  0
  1 27  1  0  0  0
  2  3  1  0  0  0
  2 11  1  0  0  0
  3  4  2  0  0  0
  3 28  1  0  0  0
  4  6  1  0  0  0
  4 29  1  0  0  0
  5  9  1  0  0  0
  5  6  2  0  0  0
  6  7  1  0  0  0
  7  8  1  0  0  0
  7 30  1  0  0  0
  8  9  1  0  0  0
  8 10  2  0  0  0
  9 31  1  0  0  0
  9 32  1  0  0  0
 11 12  1  0  0  0
 11 33  1  0  0  0
 12 13  2  0  0  0
 12 17  1  0  0  0
 13 14  1  0  0  0
 14 15  2  0  0  0
 14 18  1  0  0  0
 15 16  1  0  0  0
 15 26  1  0  0  0
 16 17  2  0  0  0
 16 34  1  0  0  0
 18 19  1  0  0  0
 18 35  1  0  0  0
 19 20  1  0  0  0
 19 36  1  0  0  0
 19 37  1  0  0  0
 20 21  2  0  0  0
 20 25  1  0  0  0
 21 22  1  0  0  0
 21 38  1  0  0  0
 22 23  2  0  0  0
 22 39  1  0  0  0
 23 24  1  0  0  0
 23 40  1  0  0  0
 24 25  2  0  0  0
 24 41  1  0  0  0
M  END
> <s_m_entry_id>
47617

> <s_m_entry_name>
dock_pv.150

> <s_m_Source_Path>
/home/csk/Desktop/cluster/DUD-E-result/fak1

> <s_m_Source_File>
dock_pv.maegz

> <i_m_Source_File_Index>
150

> <chembl_id>
CHEMBL470316

> <chembl_pref_name>
None

> <i_lp_mmshare_version>
53161

> <i_f3d_flags>
0

> <r_lp_tautomer_probability>
0.999999624730965

> <s_lp_Force_Field>
OPLS_2005

> <r_lp_Energy>
17.977047

> <b_lp_Chiralities_Consistent>
1

> <s_lp_Variant>
CHEMBL2695_lig210-1

> <s_i_glide_gridfile>
glide-grid_3bz3

> <i_i_glide_lignum>
242

> <i_i_glide_rotatable_bonds>
5

> <r_i_docking_score>
-7.67440217238594

> <r_i_glide_ligand_efficiency>
-0.295169314322536

> <r_i_glide_ligand_efficiency_sa>
-0.874437932245345

> <r_i_glide_ligand_efficiency_ln>
-1.80230816841739

> <r_i_glide_gscore>
-7.67440217238594

> <r_i_glide_lipo>
-2.6761354371094

> <r_i_glide_hbond>
-0.628373922325251

> <r_i_glide_metal>
0

> <r_i_glide_rewards>
-1.87174416666667

> <r_i_glide_evdw>
-37.0822830200195

> <r_i_glide_ecoul>
-8.0515251159668

> <r_i_glide_erotb>
0.582621836162676

> <r_i_glide_esite>
-0.0189275640513017

> <r_i_glide_emodel>
-63.9612680698847

> <r_i_glide_energy>
-45.1338081359863

> <r_i_glide_einternal>
4.7325963973999

> <i_i_glide_confnum>
2

> <i_i_glide_posenum>
40

> <r_i_glide_eff_state_penalty>
0

> <s_user_duplicate_titles>
CHEMBL2695_lig210,452800

> <s_m_subgroup_title>
dock_pv

> <s_m_subgroupid>
dock_pv

> <b_m_subgroup_collapsed>
1

$$$$
CHEMBL2695_lig100
                    3D
 Schrodinger Suite 2021-1.
 39 42  0  0  1  0            999 V2000
    9.3682    1.3833    5.1978 N   0  0  0  0  0  0
    9.0933    2.5024    5.9078 C   0  0  0  0  0  0
    9.9869    3.4563    6.2834 N   0  0  0  0  0  0
   10.6694    1.1041    4.9415 C   0  0  0  0  0  0
   11.6930    1.9575    5.3720 C   0  0  0  0  0  0
   11.2644    3.1631    5.9966 C   0  0  0  0  0  0
   12.3991    3.9093    6.3089 N   0  0  0  0  0  0
   13.4987    3.1646    5.9119 C   0  0  0  0  0  0
   13.1221    1.9632    5.3531 C   0  0  0  0  0  0
    7.7640    2.6068    6.3298 N   0  0  0  0  0  0
   12.4563    5.1633    6.9633 C   0  0  0  0  0  0
   11.4482    6.1226    6.8019 C   0  0  0  0  0  0
   11.5228    7.3054    7.5387 C   0  0  0  0  0  0
   12.5639    7.4788    8.4483 C   0  0  0  0  0  0
   13.5221    6.4769    8.5623 C   0  0  0  0  0  0
   13.4978    5.3429    7.8218 N   0  0  0  0  0  0
    7.1798    3.1383    7.4992 C   0  0  0  0  0  0
    5.7764    3.1658    7.6327 C   0  0  0  0  0  0
    5.1912    3.5633    8.8372 C   0  0  0  0  0  0
    5.9851    3.9628    9.9089 C   0  0  0  0  0  0
    7.3696    3.9739    9.7818 C   0  0  0  0  0  0
    7.9598    3.5661    8.5869 C   0  0  0  0  0  0
    4.6926    2.6608    6.3228 S   0  0  0  0  0  0
    4.7585    4.0169    5.1227 C   0  0  0  0  0  0
   10.8790    0.1825    4.4200 H   0  0  0  0  0  0
   14.4864    3.5607    6.0839 H   0  0  0  0  0  0
   13.7965    1.2071    4.9726 H   0  0  0  0  0  0
    7.1634    1.9335    5.8717 H   0  0  0  0  0  0
   10.6244    5.9612    6.1252 H   0  0  0  0  0  0
   10.7698    8.0712    7.4222 H   0  0  0  0  0  0
   12.6330    8.3633    9.0590 H   0  0  0  0  0  0
   14.3504    6.5809    9.2475 H   0  0  0  0  0  0
    4.1161    3.5714    8.9457 H   0  0  0  0  0  0
    5.5227    4.2715   10.8356 H   0  0  0  0  0  0
    7.9840    4.2856   10.6134 H   0  0  0  0  0  0
    9.0361    3.5555    8.5439 H   0  0  0  0  0  0
    4.0602    3.8327    4.3083 H   0  0  0  0  0  0
    4.4899    4.9601    5.5973 H   0  0  0  0  0  0
    5.7620    4.1122    4.7083 H   0  0  0  0  0  0
  1  2  2  0  0  0
  1  4  1  0  0  0
  2  3  1  0  0  0
  2 10  1  0  0  0
  3  6  2  0  0  0
  4  5  2  0  0  0
  4 25  1  0  0  0
  5  9  1  0  0  0
  5  6  1  0  0  0
  6  7  1  0  0  0
  7  8  1  0  0  0
  7 11  1  0  0  0
  8  9  2  0  0  0
  8 26  1  0  0  0
  9 27  1  0  0  0
 10 17  1  0  0  0
 10 28  1  0  0  0
 11 12  2  0  0  0
 11 16  1  0  0  0
 12 13  1  0  0  0
 12 29  1  0  0  0
 13 14  2  0  0  0
 13 30  1  0  0  0
 14 15  1  0  0  0
 14 31  1  0  0  0
 15 16  2  0  0  0
 15 32  1  0  0  0
 17 18  2  0  0  0
 17 22  1  0  0  0
 18 19  1  0  0  0
 18 23  1  0  0  0
 19 20  2  0  0  0
 19 33  1  0  0  0
 20 21  1  0  0  0
 20 34  1  0  0  0
 21 22  2  0  0  0
 21 35  1  0  0  0
 22 36  1  0  0  0
 23 24  1  0  0  0
 24 37  1  0  0  0
 24 38  1  0  0  0
 24 39  1  0  0  0
M  END
> <s_m_entry_id>
47618

> <s_m_entry_name>
dock_pv.151

> <s_m_Source_Path>
/home/csk/Desktop/cluster/DUD-E-result/fak1

> <s_m_Source_File>
dock_pv.maegz

> <i_m_Source_File_Index>
151

> <chembl_id>
CHEMBL381308

> <chembl_pref_name>
None

> <i_lp_mmshare_version>
53161

> <i_f3d_flags>
0

> <r_lp_tautomer_probability>
1

> <s_lp_Force_Field>
OPLS_2005

> <r_lp_Energy>
13.314141

> <b_lp_Chiralities_Consistent>
1

> <s_lp_Variant>
CHEMBL2695_lig100-1

> <s_i_glide_gridfile>
glide-grid_3bz3

> <i_i_glide_lignum>
122

> <i_i_glide_rotatable_bonds>
4

> <r_i_docking_score>
-7.66918333535189

> <r_i_glide_ligand_efficiency>
-0.319549305639662

> <r_i_glide_ligand_efficiency_sa>
-0.921739696525221

> <r_i_glide_ligand_efficiency_ln>
-1.83558748804182

> <r_i_glide_gscore>
-7.66918333535189

> <r_i_glide_lipo>
-3.5678467429037

> <r_i_glide_hbond>
0

> <r_i_glide_metal>
0

> <r_i_glide_rewards>
-2.57078391570068

> <r_i_glide_evdw>
-44.3641014099121

> <r_i_glide_ecoul>
1.29720962047577

> <r_i_glide_erotb>
0.508635917183601

> <r_i_glide_esite>
-0.015564966506864

> <r_i_glide_emodel>
-56.2185728375925

> <r_i_glide_energy>
-43.0668917894363

> <r_i_glide_einternal>
10.6498575210571

> <i_i_glide_confnum>
12

> <i_i_glide_posenum>
16

> <r_i_glide_eff_state_penalty>
0

> <s_user_duplicate_titles>
CHEMBL2695_lig100

> <s_m_subgroup_title>
dock_pv

> <s_m_subgroupid>
dock_pv

> <b_m_subgroup_collapsed>
1

$$$$
CHEMBL2695_lig2142
                    3D
 Schrodinger Suite 2021-1.
 36 39  0  0  1  0            999 V2000
   11.5586    4.1234    6.1559 C   0  0  0  0  0  0
   12.9076    3.7632    6.2458 C   0  0  0  0  0  0
   13.8326    4.5343    6.9532 C   0  0  0  0  0  0
   11.1317    5.3581    6.6691 C   0  0  0  0  0  0
   12.0117    6.1152    7.4397 C   0  0  0  0  0  0
   13.3411    5.6752    7.5906 C   0  0  0  0  0  0
   13.0685    7.5619    8.8057 N   0  0  0  0  0  0
   11.9403    7.3174    8.1990 C   0  0  0  0  0  0
   10.5406    3.1420    5.6601 C   0  0  0  0  0  0
    9.2983    3.2979    6.0676 N   0  0  0  0  0  0
   10.7220    1.9906    4.8894 C   0  0  0  0  0  0
    9.2087    1.1630    4.7126 S   0  0  0  0  0  0
    8.4893    2.3335    5.7576 C   0  0  0  0  0  0
    6.3644    3.1520    6.9542 C   0  0  0  0  0  0
    6.9139    3.6604    8.2965 C   0  0  0  0  0  0
    6.3412    3.2567    9.5080 C   0  0  0  0  0  0
    6.7876    3.8157   10.7080 C   0  0  0  0  0  0
    7.8417    4.7208   10.7091 C   0  0  0  0  0  0
    8.4372    5.1086    9.5183 C   0  0  0  0  0  0
    7.9356    4.6110    8.3242 C   0  0  0  0  0  0
   13.9214    6.5938    8.4361 N   0  0  0  0  0  0
    7.2033    2.1884    6.2256 N   0  0  0  0  0  0
   13.2338    2.8204    5.8314 H   0  0  0  0  0  0
   14.8539    4.2239    7.0738 H   0  0  0  0  0  0
   10.1123    5.6858    6.5572 H   0  0  0  0  0  0
   11.0982    7.9785    8.3244 H   0  0  0  0  0  0
   11.6215    1.5934    4.4447 H   0  0  0  0  0  0
    5.3926    2.6858    7.1221 H   0  0  0  0  0  0
    6.1629    4.0043    6.3035 H   0  0  0  0  0  0
    5.5281    2.5450    9.5246 H   0  0  0  0  0  0
    6.3225    3.5627   11.6463 H   0  0  0  0  0  0
    8.1779    5.1472   11.6423 H   0  0  0  0  0  0
    9.2320    5.8390    9.5101 H   0  0  0  0  0  0
    8.3173    5.0106    7.4072 H   0  0  0  0  0  0
   14.9003    6.6205    8.7118 H   0  0  0  0  0  0
    6.6674    1.4035    5.8693 H   0  0  0  0  0  0
  1  2  2  0  0  0
  1  4  1  0  0  0
  1  9  1  0  0  0
  2  3  1  0  0  0
  2 23  1  0  0  0
  3  6  2  0  0  0
  3 24  1  0  0  0
  4  5  2  0  0  0
  4 25  1  0  0  0
  5  6  1  0  0  0
  5  8  1  0  0  0
  6 21  1  0  0  0
  7  8  2  0  0  0
  7 21  1  0  0  0
  8 26  1  0  0  0
  9 10  1  0  0  0
  9 11  2  0  0  0
 10 13  2  0  0  0
 11 12  1  0  0  0
 11 27  1  0  0  0
 12 13  1  0  0  0
 13 22  1  0  0  0
 14 15  1  0  0  0
 14 22  1  0  0  0
 14 28  1  0  0  0
 14 29  1  0  0  0
 15 16  2  0  0  0
 15 20  1  0  0  0
 16 17  1  0  0  0
 16 30  1  0  0  0
 17 18  2  0  0  0
 17 31  1  0  0  0
 18 19  1  0  0  0
 18 32  1  0  0  0
 19 20  2  0  0  0
 19 33  1  0  0  0
 20 34  1  0  0  0
 21 35  1  0  0  0
 22 36  1  0  0  0
M  END
> <s_m_entry_id>
47619

> <s_m_entry_name>
dock_pv.152

> <s_m_Source_Path>
/home/csk/Desktop/cluster/DUD-E-result/fak1

> <s_m_Source_File>
dock_pv.maegz

> <i_m_Source_File_Index>
152

> <chembl_id>
CHEMBL1682546

> <chembl_pref_name>
None

> <i_lp_mmshare_version>
53161

> <i_f3d_flags>
0

> <r_lp_tautomer_probability>
0.980392156862745

> <s_lp_Force_Field>
OPLS_2005

> <r_lp_Energy>
6.727786

> <b_lp_Chiralities_Consistent>
1

> <s_lp_Variant>
CHEMBL2695_lig2142-1

> <s_i_glide_gridfile>
glide-grid_3bz3

> <i_i_glide_lignum>
2597

> <i_i_glide_rotatable_bonds>
4

> <r_i_docking_score>
-7.66049827059247

> <r_i_glide_ligand_efficiency>
-0.348204466845112

> <r_i_glide_ligand_efficiency_sa>
-0.975682610204602

> <r_i_glide_ligand_efficiency_ln>
-1.87250520079644

> <r_i_glide_gscore>
-7.66049827059247

> <r_i_glide_lipo>
-3.78832907700158

> <r_i_glide_hbond>
-0.304885458142248

> <r_i_glide_metal>
0

> <r_i_glide_rewards>
-1.99372056534975

> <r_i_glide_evdw>
-31.5864334106445

> <r_i_glide_ecoul>
-4.85162496566772

> <r_i_glide_erotb>
0.787079804184623

> <r_i_glide_esite>
-0.0535775589011308

> <r_i_glide_emodel>
-54.4600912297825

> <r_i_glide_energy>
-36.4380583763123

> <r_i_glide_einternal>
0.74147492647171

> <i_i_glide_confnum>
7

> <i_i_glide_posenum>
152

> <r_i_glide_eff_state_penalty>
0

> <s_user_duplicate_titles>
CHEMBL2695_lig2142

> <s_m_subgroup_title>
dock_pv

> <s_m_subgroupid>
dock_pv

> <b_m_subgroup_collapsed>
1

$$$$
CHEMBL2695_lig1773
                    3D
 Schrodinger Suite 2021-1.
 39 42  0  0  1  0            999 V2000
    3.0984    2.6307    3.3698 O   0  0  0  0  0  0
   12.7432    1.8845    5.4781 N   0  0  0  0  0  0
   10.5022    1.0877    5.0599 N   0  0  0  0  0  0
    4.3220    0.7628    3.5087 N   0  0  0  0  0  0
   11.0508    3.2985    5.9623 C   0  0  0  0  0  0
   12.2921    3.9409    6.3084 C   0  0  0  0  0  0
   11.3722    2.0042    5.4737 C   0  0  0  0  0  0
    8.7287    2.6954    5.6278 C   0  0  0  0  0  0
    9.6867    3.6284    6.0431 C   0  0  0  0  0  0
   12.4635    5.2577    6.9701 C   0  0  0  0  0  0
    7.2641    3.0036    5.6908 C   0  0  0  0  0  0
   13.2928    3.0638    5.9092 C   0  0  0  0  0  0
    9.1992    1.4678    5.1418 C   0  0  0  0  0  0
    6.3625    2.3764    4.8175 C   0  0  0  0  0  0
    4.9947    2.6829    4.8205 C   0  0  0  0  0  0
    6.7460    3.9328    6.6077 C   0  0  0  0  0  0
   13.4664    5.3894    7.9310 C   0  0  0  0  0  0
   11.5656    6.3035    6.7525 C   0  0  0  0  0  0
    4.5194    3.6451    5.7189 C   0  0  0  0  0  0
    5.3902    4.2570    6.6179 C   0  0  0  0  0  0
    4.0516    2.0228    3.8494 C   0  0  0  0  0  0
   13.5293    6.5351    8.7100 C   0  0  0  0  0  0
   11.6550    7.4680    7.5075 C   0  0  0  0  0  0
   12.6269    7.5633    8.4988 C   0  0  0  0  0  0
   13.2980    1.0970    5.1760 H   0  0  0  0  0  0
    5.0297    0.2375    4.0228 H   0  0  0  0  0  0
    3.7383    0.2965    2.8350 H   0  0  0  0  0  0
    9.3845    4.5903    6.4252 H   0  0  0  0  0  0
   14.3652    3.1577    5.9630 H   0  0  0  0  0  0
    8.5007    0.7164    4.8059 H   0  0  0  0  0  0
    6.7359    1.6670    4.0929 H   0  0  0  0  0  0
    7.3925    4.4223    7.3212 H   0  0  0  0  0  0
   14.1635    4.5893    8.1247 H   0  0  0  0  0  0
   10.7991    6.2101    6.0039 H   0  0  0  0  0  0
    3.4730    3.9188    5.7310 H   0  0  0  0  0  0
    5.0120    4.9849    7.3219 H   0  0  0  0  0  0
   14.2898    6.6310    9.4714 H   0  0  0  0  0  0
   10.9648    8.2822    7.3400 H   0  0  0  0  0  0
   12.6971    8.4423    9.1135 H   0  0  0  0  0  0
  1 21  2  0  0  0
  2  7  1  0  0  0
  2 12  1  0  0  0
  2 25  1  0  0  0
  3  7  2  0  0  0
  3 13  1  0  0  0
  4 21  1  0  0  0
  4 26  1  0  0  0
  4 27  1  0  0  0
  5  6  1  0  0  0
  5  7  1  0  0  0
  5  9  2  0  0  0
  6 10  1  0  0  0
  6 12  2  0  0  0
  8  9  1  0  0  0
  8 11  1  0  0  0
  8 13  2  0  0  0
  9 28  1  0  0  0
 10 17  2  0  0  0
 10 18  1  0  0  0
 11 14  2  0  0  0
 11 16  1  0  0  0
 12 29  1  0  0  0
 13 30  1  0  0  0
 14 15  1  0  0  0
 14 31  1  0  0  0
 15 19  2  0  0  0
 15 21  1  0  0  0
 16 20  2  0  0  0
 16 32  1  0  0  0
 17 22  1  0  0  0
 17 33  1  0  0  0
 18 23  2  0  0  0
 18 34  1  0  0  0
 19 20  1  0  0  0
 19 35  1  0  0  0
 20 36  1  0  0  0
 22 24  2  0  0  0
 22 37  1  0  0  0
 23 24  1  0  0  0
 23 38  1  0  0  0
 24 39  1  0  0  0
M  END
> <s_m_entry_id>
47620

> <s_m_entry_name>
dock_pv.153

> <s_m_Source_Path>
/home/csk/Desktop/cluster/DUD-E-result/fak1

> <s_m_Source_File>
dock_pv.maegz

> <i_m_Source_File_Index>
153

> <chembl_id>
CHEMBL1982957

> <chembl_pref_name>
None

> <i_lp_mmshare_version>
53161

> <i_f3d_flags>
0

> <r_lp_tautomer_probability>
0.999998432528457

> <s_lp_Force_Field>
OPLS_2005

> <r_lp_Energy>
18.17457

> <b_lp_Chiralities_Consistent>
1

> <s_lp_Variant>
CHEMBL2695_lig1773-1

> <s_i_glide_gridfile>
glide-grid_3bz3

> <i_i_glide_lignum>
2026

> <i_i_glide_rotatable_bonds>
3

> <r_i_docking_score>
-7.66019971365524

> <r_i_glide_ligand_efficiency>
-0.319174988068968

> <r_i_glide_ligand_efficiency_sa>
-0.920659977815381

> <r_i_glide_ligand_efficiency_ln>
-1.83343729513827

> <r_i_glide_gscore>
-7.66019971365524

> <r_i_glide_lipo>
-3.33483282884663

> <r_i_glide_hbond>
-0.399107675030801

> <r_i_glide_metal>
0

> <r_i_glide_rewards>
-1.65860093394783

> <r_i_glide_evdw>
-38.3006134033203

> <r_i_glide_ecoul>
-4.17994213104248

> <r_i_glide_erotb>
0.378305019552556

> <r_i_glide_esite>
-0.103941305560147

> <r_i_glide_emodel>
-60.7450668501079

> <r_i_glide_energy>
-42.4805555343628

> <r_i_glide_einternal>
1.49918067455292

> <i_i_glide_confnum>
4

> <i_i_glide_posenum>
375

> <r_i_glide_eff_state_penalty>
0

> <s_user_duplicate_titles>
CHEMBL2695_lig1773

> <s_m_subgroup_title>
dock_pv

> <s_m_subgroupid>
dock_pv

> <b_m_subgroup_collapsed>
1

$$$$
CHEMBL2695_lig102
                    3D
 Schrodinger Suite 2021-1.
 44 47  0  0  1  0            999 V2000
    9.5222    1.3492    4.9808 N   0  0  0  0  0  0
    9.1435    2.5580    5.4578 C   0  0  0  0  0  0
    9.9578    3.5288    5.9582 N   0  0  0  0  0  0
   10.8384    1.0436    5.0045 C   0  0  0  0  0  0
   11.7860    1.9612    5.4677 C   0  0  0  0  0  0
   11.2669    3.2109    5.9173 C   0  0  0  0  0  0
   12.3582    3.9867    6.3090 N   0  0  0  0  0  0
   13.5090    3.2537    6.0795 C   0  0  0  0  0  0
   13.2069    1.9998    5.5924 C   0  0  0  0  0  0
    7.7712    2.7804    5.3549 N   0  0  0  0  0  0
   12.3407    5.2715    6.8851 C   0  0  0  0  0  0
   13.1281    5.5631    8.0083 C   0  0  0  0  0  0
   13.0370    6.8340    8.5766 C   0  0  0  0  0  0
   12.1816    7.7759    8.0045 C   0  0  0  0  0  0
   11.4652    7.4237    6.8639 C   0  0  0  0  0  0
   11.5220    6.1882    6.3107 N   0  0  0  0  0  0
    6.8848    3.6500    6.0072 C   0  0  0  0  0  0
    5.4304    4.2572    7.8494 C   0  0  0  0  0  0
    4.7609    5.1628    7.0306 C   0  0  0  0  0  0
    5.1934    5.3571    5.7247 C   0  0  0  0  0  0
    6.2409    4.6010    5.2134 C   0  0  0  0  0  0
    6.5101    3.5005    7.3640 C   0  0  0  0  0  0
    6.9128    1.0853    8.0773 C   0  0  0  0  0  0
    7.2746    2.5601    8.3111 C   0  0  0  0  0  0
    7.1767    2.9103    9.8126 C   0  0  0  0  0  0
   11.1228    0.0745    4.6239 H   0  0  0  0  0  0
   14.4662    3.6969    6.3089 H   0  0  0  0  0  0
   13.9219    1.2283    5.3415 H   0  0  0  0  0  0
    7.3087    2.0150    4.8846 H   0  0  0  0  0  0
   13.7785    4.8211    8.4485 H   0  0  0  0  0  0
   13.6195    7.0825    9.4521 H   0  0  0  0  0  0
   12.0634    8.7567    8.4359 H   0  0  0  0  0  0
   10.7974    8.1283    6.3901 H   0  0  0  0  0  0
    5.0948    4.1587    8.8709 H   0  0  0  0  0  0
    3.9395    5.7443    7.4245 H   0  0  0  0  0  0
    4.7215    6.1023    5.1080 H   0  0  0  0  0  0
    6.5450    4.7599    4.1904 H   0  0  0  0  0  0
    7.0769    0.7904    7.0430 H   0  0  0  0  0  0
    7.5179    0.4277    8.7044 H   0  0  0  0  0  0
    5.8649    0.8912    8.3068 H   0  0  0  0  0  0
    8.3221    2.7011    8.0660 H   0  0  0  0  0  0
    7.3783    3.9671    9.9922 H   0  0  0  0  0  0
    6.1928    2.6789   10.2242 H   0  0  0  0  0  0
    7.9097    2.3417   10.3862 H   0  0  0  0  0  0
  1  2  2  0  0  0
  1  4  1  0  0  0
  2  3  1  0  0  0
  2 10  1  0  0  0
  3  6  2  0  0  0
  4  5  2  0  0  0
  4 26  1  0  0  0
  5  9  1  0  0  0
  5  6  1  0  0  0
  6  7  1  0  0  0
  7  8  1  0  0  0
  7 11  1  0  0  0
  8  9  2  0  0  0
  8 27  1  0  0  0
  9 28  1  0  0  0
 10 17  1  0  0  0
 10 29  1  0  0  0
 11 12  2  0  0  0
 11 16  1  0  0  0
 12 13  1  0  0  0
 12 30  1  0  0  0
 13 14  2  0  0  0
 13 31  1  0  0  0
 14 15  1  0  0  0
 14 32  1  0  0  0
 15 16  2  0  0  0
 15 33  1  0  0  0
 17 22  2  0  0  0
 17 21  1  0  0  0
 18 22  1  0  0  0
 18 19  2  0  0  0
 18 34  1  0  0  0
 19 20  1  0  0  0
 19 35  1  0  0  0
 20 21  2  0  0  0
 20 36  1  0  0  0
 21 37  1  0  0  0
 22 24  1  0  0  0
 23 24  1  0  0  0
 23 38  1  0  0  0
 23 39  1  0  0  0
 23 40  1  0  0  0
 24 25  1  0  0  0
 24 41  1  0  0  0
 25 42  1  0  0  0
 25 43  1  0  0  0
 25 44  1  0  0  0
M  END
> <s_m_entry_id>
47621

> <s_m_entry_name>
dock_pv.154

> <s_m_Source_Path>
/home/csk/Desktop/cluster/DUD-E-result/fak1

> <s_m_Source_File>
dock_pv.maegz

> <i_m_Source_File_Index>
154

> <chembl_id>
CHEMBL380116

> <chembl_pref_name>
None

> <i_lp_mmshare_version>
53161

> <i_f3d_flags>
0

> <r_lp_tautomer_probability>
1

> <s_lp_Force_Field>
OPLS_2005

> <r_lp_Energy>
15.199793

> <b_lp_Chiralities_Consistent>
1

> <s_lp_Variant>
CHEMBL2695_lig102-1

> <s_i_glide_gridfile>
glide-grid_3bz3

> <i_i_glide_lignum>
124

> <i_i_glide_rotatable_bonds>
4

> <r_i_docking_score>
-7.65192396804253

> <r_i_glide_ligand_efficiency>
-0.306076958721701

> <r_i_glide_ligand_efficiency_sa>
-0.894974455600231

> <r_i_glide_ligand_efficiency_ln>
-1.81373529008325

> <r_i_glide_gscore>
-7.65192396804253

> <r_i_glide_lipo>
-3.66596013158053

> <r_i_glide_hbond>
0

> <r_i_glide_metal>
0

> <r_i_glide_rewards>
-2.38915743392197

> <r_i_glide_evdw>
-42.7863731384277

> <r_i_glide_ecoul>
0.341087460517883

> <r_i_glide_erotb>
0.519643530923685

> <r_i_glide_esite>
-0.0282943956200164

> <r_i_glide_emodel>
-59.0904023773283

> <r_i_glide_energy>
-42.4452856779099

> <r_i_glide_einternal>
2.80181574821472

> <i_i_glide_confnum>
2

> <i_i_glide_posenum>
24

> <r_i_glide_eff_state_penalty>
0

> <s_user_duplicate_titles>
CHEMBL2695_lig102

> <s_m_subgroup_title>
dock_pv

> <s_m_subgroupid>
dock_pv

> <b_m_subgroup_collapsed>
1

$$$$
CHEMBL2695_lig1805
                    3D
 Schrodinger Suite 2021-1.
 52 56  0  0  1  0            999 V2000
    4.3852    4.5725    7.9132 O   0  0  0  0  0  0
    3.5220   -0.0569    6.2547 N   0  0  0  0  0  0
    5.9233    5.1495    4.7051 N   0  0  0  0  0  0
   13.9220    2.5536    5.7857 N   0  0  0  0  0  0
    2.7220    2.3615   10.3088 N   0  0  0  0  0  0
    1.7900    0.2460    7.6523 C   0  0  0  0  0  0
    2.4063    1.5286    7.4184 C   0  0  0  0  0  0
    2.5287   -0.7354    6.9213 C   0  0  0  0  0  0
    9.1148    4.0698    6.3240 C   0  0  0  0  0  0
    7.6647    4.3162    6.1684 C   0  0  0  0  0  0
   11.1062    2.7628    5.7919 C   0  0  0  0  0  0
   11.9170    3.8201    6.3090 C   0  0  0  0  0  0
    9.6985    2.9160    5.7959 C   0  0  0  0  0  0
    3.4467    1.2803    6.5422 C   0  0  0  0  0  0
    9.9329    5.0609    6.8725 C   0  0  0  0  0  0
    6.7322    4.2058    7.2148 C   0  0  0  0  0  0
    5.3945    4.5768    6.9859 C   0  0  0  0  0  0
    2.0029    2.8685    8.0180 C   0  0  0  0  0  0
    0.6885   -0.1810    8.4122 C   0  0  0  0  0  0
   11.3142    4.9648    6.8544 C   0  0  0  0  0  0
    2.2090   -2.0974    6.9538 C   0  0  0  0  0  0
    7.1997    4.7630    4.9298 C   0  0  0  0  0  0
    2.8530    3.3256    9.2335 C   0  0  2  0  0  0
   11.7489    1.6098    5.2664 C   0  0  0  0  0  0
   13.3142    3.6490    6.2803 C   0  0  0  0  0  0
    5.0511    5.0553    5.7283 C   0  0  0  0  0  0
    0.3645   -1.5366    8.4441 C   0  0  0  0  0  0
    1.1116   -2.4706    7.7314 C   0  0  0  0  0  0
    4.3494    3.5634    8.9111 C   0  0  0  0  0  0
   13.1436    1.5735    5.2745 C   0  0  0  0  0  0
    4.2523   -0.4386    5.6593 H   0  0  0  0  0  0
    3.0773    1.4839    9.9575 H   0  0  0  0  0  0
    3.3598    2.6233   11.0627 H   0  0  0  0  0  0
    9.0815    2.1441    5.3566 H   0  0  0  0  0  0
    4.1706    1.9564    6.1078 H   0  0  0  0  0  0
    9.5224    5.9628    7.2824 H   0  0  0  0  0  0
    7.0473    3.8745    8.1928 H   0  0  0  0  0  0
    2.0573    3.6396    7.2482 H   0  0  0  0  0  0
    0.9502    2.8515    8.3028 H   0  0  0  0  0  0
    0.1028    0.5359    8.9687 H   0  0  0  0  0  0
   11.9275    5.7573    7.2594 H   0  0  0  0  0  0
    2.7790   -2.8245    6.3931 H   0  0  0  0  0  0
    7.8759    4.8646    4.0932 H   0  0  0  0  0  0
    2.4348    4.2671    9.5943 H   0  0  0  0  0  0
   11.1653    0.8045    4.8440 H   0  0  0  0  0  0
   13.9584    4.4210    6.6763 H   0  0  0  0  0  0
    4.0370    5.3655    5.5266 H   0  0  0  0  0  0
   -0.4828   -1.8655    9.0278 H   0  0  0  0  0  0
    0.8254   -3.5106    7.7725 H   0  0  0  0  0  0
    4.8895    3.9110    9.7937 H   0  0  0  0  0  0
    4.8276    2.6372    8.5855 H   0  0  0  0  0  0
   13.6938    0.7631    4.8294 H   0  0  0  0  0  0
  1 17  1  0  0  0
  1 29  1  0  0  0
  2  8  1  0  0  0
  2 14  1  0  0  0
  2 31  1  0  0  0
  3 22  2  0  0  0
  3 26  1  0  0  0
  4 25  2  0  0  0
  4 30  1  0  0  0
  5 23  1  0  0  0
  5 32  1  0  0  0
  5 33  1  0  0  0
  6  7  1  0  0  0
  6  8  1  0  0  0
  6 19  2  0  0  0
  7 14  2  0  0  0
  7 18  1  0  0  0
  8 21  2  0  0  0
  9 10  1  0  0  0
  9 13  1  0  0  0
  9 15  2  0  0  0
 10 16  2  0  0  0
 10 22  1  0  0  0
 11 12  1  0  0  0
 11 13  2  0  0  0
 11 24  1  0  0  0
 12 20  2  0  0  0
 12 25  1  0  0  0
 13 34  1  0  0  0
 14 35  1  0  0  0
 15 20  1  0  0  0
 15 36  1  0  0  0
 16 17  1  0  0  0
 16 37  1  0  0  0
 17 26  2  0  0  0
 18 23  1  0  0  0
 18 38  1  0  0  0
 18 39  1  0  0  0
 19 27  1  0  0  0
 19 40  1  0  0  0
 20 41  1  0  0  0
 21 28  1  0  0  0
 21 42  1  0  0  0
 22 43  1  0  0  0
 23 29  1  0  0  0
 23 44  1  0  0  0
 24 30  2  0  0  0
 24 45  1  0  0  0
 25 46  1  0  0  0
 26 47  1  0  0  0
 27 28  2  0  0  0
 27 48  1  0  0  0
 28 49  1  0  0  0
 29 50  1  0  0  0
 29 51  1  0  0  0
 30 52  1  0  0  0
M  END
> <s_m_entry_id>
47622

> <s_m_entry_name>
dock_pv.155

> <s_m_Source_Path>
/home/csk/Desktop/cluster/DUD-E-result/fak1

> <s_m_Source_File>
dock_pv.maegz

> <i_m_Source_File_Index>
155

> <chembl_id>
CHEMBL1981133

> <chembl_pref_name>
None

> <i_lp_mmshare_version>
53161

> <i_f3d_flags>
0

> <r_lp_tautomer_probability>
1

> <s_lp_Force_Field>
OPLS_2005

> <r_lp_Energy>
24.352552

> <b_lp_Chiralities_Consistent>
1

> <s_lp_Variant>
CHEMBL2695_lig1805-1

> <s_i_glide_gridfile>
glide-grid_3bz3

> <i_i_glide_lignum>
2070

> <i_i_glide_rotatable_bonds>
6

> <r_i_docking_score>
-7.64902498185448

> <r_i_glide_ligand_efficiency>
-0.254967499395149

> <r_i_glide_ligand_efficiency_sa>
-0.792243301184187

> <r_i_glide_ligand_efficiency_ln>
-1.73794181867975

> <r_i_glide_gscore>
-7.64902498185448

> <r_i_glide_lipo>
-3.09972772265665

> <r_i_glide_hbond>
-0.446180445373272

> <r_i_glide_metal>
0

> <r_i_glide_rewards>
-1.31211825157882

> <r_i_glide_evdw>
-32.1717224121094

> <r_i_glide_ecoul>
-11.5285596847534

> <r_i_glide_erotb>
0.62803719808006

> <r_i_glide_esite>
-0.0811656870073108

> <r_i_glide_emodel>
-56.5858581110924

> <r_i_glide_energy>
-43.7002820968628

> <r_i_glide_einternal>
8.96482944488525

> <i_i_glide_confnum>
16

> <i_i_glide_posenum>
154

> <r_i_glide_eff_state_penalty>
0

> <s_user_duplicate_titles>
CHEMBL2695_lig1805

> <s_m_subgroup_title>
dock_pv

> <s_m_subgroupid>
dock_pv

> <b_m_subgroup_collapsed>
1

$$$$
CHEMBL2695_lig2066
                    3D
 Schrodinger Suite 2021-1.
 42 45  0  0  1  0            999 V2000
    4.3483    2.9887    8.6284 O   0  0  0  0  0  0
   11.2195    4.0104    6.6451 N   0  0  0  0  0  0
   10.2111    5.5630    7.8246 N   0  0  0  0  0  0
   13.9221    3.4511    6.1957 N   0  0  0  0  0  0
   13.0890    1.5630    4.9281 N   0  0  0  0  0  0
    6.3050    3.8112    7.8030 N   0  0  0  0  0  0
    7.5220    4.3629   11.5087 N   0  0  0  0  0  0
   10.0046    4.4937    7.0863 C   0  0  0  0  0  0
   11.5687    2.8602    5.9090 C   0  0  0  0  0  0
   12.1955    4.9057    7.1090 C   0  0  0  0  0  0
    8.6063    3.9145    6.8186 C   0  0  2  0  0  0
   12.9527    2.6670    5.7288 C   0  0  0  0  0  0
   11.4768    5.8906    7.7995 C   0  0  0  0  0  0
   13.5306    4.5847    6.8336 C   0  0  0  0  0  0
    7.9531    4.4399    5.5081 C   0  0  2  0  0  0
   10.8604    1.7938    5.2759 C   0  0  0  0  0  0
    7.7096    4.1926    8.0574 C   0  0  0  0  0  0
   11.8326    1.0963    4.5912 C   0  0  0  0  0  0
    6.4981    3.9498    5.4085 C   0  0  0  0  0  0
    5.6505    4.3815    6.6104 C   0  0  0  0  0  0
    5.5563    3.1960    8.7554 C   0  0  0  0  0  0
    8.7220    4.0349    4.2574 C   0  0  0  0  0  0
    6.2485    2.6319    9.9962 C   0  0  0  0  0  0
    6.9519    3.6011   10.8505 C   0  0  0  0  0  0
   13.9524    1.1638    4.5862 H   0  0  0  0  0  0
    8.6788    2.8292    6.7426 H   0  0  0  0  0  0
   11.8503    6.7598    8.3231 H   0  0  0  0  0  0
   14.3221    5.2201    7.1972 H   0  0  0  0  0  0
    7.9449    5.5300    5.5135 H   0  0  0  0  0  0
    9.8009    1.5881    5.2415 H   0  0  0  0  0  0
    7.6978    5.2534    8.3058 H   0  0  0  0  0  0
    8.1679    3.5887    8.8367 H   0  0  0  0  0  0
   11.7313    0.2630    3.9098 H   0  0  0  0  0  0
    6.4613    2.8640    5.2941 H   0  0  0  0  0  0
    6.0442    4.3390    4.4957 H   0  0  0  0  0  0
    4.6313    4.0174    6.4624 H   0  0  0  0  0  0
    5.6361    5.4694    6.6940 H   0  0  0  0  0  0
    8.6734    2.9641    4.0766 H   0  0  0  0  0  0
    8.2995    4.5051    3.3727 H   0  0  0  0  0  0
    9.7663    4.3388    4.3090 H   0  0  0  0  0  0
    6.9802    1.8888    9.6796 H   0  0  0  0  0  0
    5.5219    2.1069   10.6115 H   0  0  0  0  0  0
  1 21  2  0  0  0
  2  8  1  0  0  0
  2  9  1  0  0  0
  2 10  1  0  0  0
  3  8  2  0  0  0
  3 13  1  0  0  0
  4 12  1  0  0  0
  4 14  2  0  0  0
  5 12  1  0  0  0
  5 18  1  0  0  0
  5 25  1  0  0  0
  6 17  1  0  0  0
  6 20  1  0  0  0
  6 21  1  0  0  0
  7 24  3  0  0  0
  8 11  1  0  0  0
  9 12  2  0  0  0
  9 16  1  0  0  0
 10 13  2  0  0  0
 10 14  1  0  0  0
 11 15  1  0  0  0
 11 17  1  0  0  0
 11 26  1  0  0  0
 13 27  1  0  0  0
 14 28  1  0  0  0
 15 19  1  0  0  0
 15 22  1  0  0  0
 15 29  1  0  0  0
 16 18  2  0  0  0
 16 30  1  0  0  0
 17 31  1  0  0  0
 17 32  1  0  0  0
 18 33  1  0  0  0
 19 20  1  0  0  0
 19 34  1  0  0  0
 19 35  1  0  0  0
 20 36  1  0  0  0
 20 37  1  0  0  0
 21 23  1  0  0  0
 22 38  1  0  0  0
 22 39  1  0  0  0
 22 40  1  0  0  0
 23 24  1  0  0  0
 23 41  1  0  0  0
 23 42  1  0  0  0
M  END
> <s_m_entry_id>
47623

> <s_m_entry_name>
dock_pv.156

> <s_m_Source_Path>
/home/csk/Desktop/cluster/DUD-E-result/fak1

> <s_m_Source_File>
dock_pv.maegz

> <i_m_Source_File_Index>
156

> <chembl_id>
CHEMBL1966175

> <chembl_pref_name>
None

> <i_lp_mmshare_version>
53161

> <i_f3d_flags>
0

> <r_lp_tautomer_probability>
1

> <s_lp_Force_Field>
OPLS_2005

> <r_lp_Energy>
61.622179

> <b_lp_Chiralities_Consistent>
1

> <s_lp_Variant>
CHEMBL2695_lig2066-1

> <s_i_glide_gridfile>
glide-grid_3bz3

> <i_i_glide_lignum>
2478

> <i_i_glide_rotatable_bonds>
3

> <r_i_docking_score>
-7.64345544791509

> <r_i_glide_ligand_efficiency>
-0.318477310329795

> <r_i_glide_ligand_efficiency_sa>
-0.918647526978443

> <r_i_glide_ligand_efficiency_ln>
-1.82942962400237

> <r_i_glide_gscore>
-7.64345544791509

> <r_i_glide_lipo>
-2.56963756620373

> <r_i_glide_hbond>
-0.102724650013385

> <r_i_glide_metal>
0

> <r_i_glide_rewards>
-2.97438589208428

> <r_i_glide_evdw>
-32.7648391723633

> <r_i_glide_ecoul>
-4.78899097442627

> <r_i_glide_erotb>
0.3598832651684

> <r_i_glide_esite>
0

> <r_i_glide_emodel>
-57.2210261359935

> <r_i_glide_energy>
-37.5538301467896

> <r_i_glide_einternal>
1.78458774089813

> <i_i_glide_confnum>
5

> <i_i_glide_posenum>
9

> <r_i_glide_eff_state_penalty>
0

> <s_user_duplicate_titles>
CHEMBL2695_lig2066

> <s_m_subgroup_title>
dock_pv

> <s_m_subgroupid>
dock_pv

> <b_m_subgroup_collapsed>
1

$$$$
CHEMBL2695_lig108
                    3D
 Schrodinger Suite 2021-1.
 38 41  0  0  1  0            999 V2000
    9.4933    1.2995    5.1439 N   0  0  0  0  0  0
    9.1457    2.5260    5.6020 C   0  0  0  0  0  0
   10.0013    3.5146    5.9799 N   0  0  0  0  0  0
   10.8147    0.9997    5.0849 C   0  0  0  0  0  0
   11.7873    1.9225    5.4850 C   0  0  0  0  0  0
   11.2966    3.1857    5.9135 C   0  0  0  0  0  0
   12.3867    3.9634    6.2866 N   0  0  0  0  0  0
   13.5232    3.2171    6.0481 C   0  0  0  0  0  0
   13.2094    1.9636    5.5671 C   0  0  0  0  0  0
    7.7663    2.7421    5.7055 N   0  0  0  0  0  0
   12.3762    5.2549    6.8519 C   0  0  0  0  0  0
   13.1923    5.5625    7.9506 C   0  0  0  0  0  0
   13.0916    6.8267    8.5315 C   0  0  0  0  0  0
   12.1947    7.7514    7.9930 C   0  0  0  0  0  0
   11.4521    7.3887    6.8722 C   0  0  0  0  0  0
   11.5201    6.1578    6.3094 N   0  0  0  0  0  0
    7.1914    3.9739    6.2385 C   0  0  0  0  0  0
    7.1519    3.9638    7.7639 C   0  0  0  0  0  0
    6.0145    3.4848    8.4197 C   0  0  0  0  0  0
    5.9590    3.4925    9.8097 C   0  0  0  0  0  0
    7.0452    3.9631   10.5465 C   0  0  0  0  0  0
    8.1918    4.4201    9.9008 C   0  0  0  0  0  0
    8.2466    4.4162    8.5100 C   0  0  0  0  0  0
   11.0752    0.0146    4.7222 H   0  0  0  0  0  0
   14.4862    3.6534    6.2665 H   0  0  0  0  0  0
   13.9213    1.1859    5.3125 H   0  0  0  0  0  0
    7.1542    2.0033    5.3920 H   0  0  0  0  0  0
   13.8695    4.8309    8.3693 H   0  0  0  0  0  0
   13.6955    7.0799    9.3899 H   0  0  0  0  0  0
   12.0699    8.7267    8.4344 H   0  0  0  0  0  0
   10.7543    8.0794    6.4239 H   0  0  0  0  0  0
    6.1824    4.0970    5.8469 H   0  0  0  0  0  0
    7.7546    4.8421    5.8950 H   0  0  0  0  0  0
    5.1699    3.1152    7.8548 H   0  0  0  0  0  0
    5.0776    3.1243   10.3086 H   0  0  0  0  0  0
    6.9959    3.9642   11.6272 H   0  0  0  0  0  0
    9.0326    4.7797   10.4724 H   0  0  0  0  0  0
    9.1306    4.7917    8.0179 H   0  0  0  0  0  0
  1  2  2  0  0  0
  1  4  1  0  0  0
  2  3  1  0  0  0
  2 10  1  0  0  0
  3  6  2  0  0  0
  4  5  2  0  0  0
  4 24  1  0  0  0
  5  9  1  0  0  0
  5  6  1  0  0  0
  6  7  1  0  0  0
  7 11  1  0  0  0
  7  8  1  0  0  0
  8  9  2  0  0  0
  8 25  1  0  0  0
  9 26  1  0  0  0
 10 17  1  0  0  0
 10 27  1  0  0  0
 11 12  2  0  0  0
 11 16  1  0  0  0
 12 13  1  0  0  0
 12 28  1  0  0  0
 13 14  2  0  0  0
 13 29  1  0  0  0
 14 15  1  0  0  0
 14 30  1  0  0  0
 15 16  2  0  0  0
 15 31  1  0  0  0
 17 18  1  0  0  0
 17 32  1  0  0  0
 17 33  1  0  0  0
 18 19  2  0  0  0
 18 23  1  0  0  0
 19 20  1  0  0  0
 19 34  1  0  0  0
 20 21  2  0  0  0
 20 35  1  0  0  0
 21 22  1  0  0  0
 21 36  1  0  0  0
 22 23  2  0  0  0
 22 37  1  0  0  0
 23 38  1  0  0  0
M  END
> <s_m_entry_id>
47624

> <s_m_entry_name>
dock_pv.157

> <s_m_Source_Path>
/home/csk/Desktop/cluster/DUD-E-result/fak1

> <s_m_Source_File>
dock_pv.maegz

> <i_m_Source_File_Index>
157

> <chembl_id>
CHEMBL204982

> <chembl_pref_name>
None

> <i_lp_mmshare_version>
53161

> <i_f3d_flags>
0

> <r_lp_tautomer_probability>
1

> <s_lp_Force_Field>
OPLS_2005

> <r_lp_Energy>
8.334889

> <b_lp_Chiralities_Consistent>
1

> <s_lp_Variant>
CHEMBL2695_lig108-1

> <s_i_glide_gridfile>
glide-grid_3bz3

> <i_i_glide_lignum>
130

> <i_i_glide_rotatable_bonds>
4

> <r_i_docking_score>
-7.6396481199711

> <r_i_glide_ligand_efficiency>
-0.332158613911787

> <r_i_glide_ligand_efficiency_sa>
-0.944614913189718

> <r_i_glide_ligand_efficiency_ln>
-1.84733618790823

> <r_i_glide_gscore>
-7.6396481199711

> <r_i_glide_lipo>
-3.82085294000029

> <r_i_glide_hbond>
0

> <r_i_glide_metal>
0

> <r_i_glide_rewards>
-2.58911056215997

> <r_i_glide_evdw>
-43.3475799560547

> <r_i_glide_ecoul>
1.0020911693573

> <r_i_glide_erotb>
0.81029605451198

> <r_i_glide_esite>
-0.0229153499236903

> <r_i_glide_emodel>
-61.0057543964513

> <r_i_glide_energy>
-42.3454887866974

> <r_i_glide_einternal>
1.35445284843445

> <i_i_glide_confnum>
9

> <i_i_glide_posenum>
296

> <r_i_glide_eff_state_penalty>
0

> <s_user_duplicate_titles>
CHEMBL2695_lig108

> <s_m_subgroup_title>
dock_pv

> <s_m_subgroupid>
dock_pv

> <b_m_subgroup_collapsed>
1

$$$$
CHEMBL2695_lig93
                    3D
 Schrodinger Suite 2021-1.
 39 42  0  0  1  0            999 V2000
    9.5395    1.0981    4.4989 N   0  0  0  0  0  0
    9.1700    2.2372    5.1232 C   0  0  0  0  0  0
    9.9960    3.1345    5.7301 N   0  0  0  0  0  0
   10.8472    0.7610    4.5113 C   0  0  0  0  0  0
   11.7974    1.5933    5.1093 C   0  0  0  0  0  0
   11.2993    2.8072    5.6834 C   0  0  0  0  0  0
   12.3979    3.5444    6.1452 N   0  0  0  0  0  0
   13.5207    2.7658    5.9090 C   0  0  0  0  0  0
   13.2077    1.5789    5.2885 C   0  0  0  0  0  0
   12.4295    4.8406    6.7354 C   0  0  0  0  0  0
   11.4022    5.7722    6.5423 C   0  0  0  0  0  0
   11.4900    7.0152    7.1739 C   0  0  0  0  0  0
   12.5475    7.2817    8.0381 C   0  0  0  0  0  0
   13.5220    6.3030    8.2049 C   0  0  0  0  0  0
   13.4959    5.1194    7.5431 N   0  0  0  0  0  0
    7.7929    2.4606    5.1090 N   0  0  0  0  0  0
    6.9738    3.1500    6.0099 C   0  0  0  0  0  0
    7.3004    3.2521    7.3649 C   0  0  0  0  0  0
    6.4159    3.8498    8.2639 C   0  0  0  0  0  0
    5.2030    4.3629    7.7976 C   0  0  0  0  0  0
    4.8793    4.2831    6.4428 C   0  0  0  0  0  0
    5.7614    3.6674    5.5538 C   0  0  0  0  0  0
    6.7999    3.9626    9.9897 S   0  0  0  0  0  0
    8.1856    2.8424   10.3396 C   0  0  0  0  0  0
   11.1231   -0.1600    4.0211 H   0  0  0  0  0  0
   14.4896    3.1439    6.1892 H   0  0  0  0  0  0
   13.9219    0.8285    4.9821 H   0  0  0  0  0  0
   10.5565    5.5629    5.9099 H   0  0  0  0  0  0
   10.7221    7.7587    7.0187 H   0  0  0  0  0  0
   12.6118    8.2225    8.5653 H   0  0  0  0  0  0
   14.3431    6.4684    8.8821 H   0  0  0  0  0  0
    7.3100    1.7306    4.6034 H   0  0  0  0  0  0
    8.2346    2.8406    7.7109 H   0  0  0  0  0  0
    4.5042    4.8133    8.4877 H   0  0  0  0  0  0
    3.9417    4.6836    6.0837 H   0  0  0  0  0  0
    5.4898    3.5858    4.5122 H   0  0  0  0  0  0
    8.3228    2.7627   11.4187 H   0  0  0  0  0  0
    7.9797    1.8440    9.9518 H   0  0  0  0  0  0
    9.1112    3.2152    9.9013 H   0  0  0  0  0  0
  1  2  2  0  0  0
  1  4  1  0  0  0
  2  3  1  0  0  0
  2 16  1  0  0  0
  3  6  2  0  0  0
  4  5  2  0  0  0
  4 25  1  0  0  0
  5  9  1  0  0  0
  5  6  1  0  0  0
  6  7  1  0  0  0
  7  8  1  0  0  0
  7 10  1  0  0  0
  8  9  2  0  0  0
  8 26  1  0  0  0
  9 27  1  0  0  0
 10 15  1  0  0  0
 10 11  2  0  0  0
 11 12  1  0  0  0
 11 28  1  0  0  0
 12 13  2  0  0  0
 12 29  1  0  0  0
 13 14  1  0  0  0
 13 30  1  0  0  0
 14 15  2  0  0  0
 14 31  1  0  0  0
 16 17  1  0  0  0
 16 32  1  0  0  0
 17 18  2  0  0  0
 17 22  1  0  0  0
 18 19  1  0  0  0
 18 33  1  0  0  0
 19 20  2  0  0  0
 19 23  1  0  0  0
 20 21  1  0  0  0
 20 34  1  0  0  0
 21 22  2  0  0  0
 21 35  1  0  0  0
 22 36  1  0  0  0
 23 24  1  0  0  0
 24 37  1  0  0  0
 24 38  1  0  0  0
 24 39  1  0  0  0
M  END
> <s_m_entry_id>
47625

> <s_m_entry_name>
dock_pv.158

> <s_m_Source_Path>
/home/csk/Desktop/cluster/DUD-E-result/fak1

> <s_m_Source_File>
dock_pv.maegz

> <i_m_Source_File_Index>
158

> <chembl_id>
CHEMBL381609

> <chembl_pref_name>
None

> <i_lp_mmshare_version>
53161

> <i_f3d_flags>
0

> <r_lp_tautomer_probability>
1

> <s_lp_Force_Field>
OPLS_2005

> <r_lp_Energy>
13.216849

> <b_lp_Chiralities_Consistent>
1

> <s_lp_Variant>
CHEMBL2695_lig93-1

> <s_i_glide_gridfile>
glide-grid_3bz3

> <i_i_glide_lignum>
115

> <i_i_glide_rotatable_bonds>
4

> <r_i_docking_score>
-7.63959118233527

> <r_i_glide_ligand_efficiency>
-0.31831629926397

> <r_i_glide_ligand_efficiency_sa>
-0.918183090697931

> <r_i_glide_ligand_efficiency_ln>
-1.82850472792952

> <r_i_glide_gscore>
-7.63959118233527

> <r_i_glide_lipo>
-3.58482364421679

> <r_i_glide_hbond>
0

> <r_i_glide_metal>
0

> <r_i_glide_rewards>
-2.50142947438941

> <r_i_glide_evdw>
-44.0990524291992

> <r_i_glide_ecoul>
1.27738881111145

> <r_i_glide_erotb>
0.508635917183601

> <r_i_glide_esite>
-0.0486296811194257

> <r_i_glide_emodel>
-59.4176571378502

> <r_i_glide_energy>
-42.8216636180878

> <r_i_glide_einternal>
4.5646710395813

> <i_i_glide_confnum>
8

> <i_i_glide_posenum>
127

> <r_i_glide_eff_state_penalty>
0

> <s_user_duplicate_titles>
CHEMBL2695_lig93

> <s_m_subgroup_title>
dock_pv

> <s_m_subgroupid>
dock_pv

> <b_m_subgroup_collapsed>
1

$$$$
CHEMBL2695_lig1020
                    3D
 Schrodinger Suite 2021-1.
 65 69  0  0  1  0            999 V2000
   15.1219   -0.0950    2.1257 C   0  0  0  0  0  0
   14.4103    0.7630    3.0056 O   0  0  0  0  0  0
   13.0559    0.5503    3.1954 C   0  0  0  0  0  0
   12.2766   -0.2546    2.3438 C   0  0  0  0  0  0
   10.9030   -0.4372    2.5607 C   0  0  0  0  0  0
   10.3229    0.1774    3.6786 C   0  0  0  0  0  0
   11.0839    0.9494    4.5453 C   0  0  0  0  0  0
   12.4456    1.1630    4.3090 C   0  0  0  0  0  0
   13.2215    1.9630    5.1760 N   0  0  0  0  0  0
   12.8876    3.1157    5.9090 C   0  0  0  0  0  0
   13.9222    3.7701    6.4910 N   0  0  0  0  0  0
   13.6348    4.9438    7.1135 C   0  0  0  0  0  0
   12.3453    5.4734    7.1638 C   0  0  0  0  0  0
   11.9915    7.1072    8.0792 Br  0  0  0  0  0  0
   11.3333    4.7362    6.5462 C   0  0  0  0  0  0
   10.0194    5.1571    6.6551 O   0  0  0  0  0  0
    8.9731    4.2744    6.4950 C   0  0  0  0  0  0
    8.6613    3.7301    5.2432 C   0  0  0  0  0  0
    7.6426    2.7853    5.1247 C   0  0  0  0  0  0
    6.9135    2.4002    6.2492 C   0  0  0  0  0  0
    7.1913    2.9718    7.4928 C   0  0  0  0  0  0
    6.5388    2.6948    8.8195 C   0  0  0  0  0  0
    7.2367    3.6271    9.8133 C   0  0  0  0  0  0
    8.3221    4.3589    9.0295 C   0  0  0  0  0  0
    9.1220    5.1628    9.5084 O   0  0  0  0  0  0
    8.2165    3.9098    7.6178 C   0  0  0  0  0  0
   11.6040    3.5596    5.9092 N   0  0  0  0  0  0
   10.0826   -1.2616    1.5891 C   0  0  0  0  0  0
   10.6215   -1.8556    0.6515 O   0  0  0  0  0  0
    8.7537   -1.2899    1.7993 N   0  0  0  0  0  0
    7.7731   -2.0727    1.0509 C   0  0  0  0  0  0
    7.8611   -3.6021    1.2458 C   0  0  0  0  0  0
    6.7584   -4.3754    0.4948 C   0  0  0  0  0  0
    5.4221   -3.8607    0.8077 N   0  0  2  0  0  0
    4.3891   -4.6419    0.1355 C   0  0  0  0  0  0
    5.2845   -2.4339    0.4979 C   0  0  0  0  0  0
    6.3271   -1.5823    1.2494 C   0  0  0  0  0  0
   16.1728    0.1933    2.1151 H   0  0  0  0  0  0
   15.0565   -1.1326    2.4533 H   0  0  0  0  0  0
   14.7480   -0.0367    1.1051 H   0  0  0  0  0  0
   12.7267   -0.7290    1.4860 H   0  0  0  0  0  0
    9.2707    0.0743    3.9029 H   0  0  0  0  0  0
   10.5919    1.3703    5.4082 H   0  0  0  0  0  0
   14.2157    1.7958    5.1021 H   0  0  0  0  0  0
   14.4562    5.4614    7.5851 H   0  0  0  0  0  0
    9.2358    4.0125    4.3731 H   0  0  0  0  0  0
    7.4278    2.3376    4.1652 H   0  0  0  0  0  0
    6.1400    1.6521    6.1429 H   0  0  0  0  0  0
    5.4678    2.9004    8.8070 H   0  0  0  0  0  0
    6.6806    1.6561    9.1207 H   0  0  0  0  0  0
    6.5428    4.3587   10.2293 H   0  0  0  0  0  0
    7.6803    3.0791   10.6445 H   0  0  0  0  0  0
    8.3836   -0.7757    2.5852 H   0  0  0  0  0  0
    7.9797   -1.9043   -0.0095 H   0  0  0  0  0  0
    7.7966   -3.8566    2.3054 H   0  0  0  0  0  0
    8.8314   -3.9649    0.9048 H   0  0  0  0  0  0
    6.8046   -5.4271    0.7832 H   0  0  0  0  0  0
    6.9260   -4.3442   -0.5835 H   0  0  0  0  0  0
    4.4557   -5.6939    0.4161 H   0  0  0  0  0  0
    3.3953   -4.2922    0.4189 H   0  0  0  0  0  0
    4.4764   -4.5730   -0.9497 H   0  0  0  0  0  0
    4.2849   -2.1069    0.7899 H   0  0  0  0  0  0
    5.3567   -2.2778   -0.5804 H   0  0  0  0  0  0
    6.2398   -0.5469    0.9175 H   0  0  0  0  0  0
    6.0624   -1.5823    2.3089 H   0  0  0  0  0  0
  1  2  1  0  0  0
  1 38  1  0  0  0
  1 39  1  0  0  0
  1 40  1  0  0  0
  2  3  1  0  0  0
  3  4  2  0  0  0
  3  8  1  0  0  0
  4  5  1  0  0  0
  4 41  1  0  0  0
  5  6  2  0  0  0
  5 28  1  0  0  0
  6  7  1  0  0  0
  6 42  1  0  0  0
  7  8  2  0  0  0
  7 43  1  0  0  0
  8  9  1  0  0  0
  9 10  1  0  0  0
  9 44  1  0  0  0
 10 11  2  0  0  0
 10 27  1  0  0  0
 11 12  1  0  0  0
 12 13  2  0  0  0
 12 45  1  0  0  0
 13 14  1  0  0  0
 13 15  1  0  0  0
 15 16  1  0  0  0
 15 27  2  0  0  0
 16 17  1  0  0  0
 17 18  2  0  0  0
 17 26  1  0  0  0
 18 19  1  0  0  0
 18 46  1  0  0  0
 19 20  2  0  0  0
 19 47  1  0  0  0
 20 21  1  0  0  0
 20 48  1  0  0  0
 21 22  1  0  0  0
 21 26  2  0  0  0
 22 23  1  0  0  0
 22 49  1  0  0  0
 22 50  1  0  0  0
 23 24  1  0  0  0
 23 51  1  0  0  0
 23 52  1  0  0  0
 24 25  2  0  0  0
 24 26  1  0  0  0
 28 29  2  0  0  0
 28 30  1  0  0  0
 30 31  1  0  0  0
 30 53  1  0  0  0
 31 32  1  0  0  0
 31 37  1  0  0  0
 31 54  1  0  0  0
 32 33  1  0  0  0
 32 55  1  0  0  0
 32 56  1  0  0  0
 33 34  1  0  0  0
 33 57  1  0  0  0
 33 58  1  0  0  0
 34 35  1  0  0  0
 34 36  1  0  0  0
 35 59  1  0  0  0
 35 60  1  0  0  0
 35 61  1  0  0  0
 36 37  1  0  0  0
 36 62  1  0  0  0
 36 63  1  0  0  0
 37 64  1  0  0  0
 37 65  1  0  0  0
M  END
> <s_m_entry_id>
47626

> <s_m_entry_name>
dock_pv.159

> <s_m_Source_Path>
/home/csk/Desktop/cluster/DUD-E-result/fak1

> <s_m_Source_File>
dock_pv.maegz

> <i_m_Source_File_Index>
159

> <chembl_id>
CHEMBL3657319

> <chembl_pref_name>
None

> <i_lp_mmshare_version>
53161

> <i_f3d_flags>
0

> <r_lp_tautomer_probability>
0.999949917916752

> <s_lp_Force_Field>
OPLS_2005

> <r_lp_Energy>
45.01169

> <b_lp_Chiralities_Consistent>
1

> <s_lp_Variant>
CHEMBL2695_lig1020-1

> <s_i_glide_gridfile>
glide-grid_3bz3

> <i_i_glide_lignum>
1102

> <i_i_glide_rotatable_bonds>
8

> <r_i_docking_score>
-7.63698630281296

> <r_i_glide_ligand_efficiency>
-0.206405035211161

> <r_i_glide_ligand_efficiency_sa>
-0.687787367792536

> <r_i_glide_ligand_efficiency_ln>
-1.65628329271934

> <r_i_glide_gscore>
-7.63698630281296

> <r_i_glide_lipo>
-2.93085080387413

> <r_i_glide_hbond>
-0.250702231259647

> <r_i_glide_metal>
0

> <r_i_glide_rewards>
-1.00351226178106

> <r_i_glide_evdw>
-49.5964241027832

> <r_i_glide_ecoul>
-8.43306255340576

> <r_i_glide_erotb>
0.368050518704886

> <r_i_glide_esite>
-0.075190936452992

> <r_i_glide_emodel>
-83.1093926755578

> <r_i_glide_energy>
-58.029486656189

> <r_i_glide_einternal>
3.44433856010437

> <i_i_glide_confnum>
4

> <i_i_glide_posenum>
250

> <r_i_glide_eff_state_penalty>
0

> <s_user_duplicate_titles>
CHEMBL2695_lig1020

> <s_m_subgroup_title>
dock_pv

> <s_m_subgroupid>
dock_pv

> <b_m_subgroup_collapsed>
1

$$$$
CHEMBL2695_lig1240
                    3D
 Schrodinger Suite 2021-1.
 66 71  0  0  1  0            999 V2000
    5.2177    3.5631   10.3018 C   0  0  0  0  0  0
    5.6122    3.9630    8.9738 N   0  0  0  0  0  0
    6.8799    3.9630    8.5447 C   0  0  0  0  0  0
    7.8246    3.7313    9.3038 O   0  0  0  0  0  0
    7.0752    4.2617    7.0661 C   0  0  0  0  0  0
    5.9570    4.4311    6.2233 C   0  0  0  0  0  0
    6.1086    4.6719    4.8649 C   0  0  0  0  0  0
    7.3813    4.6944    4.3091 C   0  0  0  0  0  0
    8.4938    4.5267    5.1045 C   0  0  0  0  0  0
    8.3608    4.3630    6.4828 C   0  0  0  0  0  0
    9.5172    4.4830    7.2575 N   0  0  0  0  0  0
   10.8487    4.3726    6.8850 C   0  0  0  0  0  0
   11.2057    3.3306    6.0948 N   0  0  0  0  0  0
   12.5327    3.1243    5.9090 C   0  0  0  0  0  0
   12.9475    1.9862    5.2146 N   0  0  0  0  0  0
   12.2708    1.1630    4.2983 C   0  0  0  0  0  0
   10.9061    0.8543    4.3358 C   0  0  0  0  0  0
   10.3488   -0.0372    3.4115 C   0  0  0  0  0  0
   11.1114   -0.6478    2.3962 C   0  0  0  0  0  0
   10.5168   -1.5063    1.4540 N   0  0  0  0  0  0
    9.0684   -1.7776    1.4005 C   0  0  0  0  0  0
    8.7218   -2.9776    2.3122 C   0  0  0  0  0  0
    9.4249   -4.1420    1.8810 O   0  0  0  0  0  0
   10.8352   -3.9445    1.8468 C   0  0  0  0  0  0
   11.1572   -2.7370    0.9370 C   0  0  0  0  0  0
   12.4781   -0.3064    2.3469 C   0  0  0  0  0  0
   13.2598   -0.7813    1.3076 O   0  0  0  0  0  0
   14.6443   -0.8889    1.6245 C   0  0  0  0  0  0
   15.1020    0.4673    2.1902 C   0  0  0  0  0  0
   14.4098    0.7613    3.3834 O   0  0  0  0  0  0
   13.0428    0.5689    3.2978 C   0  0  0  0  0  0
   13.5234    3.9339    6.3732 N   0  0  0  0  0  0
   13.1075    4.9819    7.1301 C   0  0  0  0  0  0
   13.9220    5.8568    7.8337 N   0  0  0  0  0  0
   13.1342    6.9035    8.4700 C   0  0  0  0  0  0
   11.6844    6.4253    8.3491 C   0  0  0  0  0  0
   11.7865    5.2445    7.4211 C   0  0  0  0  0  0
    4.2298    3.9631   10.5278 H   0  0  0  0  0  0
    5.9217    3.9021   11.0661 H   0  0  0  0  0  0
    5.1625    2.4737   10.3089 H   0  0  0  0  0  0
    4.8732    4.2248    8.3418 H   0  0  0  0  0  0
    4.9442    4.3782    6.5942 H   0  0  0  0  0  0
    5.2350    4.7955    4.2423 H   0  0  0  0  0  0
    7.5220    4.7839    3.2469 H   0  0  0  0  0  0
    9.4627    4.5932    4.6337 H   0  0  0  0  0  0
    9.3527    4.8466    8.1845 H   0  0  0  0  0  0
   13.9516    1.9193    5.1197 H   0  0  0  0  0  0
   10.2602    1.2653    5.0962 H   0  0  0  0  0  0
    9.2921   -0.2381    3.5085 H   0  0  0  0  0  0
    8.4836   -0.8936    1.6568 H   0  0  0  0  0  0
    8.7775   -2.0075    0.3740 H   0  0  0  0  0  0
    7.6510   -3.1780    2.2948 H   0  0  0  0  0  0
    8.9918   -2.7593    3.3466 H   0  0  0  0  0  0
   11.3042   -4.8465    1.4532 H   0  0  0  0  0  0
   11.2284   -3.7987    2.8548 H   0  0  0  0  0  0
   10.7835   -2.9367   -0.0688 H   0  0  0  0  0  0
   12.2313   -2.6677    0.8100 H   0  0  0  0  0  0
   14.7641   -1.6696    2.3785 H   0  0  0  0  0  0
   15.2194   -1.1736    0.7440 H   0  0  0  0  0  0
   16.1813    0.5195    2.3372 H   0  0  0  0  0  0
   14.7751    1.2505    1.5090 H   0  0  0  0  0  0
   14.9350    5.9630    7.9087 H   0  0  0  0  0  0
   13.4360    7.0416    9.5091 H   0  0  0  0  0  0
   13.2820    7.8441    7.9388 H   0  0  0  0  0  0
   11.0784    7.2296    7.9351 H   0  0  0  0  0  0
   11.2940    6.1614    9.3321 H   0  0  0  0  0  0
  1  2  1  0  0  0
  1 38  1  0  0  0
  1 39  1  0  0  0
  1 40  1  0  0  0
  2  3  1  0  0  0
  2 41  1  0  0  0
  3  4  2  0  0  0
  3  5  1  0  0  0
  5  6  2  0  0  0
  5 10  1  0  0  0
  6  7  1  0  0  0
  6 42  1  0  0  0
  7  8  2  0  0  0
  7 43  1  0  0  0
  8  9  1  0  0  0
  8 44  1  0  0  0
  9 10  2  0  0  0
  9 45  1  0  0  0
 10 11  1  0  0  0
 11 12  1  0  0  0
 11 46  1  0  0  0
 12 13  2  0  0  0
 12 37  1  0  0  0
 13 14  1  0  0  0
 14 15  1  0  0  0
 14 32  2  0  0  0
 15 16  1  0  0  0
 15 47  1  0  0  0
 16 17  2  0  0  0
 16 31  1  0  0  0
 17 18  1  0  0  0
 17 48  1  0  0  0
 18 19  2  0  0  0
 18 49  1  0  0  0
 19 20  1  0  0  0
 19 26  1  0  0  0
 20 21  1  0  0  0
 20 25  1  0  0  0
 21 22  1  0  0  0
 21 50  1  0  0  0
 21 51  1  0  0  0
 22 23  1  0  0  0
 22 52  1  0  0  0
 22 53  1  0  0  0
 23 24  1  0  0  0
 24 25  1  0  0  0
 24 54  1  0  0  0
 24 55  1  0  0  0
 25 56  1  0  0  0
 25 57  1  0  0  0
 26 27  1  0  0  0
 26 31  2  0  0  0
 27 28  1  0  0  0
 28 29  1  0  0  0
 28 58  1  0  0  0
 28 59  1  0  0  0
 29 30  1  0  0  0
 29 60  1  0  0  0
 29 61  1  0  0  0
 30 31  1  0  0  0
 32 33  1  0  0  0
 33 34  1  0  0  0
 33 37  2  0  0  0
 34 35  1  0  0  0
 34 62  1  0  0  0
 35 36  1  0  0  0
 35 63  1  0  0  0
 35 64  1  0  0  0
 36 37  1  0  0  0
 36 65  1  0  0  0
 36 66  1  0  0  0
M  END
> <s_m_entry_id>
47627

> <s_m_entry_name>
dock_pv.160

> <s_m_Source_Path>
/home/csk/Desktop/cluster/DUD-E-result/fak1

> <s_m_Source_File>
dock_pv.maegz

> <i_m_Source_File_Index>
160

> <chembl_id>
CHEMBL3959184

> <chembl_pref_name>
None

> <i_lp_mmshare_version>
53161

> <i_f3d_flags>
0

> <r_lp_tautomer_probability>
1

> <s_lp_Force_Field>
OPLS_2005

> <r_lp_Energy>
56.285733

> <b_lp_Chiralities_Consistent>
1

> <s_lp_Variant>
CHEMBL2695_lig1240-1

> <s_i_glide_gridfile>
glide-grid_3bz3

> <i_i_glide_lignum>
1344

> <i_i_glide_rotatable_bonds>
7

> <r_i_docking_score>
-7.63623437933571

> <r_i_glide_ligand_efficiency>
-0.206384712955019

> <r_i_glide_ligand_efficiency_sa>
-0.687719649526627

> <r_i_glide_ligand_efficiency_ln>
-1.65612021814471

> <r_i_glide_gscore>
-7.63623437933571

> <r_i_glide_lipo>
-3.39967354699211

> <r_i_glide_hbond>
-0.32

> <r_i_glide_metal>
0

> <r_i_glide_rewards>
-1.30813645660513

> <r_i_glide_evdw>
-39.2237358093262

> <r_i_glide_ecoul>
-7.38996410369873

> <r_i_glide_erotb>
0.483678516033062

> <r_i_glide_esite>
-0.0224214857504166

> <r_i_glide_emodel>
-53.0341794997257

> <r_i_glide_energy>
-46.6136999130249

> <r_i_glide_einternal>
19.6846103668213

> <i_i_glide_confnum>
7

> <i_i_glide_posenum>
306

> <r_i_glide_eff_state_penalty>
0

> <s_user_duplicate_titles>
CHEMBL2695_lig1240

> <s_m_subgroup_title>
dock_pv

> <s_m_subgroupid>
dock_pv

> <b_m_subgroup_collapsed>
1

$$$$
CHEMBL2695_lig1771
                    3D
 Schrodinger Suite 2021-1.
 39 41  0  0  1  0            999 V2000
    8.3225    3.0455   10.3489 F   0  0  0  0  0  0
    6.9986    4.7299   10.6156 F   0  0  0  0  0  0
    8.7225    4.9142    9.3271 F   0  0  0  0  0  0
   13.5034    7.0140    8.3459 O   0  0  0  0  0  0
    9.3651    0.7632    4.3094 O   0  0  0  0  0  0
    9.7347    2.5543    5.6538 N   0  0  0  0  0  0
    7.6708    2.8870    7.5955 N   0  0  0  0  0  0
   13.9220    2.9878    5.9111 N   0  0  0  0  0  0
    7.6874    1.5700    5.5606 N   0  0  0  0  0  0
   11.6720    3.8785    6.2313 C   0  0  0  0  0  0
   11.1282    2.6882    5.6606 C   0  0  0  0  0  0
   13.0917    3.9635    6.3612 C   0  0  0  0  0  0
    6.9599    3.5783    8.5282 C   0  0  0  0  0  0
    7.7589    4.0827    9.7297 C   0  0  0  0  0  0
    7.0177    2.3632    6.5180 C   0  0  0  0  0  0
   10.8819    4.9541    6.7216 C   0  0  0  0  0  0
   13.6558    5.0364    7.0874 C   0  0  0  0  0  0
   12.8582    6.0385    7.6207 C   0  0  0  0  0  0
    8.9652    1.5905    5.1259 C   0  0  0  0  0  0
   12.0078    1.6765    5.2450 C   0  0  0  0  0  0
   11.4766    6.0079    7.4018 C   0  0  0  0  0  0
    5.5797    3.7841    8.4080 C   0  0  0  0  0  0
   13.3747    1.8867    5.3557 C   0  0  0  0  0  0
    5.6384    2.5193    6.3521 C   0  0  0  0  0  0
    4.9187    3.2473    7.3021 C   0  0  0  0  0  0
   12.7224    7.7797    9.2453 C   0  0  0  0  0  0
    9.2464    3.2149    6.2381 H   0  0  0  0  0  0
    7.0957    0.8790    5.1099 H   0  0  0  0  0  0
    9.8077    4.9416    6.6101 H   0  0  0  0  0  0
   14.7220    5.0743    7.2430 H   0  0  0  0  0  0
   11.6622    0.7457    4.8265 H   0  0  0  0  0  0
   10.8368    6.7874    7.7814 H   0  0  0  0  0  0
    5.0242    4.3333    9.1561 H   0  0  0  0  0  0
   14.0680    1.1434    4.9977 H   0  0  0  0  0  0
    5.1281    2.0793    5.5067 H   0  0  0  0  0  0
    3.8529    3.3822    7.1886 H   0  0  0  0  0  0
   13.3660    8.3627    9.9028 H   0  0  0  0  0  0
   12.0616    8.4579    8.7065 H   0  0  0  0  0  0
   12.1179    7.1308    9.8792 H   0  0  0  0  0  0
  1 14  1  0  0  0
  2 14  1  0  0  0
  3 14  1  0  0  0
  4 18  1  0  0  0
  4 26  1  0  0  0
  5 19  2  0  0  0
  6 11  1  0  0  0
  6 19  1  0  0  0
  6 27  1  0  0  0
  7 13  2  0  0  0
  7 15  1  0  0  0
  8 12  1  0  0  0
  8 23  2  0  0  0
  9 15  1  0  0  0
  9 19  1  0  0  0
  9 28  1  0  0  0
 10 11  1  0  0  0
 10 12  1  0  0  0
 10 16  2  0  0  0
 11 20  2  0  0  0
 12 17  2  0  0  0
 13 14  1  0  0  0
 13 22  1  0  0  0
 15 24  2  0  0  0
 16 21  1  0  0  0
 16 29  1  0  0  0
 17 18  1  0  0  0
 17 30  1  0  0  0
 18 21  2  0  0  0
 20 23  1  0  0  0
 20 31  1  0  0  0
 21 32  1  0  0  0
 22 25  2  0  0  0
 22 33  1  0  0  0
 23 34  1  0  0  0
 24 25  1  0  0  0
 24 35  1  0  0  0
 25 36  1  0  0  0
 26 37  1  0  0  0
 26 38  1  0  0  0
 26 39  1  0  0  0
M  END
> <s_m_entry_id>
47628

> <s_m_entry_name>
dock_pv.161

> <s_m_Source_Path>
/home/csk/Desktop/cluster/DUD-E-result/fak1

> <s_m_Source_File>
dock_pv.maegz

> <i_m_Source_File_Index>
161

> <chembl_id>
CHEMBL1982660

> <chembl_pref_name>
None

> <i_lp_mmshare_version>
53161

> <i_f3d_flags>
0

> <r_lp_tautomer_probability>
1

> <s_lp_Force_Field>
OPLS_2005

> <r_lp_Energy>
27.629669

> <b_lp_Chiralities_Consistent>
1

> <s_lp_Variant>
CHEMBL2695_lig1771-1

> <s_i_glide_gridfile>
glide-grid_3bz3

> <i_i_glide_lignum>
2024

> <i_i_glide_rotatable_bonds>
6

> <r_i_docking_score>
-7.63067239558691

> <r_i_glide_ligand_efficiency>
-0.293487399830266

> <r_i_glide_ligand_efficiency_sa>
-0.869455267180009

> <r_i_glide_ligand_efficiency_ln>
-1.79203837382524

> <r_i_glide_gscore>
-7.63067239558691

> <r_i_glide_lipo>
-3.55170343090693

> <r_i_glide_hbond>
-0.188580159016056

> <r_i_glide_metal>
0

> <r_i_glide_rewards>
-2.1649170321281

> <r_i_glide_evdw>
-35.1183891296387

> <r_i_glide_ecoul>
-3.14937877655029

> <r_i_glide_erotb>
0.585087973548272

> <r_i_glide_esite>
-0.0822334741196232

> <r_i_glide_emodel>
-47.4379906492733

> <r_i_glide_energy>
-38.267767906189

> <r_i_glide_einternal>
8.90620803833008

> <i_i_glide_confnum>
1

> <i_i_glide_posenum>
235

> <r_i_glide_eff_state_penalty>
0

> <s_user_duplicate_titles>
CHEMBL2695_lig1771

> <s_m_subgroup_title>
dock_pv

> <s_m_subgroupid>
dock_pv

> <b_m_subgroup_collapsed>
1

$$$$
CHEMBL2695_lig681
                    3D
 Schrodinger Suite 2021-1.
 44 47  0  0  1  0            999 V2000
    3.7540    4.5083    6.9337 C   0  0  0  0  0  0
    5.0979    4.0690    6.7649 O   0  0  0  0  0  0
    5.8948    3.8673    7.8787 C   0  0  0  0  0  0
    5.4218    3.9630    9.1991 C   0  0  0  0  0  0
    6.2879    3.8416   10.2839 C   0  0  0  0  0  0
    7.6273    3.5575   10.0698 C   0  0  0  0  0  0
    8.0938    3.4041    8.7706 C   0  0  0  0  0  0
    7.2479    3.5585    7.6626 C   0  0  0  0  0  0
    7.7540    3.4142    6.2165 C   0  0  0  0  0  0
    9.0771    2.8065    6.0538 N   0  0  0  0  0  0
   10.2824    3.5049    6.2621 C   0  0  0  0  0  0
   10.3322    4.7983    6.8153 C   0  0  0  0  0  0
   11.5402    5.4584    7.0473 C   0  0  0  0  0  0
   12.7417    4.8337    6.7267 C   0  0  0  0  0  0
   12.6912    3.5882    6.1678 N   0  0  0  0  0  0
   13.7354    2.8460    5.7710 N   0  0  0  0  0  0
   13.1472    1.8724    5.1090 C   0  0  0  0  0  0
   13.9220    1.1640    4.2251 N   0  0  0  0  0  0
   13.6158    0.3629    3.1090 C   0  0  0  0  0  0
   12.3185    0.0135    2.7092 C   0  0  0  0  0  0
   12.1495   -0.8362    1.6140 C   0  0  0  0  0  0
   13.1913   -1.3522    0.9150 N   0  0  0  0  0  0
   14.4422   -1.0168    1.3164 C   0  0  0  0  0  0
   14.6921   -0.1608    2.3897 C   0  0  0  0  0  0
   11.8420    1.7326    5.2788 N   0  0  0  0  0  0
   11.5088    2.8959    5.9072 C   0  0  0  0  0  0
    3.3042    4.6719    5.9541 H   0  0  0  0  0  0
    3.1513    3.7616    7.4528 H   0  0  0  0  0  0
    3.7054    5.4524    7.4795 H   0  0  0  0  0  0
    4.3852    4.1778    9.4058 H   0  0  0  0  0  0
    5.9222    3.9637   11.2924 H   0  0  0  0  0  0
    8.2983    3.4421   10.9073 H   0  0  0  0  0  0
    9.1315    3.1645    8.6391 H   0  0  0  0  0  0
    7.0491    2.7880    5.6672 H   0  0  0  0  0  0
    7.7191    4.3875    5.7251 H   0  0  0  0  0  0
    9.1225    1.9835    5.4657 H   0  0  0  0  0  0
    9.4199    5.3035    7.0898 H   0  0  0  0  0  0
   11.5399    6.4481    7.4825 H   0  0  0  0  0  0
   13.7183    5.2709    6.8817 H   0  0  0  0  0  0
   14.9001    1.1046    4.4743 H   0  0  0  0  0  0
   11.4467    0.3781    3.2285 H   0  0  0  0  0  0
   11.1588   -1.1188    1.2869 H   0  0  0  0  0  0
   15.2618   -1.4615    0.7721 H   0  0  0  0  0  0
   15.7103    0.0585    2.6760 H   0  0  0  0  0  0
  1  2  1  0  0  0
  1 27  1  0  0  0
  1 28  1  0  0  0
  1 29  1  0  0  0
  2  3  1  0  0  0
  3  4  2  0  0  0
  3  8  1  0  0  0
  4  5  1  0  0  0
  4 30  1  0  0  0
  5  6  2  0  0  0
  5 31  1  0  0  0
  6  7  1  0  0  0
  6 32  1  0  0  0
  7  8  2  0  0  0
  7 33  1  0  0  0
  8  9  1  0  0  0
  9 10  1  0  0  0
  9 34  1  0  0  0
  9 35  1  0  0  0
 10 11  1  0  0  0
 10 36  1  0  0  0
 11 12  2  0  0  0
 11 26  1  0  0  0
 12 13  1  0  0  0
 12 37  1  0  0  0
 13 14  2  0  0  0
 13 38  1  0  0  0
 14 15  1  0  0  0
 14 39  1  0  0  0
 15 16  1  0  0  0
 15 26  1  0  0  0
 16 17  2  0  0  0
 17 18  1  0  0  0
 17 25  1  0  0  0
 18 19  1  0  0  0
 18 40  1  0  0  0
 19 20  2  0  0  0
 19 24  1  0  0  0
 20 21  1  0  0  0
 20 41  1  0  0  0
 21 22  2  0  0  0
 21 42  1  0  0  0
 22 23  1  0  0  0
 23 24  2  0  0  0
 23 43  1  0  0  0
 24 44  1  0  0  0
 25 26  2  0  0  0
M  END
> <s_m_entry_id>
47629

> <s_m_entry_name>
dock_pv.162

> <s_m_Source_Path>
/home/csk/Desktop/cluster/DUD-E-result/fak1

> <s_m_Source_File>
dock_pv.maegz

> <i_m_Source_File_Index>
162

> <chembl_id>
CHEMBL3645108

> <chembl_pref_name>
None

> <i_lp_mmshare_version>
53161

> <i_f3d_flags>
0

> <r_lp_tautomer_probability>
0.999999106000799

> <s_lp_Force_Field>
OPLS_2005

> <r_lp_Energy>
24.104444

> <b_lp_Chiralities_Consistent>
1

> <s_lp_Variant>
CHEMBL2695_lig681-1

> <s_i_glide_gridfile>
glide-grid_3bz3

> <i_i_glide_lignum>
736

> <i_i_glide_rotatable_bonds>
6

> <r_i_docking_score>
-7.6179333191065

> <r_i_glide_ligand_efficiency>
-0.29299743535025

> <r_i_glide_ligand_efficiency_sa>
-0.868003749335879

> <r_i_glide_ligand_efficiency_ln>
-1.78904664351414

> <r_i_glide_gscore>
-7.6179333191065

> <r_i_glide_lipo>
-3.22726880403952

> <r_i_glide_hbond>
-0.242486603741612

> <r_i_glide_metal>
0

> <r_i_glide_rewards>
-2.2708656066013

> <r_i_glide_evdw>
-37.6678466796875

> <r_i_glide_ecoul>
-5.13938522338867

> <r_i_glide_erotb>
0.792256103147441

> <r_i_glide_esite>
-0.015268290378828

> <r_i_glide_emodel>
-56.2616986542133

> <r_i_glide_energy>
-42.8072319030762

> <r_i_glide_einternal>
9.03275394439697

> <i_i_glide_confnum>
33

> <i_i_glide_posenum>
305

> <r_i_glide_eff_state_penalty>
0

> <s_user_duplicate_titles>
CHEMBL2695_lig681

> <s_m_subgroup_title>
dock_pv

> <s_m_subgroupid>
dock_pv

> <b_m_subgroup_collapsed>
1

$$$$
CHEMBL2695_lig1248
                    3D
 Schrodinger Suite 2021-1.
 68 72  0  0  1  0            999 V2000
    7.9207    1.6157   10.0484 C   0  0  0  0  0  0
    8.6108    2.9054   10.1545 N   0  0  2  0  0  0
    7.7628    4.2932    9.5224 S   0  0  0  0  0  0
    8.7225    5.4037    9.5474 O   0  0  0  0  0  0
    6.4826    4.3792   10.2313 O   0  0  0  0  0  0
    7.4119    3.8202    7.8081 C   0  0  0  0  0  0
    6.2109    3.1496    7.5428 C   0  0  0  0  0  0
    5.9691    2.6062    6.2808 C   0  0  0  0  0  0
    6.9230    2.7249    5.2725 C   0  0  0  0  0  0
    8.1106    3.4111    5.5175 C   0  0  0  0  0  0
    8.3563    3.9651    6.7779 C   0  0  0  0  0  0
    9.5221    4.6872    7.0249 N   0  0  0  0  0  0
   10.8547    4.4532    6.7090 C   0  0  0  0  0  0
   11.2142    3.3410    6.0176 N   0  0  0  0  0  0
   12.5457    3.0659    5.8999 C   0  0  0  0  0  0
   12.9561    1.9657    5.1130 N   0  0  0  0  0  0
   12.2468    1.1391    4.2151 C   0  0  0  0  0  0
   10.8845    0.8480    4.3685 C   0  0  0  0  0  0
   10.2417   -0.0367    3.5087 C   0  0  0  0  0  0
   10.9344   -0.6879    2.4894 C   0  0  0  0  0  0
   12.2924   -0.3949    2.3237 C   0  0  0  0  0  0
   12.9559    0.5190    3.1616 C   0  0  0  0  0  0
   14.2999    0.8203    3.0297 O   0  0  0  0  0  0
   15.1217   -0.0346    2.2480 C   0  0  0  0  0  0
   10.2587   -1.5771    1.6618 N   0  0  0  0  0  0
    9.1085   -1.0753    0.8860 C   0  0  0  0  0  0
    8.2184   -2.2030    0.3191 C   0  0  0  0  0  0
    9.0084   -3.1181   -0.4306 O   0  0  0  0  0  0
   10.0160   -3.7183    0.3705 C   0  0  0  0  0  0
   10.9671   -2.6298    0.9123 C   0  0  0  0  0  0
   13.5405    3.8557    6.3934 N   0  0  0  0  0  0
   13.1241    4.9347    7.1102 C   0  0  0  0  0  0
   13.9219    5.7919    7.8532 N   0  0  0  0  0  0
   13.0945    6.5260    8.8018 C   0  0  0  0  0  0
   11.7248    6.5463    8.1148 C   0  0  1  0  0  0
   11.5195    7.8252    7.2807 C   0  0  0  0  0  0
   11.8047    5.2926    7.2748 C   0  0  0  0  0  0
    6.8790    1.7806   10.3086 H   0  0  0  0  0  0
    7.9222    1.2458    9.0232 H   0  0  0  0  0  0
    8.3843    0.8732   10.6991 H   0  0  0  0  0  0
    9.6040    2.8721    9.9090 H   0  0  0  0  0  0
    5.4796    3.0077    8.3264 H   0  0  0  0  0  0
    5.0536    2.0655    6.0866 H   0  0  0  0  0  0
    6.7420    2.2754    4.3066 H   0  0  0  0  0  0
    8.8375    3.5135    4.7245 H   0  0  0  0  0  0
    9.4173    5.3404    7.7918 H   0  0  0  0  0  0
   13.9595    1.8947    5.0151 H   0  0  0  0  0  0
   10.3003    1.2663    5.1717 H   0  0  0  0  0  0
    9.1860   -0.2251    3.6488 H   0  0  0  0  0  0
   12.8270   -0.8792    1.5239 H   0  0  0  0  0  0
   16.1539    0.3133    2.3100 H   0  0  0  0  0  0
   15.0788   -1.0590    2.6155 H   0  0  0  0  0  0
   14.8297   -0.0350    1.1992 H   0  0  0  0  0  0
    8.4794   -0.4413    1.5142 H   0  0  0  0  0  0
    9.4689   -0.4385    0.0773 H   0  0  0  0  0  0
    7.4576   -1.7827   -0.3393 H   0  0  0  0  0  0
    7.6827   -2.7161    1.1207 H   0  0  0  0  0  0
   10.5701   -4.4292   -0.2415 H   0  0  0  0  0  0
    9.5728   -4.2930    1.1862 H   0  0  0  0  0  0
   11.5352   -2.1850    0.0944 H   0  0  0  0  0  0
   11.6874   -3.1095    1.5754 H   0  0  0  0  0  0
   14.9318    5.8873    7.9622 H   0  0  0  0  0  0
   13.0515    5.9832    9.7559 H   0  0  0  0  0  0
   13.4813    7.5247    9.0041 H   0  0  0  0  0  0
   10.9471    6.4812    8.8755 H   0  0  0  0  0  0
   10.7102    7.7086    6.5631 H   0  0  0  0  0  0
   11.2852    8.6781    7.9184 H   0  0  0  0  0  0
   12.4114    8.0777    6.7074 H   0  0  0  0  0  0
  1  2  1  0  0  0
  1 38  1  0  0  0
  1 39  1  0  0  0
  1 40  1  0  0  0
  2  3  1  0  0  0
  2 41  1  0  0  0
  3  4  2  0  0  0
  3  5  2  0  0  0
  3  6  1  0  0  0
  6  7  2  0  0  0
  6 11  1  0  0  0
  7  8  1  0  0  0
  7 42  1  0  0  0
  8  9  2  0  0  0
  8 43  1  0  0  0
  9 10  1  0  0  0
  9 44  1  0  0  0
 10 11  2  0  0  0
 10 45  1  0  0  0
 11 12  1  0  0  0
 12 13  1  0  0  0
 12 46  1  0  0  0
 13 14  2  0  0  0
 13 37  1  0  0  0
 14 15  1  0  0  0
 15 16  1  0  0  0
 15 31  2  0  0  0
 16 17  1  0  0  0
 16 47  1  0  0  0
 17 18  2  0  0  0
 17 22  1  0  0  0
 18 19  1  0  0  0
 18 48  1  0  0  0
 19 20  2  0  0  0
 19 49  1  0  0  0
 20 21  1  0  0  0
 20 25  1  0  0  0
 21 22  2  0  0  0
 21 50  1  0  0  0
 22 23  1  0  0  0
 23 24  1  0  0  0
 24 51  1  0  0  0
 24 52  1  0  0  0
 24 53  1  0  0  0
 25 26  1  0  0  0
 25 30  1  0  0  0
 26 27  1  0  0  0
 26 54  1  0  0  0
 26 55  1  0  0  0
 27 28  1  0  0  0
 27 56  1  0  0  0
 27 57  1  0  0  0
 28 29  1  0  0  0
 29 30  1  0  0  0
 29 58  1  0  0  0
 29 59  1  0  0  0
 30 60  1  0  0  0
 30 61  1  0  0  0
 31 32  1  0  0  0
 32 33  1  0  0  0
 32 37  2  0  0  0
 33 34  1  0  0  0
 33 62  1  0  0  0
 34 35  1  0  0  0
 34 63  1  0  0  0
 34 64  1  0  0  0
 35 36  1  0  0  0
 35 37  1  0  0  0
 35 65  1  0  0  0
 36 66  1  0  0  0
 36 67  1  0  0  0
 36 68  1  0  0  0
M  END
> <s_m_entry_id>
47630

> <s_m_entry_name>
dock_pv.163

> <s_m_Source_Path>
/home/csk/Desktop/cluster/DUD-E-result/fak1

> <s_m_Source_File>
dock_pv.maegz

> <i_m_Source_File_Index>
163

> <chembl_id>
CHEMBL3920980

> <chembl_pref_name>
None

> <i_lp_mmshare_version>
53161

> <i_f3d_flags>
0

> <r_lp_tautomer_probability>
1

> <s_lp_Force_Field>
OPLS_2005

> <r_lp_Energy>
53.787798

> <b_lp_Chiralities_Consistent>
1

> <s_lp_Variant>
CHEMBL2695_lig1248-2

> <s_i_glide_gridfile>
glide-grid_3bz3

> <i_i_glide_lignum>
1355

> <i_i_glide_rotatable_bonds>
8

> <r_i_docking_score>
-7.61454745282517

> <r_i_glide_ligand_efficiency>
-0.205798579806086

> <r_i_glide_ligand_efficiency_sa>
-0.685766523842126

> <r_i_glide_ligand_efficiency_ln>
-1.65141683219827

> <r_i_glide_gscore>
-7.61454745282517

> <r_i_glide_lipo>
-2.95040012286536

> <r_i_glide_hbond>
-0.32

> <r_i_glide_metal>
0

> <r_i_glide_rewards>
-1.33551558559697

> <r_i_glide_evdw>
-47.6694107055664

> <r_i_glide_ecoul>
-6.97888612747192

> <r_i_glide_erotb>
0.447021626431348

> <r_i_glide_esite>
-0.0253499163950753

> <r_i_glide_emodel>
-72.5052228414439

> <r_i_glide_energy>
-54.6482968330383

> <r_i_glide_einternal>
6.7041220664978

> <i_i_glide_confnum>
6

> <i_i_glide_posenum>
53

> <r_i_glide_eff_state_penalty>
0

> <s_user_duplicate_titles>
CHEMBL2695_lig1248

> <s_m_subgroup_title>
dock_pv

> <s_m_subgroupid>
dock_pv

> <b_m_subgroup_collapsed>
1

$$$$
CHEMBL2695_lig1691
                    3D
 Schrodinger Suite 2021-1.
 40 42  0  0  1  0            999 V2000
   14.0539    0.3629    3.5091 Cl  0  0  0  0  0  0
    8.6866    3.2174    6.4868 O   0  0  0  0  0  0
   14.0528    4.6328    6.7090 O   0  0  0  0  0  0
   10.0102    3.7374    6.2255 N   0  0  0  0  0  0
    9.8839    5.1633    8.3073 N   0  0  0  0  0  0
   10.7221    5.9673    8.9836 N   0  0  0  0  0  0
   10.4542    4.6466    7.1572 C   0  0  0  0  0  0
   11.7836    5.0452    7.2823 C   0  0  0  0  0  0
   10.9658    2.8483    5.7012 C   0  0  0  0  0  0
   12.3576    3.1121    5.8876 C   0  0  0  0  0  0
   12.8589    4.3629    6.5851 C   0  0  0  0  0  0
   11.8497    5.9814    8.3154 C   0  0  0  0  0  0
   13.2888    2.2175    5.3253 C   0  0  0  0  0  0
   10.5786    1.7323    4.9393 C   0  0  0  0  0  0
   12.8796    1.1890    4.4711 C   0  0  0  0  0  0
   11.5219    0.9255    4.3097 C   0  0  0  0  0  0
    8.6040    4.8606    8.9377 C   0  0  0  0  0  0
   13.0242    6.8047    8.7994 C   0  0  0  0  0  0
    7.7906    3.5397    5.4109 C   0  0  0  0  0  0
    6.4956    4.2173    5.9229 C   0  0  0  0  0  0
    5.7496    3.3715    6.9754 C   0  0  0  0  0  0
    5.5498    4.5865    4.7677 C   0  0  0  0  0  0
   14.3481    2.3800    5.4431 H   0  0  0  0  0  0
    9.5357    1.5116    4.7704 H   0  0  0  0  0  0
   11.1934    0.1285    3.6584 H   0  0  0  0  0  0
    8.5413    3.7887    9.1271 H   0  0  0  0  0  0
    8.4959    5.3881    9.8873 H   0  0  0  0  0  0
    7.7903    5.1633    8.2893 H   0  0  0  0  0  0
   13.6339    6.2492    9.5089 H   0  0  0  0  0  0
   12.7215    7.7337    9.2826 H   0  0  0  0  0  0
   13.6857    7.0808    7.9779 H   0  0  0  0  0  0
    8.2491    4.1775    4.6495 H   0  0  0  0  0  0
    7.5316    2.6102    4.9017 H   0  0  0  0  0  0
    6.7766    5.1628    6.3815 H   0  0  0  0  0  0
    5.4251    2.4170    6.5585 H   0  0  0  0  0  0
    6.3751    3.1514    7.8402 H   0  0  0  0  0  0
    4.8640    3.8903    7.3444 H   0  0  0  0  0  0
    5.1267    3.6943    4.3066 H   0  0  0  0  0  0
    4.7172    5.1935    5.1245 H   0  0  0  0  0  0
    6.0604    5.1657    3.9971 H   0  0  0  0  0  0
  1 15  1  0  0  0
  2  4  1  0  0  0
  2 19  1  0  0  0
  3 11  2  0  0  0
  4  7  1  0  0  0
  4  9  1  0  0  0
  5  6  1  0  0  0
  5  7  1  0  0  0
  5 17  1  0  0  0
  6 12  2  0  0  0
  7  8  2  0  0  0
  8 11  1  0  0  0
  8 12  1  0  0  0
  9 10  1  0  0  0
  9 14  2  0  0  0
 10 11  1  0  0  0
 10 13  2  0  0  0
 12 18  1  0  0  0
 13 15  1  0  0  0
 13 23  1  0  0  0
 14 16  1  0  0  0
 14 24  1  0  0  0
 15 16  2  0  0  0
 16 25  1  0  0  0
 17 26  1  0  0  0
 17 27  1  0  0  0
 17 28  1  0  0  0
 18 29  1  0  0  0
 18 30  1  0  0  0
 18 31  1  0  0  0
 19 20  1  0  0  0
 19 32  1  0  0  0
 19 33  1  0  0  0
 20 21  1  0  0  0
 20 22  1  0  0  0
 20 34  1  0  0  0
 21 35  1  0  0  0
 21 36  1  0  0  0
 21 37  1  0  0  0
 22 38  1  0  0  0
 22 39  1  0  0  0
 22 40  1  0  0  0
M  END
> <s_m_entry_id>
47631

> <s_m_entry_name>
dock_pv.164

> <s_m_Source_Path>
/home/csk/Desktop/cluster/DUD-E-result/fak1

> <s_m_Source_File>
dock_pv.maegz

> <i_m_Source_File_Index>
164

> <chembl_id>
CHEMBL1977814

> <chembl_pref_name>
None

> <i_lp_mmshare_version>
53161

> <i_f3d_flags>
0

> <r_lp_tautomer_probability>
1

> <s_lp_Force_Field>
OPLS_2005

> <r_lp_Energy>
15.017739

> <b_lp_Chiralities_Consistent>
1

> <s_lp_Variant>
CHEMBL2695_lig1691-1

> <s_i_glide_gridfile>
glide-grid_3bz3

> <i_i_glide_lignum>
1897

> <i_i_glide_rotatable_bonds>
3

> <r_i_docking_score>
-7.61410115319721

> <r_i_glide_ligand_efficiency>
-0.34609550696351

> <r_i_glide_ligand_efficiency_sa>
-0.969773221675666

> <r_i_glide_ligand_efficiency_ln>
-1.86116405292906

> <r_i_glide_gscore>
-7.61410115319721

> <r_i_glide_lipo>
-3.33515752366235

> <r_i_glide_hbond>
-0.186221298382148

> <r_i_glide_metal>
0

> <r_i_glide_rewards>
-2.75120574892865

> <r_i_glide_evdw>
-27.8845043182373

> <r_i_glide_ecoul>
-2.08203482627869

> <r_i_glide_erotb>
0.365013857629606

> <r_i_glide_esite>
0

> <r_i_glide_emodel>
-36.8861371407363

> <r_i_glide_energy>
-29.966539144516

> <r_i_glide_einternal>
1.37749326229095

> <i_i_glide_confnum>
3

> <i_i_glide_posenum>
337

> <r_i_glide_eff_state_penalty>
0

> <s_user_duplicate_titles>
CHEMBL2695_lig1691

> <s_m_subgroup_title>
dock_pv

> <s_m_subgroupid>
dock_pv

> <b_m_subgroup_collapsed>
1

$$$$
CHEMBL2695_lig444
                    3D
 Schrodinger Suite 2021-1.
 45 48  0  0  1  0            999 V2000
    7.9498    3.4650    4.9381 C   0  0  0  0  0  0
    9.0610    2.4314    4.9026 C   0  0  0  0  0  0
   10.3958    2.7053    5.2905 C   0  0  0  0  0  0
   11.4001    1.7590    5.0704 C   0  0  0  0  0  0
   11.1364    0.6297    4.3095 C   0  0  0  0  0  0
    9.8447    0.3622    3.9090 C   0  0  0  0  0  0
    8.8050    1.1851    4.3093 C   0  0  0  0  0  0
    8.1909    4.6648    4.7992 O   0  0  0  0  0  0
    6.7012    2.9956    5.1091 N   0  0  0  0  0  0
    5.5044    3.8294    5.1623 C   0  0  0  0  0  0
   10.8670    3.9060    5.8273 N   0  0  0  0  0  0
   11.3305    5.4651    7.5443 N   0  0  0  0  0  0
   11.0376    5.9629    8.8187 C   0  0  0  0  0  0
    9.9433    5.5653    9.4985 N   0  0  0  0  0  0
    9.1094    4.7299    8.8378 C   0  0  0  0  0  0
    9.3250    4.2183    7.6097 N   0  0  0  0  0  0
   10.4627    4.5757    6.9757 C   0  0  0  0  0  0
   12.0383    6.7629    9.2480 N   0  0  0  0  0  0
   12.9392    6.7508    8.2916 C   0  0  0  0  0  0
   12.5719    5.9611    7.2121 C   0  0  0  0  0  0
    7.9399    4.3917    9.5207 N   0  0  0  0  0  0
    6.8715    3.5369    9.1972 C   0  0  0  0  0  0
    6.9806    2.4614    8.3055 C   0  0  0  0  0  0
    5.8655    1.6857    7.9909 C   0  0  0  0  0  0
    4.6360    1.9742    8.5861 C   0  0  0  0  0  0
    4.5272    3.0256    9.4972 C   0  0  0  0  0  0
    5.6464    3.7922    9.8081 C   0  0  0  0  0  0
    3.4681    1.1630    8.2790 C   0  0  0  0  0  0
    2.5371    0.5180    8.0383 N   0  0  0  0  0  0
   12.4200    1.9553    5.3697 H   0  0  0  0  0  0
   11.9215   -0.0368    4.0001 H   0  0  0  0  0  0
    9.6265   -0.5234    3.3296 H   0  0  0  0  0  0
    7.8121    0.9154    3.9737 H   0  0  0  0  0  0
    6.5727    2.0000    5.2219 H   0  0  0  0  0  0
    4.6527    3.2807    4.7614 H   0  0  0  0  0  0
    5.2797    4.0991    6.1940 H   0  0  0  0  0  0
    5.6112    4.7491    4.5842 H   0  0  0  0  0  0
   11.8110    4.1347    5.5635 H   0  0  0  0  0  0
   13.8721    7.2898    8.3882 H   0  0  0  0  0  0
   13.1048    5.7124    6.3068 H   0  0  0  0  0  0
    7.8249    4.9194   10.3708 H   0  0  0  0  0  0
    7.9217    2.2087    7.8432 H   0  0  0  0  0  0
    5.9699    0.8614    7.2969 H   0  0  0  0  0  0
    3.5867    3.2564    9.9791 H   0  0  0  0  0  0
    5.5410    4.6024   10.5144 H   0  0  0  0  0  0
  1  2  1  0  0  0
  1  8  2  0  0  0
  1  9  1  0  0  0
  2  3  1  0  0  0
  2  7  2  0  0  0
  3  4  2  0  0  0
  3 11  1  0  0  0
  4  5  1  0  0  0
  4 30  1  0  0  0
  5  6  2  0  0  0
  5 31  1  0  0  0
  6  7  1  0  0  0
  6 32  1  0  0  0
  7 33  1  0  0  0
  9 10  1  0  0  0
  9 34  1  0  0  0
 10 35  1  0  0  0
 10 36  1  0  0  0
 10 37  1  0  0  0
 11 17  1  0  0  0
 11 38  1  0  0  0
 12 13  1  0  0  0
 12 17  1  0  0  0
 12 20  1  0  0  0
 13 14  1  0  0  0
 13 18  2  0  0  0
 14 15  2  0  0  0
 15 16  1  0  0  0
 15 21  1  0  0  0
 16 17  2  0  0  0
 18 19  1  0  0  0
 19 20  2  0  0  0
 19 39  1  0  0  0
 20 40  1  0  0  0
 21 22  1  0  0  0
 21 41  1  0  0  0
 22 23  1  0  0  0
 22 27  2  0  0  0
 23 24  2  0  0  0
 23 42  1  0  0  0
 24 25  1  0  0  0
 24 43  1  0  0  0
 25 26  2  0  0  0
 25 28  1  0  0  0
 26 27  1  0  0  0
 26 44  1  0  0  0
 27 45  1  0  0  0
 28 29  3  0  0  0
M  END
> <s_m_entry_id>
47632

> <s_m_entry_name>
dock_pv.165

> <s_m_Source_Path>
/home/csk/Desktop/cluster/DUD-E-result/fak1

> <s_m_Source_File>
dock_pv.maegz

> <i_m_Source_File_Index>
165

> <chembl_id>
CHEMBL3393274

> <chembl_pref_name>
None

> <i_lp_mmshare_version>
53161

> <i_f3d_flags>
0

> <r_lp_tautomer_probability>
1

> <s_lp_Force_Field>
OPLS_2005

> <r_lp_Energy>
30.938787

> <b_lp_Chiralities_Consistent>
1

> <s_lp_Variant>
CHEMBL2695_lig444-1

> <s_i_glide_gridfile>
glide-grid_3bz3

> <i_i_glide_lignum>
497

> <i_i_glide_rotatable_bonds>
6

> <r_i_docking_score>
-7.61095499497182

> <r_i_glide_ligand_efficiency>
-0.262446723964545

> <r_i_glide_ligand_efficiency_sa>
-0.806319484977363

> <r_i_glide_ligand_efficiency_ln>
-1.74271569668212

> <r_i_glide_gscore>
-7.61095499497182

> <r_i_glide_lipo>
-2.10252528662914

> <r_i_glide_hbond>
-0.32

> <r_i_glide_metal>
0

> <r_i_glide_rewards>
-2.89309404468523

> <r_i_glide_evdw>
-33.6675910949707

> <r_i_glide_ecoul>
-8.20691776275635

> <r_i_glide_erotb>
0.657901160432434

> <r_i_glide_esite>
-0.0388196049278933

> <r_i_glide_emodel>
-54.05393569451

> <r_i_glide_energy>
-41.8745088577271

> <r_i_glide_einternal>
10.7778196334839

> <i_i_glide_confnum>
26

> <i_i_glide_posenum>
197

> <r_i_glide_eff_state_penalty>
0

> <s_user_duplicate_titles>
CHEMBL2695_lig444

> <s_m_subgroup_title>
dock_pv

> <s_m_subgroupid>
dock_pv

> <b_m_subgroup_collapsed>
1

$$$$
CHEMBL2695_lig762
                    3D
 Schrodinger Suite 2021-1.
 41 45  0  0  1  0            999 V2000
   14.4231    4.3671    7.9947 O   0  0  0  0  0  0
   13.5203    5.1657    7.7479 C   0  0  0  0  0  0
   13.5214    6.3642    8.3851 N   0  0  0  0  0  0
   12.5653    7.3172    8.1986 C   0  0  0  0  0  0
   11.5219    7.1575    7.3688 C   0  0  0  0  0  0
   11.4198    5.8785    6.6840 C   0  0  0  0  0  0
   12.3750    4.9186    6.8322 C   0  0  0  0  0  0
   12.2357    3.5974    6.1243 C   0  0  0  0  0  0
   13.3874    2.8882    5.7151 C   0  0  0  0  0  0
   13.3331    1.6906    5.0111 C   0  0  0  0  0  0
   12.0987    1.1631    4.6674 C   0  0  0  0  0  0
   10.9790    1.7869    5.1089 N   0  0  0  0  0  0
    9.7384    1.3342    4.9375 N   0  0  0  0  0  0
    9.0224    2.2578    5.5252 C   0  0  0  0  0  0
    7.6759    2.0441    5.5922 N   0  0  0  0  0  0
    6.6740    2.9570    5.9277 C   0  0  0  0  0  0
    6.7321    4.2863    5.5088 C   0  0  0  0  0  0
    5.6894    5.1636    5.7840 C   0  0  0  0  0  0
    4.5698    4.7297    6.5292 C   0  0  0  0  0  0
    3.5804    5.6227    6.8076 N   0  0  0  0  0  0
    2.5044    5.1913    7.5091 C   0  0  0  0  0  0
    2.3610    3.8854    7.9717 C   0  0  0  0  0  0
    3.3681    2.9602    7.7003 C   0  0  0  0  0  0
    4.5070    3.3699    6.9622 C   0  0  0  0  0  0
    5.5683    2.4908    6.6363 C   0  0  0  0  0  0
    9.6684    3.2911    6.0579 N   0  0  0  0  0  0
   10.9768    2.9890    5.8196 C   0  0  0  0  0  0
   14.3478    6.5152    8.9483 H   0  0  0  0  0  0
   12.7638    8.2210    8.7581 H   0  0  0  0  0  0
   10.7958    7.9411    7.2117 H   0  0  0  0  0  0
   10.5689    5.7075    6.0421 H   0  0  0  0  0  0
   14.3709    3.2814    5.9091 H   0  0  0  0  0  0
   14.2484    1.2021    4.7046 H   0  0  0  0  0  0
   11.9414    0.2672    4.0844 H   0  0  0  0  0  0
    7.3384    1.0907    5.5096 H   0  0  0  0  0  0
    7.5780    4.6350    4.9343 H   0  0  0  0  0  0
    5.7293    6.1790    5.4230 H   0  0  0  0  0  0
    1.7460    5.9333    7.7123 H   0  0  0  0  0  0
    1.4857    3.5975    8.5348 H   0  0  0  0  0  0
    3.2916    1.9390    8.0447 H   0  0  0  0  0  0
    5.5191    1.4564    6.9486 H   0  0  0  0  0  0
  1  2  2  0  0  0
  2  3  1  0  0  0
  2  7  1  0  0  0
  3  4  1  0  0  0
  3 28  1  0  0  0
  4  5  2  0  0  0
  4 29  1  0  0  0
  5  6  1  0  0  0
  5 30  1  0  0  0
  6  7  2  0  0  0
  6 31  1  0  0  0
  7  8  1  0  0  0
  8  9  2  0  0  0
  8 27  1  0  0  0
  9 10  1  0  0  0
  9 32  1  0  0  0
 10 11  2  0  0  0
 10 33  1  0  0  0
 11 12  1  0  0  0
 11 34  1  0  0  0
 12 13  1  0  0  0
 12 27  1  0  0  0
 13 14  2  0  0  0
 14 15  1  0  0  0
 14 26  1  0  0  0
 15 16  1  0  0  0
 15 35  1  0  0  0
 16 17  2  0  0  0
 16 25  1  0  0  0
 17 18  1  0  0  0
 17 36  1  0  0  0
 18 19  2  0  0  0
 18 37  1  0  0  0
 19 20  1  0  0  0
 19 24  1  0  0  0
 20 21  2  0  0  0
 21 22  1  0  0  0
 21 38  1  0  0  0
 22 23  2  0  0  0
 22 39  1  0  0  0
 23 24  1  0  0  0
 23 40  1  0  0  0
 24 25  2  0  0  0
 25 41  1  0  0  0
 26 27  2  0  0  0
M  END
> <s_m_entry_id>
47633

> <s_m_entry_name>
dock_pv.166

> <s_m_Source_Path>
/home/csk/Desktop/cluster/DUD-E-result/fak1

> <s_m_Source_File>
dock_pv.maegz

> <i_m_Source_File_Index>
166

> <chembl_id>
CHEMBL3645008

> <chembl_pref_name>
None

> <i_lp_mmshare_version>
53161

> <i_f3d_flags>
0

> <r_lp_tautomer_probability>
0.999

> <s_lp_Force_Field>
OPLS_2005

> <r_lp_Energy>
24.670549

> <b_lp_Chiralities_Consistent>
1

> <s_lp_Variant>
CHEMBL2695_lig762-1

> <s_i_glide_gridfile>
glide-grid_3bz3

> <i_i_glide_lignum>
819

> <i_i_glide_rotatable_bonds>
3

> <r_i_docking_score>
-7.60937290643528

> <r_i_glide_ligand_efficiency>
-0.28182862616427

> <r_i_glide_ligand_efficiency_sa>
-0.845485877563948

> <r_i_glide_ligand_efficiency_ln>
-1.7713365623013

> <r_i_glide_gscore>
-7.60937290643528

> <r_i_glide_lipo>
-3.40658733309015

> <r_i_glide_hbond>
-0.261671860152297

> <r_i_glide_metal>
0

> <r_i_glide_rewards>
-1.87865555252848

> <r_i_glide_evdw>
-42.3015365600586

> <r_i_glide_ecoul>
-1.36587917804718

> <r_i_glide_erotb>
0.319543664806513

> <r_i_glide_esite>
-0.0620431207608633

> <r_i_glide_emodel>
-59.6264550501757

> <r_i_glide_energy>
-43.6674157381058

> <r_i_glide_einternal>
4.7762656211853

> <i_i_glide_confnum>
6

> <i_i_glide_posenum>
106

> <r_i_glide_eff_state_penalty>
0

> <s_user_duplicate_titles>
CHEMBL2695_lig762

> <s_m_subgroup_title>
dock_pv

> <s_m_subgroupid>
dock_pv

> <b_m_subgroup_collapsed>
1

$$$$
CHEMBL2695_lig1618
                    3D
 Schrodinger Suite 2021-1.
 43 45  0  0  1  0            999 V2000
    9.3516    4.9312    9.0156 O   0  0  0  0  0  0
    9.6556    4.2842    6.8475 N   0  0  0  0  0  0
   13.9218    6.1086    8.0786 N   0  0  0  0  0  0
   13.9212    4.2192    6.5845 N   0  0  0  0  0  0
    2.6669    3.3347    7.6586 N   0  0  0  0  0  0
   11.8892    5.3316    7.4255 C   0  0  0  0  0  0
   11.0550    4.4138    6.7212 C   0  0  0  0  0  0
   13.3012    5.1622    7.2962 C   0  0  0  0  0  0
   11.7244    6.4405    8.3285 C   0  0  0  0  0  0
    8.9097    4.4584    7.9684 C   0  0  0  0  0  0
   11.6951    3.4645    5.9154 C   0  0  0  0  0  0
    7.3948    4.1466    7.8833 C   0  0  2  0  0  0
   12.9768    6.8773    8.7054 C   0  0  0  0  0  0
   13.0900    3.3868    5.9087 C   0  0  0  0  0  0
    6.7365    4.1721    9.2978 C   0  0  0  0  0  0
    7.1406    2.7873    7.1747 C   0  0  0  0  0  0
    4.9103    2.5848    8.4409 C   0  0  2  0  0  0
    5.2231    3.9187    9.1742 C   0  0  0  0  0  0
    5.6183    2.5596    7.0611 C   0  0  0  0  0  0
    3.3950    2.2635    8.3205 C   0  0  1  0  0  0
    2.7135    1.9743    9.6637 C   0  0  0  0  0  0
    9.2015    3.7986    6.0900 H   0  0  0  0  0  0
   14.9259    6.2503    8.1933 H   0  0  0  0  0  0
    1.6795    3.1284    7.6463 H   0  0  0  0  0  0
    2.7731    4.1883    8.1883 H   0  0  0  0  0  0
   10.8042    6.8549    8.6971 H   0  0  0  0  0  0
   11.1206    2.7274    5.3711 H   0  0  0  0  0  0
    7.0059    4.9355    7.2419 H   0  0  0  0  0  0
   13.2773    7.6654    9.3798 H   0  0  0  0  0  0
   13.5801    2.6118    5.3382 H   0  0  0  0  0  0
    6.8490    5.1473    9.7826 H   0  0  0  0  0  0
    7.1305    3.3758    9.9337 H   0  0  0  0  0  0
    7.5321    1.9516    7.7578 H   0  0  0  0  0  0
    7.5180    2.7686    6.1505 H   0  0  0  0  0  0
    5.3727    1.7921    9.0317 H   0  0  0  0  0  0
    4.7503    4.7557    8.6626 H   0  0  0  0  0  0
    4.7713    3.9203   10.1673 H   0  0  0  0  0  0
    5.4281    1.6022    6.5727 H   0  0  0  0  0  0
    5.1698    3.3010    6.3971 H   0  0  0  0  0  0
    3.2842    1.3731    7.6990 H   0  0  0  0  0  0
    3.2186    1.1640   10.1910 H   0  0  0  0  0  0
    1.6764    1.6789    9.5092 H   0  0  0  0  0  0
    2.7164    2.8423   10.3228 H   0  0  0  0  0  0
  1 10  2  0  0  0
  2  7  1  0  0  0
  2 10  1  0  0  0
  2 22  1  0  0  0
  3  8  1  0  0  0
  3 13  1  0  0  0
  3 23  1  0  0  0
  4  8  1  0  0  0
  4 14  2  0  0  0
  5 20  1  0  0  0
  5 24  1  0  0  0
  5 25  1  0  0  0
  6  7  1  0  0  0
  6  8  2  0  0  0
  6  9  1  0  0  0
  7 11  2  0  0  0
  9 13  2  0  0  0
  9 26  1  0  0  0
 10 12  1  0  0  0
 11 14  1  0  0  0
 11 27  1  0  0  0
 12 15  1  0  0  0
 12 16  1  0  0  0
 12 28  1  0  0  0
 13 29  1  0  0  0
 14 30  1  0  0  0
 15 18  1  0  0  0
 15 31  1  0  0  0
 15 32  1  0  0  0
 16 19  1  0  0  0
 16 33  1  0  0  0
 16 34  1  0  0  0
 17 18  1  0  0  0
 17 19  1  0  0  0
 17 20  1  0  0  0
 17 35  1  0  0  0
 18 36  1  0  0  0
 18 37  1  0  0  0
 19 38  1  0  0  0
 19 39  1  0  0  0
 20 21  1  0  0  0
 20 40  1  0  0  0
 21 41  1  0  0  0
 21 42  1  0  0  0
 21 43  1  0  0  0
M  END
> <s_m_entry_id>
47634

> <s_m_entry_name>
dock_pv.167

> <s_m_Source_Path>
/home/csk/Desktop/cluster/DUD-E-result/fak1

> <s_m_Source_File>
dock_pv.maegz

> <i_m_Source_File_Index>
167

> <chembl_id>
CHEMBL2002992

> <chembl_pref_name>
None

> <i_lp_mmshare_version>
53161

> <i_f3d_flags>
0

> <r_lp_tautomer_probability>
0.999998432528457

> <s_lp_Force_Field>
OPLS_2005

> <r_lp_Energy>
23.065195

> <b_lp_Chiralities_Consistent>
1

> <s_lp_Variant>
CHEMBL2695_lig1618-2

> <s_i_glide_gridfile>
glide-grid_3bz3

> <i_i_glide_lignum>
1796

> <i_i_glide_rotatable_bonds>
4

> <r_i_docking_score>
-7.60609250972647

> <r_i_glide_ligand_efficiency>
-0.362194881415546

> <r_i_glide_ligand_efficiency_sa>
-0.999268213884746

> <r_i_glide_ligand_efficiency_ln>
-1.88059100347278

> <r_i_glide_gscore>
-7.60609250972647

> <r_i_glide_lipo>
-2.35311147684061

> <r_i_glide_hbond>
-0.32

> <r_i_glide_metal>
0

> <r_i_glide_rewards>
-2.85329812762249

> <r_i_glide_evdw>
-29.0045738220215

> <r_i_glide_ecoul>
-8.62489223480225

> <r_i_glide_erotb>
0.664279621058043

> <r_i_glide_esite>
0

> <r_i_glide_emodel>
-48.5307559908372

> <r_i_glide_energy>
-37.6294660568237

> <r_i_glide_einternal>
10.6047124862671

> <i_i_glide_confnum>
2

> <i_i_glide_posenum>
279

> <r_i_glide_eff_state_penalty>
0

> <s_user_duplicate_titles>
CHEMBL2695_lig1618

> <s_m_subgroup_title>
dock_pv

> <s_m_subgroupid>
dock_pv

> <b_m_subgroup_collapsed>
1

$$$$
CHEMBL2695_lig492
                    3D
 Schrodinger Suite 2021-1.
 55 59  0  0  1  0            999 V2000
    6.6085    4.2837    5.1566 C   0  0  0  0  0  0
    7.6452    3.1851    4.9022 C   0  0  0  0  0  0
    8.9408    3.7516    5.0280 O   0  0  0  0  0  0
   10.0258    2.9004    5.0754 C   0  0  0  0  0  0
   10.0372    1.6493    4.4367 C   0  0  0  0  0  0
   11.1883    0.8693    4.4231 C   0  0  0  0  0  0
   12.3321    1.3220    5.0724 C   0  0  0  0  0  0
   12.3133    2.5155    5.7720 C   0  0  0  0  0  0
   11.1742    3.3267    5.7679 C   0  0  0  0  0  0
   11.2035    4.5520    6.5965 C   0  0  0  0  0  0
   12.3218    5.3982    6.6308 C   0  0  0  0  0  0
   12.4826    6.3630    7.6257 C   0  0  0  0  0  0
   11.5345    6.4733    8.6390 C   0  0  0  0  0  0
   10.4326    5.6627    8.5856 N   0  0  0  0  0  0
    9.4505    5.5593    9.5090 N   0  0  0  0  0  0
    8.6664    4.6313    8.9908 C   0  0  0  0  0  0
    7.5113    4.2482    9.6295 N   0  0  0  0  0  0
    6.5240    3.3570    9.1565 C   0  0  0  0  0  0
    6.7899    2.2881    8.3003 C   0  0  0  0  0  0
    5.7485    1.5435    7.7610 C   0  0  0  0  0  0
    4.4125    1.7994    8.0886 C   0  0  0  0  0  0
    3.3373    0.9799    7.3680 C   0  0  0  0  0  0
    2.0471    0.6565    8.1324 C   0  0  0  0  0  0
    1.0676    1.7238    8.2411 N   0  0  1  0  0  0
    1.5729    3.0639    8.4903 C   0  0  0  0  0  0
    2.7164    3.1631    9.5084 C   0  0  0  0  0  0
    4.1313    2.8322    9.0158 C   0  0  0  0  0  0
    5.2024    3.5733    9.5344 C   0  0  0  0  0  0
    9.0376    4.1290    7.8329 N   0  0  0  0  0  0
   10.1950    4.7631    7.5499 C   0  0  0  0  0  0
    5.5954    3.8920    5.0732 H   0  0  0  0  0  0
    6.7225    4.7015    6.1571 H   0  0  0  0  0  0
    6.7151    5.0988    4.4406 H   0  0  0  0  0  0
    7.5215    2.7640    3.9090 H   0  0  0  0  0  0
    7.5083    2.3728    5.6152 H   0  0  0  0  0  0
    9.1693    1.2852    3.9092 H   0  0  0  0  0  0
   11.1953   -0.0707    3.8922 H   0  0  0  0  0  0
   13.2556    0.7646    5.0368 H   0  0  0  0  0  0
   13.2030    2.8166    6.3047 H   0  0  0  0  0  0
   13.1145    5.2572    5.9086 H   0  0  0  0  0  0
   13.3713    6.9796    7.6404 H   0  0  0  0  0  0
   11.6238    7.1536    9.4715 H   0  0  0  0  0  0
    7.1845    4.8304   10.3826 H   0  0  0  0  0  0
    7.7966    2.0342    8.0113 H   0  0  0  0  0  0
    5.9935    0.7625    7.0577 H   0  0  0  0  0  0
    3.1047    1.4652    6.4201 H   0  0  0  0  0  0
    3.7890    0.0282    7.0885 H   0  0  0  0  0  0
    1.5542   -0.2101    7.6923 H   0  0  0  0  0  0
    2.3209    0.3597    9.1416 H   0  0  0  0  0  0
    0.4763    1.7230    7.4204 H   0  0  0  0  0  0
    1.9051    3.4911    7.5435 H   0  0  0  0  0  0
    0.7329    3.6865    8.7992 H   0  0  0  0  0  0
    2.5007    2.5609   10.3910 H   0  0  0  0  0  0
    2.7236    4.1903    9.8697 H   0  0  0  0  0  0
    4.9914    4.3629   10.2383 H   0  0  0  0  0  0
  1  2  1  0  0  0
  1 31  1  0  0  0
  1 32  1  0  0  0
  1 33  1  0  0  0
  2  3  1  0  0  0
  2 34  1  0  0  0
  2 35  1  0  0  0
  3  4  1  0  0  0
  4  5  2  0  0  0
  4  9  1  0  0  0
  5  6  1  0  0  0
  5 36  1  0  0  0
  6  7  2  0  0  0
  6 37  1  0  0  0
  7  8  1  0  0  0
  7 38  1  0  0  0
  8  9  2  0  0  0
  8 39  1  0  0  0
  9 10  1  0  0  0
 10 11  2  0  0  0
 10 30  1  0  0  0
 11 12  1  0  0  0
 11 40  1  0  0  0
 12 13  2  0  0  0
 12 41  1  0  0  0
 13 14  1  0  0  0
 13 42  1  0  0  0
 14 15  1  0  0  0
 14 30  1  0  0  0
 15 16  2  0  0  0
 16 17  1  0  0  0
 16 29  1  0  0  0
 17 18  1  0  0  0
 17 43  1  0  0  0
 18 19  2  0  0  0
 18 28  1  0  0  0
 19 20  1  0  0  0
 19 44  1  0  0  0
 20 21  2  0  0  0
 20 45  1  0  0  0
 21 22  1  0  0  0
 21 27  1  0  0  0
 22 23  1  0  0  0
 22 46  1  0  0  0
 22 47  1  0  0  0
 23 24  1  0  0  0
 23 48  1  0  0  0
 23 49  1  0  0  0
 24 25  1  0  0  0
 24 50  1  0  0  0
 25 26  1  0  0  0
 25 51  1  0  0  0
 25 52  1  0  0  0
 26 27  1  0  0  0
 26 53  1  0  0  0
 26 54  1  0  0  0
 27 28  2  0  0  0
 28 55  1  0  0  0
 29 30  2  0  0  0
M  END
> <s_m_entry_id>
47635

> <s_m_entry_name>
dock_pv.168

> <s_m_Source_Path>
/home/csk/Desktop/cluster/DUD-E-result/fak1

> <s_m_Source_File>
dock_pv.maegz

> <i_m_Source_File_Index>
168

> <chembl_id>
CHEMBL3644979

> <chembl_pref_name>
None

> <i_lp_mmshare_version>
53161

> <i_f3d_flags>
0

> <r_lp_tautomer_probability>
1

> <s_lp_Force_Field>
OPLS_2005

> <r_lp_Energy>
32.744328

> <b_lp_Chiralities_Consistent>
1

> <s_lp_Variant>
CHEMBL2695_lig492-1

> <s_i_glide_gridfile>
glide-grid_3bz3

> <i_i_glide_lignum>
546

> <i_i_glide_rotatable_bonds>
5

> <r_i_docking_score>
-7.60417483653699

> <r_i_glide_ligand_efficiency>
-0.253472494551233

> <r_i_glide_ligand_efficiency_sa>
-0.787597973541879

> <r_i_glide_ligand_efficiency_ln>
-1.72775137698214

> <r_i_glide_gscore>
-7.60417483653699

> <r_i_glide_lipo>
-3.03251439336565

> <r_i_glide_hbond>
-0.316110306950598

> <r_i_glide_metal>
0

> <r_i_glide_rewards>
-2.34160910671164

> <r_i_glide_evdw>
-37.6486549377441

> <r_i_glide_ecoul>
-3.48425841331482

> <r_i_glide_erotb>
0.491130479375326

> <r_i_glide_esite>
0

> <r_i_glide_emodel>
-56.1461951177729

> <r_i_glide_energy>
-41.132913351059

> <r_i_glide_einternal>
6.21901035308838

> <i_i_glide_confnum>
52

> <i_i_glide_posenum>
165

> <r_i_glide_eff_state_penalty>
0

> <s_user_duplicate_titles>
CHEMBL2695_lig492

> <s_m_subgroup_title>
dock_pv

> <s_m_subgroupid>
dock_pv

> <b_m_subgroup_collapsed>
1

$$$$
CHEMBL2695_lig621
                    3D
 Schrodinger Suite 2021-1.
 57 61  0  0  1  0            999 V2000
    3.9465    4.3120    6.1940 C   0  0  0  0  0  0
    4.7668    2.6559    5.8434 S   0  0  0  0  0  0
    4.3299    1.7104    6.8756 O   0  0  0  0  0  0
    4.5856    2.3653    4.4167 O   0  0  0  0  0  0
    6.5031    2.9897    6.1223 C   0  0  0  0  0  0
    6.9075    3.4821    7.3599 C   0  0  0  0  0  0
    8.2331    3.8557    7.5494 C   0  0  0  0  0  0
    9.1690    3.7460    6.5127 C   0  0  0  0  0  0
    8.7621    3.1851    5.2961 C   0  0  0  0  0  0
    7.4375    2.7991    5.1034 C   0  0  0  0  0  0
   10.5597    4.2523    6.7085 C   0  0  0  0  0  0
   10.7754    5.4450    7.4197 C   0  0  0  0  0  0
   12.0473    5.9593    7.6709 C   0  0  0  0  0  0
   13.1650    5.2662    7.2245 C   0  0  0  0  0  0
   12.9679    4.1089    6.5281 N   0  0  0  0  0  0
   13.9216    3.2748    6.0933 N   0  0  0  0  0  0
   13.2246    2.3719    5.4387 C   0  0  0  0  0  0
   13.9219    1.5723    4.5785 N   0  0  0  0  0  0
   13.5400    0.7630    3.5001 C   0  0  0  0  0  0
   14.5751    0.2396    2.7209 C   0  0  0  0  0  0
   14.3148   -0.6975    1.7250 C   0  0  0  0  0  0
   13.0136   -1.1376    1.5125 C   0  0  0  0  0  0
   11.9589   -0.6334    2.2811 C   0  0  0  0  0  0
   12.2227    0.3629    3.2334 C   0  0  0  0  0  0
   10.5503   -1.2189    2.1350 C   0  0  0  0  0  0
    9.9589   -0.9335    0.7395 C   0  0  0  0  0  0
    8.6254   -1.6662    0.4850 C   0  0  0  0  0  0
    8.8074   -3.1046    0.6637 N   0  0  2  0  0  0
    9.1567   -3.3863    2.0523 C   0  0  0  0  0  0
   10.5189   -2.7497    2.3970 C   0  0  0  0  0  0
   11.9078    2.4145    5.5503 N   0  0  0  0  0  0
   11.7085    3.5685    6.2422 C   0  0  0  0  0  0
    2.8784    4.2091    6.0101 H   0  0  0  0  0  0
    4.3608    5.0602    5.5200 H   0  0  0  0  0  0
    4.1249    4.5880    7.2320 H   0  0  0  0  0  0
    6.1934    3.6007    8.1623 H   0  0  0  0  0  0
    8.5224    4.2511    8.5116 H   0  0  0  0  0  0
    9.4642    3.0672    4.4815 H   0  0  0  0  0  0
    7.1397    2.3696    4.1573 H   0  0  0  0  0  0
    9.9207    5.9632    7.8129 H   0  0  0  0  0  0
   12.1601    6.8776    8.2290 H   0  0  0  0  0  0
   14.1865    5.5761    7.4014 H   0  0  0  0  0  0
   14.9062    1.4608    4.7860 H   0  0  0  0  0  0
   15.6016    0.5169    2.9173 H   0  0  0  0  0  0
   15.1295   -1.1155    1.1537 H   0  0  0  0  0  0
   12.8309   -1.8997    0.7715 H   0  0  0  0  0  0
   11.4056    0.7285    3.8341 H   0  0  0  0  0  0
    9.9229   -0.7309    2.8835 H   0  0  0  0  0  0
    9.7271    0.1251    0.7095 H   0  0  0  0  0  0
   10.6555   -1.1294   -0.0771 H   0  0  0  0  0  0
    7.8474   -1.2966    1.1563 H   0  0  0  0  0  0
    8.2817   -1.4825   -0.5337 H   0  0  0  0  0  0
    9.5817   -3.3947    0.0849 H   0  0  0  0  0  0
    8.3706   -3.0062    2.7045 H   0  0  0  0  0  0
    9.1967   -4.4658    2.1899 H   0  0  0  0  0  0
   11.3064   -3.2895    1.8715 H   0  0  0  0  0  0
   10.6844   -2.9246    3.4619 H   0  0  0  0  0  0
  1  2  1  0  0  0
  1 33  1  0  0  0
  1 34  1  0  0  0
  1 35  1  0  0  0
  2  3  2  0  0  0
  2  4  2  0  0  0
  2  5  1  0  0  0
  5  6  2  0  0  0
  5 10  1  0  0  0
  6  7  1  0  0  0
  6 36  1  0  0  0
  7  8  2  0  0  0
  7 37  1  0  0  0
  8  9  1  0  0  0
  8 11  1  0  0  0
  9 10  2  0  0  0
  9 38  1  0  0  0
 10 39  1  0  0  0
 11 12  2  0  0  0
 11 32  1  0  0  0
 12 13  1  0  0  0
 12 40  1  0  0  0
 13 14  2  0  0  0
 13 41  1  0  0  0
 14 15  1  0  0  0
 14 42  1  0  0  0
 15 16  1  0  0  0
 15 32  1  0  0  0
 16 17  2  0  0  0
 17 18  1  0  0  0
 17 31  1  0  0  0
 18 19  1  0  0  0
 18 43  1  0  0  0
 19 20  2  0  0  0
 19 24  1  0  0  0
 20 21  1  0  0  0
 20 44  1  0  0  0
 21 22  2  0  0  0
 21 45  1  0  0  0
 22 23  1  0  0  0
 22 46  1  0  0  0
 23 24  2  0  0  0
 23 25  1  0  0  0
 24 47  1  0  0  0
 25 26  1  0  0  0
 25 30  1  0  0  0
 25 48  1  0  0  0
 26 27  1  0  0  0
 26 49  1  0  0  0
 26 50  1  0  0  0
 27 28  1  0  0  0
 27 51  1  0  0  0
 27 52  1  0  0  0
 28 29  1  0  0  0
 28 53  1  0  0  0
 29 30  1  0  0  0
 29 54  1  0  0  0
 29 55  1  0  0  0
 30 56  1  0  0  0
 30 57  1  0  0  0
 31 32  2  0  0  0
M  END
> <s_m_entry_id>
47636

> <s_m_entry_name>
dock_pv.169

> <s_m_Source_Path>
/home/csk/Desktop/cluster/DUD-E-result/fak1

> <s_m_Source_File>
dock_pv.maegz

> <i_m_Source_File_Index>
169

> <chembl_id>
CHEMBL3642403

> <chembl_pref_name>
None

> <i_lp_mmshare_version>
53161

> <i_f3d_flags>
0

> <r_lp_tautomer_probability>
1

> <s_lp_Force_Field>
OPLS_2005

> <r_lp_Energy>
24.622507

> <b_lp_Chiralities_Consistent>
1

> <s_lp_Variant>
CHEMBL2695_lig621-1

> <s_i_glide_gridfile>
glide-grid_3bz3

> <i_i_glide_lignum>
675

> <i_i_glide_rotatable_bonds>
5

> <r_i_docking_score>
-7.60268187161748

> <r_i_glide_ligand_efficiency>
-0.237583808488046

> <r_i_glide_ligand_efficiency_sa>
-0.754281574177691

> <r_i_glide_ligand_efficiency_ln>
-1.70244771233585

> <r_i_glide_gscore>
-7.60268187161748

> <r_i_glide_lipo>
-2.52703878052876

> <r_i_glide_hbond>
-0.325779029274727

> <r_i_glide_metal>
0

> <r_i_glide_rewards>
-2.3117829822768

> <r_i_glide_evdw>
-42.1268997192383

> <r_i_glide_ecoul>
-4.29931163787842

> <r_i_glide_erotb>
0.399902742228195

> <r_i_glide_esite>
-0.0867420901217006

> <r_i_glide_emodel>
-55.8474607612426

> <r_i_glide_energy>
-46.4262113571167

> <r_i_glide_einternal>
12.7745523452759

> <i_i_glide_confnum>
38

> <i_i_glide_posenum>
30

> <r_i_glide_eff_state_penalty>
0

> <s_user_duplicate_titles>
CHEMBL2695_lig621

> <s_m_subgroup_title>
dock_pv

> <s_m_subgroupid>
dock_pv

> <b_m_subgroup_collapsed>
1

$$$$
CHEMBL2695_lig1766
                    3D
 Schrodinger Suite 2021-1.
 53 56  0  0  1  0            999 V2000
    4.3221   -5.1565    6.7090 F   0  0  0  0  0  0
    4.3177   -3.3463    5.5771 F   0  0  0  0  0  0
    5.3946   -3.4626    7.4985 F   0  0  0  0  0  0
    4.9483    4.3631    8.0568 O   0  0  0  0  0  0
    3.1216   -3.4564    7.5157 O   0  0  0  0  0  0
   13.7589    4.0395    6.4342 N   0  0  0  0  0  0
   13.9222    5.1579    7.1647 N   0  0  0  0  0  0
    6.2507    4.7641    4.7089 N   0  0  0  0  0  0
    3.5729    1.5630    9.9090 N   0  0  0  0  0  0
   11.7324    5.0520    6.9443 C   0  0  0  0  0  0
   12.3995    3.9573    6.3090 C   0  0  0  0  0  0
    9.6023    4.1240    6.2700 C   0  0  0  0  0  0
   12.7766    5.8297    7.5098 C   0  0  0  0  0  0
   10.3338    5.1257    6.9165 C   0  0  0  0  0  0
    8.1328    4.2502    6.1433 C   0  0  0  0  0  0
   11.6527    2.9258    5.7222 C   0  0  0  0  0  0
   10.2640    3.0390    5.6913 C   0  0  0  0  0  0
    7.2622    4.1618    7.2414 C   0  0  0  0  0  0
    5.8845    4.3695    7.0561 C   0  0  0  0  0  0
    7.5706    4.5277    4.8948 C   0  0  0  0  0  0
   12.7944    7.1088    8.3122 C   0  0  0  0  0  0
    5.4335    4.6896    5.7799 C   0  0  0  0  0  0
    2.7001   -2.1450    7.4235 C   0  0  0  0  0  0
    3.0769    0.2621    7.3795 C   0  0  0  0  0  0
    3.5704   -1.0447    7.4742 C   0  0  0  0  0  0
    4.3103   -3.8298    6.8157 C   0  0  0  0  0  0
    3.8011    2.3645    8.7270 C   0  0  2  0  0  0
    4.0284    1.4549    7.4870 C   0  0  0  0  0  0
    4.9814    3.3181    9.0136 C   0  0  0  0  0  0
    1.3280   -1.9171    7.2954 C   0  0  0  0  0  0
    1.7028    0.4685    7.2299 C   0  0  0  0  0  0
    0.8301   -0.6177    7.1932 C   0  0  0  0  0  0
   14.8464    5.4823    7.4307 H   0  0  0  0  0  0
    4.3679    0.9366   10.0049 H   0  0  0  0  0  0
    3.6235    2.1526   10.7397 H   0  0  0  0  0  0
    9.8336    5.9617    7.3778 H   0  0  0  0  0  0
   12.1421    2.0742    5.2722 H   0  0  0  0  0  0
    9.6883    2.2683    5.1981 H   0  0  0  0  0  0
    7.6582    3.9680    8.2269 H   0  0  0  0  0  0
    8.1927    4.6099    4.0150 H   0  0  0  0  0  0
   12.0058    7.1180    9.0647 H   0  0  0  0  0  0
   13.7377    7.2510    8.8403 H   0  0  0  0  0  0
   12.6433    7.9810    7.6760 H   0  0  0  0  0  0
    4.3870    4.8917    5.5998 H   0  0  0  0  0  0
    4.6348   -1.1934    7.5842 H   0  0  0  0  0  0
    2.8969    2.9557    8.5728 H   0  0  0  0  0  0
    5.0551    1.0830    7.4906 H   0  0  0  0  0  0
    3.9503    2.0468    6.5741 H   0  0  0  0  0  0
    4.8618    3.7957    9.9882 H   0  0  0  0  0  0
    5.9238    2.7701    9.0670 H   0  0  0  0  0  0
    0.6454   -2.7522    7.2609 H   0  0  0  0  0  0
    1.3113    1.4734    7.1597 H   0  0  0  0  0  0
   -0.2318   -0.4507    7.0839 H   0  0  0  0  0  0
  1 26  1  0  0  0
  2 26  1  0  0  0
  3 26  1  0  0  0
  4 19  1  0  0  0
  4 29  1  0  0  0
  5 23  1  0  0  0
  5 26  1  0  0  0
  6  7  1  0  0  0
  6 11  2  0  0  0
  7 33  1  0  0  0
  7 13  1  0  0  0
  8 20  1  0  0  0
  8 22  2  0  0  0
  9 27  1  0  0  0
  9 34  1  0  0  0
  9 35  1  0  0  0
 10 14  1  0  0  0
 10 11  1  0  0  0
 10 13  2  0  0  0
 11 16  1  0  0  0
 12 17  1  0  0  0
 12 15  1  0  0  0
 12 14  2  0  0  0
 13 21  1  0  0  0
 14 36  1  0  0  0
 15 18  1  0  0  0
 15 20  2  0  0  0
 16 37  1  0  0  0
 16 17  2  0  0  0
 17 38  1  0  0  0
 18 19  2  0  0  0
 18 39  1  0  0  0
 19 22  1  0  0  0
 20 40  1  0  0  0
 21 41  1  0  0  0
 21 42  1  0  0  0
 21 43  1  0  0  0
 22 44  1  0  0  0
 23 25  2  0  0  0
 23 30  1  0  0  0
 24 25  1  0  0  0
 24 28  1  0  0  0
 24 31  2  0  0  0
 25 45  1  0  0  0
 27 28  1  0  0  0
 27 29  1  0  0  0
 27 46  1  0  0  0
 28 47  1  0  0  0
 28 48  1  0  0  0
 29 49  1  0  0  0
 29 50  1  0  0  0
 30 32  2  0  0  0
 30 51  1  0  0  0
 31 32  1  0  0  0
 31 52  1  0  0  0
 32 53  1  0  0  0
M  END
> <s_m_entry_id>
47637

> <s_m_entry_name>
dock_pv.170

> <s_m_Source_Path>
/home/csk/Desktop/cluster/DUD-E-result/fak1

> <s_m_Source_File>
dock_pv.maegz

> <i_m_Source_File_Index>
170

> <chembl_id>
CHEMBL1965836

> <chembl_pref_name>
None

> <i_lp_mmshare_version>
53161

> <i_f3d_flags>
0

> <r_lp_tautomer_probability>
0.0196078431372549

> <s_lp_Force_Field>
OPLS_2005

> <r_lp_Energy>
40.91069

> <b_lp_Chiralities_Consistent>
1

> <s_lp_Variant>
CHEMBL2695_lig1766-3

> <s_i_glide_gridfile>
glide-grid_3bz3

> <i_i_glide_lignum>
2016

> <i_i_glide_rotatable_bonds>
8

> <r_i_docking_score>
-7.59475920412363

> <r_i_glide_ligand_efficiency>
-0.237336225128863

> <r_i_glide_ligand_efficiency_sa>
-0.753495546008966

> <r_i_glide_ligand_efficiency_ln>
-1.70067361112022

> <r_i_glide_gscore>
-7.59475920412363

> <r_i_glide_lipo>
-3.19160840690458

> <r_i_glide_hbond>
-0.980659962355688

> <r_i_glide_metal>
0

> <r_i_glide_rewards>
-0.370894403449077

> <r_i_glide_evdw>
-37.7261085510254

> <r_i_glide_ecoul>
-10.7515306472778

> <r_i_glide_erotb>
0.714610432946625

> <r_i_glide_esite>
-0.267171839717967

> <r_i_glide_emodel>
-60.3645367975912

> <r_i_glide_energy>
-48.4776391983032

> <r_i_glide_einternal>
14.9255561828613

> <i_i_glide_confnum>
27

> <i_i_glide_posenum>
356

> <r_i_glide_eff_state_penalty>
0

> <s_user_duplicate_titles>
CHEMBL2695_lig1766

> <s_m_subgroup_title>
dock_pv

> <s_m_subgroupid>
dock_pv

> <b_m_subgroup_collapsed>
1

$$$$
CHEMBL2695_lig94
                    3D
 Schrodinger Suite 2021-1.
 39 42  0  0  1  0            999 V2000
    9.7533    1.1629    4.9108 N   0  0  0  0  0  0
    9.3714    2.2388    5.6367 C   0  0  0  0  0  0
   10.1868    3.2171    6.1197 N   0  0  0  0  0  0
   11.0785    0.9630    4.7268 C   0  0  0  0  0  0
   12.0234    1.8557    5.2457 C   0  0  0  0  0  0
   11.4943    3.0035    5.9092 C   0  0  0  0  0  0
   12.5689    3.8126    6.2821 N   0  0  0  0  0  0
   13.7207    3.1483    5.9092 C   0  0  0  0  0  0
   13.4451    1.9625    5.2673 C   0  0  0  0  0  0
   12.5539    5.0526    6.9606 C   0  0  0  0  0  0
   13.5188    5.3362    7.9402 C   0  0  0  0  0  0
   13.4407    6.5479    8.6253 C   0  0  0  0  0  0
   12.4228    7.4458    8.3094 C   0  0  0  0  0  0
   11.5219    7.1097    7.2999 C   0  0  0  0  0  0
   11.5664    5.9291    6.6344 N   0  0  0  0  0  0
    8.0077    2.2474    5.9449 N   0  0  0  0  0  0
    7.2900    2.7714    7.0319 C   0  0  0  0  0  0
    7.8964    3.4024    8.1249 C   0  0  0  0  0  0
    7.1576    3.7943    9.2374 C   0  0  0  0  0  0
    5.7717    3.5695    9.2471 C   0  0  0  0  0  0
    5.1512    2.9684    8.1537 C   0  0  0  0  0  0
    5.9090    2.5686    7.0537 C   0  0  0  0  0  0
    7.8732    4.3789   10.2603 O   0  0  0  0  0  0
    7.2348    4.5798   11.5090 C   0  0  0  0  0  0
   11.3697    0.0872    4.1674 H   0  0  0  0  0  0
   14.6743    3.6023    6.1246 H   0  0  0  0  0  0
   14.1753    1.2802    4.8540 H   0  0  0  0  0  0
   14.2984    4.6330    8.1936 H   0  0  0  0  0  0
   14.1632    6.7849    9.3929 H   0  0  0  0  0  0
   12.3360    8.3783    8.8389 H   0  0  0  0  0  0
   10.7237    7.7833    7.0221 H   0  0  0  0  0  0
    7.5237    1.4845    5.4899 H   0  0  0  0  0  0
    8.9598    3.5641    8.1631 H   0  0  0  0  0  0
    5.1581    3.8548   10.0887 H   0  0  0  0  0  0
    4.0847    2.7989    8.1658 H   0  0  0  0  0  0
    5.4191    2.0734    6.2270 H   0  0  0  0  0  0
    7.9223    5.1160   12.1623 H   0  0  0  0  0  0
    6.3227    5.1702   11.4263 H   0  0  0  0  0  0
    6.9960    3.6264   11.9819 H   0  0  0  0  0  0
  1  2  2  0  0  0
  1  4  1  0  0  0
  2  3  1  0  0  0
  2 16  1  0  0  0
  3  6  2  0  0  0
  4  5  2  0  0  0
  4 25  1  0  0  0
  5  9  1  0  0  0
  5  6  1  0  0  0
  6  7  1  0  0  0
  7  8  1  0  0  0
  7 10  1  0  0  0
  8  9  2  0  0  0
  8 26  1  0  0  0
  9 27  1  0  0  0
 10 15  1  0  0  0
 10 11  2  0  0  0
 11 12  1  0  0  0
 11 28  1  0  0  0
 12 13  2  0  0  0
 12 29  1  0  0  0
 13 14  1  0  0  0
 13 30  1  0  0  0
 14 15  2  0  0  0
 14 31  1  0  0  0
 16 17  1  0  0  0
 16 32  1  0  0  0
 17 18  2  0  0  0
 17 22  1  0  0  0
 18 19  1  0  0  0
 18 33  1  0  0  0
 19 20  2  0  0  0
 19 23  1  0  0  0
 20 21  1  0  0  0
 20 34  1  0  0  0
 21 22  2  0  0  0
 21 35  1  0  0  0
 22 36  1  0  0  0
 23 24  1  0  0  0
 24 37  1  0  0  0
 24 38  1  0  0  0
 24 39  1  0  0  0
M  END
> <s_m_entry_id>
47638

> <s_m_entry_name>
dock_pv.171

> <s_m_Source_Path>
/home/csk/Desktop/cluster/DUD-E-result/fak1

> <s_m_Source_File>
dock_pv.maegz

> <i_m_Source_File_Index>
171

> <chembl_id>
CHEMBL208042

> <chembl_pref_name>
None

> <i_lp_mmshare_version>
53161

> <i_f3d_flags>
0

> <r_lp_tautomer_probability>
1

> <s_lp_Force_Field>
OPLS_2005

> <r_lp_Energy>
14.862299

> <b_lp_Chiralities_Consistent>
1

> <s_lp_Variant>
CHEMBL2695_lig94-1

> <s_i_glide_gridfile>
glide-grid_3bz3

> <i_i_glide_lignum>
116

> <i_i_glide_rotatable_bonds>
4

> <r_i_docking_score>
-7.58981122653016

> <r_i_glide_ligand_efficiency>
-0.316242134438757

> <r_i_glide_ligand_efficiency_sa>
-0.912200164048449

> <r_i_glide_ligand_efficiency_ln>
-1.81659010025203

> <r_i_glide_gscore>
-7.58981122653016

> <r_i_glide_lipo>
-3.31223122794758

> <r_i_glide_hbond>
0

> <r_i_glide_metal>
0

> <r_i_glide_rewards>
-2.63563348567992

> <r_i_glide_evdw>
-42.3311996459961

> <r_i_glide_ecoul>
-0.30855718255043

> <r_i_glide_erotb>
0.554959675891635

> <r_i_glide_esite>
-0.0340626291119303

> <r_i_glide_emodel>
-55.0531740940613

> <r_i_glide_energy>
-42.6397568285465

> <r_i_glide_einternal>
12.7037267684937

> <i_i_glide_confnum>
8

> <i_i_glide_posenum>
338

> <r_i_glide_eff_state_penalty>
0

> <s_user_duplicate_titles>
CHEMBL2695_lig94,344667

> <s_m_subgroup_title>
dock_pv

> <s_m_subgroupid>
dock_pv

> <b_m_subgroup_collapsed>
1

$$$$
CHEMBL2695_lig2082
                    3D
 Schrodinger Suite 2021-1.
 49 52  0  0  1  0            999 V2000
    5.9959    1.9640    7.6439 N   0  0  0  0  0  0
   11.1794    1.0673    4.4410 N   0  0  0  0  0  0
    6.8401    4.8621    4.7090 N   0  0  0  0  0  0
   11.8227    7.8372    7.9594 N   0  0  0  0  0  0
    7.7607    3.0724    6.7622 C   0  0  0  0  0  0
    7.6029    3.4899    8.1205 C   0  0  0  0  0  0
    6.4634    2.8070    8.6358 C   0  0  0  0  0  0
    8.7135    3.6683    5.7582 C   0  0  1  0  0  0
    6.7925    2.1172    6.5412 C   0  0  0  0  0  0
    9.9605    2.8141    5.5802 C   0  0  0  0  0  0
    8.2880    4.4015    8.9444 C   0  0  0  0  0  0
    5.9904    3.0518    9.9213 C   0  0  0  0  0  0
   11.1227    3.1635    6.2644 C   0  0  0  0  0  0
    8.0050    4.0317    4.4329 C   0  0  0  0  0  0
   10.0224    1.7240    4.7082 C   0  0  0  0  0  0
    7.8236    4.6230   10.2385 C   0  0  0  0  0  0
   12.3539    2.6058    5.9090 C   0  0  0  0  0  0
    6.6957    3.9634   10.7087 C   0  0  0  0  0  0
    4.8871    1.0287    7.7430 C   0  0  0  0  0  0
   12.3186    1.5359    5.0170 C   0  0  0  0  0  0
   13.6630    3.0986    6.3930 C   0  0  0  0  0  0
   14.0018    4.2649    6.9937 C   0  0  0  0  0  0
   13.2034    5.4689    7.3095 C   0  0  0  0  0  0
   13.5172    6.1902    8.4652 C   0  0  0  0  0  0
   12.1862    5.9631    6.4819 C   0  0  0  0  0  0
   12.8083    7.3559    8.7540 C   0  0  0  0  0  0
   11.5220    7.1358    6.8427 C   0  0  0  0  0  0
    6.2917    5.0113    3.8756 H   0  0  0  0  0  0
    6.2441    4.3756    5.3666 H   0  0  0  0  0  0
    9.0466    4.6339    6.1462 H   0  0  0  0  0  0
    6.5713    1.5629    5.6403 H   0  0  0  0  0  0
    9.1494    4.9378    8.5753 H   0  0  0  0  0  0
    5.1219    2.5415   10.3088 H   0  0  0  0  0  0
   11.0553    3.9129    7.0328 H   0  0  0  0  0  0
    8.6841    4.5663    3.7676 H   0  0  0  0  0  0
    7.6880    3.1295    3.9093 H   0  0  0  0  0  0
    9.1459    1.3802    4.1772 H   0  0  0  0  0  0
    8.3225    5.3329   10.8819 H   0  0  0  0  0  0
    6.3478    4.1609   11.7131 H   0  0  0  0  0  0
    5.2050    0.1537    8.3089 H   0  0  0  0  0  0
    4.0457    1.5076    8.2450 H   0  0  0  0  0  0
    4.5726    0.7127    6.7470 H   0  0  0  0  0  0
   13.2349    1.0575    4.7039 H   0  0  0  0  0  0
   14.4679    2.3897    6.2595 H   0  0  0  0  0  0
   15.0371    4.3634    7.2857 H   0  0  0  0  0  0
   14.3222    5.8710    9.1091 H   0  0  0  0  0  0
   11.9440    5.4843    5.5449 H   0  0  0  0  0  0
   13.0492    7.9441    9.6276 H   0  0  0  0  0  0
   10.7399    7.5504    6.2251 H   0  0  0  0  0  0
  1  7  1  0  0  0
  1  9  1  0  0  0
  1 19  1  0  0  0
  2 15  1  0  0  0
  2 20  2  0  0  0
  3 14  1  0  0  0
  3 28  1  0  0  0
  3 29  1  0  0  0
  4 26  2  0  0  0
  4 27  1  0  0  0
  5  6  1  0  0  0
  5  8  1  0  0  0
  5  9  2  0  0  0
  6  7  1  0  0  0
  6 11  2  0  0  0
  7 12  2  0  0  0
  8 10  1  0  0  0
  8 14  1  0  0  0
  8 30  1  0  0  0
  9 31  1  0  0  0
 10 13  1  0  0  0
 10 15  2  0  0  0
 11 16  1  0  0  0
 11 32  1  0  0  0
 12 18  1  0  0  0
 12 33  1  0  0  0
 13 17  2  0  0  0
 13 34  1  0  0  0
 14 35  1  0  0  0
 14 36  1  0  0  0
 15 37  1  0  0  0
 16 18  2  0  0  0
 16 38  1  0  0  0
 17 20  1  0  0  0
 17 21  1  0  0  0
 18 39  1  0  0  0
 19 40  1  0  0  0
 19 41  1  0  0  0
 19 42  1  0  0  0
 20 43  1  0  0  0
 21 22  2  3  0  0
 21 44  1  0  0  0
 22 23  1  0  0  0
 22 45  1  0  0  0
 23 24  2  0  0  0
 23 25  1  0  0  0
 24 26  1  0  0  0
 24 46  1  0  0  0
 25 27  2  0  0  0
 25 47  1  0  0  0
 26 48  1  0  0  0
 27 49  1  0  0  0
M  END
> <s_m_entry_id>
47639

> <s_m_entry_name>
dock_pv.172

> <s_m_Source_Path>
/home/csk/Desktop/cluster/DUD-E-result/fak1

> <s_m_Source_File>
dock_pv.maegz

> <i_m_Source_File_Index>
172

> <chembl_id>
CHEMBL1979357

> <chembl_pref_name>
None

> <i_lp_mmshare_version>
53161

> <i_f3d_flags>
0

> <r_lp_tautomer_probability>
1

> <s_lp_Force_Field>
OPLS_2005

> <r_lp_Energy>
20.313146

> <b_lp_Chiralities_Consistent>
1

> <s_lp_Variant>
CHEMBL2695_lig2082-4

> <s_i_glide_gridfile>
glide-grid_3bz3

> <i_i_glide_lignum>
2505

> <i_i_glide_rotatable_bonds>
5

> <r_i_docking_score>
-7.58748167516054

> <r_i_glide_ligand_efficiency>
-0.281017839820761

> <r_i_glide_ligand_efficiency_sa>
-0.843053518536093

> <r_i_glide_ligand_efficiency_ln>
-1.76624064456569

> <r_i_glide_gscore>
-7.58748167516054

> <r_i_glide_lipo>
-4.26817326419907

> <r_i_glide_hbond>
0

> <r_i_glide_metal>
0

> <r_i_glide_rewards>
-1.24760904918016

> <r_i_glide_evdw>
-43.8584442138672

> <r_i_glide_ecoul>
-3.24785757064819

> <r_i_glide_erotb>
0.608401484509282

> <r_i_glide_esite>
0

> <r_i_glide_emodel>
-66.2596031034302

> <r_i_glide_energy>
-47.1063017845154

> <r_i_glide_einternal>
2.89778876304626

> <i_i_glide_confnum>
36

> <i_i_glide_posenum>
354

> <r_i_glide_eff_state_penalty>
0

> <s_user_duplicate_titles>
CHEMBL2695_lig2082

> <s_m_subgroup_title>
dock_pv

> <s_m_subgroupid>
dock_pv

> <b_m_subgroup_collapsed>
1

$$$$
CHEMBL2695_lig1795
                    3D
 Schrodinger Suite 2021-1.
 42 44  0  0  1  0            999 V2000
   12.7220    7.1986    8.1325 Cl  0  0  0  0  0  0
   14.3221    4.7634    7.5092 O   0  0  0  0  0  0
   13.5139    2.6667    5.9096 N   0  0  0  0  0  0
    8.0724    3.6661    6.2523 N   0  0  1  0  0  0
   11.2358    3.5474    5.8589 C   0  0  0  0  0  0
   12.6155    3.6427    6.2257 C   0  0  0  0  0  0
   10.3894    4.6724    6.0819 C   0  0  0  0  0  0
   13.0658    4.7633    6.9685 C   0  0  0  0  0  0
   12.2091    5.8324    7.2051 C   0  0  0  0  0  0
   10.9166    5.8080    6.7076 C   0  0  0  0  0  0
    8.9427    4.6475    5.5723 C   0  0  0  0  0  0
   10.8054    2.3283    5.2522 C   0  0  0  0  0  0
   11.7338    1.3310    4.9747 C   0  0  0  0  0  0
   13.0709    1.5629    5.2802 C   0  0  0  0  0  0
    7.5812    4.0023    7.6143 C   0  0  0  0  0  0
    6.6952    2.8927    8.2648 C   0  0  0  0  0  0
    8.6742    4.4691    8.6225 C   0  0  0  0  0  0
    6.9733    3.3348    5.3373 C   0  0  0  0  0  0
    6.2342    3.1971    9.7045 C   0  0  0  0  0  0
    8.2366    4.6539   10.0887 C   0  0  0  0  0  0
    7.4226    3.4794   10.6282 C   0  0  0  0  0  0
   14.5986    5.6090    7.8825 H   0  0  0  0  0  0
   10.3200    6.6919    6.8475 H   0  0  0  0  0  0
    9.0491    4.3626    4.5234 H   0  0  0  0  0  0
    8.4864    5.6324    5.5095 H   0  0  0  0  0  0
    9.7726    2.1824    4.9733 H   0  0  0  0  0  0
   11.4251    0.4166    4.4900 H   0  0  0  0  0  0
   13.8353    0.8382    5.0384 H   0  0  0  0  0  0
    6.9076    4.8569    7.5278 H   0  0  0  0  0  0
    7.2610    1.9597    8.2911 H   0  0  0  0  0  0
    5.7955    2.7129    7.6776 H   0  0  0  0  0  0
    9.0564    5.4380    8.3265 H   0  0  0  0  0  0
    9.4876    3.7433    8.6212 H   0  0  0  0  0  0
    7.3455    3.0763    4.3443 H   0  0  0  0  0  0
    6.4212    2.4569    5.6694 H   0  0  0  0  0  0
    6.2733    4.1645    5.2307 H   0  0  0  0  0  0
    5.6521    2.3628   10.0968 H   0  0  0  0  0  0
    5.5586    4.0546    9.7026 H   0  0  0  0  0  0
    9.1183    4.8058   10.7065 H   0  0  0  0  0  0
    7.6460    5.5617   10.1886 H   0  0  0  0  0  0
    8.0548    2.5936   10.7058 H   0  0  0  0  0  0
    7.0692    3.6987   11.6368 H   0  0  0  0  0  0
  1  9  1  0  0  0
  2  8  1  0  0  0
  2 22  1  0  0  0
  3  6  2  0  0  0
  3 14  1  0  0  0
  4 11  1  0  0  0
  4 15  1  0  0  0
  4 18  1  0  0  0
  5  6  1  0  0  0
  5  7  1  0  0  0
  5 12  2  0  0  0
  6  8  1  0  0  0
  7 10  2  0  0  0
  7 11  1  0  0  0
  8  9  2  0  0  0
  9 10  1  0  0  0
 10 23  1  0  0  0
 11 24  1  0  0  0
 11 25  1  0  0  0
 12 13  1  0  0  0
 12 26  1  0  0  0
 13 14  2  0  0  0
 13 27  1  0  0  0
 14 28  1  0  0  0
 15 16  1  0  0  0
 15 17  1  0  0  0
 15 29  1  0  0  0
 16 19  1  0  0  0
 16 30  1  0  0  0
 16 31  1  0  0  0
 17 20  1  0  0  0
 17 32  1  0  0  0
 17 33  1  0  0  0
 18 34  1  0  0  0
 18 35  1  0  0  0
 18 36  1  0  0  0
 19 21  1  0  0  0
 19 37  1  0  0  0
 19 38  1  0  0  0
 20 21  1  0  0  0
 20 39  1  0  0  0
 20 40  1  0  0  0
 21 41  1  0  0  0
 21 42  1  0  0  0
M  END
> <s_m_entry_id>
47640

> <s_m_entry_name>
dock_pv.173

> <s_m_Source_Path>
/home/csk/Desktop/cluster/DUD-E-result/fak1

> <s_m_Source_File>
dock_pv.maegz

> <i_m_Source_File_Index>
173

> <chembl_id>
CHEMBL1982413

> <chembl_pref_name>
None

> <i_lp_mmshare_version>
53161

> <i_f3d_flags>
0

> <r_lp_tautomer_probability>
1

> <s_lp_Force_Field>
OPLS_2005

> <r_lp_Energy>
26.138487

> <b_lp_Chiralities_Consistent>
1

> <s_lp_Variant>
CHEMBL2695_lig1795-1

> <s_i_glide_gridfile>
glide-grid_3bz3

> <i_i_glide_lignum>
2055

> <i_i_glide_rotatable_bonds>
4

> <r_i_docking_score>
-7.57672193660195

> <r_i_glide_ligand_efficiency>
-0.360796282695331

> <r_i_glide_ligand_efficiency_sa>
-0.995409586066404

> <r_i_glide_ligand_efficiency_ln>
-1.87332918861658

> <r_i_glide_gscore>
-7.57672193660195

> <r_i_glide_lipo>
-4.20108047142208

> <r_i_glide_hbond>
-0.183352448689289

> <r_i_glide_metal>
0

> <r_i_glide_rewards>
-1.48914601515151

> <r_i_glide_evdw>
-33.0223236083984

> <r_i_glide_ecoul>
-4.31789493560791

> <r_i_glide_erotb>
0.595657419422039

> <r_i_glide_esite>
0

> <r_i_glide_emodel>
-52.165820713184

> <r_i_glide_energy>
-37.3402185440063

> <r_i_glide_einternal>
0.321149677038193

> <i_i_glide_confnum>
1

> <i_i_glide_posenum>
147

> <r_i_glide_eff_state_penalty>
0

> <s_user_duplicate_titles>
CHEMBL2695_lig1795

> <s_m_subgroup_title>
dock_pv

> <s_m_subgroupid>
dock_pv

> <b_m_subgroup_collapsed>
1

$$$$
CHEMBL2695_lig482
                    3D
 Schrodinger Suite 2021-1.
 58 62  0  0  1  0            999 V2000
    6.9746    4.5891    5.1090 C   0  0  0  0  0  0
    7.9106    3.4820    4.6047 C   0  0  0  0  0  0
    7.3653    2.0959    5.0021 C   0  0  0  0  0  0
    9.2081    3.8136    5.0762 O   0  0  0  0  0  0
   10.2718    2.9333    5.0842 C   0  0  0  0  0  0
   10.3293    1.7527    4.3277 C   0  0  0  0  0  0
   11.4825    0.9752    4.3159 C   0  0  0  0  0  0
   12.5868    1.3664    5.0684 C   0  0  0  0  0  0
   12.5299    2.5042    5.8559 C   0  0  0  0  0  0
   11.3839    3.3063    5.8577 C   0  0  0  0  0  0
   11.3727    4.5193    6.7024 C   0  0  0  0  0  0
   12.5017    5.3461    6.7848 C   0  0  0  0  0  0
   12.6177    6.3321    7.7612 C   0  0  0  0  0  0
   11.6113    6.4744    8.7089 C   0  0  0  0  0  0
   10.5041    5.6750    8.6152 N   0  0  0  0  0  0
    9.4982    5.5630    9.5090 N   0  0  0  0  0  0
    8.7214    4.6451    8.9716 C   0  0  0  0  0  0
    7.5554    4.2796    9.5961 N   0  0  0  0  0  0
    6.5847    3.3545    9.1627 C   0  0  0  0  0  0
    6.8708    2.2461    8.3664 C   0  0  0  0  0  0
    5.8466    1.4222    7.9090 C   0  0  0  0  0  0
    4.5101    1.6601    8.2490 C   0  0  0  0  0  0
    3.4243    0.7390    7.6922 C   0  0  0  0  0  0
    2.2595    1.4075    6.9460 C   0  0  0  0  0  0
    1.2809    2.0841    7.7800 N   0  0  1  0  0  0
    1.7352    3.2742    8.4780 C   0  0  0  0  0  0
    2.7886    3.0432    9.5708 C   0  0  0  0  0  0
    4.2143    2.7397    9.1086 C   0  0  0  0  0  0
    5.2637    3.5569    9.5494 C   0  0  0  0  0  0
    9.1220    4.1391    7.8258 N   0  0  0  0  0  0
   10.3035    4.7630    7.5875 C   0  0  0  0  0  0
    5.9618    4.4657    4.7244 H   0  0  0  0  0  0
    6.9190    4.5999    6.1979 H   0  0  0  0  0  0
    7.3291    5.5630    4.7858 H   0  0  0  0  0  0
    7.9552    3.5623    3.5187 H   0  0  0  0  0  0
    6.2982    2.1188    5.2233 H   0  0  0  0  0  0
    7.4745    1.3690    4.1992 H   0  0  0  0  0  0
    7.8806    1.6928    5.8704 H   0  0  0  0  0  0
    9.5225    1.4421    3.6928 H   0  0  0  0  0  0
   11.5246    0.0856    3.7050 H   0  0  0  0  0  0
   13.4975    0.7845    5.0435 H   0  0  0  0  0  0
   13.3961    2.7731    6.4421 H   0  0  0  0  0  0
   13.3333    5.1640    6.1199 H   0  0  0  0  0  0
   13.5154    6.9329    7.8202 H   0  0  0  0  0  0
   11.6703    7.1629    9.5302 H   0  0  0  0  0  0
    7.2045    4.9004   10.3070 H   0  0  0  0  0  0
    7.8854    2.0116    8.0892 H   0  0  0  0  0  0
    6.1013    0.5834    7.2768 H   0  0  0  0  0  0
    3.8993    0.0550    6.9862 H   0  0  0  0  0  0
    3.0548    0.0943    8.4883 H   0  0  0  0  0  0
    2.6451    2.0907    6.1867 H   0  0  0  0  0  0
    1.7229    0.6323    6.3971 H   0  0  0  0  0  0
    0.4537    2.2962    7.2383 H   0  0  0  0  0  0
    2.0957    4.0170    7.7634 H   0  0  0  0  0  0
    0.8568    3.7209    8.9460 H   0  0  0  0  0  0
    2.4689    2.2702   10.2697 H   0  0  0  0  0  0
    2.8195    3.9519   10.1744 H   0  0  0  0  0  0
    5.0387    4.3630   10.2249 H   0  0  0  0  0  0
  1  2  1  0  0  0
  1 32  1  0  0  0
  1 33  1  0  0  0
  1 34  1  0  0  0
  2  3  1  0  0  0
  2  4  1  0  0  0
  2 35  1  0  0  0
  3 36  1  0  0  0
  3 37  1  0  0  0
  3 38  1  0  0  0
  4  5  1  0  0  0
  5  6  2  0  0  0
  5 10  1  0  0  0
  6  7  1  0  0  0
  6 39  1  0  0  0
  7  8  2  0  0  0
  7 40  1  0  0  0
  8  9  1  0  0  0
  8 41  1  0  0  0
  9 10  2  0  0  0
  9 42  1  0  0  0
 10 11  1  0  0  0
 11 12  2  0  0  0
 11 31  1  0  0  0
 12 13  1  0  0  0
 12 43  1  0  0  0
 13 14  2  0  0  0
 13 44  1  0  0  0
 14 15  1  0  0  0
 14 45  1  0  0  0
 15 16  1  0  0  0
 15 31  1  0  0  0
 16 17  2  0  0  0
 17 18  1  0  0  0
 17 30  1  0  0  0
 18 19  1  0  0  0
 18 46  1  0  0  0
 19 20  2  0  0  0
 19 29  1  0  0  0
 20 21  1  0  0  0
 20 47  1  0  0  0
 21 22  2  0  0  0
 21 48  1  0  0  0
 22 23  1  0  0  0
 22 28  1  0  0  0
 23 24  1  0  0  0
 23 49  1  0  0  0
 23 50  1  0  0  0
 24 25  1  0  0  0
 24 51  1  0  0  0
 24 52  1  0  0  0
 25 26  1  0  0  0
 25 53  1  0  0  0
 26 27  1  0  0  0
 26 54  1  0  0  0
 26 55  1  0  0  0
 27 28  1  0  0  0
 27 56  1  0  0  0
 27 57  1  0  0  0
 28 29  2  0  0  0
 29 58  1  0  0  0
 30 31  2  0  0  0
M  END
> <s_m_entry_id>
47641

> <s_m_entry_name>
dock_pv.174

> <s_m_Source_Path>
/home/csk/Desktop/cluster/DUD-E-result/fak1

> <s_m_Source_File>
dock_pv.maegz

> <i_m_Source_File_Index>
174

> <chembl_id>
CHEMBL3645027

> <chembl_pref_name>
None

> <i_lp_mmshare_version>
53161

> <i_f3d_flags>
0

> <r_lp_tautomer_probability>
1

> <s_lp_Force_Field>
OPLS_2005

> <r_lp_Energy>
34.627066

> <b_lp_Chiralities_Consistent>
1

> <s_lp_Variant>
CHEMBL2695_lig482-1

> <s_i_glide_gridfile>
glide-grid_3bz3

> <i_i_glide_lignum>
535

> <i_i_glide_rotatable_bonds>
5

> <r_i_docking_score>
-7.57052611183023

> <r_i_glide_ligand_efficiency>
-0.244210519736459

> <r_i_glide_ligand_efficiency_sa>
-0.767158200932422

> <r_i_glide_ligand_efficiency_ln>
-1.70738564697985

> <r_i_glide_gscore>
-7.57052611183023

> <r_i_glide_lipo>
-3.22847906115916

> <r_i_glide_hbond>
-0.32

> <r_i_glide_metal>
0

> <r_i_glide_rewards>
-2.2243959111809

> <r_i_glide_evdw>
-34.8160972595215

> <r_i_glide_ecoul>
-3.45571541786194

> <r_i_glide_erotb>
0.461511036165191

> <r_i_glide_esite>
0

> <r_i_glide_emodel>
-41.0006548211155

> <r_i_glide_energy>
-38.2718126773834

> <r_i_glide_einternal>
5.79371500015259

> <i_i_glide_confnum>
6

> <i_i_glide_posenum>
189

> <r_i_glide_eff_state_penalty>
0

> <s_user_duplicate_titles>
CHEMBL2695_lig482

> <s_m_subgroup_title>
dock_pv

> <s_m_subgroupid>
dock_pv

> <b_m_subgroup_collapsed>
1

$$$$
CHEMBL2695_lig99
                    3D
 Schrodinger Suite 2021-1.
 35 38  0  0  1  0            999 V2000
    9.7789    1.1624    4.9719 N   0  0  0  0  0  0
    9.3019    2.2959    5.5226 C   0  0  0  0  0  0
   10.0361    3.3464    5.9898 N   0  0  0  0  0  0
   11.1159    0.9900    4.9142 C   0  0  0  0  0  0
   11.9871    1.9632    5.4083 C   0  0  0  0  0  0
   11.3680    3.1498    5.9094 C   0  0  0  0  0  0
   12.3968    4.0026    6.3085 N   0  0  0  0  0  0
   13.5953    3.3659    6.0665 C   0  0  0  0  0  0
   13.4003    2.1258    5.5085 C   0  0  0  0  0  0
    7.9156    2.2757    5.6584 N   0  0  0  0  0  0
   12.3072    5.2683    6.9119 C   0  0  0  0  0  0
   13.0588    5.5796    8.0552 C   0  0  0  0  0  0
   12.9234    6.8517    8.6132 C   0  0  0  0  0  0
   12.0689    7.7766    8.0088 C   0  0  0  0  0  0
   11.3908    7.3992    6.8516 C   0  0  0  0  0  0
   11.4863    6.1627    6.3090 N   0  0  0  0  0  0
    6.9918    3.2663    6.0067 C   0  0  0  0  0  0
    6.0368    2.9733    6.9844 C   0  0  0  0  0  0
    5.0041    3.8721    7.2591 C   0  0  0  0  0  0
    4.8985    5.0523    6.5246 C   0  0  0  0  0  0
    5.8351    5.3404    5.5307 C   0  0  0  0  0  0
    6.8900    4.4605    5.2811 C   0  0  0  0  0  0
    7.7798    4.7628    4.3091 F   0  0  0  0  0  0
   11.4751    0.0787    4.4626 H   0  0  0  0  0  0
   14.5127    3.8803    6.3108 H   0  0  0  0  0  0
   14.1766    1.4469    5.1913 H   0  0  0  0  0  0
    7.5074    1.3853    5.3990 H   0  0  0  0  0  0
   13.7182    4.8548    8.5105 H   0  0  0  0  0  0
   13.4777    7.1151    9.5046 H   0  0  0  0  0  0
   11.9256    8.7627    8.4235 H   0  0  0  0  0  0
   10.7241    8.0881    6.3547 H   0  0  0  0  0  0
    6.0866    2.0399    7.5272 H   0  0  0  0  0  0
    4.2739    3.6430    8.0226 H   0  0  0  0  0  0
    4.0881    5.7397    6.7209 H   0  0  0  0  0  0
    5.7397    6.2456    4.9524 H   0  0  0  0  0  0
  1  2  2  0  0  0
  1  4  1  0  0  0
  2  3  1  0  0  0
  2 10  1  0  0  0
  3  6  2  0  0  0
  4  5  2  0  0  0
  4 24  1  0  0  0
  5  9  1  0  0  0
  5  6  1  0  0  0
  6  7  1  0  0  0
  7 11  1  0  0  0
  7  8  1  0  0  0
  8  9  2  0  0  0
  8 25  1  0  0  0
  9 26  1  0  0  0
 10 17  1  0  0  0
 10 27  1  0  0  0
 11 12  2  0  0  0
 11 16  1  0  0  0
 12 13  1  0  0  0
 12 28  1  0  0  0
 13 14  2  0  0  0
 13 29  1  0  0  0
 14 15  1  0  0  0
 14 30  1  0  0  0
 15 16  2  0  0  0
 15 31  1  0  0  0
 17 18  2  0  0  0
 17 22  1  0  0  0
 18 19  1  0  0  0
 18 32  1  0  0  0
 19 20  2  0  0  0
 19 33  1  0  0  0
 20 21  1  0  0  0
 20 34  1  0  0  0
 21 22  2  0  0  0
 21 35  1  0  0  0
 22 23  1  0  0  0
M  END
> <s_m_entry_id>
47642

> <s_m_entry_name>
dock_pv.175

> <s_m_Source_Path>
/home/csk/Desktop/cluster/DUD-E-result/fak1

> <s_m_Source_File>
dock_pv.maegz

> <i_m_Source_File_Index>
175

> <chembl_id>
CHEMBL378596

> <chembl_pref_name>
None

> <i_lp_mmshare_version>
53161

> <i_f3d_flags>
0

> <r_lp_tautomer_probability>
1

> <s_lp_Force_Field>
OPLS_2005

> <r_lp_Energy>
12.063677

> <b_lp_Chiralities_Consistent>
1

> <s_lp_Variant>
CHEMBL2695_lig99-1

> <s_i_glide_gridfile>
glide-grid_3bz3

> <i_i_glide_lignum>
121

> <i_i_glide_rotatable_bonds>
3

> <r_i_docking_score>
-7.56313384808261

> <r_i_glide_ligand_efficiency>
-0.328831906438374

> <r_i_glide_ligand_efficiency_sa>
-0.935154199664342

> <r_i_glide_ligand_efficiency_ln>
-1.82883434317254

> <r_i_glide_gscore>
-7.56313384808261

> <r_i_glide_lipo>
-3.18390862806156

> <r_i_glide_hbond>
0

> <r_i_glide_metal>
0

> <r_i_glide_rewards>
-2.96011618925966

> <r_i_glide_evdw>
-38.3210372924805

> <r_i_glide_ecoul>
-0.365334093570709

> <r_i_glide_erotb>
0.593965579002894

> <r_i_glide_esite>
-0.0422226311046474

> <r_i_glide_emodel>
-53.9949804267028

> <r_i_glide_energy>
-38.6863713860512

> <r_i_glide_einternal>
3.01412796974182

> <i_i_glide_confnum>
12

> <i_i_glide_posenum>
201

> <r_i_glide_eff_state_penalty>
0

> <s_user_duplicate_titles>
CHEMBL2695_lig99

> <s_m_subgroup_title>
dock_pv

> <s_m_subgroupid>
dock_pv

> <b_m_subgroup_collapsed>
1

$$$$
CHEMBL2695_lig2023
                    3D
 Schrodinger Suite 2021-1.
 49 53  0  0  1  0            999 V2000
    3.9951    3.3208    7.1327 S   0  0  0  0  0  0
    2.7079    2.9011    6.5699 O   0  0  0  0  0  0
    4.4509    4.7044    6.9709 O   0  0  0  0  0  0
   11.1333    3.5560    6.3080 N   0  0  0  0  0  0
    9.7506    2.0026    5.5093 N   0  0  0  0  0  0
    5.2122    2.2303    6.4565 N   0  0  3  0  0  0
   13.9225    3.8286    6.3133 N   0  0  0  0  0  0
   13.5130    5.8836    7.5587 N   0  0  0  0  0  0
    9.8132    3.1644    6.1417 C   0  0  0  0  0  0
    8.5903    3.9228    6.6741 C   0  0  2  0  0  0
   11.7278    4.6886    6.9274 C   0  0  0  0  0  0
   11.9130    2.5477    5.7325 C   0  0  0  0  0  0
   13.1332    4.7522    6.8695 C   0  0  0  0  0  0
    8.2225    3.4998    8.1211 C   0  0  2  0  0  0
    6.6841    2.3990    6.5443 C   0  0  1  0  0  0
    7.3004    3.6383    5.8748 C   0  0  0  0  0  0
   10.9753    1.6107    5.2436 C   0  0  0  0  0  0
    3.9645    2.9345    8.9896 C   0  0  0  0  0  0
   13.3068    2.7347    5.7770 C   0  0  0  0  0  0
    7.3296    2.2523    7.9317 C   0  0  0  0  0  0
   11.2587    5.7852    7.7048 C   0  0  0  0  0  0
    2.6658    3.1592    9.7123 C   0  0  0  0  0  0
    3.1843    1.7425    9.4727 C   0  0  0  0  0  0
   12.3879    6.5132    8.0530 C   0  0  0  0  0  0
    7.5135    4.6194    8.9129 C   0  0  0  0  0  0
    7.3584    4.3618   10.4229 C   0  0  0  0  0  0
    4.8777    1.3774    5.9953 H   0  0  0  0  0  0
   14.4592    6.2074    7.7264 H   0  0  0  0  0  0
    8.8490    4.9750    6.5667 H   0  0  0  0  0  0
    9.1219    3.2403    8.6728 H   0  0  0  0  0  0
    7.0015    1.5429    5.9465 H   0  0  0  0  0  0
    7.4867    3.4994    4.8083 H   0  0  0  0  0  0
    6.6362    4.4935    5.9796 H   0  0  0  0  0  0
   11.1568    0.6866    4.7162 H   0  0  0  0  0  0
    4.8739    3.2619    9.4831 H   0  0  0  0  0  0
   13.9649    1.9959    5.3415 H   0  0  0  0  0  0
    6.5912    2.1339    8.7204 H   0  0  0  0  0  0
    7.9218    1.3382    7.9599 H   0  0  0  0  0  0
   10.2474    5.9630    8.0148 H   0  0  0  0  0  0
    1.8120    3.5268    9.1419 H   0  0  0  0  0  0
    2.7152    3.5960   10.7115 H   0  0  0  0  0  0
    3.5961    1.1741   10.3084 H   0  0  0  0  0  0
    2.6961    1.1082    8.7310 H   0  0  0  0  0  0
   12.4946    7.4096    8.6474 H   0  0  0  0  0  0
    8.0451    5.5589    8.7719 H   0  0  0  0  0  0
    6.5246    4.7630    8.4838 H   0  0  0  0  0  0
    6.7809    5.1596   10.8930 H   0  0  0  0  0  0
    6.8467    3.4234   10.6326 H   0  0  0  0  0  0
    8.3220    4.3213   10.9231 H   0  0  0  0  0  0
  1  2  2  0  0  0
  1  3  2  0  0  0
  1  6  1  0  0  0
  1 18  1  0  0  0
  4  9  1  0  0  0
  4 11  1  0  0  0
  4 12  1  0  0  0
  5  9  2  0  0  0
  5 17  1  0  0  0
  6 15  1  0  0  0
  6 27  1  0  0  0
  7 13  1  0  0  0
  7 19  2  0  0  0
  8 13  1  0  0  0
  8 24  1  0  0  0
  8 28  1  0  0  0
  9 10  1  0  0  0
 10 14  1  0  0  0
 10 16  1  0  0  0
 10 29  1  0  0  0
 11 13  2  0  0  0
 11 21  1  0  0  0
 12 17  2  0  0  0
 12 19  1  0  0  0
 14 20  1  0  0  0
 14 25  1  0  0  0
 14 30  1  0  0  0
 15 16  1  0  0  0
 15 20  1  0  0  0
 15 31  1  0  0  0
 16 32  1  0  0  0
 16 33  1  0  0  0
 17 34  1  0  0  0
 18 22  1  0  0  0
 18 23  1  0  0  0
 18 35  1  0  0  0
 19 36  1  0  0  0
 20 37  1  0  0  0
 20 38  1  0  0  0
 21 24  2  0  0  0
 21 39  1  0  0  0
 22 23  1  0  0  0
 22 40  1  0  0  0
 22 41  1  0  0  0
 23 42  1  0  0  0
 23 43  1  0  0  0
 24 44  1  0  0  0
 25 26  1  0  0  0
 25 45  1  0  0  0
 25 46  1  0  0  0
 26 47  1  0  0  0
 26 48  1  0  0  0
 26 49  1  0  0  0
M  END
> <s_m_entry_id>
47643

> <s_m_entry_name>
dock_pv.176

> <s_m_Source_Path>
/home/csk/Desktop/cluster/DUD-E-result/fak1

> <s_m_Source_File>
dock_pv.maegz

> <i_m_Source_File_Index>
176

> <chembl_id>
CHEMBL1992073

> <chembl_pref_name>
None

> <i_lp_mmshare_version>
53161

> <i_f3d_flags>
0

> <r_lp_tautomer_probability>
1

> <s_lp_Force_Field>
OPLS_2005

> <r_lp_Energy>
61.544352

> <b_lp_Chiralities_Consistent>
1

> <s_lp_Variant>
CHEMBL2695_lig2023-5

> <s_i_glide_gridfile>
glide-grid_3bz3

> <i_i_glide_lignum>
2395

> <i_i_glide_rotatable_bonds>
5

> <r_i_docking_score>
-7.56216116927637

> <r_i_glide_ligand_efficiency>
-0.290852352664476

> <r_i_glide_ligand_efficiency_sa>
-0.861648950319765

> <r_i_glide_ligand_efficiency_ln>
-1.77594873712988

> <r_i_glide_gscore>
-7.56216116927637

> <r_i_glide_lipo>
-2.71936942737303

> <r_i_glide_hbond>
-0.381438354310238

> <r_i_glide_metal>
0

> <r_i_glide_rewards>
-2.10779929592335

> <r_i_glide_evdw>
-38.8847427368164

> <r_i_glide_ecoul>
-5.05916023254395

> <r_i_glide_erotb>
0.387943612504603

> <r_i_glide_esite>
-0.038386532451948

> <r_i_glide_emodel>
-60.2414740101993

> <r_i_glide_energy>
-43.9439029693604

> <r_i_glide_einternal>
5.2498836517334

> <i_i_glide_confnum>
177

> <i_i_glide_posenum>
312

> <r_i_glide_eff_state_penalty>
0

> <s_user_duplicate_titles>
CHEMBL2695_lig2023

> <s_m_subgroup_title>
dock_pv

> <s_m_subgroupid>
dock_pv

> <b_m_subgroup_collapsed>
1

$$$$
CHEMBL2695_lig314
                    3D
 Schrodinger Suite 2021-1.
 50 53  0  0  1  0            999 V2000
    5.1489    4.1431    6.0409 S   0  0  0  0  0  0
    6.0105    3.0582    7.1813 N   0  0  0  0  0  0
    5.3468    1.7742    7.4113 C   0  0  0  0  0  0
    6.6555    3.6177    8.3074 C   0  0  0  0  0  0
    7.9614    4.1442    8.1995 C   0  0  0  0  0  0
    8.5542    4.6718    9.3593 C   0  0  0  0  0  0
    7.8666    4.6615   10.5696 C   0  0  0  0  0  0
    6.5937    4.1026   10.6011 C   0  0  0  0  0  0
    5.9912    3.5933    9.4995 N   0  0  0  0  0  0
    8.7334    4.0534    6.8761 C   0  0  0  0  0  0
    9.9162    4.9113    6.8110 N   0  0  0  0  0  0
   12.8922    2.8272    5.8934 C   0  0  0  0  0  0
   11.5184    3.1882    5.9656 C   0  0  0  0  0  0
   11.2081    4.4019    6.6290 C   0  0  0  0  0  0
   12.2740    5.1746    7.0967 C   0  0  0  0  0  0
   13.5821    4.7223    6.9372 C   0  0  0  0  0  0
   13.9217    3.5493    6.3399 N   0  0  0  0  0  0
   12.9758    1.6453    5.1901 N   0  0  0  0  0  0
   10.8061    2.1628    5.2515 C   0  0  0  0  0  0
   11.7336    1.2967    4.6992 C   0  0  0  0  0  0
    3.5654    4.5421    6.9660 C   0  0  0  0  0  0
    4.8043    3.3496    4.8561 O   0  0  0  0  0  0
    5.9232    5.3789    5.9065 O   0  0  0  0  0  0
   11.5216    0.2828    3.6213 C   0  0  0  0  0  0
   12.5476   -0.0387    2.7181 C   0  0  0  0  0  0
   12.3244   -0.9585    1.6990 C   0  0  0  0  0  0
   11.0732   -1.5542    1.5714 C   0  0  0  0  0  0
   10.0461   -1.2353    2.4553 C   0  0  0  0  0  0
   10.2727   -0.3132    3.4744 C   0  0  0  0  0  0
   10.8557   -2.4386    0.5727 F   0  0  0  0  0  0
    6.0500    1.0414    7.8061 H   0  0  0  0  0  0
    4.5218    1.8692    8.1171 H   0  0  0  0  0  0
    4.9469    1.3691    6.4840 H   0  0  0  0  0  0
    9.5547    5.0756    9.3384 H   0  0  0  0  0  0
    8.3221    5.0657   11.4618 H   0  0  0  0  0  0
    6.0262    4.0544   11.5188 H   0  0  0  0  0  0
    8.9801    3.0019    6.7650 H   0  0  0  0  0  0
    8.0923    4.3180    6.0383 H   0  0  0  0  0  0
    9.8193    5.8394    7.1941 H   0  0  0  0  0  0
   12.0958    6.1182    7.5917 H   0  0  0  0  0  0
   14.4034    5.3189    7.3077 H   0  0  0  0  0  0
   13.8221    1.1557    4.9394 H   0  0  0  0  0  0
    9.7507    2.1299    5.0231 H   0  0  0  0  0  0
    3.0094    5.2803    6.3932 H   0  0  0  0  0  0
    3.8247    4.9407    7.9433 H   0  0  0  0  0  0
    2.9813    3.6310    7.0735 H   0  0  0  0  0  0
   13.5173    0.4293    2.8015 H   0  0  0  0  0  0
   13.1139   -1.2047    1.0071 H   0  0  0  0  0  0
    9.0696   -1.6854    2.3415 H   0  0  0  0  0  0
    9.4522   -0.0330    4.1161 H   0  0  0  0  0  0
  1  2  1  0  0  0
  1 21  1  0  0  0
  1 22  2  0  0  0
  1 23  2  0  0  0
  2  3  1  0  0  0
  2  4  1  0  0  0
  3 31  1  0  0  0
  3 32  1  0  0  0
  3 33  1  0  0  0
  4  5  1  0  0  0
  4  9  2  0  0  0
  5  6  2  0  0  0
  5 10  1  0  0  0
  6  7  1  0  0  0
  6 34  1  0  0  0
  7  8  2  0  0  0
  7 35  1  0  0  0
  8  9  1  0  0  0
  8 36  1  0  0  0
 10 11  1  0  0  0
 10 37  1  0  0  0
 10 38  1  0  0  0
 11 14  1  0  0  0
 11 39  1  0  0  0
 12 13  1  0  0  0
 12 17  2  0  0  0
 12 18  1  0  0  0
 13 14  2  0  0  0
 13 19  1  0  0  0
 14 15  1  0  0  0
 15 16  2  0  0  0
 15 40  1  0  0  0
 16 17  1  0  0  0
 16 41  1  0  0  0
 18 20  1  0  0  0
 18 42  1  0  0  0
 19 20  2  0  0  0
 19 43  1  0  0  0
 20 24  1  0  0  0
 21 44  1  0  0  0
 21 45  1  0  0  0
 21 46  1  0  0  0
 24 25  2  0  0  0
 24 29  1  0  0  0
 25 26  1  0  0  0
 25 47  1  0  0  0
 26 27  2  0  0  0
 26 48  1  0  0  0
 27 28  1  0  0  0
 27 30  1  0  0  0
 28 29  2  0  0  0
 28 49  1  0  0  0
 29 50  1  0  0  0
M  END
> <s_m_entry_id>
47644

> <s_m_entry_name>
dock_pv.177

> <s_m_Source_Path>
/home/csk/Desktop/cluster/DUD-E-result/fak1

> <s_m_Source_File>
dock_pv.maegz

> <i_m_Source_File_Index>
177

> <chembl_id>
CHEMBL2315576

> <chembl_pref_name>
None

> <i_lp_mmshare_version>
53161

> <i_f3d_flags>
0

> <r_lp_tautomer_probability>
1

> <s_lp_Force_Field>
OPLS_2005

> <r_lp_Energy>
12.719389

> <b_lp_Chiralities_Consistent>
1

> <s_lp_Variant>
CHEMBL2695_lig314-1

> <s_i_glide_gridfile>
glide-grid_3bz3

> <i_i_glide_lignum>
356

> <i_i_glide_rotatable_bonds>
6

> <r_i_docking_score>
-7.55426690048121

> <r_i_glide_ligand_efficiency>
-0.251808896682707

> <r_i_glide_ligand_efficiency_sa>
-0.782428788173819

> <r_i_glide_ligand_efficiency_ln>
-1.71641175011975

> <r_i_glide_gscore>
-7.55426690048121

> <r_i_glide_lipo>
-3.45816595636215

> <r_i_glide_hbond>
-0.125477881862542

> <r_i_glide_metal>
0

> <r_i_glide_rewards>
-1.3806514160012

> <r_i_glide_evdw>
-45.4180374145508

> <r_i_glide_ecoul>
-5.6395263671875

> <r_i_glide_erotb>
0.547898828590192

> <r_i_glide_esite>
-0.0210396490398459

> <r_i_glide_emodel>
-66.9600271434433

> <r_i_glide_energy>
-51.0575637817383

> <r_i_glide_einternal>
8.285964012146

> <i_i_glide_confnum>
74

> <i_i_glide_posenum>
132

> <r_i_glide_eff_state_penalty>
0

> <s_user_duplicate_titles>
CHEMBL2695_lig314

> <s_m_subgroup_title>
dock_pv

> <s_m_subgroupid>
dock_pv

> <b_m_subgroup_collapsed>
1

$$$$
CHEMBL2695_lig1931
                    3D
 Schrodinger Suite 2021-1.
 38 41  0  0  1  0            999 V2000
   10.5340    0.5294    4.7086 O   0  0  0  0  0  0
    4.6809    1.2858    8.3100 O   0  0  0  0  0  0
   12.1425    1.9605    5.5085 N   0  0  0  0  0  0
    8.5891    3.1834    7.1479 N   0  0  0  0  0  0
   11.5705    8.3215    7.6820 N   0  0  0  0  0  0
   10.0591    2.9156    5.1915 C   0  0  2  0  0  0
   11.0152    3.8852    5.8275 C   0  0  0  0  0  0
    8.6839    2.7772    5.8572 C   0  0  0  0  0  0
   12.2510    3.2809    5.9092 C   0  0  0  0  0  0
   10.8990    1.6292    5.1090 C   0  0  0  0  0  0
    7.3816    3.2221    7.7629 C   0  0  0  0  0  0
    6.2031    2.7925    7.1153 C   0  0  0  0  0  0
   10.8369    5.1814    6.3091 C   0  0  0  0  0  0
    7.5617    2.3631    5.1415 C   0  0  0  0  0  0
   13.3565    3.9629    6.4126 C   0  0  0  0  0  0
   11.9209    5.8685    6.8590 C   0  0  0  0  0  0
    6.3256    2.3630    5.7871 C   0  0  0  0  0  0
    4.8893    2.6198    7.8838 C   0  0  2  0  0  0
   13.1762    5.2486    6.9288 C   0  0  0  0  0  0
    7.3578    3.8059    9.1739 C   0  0  0  0  0  0
    4.8380    3.5636    9.0988 C   0  0  0  0  0  0
    6.1006    3.4141    9.9633 C   0  0  0  0  0  0
   11.7314    7.2350    7.3226 C   0  0  0  0  0  0
    5.4072    1.0229    8.8868 H   0  0  0  0  0  0
   12.8955    1.2906    5.5472 H   0  0  0  0  0  0
    9.8685    3.2206    4.1613 H   0  0  0  0  0  0
    9.8590    5.6405    6.2622 H   0  0  0  0  0  0
    7.6402    2.0287    4.1185 H   0  0  0  0  0  0
   14.3225    3.4890    6.4759 H   0  0  0  0  0  0
    5.4605    1.9835    5.2625 H   0  0  0  0  0  0
    4.0524    2.8535    7.2250 H   0  0  0  0  0  0
   14.0264    5.7683    7.3524 H   0  0  0  0  0  0
    8.2546    3.5204    9.7259 H   0  0  0  0  0  0
    7.3906    4.8916    9.0790 H   0  0  0  0  0  0
    3.9414    3.3712    9.6919 H   0  0  0  0  0  0
    4.7238    4.5914    8.7503 H   0  0  0  0  0  0
    6.1880    2.3823   10.3082 H   0  0  0  0  0  0
    6.0153    4.0280   10.8610 H   0  0  0  0  0  0
  1 10  2  0  0  0
  2 18  1  0  0  0
  2 24  1  0  0  0
  3  9  1  0  0  0
  3 10  1  0  0  0
  3 25  1  0  0  0
  4  8  1  0  0  0
  4 11  2  0  0  0
  5 23  3  0  0  0
  6  7  1  0  0  0
  6  8  1  0  0  0
  6 10  1  0  0  0
  6 26  1  0  0  0
  7  9  1  0  0  0
  7 13  2  0  0  0
  8 14  2  0  0  0
  9 15  2  0  0  0
 11 12  1  0  0  0
 11 20  1  0  0  0
 12 17  2  0  0  0
 12 18  1  0  0  0
 13 16  1  0  0  0
 13 27  1  0  0  0
 14 17  1  0  0  0
 14 28  1  0  0  0
 15 19  1  0  0  0
 15 29  1  0  0  0
 16 19  2  0  0  0
 16 23  1  0  0  0
 17 30  1  0  0  0
 18 21  1  0  0  0
 18 31  1  0  0  0
 19 32  1  0  0  0
 20 22  1  0  0  0
 20 33  1  0  0  0
 20 34  1  0  0  0
 21 22  1  0  0  0
 21 35  1  0  0  0
 21 36  1  0  0  0
 22 37  1  0  0  0
 22 38  1  0  0  0
M  END
> <s_m_entry_id>
47645

> <s_m_entry_name>
dock_pv.178

> <s_m_Source_Path>
/home/csk/Desktop/cluster/DUD-E-result/fak1

> <s_m_Source_File>
dock_pv.maegz

> <i_m_Source_File_Index>
178

> <chembl_id>
CHEMBL1985681

> <chembl_pref_name>
None

> <i_lp_mmshare_version>
53161

> <i_f3d_flags>
0

> <r_lp_tautomer_probability>
1

> <s_lp_Force_Field>
OPLS_2005

> <r_lp_Energy>
33.891136

> <b_lp_Chiralities_Consistent>
1

> <s_lp_Variant>
CHEMBL2695_lig1931-1

> <s_i_glide_gridfile>
glide-grid_3bz3

> <i_i_glide_lignum>
2249

> <i_i_glide_rotatable_bonds>
2

> <r_i_docking_score>
-7.54155982186573

> <r_i_glide_ligand_efficiency>
-0.32789390529851

> <r_i_glide_ligand_efficiency_sa>
-0.932486649198407

> <r_i_glide_ligand_efficiency_ln>
-1.82361754801084

> <r_i_glide_gscore>
-7.54155982186573

> <r_i_glide_lipo>
-2.58623820732179

> <r_i_glide_hbond>
-0.276117255806105

> <r_i_glide_metal>
0

> <r_i_glide_rewards>
-2.28290207998276

> <r_i_glide_evdw>
-37.6570091247559

> <r_i_glide_ecoul>
-4.74277257919312

> <r_i_glide_erotb>
0.197964064361684

> <r_i_glide_esite>
0

> <r_i_glide_emodel>
-56.3978130644991

> <r_i_glide_energy>
-42.399781703949

> <r_i_glide_einternal>
1.02762150764465

> <i_i_glide_confnum>
3

> <i_i_glide_posenum>
79

> <r_i_glide_eff_state_penalty>
0

> <s_user_duplicate_titles>
CHEMBL2695_lig1931

> <s_m_subgroup_title>
dock_pv

> <s_m_subgroupid>
dock_pv

> <b_m_subgroup_collapsed>
1

$$$$
CHEMBL2695_lig962
                    3D
 Schrodinger Suite 2021-1.
 68 72  0  0  1  0            999 V2000
    6.9213    4.8337    4.7891 C   0  0  0  0  0  0
    6.9506    4.7622    6.2120 O   0  0  0  0  0  0
    6.1715    3.8326    6.8829 C   0  0  0  0  0  0
    5.1688    3.1010    6.2278 C   0  0  0  0  0  0
    4.3013    2.2490    6.9224 C   0  0  0  0  0  0
    3.2803    1.4534    6.1476 C   0  0  0  0  0  0
    2.0971    1.4226    6.4824 O   0  0  0  0  0  0
    3.7650    0.8200    5.0663 N   0  0  0  0  0  0
    2.9831    0.0252    4.1189 C   0  0  2  0  0  0
    3.9002   -0.3978    2.9503 C   0  0  0  0  0  0
    3.2832    0.2355    1.6988 C   0  0  0  0  0  0
    1.8720    0.3777    2.0138 N   0  0  2  0  0  0
    1.1745    1.2876    1.1097 C   0  0  0  0  0  0
    1.8954    0.8448    3.3924 C   0  0  0  0  0  0
    4.4280    2.1509    8.3184 C   0  0  0  0  0  0
    3.3801    1.1650    9.2792 Cl  0  0  0  0  0  0
    5.4421    2.8478    8.9744 C   0  0  0  0  0  0
    6.3435    3.6516    8.2738 C   0  0  0  0  0  0
    7.3674    4.2588    9.0319 N   0  0  0  0  0  0
    8.6711    4.6347    8.6838 C   0  0  0  0  0  0
    9.2946    5.5001    9.5103 N   0  0  0  0  0  0
   10.5080    5.9630    9.1067 C   0  0  0  0  0  0
   11.1203    5.5630    7.9191 C   0  0  0  0  0  0
   10.4634    4.5466    7.1947 C   0  0  0  0  0  0
   11.1484    3.8271    6.2308 O   0  0  0  0  0  0
   10.7549    2.6261    5.6527 C   0  0  0  0  0  0
    9.4269    2.2554    5.3951 C   0  0  0  0  0  0
    9.1350    1.1630    4.5951 C   0  0  0  0  0  0
   10.1502    0.4814    3.9219 C   0  0  0  0  0  0
    9.7824   -0.6009    2.9222 C   0  0  0  0  0  0
   11.4745    0.8438    4.1607 C   0  0  0  0  0  0
   12.6994    0.4707    3.3631 C   0  0  0  0  0  0
   13.8559    1.0403    4.1671 C   0  0  0  0  0  0
   13.2520    1.9642    5.2141 C   0  0  0  0  0  0
   13.8926    2.7185    5.9428 O   0  0  0  0  0  0
   11.7764    1.8320    5.1087 C   0  0  0  0  0  0
    9.2357    4.1066    7.5776 N   0  0  0  0  0  0
   12.4952    6.1201    7.5898 C   0  0  0  0  0  0
   12.3229    7.3491    7.1083 F   0  0  0  0  0  0
   13.2428    6.1994    8.6931 F   0  0  0  0  0  0
   13.1563    5.3843    6.7054 F   0  0  0  0  0  0
    7.7273    5.4846    4.4531 H   0  0  0  0  0  0
    7.0955    3.8636    4.3234 H   0  0  0  0  0  0
    5.9792    5.2475    4.4273 H   0  0  0  0  0  0
    5.0315    3.2107    5.1624 H   0  0  0  0  0  0
    4.7586    0.6058    5.0804 H   0  0  0  0  0  0
    2.5457   -0.8747    4.5557 H   0  0  0  0  0  0
    3.9207   -1.4821    2.8375 H   0  0  0  0  0  0
    4.9369   -0.0693    3.0577 H   0  0  0  0  0  0
    3.3872   -0.3930    0.8127 H   0  0  0  0  0  0
    3.7494    1.1876    1.4360 H   0  0  0  0  0  0
    1.6180    2.2860    1.1164 H   0  0  0  0  0  0
    0.1254    1.3825    1.3971 H   0  0  0  0  0  0
    1.2058    0.9144    0.0844 H   0  0  0  0  0  0
    2.1451    1.9091    3.3904 H   0  0  0  0  0  0
    0.9256    0.8378    3.8923 H   0  0  0  0  0  0
    5.5408    2.7316   10.0453 H   0  0  0  0  0  0
    7.0982    4.5374    9.9628 H   0  0  0  0  0  0
   10.9944    6.6939    9.7360 H   0  0  0  0  0  0
    8.5809    2.8152    5.7445 H   0  0  0  0  0  0
    8.0990    0.9113    4.4097 H   0  0  0  0  0  0
   10.0831   -0.3033    1.9179 H   0  0  0  0  0  0
   10.3017   -1.5267    3.1638 H   0  0  0  0  0  0
    8.7116   -0.8103    2.9166 H   0  0  0  0  0  0
   12.8010   -0.5948    3.1489 H   0  0  0  0  0  0
   12.6967    0.9521    2.3851 H   0  0  0  0  0  0
   14.3238    0.2324    4.7022 H   0  0  0  0  0  0
   14.6145    1.5290    3.5560 H   0  0  0  0  0  0
  1  2  1  0  0  0
  1 42  1  0  0  0
  1 43  1  0  0  0
  1 44  1  0  0  0
  2  3  1  0  0  0
  3  4  2  0  0  0
  3 18  1  0  0  0
  4  5  1  0  0  0
  4 45  1  0  0  0
  5  6  1  0  0  0
  5 15  2  0  0  0
  6  7  2  0  0  0
  6  8  1  0  0  0
  8  9  1  0  0  0
  8 46  1  0  0  0
  9 10  1  0  0  0
  9 14  1  0  0  0
  9 47  1  0  0  0
 10 11  1  0  0  0
 10 48  1  0  0  0
 10 49  1  0  0  0
 11 12  1  0  0  0
 11 50  1  0  0  0
 11 51  1  0  0  0
 12 13  1  0  0  0
 12 14  1  0  0  0
 13 52  1  0  0  0
 13 53  1  0  0  0
 13 54  1  0  0  0
 14 55  1  0  0  0
 14 56  1  0  0  0
 15 16  1  0  0  0
 15 17  1  0  0  0
 17 18  2  0  0  0
 17 57  1  0  0  0
 18 19  1  0  0  0
 19 20  1  0  0  0
 19 58  1  0  0  0
 20 21  2  0  0  0
 20 37  1  0  0  0
 21 22  1  0  0  0
 22 23  2  0  0  0
 22 59  1  0  0  0
 23 24  1  0  0  0
 23 38  1  0  0  0
 24 25  1  0  0  0
 24 37  2  0  0  0
 25 26  1  0  0  0
 26 27  2  0  0  0
 26 36  1  0  0  0
 27 28  1  0  0  0
 27 60  1  0  0  0
 28 29  2  0  0  0
 28 61  1  0  0  0
 29 30  1  0  0  0
 29 31  1  0  0  0
 30 62  1  0  0  0
 30 63  1  0  0  0
 30 64  1  0  0  0
 31 32  1  0  0  0
 31 36  2  0  0  0
 32 33  1  0  0  0
 32 65  1  0  0  0
 32 66  1  0  0  0
 33 34  1  0  0  0
 33 67  1  0  0  0
 33 68  1  0  0  0
 34 35  2  0  0  0
 34 36  1  0  0  0
 38 39  1  0  0  0
 38 40  1  0  0  0
 38 41  1  0  0  0
M  END
> <s_m_entry_id>
47646

> <s_m_entry_name>
dock_pv.179

> <s_m_Source_Path>
/home/csk/Desktop/cluster/DUD-E-result/fak1

> <s_m_Source_File>
dock_pv.maegz

> <i_m_Source_File_Index>
179

> <chembl_id>
CHEMBL3657263

> <chembl_pref_name>
None

> <i_lp_mmshare_version>
53161

> <i_f3d_flags>
0

> <r_lp_tautomer_probability>
0.999949917916752

> <s_lp_Force_Field>
OPLS_2005

> <r_lp_Energy>
59.722082

> <b_lp_Chiralities_Consistent>
1

> <s_lp_Variant>
CHEMBL2695_lig962-1

> <s_i_glide_gridfile>
glide-grid_3bz3

> <i_i_glide_lignum>
1038

> <i_i_glide_rotatable_bonds>
9

> <r_i_docking_score>
-7.53025407021351

> <r_i_glide_ligand_efficiency>
-0.183664733419842

> <r_i_glide_ligand_efficiency_sa>
-0.633315899444642

> <r_i_glide_ligand_efficiency_ln>
-1.59756846053244

> <r_i_glide_gscore>
-7.53025407021351

> <r_i_glide_lipo>
-2.71391350537956

> <r_i_glide_hbond>
-0.413610944863001

> <r_i_glide_metal>
0

> <r_i_glide_rewards>
-1.97170384720992

> <r_i_glide_evdw>
-36.6529846191406

> <r_i_glide_ecoul>
-5.42153692245483

> <r_i_glide_erotb>
0.312960559832272

> <r_i_glide_esite>
-0.0981065632680518

> <r_i_glide_emodel>
-49.8590703856825

> <r_i_glide_energy>
-42.0745215415955

> <r_i_glide_einternal>
10.6366338729858

> <i_i_glide_confnum>
1

> <i_i_glide_posenum>
15

> <r_i_glide_eff_state_penalty>
0

> <s_user_duplicate_titles>
CHEMBL2695_lig962

> <s_m_subgroup_title>
dock_pv

> <s_m_subgroupid>
dock_pv

> <b_m_subgroup_collapsed>
1

$$$$
CHEMBL2695_lig568
                    3D
 Schrodinger Suite 2021-1.
 55 59  0  0  1  0            999 V2000
    9.9459   -0.8291    2.7271 C   0  0  0  0  0  0
   11.1219   -0.3806    3.3946 O   0  0  0  0  0  0
   11.0570    0.7629    4.1660 C   0  0  0  0  0  0
    9.8879    1.4891    4.4226 C   0  0  0  0  0  0
    9.9267    2.6673    5.1675 C   0  0  0  0  0  0
   11.1258    3.1304    5.7285 C   0  0  0  0  0  0
   12.2861    2.3632    5.5092 C   0  0  0  0  0  0
   13.4831    2.7266    6.0291 F   0  0  0  0  0  0
   12.2496    1.2275    4.7100 C   0  0  0  0  0  0
   11.1605    4.3659    6.5745 C   0  0  0  0  0  0
   12.2737    5.2252    6.5939 C   0  0  0  0  0  0
   12.4344    6.2116    7.5689 C   0  0  0  0  0  0
   11.4837    6.3536    8.5751 C   0  0  0  0  0  0
   10.3673    5.5630    8.5247 N   0  0  0  0  0  0
    9.3770    5.4847    9.4467 N   0  0  0  0  0  0
    8.5788    4.5722    8.9197 C   0  0  0  0  0  0
    7.4135    4.2076    9.5498 N   0  0  0  0  0  0
    6.4911    3.2334    9.1149 C   0  0  0  0  0  0
    5.1368    3.4211    9.3902 C   0  0  0  0  0  0
    4.1863    2.5170    8.9129 C   0  0  0  0  0  0
    4.5786    1.4026    8.1547 C   0  0  0  0  0  0
    5.9403    1.2085    7.9090 C   0  0  0  0  0  0
    6.8839    2.0960    8.4014 C   0  0  0  0  0  0
    3.5683    0.4009    7.5628 C   0  0  0  0  0  0
    4.0002   -1.0824    7.7086 C   0  0  0  0  0  0
    2.9488   -2.0835    7.1914 C   0  0  0  0  0  0
    1.6296   -1.8462    7.7760 N   0  0  1  0  0  0
    1.1534   -0.4976    7.4708 C   0  0  0  0  0  0
    2.1027    0.5831    8.0248 C   0  0  0  0  0  0
    8.9454    4.0593    7.7600 N   0  0  0  0  0  0
   10.1365    4.6363    7.5089 C   0  0  0  0  0  0
   10.1721   -1.7366    2.1676 H   0  0  0  0  0  0
    9.5866   -0.0845    2.0156 H   0  0  0  0  0  0
    9.1445   -1.0674    3.4271 H   0  0  0  0  0  0
    8.9358    1.1675    4.0274 H   0  0  0  0  0  0
    9.0052    3.2119    5.3120 H   0  0  0  0  0  0
   13.1931    0.7630    4.4842 H   0  0  0  0  0  0
   13.0679    5.0911    5.8740 H   0  0  0  0  0  0
   13.3279    6.8211    7.5731 H   0  0  0  0  0  0
   11.5751    7.0423    9.3996 H   0  0  0  0  0  0
    7.0322    4.8405   10.2337 H   0  0  0  0  0  0
    4.8088    4.2817    9.9548 H   0  0  0  0  0  0
    3.1480    2.7104    9.1321 H   0  0  0  0  0  0
    6.2891    0.3680    7.3292 H   0  0  0  0  0  0
    7.9212    1.8843    8.2012 H   0  0  0  0  0  0
    3.6000    0.6416    6.4980 H   0  0  0  0  0  0
    4.8845   -1.2695    7.1089 H   0  0  0  0  0  0
    4.3181   -1.3361    8.7125 H   0  0  0  0  0  0
    2.8836   -2.0340    6.1027 H   0  0  0  0  0  0
    3.2559   -3.0986    7.4444 H   0  0  0  0  0  0
    0.9768   -2.5077    7.3826 H   0  0  0  0  0  0
    1.0429   -0.3871    6.3900 H   0  0  0  0  0  0
    0.1612   -0.3768    7.9069 H   0  0  0  0  0  0
    2.0188    0.6119    9.1090 H   0  0  0  0  0  0
    1.7263    1.5354    7.6491 H   0  0  0  0  0  0
  1  2  1  0  0  0
  1 32  1  0  0  0
  1 33  1  0  0  0
  1 34  1  0  0  0
  2  3  1  0  0  0
  3  4  2  0  0  0
  3  9  1  0  0  0
  4  5  1  0  0  0
  4 35  1  0  0  0
  5  6  2  0  0  0
  5 36  1  0  0  0
  6  7  1  0  0  0
  6 10  1  0  0  0
  7  8  1  0  0  0
  7  9  2  0  0  0
  9 37  1  0  0  0
 10 11  2  0  0  0
 10 31  1  0  0  0
 11 12  1  0  0  0
 11 38  1  0  0  0
 12 13  2  0  0  0
 12 39  1  0  0  0
 13 14  1  0  0  0
 13 40  1  0  0  0
 14 15  1  0  0  0
 14 31  1  0  0  0
 15 16  2  0  0  0
 16 17  1  0  0  0
 16 30  1  0  0  0
 17 18  1  0  0  0
 17 41  1  0  0  0
 18 19  2  0  0  0
 18 23  1  0  0  0
 19 20  1  0  0  0
 19 42  1  0  0  0
 20 21  2  0  0  0
 20 43  1  0  0  0
 21 22  1  0  0  0
 21 24  1  0  0  0
 22 23  2  0  0  0
 22 44  1  0  0  0
 23 45  1  0  0  0
 24 25  1  0  0  0
 24 29  1  0  0  0
 24 46  1  0  0  0
 25 26  1  0  0  0
 25 47  1  0  0  0
 25 48  1  0  0  0
 26 27  1  0  0  0
 26 49  1  0  0  0
 26 50  1  0  0  0
 27 28  1  0  0  0
 27 51  1  0  0  0
 28 29  1  0  0  0
 28 52  1  0  0  0
 28 53  1  0  0  0
 29 54  1  0  0  0
 29 55  1  0  0  0
 30 31  2  0  0  0
M  END
> <s_m_entry_id>
47647

> <s_m_entry_name>
dock_pv.180

> <s_m_Source_Path>
/home/csk/Desktop/cluster/DUD-E-result/fak1

> <s_m_Source_File>
dock_pv.maegz

> <i_m_Source_File_Index>
180

> <chembl_id>
CHEMBL3645074

> <chembl_pref_name>
None

> <i_lp_mmshare_version>
53161

> <i_f3d_flags>
0

> <r_lp_tautomer_probability>
1

> <s_lp_Force_Field>
OPLS_2005

> <r_lp_Energy>
36.074663

> <b_lp_Chiralities_Consistent>
1

> <s_lp_Variant>
CHEMBL2695_lig568-1

> <s_i_glide_gridfile>
glide-grid_3bz3

> <i_i_glide_lignum>
622

> <i_i_glide_rotatable_bonds>
5

> <r_i_docking_score>
-7.52760179416183

> <r_i_glide_ligand_efficiency>
-0.242825864327801

> <r_i_glide_ligand_efficiency_sa>
-0.762808471226413

> <r_i_glide_ligand_efficiency_ln>
-1.69770489787327

> <r_i_glide_gscore>
-7.52760179416183

> <r_i_glide_lipo>
-2.55908136704023

> <r_i_glide_hbond>
-0.272817049409482

> <r_i_glide_metal>
0

> <r_i_glide_rewards>
-2.64042643663444

> <r_i_glide_evdw>
-35.771369934082

> <r_i_glide_ecoul>
-4.80223941802979

> <r_i_glide_erotb>
0.45362746833089

> <r_i_glide_esite>
0

> <r_i_glide_emodel>
-51.6098180213552

> <r_i_glide_energy>
-40.5736093521118

> <r_i_glide_einternal>
8.98072242736816

> <i_i_glide_confnum>
8

> <i_i_glide_posenum>
325

> <r_i_glide_eff_state_penalty>
0

> <s_user_duplicate_titles>
CHEMBL2695_lig568

> <s_m_subgroup_title>
dock_pv

> <s_m_subgroupid>
dock_pv

> <b_m_subgroup_collapsed>
1

$$$$
CHEMBL2695_lig1521
                    3D
 Schrodinger Suite 2021-1.
 44 46  0  0  1  0            999 V2000
   12.3753    6.9106    8.4134 Br  0  0  0  0  0  0
   13.1598   -1.3713    1.1235 S   0  0  0  0  0  0
   12.1341   -2.2222    0.5130 O   0  0  0  0  0  0
   13.9306   -0.4370    0.3090 O   0  0  0  0  0  0
    5.6912    2.3191    7.9809 O   0  0  0  0  0  0
   11.8623    3.5916    5.9092 N   0  0  0  0  0  0
   13.4165    1.9630    5.1090 N   0  0  0  0  0  0
   10.3219    5.1630    6.7830 N   0  0  0  0  0  0
   14.1684    3.6251    6.5867 N   0  0  0  0  0  0
   14.3090   -2.4219    1.9090 N   0  0  0  0  0  0
    2.5355    1.5630    9.1089 N   0  0  0  0  0  0
   11.6354    4.7162    6.6357 C   0  0  0  0  0  0
   12.4005   -0.4059    2.4225 C   0  0  0  0  0  0
   13.1230    3.0839    5.9086 C   0  0  0  0  0  0
   12.5939    1.1630    4.2823 C   0  0  0  0  0  0
   12.6600    5.3541    7.3437 C   0  0  0  0  0  0
   13.1667    0.4882    3.1860 C   0  0  0  0  0  0
    9.2150    4.3690    7.1062 C   0  0  0  0  0  0
   13.9187    4.7615    7.2914 C   0  0  0  0  0  0
   11.0358   -0.5473    2.6830 C   0  0  0  0  0  0
   11.2243    0.9853    4.5375 C   0  0  0  0  0  0
   10.4484    0.1634    3.7236 C   0  0  0  0  0  0
    8.6314    4.5429    8.3595 C   0  0  0  0  0  0
    8.6578    3.4773    6.1889 C   0  0  0  0  0  0
    6.8784    2.9868    7.7584 C   0  0  0  0  0  0
    7.4687    3.8569    8.6876 C   0  0  0  0  0  0
    7.4964    2.7820    6.5226 C   0  0  0  0  0  0
    4.9172    2.6694    9.1256 C   0  0  0  0  0  0
    3.5860    2.0486    9.1152 C   0  0  0  0  0  0
   14.3825    1.6666    5.1603 H   0  0  0  0  0  0
   10.2937    6.0644    7.2344 H   0  0  0  0  0  0
   13.8928   -3.1316    2.5162 H   0  0  0  0  0  0
   15.1059   -1.9446    2.3416 H   0  0  0  0  0  0
   14.2201    0.6053    2.9757 H   0  0  0  0  0  0
   14.7220    5.1632    7.8795 H   0  0  0  0  0  0
   10.4213   -1.2057    2.0849 H   0  0  0  0  0  0
   10.7421    1.4633    5.3749 H   0  0  0  0  0  0
    9.3884    0.0585    3.9090 H   0  0  0  0  0  0
    9.0588    5.2314    9.0735 H   0  0  0  0  0  0
    9.1041    3.3450    5.2139 H   0  0  0  0  0  0
    7.0304    4.0285    9.6587 H   0  0  0  0  0  0
    7.0523    2.1022    5.8084 H   0  0  0  0  0  0
    4.7744    3.7496    9.1839 H   0  0  0  0  0  0
    5.4317    2.3629   10.0371 H   0  0  0  0  0  0
  1 16  1  0  0  0
  2  3  2  0  0  0
  2  4  2  0  0  0
  2 10  1  0  0  0
  2 13  1  0  0  0
  5 25  1  0  0  0
  5 28  1  0  0  0
  6 12  2  0  0  0
  6 14  1  0  0  0
  7 14  1  0  0  0
  7 15  1  0  0  0
  7 30  1  0  0  0
  8 12  1  0  0  0
  8 18  1  0  0  0
  8 31  1  0  0  0
  9 14  2  0  0  0
  9 19  1  0  0  0
 10 32  1  0  0  0
 10 33  1  0  0  0
 11 29  3  0  0  0
 12 16  1  0  0  0
 13 17  1  0  0  0
 13 20  2  0  0  0
 15 17  2  0  0  0
 15 21  1  0  0  0
 16 19  2  0  0  0
 17 34  1  0  0  0
 18 23  2  0  0  0
 18 24  1  0  0  0
 19 35  1  0  0  0
 20 22  1  0  0  0
 20 36  1  0  0  0
 21 22  2  0  0  0
 21 37  1  0  0  0
 22 38  1  0  0  0
 23 26  1  0  0  0
 23 39  1  0  0  0
 24 27  2  0  0  0
 24 40  1  0  0  0
 25 26  2  0  0  0
 25 27  1  0  0  0
 26 41  1  0  0  0
 27 42  1  0  0  0
 28 29  1  0  0  0
 28 43  1  0  0  0
 28 44  1  0  0  0
M  END
> <s_m_entry_id>
47648

> <s_m_entry_name>
dock_pv.181

> <s_m_Source_Path>
/home/csk/Desktop/cluster/DUD-E-result/fak1

> <s_m_Source_File>
dock_pv.maegz

> <i_m_Source_File_Index>
181

> <chembl_id>
CHEMBL1987034

> <chembl_pref_name>
None

> <i_lp_mmshare_version>
53161

> <i_f3d_flags>
0

> <r_lp_tautomer_probability>
0.999999624730965

> <s_lp_Force_Field>
OPLS_2005

> <r_lp_Energy>
22.114833

> <b_lp_Chiralities_Consistent>
1

> <s_lp_Variant>
CHEMBL2695_lig1521-1

> <s_i_glide_gridfile>
glide-grid_3bz3

> <i_i_glide_lignum>
1663

> <i_i_glide_rotatable_bonds>
7

> <r_i_docking_score>
-7.50412042461202

> <r_i_glide_ligand_efficiency>
-0.258762773262484

> <r_i_glide_ligand_efficiency_sa>
-0.795001221263125

> <r_i_glide_ligand_efficiency_ln>
-1.71825328916069

> <r_i_glide_gscore>
-7.50412042461202

> <r_i_glide_lipo>
-2.65334691996618

> <r_i_glide_hbond>
-0.748400560026346

> <r_i_glide_metal>
0

> <r_i_glide_rewards>
-0.945498368523484

> <r_i_glide_evdw>
-42.0408554077148

> <r_i_glide_ecoul>
-9.21132659912109

> <r_i_glide_erotb>
0.447961161058364

> <r_i_glide_esite>
-0.121093976900474

> <r_i_glide_emodel>
-69.9810986951002

> <r_i_glide_energy>
-51.2521820068359

> <r_i_glide_einternal>
10.4228248596191

> <i_i_glide_confnum>
7

> <i_i_glide_posenum>
311

> <r_i_glide_eff_state_penalty>
0

> <s_user_duplicate_titles>
CHEMBL2695_lig1521

> <s_m_subgroup_title>
dock_pv

> <s_m_subgroupid>
dock_pv

> <b_m_subgroup_collapsed>
1

$$$$
CHEMBL2695_lig619
                    3D
 Schrodinger Suite 2021-1.
 44 47  0  0  1  0            999 V2000
    4.3619    0.3680    2.9429 C   0  0  0  0  0  0
    3.2595    1.6321    3.7795 S   0  0  0  0  0  0
    2.0736    0.9405    4.2969 O   0  0  0  0  0  0
    3.1206    2.7630    2.8591 O   0  0  0  0  0  0
    4.1987    2.2042    5.1959 C   0  0  0  0  0  0
    4.8159    3.4565    5.1737 C   0  0  0  0  0  0
    5.5240    3.8984    6.2874 C   0  0  0  0  0  0
    5.6160    3.1026    7.4349 C   0  0  0  0  0  0
    4.9975    1.8481    7.4455 C   0  0  0  0  0  0
    4.2914    1.3997    6.3318 C   0  0  0  0  0  0
    6.3390    3.5972    8.6356 C   0  0  0  0  0  0
    5.7525    3.5347    9.9074 C   0  0  0  0  0  0
    6.3973    4.0356   11.0362 C   0  0  0  0  0  0
    7.6422    4.6263   10.9398 C   0  0  0  0  0  0
    8.2290    4.6620    9.7146 N   0  0  0  0  0  0
    9.4368    5.1630    9.4318 N   0  0  0  0  0  0
    9.5225    4.9284    8.1405 C   0  0  0  0  0  0
   10.6675    5.2793    7.4843 N   0  0  0  0  0  0
   10.9387    5.0879    6.0710 C   0  0  0  0  0  0
   11.0133    3.6176    5.7076 C   0  0  0  0  0  0
   12.1932    2.8968    5.9090 C   0  0  0  0  0  0
   12.2578    1.5630    5.5090 C   0  0  0  0  0  0
   11.1227    0.9828    4.9333 C   0  0  0  0  0  0
    9.9674    1.6627    4.7315 N   0  0  0  0  0  0
    9.9282    2.9646    5.1090 C   0  0  0  0  0  0
    8.4947    4.3623    7.5368 N   0  0  0  0  0  0
    7.6307    4.1640    8.5547 C   0  0  0  0  0  0
    3.9816    0.1959    1.9379 H   0  0  0  0  0  0
    5.3785    0.7583    2.9023 H   0  0  0  0  0  0
    4.3219   -0.5597    3.5090 H   0  0  0  0  0  0
    4.7392    4.0981    4.3088 H   0  0  0  0  0  0
    5.9886    4.8735    6.2638 H   0  0  0  0  0  0
    5.0706    1.2134    8.3175 H   0  0  0  0  0  0
    3.8274    0.4237    6.3469 H   0  0  0  0  0  0
    4.7683    3.1020   10.0247 H   0  0  0  0  0  0
    5.9226    3.9637   11.9995 H   0  0  0  0  0  0
    8.1833    5.0504   11.7720 H   0  0  0  0  0  0
   11.3308    5.8759    7.9532 H   0  0  0  0  0  0
   11.8697    5.5877    5.8009 H   0  0  0  0  0  0
   10.1433    5.5623    5.5094 H   0  0  0  0  0  0
   13.0579    3.3706    6.3494 H   0  0  0  0  0  0
   13.1704    1.0043    5.6543 H   0  0  0  0  0  0
   11.1217   -0.0493    4.6172 H   0  0  0  0  0  0
    8.9967    3.4811    4.9263 H   0  0  0  0  0  0
  1  2  1  0  0  0
  1 28  1  0  0  0
  1 29  1  0  0  0
  1 30  1  0  0  0
  2  3  2  0  0  0
  2  4  2  0  0  0
  2  5  1  0  0  0
  5  6  2  0  0  0
  5 10  1  0  0  0
  6  7  1  0  0  0
  6 31  1  0  0  0
  7  8  2  0  0  0
  7 32  1  0  0  0
  8  9  1  0  0  0
  8 11  1  0  0  0
  9 10  2  0  0  0
  9 33  1  0  0  0
 10 34  1  0  0  0
 11 12  2  0  0  0
 11 27  1  0  0  0
 12 13  1  0  0  0
 12 35  1  0  0  0
 13 14  2  0  0  0
 13 36  1  0  0  0
 14 15  1  0  0  0
 14 37  1  0  0  0
 15 16  1  0  0  0
 15 27  1  0  0  0
 16 17  2  0  0  0
 17 18  1  0  0  0
 17 26  1  0  0  0
 18 19  1  0  0  0
 18 38  1  0  0  0
 19 20  1  0  0  0
 19 39  1  0  0  0
 19 40  1  0  0  0
 20 21  2  0  0  0
 20 25  1  0  0  0
 21 22  1  0  0  0
 21 41  1  0  0  0
 22 23  2  0  0  0
 22 42  1  0  0  0
 23 24  1  0  0  0
 23 43  1  0  0  0
 24 25  2  0  0  0
 25 44  1  0  0  0
 26 27  2  0  0  0
M  END
> <s_m_entry_id>
47649

> <s_m_entry_name>
dock_pv.182

> <s_m_Source_Path>
/home/csk/Desktop/cluster/DUD-E-result/fak1

> <s_m_Source_File>
dock_pv.maegz

> <i_m_Source_File_Index>
182

> <chembl_id>
CHEMBL3645115

> <chembl_pref_name>
None

> <i_lp_mmshare_version>
53161

> <i_f3d_flags>
0

> <r_lp_tautomer_probability>
1

> <s_lp_Force_Field>
OPLS_2005

> <r_lp_Energy>
13.572667

> <b_lp_Chiralities_Consistent>
1

> <s_lp_Variant>
CHEMBL2695_lig619-1

> <s_i_glide_gridfile>
glide-grid_3bz3

> <i_i_glide_lignum>
673

> <i_i_glide_rotatable_bonds>
5

> <r_i_docking_score>
-7.49770686133697

> <r_i_glide_ligand_efficiency>
-0.277692846716184

> <r_i_glide_ligand_efficiency_sa>
-0.833078539233322

> <r_i_glide_ligand_efficiency_ln>
-1.74534254796104

> <r_i_glide_gscore>
-7.49770686133697

> <r_i_glide_lipo>
-2.57760885945048

> <r_i_glide_hbond>
-0.184275706030495

> <r_i_glide_metal>
0

> <r_i_glide_rewards>
-2.48107644299061

> <r_i_glide_evdw>
-33.321590423584

> <r_i_glide_ecoul>
-7.21478700637817

> <r_i_glide_erotb>
0.53871083654438

> <r_i_glide_esite>
-0.045159117273847

> <r_i_glide_emodel>
-57.8672649969407

> <r_i_glide_energy>
-40.5363774299622

> <r_i_glide_einternal>
2.20757484436035

> <i_i_glide_confnum>
6

> <i_i_glide_posenum>
333

> <r_i_glide_eff_state_penalty>
0

> <s_user_duplicate_titles>
CHEMBL2695_lig619

> <s_m_subgroup_title>
dock_pv

> <s_m_subgroupid>
dock_pv

> <b_m_subgroup_collapsed>
1

$$$$
CHEMBL2695_lig1937
                    3D
 Schrodinger Suite 2021-1.
 29 31  0  0  1  0            999 V2000
    8.3213    3.1632    9.2344 Cl  0  0  0  0  0  0
   14.0635    3.4665    6.3867 O   0  0  0  0  0  0
    5.5249    4.8779    5.4451 N   0  0  0  0  0  0
    4.2731    4.3563    7.4463 N   0  0  0  0  0  0
   13.5219    1.5630    5.3741 N   0  0  0  0  0  0
    6.7017    4.0254    7.1814 C   0  0  0  0  0  0
    7.5951    4.2082    6.0640 C   0  0  0  0  0  0
    5.4032    4.4157    6.7355 C   0  0  0  0  0  0
    9.0292    3.8473    6.0026 C   0  0  0  0  0  0
    6.8053    3.5758    8.5163 C   0  0  0  0  0  0
    6.8357    4.7619    5.0475 C   0  0  0  0  0  0
    5.6382    3.4988    9.2784 C   0  0  0  0  0  0
    9.3883    2.5786    5.5500 C   0  0  0  0  0  0
   10.0115    4.7634    6.3703 C   0  0  0  0  0  0
    4.4224    3.8778    8.7089 C   0  0  0  0  0  0
   11.7309    3.1169    5.9090 C   0  0  0  0  0  0
   10.7299    2.2119    5.5091 C   0  0  0  0  0  0
   11.3536    4.4023    6.3215 C   0  0  0  0  0  0
   13.1969    2.7372    5.9090 C   0  0  0  0  0  0
    4.7902    5.2380    4.8523 H   0  0  0  0  0  0
   12.8296    1.0173    4.8888 H   0  0  0  0  0  0
   14.4815    1.2356    5.4315 H   0  0  0  0  0  0
    7.1221    5.0629    4.0490 H   0  0  0  0  0  0
    5.6720    3.1559   10.3040 H   0  0  0  0  0  0
    8.6273    1.8712    5.2506 H   0  0  0  0  0  0
    9.7384    5.7502    6.7098 H   0  0  0  0  0  0
    3.5205    3.8356    9.3028 H   0  0  0  0  0  0
   10.9633    1.2107    5.1802 H   0  0  0  0  0  0
   12.0974    5.1258    6.6253 H   0  0  0  0  0  0
  1 10  1  0  0  0
  2 19  2  0  0  0
  3  8  1  0  0  0
  3 11  1  0  0  0
  3 20  1  0  0  0
  4  8  2  0  0  0
  4 15  1  0  0  0
  5 19  1  0  0  0
  5 21  1  0  0  0
  5 22  1  0  0  0
  6  7  1  0  0  0
  6  8  1  0  0  0
  6 10  2  0  0  0
  7  9  1  0  0  0
  7 11  2  0  0  0
  9 13  2  0  0  0
  9 14  1  0  0  0
 10 12  1  0  0  0
 11 23  1  0  0  0
 12 15  2  0  0  0
 12 24  1  0  0  0
 13 17  1  0  0  0
 13 25  1  0  0  0
 14 18  2  0  0  0
 14 26  1  0  0  0
 15 27  1  0  0  0
 16 17  2  0  0  0
 16 18  1  0  0  0
 16 19  1  0  0  0
 17 28  1  0  0  0
 18 29  1  0  0  0
M  END
> <s_m_entry_id>
47650

> <s_m_entry_name>
dock_pv.183

> <s_m_Source_Path>
/home/csk/Desktop/cluster/DUD-E-result/fak1

> <s_m_Source_File>
dock_pv.maegz

> <i_m_Source_File_Index>
183

> <chembl_id>
CHEMBL1982711

> <chembl_pref_name>
None

> <i_lp_mmshare_version>
53161

> <i_f3d_flags>
0

> <r_lp_tautomer_probability>
0.999998432528457

> <s_lp_Force_Field>
OPLS_2005

> <r_lp_Energy>
12.042337

> <b_lp_Chiralities_Consistent>
1

> <s_lp_Variant>
CHEMBL2695_lig1937-1

> <s_i_glide_gridfile>
glide-grid_3bz3

> <i_i_glide_lignum>
2259

> <i_i_glide_rotatable_bonds>
2

> <r_i_docking_score>
-7.4875350359079

> <r_i_glide_ligand_efficiency>
-0.394080791363574

> <r_i_glide_ligand_efficiency_sa>
-1.05156583237212

> <r_i_glide_ligand_efficiency_ln>
-1.89825094910968

> <r_i_glide_gscore>
-7.4875350359079

> <r_i_glide_lipo>
-2.33717816129344

> <r_i_glide_hbond>
-0.552565070034339

> <r_i_glide_metal>
0

> <r_i_glide_rewards>
-2.30097759684556

> <r_i_glide_evdw>
-31.9603710174561

> <r_i_glide_ecoul>
-6.27593088150024

> <r_i_glide_erotb>
0.242593975363275

> <r_i_glide_esite>
0

> <r_i_glide_emodel>
-53.8872794804487

> <r_i_glide_energy>
-38.2363018989563

> <r_i_glide_einternal>
1.68082404136658

> <i_i_glide_confnum>
4

> <i_i_glide_posenum>
270

> <r_i_glide_eff_state_penalty>
0

> <s_user_duplicate_titles>
CHEMBL2695_lig1937

> <s_m_subgroup_title>
dock_pv

> <s_m_subgroupid>
dock_pv

> <b_m_subgroup_collapsed>
1

$$$$
CHEMBL2695_lig1802
                    3D
 Schrodinger Suite 2021-1.
 43 46  0  0  1  0            999 V2000
   11.5220    6.4610    6.3085 Cl  0  0  0  0  0  0
    7.5221    4.3627   11.9089 O   0  0  0  0  0  0
    1.2471    5.8170    7.5519 O   0  0  0  0  0  0
    5.8630    2.3663    4.6861 N   0  0  0  0  0  0
    7.1224    1.9632    4.5440 N   0  0  0  0  0  0
    9.2567    1.9025    5.5351 N   0  0  0  0  0  0
    7.1028    2.9891    6.4631 C   0  0  0  0  0  0
    5.8595    3.0762    5.7834 C   0  0  0  0  0  0
    7.9492    2.3277    5.5632 C   0  0  0  0  0  0
    7.3065    3.4101    7.8794 C   0  0  0  0  0  0
    4.6174    3.7973    6.2023 C   0  0  0  0  0  0
    8.3686    4.1739    8.3696 C   0  0  0  0  0  0
    6.3077    2.9881    8.7582 C   0  0  0  0  0  0
   10.4280    2.6668    5.6421 C   0  0  0  0  0  0
    4.7233    5.1088    6.6719 C   0  0  0  0  0  0
    3.3632    3.1793    6.1495 C   0  0  0  0  0  0
    8.4356    4.4926    9.7214 C   0  0  0  0  0  0
    6.3494    3.3441   10.0914 C   0  0  0  0  0  0
    7.4286    4.0690   10.5802 C   0  0  0  0  0  0
    3.5915    5.7906    7.1090 C   0  0  0  0  0  0
    2.2314    3.8588    6.5977 C   0  0  0  0  0  0
    2.3524    5.1577    7.0866 C   0  0  0  0  0  0
   10.4151    4.0619    5.7256 C   0  0  0  0  0  0
   11.6553    1.9968    5.6898 C   0  0  0  0  0  0
   11.5888    4.7636    6.0030 C   0  0  0  0  0  0
   12.8417    2.7003    5.9088 C   0  0  0  0  0  0
   12.8050    4.0845    6.0846 C   0  0  0  0  0  0
    6.7254    4.2062   12.4298 H   0  0  0  0  0  0
    1.4684    6.6669    7.9384 H   0  0  0  0  0  0
    7.4177    1.4180    3.7445 H   0  0  0  0  0  0
    9.4388    0.9427    5.2846 H   0  0  0  0  0  0
    9.1440    4.5470    7.7350 H   0  0  0  0  0  0
    5.4771    2.3894    8.4123 H   0  0  0  0  0  0
    5.6884    5.5921    6.7092 H   0  0  0  0  0  0
    3.2709    2.1674    5.7824 H   0  0  0  0  0  0
    9.2627    5.0724   10.0980 H   0  0  0  0  0  0
    5.5360    3.0181   10.7089 H   0  0  0  0  0  0
    3.6869    6.7970    7.4886 H   0  0  0  0  0  0
    1.2650    3.3782    6.5725 H   0  0  0  0  0  0
    9.4830    4.5998    5.6361 H   0  0  0  0  0  0
   11.6917    0.9216    5.5958 H   0  0  0  0  0  0
   13.7809    2.1685    5.9652 H   0  0  0  0  0  0
   13.7139    4.6284    6.2969 H   0  0  0  0  0  0
  1 25  1  0  0  0
  2 19  1  0  0  0
  2 28  1  0  0  0
  3 22  1  0  0  0
  3 29  1  0  0  0
  4  5  1  0  0  0
  4  8  2  0  0  0
  5  9  1  0  0  0
  5 30  1  0  0  0
  6  9  1  0  0  0
  6 14  1  0  0  0
  6 31  1  0  0  0
  7  8  1  0  0  0
  7  9  2  0  0  0
  7 10  1  0  0  0
  8 11  1  0  0  0
 10 12  2  0  0  0
 10 13  1  0  0  0
 11 15  2  0  0  0
 11 16  1  0  0  0
 12 17  1  0  0  0
 12 32  1  0  0  0
 13 18  2  0  0  0
 13 33  1  0  0  0
 14 23  1  0  0  0
 14 24  2  0  0  0
 15 20  1  0  0  0
 15 34  1  0  0  0
 16 21  2  0  0  0
 16 35  1  0  0  0
 17 19  2  0  0  0
 17 36  1  0  0  0
 18 19  1  0  0  0
 18 37  1  0  0  0
 20 22  2  0  0  0
 20 38  1  0  0  0
 21 22  1  0  0  0
 21 39  1  0  0  0
 23 25  2  0  0  0
 23 40  1  0  0  0
 24 26  1  0  0  0
 24 41  1  0  0  0
 25 27  1  0  0  0
 26 27  2  0  0  0
 26 42  1  0  0  0
 27 43  1  0  0  0
M  END
> <s_m_entry_id>
47651

> <s_m_entry_name>
dock_pv.184

> <s_m_Source_Path>
/home/csk/Desktop/cluster/DUD-E-result/fak1

> <s_m_Source_File>
dock_pv.maegz

> <i_m_Source_File_Index>
184

> <chembl_id>
CHEMBL1985092

> <chembl_pref_name>
None

> <i_lp_mmshare_version>
53161

> <i_f3d_flags>
0

> <r_lp_tautomer_probability>
0.157399999843178

> <s_lp_Force_Field>
OPLS_2005

> <r_lp_Energy>
21.944553

> <b_lp_Chiralities_Consistent>
1

> <s_lp_Variant>
CHEMBL2695_lig1802-2

> <s_i_glide_gridfile>
glide-grid_3bz3

> <i_i_glide_lignum>
2067

> <i_i_glide_rotatable_bonds>
6

> <r_i_docking_score>
-7.47851890507487

> <r_i_glide_ligand_efficiency>
-0.276982181669439

> <r_i_glide_ligand_efficiency_sa>
-0.83094654409543

> <r_i_glide_ligand_efficiency_ln>
-1.74087590808141

> <r_i_glide_gscore>
-7.47851890507487

> <r_i_glide_lipo>
-3.99320587793713

> <r_i_glide_hbond>
-0.313774525936455

> <r_i_glide_metal>
0

> <r_i_glide_rewards>
-0.933022681818181

> <r_i_glide_evdw>
-37.7738876342773

> <r_i_glide_ecoul>
-5.42583322525024

> <r_i_glide_erotb>
0.542837614198583

> <r_i_glide_esite>
-0.07878406808028

> <r_i_glide_emodel>
-59.0028402124756

> <r_i_glide_energy>
-43.1997208595276

> <r_i_glide_einternal>
3.45146512985229

> <i_i_glide_confnum>
4

> <i_i_glide_posenum>
278

> <r_i_glide_eff_state_penalty>
0

> <s_user_duplicate_titles>
CHEMBL2695_lig1802

> <s_m_subgroup_title>
dock_pv

> <s_m_subgroupid>
dock_pv

> <b_m_subgroup_collapsed>
1

$$$$
CHEMBL2695_lig442
                    3D
 Schrodinger Suite 2021-1.
 46 49  0  0  1  0            999 V2000
    6.3223    4.1333   10.4098 C   0  0  0  0  0  0
    7.9854    3.5858    9.7521 S   0  0  0  0  0  0
    8.5696    2.6434   10.7079 O   0  0  0  0  0  0
    8.7265    4.7667    9.2953 O   0  0  0  0  0  0
    7.5220    2.6304    8.3401 N   0  0  0  0  0  0
    6.8724    3.2227    7.2477 C   0  0  0  0  0  0
    7.5292    4.0548    6.3182 C   0  0  0  0  0  0
    6.8049    4.6119    5.2610 C   0  0  0  0  0  0
    5.4434    4.3490    5.1183 C   0  0  0  0  0  0
    4.7995    3.5084    6.0222 C   0  0  0  0  0  0
    5.5136    2.9388    7.0750 C   0  0  0  0  0  0
    8.8947    4.3628    6.4109 N   0  0  0  0  0  0
   11.2604    3.9424    6.2806 N   0  0  0  0  0  0
   12.3125    3.0863    5.9091 C   0  0  0  0  0  0
   12.0819    1.9210    5.2954 N   0  0  0  0  0  0
   10.7898    1.6840    4.9486 C   0  0  0  0  0  0
    9.7231    2.4262    5.3088 N   0  0  0  0  0  0
    9.9689    3.5629    6.0068 C   0  0  0  0  0  0
   13.5168    3.6035    6.2681 N   0  0  0  0  0  0
   13.2261    4.7632    6.8226 C   0  0  0  0  0  0
   11.8583    5.0378    6.8661 C   0  0  0  0  0  0
   10.4909    0.6311    4.0828 N   0  0  0  0  0  0
   11.2833   -0.1412    3.2195 C   0  0  0  0  0  0
   10.7223   -1.3122    2.7065 C   0  0  0  0  0  0
   11.4706   -2.1462    1.8788 C   0  0  0  0  0  0
   12.7837   -1.8013    1.5522 C   0  0  0  0  0  0
   13.3382   -0.6122    2.0254 C   0  0  0  0  0  0
   12.5878    0.2184    2.8492 C   0  0  0  0  0  0
   13.5817   -2.6743    0.7087 C   0  0  0  0  0  0
   14.2176   -3.3607    0.0270 N   0  0  0  0  0  0
    6.4736    4.6833   11.3367 H   0  0  0  0  0  0
    5.8320    4.7631    9.6719 H   0  0  0  0  0  0
    5.7233    3.2461   10.6009 H   0  0  0  0  0  0
    7.2170    1.6975    8.5743 H   0  0  0  0  0  0
    7.3029    5.2454    4.5424 H   0  0  0  0  0  0
    4.8847    4.7947    4.3093 H   0  0  0  0  0  0
    3.7457    3.2972    5.9084 H   0  0  0  0  0  0
    5.0013    2.2864    7.7689 H   0  0  0  0  0  0
    9.1267    4.9785    7.1776 H   0  0  0  0  0  0
   14.0080    5.4074    7.2057 H   0  0  0  0  0  0
   11.3074    5.8817    7.2549 H   0  0  0  0  0  0
    9.4958    0.5132    3.9617 H   0  0  0  0  0  0
    9.7101   -1.5931    2.9661 H   0  0  0  0  0  0
   11.0255   -3.0610    1.5093 H   0  0  0  0  0  0
   14.3496   -0.3246    1.7736 H   0  0  0  0  0  0
   13.0396    1.1364    3.1929 H   0  0  0  0  0  0
  1  2  1  0  0  0
  1 31  1  0  0  0
  1 32  1  0  0  0
  1 33  1  0  0  0
  2  3  2  0  0  0
  2  4  2  0  0  0
  2  5  1  0  0  0
  5  6  1  0  0  0
  5 34  1  0  0  0
  6  7  1  0  0  0
  6 11  2  0  0  0
  7  8  2  0  0  0
  7 12  1  0  0  0
  8  9  1  0  0  0
  8 35  1  0  0  0
  9 10  2  0  0  0
  9 36  1  0  0  0
 10 11  1  0  0  0
 10 37  1  0  0  0
 11 38  1  0  0  0
 12 18  1  0  0  0
 12 39  1  0  0  0
 13 14  1  0  0  0
 13 18  1  0  0  0
 13 21  1  0  0  0
 14 15  1  0  0  0
 14 19  2  0  0  0
 15 16  2  0  0  0
 16 17  1  0  0  0
 16 22  1  0  0  0
 17 18  2  0  0  0
 19 20  1  0  0  0
 20 21  2  0  0  0
 20 40  1  0  0  0
 21 41  1  0  0  0
 22 23  1  0  0  0
 22 42  1  0  0  0
 23 24  1  0  0  0
 23 28  2  0  0  0
 24 25  2  0  0  0
 24 43  1  0  0  0
 25 26  1  0  0  0
 25 44  1  0  0  0
 26 27  2  0  0  0
 26 29  1  0  0  0
 27 28  1  0  0  0
 27 45  1  0  0  0
 28 46  1  0  0  0
 29 30  3  0  0  0
M  END
> <s_m_entry_id>
47652

> <s_m_entry_name>
dock_pv.185

> <s_m_Source_Path>
/home/csk/Desktop/cluster/DUD-E-result/fak1

> <s_m_Source_File>
dock_pv.maegz

> <i_m_Source_File_Index>
185

> <chembl_id>
CHEMBL3393276

> <chembl_pref_name>
None

> <i_lp_mmshare_version>
53161

> <i_f3d_flags>
0

> <r_lp_tautomer_probability>
1

> <s_lp_Force_Field>
OPLS_2005

> <r_lp_Energy>
12.527883

> <b_lp_Chiralities_Consistent>
1

> <s_lp_Variant>
CHEMBL2695_lig442-1

> <s_i_glide_gridfile>
glide-grid_3bz3

> <i_i_glide_lignum>
495

> <i_i_glide_rotatable_bonds>
6

> <r_i_docking_score>
-7.46715858123018

> <r_i_glide_ligand_efficiency>
-0.248905286041006

> <r_i_glide_ligand_efficiency_sa>
-0.773406594813521

> <r_i_glide_ligand_efficiency_ln>
-1.69661979086476

> <r_i_glide_gscore>
-7.46715858123018

> <r_i_glide_lipo>
-2.2751579938379

> <r_i_glide_hbond>
-0.0375235620348845

> <r_i_glide_metal>
0

> <r_i_glide_rewards>
-2.12613608584609

> <r_i_glide_evdw>
-49.4408836364746

> <r_i_glide_ecoul>
-7.09318876266479

> <r_i_glide_erotb>
0.559815697239208

> <r_i_glide_esite>
-0.0521341405270696

> <r_i_glide_emodel>
-70.4855379801322

> <r_i_glide_energy>
-56.5340723991394

> <r_i_glide_einternal>
19.8465137481689

> <i_i_glide_confnum>
8

> <i_i_glide_posenum>
302

> <r_i_glide_eff_state_penalty>
0

> <s_user_duplicate_titles>
CHEMBL2695_lig442

> <s_m_subgroup_title>
dock_pv

> <s_m_subgroupid>
dock_pv

> <b_m_subgroup_collapsed>
1

$$$$
CHEMBL2695_lig1575
                    3D
 Schrodinger Suite 2021-1.
 53 56  0  0  1  0            999 V2000
   14.2708    2.9969    5.9092 F   0  0  0  0  0  0
   13.1188    6.9133    8.2700 F   0  0  0  0  0  0
    3.5423    2.4163    9.9088 O   0  0  0  0  0  0
   10.3801    0.8066    4.1613 N   0  0  0  0  0  0
   12.4018    1.5629    4.7850 N   0  0  0  0  0  0
    8.2205    1.7369    6.4522 N   0  0  0  0  0  0
   11.3521   -0.9426    2.2440 N   0  0  0  0  0  0
    6.3777    3.2766    6.2345 N   0  0  0  0  0  0
    6.4221    1.5640    7.9110 N   0  0  0  0  0  0
   10.1838    1.8295    5.0679 C   0  0  0  0  0  0
   11.4778    2.2982    5.3797 C   0  0  0  0  0  0
   11.7575    0.7543    3.9181 C   0  0  0  0  0  0
    8.8334    2.3425    5.4072 C   0  0  0  0  0  0
   11.9193    3.5325    6.1343 C   0  0  0  0  0  0
   12.2208   -0.1351    2.9118 C   0  0  0  0  0  0
    9.5219   -0.0368    3.5086 C   0  0  0  0  0  0
   13.2876    3.8345    6.3112 C   0  0  0  0  0  0
   10.9803    4.4279    6.6749 C   0  0  0  0  0  0
    8.2580    3.4225    4.7311 C   0  0  0  0  0  0
   10.0354   -0.8996    2.5486 C   0  0  0  0  0  0
    7.0087    2.2236    6.8235 C   0  0  0  0  0  0
   13.6811   -0.4015    2.5346 C   0  0  0  0  0  0
   13.6747    4.9505    7.0506 C   0  0  0  0  0  0
   11.3841    5.5643    7.3744 C   0  0  0  0  0  0
   12.7312    5.8248    7.5694 C   0  0  0  0  0  0
    7.0161    3.8640    5.1900 C   0  0  0  0  0  0
   14.6546    0.7691    2.7231 C   0  0  0  0  0  0
    4.9841    1.6488    8.1858 C   0  0  0  0  0  0
    4.4862    2.9071    8.9680 C   0  0  0  0  0  0
    3.6155    3.8448    8.1091 C   0  0  0  0  0  0
    5.5525    3.6142    9.8310 C   0  0  0  0  0  0
    3.9213    2.5133   10.8009 H   0  0  0  0  0  0
    6.8154    0.6414    8.0233 H   0  0  0  0  0  0
    8.4674    0.0647    3.7204 H   0  0  0  0  0  0
    9.9221    4.2610    6.5845 H   0  0  0  0  0  0
    8.7580    3.9069    3.9089 H   0  0  0  0  0  0
    9.3810   -1.5531    1.9884 H   0  0  0  0  0  0
   14.0419   -1.2540    3.1092 H   0  0  0  0  0  0
   13.7277   -0.7149    1.4900 H   0  0  0  0  0  0
   14.7185    5.1415    7.2137 H   0  0  0  0  0  0
   10.6617    6.2434    7.7893 H   0  0  0  0  0  0
    6.5161    4.7023    4.7269 H   0  0  0  0  0  0
   15.6483    0.5075    2.3590 H   0  0  0  0  0  0
   14.3217    1.6486    2.1748 H   0  0  0  0  0  0
   14.7674    1.0422    3.7723 H   0  0  0  0  0  0
    4.6981    0.7342    8.7081 H   0  0  0  0  0  0
    4.4342    1.5524    7.2478 H   0  0  0  0  0  0
    4.2142    4.3682    7.3650 H   0  0  0  0  0  0
    3.1204    4.6100    8.7080 H   0  0  0  0  0  0
    2.8361    3.3015    7.5739 H   0  0  0  0  0  0
    6.2753    4.1304    9.1991 H   0  0  0  0  0  0
    5.1239    4.3624   10.4976 H   0  0  0  0  0  0
    6.1083    2.9039   10.4437 H   0  0  0  0  0  0
  1 17  1  0  0  0
  2 25  1  0  0  0
  3 29  1  0  0  0
  3 32  1  0  0  0
  4 10  1  0  0  0
  4 12  1  0  0  0
  4 16  1  0  0  0
  5 11  1  0  0  0
  5 12  2  0  0  0
  6 13  1  0  0  0
  6 21  2  0  0  0
  7 15  2  0  0  0
  7 20  1  0  0  0
  8 21  1  0  0  0
  8 26  2  0  0  0
  9 21  1  0  0  0
  9 28  1  0  0  0
  9 33  1  0  0  0
 10 11  2  0  0  0
 10 13  1  0  0  0
 11 14  1  0  0  0
 12 15  1  0  0  0
 13 19  2  0  0  0
 14 17  1  0  0  0
 14 18  2  0  0  0
 15 22  1  0  0  0
 16 20  2  0  0  0
 16 34  1  0  0  0
 17 23  2  0  0  0
 18 24  1  0  0  0
 18 35  1  0  0  0
 19 26  1  0  0  0
 19 36  1  0  0  0
 20 37  1  0  0  0
 22 27  1  0  0  0
 22 38  1  0  0  0
 22 39  1  0  0  0
 23 25  1  0  0  0
 23 40  1  0  0  0
 24 25  2  0  0  0
 24 41  1  0  0  0
 26 42  1  0  0  0
 27 43  1  0  0  0
 27 44  1  0  0  0
 27 45  1  0  0  0
 28 29  1  0  0  0
 28 46  1  0  0  0
 28 47  1  0  0  0
 29 30  1  0  0  0
 29 31  1  0  0  0
 30 48  1  0  0  0
 30 49  1  0  0  0
 30 50  1  0  0  0
 31 51  1  0  0  0
 31 52  1  0  0  0
 31 53  1  0  0  0
M  END
> <s_m_entry_id>
47653

> <s_m_entry_name>
dock_pv.186

> <s_m_Source_Path>
/home/csk/Desktop/cluster/DUD-E-result/fak1

> <s_m_Source_File>
dock_pv.maegz

> <i_m_Source_File_Index>
186

> <chembl_id>
CHEMBL2001547

> <chembl_pref_name>
None

> <i_lp_mmshare_version>
53161

> <i_f3d_flags>
0

> <r_lp_tautomer_probability>
0.999999987636

> <s_lp_Force_Field>
OPLS_2005

> <r_lp_Energy>
15.356994

> <b_lp_Chiralities_Consistent>
1

> <s_lp_Variant>
CHEMBL2695_lig1575-1

> <s_i_glide_gridfile>
glide-grid_3bz3

> <i_i_glide_lignum>
1738

> <i_i_glide_rotatable_bonds>
7

> <r_i_docking_score>
-7.46492889433121

> <r_i_glide_ligand_efficiency>
-0.240804157881652

> <r_i_glide_ligand_efficiency_sa>
-0.756457521718935

> <r_i_glide_ligand_efficiency_ln>
-1.68357023826775

> <r_i_glide_gscore>
-7.46492889433121

> <r_i_glide_lipo>
-3.34392292656537

> <r_i_glide_hbond>
-0.32

> <r_i_glide_metal>
0

> <r_i_glide_rewards>
-1.49422827510142

> <r_i_glide_evdw>
-33.6722259521484

> <r_i_glide_ecoul>
-7.5512957572937

> <r_i_glide_erotb>
0.550315780436698

> <r_i_glide_esite>
-0.040787811899639

> <r_i_glide_emodel>
-42.4509502240568

> <r_i_glide_energy>
-41.2235217094421

> <r_i_glide_einternal>
21.0570125579834

> <i_i_glide_confnum>
35

> <i_i_glide_posenum>
298

> <r_i_glide_eff_state_penalty>
0

> <s_user_duplicate_titles>
CHEMBL2695_lig1575

> <s_m_subgroup_title>
dock_pv

> <s_m_subgroupid>
dock_pv

> <b_m_subgroup_collapsed>
1

$$$$
CHEMBL2695_lig103
                    3D
 Schrodinger Suite 2021-1.
 41 44  0  0  1  0            999 V2000
    9.2034    2.3169    5.6130 C   0  0  0  0  0  0
    9.9575    3.3754    6.0300 N   0  0  0  0  0  0
   10.9879    0.9870    4.9792 C   0  0  0  0  0  0
   11.8779    1.9629    5.4317 C   0  0  0  0  0  0
   11.2857    3.1633    5.9266 C   0  0  0  0  0  0
   12.3364    3.9992    6.3089 N   0  0  0  0  0  0
   13.5216    3.3401    6.0554 C   0  0  0  0  0  0
   13.2946    2.0987    5.5096 C   0  0  0  0  0  0
    7.8241    2.3060    5.8059 N   0  0  0  0  0  0
   12.2759    5.2682    6.9092 C   0  0  0  0  0  0
   13.0387    5.5638    8.0482 C   0  0  0  0  0  0
   12.9305    6.8373    8.6087 C   0  0  0  0  0  0
   12.0889    7.7770    8.0105 C   0  0  0  0  0  0
   11.4025    7.4181    6.8533 C   0  0  0  0  0  0
   11.4739    6.1794    6.3095 N   0  0  0  0  0  0
    6.9126    3.3119    6.1381 C   0  0  0  0  0  0
    6.1049    3.2065    7.2877 C   0  0  0  0  0  0
    5.0860    4.1421    7.4975 C   0  0  0  0  0  0
    4.8674    5.1634    6.5764 C   0  0  0  0  0  0
    5.6831    5.2779    5.4523 C   0  0  0  0  0  0
    6.7123    4.3627    5.2402 C   0  0  0  0  0  0
    6.3065    2.0966    8.3186 C   0  0  0  0  0  0
    9.6548    1.1631    5.0766 N   0  0  0  0  0  0
    7.4067    2.4420    9.3341 C   0  0  0  0  0  0
   11.3281    0.0574    4.5501 H   0  0  0  0  0  0
   14.4523    3.8300    6.3020 H   0  0  0  0  0  0
   14.0504    1.3893    5.2059 H   0  0  0  0  0  0
    7.3952    1.4348    5.5197 H   0  0  0  0  0  0
   13.6851    4.8263    8.5014 H   0  0  0  0  0  0
   13.4914    7.0926    9.4969 H   0  0  0  0  0  0
   11.9590    8.7604    8.4321 H   0  0  0  0  0  0
   10.7490    8.1210    6.3576 H   0  0  0  0  0  0
    4.4573    4.0789    8.3745 H   0  0  0  0  0  0
    4.0713    5.8752    6.7415 H   0  0  0  0  0  0
    5.5135    6.0727    4.7401 H   0  0  0  0  0  0
    7.3266    4.4399    4.3548 H   0  0  0  0  0  0
    5.3719    1.8966    8.8463 H   0  0  0  0  0  0
    6.5405    1.1617    7.8073 H   0  0  0  0  0  0
    7.6456    1.5782    9.9556 H   0  0  0  0  0  0
    8.3218    2.7617    8.8356 H   0  0  0  0  0  0
    7.0934    3.2527    9.9922 H   0  0  0  0  0  0
  1  2  2  0  0  0
  1 23  1  0  0  0
  1  9  1  0  0  0
  2  5  1  0  0  0
  3  4  1  0  0  0
  3 23  2  0  0  0
  3 25  1  0  0  0
  4  8  1  0  0  0
  4  5  2  0  0  0
  5  6  1  0  0  0
  6  7  1  0  0  0
  6 10  1  0  0  0
  7  8  2  0  0  0
  7 26  1  0  0  0
  8 27  1  0  0  0
  9 16  1  0  0  0
  9 28  1  0  0  0
 10 11  2  0  0  0
 10 15  1  0  0  0
 11 12  1  0  0  0
 11 29  1  0  0  0
 12 13  2  0  0  0
 12 30  1  0  0  0
 13 14  1  0  0  0
 13 31  1  0  0  0
 14 15  2  0  0  0
 14 32  1  0  0  0
 16 17  2  0  0  0
 16 21  1  0  0  0
 17 18  1  0  0  0
 17 22  1  0  0  0
 18 19  2  0  0  0
 18 33  1  0  0  0
 19 20  1  0  0  0
 19 34  1  0  0  0
 20 21  2  0  0  0
 20 35  1  0  0  0
 21 36  1  0  0  0
 22 24  1  0  0  0
 22 37  1  0  0  0
 22 38  1  0  0  0
 24 39  1  0  0  0
 24 40  1  0  0  0
 24 41  1  0  0  0
M  END
> <s_m_entry_id>
47654

> <s_m_entry_name>
dock_pv.187

> <s_m_Source_Path>
/home/csk/Desktop/cluster/DUD-E-result/fak1

> <s_m_Source_File>
dock_pv.maegz

> <i_m_Source_File_Index>
187

> <chembl_id>
CHEMBL382637

> <chembl_pref_name>
None

> <i_lp_mmshare_version>
53161

> <i_f3d_flags>
0

> <r_lp_tautomer_probability>
1

> <s_lp_Force_Field>
OPLS_2005

> <r_lp_Energy>
12.70785

> <b_lp_Chiralities_Consistent>
1

> <s_lp_Variant>
CHEMBL2695_lig103-1

> <s_i_glide_gridfile>
glide-grid_3bz3

> <i_i_glide_lignum>
125

> <i_i_glide_rotatable_bonds>
4

> <r_i_docking_score>
-7.46177485472817

> <r_i_glide_ligand_efficiency>
-0.310907285613674

> <r_i_glide_ligand_efficiency_sa>
-0.896811797213489

> <r_i_glide_ligand_efficiency_ln>
-1.78594512127355

> <r_i_glide_gscore>
-7.46177485472817

> <r_i_glide_lipo>
-3.41598140584891

> <r_i_glide_hbond>
0

> <r_i_glide_metal>
0

> <r_i_glide_rewards>
-2.49571689049488

> <r_i_glide_evdw>
-41.5853118896484

> <r_i_glide_ecoul>
0.0569211728870869

> <r_i_glide_erotb>
0.561083531940401

> <r_i_glide_esite>
-0.0404326717754246

> <r_i_glide_emodel>
-55.7402871117348

> <r_i_glide_energy>
-41.5283907167614

> <r_i_glide_einternal>
6.19688987731934

> <i_i_glide_confnum>
13

> <i_i_glide_posenum>
80

> <r_i_glide_eff_state_penalty>
0

> <s_user_duplicate_titles>
CHEMBL2695_lig103,344768

> <s_m_subgroup_title>
dock_pv

> <s_m_subgroupid>
dock_pv

> <b_m_subgroup_collapsed>
1

$$$$
CHEMBL2695_lig570
                    3D
 Schrodinger Suite 2021-1.
 53 56  0  0  1  0            999 V2000
   10.4519   -1.6985    0.9133 C   0  0  0  0  0  0
   11.8237   -1.3416    1.0547 O   0  0  0  0  0  0
   12.1987   -0.5365    2.1130 C   0  0  0  0  0  0
   11.3225   -0.0773    3.1090 C   0  0  0  0  0  0
   11.7860    0.7648    4.1144 C   0  0  0  0  0  0
   13.1329    1.1630    4.1464 C   0  0  0  0  0  0
   13.6784    2.0406    5.1090 N   0  0  0  0  0  0
   13.0904    3.0531    5.8310 C   0  0  0  0  0  0
   11.7837    3.2155    5.9089 N   0  0  0  0  0  0
   11.6488    4.2975    6.7080 C   0  0  0  0  0  0
   10.5219    4.8862    7.3171 C   0  0  0  0  0  0
    9.2520    4.3624    6.9922 N   0  0  0  0  0  0
    8.0189    4.5852    7.7475 C   0  0  0  0  0  0
    6.8395    4.7027    6.7347 C   0  0  0  0  0  0
    6.4502    3.3400    6.1310 C   0  0  0  0  0  0
    6.1541    2.3649    7.2039 N   0  0  1  0  0  0
    7.2989    2.1111    8.1140 C   0  0  0  0  0  0
    7.8131    3.4262    8.7655 C   0  0  0  0  0  0
    4.4910    2.2761    7.8368 S   0  0  0  0  0  0
    3.5815    2.8660    6.8492 O   0  0  0  0  0  0
    4.2740    0.9054    8.3092 O   0  0  0  0  0  0
    4.4777    3.3613    9.3734 C   0  0  0  0  0  0
   10.7698    5.8908    8.2725 C   0  0  0  0  0  0
   12.0605    6.3625    8.5357 C   0  0  0  0  0  0
   13.1567    5.7922    7.8915 C   0  0  0  0  0  0
   12.9259    4.7627    7.0231 N   0  0  0  0  0  0
   13.8439    3.9523    6.4460 N   0  0  0  0  0  0
   14.0059    0.6771    3.1703 C   0  0  0  0  0  0
   13.5415   -0.1653    2.1643 C   0  0  0  0  0  0
   10.3279   -2.3089    0.0191 H   0  0  0  0  0  0
    9.8186   -0.8168    0.8003 H   0  0  0  0  0  0
   10.1010   -2.2851    1.7637 H   0  0  0  0  0  0
   10.2764   -0.3451    3.1088 H   0  0  0  0  0  0
   11.0846    1.0981    4.8632 H   0  0  0  0  0  0
   14.6803    1.9446    5.1731 H   0  0  0  0  0  0
    9.2517    3.5603    6.3749 H   0  0  0  0  0  0
    8.0932    5.5136    8.3107 H   0  0  0  0  0  0
    5.9708    5.1617    7.2047 H   0  0  0  0  0  0
    7.1012    5.3667    5.9092 H   0  0  0  0  0  0
    5.6097    3.3934    5.4379 H   0  0  0  0  0  0
    7.2959    2.9549    5.5593 H   0  0  0  0  0  0
    7.0224    1.3492    8.8443 H   0  0  0  0  0  0
    8.0971    1.6855    7.5063 H   0  0  0  0  0  0
    8.7442    3.2175    9.2940 H   0  0  0  0  0  0
    7.1328    3.7570    9.5466 H   0  0  0  0  0  0
    3.4600    3.4034    9.7571 H   0  0  0  0  0  0
    5.1265    2.9142   10.1247 H   0  0  0  0  0  0
    4.8110    4.3632    9.1123 H   0  0  0  0  0  0
    9.9697    6.2866    8.8721 H   0  0  0  0  0  0
   12.2137    7.1404    9.2706 H   0  0  0  0  0  0
   14.1884    6.0590    8.0790 H   0  0  0  0  0  0
   15.0507    0.9522    3.1861 H   0  0  0  0  0  0
   14.2263   -0.5272    1.4124 H   0  0  0  0  0  0
  1  2  1  0  0  0
  1 30  1  0  0  0
  1 31  1  0  0  0
  1 32  1  0  0  0
  2  3  1  0  0  0
  3  4  2  0  0  0
  3 29  1  0  0  0
  4  5  1  0  0  0
  4 33  1  0  0  0
  5  6  2  0  0  0
  5 34  1  0  0  0
  6  7  1  0  0  0
  6 28  1  0  0  0
  7  8  1  0  0  0
  7 35  1  0  0  0
  8  9  1  0  0  0
  8 27  2  0  0  0
  9 10  2  0  0  0
 10 11  1  0  0  0
 10 26  1  0  0  0
 11 12  1  0  0  0
 11 23  2  0  0  0
 12 13  1  0  0  0
 12 36  1  0  0  0
 13 14  1  0  0  0
 13 18  1  0  0  0
 13 37  1  0  0  0
 14 15  1  0  0  0
 14 38  1  0  0  0
 14 39  1  0  0  0
 15 16  1  0  0  0
 15 40  1  0  0  0
 15 41  1  0  0  0
 16 17  1  0  0  0
 16 19  1  0  0  0
 17 18  1  0  0  0
 17 42  1  0  0  0
 17 43  1  0  0  0
 18 44  1  0  0  0
 18 45  1  0  0  0
 19 20  2  0  0  0
 19 21  2  0  0  0
 19 22  1  0  0  0
 22 46  1  0  0  0
 22 47  1  0  0  0
 22 48  1  0  0  0
 23 24  1  0  0  0
 23 49  1  0  0  0
 24 25  2  0  0  0
 24 50  1  0  0  0
 25 26  1  0  0  0
 25 51  1  0  0  0
 26 27  1  0  0  0
 28 29  2  0  0  0
 28 52  1  0  0  0
 29 53  1  0  0  0
M  END
> <s_m_entry_id>
47655

> <s_m_entry_name>
dock_pv.188

> <s_m_Source_Path>
/home/csk/Desktop/cluster/DUD-E-result/fak1

> <s_m_Source_File>
dock_pv.maegz

> <i_m_Source_File_Index>
188

> <chembl_id>
CHEMBL3642279

> <chembl_pref_name>
None

> <i_lp_mmshare_version>
53161

> <i_f3d_flags>
0

> <r_lp_tautomer_probability>
1

> <s_lp_Force_Field>
OPLS_2005

> <r_lp_Energy>
16.73694

> <b_lp_Chiralities_Consistent>
1

> <s_lp_Variant>
CHEMBL2695_lig570-1

> <s_i_glide_gridfile>
glide-grid_3bz3

> <i_i_glide_lignum>
624

> <i_i_glide_rotatable_bonds>
6

> <r_i_docking_score>
-7.46176549604273

> <r_i_glide_ligand_efficiency>
-0.257302258484232

> <r_i_glide_ligand_efficiency_sa>
-0.790514057140777

> <r_i_glide_ligand_efficiency_ln>
-1.70855508454664

> <r_i_glide_gscore>
-7.46176549604273

> <r_i_glide_lipo>
-2.83272716536287

> <r_i_glide_hbond>
-0.154174530075962

> <r_i_glide_metal>
0

> <r_i_glide_rewards>
-2.55051646812993

> <r_i_glide_evdw>
-34.7631034851074

> <r_i_glide_ecoul>
-4.01581621170044

> <r_i_glide_erotb>
0.455558360705016

> <r_i_glide_esite>
-0.0393780871685513

> <r_i_glide_emodel>
-54.7511325511546

> <r_i_glide_energy>
-38.7789196968079

> <r_i_glide_einternal>
2.20063638687134

> <i_i_glide_confnum>
3

> <i_i_glide_posenum>
376

> <r_i_glide_eff_state_penalty>
0

> <s_user_duplicate_titles>
CHEMBL2695_lig570

> <s_m_subgroup_title>
dock_pv

> <s_m_subgroupid>
dock_pv

> <b_m_subgroup_collapsed>
1

$$$$
CHEMBL2695_lig669
                    3D
 Schrodinger Suite 2021-1.
 54 58  0  0  1  0            999 V2000
    4.8685    3.1296    5.3671 F   0  0  0  0  0  0
    5.1837    3.3616    6.6448 C   0  0  0  0  0  0
    4.9315    2.2552    7.3476 F   0  0  0  0  0  0
    4.3988    4.3428    7.0936 F   0  0  0  0  0  0
    6.6459    3.7713    6.8201 C   0  0  0  0  0  0
    7.1568    3.9631    8.1070 C   0  0  0  0  0  0
    8.4789    4.3634    8.2841 C   0  0  0  0  0  0
    9.3088    4.5876    7.1793 C   0  0  0  0  0  0
    8.7994    4.3628    5.8951 C   0  0  0  0  0  0
    7.4797    3.9615    5.7136 C   0  0  0  0  0  0
   10.7174    5.0355    7.3625 C   0  0  0  0  0  0
   11.0807    6.0335    8.2837 C   0  0  0  0  0  0
   12.4046    6.3967    8.5153 C   0  0  0  0  0  0
   13.4222    5.7253    7.8520 C   0  0  0  0  0  0
   13.0867    4.7323    6.9792 N   0  0  0  0  0  0
   13.9221    3.8624    6.3750 N   0  0  0  0  0  0
   13.0875    3.0241    5.7902 C   0  0  0  0  0  0
   13.5751    1.9631    5.0724 N   0  0  0  0  0  0
   12.8711    1.1630    4.1996 C   0  0  0  0  0  0
   13.3839    0.4447    3.1064 C   0  0  0  0  0  0
   12.4863   -0.2856    2.4797 N   0  0  0  0  0  0
   11.3376   -0.0381    3.1264 N   0  0  0  0  0  0
   10.1113   -0.7629    2.8061 C   0  0  0  0  0  0
    9.9187   -0.9890    1.2854 C   0  0  0  0  0  0
    8.6604   -1.6394    0.9063 N   0  0  0  0  0  0
    8.4039   -2.9531    1.4814 C   0  0  0  0  0  0
    6.9536   -3.2627    1.1100 C   0  0  0  0  0  0
    6.2984   -1.8853    0.9601 C   0  0  0  0  0  0
    7.4403   -0.8920    1.1871 C   0  0  0  0  0  0
   11.5217    0.8152    4.1822 C   0  0  0  0  0  0
   11.7972    3.2771    5.9090 N   0  0  0  0  0  0
   11.7700    4.3629    6.7090 C   0  0  0  0  0  0
    6.5255    3.8086    8.9712 H   0  0  0  0  0  0
    8.8540    4.5068    9.2863 H   0  0  0  0  0  0
    9.4262    4.5101    5.0272 H   0  0  0  0  0  0
    7.1130    3.8049    4.7093 H   0  0  0  0  0  0
   10.3239    6.5211    8.8730 H   0  0  0  0  0  0
   12.6409    7.1642    9.2396 H   0  0  0  0  0  0
   14.4637    5.8866    8.0369 H   0  0  0  0  0  0
   14.5757    1.8341    5.1085 H   0  0  0  0  0  0
   14.4188    0.4372    2.7979 H   0  0  0  0  0  0
    9.2784   -0.1925    3.2179 H   0  0  0  0  0  0
   10.1484   -1.7078    3.3465 H   0  0  0  0  0  0
   10.7313   -1.6033    0.8955 H   0  0  0  0  0  0
    9.9758   -0.0370    0.7576 H   0  0  0  0  0  0
    8.5708   -2.9914    2.5585 H   0  0  0  0  0  0
    9.1118   -3.6668    1.0584 H   0  0  0  0  0  0
    6.4712   -3.8558    1.8882 H   0  0  0  0  0  0
    6.9041   -3.8344    0.1828 H   0  0  0  0  0  0
    5.8603   -1.7596   -0.0308 H   0  0  0  0  0  0
    5.5074   -1.7370    1.6969 H   0  0  0  0  0  0
    7.3898   -0.0364    0.5137 H   0  0  0  0  0  0
    7.4141   -0.4619    2.1891 H   0  0  0  0  0  0
   10.7005    1.0844    4.8310 H   0  0  0  0  0  0
  1  2  1  0  0  0
  2  3  1  0  0  0
  2  4  1  0  0  0
  2  5  1  0  0  0
  5  6  2  0  0  0
  5 10  1  0  0  0
  6  7  1  0  0  0
  6 33  1  0  0  0
  7  8  2  0  0  0
  7 34  1  0  0  0
  8  9  1  0  0  0
  8 11  1  0  0  0
  9 10  2  0  0  0
  9 35  1  0  0  0
 10 36  1  0  0  0
 11 12  2  0  0  0
 11 32  1  0  0  0
 12 13  1  0  0  0
 12 37  1  0  0  0
 13 14  2  0  0  0
 13 38  1  0  0  0
 14 15  1  0  0  0
 14 39  1  0  0  0
 15 16  1  0  0  0
 15 32  1  0  0  0
 16 17  2  0  0  0
 17 18  1  0  0  0
 17 31  1  0  0  0
 18 19  1  0  0  0
 18 40  1  0  0  0
 19 20  1  0  0  0
 19 30  2  0  0  0
 20 21  2  0  0  0
 20 41  1  0  0  0
 21 22  1  0  0  0
 22 23  1  0  0  0
 22 30  1  0  0  0
 23 24  1  0  0  0
 23 42  1  0  0  0
 23 43  1  0  0  0
 24 25  1  0  0  0
 24 44  1  0  0  0
 24 45  1  0  0  0
 25 26  1  0  0  0
 25 29  1  0  0  0
 26 27  1  0  0  0
 26 46  1  0  0  0
 26 47  1  0  0  0
 27 28  1  0  0  0
 27 48  1  0  0  0
 27 49  1  0  0  0
 28 29  1  0  0  0
 28 50  1  0  0  0
 28 51  1  0  0  0
 29 52  1  0  0  0
 29 53  1  0  0  0
 30 54  1  0  0  0
 31 32  2  0  0  0
M  END
> <s_m_entry_id>
47656

> <s_m_entry_name>
dock_pv.189

> <s_m_Source_Path>
/home/csk/Desktop/cluster/DUD-E-result/fak1

> <s_m_Source_File>
dock_pv.maegz

> <i_m_Source_File_Index>
189

> <chembl_id>
CHEMBL3644964

> <chembl_pref_name>
None

> <i_lp_mmshare_version>
53161

> <i_f3d_flags>
0

> <r_lp_tautomer_probability>
1

> <s_lp_Force_Field>
OPLS_2005

> <r_lp_Energy>
33.144936

> <b_lp_Chiralities_Consistent>
1

> <s_lp_Variant>
CHEMBL2695_lig669-1

> <s_i_glide_gridfile>
glide-grid_3bz3

> <i_i_glide_lignum>
723

> <i_i_glide_rotatable_bonds>
7

> <r_i_docking_score>
-7.4589569072135

> <r_i_glide_ligand_efficiency>
-0.233092403350422

> <r_i_glide_ligand_efficiency_sa>
-0.740022251713604

> <r_i_glide_ligand_efficiency_ln>
-1.67026377501124

> <r_i_glide_gscore>
-7.4589569072135

> <r_i_glide_lipo>
-2.68773836134013

> <r_i_glide_hbond>
-0.235766970724922

> <r_i_glide_metal>
0

> <r_i_glide_rewards>
-2.74521418674115

> <r_i_glide_evdw>
-37.1335792541504

> <r_i_glide_ecoul>
-3.63218855857849

> <r_i_glide_erotb>
0.614997777411301

> <r_i_glide_esite>
-0.00372791932430085

> <r_i_glide_emodel>
-51.6744478327437

> <r_i_glide_energy>
-40.7657678127289

> <r_i_glide_einternal>
11.356333732605

> <i_i_glide_confnum>
7

> <i_i_glide_posenum>
19

> <r_i_glide_eff_state_penalty>
0

> <s_user_duplicate_titles>
CHEMBL2695_lig669

> <s_m_subgroup_title>
dock_pv

> <s_m_subgroupid>
dock_pv

> <b_m_subgroup_collapsed>
1

$$$$
CHEMBL2695_lig95
                    3D
 Schrodinger Suite 2021-1.
 38 41  0  0  1  0            999 V2000
    9.4372    1.2459    5.1533 N   0  0  0  0  0  0
    9.1323    2.3543    5.8682 C   0  0  0  0  0  0
   10.0038    3.3135    6.2889 N   0  0  0  0  0  0
   10.7440    0.9901    4.9153 C   0  0  0  0  0  0
   11.7444    1.8603    5.3645 C   0  0  0  0  0  0
   11.2907    3.0473    6.0124 C   0  0  0  0  0  0
   12.4156    3.8200    6.3083 N   0  0  0  0  0  0
   13.5225    3.0971    5.9091 C   0  0  0  0  0  0
   13.1694    1.8958    5.3404 C   0  0  0  0  0  0
   12.4813    5.0677    6.9646 C   0  0  0  0  0  0
   13.4924    5.3165    7.9067 C   0  0  0  0  0  0
   13.4766    6.5252    8.5956 C   0  0  0  0  0  0
   12.4723    7.4493    8.3227 C   0  0  0  0  0  0
   11.5222    7.1494    7.3498 C   0  0  0  0  0  0
   11.5105    5.9747    6.6749 N   0  0  0  0  0  0
    7.7828    2.4318    6.2183 N   0  0  0  0  0  0
    7.1209    3.0123    7.3120 C   0  0  0  0  0  0
    7.7831    3.4977    8.4500 C   0  0  0  0  0  0
    7.0580    3.9641    9.5496 C   0  0  0  0  0  0
    5.6646    3.9596    9.5071 C   0  0  0  0  0  0
    4.9963    3.4979    8.3761 C   0  0  0  0  0  0
    5.7232    3.0217    7.2854 C   0  0  0  0  0  0
    7.7713    4.4962   10.7766 C   0  0  0  0  0  0
   10.9758    0.0824    4.3792 H   0  0  0  0  0  0
   14.5045    3.5107    6.0662 H   0  0  0  0  0  0
   13.8576    1.1620    4.9451 H   0  0  0  0  0  0
   14.2567    4.5881    8.1340 H   0  0  0  0  0  0
   14.2319    6.7392    9.3386 H   0  0  0  0  0  0
   12.4316    8.3667    8.8773 H   0  0  0  0  0  0
   10.7347    7.8490    7.1089 H   0  0  0  0  0  0
    7.2552    1.6846    5.7867 H   0  0  0  0  0  0
    8.8596    3.4914    8.5071 H   0  0  0  0  0  0
    5.0958    4.3225   10.3518 H   0  0  0  0  0  0
    3.9173    3.5015    8.3484 H   0  0  0  0  0  0
    5.1950    2.6442    6.4219 H   0  0  0  0  0  0
    7.1867    5.2911   11.2435 H   0  0  0  0  0  0
    8.7336    4.9323   10.5127 H   0  0  0  0  0  0
    7.9220    3.6997   11.5062 H   0  0  0  0  0  0
  1  2  2  0  0  0
  1  4  1  0  0  0
  2  3  1  0  0  0
  2 16  1  0  0  0
  3  6  2  0  0  0
  4  5  2  0  0  0
  4 24  1  0  0  0
  5  9  1  0  0  0
  5  6  1  0  0  0
  6  7  1  0  0  0
  7  8  1  0  0  0
  7 10  1  0  0  0
  8  9  2  0  0  0
  8 25  1  0  0  0
  9 26  1  0  0  0
 10 11  2  0  0  0
 10 15  1  0  0  0
 11 12  1  0  0  0
 11 27  1  0  0  0
 12 13  2  0  0  0
 12 28  1  0  0  0
 13 14  1  0  0  0
 13 29  1  0  0  0
 14 15  2  0  0  0
 14 30  1  0  0  0
 16 17  1  0  0  0
 16 31  1  0  0  0
 17 18  2  0  0  0
 17 22  1  0  0  0
 18 19  1  0  0  0
 18 32  1  0  0  0
 19 20  2  0  0  0
 19 23  1  0  0  0
 20 21  1  0  0  0
 20 33  1  0  0  0
 21 22  2  0  0  0
 21 34  1  0  0  0
 22 35  1  0  0  0
 23 36  1  0  0  0
 23 37  1  0  0  0
 23 38  1  0  0  0
M  END
> <s_m_entry_id>
47657

> <s_m_entry_name>
dock_pv.190

> <s_m_Source_Path>
/home/csk/Desktop/cluster/DUD-E-result/fak1

> <s_m_Source_File>
dock_pv.maegz

> <i_m_Source_File_Index>
190

> <chembl_id>
CHEMBL205942

> <chembl_pref_name>
None

> <i_lp_mmshare_version>
53161

> <i_f3d_flags>
0

> <r_lp_tautomer_probability>
1

> <s_lp_Force_Field>
OPLS_2005

> <r_lp_Energy>
11.637004

> <b_lp_Chiralities_Consistent>
1

> <s_lp_Variant>
CHEMBL2695_lig95-1

> <s_i_glide_gridfile>
glide-grid_3bz3

> <i_i_glide_lignum>
117

> <i_i_glide_rotatable_bonds>
3

> <r_i_docking_score>
-7.45638517649677

> <r_i_glide_ligand_efficiency>
-0.324190659847686

> <r_i_glide_ligand_efficiency_sa>
-0.921955111753529

> <r_i_glide_ligand_efficiency_ln>
-1.80302154643964

> <r_i_glide_gscore>
-7.45638517649677

> <r_i_glide_lipo>
-3.46245891953666

> <r_i_glide_hbond>
0

> <r_i_glide_metal>
0

> <r_i_glide_rewards>
-2.6030277569302

> <r_i_glide_evdw>
-41.8926887512207

> <r_i_glide_ecoul>
0.815882563591003

> <r_i_glide_erotb>
0.607722040883985

> <r_i_glide_esite>
-0.0263684878915058

> <r_i_glide_emodel>
-54.0074463295084

> <r_i_glide_energy>
-41.0768061876297

> <r_i_glide_einternal>
8.25722503662109

> <i_i_glide_confnum>
7

> <i_i_glide_posenum>
222

> <r_i_glide_eff_state_penalty>
0

> <s_user_duplicate_titles>
CHEMBL2695_lig95,344308

> <s_m_subgroup_title>
dock_pv

> <s_m_subgroupid>
dock_pv

> <b_m_subgroup_collapsed>
1

$$$$
CHEMBL2695_lig293
                    3D
 Schrodinger Suite 2021-1.
 39 42  0  0  1  0            999 V2000
    5.5753    3.2921    9.0006 C   0  0  0  0  0  0
    5.2867    2.5110    7.8807 C   0  0  0  0  0  0
    6.1922    2.3630    6.8256 C   0  0  0  0  0  0
    6.7929    3.9630    9.1180 C   0  0  0  0  0  0
    7.7226    3.8319    8.0762 C   0  0  0  0  0  0
    7.4141    3.0379    6.9460 C   0  0  0  0  0  0
    8.5394    3.1262    6.1457 N   0  0  0  0  0  0
    9.4786    3.8629    6.8636 C   0  0  0  0  0  0
    8.9761    4.3630    7.9718 N   0  0  0  0  0  0
   10.9432    4.0146    6.5503 C   0  0  0  0  0  0
   11.6813    5.1046    7.0368 C   0  0  0  0  0  0
   13.0692    5.0455    6.9033 C   0  0  0  0  0  0
   13.6975    3.9976    6.3103 N   0  0  0  0  0  0
   12.9115    3.0090    5.8175 C   0  0  0  0  0  0
   11.5539    2.9765    5.9090 N   0  0  0  0  0  0
   13.6103    2.0206    5.1090 N   0  0  0  0  0  0
   13.2744    1.1630    4.0460 C   0  0  0  0  0  0
   11.9623    0.7630    3.7526 C   0  0  0  0  0  0
   11.7081   -0.1342    2.7133 C   0  0  0  0  0  0
   12.7601   -0.6431    1.9543 C   0  0  0  0  0  0
   14.0707   -0.2776    2.2490 C   0  0  0  0  0  0
   14.3220    0.6280    3.2828 C   0  0  0  0  0  0
    8.7112    2.4323    4.8756 C   0  0  0  0  0  0
   15.1032   -0.8370    1.5383 O   0  0  0  0  0  0
    4.8454    3.3731    9.7949 H   0  0  0  0  0  0
    4.3365    1.9990    7.8315 H   0  0  0  0  0  0
    5.9619    1.7374    5.9732 H   0  0  0  0  0  0
    7.0122    4.5602    9.9906 H   0  0  0  0  0  0
   11.2043    5.9239    7.5545 H   0  0  0  0  0  0
   13.7023    5.8322    7.2906 H   0  0  0  0  0  0
   14.6082    2.0986    5.2320 H   0  0  0  0  0  0
   11.1290    1.1193    4.3310 H   0  0  0  0  0  0
   10.6915   -0.4322    2.4985 H   0  0  0  0  0  0
   12.5587   -1.3434    1.1575 H   0  0  0  0  0  0
   15.3438    0.8954    3.5090 H   0  0  0  0  0  0
    8.9629    1.3886    5.0645 H   0  0  0  0  0  0
    7.7800    2.4722    4.3091 H   0  0  0  0  0  0
    9.4851    2.9111    4.2762 H   0  0  0  0  0  0
   15.8565   -1.0587    2.1049 H   0  0  0  0  0  0
  1  2  2  0  0  0
  1  4  1  0  0  0
  1 25  1  0  0  0
  2  3  1  0  0  0
  2 26  1  0  0  0
  3  6  2  0  0  0
  3 27  1  0  0  0
  4  5  2  0  0  0
  4 28  1  0  0  0
  5  9  1  0  0  0
  5  6  1  0  0  0
  6  7  1  0  0  0
  7  8  1  0  0  0
  7 23  1  0  0  0
  8 10  1  0  0  0
  8  9  2  0  0  0
 10 15  1  0  0  0
 10 11  2  0  0  0
 11 12  1  0  0  0
 11 29  1  0  0  0
 12 13  2  0  0  0
 12 30  1  0  0  0
 13 14  1  0  0  0
 14 15  2  0  0  0
 14 16  1  0  0  0
 16 17  1  0  0  0
 16 31  1  0  0  0
 17 18  2  0  0  0
 17 22  1  0  0  0
 18 19  1  0  0  0
 18 32  1  0  0  0
 19 20  2  0  0  0
 19 33  1  0  0  0
 20 21  1  0  0  0
 20 34  1  0  0  0
 21 22  2  0  0  0
 21 24  1  0  0  0
 22 35  1  0  0  0
 23 36  1  0  0  0
 23 37  1  0  0  0
 23 38  1  0  0  0
 24 39  1  0  0  0
M  END
> <s_m_entry_id>
47658

> <s_m_entry_name>
dock_pv.191

> <s_m_Source_Path>
/home/csk/Desktop/cluster/DUD-E-result/fak1

> <s_m_Source_File>
dock_pv.maegz

> <i_m_Source_File_Index>
191

> <chembl_id>
CHEMBL2036870

> <chembl_pref_name>
None

> <i_lp_mmshare_version>
53161

> <i_f3d_flags>
0

> <r_lp_tautomer_probability>
0.999999987636

> <s_lp_Force_Field>
OPLS_2005

> <r_lp_Energy>
10.708099

> <b_lp_Chiralities_Consistent>
1

> <s_lp_Variant>
CHEMBL2695_lig293-1

> <s_i_glide_gridfile>
glide-grid_3bz3

> <i_i_glide_lignum>
330

> <i_i_glide_rotatable_bonds>
4

> <r_i_docking_score>
-7.44592442976981

> <r_i_glide_ligand_efficiency>
-0.310246851240409

> <r_i_glide_ligand_efficiency_sa>
-0.894906774833391

> <r_i_glide_ligand_efficiency_ln>
-1.7821513872524

> <r_i_glide_gscore>
-7.44592442976981

> <r_i_glide_lipo>
-2.51908857406576

> <r_i_glide_hbond>
-0.381589747985354

> <r_i_glide_metal>
0

> <r_i_glide_rewards>
-2.09676897979258

> <r_i_glide_evdw>
-34.5056419372559

> <r_i_glide_ecoul>
-8.52103137969971

> <r_i_glide_erotb>
0.554959675891635

> <r_i_glide_esite>
0

> <r_i_glide_emodel>
-58.0302853215956

> <r_i_glide_energy>
-43.0266733169556

> <r_i_glide_einternal>
5.06622266769409

> <i_i_glide_confnum>
4

> <i_i_glide_posenum>
286

> <r_i_glide_eff_state_penalty>
0

> <s_user_duplicate_titles>
CHEMBL2695_lig293

> <s_m_subgroup_title>
dock_pv

> <s_m_subgroupid>
dock_pv

> <b_m_subgroup_collapsed>
1

$$$$
CHEMBL2695_lig82
                    3D
 Schrodinger Suite 2021-1.
 45 49  0  0  1  0            999 V2000
    9.8576    1.0735    5.0506 N   0  0  0  0  0  0
    9.3824    2.1842    5.6436 C   0  0  0  0  0  0
   10.1092    3.2631    6.0545 N   0  0  0  0  0  0
   11.1895    0.9507    4.9053 C   0  0  0  0  0  0
   12.0637    1.9320    5.3870 C   0  0  0  0  0  0
   11.4392    3.0983    5.9223 C   0  0  0  0  0  0
   12.4609    3.9652    6.3095 N   0  0  0  0  0  0
   13.6651    3.3430    6.0547 C   0  0  0  0  0  0
   13.4771    2.1176    5.4586 C   0  0  0  0  0  0
   12.3530    5.2313    6.9101 C   0  0  0  0  0  0
   13.1114    5.5631    8.0417 C   0  0  0  0  0  0
   12.9623    6.8366    8.5937 C   0  0  0  0  0  0
   12.0855    7.7424    7.9937 C   0  0  0  0  0  0
   11.4028    7.3491    6.8449 C   0  0  0  0  0  0
   11.5147    6.1102    6.3092 N   0  0  0  0  0  0
    8.0211    2.1096    5.9370 N   0  0  0  0  0  0
    7.0514    3.1152    5.9735 C   0  0  0  0  0  0
    5.1006    5.0875    5.8838 C   0  0  0  0  0  0
    6.2062    5.1633    5.0500 C   0  0  0  0  0  0
    7.1906    4.1979    5.1091 C   0  0  0  0  0  0
    4.9321    4.0141    6.7629 C   0  0  0  0  0  0
    5.9174    2.9940    6.8057 C   0  0  0  0  0  0
    5.7710    1.8193    7.7885 C   0  0  0  0  0  0
    4.3334    1.6236    8.2992 C   0  0  0  0  0  0
    3.7517    2.9593    8.7756 C   0  0  0  0  0  0
    3.6506    3.9380    7.5962 C   0  0  0  0  0  0
   11.5251    0.0492    4.4196 H   0  0  0  0  0  0
   14.5794    3.8610    6.3080 H   0  0  0  0  0  0
   14.2592    1.4562    5.1124 H   0  0  0  0  0  0
   13.7873    4.8522    8.4929 H   0  0  0  0  0  0
   13.5205    7.1163    9.4761 H   0  0  0  0  0  0
   11.9289    8.7265    8.4072 H   0  0  0  0  0  0
   10.7228    8.0251    6.3476 H   0  0  0  0  0  0
    7.6289    1.1922    5.7731 H   0  0  0  0  0  0
    4.3388    5.8516    5.8187 H   0  0  0  0  0  0
    6.3118    5.9629    4.3373 H   0  0  0  0  0  0
    8.0435    4.2711    4.4506 H   0  0  0  0  0  0
    6.1201    0.8887    7.3391 H   0  0  0  0  0  0
    6.4238    2.0068    8.6415 H   0  0  0  0  0  0
    4.3214    0.8953    9.1090 H   0  0  0  0  0  0
    3.7113    1.2060    7.5063 H   0  0  0  0  0  0
    4.3781    3.3810    9.5645 H   0  0  0  0  0  0
    2.7671    2.8080    9.2198 H   0  0  0  0  0  0
    3.3718    4.9305    7.9552 H   0  0  0  0  0  0
    2.8420    3.6165    6.9385 H   0  0  0  0  0  0
  1  2  2  0  0  0
  1  4  1  0  0  0
  2  3  1  0  0  0
  2 16  1  0  0  0
  3  6  2  0  0  0
  4  5  2  0  0  0
  4 27  1  0  0  0
  5  9  1  0  0  0
  5  6  1  0  0  0
  6  7  1  0  0  0
  7  8  1  0  0  0
  7 10  1  0  0  0
  8  9  2  0  0  0
  8 28  1  0  0  0
  9 29  1  0  0  0
 10 15  1  0  0  0
 10 11  2  0  0  0
 11 12  1  0  0  0
 11 30  1  0  0  0
 12 13  2  0  0  0
 12 31  1  0  0  0
 13 14  1  0  0  0
 13 32  1  0  0  0
 14 15  2  0  0  0
 14 33  1  0  0  0
 16 17  1  0  0  0
 16 34  1  0  0  0
 17 22  2  0  0  0
 17 20  1  0  0  0
 18 21  2  0  0  0
 18 19  1  0  0  0
 18 35  1  0  0  0
 19 20  2  0  0  0
 19 36  1  0  0  0
 20 37  1  0  0  0
 21 22  1  0  0  0
 21 26  1  0  0  0
 22 23  1  0  0  0
 23 24  1  0  0  0
 23 38  1  0  0  0
 23 39  1  0  0  0
 24 25  1  0  0  0
 24 40  1  0  0  0
 24 41  1  0  0  0
 25 26  1  0  0  0
 25 42  1  0  0  0
 25 43  1  0  0  0
 26 44  1  0  0  0
 26 45  1  0  0  0
M  END
> <s_m_entry_id>
47659

> <s_m_entry_name>
dock_pv.192

> <s_m_Source_Path>
/home/csk/Desktop/cluster/DUD-E-result/fak1

> <s_m_Source_File>
dock_pv.maegz

> <i_m_Source_File_Index>
192

> <chembl_id>
CHEMBL382809

> <chembl_pref_name>
None

> <i_lp_mmshare_version>
53161

> <i_f3d_flags>
0

> <r_lp_tautomer_probability>
1

> <s_lp_Force_Field>
OPLS_2005

> <r_lp_Energy>
16.718723

> <b_lp_Chiralities_Consistent>
1

> <s_lp_Variant>
CHEMBL2695_lig82-1

> <s_i_glide_gridfile>
glide-grid_3bz3

> <i_i_glide_lignum>
104

> <i_i_glide_rotatable_bonds>
3

> <r_i_docking_score>
-7.44576196243899

> <r_i_glide_ligand_efficiency>
-0.286375460093807

> <r_i_glide_ligand_efficiency_sa>
-0.848386173694882

> <r_i_glide_ligand_efficiency_ln>
-1.74861276534107

> <r_i_glide_gscore>
-7.44576196243899

> <r_i_glide_lipo>
-3.38680462344763

> <r_i_glide_hbond>
0

> <r_i_glide_metal>
0

> <r_i_glide_rewards>
-2.36286104490929

> <r_i_glide_evdw>
-42.3784446716309

> <r_i_glide_ecoul>
-0.159457579255104

> <r_i_glide_erotb>
0.487720549409496

> <r_i_glide_esite>
-0.0409759730217569

> <r_i_glide_emodel>
-56.4097308521305

> <r_i_glide_energy>
-42.537902250886

> <r_i_glide_einternal>
5.07807636260986

> <i_i_glide_confnum>
10

> <i_i_glide_posenum>
255

> <r_i_glide_eff_state_penalty>
0

> <s_user_duplicate_titles>
CHEMBL2695_lig82,345170

> <s_m_subgroup_title>
dock_pv

> <s_m_subgroupid>
dock_pv

> <b_m_subgroup_collapsed>
1

$$$$
CHEMBL2695_lig101
                    3D
 Schrodinger Suite 2021-1.
 39 42  0  0  1  0            999 V2000
    9.6014    1.1632    5.3106 N   0  0  0  0  0  0
    9.1908    2.3260    5.8591 C   0  0  0  0  0  0
    9.9698    3.3968    6.1877 N   0  0  0  0  0  0
   10.9232    0.9872    5.1091 C   0  0  0  0  0  0
   11.8428    1.9627    5.4988 C   0  0  0  0  0  0
   11.2862    3.1749    6.0055 C   0  0  0  0  0  0
   12.3580    4.0122    6.3083 N   0  0  0  0  0  0
   13.5234    3.3414    6.0039 C   0  0  0  0  0  0
   13.2609    2.0862    5.5089 C   0  0  0  0  0  0
    7.8349    2.3323    6.1760 N   0  0  0  0  0  0
   12.3280    5.2857    6.8992 C   0  0  0  0  0  0
   13.1176    5.5654    8.0226 C   0  0  0  0  0  0
   13.0236    6.8299    8.6044 C   0  0  0  0  0  0
   12.1690    7.7761    8.0360 C   0  0  0  0  0  0
   11.4593    7.4342    6.8868 C   0  0  0  0  0  0
   11.5209    6.2056    6.3194 N   0  0  0  0  0  0
    6.9168    3.3879    6.2016 C   0  0  0  0  0  0
    5.9525    3.4683    7.2256 C   0  0  0  0  0  0
    4.9513    4.4491    7.1280 C   0  0  0  0  0  0
    4.9116    5.3184    6.0438 C   0  0  0  0  0  0
    5.8919    5.2536    5.0602 C   0  0  0  0  0  0
    6.8980    4.2977    5.1405 C   0  0  0  0  0  0
    6.0370    2.5729    8.2816 O   0  0  0  0  0  0
    5.1500    2.7170    9.3896 C   0  0  0  0  0  0
   11.2316    0.0451    4.6801 H   0  0  0  0  0  0
   14.4684    3.8336    6.1811 H   0  0  0  0  0  0
   13.9952    1.3624    5.1883 H   0  0  0  0  0  0
    7.4010    1.4357    6.0001 H   0  0  0  0  0  0
   13.7705    4.8207    8.4531 H   0  0  0  0  0  0
   13.6045    7.0710    9.4828 H   0  0  0  0  0  0
   12.0443    8.7519    8.4775 H   0  0  0  0  0  0
   10.7908    8.1412    6.4145 H   0  0  0  0  0  0
    4.1848    4.5459    7.8813 H   0  0  0  0  0  0
    4.1205    6.0500    5.9735 H   0  0  0  0  0  0
    5.8572    5.9355    4.2238 H   0  0  0  0  0  0
    7.6367    4.2325    4.3525 H   0  0  0  0  0  0
    5.3975    1.9788   10.1503 H   0  0  0  0  0  0
    5.2386    3.7037    9.8499 H   0  0  0  0  0  0
    4.1119    2.5519    9.0943 H   0  0  0  0  0  0
  1  2  2  0  0  0
  1  4  1  0  0  0
  2  3  1  0  0  0
  2 10  1  0  0  0
  3  6  2  0  0  0
  4  5  2  0  0  0
  4 25  1  0  0  0
  5  9  1  0  0  0
  5  6  1  0  0  0
  6  7  1  0  0  0
  7  8  1  0  0  0
  7 11  1  0  0  0
  8  9  2  0  0  0
  8 26  1  0  0  0
  9 27  1  0  0  0
 10 17  1  0  0  0
 10 28  1  0  0  0
 11 12  2  0  0  0
 11 16  1  0  0  0
 12 13  1  0  0  0
 12 29  1  0  0  0
 13 14  2  0  0  0
 13 30  1  0  0  0
 14 15  1  0  0  0
 14 31  1  0  0  0
 15 16  2  0  0  0
 15 32  1  0  0  0
 17 18  2  0  0  0
 17 22  1  0  0  0
 18 19  1  0  0  0
 18 23  1  0  0  0
 19 20  2  0  0  0
 19 33  1  0  0  0
 20 21  1  0  0  0
 20 34  1  0  0  0
 21 22  2  0  0  0
 21 35  1  0  0  0
 22 36  1  0  0  0
 23 24  1  0  0  0
 24 37  1  0  0  0
 24 38  1  0  0  0
 24 39  1  0  0  0
M  END
> <s_m_entry_id>
47660

> <s_m_entry_name>
dock_pv.193

> <s_m_Source_Path>
/home/csk/Desktop/cluster/DUD-E-result/fak1

> <s_m_Source_File>
dock_pv.maegz

> <i_m_Source_File_Index>
193

> <chembl_id>
CHEMBL206322

> <chembl_pref_name>
None

> <i_lp_mmshare_version>
53161

> <i_f3d_flags>
0

> <r_lp_tautomer_probability>
1

> <s_lp_Force_Field>
OPLS_2005

> <r_lp_Energy>
15.19858

> <b_lp_Chiralities_Consistent>
1

> <s_lp_Variant>
CHEMBL2695_lig101-1

> <s_i_glide_gridfile>
glide-grid_3bz3

> <i_i_glide_lignum>
123

> <i_i_glide_rotatable_bonds>
4

> <r_i_docking_score>
-7.44529699731732

> <r_i_glide_ligand_efficiency>
-0.310220708221555

> <r_i_glide_ligand_efficiency_sa>
-0.894831365318054

> <r_i_glide_ligand_efficiency_ln>
-1.78200121387552

> <r_i_glide_gscore>
-7.44529699731732

> <r_i_glide_lipo>
-3.3815300209567

> <r_i_glide_hbond>
0

> <r_i_glide_metal>
0

> <r_i_glide_rewards>
-2.51549813339531

> <r_i_glide_evdw>
-40.73291015625

> <r_i_glide_ecoul>
-0.239943474531174

> <r_i_glide_erotb>
0.554959675891635

> <r_i_glide_esite>
-0.030591489864767

> <r_i_glide_emodel>
-54.9722476636914

> <r_i_glide_energy>
-40.9728536307812

> <r_i_glide_einternal>
5.11482810974121

> <i_i_glide_confnum>
12

> <i_i_glide_posenum>
20

> <r_i_glide_eff_state_penalty>
0

> <s_user_duplicate_titles>
CHEMBL2695_lig101,344816

> <s_m_subgroup_title>
dock_pv

> <s_m_subgroupid>
dock_pv

> <b_m_subgroup_collapsed>
1

$$$$
CHEMBL2695_lig2150
                    3D
 Schrodinger Suite 2021-1.
 57 60  0  0  1  0            999 V2000
   14.2882   -0.4581    1.1524 O   0  5  0  0  0  0
    6.4700    4.3680   11.0288 O   0  0  0  0  0  0
   11.4345    3.5468    5.9795 N   0  0  0  0  0  0
    9.5196    4.5799    6.9632 N   0  0  0  0  0  0
    7.3916    3.6472    6.6017 N   0  0  0  0  0  0
   12.7827    3.7096    5.9101 N   0  0  0  0  0  0
   11.3434    1.5129    4.7067 N   0  0  0  0  0  0
   13.1680   -0.8061    1.6098 N   0  3  0  0  0  0
   10.8352    4.5610    6.7393 C   0  0  0  0  0  0
   10.6918    2.5271    5.4299 C   0  0  0  0  0  0
    8.7676    3.5815    6.4210 C   0  0  0  0  0  0
   11.8954    5.3887    7.1912 C   0  0  0  0  0  0
    9.3094    2.5703    5.6291 C   0  0  0  0  0  0
   13.0274    4.7763    6.6435 C   0  0  0  0  0  0
    6.8409    4.0276    7.9333 C   0  0  1  0  0  0
   11.8029    6.6070    8.0889 C   0  0  0  0  0  0
    6.7140    4.3494    5.4934 C   0  0  0  0  0  0
   10.6806    0.2900    4.2715 C   0  0  0  0  0  0
    5.2869    3.9676    7.9805 C   0  0  0  0  0  0
    7.4178    3.1897    9.1170 C   0  0  0  0  0  0
   11.3564   -0.4346    3.1097 C   0  0  0  0  0  0
    5.1817    4.2447    5.5117 C   0  0  0  0  0  0
    4.6093    4.7297    6.8403 C   0  0  0  0  0  0
   11.5716    7.9005    7.2981 C   0  0  0  0  0  0
   12.6011   -0.0586    2.5794 C   0  0  0  0  0  0
   10.7219   -1.5672    2.5856 C   0  0  0  0  0  0
    7.6761    3.9580   10.4237 C   0  0  0  0  0  0
   11.3386   -2.3178    1.5834 C   0  0  0  0  0  0
   12.5884   -1.9168    1.1109 C   0  0  0  0  0  0
    5.9770    3.5986   11.3357 H   0  0  0  0  0  0
   12.3524    1.5489    4.6874 H   0  0  0  0  0  0
    8.6444    1.8272    5.2169 H   0  0  0  0  0  0
   14.0406    5.1212    6.7941 H   0  0  0  0  0  0
    7.1271    5.0730    8.0577 H   0  0  0  0  0  0
   10.9930    6.4796    8.8097 H   0  0  0  0  0  0
   12.7108    6.7163    8.6848 H   0  0  0  0  0  0
    7.0110    5.3994    5.5076 H   0  0  0  0  0  0
    7.0685    3.9413    4.5457 H   0  0  0  0  0  0
    9.6352    0.4562    4.0090 H   0  0  0  0  0  0
   10.7218   -0.3844    5.1264 H   0  0  0  0  0  0
    4.9180    4.3609    8.9273 H   0  0  0  0  0  0
    4.9643    2.9260    7.9261 H   0  0  0  0  0  0
    6.8034    2.3086    9.3122 H   0  0  0  0  0  0
    8.3765    2.7681    8.8356 H   0  0  0  0  0  0
    4.7692    4.8468    4.7027 H   0  0  0  0  0  0
    4.8764    3.2206    5.2951 H   0  0  0  0  0  0
    4.7755    5.8014    6.9553 H   0  0  0  0  0  0
    3.5295    4.5799    6.8684 H   0  0  0  0  0  0
   11.3697    8.7380    7.9665 H   0  0  0  0  0  0
   12.4471    8.1578    6.7037 H   0  0  0  0  0  0
   10.7239    7.8069    6.6183 H   0  0  0  0  0  0
   13.1784    0.7953    2.9020 H   0  0  0  0  0  0
    9.7603   -1.8813    2.9710 H   0  0  0  0  0  0
    8.2965    3.3748   11.1078 H   0  0  0  0  0  0
    8.2365    4.8679   10.2032 H   0  0  0  0  0  0
   10.8570   -3.2026    1.1918 H   0  0  0  0  0  0
   13.1508   -2.4496    0.3596 H   0  0  0  0  0  0
  1  8  1  0  0  0
  2 27  1  0  0  0
  2 30  1  0  0  0
  3  6  1  0  0  0
  3  9  1  0  0  0
  3 10  1  0  0  0
  4  9  1  0  0  0
  4 11  2  0  0  0
  5 11  1  0  0  0
  5 15  1  0  0  0
  5 17  1  0  0  0
  6 14  2  0  0  0
  7 10  1  0  0  0
  7 18  1  0  0  0
  7 31  1  0  0  0
  8 25  2  0  0  0
  8 29  1  0  0  0
  9 12  2  0  0  0
 10 13  2  0  0  0
 11 13  1  0  0  0
 12 14  1  0  0  0
 12 16  1  0  0  0
 13 32  1  0  0  0
 14 33  1  0  0  0
 15 19  1  0  0  0
 15 20  1  0  0  0
 15 34  1  0  0  0
 16 24  1  0  0  0
 16 35  1  0  0  0
 16 36  1  0  0  0
 17 22  1  0  0  0
 17 37  1  0  0  0
 17 38  1  0  0  0
 18 21  1  0  0  0
 18 39  1  0  0  0
 18 40  1  0  0  0
 19 23  1  0  0  0
 19 41  1  0  0  0
 19 42  1  0  0  0
 20 27  1  0  0  0
 20 43  1  0  0  0
 20 44  1  0  0  0
 21 25  1  0  0  0
 21 26  2  0  0  0
 22 23  1  0  0  0
 22 45  1  0  0  0
 22 46  1  0  0  0
 23 47  1  0  0  0
 23 48  1  0  0  0
 24 49  1  0  0  0
 24 50  1  0  0  0
 24 51  1  0  0  0
 25 52  1  0  0  0
 26 28  1  0  0  0
 26 53  1  0  0  0
 27 54  1  0  0  0
 27 55  1  0  0  0
 28 29  2  0  0  0
 28 56  1  0  0  0
 29 57  1  0  0  0
M  CHG  2   1  -1   8   1
M  END
> <s_m_entry_id>
47661

> <s_m_entry_name>
dock_pv.194

> <s_m_Source_Path>
/home/csk/Desktop/cluster/DUD-E-result/fak1

> <s_m_Source_File>
dock_pv.maegz

> <i_m_Source_File_Index>
194

> <chembl_id>
CHEMBL2006674

> <chembl_pref_name>
None

> <i_lp_mmshare_version>
53161

> <i_f3d_flags>
0

> <r_lp_tautomer_probability>
1

> <s_lp_Force_Field>
OPLS_2005

> <r_lp_Energy>
29.247188

> <b_lp_Chiralities_Consistent>
1

> <s_lp_Variant>
CHEMBL2695_lig2150-2

> <s_i_glide_gridfile>
glide-grid_3bz3

> <i_i_glide_lignum>
2608

> <i_i_glide_rotatable_bonds>
8

> <r_i_docking_score>
-7.44365981537633

> <r_i_glide_ligand_efficiency>
-0.256677924668149

> <r_i_glide_ligand_efficiency_sa>
-0.788595905854934

> <r_i_glide_ligand_efficiency_ln>
-1.70440934279448

> <r_i_glide_gscore>
-7.44365981537633

> <r_i_glide_lipo>
-3.45026686915557

> <r_i_glide_hbond>
-0.282360988367811

> <r_i_glide_metal>
0

> <r_i_glide_rewards>
-1.84314170519178

> <r_i_glide_evdw>
-45.087589263916

> <r_i_glide_ecoul>
-2.40182113647461

> <r_i_glide_erotb>
0.746762381005823

> <r_i_glide_esite>
0

> <r_i_glide_emodel>
-63.6184608782725

> <r_i_glide_energy>
-47.4894104003906

> <r_i_glide_einternal>
8.08619022369385

> <i_i_glide_confnum>
26

> <i_i_glide_posenum>
235

> <r_i_glide_eff_state_penalty>
0

> <s_user_duplicate_titles>
CHEMBL2695_lig2150

> <s_m_subgroup_title>
dock_pv

> <s_m_subgroupid>
dock_pv

> <b_m_subgroup_collapsed>
1

$$$$
CHEMBL2695_lig300
                    3D
 Schrodinger Suite 2021-1.
 48 51  0  0  1  0            999 V2000
   11.4495    6.2735    9.2826 C   0  0  0  0  0  0
   12.3398    7.3079    8.5527 C   0  0  0  0  0  0
   11.5615    8.2046    7.5724 C   0  0  0  0  0  0
   13.4853    6.7409    7.9091 O   0  0  0  0  0  0
   13.3184    5.5616    7.2309 C   0  0  0  0  0  0
   12.2459    5.0068    6.5651 C   0  0  0  0  0  0
   12.6470    3.7038    6.2515 C   0  0  0  0  0  0
   13.9297    3.5179    6.4912 N   0  0  0  0  0  0
   14.3182    4.6432    7.1125 N   0  0  0  0  0  0
   11.7700    2.7475    5.7677 N   0  0  0  0  0  0
   12.1252    1.5667    5.1316 C   0  0  0  0  0  0
   11.1222    0.8722    4.6516 N   0  0  0  0  0  0
   10.0221    1.6099    4.9911 C   0  0  0  0  0  0
    8.6646    1.4164    4.7097 C   0  0  0  0  0  0
    7.7565    2.3473    5.2239 C   0  0  0  0  0  0
    8.2111    3.4142    6.0084 C   0  0  0  0  0  0
    7.3707    4.3629    6.6073 N   0  0  0  0  0  0
    5.9196    4.5034    6.4589 C   0  0  1  0  0  0
    5.5123    4.9790    5.0550 C   0  0  0  0  0  0
    5.1358    3.2988    6.9989 C   0  0  0  0  0  0
    5.0806    3.0456    8.3754 C   0  0  0  0  0  0
    4.3239    1.9622    8.8293 C   0  0  0  0  0  0
    3.6484    1.1612    7.9060 C   0  0  0  0  0  0
    2.8961    0.1136    8.3090 F   0  0  0  0  0  0
    3.7548    1.4687    6.5518 C   0  0  0  0  0  0
    4.4742    2.5220    6.0947 N   0  0  0  0  0  0
    9.5256    3.6342    6.2682 N   0  0  0  0  0  0
   10.3831    2.7502    5.7408 C   0  0  0  0  0  0
   10.7218    6.7629    9.9080 H   0  0  0  0  0  0
   12.0486    5.6141    9.9101 H   0  0  0  0  0  0
   10.8646    5.6488    8.6117 H   0  0  0  0  0  0
   12.7559    7.9613    9.3209 H   0  0  0  0  0  0
   10.7761    8.7610    8.0845 H   0  0  0  0  0  0
   12.2256    8.9330    7.1073 H   0  0  0  0  0  0
   11.0954    7.6363    6.7700 H   0  0  0  0  0  0
   11.2726    5.4472    6.4208 H   0  0  0  0  0  0
   15.2498    4.7977    7.4765 H   0  0  0  0  0  0
   13.1709    1.3131    5.0245 H   0  0  0  0  0  0
    8.3234    0.5773    4.1191 H   0  0  0  0  0  0
    6.7111    2.2002    5.0179 H   0  0  0  0  0  0
    7.8237    4.9918    7.2519 H   0  0  0  0  0  0
    5.6440    5.3303    7.1099 H   0  0  0  0  0  0
    4.4389    5.1590    5.0160 H   0  0  0  0  0  0
    6.0102    5.9075    4.7776 H   0  0  0  0  0  0
    5.7516    4.2283    4.3089 H   0  0  0  0  0  0
    5.6048    3.6762    9.0783 H   0  0  0  0  0  0
    4.2689    1.7457    9.8862 H   0  0  0  0  0  0
    3.2602    0.8625    5.8080 H   0  0  0  0  0  0
  1  2  1  0  0  0
  1 29  1  0  0  0
  1 30  1  0  0  0
  1 31  1  0  0  0
  2  3  1  0  0  0
  2  4  1  0  0  0
  2 32  1  0  0  0
  3 33  1  0  0  0
  3 34  1  0  0  0
  3 35  1  0  0  0
  4  5  1  0  0  0
  5  6  2  0  0  0
  5  9  1  0  0  0
  6  7  1  0  0  0
  6 36  1  0  0  0
  7  8  2  0  0  0
  7 10  1  0  0  0
  8  9  1  0  0  0
  9 37  1  0  0  0
 10 11  1  0  0  0
 10 28  1  0  0  0
 11 12  2  0  0  0
 11 38  1  0  0  0
 12 13  1  0  0  0
 13 14  2  0  0  0
 13 28  1  0  0  0
 14 15  1  0  0  0
 14 39  1  0  0  0
 15 16  2  0  0  0
 15 40  1  0  0  0
 16 17  1  0  0  0
 16 27  1  0  0  0
 17 18  1  0  0  0
 17 41  1  0  0  0
 18 19  1  0  0  0
 18 20  1  0  0  0
 18 42  1  0  0  0
 19 43  1  0  0  0
 19 44  1  0  0  0
 19 45  1  0  0  0
 20 21  2  0  0  0
 20 26  1  0  0  0
 21 22  1  0  0  0
 21 46  1  0  0  0
 22 23  2  0  0  0
 22 47  1  0  0  0
 23 24  1  0  0  0
 23 25  1  0  0  0
 25 26  2  0  0  0
 25 48  1  0  0  0
 27 28  2  0  0  0
M  END
> <s_m_entry_id>
47662

> <s_m_entry_name>
dock_pv.195

> <s_m_Source_Path>
/home/csk/Desktop/cluster/DUD-E-result/fak1

> <s_m_Source_File>
dock_pv.maegz

> <i_m_Source_File_Index>
195

> <chembl_id>
CHEMBL2151321

> <chembl_pref_name>
None

> <i_lp_mmshare_version>
53161

> <i_f3d_flags>
0

> <r_lp_tautomer_probability>
1

> <s_lp_Force_Field>
OPLS_2005

> <r_lp_Energy>
10.638005

> <b_lp_Chiralities_Consistent>
1

> <s_lp_Variant>
CHEMBL2695_lig300-1

> <s_i_glide_gridfile>
glide-grid_3bz3

> <i_i_glide_lignum>
337

> <i_i_glide_rotatable_bonds>
6

> <r_i_docking_score>
-7.43980939054137

> <r_i_glide_ligand_efficiency>
-0.26570747823362

> <r_i_glide_ligand_efficiency_sa>
-0.806844397252914

> <r_i_glide_ligand_efficiency_ln>
-1.71732644963257

> <r_i_glide_gscore>
-7.43980939054137

> <r_i_glide_lipo>
-2.36730421431932

> <r_i_glide_hbond>
-0.409149685049007

> <r_i_glide_metal>
0

> <r_i_glide_rewards>
-2.77834786532455

> <r_i_glide_evdw>
-39.7323875427246

> <r_i_glide_ecoul>
-2.04234600067139

> <r_i_glide_erotb>
0.467017839492857

> <r_i_glide_esite>
-0.0590541881044184

> <r_i_glide_emodel>
-54.3932351875507

> <r_i_glide_energy>
-41.774733543396

> <r_i_glide_einternal>
9.56620502471924

> <i_i_glide_confnum>
36

> <i_i_glide_posenum>
227

> <r_i_glide_eff_state_penalty>
0

> <s_user_duplicate_titles>
CHEMBL2695_lig300

> <s_m_subgroup_title>
dock_pv

> <s_m_subgroupid>
dock_pv

> <b_m_subgroup_collapsed>
1

$$$$
CHEMBL2695_lig1330
                    3D
 Schrodinger Suite 2021-1.
 81 86  0  0  1  0            999 V2000
   14.6276   -0.6493    1.7710 C   0  0  0  0  0  0
   13.9285    0.1614    2.7074 O   0  0  0  0  0  0
   12.5524    0.0271    2.8466 C   0  0  0  0  0  0
   11.7770   -0.8055    2.0141 C   0  0  0  0  0  0
   10.3844   -0.8828    2.1537 C   0  0  0  0  0  0
    9.7932   -0.1462    3.1867 C   0  0  0  0  0  0
   10.5454    0.6474    4.0376 C   0  0  0  0  0  0
   11.9264    0.7611    3.8781 C   0  0  0  0  0  0
   12.7256    1.5626    4.7132 N   0  0  0  0  0  0
   12.4287    2.5979    5.5919 C   0  0  0  0  0  0
   11.1374    2.8877    5.9129 N   0  0  0  0  0  0
   10.9098    3.9601    6.7080 C   0  0  0  0  0  0
    9.6154    4.1527    7.2023 N   0  0  0  0  0  0
    8.3751    4.2122    6.5647 C   0  0  0  0  0  0
    8.3376    4.4429    5.1899 C   0  0  0  0  0  0
    7.1360    4.7634    4.5681 C   0  0  0  0  0  0
    5.9575    4.8632    5.2929 C   0  0  0  0  0  0
    5.9742    4.5810    6.6528 C   0  0  0  0  0  0
    7.1645    4.2056    7.2881 C   0  0  0  0  0  0
    7.0098    3.5858    8.9686 S   0  0  0  0  0  0
    8.3345    3.4711    9.5872 O   0  0  0  0  0  0
    5.9665    4.3629    9.6433 O   0  0  0  0  0  0
    6.3900    1.9627    8.7094 N   0  0  2  0  0  0
    4.9807    1.7779    8.3098 C   0  0  0  0  0  0
    4.6475    0.4055    7.7475 C   0  0  0  0  0  0
    3.1235    0.2776    7.8704 C   0  0  0  0  0  0
    2.6493    1.4521    8.7492 C   0  0  0  0  0  0
    3.9160    2.0521    9.3678 C   0  0  0  0  0  0
   11.9580    4.7878    7.1086 C   0  0  0  0  0  0
   13.2278    4.3945    6.7224 C   0  0  0  0  0  0
   14.1757    5.1633    7.3668 N   0  0  0  0  0  0
   13.5407    6.3039    8.0169 C   0  0  0  0  0  0
   12.0205    6.0657    7.9185 C   0  0  0  0  0  0
   11.3484    7.2233    7.1508 C   0  0  0  0  0  0
   11.4146    5.9090    9.3293 C   0  0  0  0  0  0
   13.5093    3.3035    5.9830 N   0  0  0  0  0  0
    9.5929   -1.6690    1.3198 N   0  0  0  0  0  0
   10.1727   -2.6741    0.4131 C   0  0  0  0  0  0
    9.1361   -3.6772   -0.1324 C   0  0  0  0  0  0
    8.0589   -2.9895   -0.7443 O   0  0  0  0  0  0
    7.3995   -2.1258    0.1704 C   0  0  0  0  0  0
    8.3938   -1.0688    0.6952 C   0  0  0  0  0  0
   15.6883   -0.4262    1.8464 H   0  0  0  0  0  0
   14.4992   -1.7132    1.9760 H   0  0  0  0  0  0
   14.3201   -0.4359    0.7432 H   0  0  0  0  0  0
   12.2532   -1.3639    1.2271 H   0  0  0  0  0  0
    8.7271   -0.2058    3.3663 H   0  0  0  0  0  0
    9.9905    1.1483    4.8122 H   0  0  0  0  0  0
   13.7127    1.4774    4.5201 H   0  0  0  0  0  0
    9.5856    4.4649    8.1625 H   0  0  0  0  0  0
    9.2390    4.4412    4.5988 H   0  0  0  0  0  0
    7.1270    5.0054    3.5226 H   0  0  0  0  0  0
    5.0413    5.1569    4.8017 H   0  0  0  0  0  0
    5.0421    4.6361    7.2009 H   0  0  0  0  0  0
    6.6922    1.2798    9.4133 H   0  0  0  0  0  0
    4.8789    2.4822    7.4870 H   0  0  0  0  0  0
    4.9781    0.3387    6.7126 H   0  0  0  0  0  0
    5.1416   -0.3862    8.3096 H   0  0  0  0  0  0
    2.6558    0.3196    6.8856 H   0  0  0  0  0  0
    2.8447   -0.6809    8.3075 H   0  0  0  0  0  0
    2.1519    2.1997    8.1285 H   0  0  0  0  0  0
    1.9293    1.1549    9.5077 H   0  0  0  0  0  0
    4.1688    1.5586   10.3068 H   0  0  0  0  0  0
    3.7851    3.1130    9.5814 H   0  0  0  0  0  0
   15.1869    5.1792    7.3956 H   0  0  0  0  0  0
   13.8865    6.3699    9.0510 H   0  0  0  0  0  0
   13.8481    7.2196    7.5093 H   0  0  0  0  0  0
   11.2514    8.1124    7.7767 H   0  0  0  0  0  0
   11.9218    7.5095    6.2664 H   0  0  0  0  0  0
   10.3515    6.9491    6.7957 H   0  0  0  0  0  0
   11.5317    6.8076    9.9082 H   0  0  0  0  0  0
   10.3567    5.6592    9.3157 H   0  0  0  0  0  0
   11.9439    5.1631    9.9162 H   0  0  0  0  0  0
   10.9320   -3.2390    0.9610 H   0  0  0  0  0  0
   10.6696   -2.1648   -0.4085 H   0  0  0  0  0  0
    9.6030   -4.3149   -0.8882 H   0  0  0  0  0  0
    8.7729   -4.3424    0.6551 H   0  0  0  0  0  0
    6.5711   -1.6398   -0.3422 H   0  0  0  0  0  0
    6.9584   -2.6930    0.9956 H   0  0  0  0  0  0
    8.6991   -0.4057   -0.1141 H   0  0  0  0  0  0
    7.8481   -0.4498    1.4078 H   0  0  0  0  0  0
  1  2  1  0  0  0
  1 43  1  0  0  0
  1 44  1  0  0  0
  1 45  1  0  0  0
  2  3  1  0  0  0
  3  4  2  0  0  0
  3  8  1  0  0  0
  4  5  1  0  0  0
  4 46  1  0  0  0
  5  6  2  0  0  0
  5 37  1  0  0  0
  6  7  1  0  0  0
  6 47  1  0  0  0
  7  8  2  0  0  0
  7 48  1  0  0  0
  8  9  1  0  0  0
  9 10  1  0  0  0
  9 49  1  0  0  0
 10 11  2  0  0  0
 10 36  1  0  0  0
 11 12  1  0  0  0
 12 13  1  0  0  0
 12 29  2  0  0  0
 13 14  1  0  0  0
 13 50  1  0  0  0
 14 15  2  0  0  0
 14 19  1  0  0  0
 15 16  1  0  0  0
 15 51  1  0  0  0
 16 17  2  0  0  0
 16 52  1  0  0  0
 17 18  1  0  0  0
 17 53  1  0  0  0
 18 19  2  0  0  0
 18 54  1  0  0  0
 19 20  1  0  0  0
 20 21  2  0  0  0
 20 22  2  0  0  0
 20 23  1  0  0  0
 23 24  1  0  0  0
 23 55  1  0  0  0
 24 25  1  0  0  0
 24 28  1  0  0  0
 24 56  1  0  0  0
 25 26  1  0  0  0
 25 57  1  0  0  0
 25 58  1  0  0  0
 26 27  1  0  0  0
 26 59  1  0  0  0
 26 60  1  0  0  0
 27 28  1  0  0  0
 27 61  1  0  0  0
 27 62  1  0  0  0
 28 63  1  0  0  0
 28 64  1  0  0  0
 29 30  1  0  0  0
 29 33  1  0  0  0
 30 31  1  0  0  0
 30 36  2  0  0  0
 31 32  1  0  0  0
 31 65  1  0  0  0
 32 33  1  0  0  0
 32 66  1  0  0  0
 32 67  1  0  0  0
 33 34  1  0  0  0
 33 35  1  0  0  0
 34 68  1  0  0  0
 34 69  1  0  0  0
 34 70  1  0  0  0
 35 71  1  0  0  0
 35 72  1  0  0  0
 35 73  1  0  0  0
 37 38  1  0  0  0
 37 42  1  0  0  0
 38 39  1  0  0  0
 38 74  1  0  0  0
 38 75  1  0  0  0
 39 40  1  0  0  0
 39 76  1  0  0  0
 39 77  1  0  0  0
 40 41  1  0  0  0
 41 42  1  0  0  0
 41 78  1  0  0  0
 41 79  1  0  0  0
 42 80  1  0  0  0
 42 81  1  0  0  0
M  END
> <s_m_entry_id>
47663

> <s_m_entry_name>
dock_pv.196

> <s_m_Source_Path>
/home/csk/Desktop/cluster/DUD-E-result/fak1

> <s_m_Source_File>
dock_pv.maegz

> <i_m_Source_File_Index>
196

> <chembl_id>
CHEMBL3954762

> <chembl_pref_name>
None

> <i_lp_mmshare_version>
53161

> <i_f3d_flags>
0

> <r_lp_tautomer_probability>
1

> <s_lp_Force_Field>
OPLS_2005

> <r_lp_Energy>
64.925985

> <b_lp_Chiralities_Consistent>
1

> <s_lp_Variant>
CHEMBL2695_lig1330-1

> <s_i_glide_gridfile>
glide-grid_3bz3

> <i_i_glide_lignum>
1456

> <i_i_glide_rotatable_bonds>
9

> <r_i_docking_score>
-7.43971401675489

> <r_i_glide_ligand_efficiency>
-0.177136048017974

> <r_i_glide_ligand_efficiency_sa>
-0.615729621913231

> <r_i_glide_ligand_efficiency_ln>
-1.57033195984033

> <r_i_glide_gscore>
-7.43971401675489

> <r_i_glide_lipo>
-3.61574428101399

> <r_i_glide_hbond>
-0.47110052569965

> <r_i_glide_metal>
0

> <r_i_glide_rewards>
-0.813205615565894

> <r_i_glide_evdw>
-44.1738967895508

> <r_i_glide_ecoul>
-4.31984424591064

> <r_i_glide_erotb>
0.364325940309988

> <r_i_glide_esite>
-0.0473180584212094

> <r_i_glide_emodel>
-55.7625985844426

> <r_i_glide_energy>
-48.4937410354614

> <r_i_glide_einternal>
19.6128330230713

> <i_i_glide_confnum>
6

> <i_i_glide_posenum>
323

> <r_i_glide_eff_state_penalty>
0

> <s_user_duplicate_titles>
CHEMBL2695_lig1330

> <s_m_subgroup_title>
dock_pv

> <s_m_subgroupid>
dock_pv

> <b_m_subgroup_collapsed>
1

$$$$
CHEMBL2695_lig1948
                    3D
 Schrodinger Suite 2021-1.
 47 49  0  0  1  0            999 V2000
   11.1222    8.7407    7.5090 Cl  0  0  0  0  0  0
   11.9081    1.1681    4.9713 O   0  0  0  0  0  0
    9.0774    3.9677    6.6380 N   0  0  0  0  0  0
   11.3156    3.8051    5.9193 N   0  0  0  0  0  0
    6.9715    4.2463    7.5534 N   0  0  0  0  0  0
   10.3256    0.3803    3.6154 N   0  0  0  0  0  0
    4.7220    5.3328    5.9096 N   0  0  0  0  0  0
   10.0109    3.2773    5.9300 C   0  0  0  0  0  0
    9.6974    2.0663    5.2651 C   0  0  0  0  0  0
    7.8093    3.5050    6.7115 C   0  0  0  0  0  0
    8.3564    1.6567    5.2908 C   0  0  0  0  0  0
    7.4104    2.3634    6.0209 C   0  0  0  0  0  0
   10.7348    1.1762    4.6065 C   0  0  0  0  0  0
   11.8757    4.9121    6.5783 C   0  0  0  0  0  0
    5.5656    3.9622    7.8706 C   0  0  1  0  0  0
    4.6021    4.0880    6.6497 C   0  0  1  0  0  0
   11.2189    6.1388    6.7370 C   0  0  0  0  0  0
   13.1518    4.7628    7.1155 C   0  0  0  0  0  0
   11.8313    7.1752    7.4482 C   0  0  0  0  0  0
    5.4127    2.6623    8.6955 C   0  0  0  0  0  0
   13.6913    5.7388    7.9425 C   0  0  0  0  0  0
    3.1492    3.8396    7.1141 C   0  0  0  0  0  0
   13.0416    6.9559    8.0970 C   0  0  0  0  0  0
    3.9461    2.4433    9.1096 C   0  0  0  0  0  0
    2.9950    2.5171    7.8974 C   0  0  0  0  0  0
   11.9836    3.1354    5.5605 H   0  0  0  0  0  0
    7.3964    5.0409    8.0043 H   0  0  0  0  0  0
    9.4157    0.5310    3.1961 H   0  0  0  0  0  0
   10.9841   -0.2412    3.1744 H   0  0  0  0  0  0
    4.0030    5.3850    5.1945 H   0  0  0  0  0  0
    4.5414    6.1035    6.5347 H   0  0  0  0  0  0
    8.0259    0.7632    4.7853 H   0  0  0  0  0  0
    6.4061    1.9781    6.0568 H   0  0  0  0  0  0
    5.2903    4.7631    8.5563 H   0  0  0  0  0  0
    4.8380    3.2940    5.9451 H   0  0  0  0  0  0
   10.2424    6.2949    6.3091 H   0  0  0  0  0  0
   13.6866    3.8337    6.9873 H   0  0  0  0  0  0
    6.0361    2.7073    9.5909 H   0  0  0  0  0  0
    5.7574    1.7916    8.1398 H   0  0  0  0  0  0
   14.6278    5.5572    8.4474 H   0  0  0  0  0  0
    2.4748    3.8343    6.2561 H   0  0  0  0  0  0
    2.8309    4.6550    7.7669 H   0  0  0  0  0  0
   13.4926    7.7325    8.6946 H   0  0  0  0  0  0
    3.8453    1.4805    9.6125 H   0  0  0  0  0  0
    3.6607    3.1983    9.8446 H   0  0  0  0  0  0
    3.1913    1.6756    7.2301 H   0  0  0  0  0  0
    1.9626    2.4047    8.2317 H   0  0  0  0  0  0
  1 19  1  0  0  0
  2 13  2  0  0  0
  3  8  2  0  0  0
  3 10  1  0  0  0
  4  8  1  0  0  0
  4 14  1  0  0  0
  4 26  1  0  0  0
  5 10  1  0  0  0
  5 15  1  0  0  0
  5 27  1  0  0  0
  6 13  1  0  0  0
  6 28  1  0  0  0
  6 29  1  0  0  0
  7 16  1  0  0  0
  7 30  1  0  0  0
  7 31  1  0  0  0
  8  9  1  0  0  0
  9 11  2  0  0  0
  9 13  1  0  0  0
 10 12  2  0  0  0
 11 12  1  0  0  0
 11 32  1  0  0  0
 12 33  1  0  0  0
 14 17  1  0  0  0
 14 18  2  0  0  0
 15 16  1  0  0  0
 15 20  1  0  0  0
 15 34  1  0  0  0
 16 22  1  0  0  0
 16 35  1  0  0  0
 17 19  2  0  0  0
 17 36  1  0  0  0
 18 21  1  0  0  0
 18 37  1  0  0  0
 19 23  1  0  0  0
 20 24  1  0  0  0
 20 38  1  0  0  0
 20 39  1  0  0  0
 21 23  2  0  0  0
 21 40  1  0  0  0
 22 25  1  0  0  0
 22 41  1  0  0  0
 22 42  1  0  0  0
 23 43  1  0  0  0
 24 25  1  0  0  0
 24 44  1  0  0  0
 24 45  1  0  0  0
 25 46  1  0  0  0
 25 47  1  0  0  0
M  END
> <s_m_entry_id>
47664

> <s_m_entry_name>
dock_pv.197

> <s_m_Source_Path>
/home/csk/Desktop/cluster/DUD-E-result/fak1

> <s_m_Source_File>
dock_pv.maegz

> <i_m_Source_File_Index>
197

> <chembl_id>
CHEMBL1982753

> <chembl_pref_name>
None

> <i_lp_mmshare_version>
53161

> <i_f3d_flags>
0

> <r_lp_tautomer_probability>
1

> <s_lp_Force_Field>
OPLS_2005

> <r_lp_Energy>
29.213527

> <b_lp_Chiralities_Consistent>
1

> <s_lp_Variant>
CHEMBL2695_lig1948-4

> <s_i_glide_gridfile>
glide-grid_3bz3

> <i_i_glide_lignum>
2275

> <i_i_glide_rotatable_bonds>
5

> <r_i_docking_score>
-7.42469039287761

> <r_i_glide_ligand_efficiency>
-0.296987615715105

> <r_i_glide_ligand_efficiency_sa>
-0.868397055448758

> <r_i_glide_ligand_efficiency_ln>
-1.75987412312842

> <r_i_glide_gscore>
-7.42469039287761

> <r_i_glide_lipo>
-3.06131239731183

> <r_i_glide_hbond>
-0.517173442311226

> <r_i_glide_metal>
0

> <r_i_glide_rewards>
-1.41846970892915

> <r_i_glide_evdw>
-36.6839179992676

> <r_i_glide_ecoul>
-7.80106115341187

> <r_i_glide_erotb>
0.59221878930576

> <r_i_glide_esite>
-0.0155985606560063

> <r_i_glide_emodel>
-58.4698568705894

> <r_i_glide_energy>
-44.4849791526794

> <r_i_glide_einternal>
8.39363098144531

> <i_i_glide_confnum>
33

> <i_i_glide_posenum>
242

> <r_i_glide_eff_state_penalty>
0

> <s_user_duplicate_titles>
CHEMBL2695_lig1948

> <s_m_subgroup_title>
dock_pv

> <s_m_subgroupid>
dock_pv

> <b_m_subgroup_collapsed>
1

$$$$
CHEMBL2695_lig2065
                    3D
 Schrodinger Suite 2021-1.
 44 47  0  0  1  0            999 V2000
    7.5211    2.1938    9.9089 C   0  0  0  0  0  0
    7.3811    2.5944    8.5083 N   0  0  0  0  0  0
    6.9957    1.4899    7.6253 C   0  0  0  0  0  0
    7.5829    3.8808    8.1298 C   0  0  0  0  0  0
    7.9302    4.7663    8.9088 O   0  0  0  0  0  0
    7.3952    4.2039    6.7410 C   0  0  0  0  0  0
    8.2651    4.0222    5.6661 C   0  0  0  0  0  0
    7.6850    4.4026    4.5466 N   0  0  0  0  0  0
    6.3809    4.7585    4.8256 N   0  0  0  0  0  0
    6.2136    4.5996    6.1421 N   0  0  0  0  0  0
    4.8848    4.8157    6.7185 C   0  0  0  0  0  0
    4.2372    3.5426    7.2477 C   0  0  0  0  0  0
    3.8442    2.5389    6.3581 C   0  0  0  0  0  0
    3.2865    1.3594    6.8446 C   0  0  0  0  0  0
    3.1209    1.1889    8.2180 C   0  0  0  0  0  0
    3.5097    2.1859    9.1104 C   0  0  0  0  0  0
    4.0637    3.3666    8.6243 C   0  0  0  0  0  0
    9.6413    3.4762    5.6609 C   0  0  0  0  0  0
    9.8468    2.1462    5.2840 C   0  0  0  0  0  0
   11.1118    1.5562    5.3153 C   0  0  0  0  0  0
   12.1723    2.3655    5.7350 C   0  0  0  0  0  0
   13.5223    2.1267    5.9043 N   0  0  0  0  0  0
   14.1780    3.2277    6.3090 N   0  0  0  0  0  0
   13.3028    4.1934    6.3908 C   0  0  0  0  0  0
   11.9914    3.7311    6.0802 C   0  0  0  0  0  0
   10.7059    4.2861    6.0576 C   0  0  0  0  0  0
    7.9572    2.9692   10.5404 H   0  0  0  0  0  0
    6.5330    1.9661   10.3075 H   0  0  0  0  0  0
    8.1431    1.3031   10.0059 H   0  0  0  0  0  0
    6.7926    1.7863    6.5970 H   0  0  0  0  0  0
    7.8038    0.7643    7.6021 H   0  0  0  0  0  0
    6.1021    0.9920    8.0034 H   0  0  0  0  0  0
    4.9697    5.5626    7.5023 H   0  0  0  0  0  0
    4.2284    5.2575    5.9642 H   0  0  0  0  0  0
    3.9856    2.6641    5.2935 H   0  0  0  0  0  0
    2.9956    0.5766    6.1587 H   0  0  0  0  0  0
    2.6945    0.2718    8.5931 H   0  0  0  0  0  0
    3.3946    2.0447   10.1755 H   0  0  0  0  0  0
    4.3777    4.1304    9.3214 H   0  0  0  0  0  0
    8.9992    1.5499    4.9722 H   0  0  0  0  0  0
   11.2504    0.5228    5.0362 H   0  0  0  0  0  0
   14.0324    1.2640    5.7568 H   0  0  0  0  0  0
   13.5980    5.1835    6.7070 H   0  0  0  0  0  0
   10.5405    5.3146    6.3440 H   0  0  0  0  0  0
  1  2  1  0  0  0
  1 27  1  0  0  0
  1 28  1  0  0  0
  1 29  1  0  0  0
  2  3  1  0  0  0
  2  4  1  0  0  0
  3 30  1  0  0  0
  3 31  1  0  0  0
  3 32  1  0  0  0
  4  5  2  0  0  0
  4  6  1  0  0  0
  6  7  2  0  0  0
  6 10  1  0  0  0
  7  8  1  0  0  0
  7 18  1  0  0  0
  8  9  2  0  0  0
  9 10  1  0  0  0
 10 11  1  0  0  0
 11 12  1  0  0  0
 11 33  1  0  0  0
 11 34  1  0  0  0
 12 13  2  0  0  0
 12 17  1  0  0  0
 13 14  1  0  0  0
 13 35  1  0  0  0
 14 15  2  0  0  0
 14 36  1  0  0  0
 15 16  1  0  0  0
 15 37  1  0  0  0
 16 17  2  0  0  0
 16 38  1  0  0  0
 17 39  1  0  0  0
 18 19  2  0  0  0
 18 26  1  0  0  0
 19 20  1  0  0  0
 19 40  1  0  0  0
 20 21  2  0  0  0
 20 41  1  0  0  0
 21 22  1  0  0  0
 21 25  1  0  0  0
 22 23  1  0  0  0
 22 42  1  0  0  0
 23 24  2  0  0  0
 24 25  1  0  0  0
 24 43  1  0  0  0
 25 26  2  0  0  0
 26 44  1  0  0  0
M  END
> <s_m_entry_id>
47665

> <s_m_entry_name>
dock_pv.198

> <s_m_Source_Path>
/home/csk/Desktop/cluster/DUD-E-result/fak1

> <s_m_Source_File>
dock_pv.maegz

> <i_m_Source_File_Index>
198

> <chembl_id>
CHEMBL1996111

> <chembl_pref_name>
None

> <i_lp_mmshare_version>
53161

> <i_f3d_flags>
0

> <r_lp_tautomer_probability>
0.980392156862745

> <s_lp_Force_Field>
OPLS_2005

> <r_lp_Energy>
24.559516

> <b_lp_Chiralities_Consistent>
1

> <s_lp_Variant>
CHEMBL2695_lig2065-1

> <s_i_glide_gridfile>
glide-grid_3bz3

> <i_i_glide_lignum>
2476

> <i_i_glide_rotatable_bonds>
5

> <r_i_docking_score>
-7.41120176343713

> <r_i_glide_ligand_efficiency>
-0.285046221670659

> <r_i_glide_ligand_efficiency_sa>
-0.844448310096605

> <r_i_glide_ligand_efficiency_ln>
-1.74049641600675

> <r_i_glide_gscore>
-7.41120176343713

> <r_i_glide_lipo>
-2.32184475884692

> <r_i_glide_hbond>
-0.529682186426085

> <r_i_glide_metal>
0

> <r_i_glide_rewards>
-2.30355288564912

> <r_i_glide_evdw>
-39.3854446411133

> <r_i_glide_ecoul>
-6.13769721984863

> <r_i_glide_erotb>
0.633804882517952

> <r_i_glide_esite>
0

> <r_i_glide_emodel>
-59.5997861112571

> <r_i_glide_energy>
-45.5231418609619

> <r_i_glide_einternal>
7.61475419998169

> <i_i_glide_confnum>
53

> <i_i_glide_posenum>
363

> <r_i_glide_eff_state_penalty>
0

> <s_user_duplicate_titles>
CHEMBL2695_lig2065

> <s_m_subgroup_title>
dock_pv

> <s_m_subgroupid>
dock_pv

> <b_m_subgroup_collapsed>
1

$$$$
CHEMBL2695_lig1632
                    3D
 Schrodinger Suite 2021-1.
 28 31  0  0  1  0            999 V2000
    5.9722    5.1624    5.0765 N   0  0  0  0  0  0
   12.7655    4.7221    6.5579 N   0  0  0  0  0  0
    3.9010    5.0420    6.3115 N   0  0  0  0  0  0
   13.8211    3.9250    6.3090 N   0  0  0  0  0  0
    9.2482    3.5739    6.0549 C   0  0  0  0  0  0
    7.8274    3.9631    6.1295 C   0  0  0  0  0  0
   11.5660    4.0831    6.3089 C   0  0  0  0  0  0
    5.6768    3.9710    7.2098 C   0  0  0  0  0  0
   11.9191    2.7816    5.8801 C   0  0  0  0  0  0
    5.2333    4.7630    6.1118 C   0  0  0  0  0  0
   10.2369    4.5006    6.4084 C   0  0  0  0  0  0
    7.0195    3.5563    7.1988 C   0  0  0  0  0  0
    9.5848    2.2903    5.6141 C   0  0  0  0  0  0
    7.2649    4.7514    5.1226 C   0  0  0  0  0  0
   10.9125    1.8786    5.5091 C   0  0  0  0  0  0
    4.5514    3.8117    8.0830 C   0  0  0  0  0  0
   13.3431    2.7758    5.9090 C   0  0  0  0  0  0
    3.4913    4.4828    7.4980 C   0  0  0  0  0  0
   12.9056    5.6668    6.8842 H   0  0  0  0  0  0
    3.2866    5.5623    5.6944 H   0  0  0  0  0  0
    9.9726    5.4948    6.7389 H   0  0  0  0  0  0
    7.4156    2.9483    7.9999 H   0  0  0  0  0  0
    8.7984    1.6006    5.3339 H   0  0  0  0  0  0
    7.8896    5.0779    4.3065 H   0  0  0  0  0  0
   11.1551    0.8897    5.1537 H   0  0  0  0  0  0
    4.5150    3.2826    9.0247 H   0  0  0  0  0  0
   13.9964    1.9639    5.6266 H   0  0  0  0  0  0
    2.4717    4.6123    7.8323 H   0  0  0  0  0  0
  1 10  2  0  0  0
  1 14  1  0  0  0
  2  4  1  0  0  0
  2  7  1  0  0  0
  2 19  1  0  0  0
  3 10  1  0  0  0
  3 18  1  0  0  0
  3 20  1  0  0  0
  4 17  2  0  0  0
  5  6  1  0  0  0
  5 11  1  0  0  0
  5 13  2  0  0  0
  6 12  1  0  0  0
  6 14  2  0  0  0
  7  9  1  0  0  0
  7 11  2  0  0  0
  8 10  1  0  0  0
  8 12  2  0  0  0
  8 16  1  0  0  0
  9 15  2  0  0  0
  9 17  1  0  0  0
 11 21  1  0  0  0
 12 22  1  0  0  0
 13 15  1  0  0  0
 13 23  1  0  0  0
 14 24  1  0  0  0
 15 25  1  0  0  0
 16 18  2  0  0  0
 16 26  1  0  0  0
 17 27  1  0  0  0
 18 28  1  0  0  0
M  END
> <s_m_entry_id>
47666

> <s_m_entry_name>
dock_pv.199

> <s_m_Source_Path>
/home/csk/Desktop/cluster/DUD-E-result/fak1

> <s_m_Source_File>
dock_pv.maegz

> <i_m_Source_File_Index>
199

> <chembl_id>
CHEMBL1976134

> <chembl_pref_name>
None

> <i_lp_mmshare_version>
53161

> <i_f3d_flags>
0

> <r_lp_tautomer_probability>
0.980390650257986

> <s_lp_Force_Field>
OPLS_2005

> <r_lp_Energy>
10.925194

> <b_lp_Chiralities_Consistent>
1

> <s_lp_Variant>
CHEMBL2695_lig1632-1

> <s_i_glide_gridfile>
glide-grid_3bz3

> <i_i_glide_lignum>
1816

> <i_i_glide_rotatable_bonds>
1

> <r_i_docking_score>
-7.40791844797668

> <r_i_glide_ligand_efficiency>
-0.411551024887593

> <r_i_glide_ligand_efficiency_sa>
-1.07856880571286

> <r_i_glide_ligand_efficiency_ln>
-1.90416723875837

> <r_i_glide_gscore>
-7.40791844797668

> <r_i_glide_lipo>
-2.32666399677214

> <r_i_glide_hbond>
-0.32

> <r_i_glide_metal>
0

> <r_i_glide_rewards>
-2.87544068431651

> <r_i_glide_evdw>
-31.9642391204834

> <r_i_glide_ecoul>
-4.00330018997192

> <r_i_glide_erotb>
0.312893217631924

> <r_i_glide_esite>
0

> <r_i_glide_emodel>
-49.8613592254739

> <r_i_glide_energy>
-35.9675393104553

> <r_i_glide_einternal>
3.35297346115112

> <i_i_glide_confnum>
3

> <i_i_glide_posenum>
141

> <r_i_glide_eff_state_penalty>
0

> <s_user_duplicate_titles>
CHEMBL2695_lig1632

> <s_m_subgroup_title>
dock_pv

> <s_m_subgroupid>
dock_pv

> <b_m_subgroup_collapsed>
1

$$$$
CHEMBL2695_lig1628
                    3D
 Schrodinger Suite 2021-1.
 39 42  0  0  1  0            999 V2000
    9.2344    4.0926    5.9746 N   0  0  0  0  0  0
   13.4367    1.9092    5.6551 N   0  0  0  0  0  0
    9.4643    2.0792    4.8101 N   0  0  0  0  0  0
   11.5220    0.8099    4.6901 N   0  0  0  0  0  0
   11.4644    3.0282    5.7749 C   0  0  0  0  0  0
   12.5192    3.8755    6.3162 C   0  0  0  0  0  0
   10.0640    3.0687    5.5266 C   0  0  0  0  0  0
   12.1026    1.8233    5.3393 C   0  0  0  0  0  0
   12.4768    5.2403    6.9301 C   0  0  0  0  0  0
   13.6778    3.1313    6.2229 C   0  0  0  0  0  0
   10.2116    1.0217    4.4333 C   0  0  0  0  0  0
    9.2161    4.4799    7.3978 C   0  0  0  0  0  0
    7.9161    4.3714    5.3711 C   0  0  0  0  0  0
   13.2408    5.5621    8.0587 C   0  0  0  0  0  0
   11.6424    6.2082    6.3939 C   0  0  0  0  0  0
    8.0854    3.7815    8.1942 C   0  0  0  0  0  0
    6.7838    3.5723    6.0462 C   0  0  0  0  0  0
   13.1276    6.8181    8.6514 C   0  0  0  0  0  0
   11.5220    7.4666    6.9702 C   0  0  0  0  0  0
    6.7040    3.9237    7.5349 C   0  0  0  0  0  0
   12.2527    7.7596    8.1136 C   0  0  0  0  0  0
   14.1609    1.2182    5.4964 H   0  0  0  0  0  0
   14.6740    3.3967    6.5229 H   0  0  0  0  0  0
    9.6928    0.2540    3.8767 H   0  0  0  0  0  0
    9.1225    5.5621    7.4708 H   0  0  0  0  0  0
   10.1700    4.2572    7.8684 H   0  0  0  0  0  0
    7.7200    5.4393    5.4777 H   0  0  0  0  0  0
    7.9398    4.1875    4.2966 H   0  0  0  0  0  0
   13.9133    4.8357    8.4897 H   0  0  0  0  0  0
   11.1209    5.9628    5.5034 H   0  0  0  0  0  0
    8.0486    4.1959    9.2015 H   0  0  0  0  0  0
    8.3218    2.7302    8.3389 H   0  0  0  0  0  0
    6.9368    2.5016    5.9048 H   0  0  0  0  0  0
    5.8344    3.7999    5.5622 H   0  0  0  0  0  0
   13.7314    7.0641    9.5086 H   0  0  0  0  0  0
   10.8671    8.2057    6.5335 H   0  0  0  0  0  0
    5.9676    3.2978    8.0417 H   0  0  0  0  0  0
    6.3557    4.9500    7.6244 H   0  0  0  0  0  0
   12.1416    8.7333    8.5702 H   0  0  0  0  0  0
  1  7  1  0  0  0
  1 12  1  0  0  0
  1 13  1  0  0  0
  2  8  1  0  0  0
  2 10  1  0  0  0
  2 22  1  0  0  0
  3  7  2  0  0  0
  3 11  1  0  0  0
  4  8  1  0  0  0
  4 11  2  0  0  0
  5  6  1  0  0  0
  5  7  1  0  0  0
  5  8  2  0  0  0
  6  9  1  0  0  0
  6 10  2  0  0  0
  9 14  2  0  0  0
  9 15  1  0  0  0
 10 23  1  0  0  0
 11 24  1  0  0  0
 12 16  1  0  0  0
 12 25  1  0  0  0
 12 26  1  0  0  0
 13 17  1  0  0  0
 13 27  1  0  0  0
 13 28  1  0  0  0
 14 18  1  0  0  0
 14 29  1  0  0  0
 15 19  2  0  0  0
 15 30  1  0  0  0
 16 20  1  0  0  0
 16 31  1  0  0  0
 16 32  1  0  0  0
 17 20  1  0  0  0
 17 33  1  0  0  0
 17 34  1  0  0  0
 18 21  2  0  0  0
 18 35  1  0  0  0
 19 21  1  0  0  0
 19 36  1  0  0  0
 20 37  1  0  0  0
 20 38  1  0  0  0
 21 39  1  0  0  0
M  END
> <s_m_entry_id>
47667

> <s_m_entry_name>
dock_pv.200

> <s_m_Source_Path>
/home/csk/Desktop/cluster/DUD-E-result/fak1

> <s_m_Source_File>
dock_pv.maegz

> <i_m_Source_File_Index>
200

> <chembl_id>
CHEMBL1998953

> <chembl_pref_name>
None

> <i_lp_mmshare_version>
53161

> <i_f3d_flags>
0

> <r_lp_tautomer_probability>
0.999998369746258

> <s_lp_Force_Field>
OPLS_2005

> <r_lp_Energy>
20.042768

> <b_lp_Chiralities_Consistent>
1

> <s_lp_Variant>
CHEMBL2695_lig1628-1

> <s_i_glide_gridfile>
glide-grid_3bz3

> <i_i_glide_lignum>
1810

> <i_i_glide_rotatable_bonds>
2

> <r_i_docking_score>
-7.39452455268392

> <r_i_glide_ligand_efficiency>
-0.352120216794472

> <r_i_glide_ligand_efficiency_sa>
-0.971472978120941

> <r_i_glide_ligand_efficiency_ln>
-1.82828125360732

> <r_i_glide_gscore>
-7.39452455268392

> <r_i_glide_lipo>
-3.60190605994376

> <r_i_glide_hbond>
-0.32

> <r_i_glide_metal>
0

> <r_i_glide_rewards>
-2.42911584325982

> <r_i_glide_evdw>
-31.617259979248

> <r_i_glide_ecoul>
0.480590343475342

> <r_i_glide_erotb>
0.46527179796076

> <r_i_glide_esite>
0

> <r_i_glide_emodel>
-33.1038152474359

> <r_i_glide_energy>
-31.1366696357727

> <r_i_glide_einternal>
4.07881307601929

> <i_i_glide_confnum>
15

> <i_i_glide_posenum>
52

> <r_i_glide_eff_state_penalty>
0

> <s_user_duplicate_titles>
CHEMBL2695_lig1628

> <s_m_subgroup_title>
dock_pv

> <s_m_subgroupid>
dock_pv

> <b_m_subgroup_collapsed>
1

$$$$
CHEMBL2695_lig1562
                    3D
 Schrodinger Suite 2021-1.
 29 31  0  0  1  0            999 V2000
    9.1222    4.9781    9.9091 O   0  0  0  0  0  0
    5.4537    2.3630    4.3102 O   0  0  0  0  0  0
    7.1911    3.9666    9.2862 N   0  0  0  0  0  0
   11.1326    6.2224    8.3719 N   0  0  0  0  0  0
   13.1519    5.8953    7.5090 N   0  0  0  0  0  0
    7.4195    3.7225    7.0819 C   0  0  0  0  0  0
    8.6287    4.3580    7.6081 C   0  0  0  0  0  0
    6.5796    3.5046    8.1500 C   0  0  0  0  0  0
    8.4009    4.4944    9.0434 C   0  0  0  0  0  0
    7.0217    3.3320    5.7997 C   0  0  0  0  0  0
    9.7535    4.7306    6.9430 C   0  0  0  0  0  0
    5.3350    2.9019    7.9956 C   0  0  0  0  0  0
    5.7752    2.7220    5.6044 C   0  0  0  0  0  0
   11.0077    5.3580    7.3678 C   0  0  0  0  0  0
    4.9351    2.5116    6.7157 C   0  0  0  0  0  0
   12.2570    5.1645    6.7761 C   0  0  0  0  0  0
   12.4039    6.5263    8.4584 C   0  0  0  0  0  0
    4.2656    1.6198    4.0685 C   0  0  0  0  0  0
    6.7826    3.9308   10.2076 H   0  0  0  0  0  0
   14.1534    5.9633    7.3771 H   0  0  0  0  0  0
    7.6665    3.4860    4.9471 H   0  0  0  0  0  0
    9.7653    4.5144    5.8846 H   0  0  0  0  0  0
    4.6843    2.7311    8.8412 H   0  0  0  0  0  0
    3.9702    2.0432    6.6021 H   0  0  0  0  0  0
   12.5791    4.5570    5.9424 H   0  0  0  0  0  0
   12.8700    7.1888    9.1730 H   0  0  0  0  0  0
    4.2113    1.3643    3.0104 H   0  0  0  0  0  0
    4.2525    0.6876    4.6340 H   0  0  0  0  0  0
    3.3753    2.2012    4.3138 H   0  0  0  0  0  0
  1  9  2  0  0  0
  2 13  1  0  0  0
  2 18  1  0  0  0
  3  8  1  0  0  0
  3  9  1  0  0  0
  3 19  1  0  0  0
  4 14  1  0  0  0
  4 17  2  0  0  0
  5 16  1  0  0  0
  5 17  1  0  0  0
  5 20  1  0  0  0
  6  7  1  0  0  0
  6  8  1  0  0  0
  6 10  2  0  0  0
  7  9  1  0  0  0
  7 11  2  3  0  0
  8 12  2  0  0  0
 10 13  1  0  0  0
 10 21  1  0  0  0
 11 14  1  0  0  0
 11 22  1  0  0  0
 12 15  1  0  0  0
 12 23  1  0  0  0
 13 15  2  0  0  0
 14 16  2  0  0  0
 15 24  1  0  0  0
 16 25  1  0  0  0
 17 26  1  0  0  0
 18 27  1  0  0  0
 18 28  1  0  0  0
 18 29  1  0  0  0
M  END
> <s_m_entry_id>
47668

> <s_m_entry_name>
dock_pv.201

> <s_m_Source_Path>
/home/csk/Desktop/cluster/DUD-E-result/fak1

> <s_m_Source_File>
dock_pv.maegz

> <i_m_Source_File_Index>
201

> <chembl_id>
CHEMBL2002649

> <chembl_pref_name>
None

> <i_lp_mmshare_version>
53161

> <i_f3d_flags>
0

> <r_lp_tautomer_probability>
1

> <s_lp_Force_Field>
OPLS_2005

> <r_lp_Energy>
36.825409

> <b_lp_Chiralities_Consistent>
1

> <s_lp_Variant>
CHEMBL2695_lig1562-1

> <s_i_glide_gridfile>
glide-grid_3bz3

> <i_i_glide_lignum>
1720

> <i_i_glide_rotatable_bonds>
2

> <r_i_docking_score>
-7.389053998684

> <r_i_glide_ligand_efficiency>
-0.410502999926889

> <r_i_glide_ligand_efficiency_sa>
-1.07582220331882

> <r_i_glide_ligand_efficiency_ln>
-1.8993182293406

> <r_i_glide_gscore>
-7.389053998684

> <r_i_glide_lipo>
-1.31427620156774

> <r_i_glide_hbond>
-0.187039681612792

> <r_i_glide_metal>
0

> <r_i_glide_rewards>
-3.78127661438195

> <r_i_glide_evdw>
-29.1266345977783

> <r_i_glide_ecoul>
-4.33419847488403

> <r_i_glide_erotb>
0

> <r_i_glide_esite>
0

> <r_i_glide_emodel>
-48.0972615297456

> <r_i_glide_energy>
-33.4608330726624

> <r_i_glide_einternal>
0.660278856754303

> <i_i_glide_confnum>
1

> <i_i_glide_posenum>
133

> <r_i_glide_eff_state_penalty>
0

> <s_user_duplicate_titles>
CHEMBL2695_lig1562,CHEMBL2695_lig1562

> <s_m_subgroup_title>
dock_pv

> <s_m_subgroupid>
dock_pv

> <b_m_subgroup_collapsed>
1

$$$$
CHEMBL2695_lig1354
                    3D
 Schrodinger Suite 2021-1.
 56 59  0  0  1  0            999 V2000
    6.7478    4.3718   11.3612 C   0  0  0  0  0  0
    6.6257    3.9626    9.9723 N   0  0  0  0  0  0
    7.6666    3.9660    9.1276 C   0  0  0  0  0  0
    8.7745    4.3383    9.5082 O   0  0  0  0  0  0
    7.4191    3.5085    7.6944 C   0  0  0  0  0  0
    6.2124    2.8578    7.3720 C   0  0  0  0  0  0
    5.9758    2.3629    6.0942 C   0  0  0  0  0  0
    6.9432    2.4916    5.1081 C   0  0  0  0  0  0
    8.1358    3.1453    5.3886 C   0  0  0  0  0  0
    8.3919    3.6547    6.6675 C   0  0  0  0  0  0
    9.6046    4.3303    6.8918 N   0  0  0  0  0  0
   10.9159    4.0244    6.5152 C   0  0  0  0  0  0
   11.1588    2.8923    5.7958 N   0  0  0  0  0  0
   12.4615    2.5642    5.5638 C   0  0  0  0  0  0
   12.8005    1.5175    4.7094 N   0  0  0  0  0  0
   11.9699    0.7630    3.9090 C   0  0  0  0  0  0
   10.6146    0.4858    3.9108 C   0  0  0  0  0  0
   10.3873   -0.4371    2.8852 C   0  0  0  0  0  0
    9.0905   -1.0829    2.4680 C   0  0  0  0  0  0
   11.5051   -0.7236    2.2566 N   0  0  0  0  0  0
   12.4491    0.0226    2.8477 N   0  0  0  0  0  0
   13.8286   -0.1204    2.4000 C   0  0  0  0  0  0
   13.5303    3.2534    6.0151 N   0  0  0  0  0  0
   13.2443    4.3727    6.7089 C   0  0  0  0  0  0
   14.1927    5.1630    7.3244 N   0  0  0  0  0  0
   13.5632    6.3155    7.9483 C   0  0  0  0  0  0
   12.0396    6.1318    7.7587 C   0  0  0  0  0  0
   11.4267    7.2937    6.9466 C   0  0  0  0  0  0
   11.3993    6.0671    9.1565 C   0  0  0  0  0  0
   11.9658    4.8289    6.9751 C   0  0  0  0  0  0
    5.9220    3.9638   11.9228 H   0  0  0  0  0  0
    6.7221    5.4581   11.4427 H   0  0  0  0  0  0
    7.6683    4.0105   11.8220 H   0  0  0  0  0  0
    5.7064    3.7092    9.6444 H   0  0  0  0  0  0
    5.4408    2.6939    8.1104 H   0  0  0  0  0  0
    5.0554    1.8413    5.8746 H   0  0  0  0  0  0
    6.7729    2.0750    4.1254 H   0  0  0  0  0  0
    8.8608    3.2557    4.5953 H   0  0  0  0  0  0
    9.5727    4.9376    7.6984 H   0  0  0  0  0  0
   13.8017    1.4229    4.6308 H   0  0  0  0  0  0
    9.8711    0.8785    4.5884 H   0  0  0  0  0  0
    8.2444   -0.6730    3.0205 H   0  0  0  0  0  0
    8.8813   -0.9269    1.4097 H   0  0  0  0  0  0
    9.0974   -2.1581    2.6468 H   0  0  0  0  0  0
   14.3412    0.8386    2.4788 H   0  0  0  0  0  0
   14.3373   -0.8544    3.0265 H   0  0  0  0  0  0
   13.8599   -0.4468    1.3588 H   0  0  0  0  0  0
   15.2034    5.1540    7.3876 H   0  0  0  0  0  0
   13.8580    6.3451    8.9984 H   0  0  0  0  0  0
   13.9225    7.2430    7.5091 H   0  0  0  0  0  0
   11.4846    8.2402    7.4866 H   0  0  0  0  0  0
   11.9220    7.4309    5.9898 H   0  0  0  0  0  0
   10.3809    7.1019    6.7094 H   0  0  0  0  0  0
   11.7539    6.8898    9.7700 H   0  0  0  0  0  0
   10.3200    6.1565    9.1086 H   0  0  0  0  0  0
   11.6645    5.1641    9.7003 H   0  0  0  0  0  0
  1  2  1  0  0  0
  1 31  1  0  0  0
  1 32  1  0  0  0
  1 33  1  0  0  0
  2  3  1  0  0  0
  2 34  1  0  0  0
  3  4  2  0  0  0
  3  5  1  0  0  0
  5  6  2  0  0  0
  5 10  1  0  0  0
  6  7  1  0  0  0
  6 35  1  0  0  0
  7  8  2  0  0  0
  7 36  1  0  0  0
  8  9  1  0  0  0
  8 37  1  0  0  0
  9 10  2  0  0  0
  9 38  1  0  0  0
 10 11  1  0  0  0
 11 12  1  0  0  0
 11 39  1  0  0  0
 12 13  2  0  0  0
 12 30  1  0  0  0
 13 14  1  0  0  0
 14 15  1  0  0  0
 14 23  2  0  0  0
 15 16  1  0  0  0
 15 40  1  0  0  0
 16 17  2  0  0  0
 16 21  1  0  0  0
 17 18  1  0  0  0
 17 41  1  0  0  0
 18 19  1  0  0  0
 18 20  2  0  0  0
 19 42  1  0  0  0
 19 43  1  0  0  0
 19 44  1  0  0  0
 20 21  1  0  0  0
 21 22  1  0  0  0
 22 45  1  0  0  0
 22 46  1  0  0  0
 22 47  1  0  0  0
 23 24  1  0  0  0
 24 25  1  0  0  0
 24 30  2  0  0  0
 25 26  1  0  0  0
 25 48  1  0  0  0
 26 27  1  0  0  0
 26 49  1  0  0  0
 26 50  1  0  0  0
 27 28  1  0  0  0
 27 29  1  0  0  0
 27 30  1  0  0  0
 28 51  1  0  0  0
 28 52  1  0  0  0
 28 53  1  0  0  0
 29 54  1  0  0  0
 29 55  1  0  0  0
 29 56  1  0  0  0
M  END
> <s_m_entry_id>
47669

> <s_m_entry_name>
dock_pv.202

> <s_m_Source_Path>
/home/csk/Desktop/cluster/DUD-E-result/fak1

> <s_m_Source_File>
dock_pv.maegz

> <i_m_Source_File_Index>
202

> <chembl_id>
CHEMBL3957673

> <chembl_pref_name>
None

> <i_lp_mmshare_version>
53161

> <i_f3d_flags>
0

> <r_lp_tautomer_probability>
1

> <s_lp_Force_Field>
OPLS_2005

> <r_lp_Energy>
31.891032

> <b_lp_Chiralities_Consistent>
1

> <s_lp_Variant>
CHEMBL2695_lig1354-1

> <s_i_glide_gridfile>
glide-grid_3bz3

> <i_i_glide_lignum>
1484

> <i_i_glide_rotatable_bonds>
6

> <r_i_docking_score>
-7.38343226477234

> <r_i_glide_ligand_efficiency>
-0.246114408825745

> <r_i_glide_ligand_efficiency_sa>
-0.764734690419966

> <r_i_glide_ligand_efficiency_ln>
-1.67759625949425

> <r_i_glide_gscore>
-7.38343226477234

> <r_i_glide_lipo>
-2.95539735125249

> <r_i_glide_hbond>
-0.218633287753632

> <r_i_glide_metal>
0

> <r_i_glide_rewards>
-1.77353705583999

> <r_i_glide_evdw>
-41.4258117675781

> <r_i_glide_ecoul>
-6.30123043060303

> <r_i_glide_erotb>
0.595013244788075

> <r_i_glide_esite>
-0.014402661744942

> <r_i_glide_emodel>
-64.3887987112946

> <r_i_glide_energy>
-47.7270421981812

> <r_i_glide_einternal>
5.28947591781616

> <i_i_glide_confnum>
1

> <i_i_glide_posenum>
246

> <r_i_glide_eff_state_penalty>
0

> <s_user_duplicate_titles>
CHEMBL2695_lig1354

> <s_m_subgroup_title>
dock_pv

> <s_m_subgroupid>
dock_pv

> <b_m_subgroup_collapsed>
1

$$$$
CHEMBL2695_lig1754
                    3D
 Schrodinger Suite 2021-1.
 45 47  0  0  1  0            999 V2000
    7.5219    4.1083   10.4978 Cl  0  0  0  0  0  0
    4.8925    4.2182    5.1661 O   0  0  0  0  0  0
    3.5213   -0.7226    4.6077 O   0  0  0  0  0  0
    5.0484    1.9631    5.0503 N   0  0  0  0  0  0
   14.1403    3.5631    6.4400 N   0  0  0  0  0  0
    7.0907    3.2711    5.2040 C   0  0  0  0  0  0
    9.8877    3.4043    5.6364 C   0  0  0  0  0  0
    5.5812    3.1990    5.1088 C   0  0  0  0  0  0
   11.3623    3.4626    5.9104 C   0  0  0  0  0  0
    7.8917    2.1265    5.1093 C   0  0  0  0  0  0
    7.7121    4.4926    5.4679 C   0  0  0  0  0  0
    9.2583    2.1898    5.3342 C   0  0  0  0  0  0
    9.0856    4.5535    5.6842 C   0  0  0  0  0  0
    3.6976    1.5939    5.4906 C   0  0  2  0  0  0
    4.6277    1.8142    7.9120 C   0  0  0  0  0  0
    3.6803    1.0802    6.9652 C   0  0  0  0  0  0
   11.9685    4.6109    6.4601 C   0  0  0  0  0  0
   12.2034    2.3653    5.6435 C   0  0  0  0  0  0
    4.1690    2.8645    8.7082 C   0  0  0  0  0  0
    5.9812    1.4619    7.9289 C   0  0  0  0  0  0
    3.0456    0.6094    4.4884 C   0  0  0  0  0  0
    6.4195    3.2257    9.5065 C   0  0  0  0  0  0
   13.3405    4.6215    6.7088 C   0  0  0  0  0  0
   13.5660    2.4576    5.9089 C   0  0  0  0  0  0
    5.0698    3.5626    9.5090 C   0  0  0  0  0  0
    6.8797    2.1799    8.7115 C   0  0  0  0  0  0
    4.4917   -0.7250    4.7026 H   0  0  0  0  0  0
    5.6826    1.1839    4.9187 H   0  0  0  0  0  0
    7.4714    1.1631    4.8818 H   0  0  0  0  0  0
    7.1297    5.4006    5.5324 H   0  0  0  0  0  0
    9.7984    1.2595    5.2843 H   0  0  0  0  0  0
    9.5014    5.5220    5.9091 H   0  0  0  0  0  0
    3.0817    2.4986    5.4606 H   0  0  0  0  0  0
    3.9766    0.0310    7.0002 H   0  0  0  0  0  0
    2.6635    1.0886    7.3590 H   0  0  0  0  0  0
   11.4039    5.4926    6.7151 H   0  0  0  0  0  0
   11.8383    1.4498    5.2079 H   0  0  0  0  0  0
    3.1275    3.1494    8.6995 H   0  0  0  0  0  0
    6.3408    0.6493    7.3139 H   0  0  0  0  0  0
    1.9627    0.6080    4.6150 H   0  0  0  0  0  0
    3.2165    0.9510    3.4663 H   0  0  0  0  0  0
   13.8226    5.4888    7.1389 H   0  0  0  0  0  0
   14.2244    1.6318    5.6878 H   0  0  0  0  0  0
    4.7222    4.3618   10.1421 H   0  0  0  0  0  0
    7.9216    1.9109    8.7151 H   0  0  0  0  0  0
  1 22  1  0  0  0
  2  8  2  0  0  0
  3 21  1  0  0  0
  3 27  1  0  0  0
  4  8  1  0  0  0
  4 14  1  0  0  0
  4 28  1  0  0  0
  5 23  2  0  0  0
  5 24  1  0  0  0
  6  8  1  0  0  0
  6 10  2  0  0  0
  6 11  1  0  0  0
  7  9  1  0  0  0
  7 12  2  0  0  0
  7 13  1  0  0  0
  9 17  2  0  0  0
  9 18  1  0  0  0
 10 12  1  0  0  0
 10 29  1  0  0  0
 11 13  2  0  0  0
 11 30  1  0  0  0
 12 31  1  0  0  0
 13 32  1  0  0  0
 14 16  1  0  0  0
 14 21  1  0  0  0
 14 33  1  0  0  0
 15 16  1  0  0  0
 15 19  2  0  0  0
 15 20  1  0  0  0
 16 34  1  0  0  0
 16 35  1  0  0  0
 17 23  1  0  0  0
 17 36  1  0  0  0
 18 24  2  0  0  0
 18 37  1  0  0  0
 19 25  1  0  0  0
 19 38  1  0  0  0
 20 26  2  0  0  0
 20 39  1  0  0  0
 21 40  1  0  0  0
 21 41  1  0  0  0
 22 25  2  0  0  0
 22 26  1  0  0  0
 23 42  1  0  0  0
 24 43  1  0  0  0
 25 44  1  0  0  0
 26 45  1  0  0  0
M  END
> <s_m_entry_id>
47670

> <s_m_entry_name>
dock_pv.203

> <s_m_Source_Path>
/home/csk/Desktop/cluster/DUD-E-result/fak1

> <s_m_Source_File>
dock_pv.maegz

> <i_m_Source_File_Index>
203

> <chembl_id>
CHEMBL1996931

> <chembl_pref_name>
None

> <i_lp_mmshare_version>
53161

> <i_f3d_flags>
0

> <r_lp_tautomer_probability>
1

> <s_lp_Force_Field>
OPLS_2005

> <r_lp_Energy>
17.153471

> <b_lp_Chiralities_Consistent>
1

> <s_lp_Variant>
CHEMBL2695_lig1754-1

> <s_i_glide_gridfile>
glide-grid_3bz3

> <i_i_glide_lignum>
1996

> <i_i_glide_rotatable_bonds>
8

> <r_i_docking_score>
-7.38297670973632

> <r_i_glide_ligand_efficiency>
-0.283960642682166

> <r_i_glide_ligand_efficiency_sa>
-0.841232286614743

> <r_i_glide_ligand_efficiency_ln>
-1.73386785475907

> <r_i_glide_gscore>
-7.38297670973632

> <r_i_glide_lipo>
-2.91537018306709

> <r_i_glide_hbond>
-0.409508917246865

> <r_i_glide_metal>
0

> <r_i_glide_rewards>
-1.62786215227707

> <r_i_glide_evdw>
-35.5963478088379

> <r_i_glide_ecoul>
-9.51367282867432

> <r_i_glide_erotb>
0.858364241424846

> <r_i_glide_esite>
-0.0817313838270961

> <r_i_glide_emodel>
-61.2737131991703

> <r_i_glide_energy>
-45.1100206375122

> <r_i_glide_einternal>
11.6896104812622

> <i_i_glide_confnum>
16

> <i_i_glide_posenum>
362

> <r_i_glide_eff_state_penalty>
0

> <s_user_duplicate_titles>
CHEMBL2695_lig1754

> <s_m_subgroup_title>
dock_pv

> <s_m_subgroupid>
dock_pv

> <b_m_subgroup_collapsed>
1

$$$$
CHEMBL2695_lig1850
                    3D
 Schrodinger Suite 2021-1.
 44 47  0  0  1  0            999 V2000
   11.1222    6.6785    7.7948 O   0  0  0  0  0  0
   11.8084    0.7630    5.4517 O   0  0  0  0  0  0
    9.3662    4.7637    6.8884 N   0  0  0  0  0  0
   10.3219    0.7635    3.7357 N   0  0  0  0  0  0
   10.2376    2.4903    5.4838 C   0  0  0  0  0  0
    8.8271    2.7703    5.5937 C   0  0  0  0  0  0
    8.4489    3.9453    6.3194 C   0  0  0  0  0  0
   10.6835    4.5286    6.7087 C   0  0  0  0  0  0
   11.1411    3.4124    6.0286 C   0  0  0  0  0  0
   10.8354    1.2436    4.8858 C   0  0  0  0  0  0
   11.6335    5.5136    7.3148 C   0  0  0  0  0  0
    7.7744    1.9672    5.0687 C   0  0  0  0  0  0
    7.0820    4.2881    6.4696 C   0  0  0  0  0  0
   10.7783   -0.3532    3.0138 C   0  0  0  0  0  0
   13.0127    5.5205    7.5094 C   0  0  0  0  0  0
    6.4434    2.3585    5.1978 C   0  0  0  0  0  0
    6.0945    3.5052    5.8913 C   0  0  0  0  0  0
   12.1008   -0.5101    2.5364 C   0  0  0  0  0  0
    9.8163   -1.3225    2.7115 C   0  0  0  0  0  0
   12.1525    7.4035    8.2990 C   0  0  0  0  0  0
   13.3365    6.7080    8.1631 C   0  0  0  0  0  0
   10.1599   -2.4749    2.0045 C   0  0  0  0  0  0
   12.4311   -1.6688    1.8264 C   0  0  0  0  0  0
   11.4742   -2.6502    1.5702 C   0  0  0  0  0  0
   13.1886    0.5455    2.7088 C   0  0  0  0  0  0
    9.1102   -3.5391    1.7386 C   0  0  0  0  0  0
    9.4745    1.1886    3.3772 H   0  0  0  0  0  0
   12.2073    3.2478    5.9505 H   0  0  0  0  0  0
    7.9775    1.0453    4.5490 H   0  0  0  0  0  0
    6.8019    5.1632    7.0351 H   0  0  0  0  0  0
   13.7056    4.7411    7.2309 H   0  0  0  0  0  0
    5.6686    1.7337    4.7750 H   0  0  0  0  0  0
    5.0538    3.7743    6.0007 H   0  0  0  0  0  0
    8.7967   -1.1946    3.0506 H   0  0  0  0  0  0
   11.9007    8.3683    8.7072 H   0  0  0  0  0  0
   14.3214    7.0268    8.4780 H   0  0  0  0  0  0
   13.4394   -1.8156    1.4703 H   0  0  0  0  0  0
   11.7546   -3.5429    1.0293 H   0  0  0  0  0  0
   12.7697    1.5498    2.7094 H   0  0  0  0  0  0
   13.7363    0.3914    3.6379 H   0  0  0  0  0  0
   13.9018    0.5181    1.8846 H   0  0  0  0  0  0
    8.4819   -3.6802    2.6200 H   0  0  0  0  0  0
    8.4645   -3.2371    0.9140 H   0  0  0  0  0  0
    9.5613   -4.5054    1.5085 H   0  0  0  0  0  0
  1 11  1  0  0  0
  1 20  1  0  0  0
  2 10  2  0  0  0
  3  7  1  0  0  0
  3  8  2  0  0  0
  4 10  1  0  0  0
  4 14  1  0  0  0
  4 27  1  0  0  0
  5  6  1  0  0  0
  5  9  2  0  0  0
  5 10  1  0  0  0
  6  7  1  0  0  0
  6 12  2  0  0  0
  7 13  2  0  0  0
  8  9  1  0  0  0
  8 11  1  0  0  0
  9 28  1  0  0  0
 11 15  2  0  0  0
 12 16  1  0  0  0
 12 29  1  0  0  0
 13 17  1  0  0  0
 13 30  1  0  0  0
 14 18  1  0  0  0
 14 19  2  0  0  0
 15 21  1  0  0  0
 15 31  1  0  0  0
 16 17  2  0  0  0
 16 32  1  0  0  0
 17 33  1  0  0  0
 18 23  2  0  0  0
 18 25  1  0  0  0
 19 22  1  0  0  0
 19 34  1  0  0  0
 20 21  2  0  0  0
 20 35  1  0  0  0
 21 36  1  0  0  0
 22 24  2  0  0  0
 22 26  1  0  0  0
 23 24  1  0  0  0
 23 37  1  0  0  0
 24 38  1  0  0  0
 25 39  1  0  0  0
 25 40  1  0  0  0
 25 41  1  0  0  0
 26 42  1  0  0  0
 26 43  1  0  0  0
 26 44  1  0  0  0
M  END
> <s_m_entry_id>
47671

> <s_m_entry_name>
dock_pv.204

> <s_m_Source_Path>
/home/csk/Desktop/cluster/DUD-E-result/fak1

> <s_m_Source_File>
dock_pv.maegz

> <i_m_Source_File_Index>
204

> <chembl_id>
CHEMBL1984296

> <chembl_pref_name>
None

> <i_lp_mmshare_version>
53161

> <i_f3d_flags>
0

> <r_lp_tautomer_probability>
1

> <s_lp_Force_Field>
OPLS_2005

> <r_lp_Energy>
25.442739

> <b_lp_Chiralities_Consistent>
1

> <s_lp_Variant>
CHEMBL2695_lig1850-1

> <s_i_glide_gridfile>
glide-grid_3bz3

> <i_i_glide_lignum>
2136

> <i_i_glide_rotatable_bonds>
4

> <r_i_docking_score>
-7.37895951760676

> <r_i_glide_ligand_efficiency>
-0.283806135292568

> <r_i_glide_ligand_efficiency_sa>
-0.840774559081013

> <r_i_glide_ligand_efficiency_ln>
-1.73292443036892

> <r_i_glide_gscore>
-7.37895951760676

> <r_i_glide_lipo>
-2.75710498776924

> <r_i_glide_hbond>
-0.32

> <r_i_glide_metal>
0

> <r_i_glide_rewards>
-2.29345877904181

> <r_i_glide_evdw>
-35.4903755187988

> <r_i_glide_ecoul>
-5.87245607376099

> <r_i_glide_erotb>
0.646991436208383

> <r_i_glide_esite>
0

> <r_i_glide_emodel>
-55.2250970584565

> <r_i_glide_energy>
-41.3628315925598

> <r_i_glide_einternal>
6.45089054107666

> <i_i_glide_confnum>
5

> <i_i_glide_posenum>
338

> <r_i_glide_eff_state_penalty>
0

> <s_user_duplicate_titles>
CHEMBL2695_lig1850

> <s_m_subgroup_title>
dock_pv

> <s_m_subgroupid>
dock_pv

> <b_m_subgroup_collapsed>
1

$$$$
CHEMBL2695_lig2117
                    3D
 Schrodinger Suite 2021-1.
 49 52  0  0  1  0            999 V2000
    5.2555    3.8100    8.3831 O   0  0  0  0  0  0
   13.8643    4.3632    6.7268 N   0  0  0  0  0  0
   13.9220    5.4551    7.5090 N   0  0  0  0  0  0
    6.3082    4.7304    4.9444 N   0  0  0  0  0  0
    1.7734    3.9161    9.6312 N   0  0  0  0  0  0
   11.7578    5.2135    7.2023 C   0  0  0  0  0  0
   12.5201    4.1984    6.5554 C   0  0  0  0  0  0
    9.7218    4.1668    6.4225 C   0  0  0  0  0  0
   10.3622    5.1828    7.1322 C   0  0  0  0  0  0
   12.7237    6.0408    7.8303 C   0  0  0  0  0  0
    8.2483    4.2001    6.2958 C   0  0  0  0  0  0
   11.8688    3.1398    5.9090 C   0  0  0  0  0  0
   10.4757    3.1549    5.8268 C   0  0  0  0  0  0
    7.4105    3.9491    7.3894 C   0  0  0  0  0  0
    6.0238    4.0787    7.2675 C   0  0  0  0  0  0
    7.6459    4.5645    5.0897 C   0  0  0  0  0  0
    5.5210    4.4880    6.0203 C   0  0  0  0  0  0
   12.6199    7.2788    8.6869 C   0  0  0  0  0  0
    3.8442    4.0077    8.3098 C   0  0  0  0  0  0
    3.1671    3.4941    9.6017 C   0  0  2  0  0  0
    2.8340    1.0946    8.6396 C   0  0  0  0  0  0
    3.2782    1.9662    9.8129 C   0  0  0  0  0  0
    3.7956    0.3916    7.9084 C   0  0  0  0  0  0
    1.4812    0.9719    8.3096 C   0  0  0  0  0  0
    3.4059   -0.4349    6.8599 C   0  0  0  0  0  0
    1.0920    0.1546    7.2520 C   0  0  0  0  0  0
    2.0571   -0.5461    6.5320 C   0  0  0  0  0  0
   14.8207    5.8275    7.8093 H   0  0  0  0  0  0
    1.7527    4.9284    9.6247 H   0  0  0  0  0  0
    1.3236    3.6205    8.7767 H   0  0  0  0  0  0
    9.7918    5.9566    7.6157 H   0  0  0  0  0  0
   12.4336    2.3420    5.4506 H   0  0  0  0  0  0
    9.9721    2.3621    5.2919 H   0  0  0  0  0  0
    7.8315    3.6616    8.3416 H   0  0  0  0  0  0
    8.2462    4.7713    4.2167 H   0  0  0  0  0  0
    4.4656    4.6313    5.8463 H   0  0  0  0  0  0
   12.2606    8.1344    8.1140 H   0  0  0  0  0  0
   11.9228    7.1224    9.5084 H   0  0  0  0  0  0
   13.5744    7.5629    9.1313 H   0  0  0  0  0  0
    3.4184    3.4913    7.4467 H   0  0  0  0  0  0
    3.6445    5.0718    8.1691 H   0  0  0  0  0  0
    3.6578    3.9630   10.4554 H   0  0  0  0  0  0
    2.7290    1.6740   10.7080 H   0  0  0  0  0  0
    4.3193    1.7308   10.0418 H   0  0  0  0  0  0
    4.8456    0.4773    8.1524 H   0  0  0  0  0  0
    0.7305    1.5037    8.8758 H   0  0  0  0  0  0
    4.1531   -0.9797    6.3015 H   0  0  0  0  0  0
    0.0489    0.0637    6.9895 H   0  0  0  0  0  0
    1.7596   -1.1782    5.7081 H   0  0  0  0  0  0
  1 15  1  0  0  0
  1 19  1  0  0  0
  2  3  1  0  0  0
  2  7  2  0  0  0
  3 28  1  0  0  0
  3 10  1  0  0  0
  4 16  1  0  0  0
  4 17  2  0  0  0
  5 20  1  0  0  0
  5 29  1  0  0  0
  5 30  1  0  0  0
  6  9  1  0  0  0
  6  7  1  0  0  0
  6 10  2  0  0  0
  7 12  1  0  0  0
  8 13  1  0  0  0
  8 11  1  0  0  0
  8  9  2  0  0  0
  9 31  1  0  0  0
 10 18  1  0  0  0
 11 14  1  0  0  0
 11 16  2  0  0  0
 12 32  1  0  0  0
 12 13  2  0  0  0
 13 33  1  0  0  0
 14 15  2  0  0  0
 14 34  1  0  0  0
 15 17  1  0  0  0
 16 35  1  0  0  0
 17 36  1  0  0  0
 18 37  1  0  0  0
 18 38  1  0  0  0
 18 39  1  0  0  0
 19 20  1  0  0  0
 19 40  1  0  0  0
 19 41  1  0  0  0
 20 22  1  0  0  0
 20 42  1  0  0  0
 21 22  1  0  0  0
 21 23  2  0  0  0
 21 24  1  0  0  0
 22 43  1  0  0  0
 22 44  1  0  0  0
 23 25  1  0  0  0
 23 45  1  0  0  0
 24 26  2  0  0  0
 24 46  1  0  0  0
 25 27  2  0  0  0
 25 47  1  0  0  0
 26 27  1  0  0  0
 26 48  1  0  0  0
 27 49  1  0  0  0
M  END
> <s_m_entry_id>
47672

> <s_m_entry_name>
dock_pv.205

> <s_m_Source_Path>
/home/csk/Desktop/cluster/DUD-E-result/fak1

> <s_m_Source_File>
dock_pv.maegz

> <i_m_Source_File_Index>
205

> <chembl_id>
CHEMBL2002726

> <chembl_pref_name>
None

> <i_lp_mmshare_version>
53161

> <i_f3d_flags>
0

> <r_lp_tautomer_probability>
0.0196078431372549

> <s_lp_Force_Field>
OPLS_2005

> <r_lp_Energy>
40.165623

> <b_lp_Chiralities_Consistent>
1

> <s_lp_Variant>
CHEMBL2695_lig2117-3

> <s_i_glide_gridfile>
glide-grid_3bz3

> <i_i_glide_lignum>
2560

> <i_i_glide_rotatable_bonds>
6

> <r_i_docking_score>
-7.37822022696478

> <r_i_glide_ligand_efficiency>
-0.27326741581351

> <r_i_glide_ligand_efficiency_sa>
-0.819802246539886

> <r_i_glide_ligand_efficiency_ln>
-1.71752802937032

> <r_i_glide_gscore>
-7.37822022696478

> <r_i_glide_lipo>
-3.01019102042121

> <r_i_glide_hbond>
-0.328685907026774

> <r_i_glide_metal>
0

> <r_i_glide_rewards>
-1.83518631200574

> <r_i_glide_evdw>
-36.8729362487793

> <r_i_glide_ecoul>
-7.37337255477905

> <r_i_glide_erotb>
0.745495708144768

> <r_i_glide_esite>
0

> <r_i_glide_emodel>
-60.8556708149087

> <r_i_glide_energy>
-44.2463088035583

> <r_i_glide_einternal>
5.00350332260132

> <i_i_glide_confnum>
34

> <i_i_glide_posenum>
47

> <r_i_glide_eff_state_penalty>
0

> <s_user_duplicate_titles>
CHEMBL2695_lig2117

> <s_m_subgroup_title>
dock_pv

> <s_m_subgroupid>
dock_pv

> <b_m_subgroup_collapsed>
1

$$$$
CHEMBL2695_lig1557
                    3D
 Schrodinger Suite 2021-1.
 41 43  0  0  1  0            999 V2000
    8.3223    4.9408   10.2409 F   0  0  0  0  0  0
    6.8829    3.9631   11.5090 F   0  0  0  0  0  0
    8.2397    2.7799   10.3090 F   0  0  0  0  0  0
    8.3216    4.3629    3.9635 O   0  0  0  0  0  0
    7.0329    4.1658    7.9573 N   0  0  0  0  0  0
    8.7133    3.2735    5.9129 N   0  0  0  0  0  0
   12.5179    1.6178    5.3022 N   0  0  0  0  0  0
    6.7582    4.4092    5.5797 N   0  0  0  0  0  0
   11.1471    3.4787    6.1009 C   0  0  0  0  0  0
    9.9870    2.7893    5.6452 C   0  0  0  0  0  0
   12.4086    2.8354    5.9090 C   0  0  0  0  0  0
    6.5102    3.8656    9.1720 C   0  0  0  0  0  0
    7.5018    3.8910   10.3334 C   0  0  0  0  0  0
    6.2215    4.1591    6.8607 C   0  0  0  0  0  0
   11.1161    4.7652    6.7080 C   0  0  0  0  0  0
    7.9633    4.0314    5.0916 C   0  0  0  0  0  0
   12.2987    5.4040    7.0774 C   0  0  0  0  0  0
   10.1201    1.5774    4.9704 C   0  0  0  0  0  0
   13.5905    3.4955    6.3090 C   0  0  0  0  0  0
    5.1526    3.5628    9.3380 C   0  0  0  0  0  0
   13.5232    4.7628    6.8858 C   0  0  0  0  0  0
   11.3907    1.0384    4.8195 C   0  0  0  0  0  0
    4.8498    3.9090    6.9637 C   0  0  0  0  0  0
    4.3172    3.5977    8.2187 C   0  0  0  0  0  0
   12.2520    6.8036    7.6748 C   0  0  0  0  0  0
   12.7732    6.8502    9.1092 C   0  0  0  0  0  0
    8.4277    3.2528    6.8812 H   0  0  0  0  0  0
    6.1139    4.7819    4.9019 H   0  0  0  0  0  0
   10.1666    5.2596    6.8509 H   0  0  0  0  0  0
    9.2510    1.0545    4.5962 H   0  0  0  0  0  0
   14.5414    3.0117    6.1473 H   0  0  0  0  0  0
    4.7454    3.3260   10.3086 H   0  0  0  0  0  0
   14.4390    5.2622    7.1710 H   0  0  0  0  0  0
   11.5212    0.0961    4.3078 H   0  0  0  0  0  0
    4.2097    3.9253    6.0928 H   0  0  0  0  0  0
    3.2614    3.3888    8.3247 H   0  0  0  0  0  0
   11.2325    7.1897    7.6452 H   0  0  0  0  0  0
   12.8415    7.4772    7.0551 H   0  0  0  0  0  0
   12.7226    7.8625    9.5076 H   0  0  0  0  0  0
   13.8113    6.5242    9.1745 H   0  0  0  0  0  0
   12.1750    6.2045    9.7545 H   0  0  0  0  0  0
  1 13  1  0  0  0
  2 13  1  0  0  0
  3 13  1  0  0  0
  4 16  2  0  0  0
  5 12  2  0  0  0
  5 14  1  0  0  0
  6 10  1  0  0  0
  6 16  1  0  0  0
  6 27  1  0  0  0
  7 11  1  0  0  0
  7 22  2  0  0  0
  8 14  1  0  0  0
  8 16  1  0  0  0
  8 28  1  0  0  0
  9 10  1  0  0  0
  9 11  1  0  0  0
  9 15  2  0  0  0
 10 18  2  0  0  0
 11 19  2  0  0  0
 12 13  1  0  0  0
 12 20  1  0  0  0
 14 23  2  0  0  0
 15 17  1  0  0  0
 15 29  1  0  0  0
 17 21  2  0  0  0
 17 25  1  0  0  0
 18 22  1  0  0  0
 18 30  1  0  0  0
 19 21  1  0  0  0
 19 31  1  0  0  0
 20 24  2  0  0  0
 20 32  1  0  0  0
 21 33  1  0  0  0
 22 34  1  0  0  0
 23 24  1  0  0  0
 23 35  1  0  0  0
 24 36  1  0  0  0
 25 26  1  0  0  0
 25 37  1  0  0  0
 25 38  1  0  0  0
 26 39  1  0  0  0
 26 40  1  0  0  0
 26 41  1  0  0  0
M  END
> <s_m_entry_id>
47673

> <s_m_entry_name>
dock_pv.206

> <s_m_Source_Path>
/home/csk/Desktop/cluster/DUD-E-result/fak1

> <s_m_Source_File>
dock_pv.maegz

> <i_m_Source_File_Index>
206

> <chembl_id>
CHEMBL2000934

> <chembl_pref_name>
None

> <i_lp_mmshare_version>
53161

> <i_f3d_flags>
0

> <r_lp_tautomer_probability>
1

> <s_lp_Force_Field>
OPLS_2005

> <r_lp_Energy>
22.881659

> <b_lp_Chiralities_Consistent>
1

> <s_lp_Variant>
CHEMBL2695_lig1557-1

> <s_i_glide_gridfile>
glide-grid_3bz3

> <i_i_glide_lignum>
1715

> <i_i_glide_rotatable_bonds>
6

> <r_i_docking_score>
-7.37156033362223

> <r_i_glide_ligand_efficiency>
-0.283521551293163

> <r_i_glide_ligand_efficiency_sa>
-0.839931480102561

> <r_i_glide_ligand_efficiency_ln>
-1.73118675628886

> <r_i_glide_gscore>
-7.37156033362223

> <r_i_glide_lipo>
-4.00765410665228

> <r_i_glide_hbond>
0

> <r_i_glide_metal>
0

> <r_i_glide_rewards>
-1.55656917357863

> <r_i_glide_evdw>
-44.094669342041

> <r_i_glide_ecoul>
-1.28944075107574

> <r_i_glide_erotb>
0.590812526372092

> <r_i_glide_esite>
0

> <r_i_glide_emodel>
-58.1970911773116

> <r_i_glide_energy>
-45.3841100931168

> <r_i_glide_einternal>
9.11970901489258

> <i_i_glide_confnum>
8

> <i_i_glide_posenum>
386

> <r_i_glide_eff_state_penalty>
0

> <s_user_duplicate_titles>
CHEMBL2695_lig1557

> <s_m_subgroup_title>
dock_pv

> <s_m_subgroupid>
dock_pv

> <b_m_subgroup_collapsed>
1

$$$$
CHEMBL2695_lig528
                    3D
 Schrodinger Suite 2021-1.
 61 65  0  0  1  0            999 V2000
    2.9828    1.8809    1.8688 C   0  0  0  0  0  0
    3.5220    2.4374    3.1090 N   0  0  2  0  0  0
    4.5454    1.5630    3.6678 C   0  0  0  0  0  0
    5.1806    2.2467    4.8872 C   0  0  0  0  0  0
    4.1764    2.7804    5.8346 N   0  0  0  0  0  0
    2.9007    3.1330    5.4685 C   0  0  0  0  0  0
    2.0957    3.6560    6.2443 O   0  0  0  0  0  0
    2.4275    2.7182    4.0483 C   0  0  0  0  0  0
    4.6158    2.9083    7.1693 C   0  0  0  0  0  0
    3.8985    2.2854    8.1991 C   0  0  0  0  0  0
    4.3502    2.3630    9.5090 C   0  0  0  0  0  0
    5.5220    3.0557    9.8055 C   0  0  0  0  0  0
    6.2499    3.6723    8.8030 C   0  0  0  0  0  0
    7.4022    4.3630    9.1996 N   0  0  0  0  0  0
    8.5759    4.4317    8.5198 C   0  0  0  0  0  0
    8.8523    3.6399    7.5090 N   0  0  0  0  0  0
   10.0664    4.0695    7.1059 C   0  0  0  0  0  0
   10.9861    3.5919    6.1401 C   0  0  0  0  0  0
   12.1810    4.3292    6.0052 C   0  0  0  0  0  0
   12.4768    5.4339    6.8101 C   0  0  0  0  0  0
   11.5787    5.8537    7.7840 C   0  0  0  0  0  0
   10.4093    5.1630    7.9090 N   0  0  0  0  0  0
    9.4981    5.2918    8.8911 N   0  0  0  0  0  0
   10.7226    2.3411    5.3444 C   0  0  0  0  0  0
   11.7817    1.5630    4.8496 C   0  0  0  0  0  0
   11.5505    0.5080    3.9733 C   0  0  0  0  0  0
   10.2600    0.0825    3.7220 C   0  0  0  0  0  0
    9.1931    0.7630    4.3090 C   0  0  0  0  0  0
    9.4194    1.9104    5.0595 C   0  0  0  0  0  0
   10.0303   -1.4092    2.7063 P   0  0  0  0  0  0
   10.3220   -2.6571    3.4639 O   0  0  0  0  0  0
    8.3583   -1.3317    1.9545 C   0  0  0  0  0  0
   11.1140   -1.1591    1.2460 C   0  0  0  0  0  0
    5.7988    3.5983    7.4765 C   0  0  0  0  0  0
    2.4602    0.9389    2.0440 H   0  0  0  0  0  0
    3.7714    1.6895    1.1407 H   0  0  0  0  0  0
    2.2790    2.5763    1.4090 H   0  0  0  0  0  0
    4.0657    0.6329    3.9809 H   0  0  0  0  0  0
    5.3097    1.3192    2.9279 H   0  0  0  0  0  0
    5.8650    1.5630    5.3913 H   0  0  0  0  0  0
    5.7926    3.0835    4.5509 H   0  0  0  0  0  0
    1.8120    3.5314    3.6585 H   0  0  0  0  0  0
    1.7608    1.8612    4.1610 H   0  0  0  0  0  0
    2.9963    1.7320    7.9836 H   0  0  0  0  0  0
    3.8036    1.8751   10.3022 H   0  0  0  0  0  0
    5.8989    3.0985   10.8155 H   0  0  0  0  0  0
    7.4198    4.5787   10.1826 H   0  0  0  0  0  0
   12.9221    4.0318    5.2780 H   0  0  0  0  0  0
   13.4233    5.9455    6.7090 H   0  0  0  0  0  0
   11.7575    6.6629    8.4774 H   0  0  0  0  0  0
   12.8054    1.8284    5.0660 H   0  0  0  0  0  0
   12.3873   -0.0111    3.5278 H   0  0  0  0  0  0
    8.1769    0.4485    4.1238 H   0  0  0  0  0  0
    8.5527    2.4530    5.4000 H   0  0  0  0  0  0
    8.2404   -0.4370    1.3494 H   0  0  0  0  0  0
    8.1995   -2.1956    1.3111 H   0  0  0  0  0  0
    7.5754   -1.3368    2.7090 H   0  0  0  0  0  0
   10.9360   -0.1823    0.7974 H   0  0  0  0  0  0
   12.1637   -1.2307    1.5261 H   0  0  0  0  0  0
   10.9103   -1.9237    0.4977 H   0  0  0  0  0  0
    6.3578    4.0848    6.6911 H   0  0  0  0  0  0
  1  2  1  0  0  0
  1 35  1  0  0  0
  1 36  1  0  0  0
  1 37  1  0  0  0
  2  3  1  0  0  0
  2  8  1  0  0  0
  3  4  1  0  0  0
  3 38  1  0  0  0
  3 39  1  0  0  0
  4  5  1  0  0  0
  4 40  1  0  0  0
  4 41  1  0  0  0
  5  6  1  0  0  0
  5  9  1  0  0  0
  6  7  2  0  0  0
  6  8  1  0  0  0
  8 42  1  0  0  0
  8 43  1  0  0  0
  9 10  2  0  0  0
  9 34  1  0  0  0
 10 11  1  0  0  0
 10 44  1  0  0  0
 11 12  2  0  0  0
 11 45  1  0  0  0
 12 13  1  0  0  0
 12 46  1  0  0  0
 13 14  1  0  0  0
 13 34  2  0  0  0
 14 15  1  0  0  0
 14 47  1  0  0  0
 15 16  1  0  0  0
 15 23  2  0  0  0
 16 17  2  0  0  0
 17 18  1  0  0  0
 17 22  1  0  0  0
 18 19  2  0  0  0
 18 24  1  0  0  0
 19 20  1  0  0  0
 19 48  1  0  0  0
 20 21  2  0  0  0
 20 49  1  0  0  0
 21 22  1  0  0  0
 21 50  1  0  0  0
 22 23  1  0  0  0
 24 25  2  0  0  0
 24 29  1  0  0  0
 25 26  1  0  0  0
 25 51  1  0  0  0
 26 27  2  0  0  0
 26 52  1  0  0  0
 27 28  1  0  0  0
 27 30  1  0  0  0
 28 29  2  0  0  0
 28 53  1  0  0  0
 29 54  1  0  0  0
 30 31  2  0  0  0
 30 32  1  0  0  0
 30 33  1  0  0  0
 32 55  1  0  0  0
 32 56  1  0  0  0
 32 57  1  0  0  0
 33 58  1  0  0  0
 33 59  1  0  0  0
 33 60  1  0  0  0
 34 61  1  0  0  0
M  END
> <s_m_entry_id>
47674

> <s_m_entry_name>
dock_pv.207

> <s_m_Source_Path>
/home/csk/Desktop/cluster/DUD-E-result/fak1

> <s_m_Source_File>
dock_pv.maegz

> <i_m_Source_File_Index>
207

> <chembl_id>
CHEMBL3644956

> <chembl_pref_name>
None

> <i_lp_mmshare_version>
53161

> <i_f3d_flags>
0

> <r_lp_tautomer_probability>
1

> <s_lp_Force_Field>
OPLS_2005

> <r_lp_Energy>
37.006822

> <b_lp_Chiralities_Consistent>
1

> <s_lp_Variant>
CHEMBL2695_lig528-1

> <s_i_glide_gridfile>
glide-grid_3bz3

> <i_i_glide_lignum>
582

> <i_i_glide_rotatable_bonds>
5

> <r_i_docking_score>
-7.36634287781153

> <r_i_glide_ligand_efficiency>
-0.216657143465045

> <r_i_glide_ligand_efficiency_sa>
-0.701885037975395

> <r_i_glide_ligand_efficiency_ln>
-1.62743176062764

> <r_i_glide_gscore>
-7.36634287781153

> <r_i_glide_lipo>
-2.2853420535307

> <r_i_glide_hbond>
-0.603170683739939

> <r_i_glide_metal>
0

> <r_i_glide_rewards>
-1.72804847290741

> <r_i_glide_evdw>
-33.0365829467773

> <r_i_glide_ecoul>
-9.39337158203125

> <r_i_glide_erotb>
0.359508185978473

> <r_i_glide_esite>
-0.0484549689683994

> <r_i_glide_emodel>
-55.2561849105762

> <r_i_glide_energy>
-42.4299545288086

> <r_i_glide_einternal>
8.01599407196045

> <i_i_glide_confnum>
7

> <i_i_glide_posenum>
205

> <r_i_glide_eff_state_penalty>
0

> <s_user_duplicate_titles>
CHEMBL2695_lig528

> <s_m_subgroup_title>
dock_pv

> <s_m_subgroupid>
dock_pv

> <b_m_subgroup_collapsed>
1

$$$$
CHEMBL2695_lig2178
                    3D
 Schrodinger Suite 2021-1.
 48 52  0  0  1  0            999 V2000
    4.0451    3.2750    6.8370 C   0  0  0  0  0  0
    4.3925    2.4933    7.9578 C   0  0  0  0  0  0
    4.0919    1.1277    7.9674 C   0  0  0  0  0  0
    3.5221    0.5024    6.8520 C   0  0  0  0  0  0
    3.2506    1.2748    5.7142 C   0  0  0  0  0  0
    3.4984    2.6469    5.7138 C   0  0  0  0  0  0
    4.9889    3.0224    9.1096 N   0  0  0  0  0  0
    6.2406    3.6150    9.2906 C   0  0  0  0  0  0
    8.6906    4.8136    9.9453 N   0  0  0  0  0  0
    7.6746    4.5953   10.8159 C   0  0  0  0  0  0
    6.4798    4.0214   10.5585 N   0  0  0  0  0  0
    8.4274    4.4077    8.6974 C   0  0  0  0  0  0
    7.2253    3.7835    8.2880 C   0  0  0  0  0  0
    7.4350    3.5141    6.9017 C   0  0  0  0  0  0
    8.6052    3.9545    6.5043 N   0  0  0  0  0  0
    9.2475    4.4887    7.5744 N   0  0  0  0  0  0
   10.5691    5.0115    7.4557 C   0  0  0  0  0  0
   11.0518    5.9631    8.3712 C   0  0  0  0  0  0
   12.3974    6.3105    8.3906 C   0  0  0  0  0  0
   13.2730    5.6956    7.5048 C   0  0  0  0  0  0
   12.8096    4.7735    6.5670 C   0  0  0  0  0  0
   11.4593    4.4358    6.5369 C   0  0  0  0  0  0
    4.2056    4.7933    6.8058 C   0  0  0  0  0  0
    3.1743   -0.9645    6.8951 C   0  0  0  0  0  0
    2.6616   -1.4527    7.9063 O   0  0  0  0  0  0
    3.5120   -1.6660    5.7912 N   0  0  0  0  0  0
    3.1821   -2.9868    5.5320 C   0  0  0  0  0  0
    3.8562   -3.7901    4.6171 C   0  0  0  0  0  0
    3.1964   -4.9951    4.6337 C   0  0  0  0  0  0
    2.1643   -4.9174    5.5085 O   0  0  0  0  0  0
    2.1628   -3.6372    6.0682 N   0  0  0  0  0  0
    4.3229    0.5442    8.8487 H   0  0  0  0  0  0
    2.8102    0.8269    4.8339 H   0  0  0  0  0  0
    3.2366    3.2288    4.8411 H   0  0  0  0  0  0
    4.5109    2.8539    9.9843 H   0  0  0  0  0  0
    7.8420    4.9107   11.8360 H   0  0  0  0  0  0
    6.7632    3.0275    6.2081 H   0  0  0  0  0  0
   10.4037    6.4202    9.1021 H   0  0  0  0  0  0
   12.7655    7.0321    9.1055 H   0  0  0  0  0  0
   14.3219    5.9523    7.5302 H   0  0  0  0  0  0
   13.4985    4.3116    5.8752 H   0  0  0  0  0  0
   11.1247    3.6843    5.8354 H   0  0  0  0  0  0
    4.2557    5.1694    5.7831 H   0  0  0  0  0  0
    3.3678    5.2701    7.3150 H   0  0  0  0  0  0
    5.1177    5.1275    7.2926 H   0  0  0  0  0  0
    4.2466   -1.2694    5.2140 H   0  0  0  0  0  0
    4.7220   -3.5233    4.0256 H   0  0  0  0  0  0
    3.3296   -5.9318    4.1111 H   0  0  0  0  0  0
  1 23  1  0  0  0
  1  6  1  0  0  0
  1  2  2  0  0  0
  2  3  1  0  0  0
  2  7  1  0  0  0
  3  4  2  0  0  0
  3 32  1  0  0  0
  4  5  1  0  0  0
  4 24  1  0  0  0
  5  6  2  0  0  0
  5 33  1  0  0  0
  6 34  1  0  0  0
  7  8  1  0  0  0
  7 35  1  0  0  0
  8 13  2  0  0  0
  8 11  1  0  0  0
  9 12  2  0  0  0
  9 10  1  0  0  0
 10 11  2  0  0  0
 10 36  1  0  0  0
 12 16  1  0  0  0
 12 13  1  0  0  0
 13 14  1  0  0  0
 14 15  2  0  0  0
 14 37  1  0  0  0
 15 16  1  0  0  0
 16 17  1  0  0  0
 17 18  2  0  0  0
 17 22  1  0  0  0
 18 19  1  0  0  0
 18 38  1  0  0  0
 19 20  2  0  0  0
 19 39  1  0  0  0
 20 21  1  0  0  0
 20 40  1  0  0  0
 21 22  2  0  0  0
 21 41  1  0  0  0
 22 42  1  0  0  0
 23 43  1  0  0  0
 23 44  1  0  0  0
 23 45  1  0  0  0
 24 25  2  0  0  0
 24 26  1  0  0  0
 26 27  1  0  0  0
 26 46  1  0  0  0
 27 28  1  0  0  0
 27 31  2  0  0  0
 28 29  2  0  0  0
 28 47  1  0  0  0
 29 30  1  0  0  0
 29 48  1  0  0  0
 30 31  1  0  0  0
M  END
> <s_m_entry_id>
47675

> <s_m_entry_name>
dock_pv.208

> <s_m_Source_Path>
/home/csk/Desktop/cluster/DUD-E-result/fak1

> <s_m_Source_File>
dock_pv.maegz

> <i_m_Source_File_Index>
208

> <chembl_id>
CHEMBL259922

> <chembl_pref_name>
None

> <i_lp_mmshare_version>
53161

> <i_f3d_flags>
0

> <r_lp_tautomer_probability>
1

> <s_lp_Force_Field>
OPLS_2005

> <r_lp_Energy>
18.918742

> <b_lp_Chiralities_Consistent>
1

> <s_lp_Variant>
CHEMBL2695_lig2178-1

> <s_i_glide_gridfile>
glide-grid_3bz3

> <i_i_glide_lignum>
2646

> <i_i_glide_rotatable_bonds>
6

> <r_i_docking_score>
-7.35813048822917

> <r_i_glide_ligand_efficiency>
-0.237359048007392

> <r_i_glide_ligand_efficiency_sa>
-0.745635120226962

> <r_i_glide_ligand_efficiency_ln>
-1.65948392471366

> <r_i_glide_gscore>
-7.35813048822917

> <r_i_glide_lipo>
-2.49887782886506

> <r_i_glide_hbond>
-0.183539531019595

> <r_i_glide_metal>
0

> <r_i_glide_rewards>
-1.8603428092165

> <r_i_glide_evdw>
-41.9807624816895

> <r_i_glide_ecoul>
-7.5115909576416

> <r_i_glide_erotb>
0.698653266373669

> <r_i_glide_esite>
-0.288246817770968

> <r_i_glide_emodel>
-68.5873812009485

> <r_i_glide_energy>
-49.4923534393311

> <r_i_glide_einternal>
8.84323406219482

> <i_i_glide_confnum>
18

> <i_i_glide_posenum>
68

> <r_i_glide_eff_state_penalty>
0

> <s_user_duplicate_titles>
CHEMBL2695_lig2178

> <s_m_subgroup_title>
dock_pv

> <s_m_subgroupid>
dock_pv

> <b_m_subgroup_collapsed>
1

$$$$
CHEMBL2695_lig75
                    3D
 Schrodinger Suite 2021-1.
 47 50  0  0  1  0            999 V2000
    3.0328    2.7306    4.2761 C   0  0  0  0  0  0
    3.3497    3.3485    5.5180 O   0  0  0  0  0  0
    4.6502    3.3119    5.9894 C   0  0  0  0  0  0
    5.7059    2.6966    5.3040 C   0  0  0  0  0  0
    4.9076    3.9142    7.2304 C   0  0  0  0  0  0
    3.8839    4.5333    7.9088 O   0  0  0  0  0  0
    3.5154    5.8068    7.3889 C   0  0  0  0  0  0
    6.1949    3.8446    7.7947 C   0  0  0  0  0  0
    6.4922    4.3629    9.0326 O   0  0  0  0  0  0
    5.8683    3.7132   10.1336 C   0  0  0  0  0  0
    7.2332    3.2449    7.0834 C   0  0  0  0  0  0
    6.9919    2.6683    5.8371 C   0  0  0  0  0  0
    7.9599    1.9691    5.1142 N   0  0  0  0  0  0
    9.3523    1.9398    5.1242 C   0  0  0  0  0  0
   10.0845    2.9092    5.7530 N   0  0  0  0  0  0
   11.4167    2.7070    5.7022 C   0  0  0  0  0  0
    9.8290    0.8689    4.4547 N   0  0  0  0  0  0
   11.1571    0.6721    4.4492 C   0  0  0  0  0  0
   12.0223    1.5631    5.0851 C   0  0  0  0  0  0
   13.4288    1.6783    5.2265 C   0  0  0  0  0  0
   13.6391    2.8479    5.9092 C   0  0  0  0  0  0
   12.4581    3.5222    6.1749 N   0  0  0  0  0  0
   12.4263    4.8156    6.7688 C   0  0  0  0  0  0
   11.3825    5.7180    6.5399 C   0  0  0  0  0  0
   11.4657    6.9919    7.1111 C   0  0  0  0  0  0
   12.5159    7.3122    7.9661 C   0  0  0  0  0  0
   13.4955    6.3517    8.1863 C   0  0  0  0  0  0
   13.4805    5.1411    7.5784 N   0  0  0  0  0  0
    1.9766    2.8857    4.0566 H   0  0  0  0  0  0
    3.6053    3.1630    3.4554 H   0  0  0  0  0  0
    3.2118    1.6547    4.3092 H   0  0  0  0  0  0
    5.5354    2.2079    4.3567 H   0  0  0  0  0  0
    2.6479    6.1864    7.9273 H   0  0  0  0  0  0
    4.3199    6.5302    7.5088 H   0  0  0  0  0  0
    3.2464    5.7684    6.3320 H   0  0  0  0  0  0
    6.3202    4.0601   11.0629 H   0  0  0  0  0  0
    5.9898    2.6291   10.0918 H   0  0  0  0  0  0
    4.8044    3.9434   10.1886 H   0  0  0  0  0  0
    8.2148    3.1982    7.5292 H   0  0  0  0  0  0
    7.5754    1.1926    4.5938 H   0  0  0  0  0  0
   11.5213   -0.1890    3.9098 H   0  0  0  0  0  0
   14.1949    1.0207    4.8431 H   0  0  0  0  0  0
   14.5776    3.3018    6.1854 H   0  0  0  0  0  0
   10.5460    5.4659    5.9079 H   0  0  0  0  0  0
   10.7210    7.7389    6.8999 H   0  0  0  0  0  0
   12.5726    8.2822    8.4377 H   0  0  0  0  0  0
   14.3238    6.5541    8.8465 H   0  0  0  0  0  0
  1  2  1  0  0  0
  1 29  1  0  0  0
  1 30  1  0  0  0
  1 31  1  0  0  0
  2  3  1  0  0  0
  3  4  2  0  0  0
  3  5  1  0  0  0
  4 12  1  0  0  0
  4 32  1  0  0  0
  5  6  1  0  0  0
  5  8  2  0  0  0
  6  7  1  0  0  0
  7 33  1  0  0  0
  7 34  1  0  0  0
  7 35  1  0  0  0
  8  9  1  0  0  0
  8 11  1  0  0  0
  9 10  1  0  0  0
 10 36  1  0  0  0
 10 37  1  0  0  0
 10 38  1  0  0  0
 11 12  2  0  0  0
 11 39  1  0  0  0
 12 13  1  0  0  0
 13 14  1  0  0  0
 13 40  1  0  0  0
 14 15  1  0  0  0
 14 17  2  0  0  0
 15 16  2  0  0  0
 16 19  1  0  0  0
 16 22  1  0  0  0
 17 18  1  0  0  0
 18 19  2  0  0  0
 18 41  1  0  0  0
 19 20  1  0  0  0
 20 21  2  0  0  0
 20 42  1  0  0  0
 21 22  1  0  0  0
 21 43  1  0  0  0
 22 23  1  0  0  0
 23 24  2  0  0  0
 23 28  1  0  0  0
 24 25  1  0  0  0
 24 44  1  0  0  0
 25 26  2  0  0  0
 25 45  1  0  0  0
 26 27  1  0  0  0
 26 46  1  0  0  0
 27 28  2  0  0  0
 27 47  1  0  0  0
M  END
> <s_m_entry_id>
47676

> <s_m_entry_name>
dock_pv.209

> <s_m_Source_Path>
/home/csk/Desktop/cluster/DUD-E-result/fak1

> <s_m_Source_File>
dock_pv.maegz

> <i_m_Source_File_Index>
209

> <chembl_id>
CHEMBL205098

> <chembl_pref_name>
None

> <i_lp_mmshare_version>
53161

> <i_f3d_flags>
0

> <r_lp_tautomer_probability>
1

> <s_lp_Force_Field>
OPLS_2005

> <r_lp_Energy>
25.980836

> <b_lp_Chiralities_Consistent>
1

> <s_lp_Variant>
CHEMBL2695_lig75-1

> <s_i_glide_gridfile>
glide-grid_3bz3

> <i_i_glide_lignum>
97

> <i_i_glide_rotatable_bonds>
6

> <r_i_docking_score>
-7.35327376606366

> <r_i_glide_ligand_efficiency>
-0.262616920216559

> <r_i_glide_ligand_efficiency_sa>
-0.797459642871788

> <r_i_glide_ligand_efficiency_ln>
-1.69735148670677

> <r_i_glide_gscore>
-7.35327376606366

> <r_i_glide_lipo>
-3.38147385795998

> <r_i_glide_hbond>
-0.00922699162488893

> <r_i_glide_metal>
0

> <r_i_glide_rewards>
-2.22822637411537

> <r_i_glide_evdw>
-42.1948776245117

> <r_i_glide_ecoul>
0.220881208777428

> <r_i_glide_erotb>
0.407952986299353

> <r_i_glide_esite>
-0.0656878287537967

> <r_i_glide_emodel>
-54.3216193111331

> <r_i_glide_energy>
-41.9739964157343

> <r_i_glide_einternal>
11.2109708786011

> <i_i_glide_confnum>
3

> <i_i_glide_posenum>
162

> <r_i_glide_eff_state_penalty>
0

> <s_user_duplicate_titles>
CHEMBL2695_lig75,345093

> <s_m_subgroup_title>
dock_pv

> <s_m_subgroupid>
dock_pv

> <b_m_subgroup_collapsed>
1

$$$$
CHEMBL2695_lig1948
                    3D
 Schrodinger Suite 2021-1.
 47 49  0  0  1  0            999 V2000
   10.1185   -0.9322    2.5575 Cl  0  0  0  0  0  0
   14.5575    3.9634    6.8903 O   0  0  0  0  0  0
   10.5366    3.0265    5.7246 N   0  0  0  0  0  0
   12.7943    2.3765    5.5092 N   0  0  0  0  0  0
    8.2626    3.3556    5.9797 N   0  0  0  0  0  0
   13.9220    5.9203    7.7033 N   0  0  0  0  0  0
    7.5219    2.7624    8.8586 N   0  0  0  0  0  0
   11.8405    3.3067    5.9704 C   0  0  0  0  0  0
   12.2218    4.4593    6.7091 C   0  0  0  0  0  0
    9.5636    3.7964    6.2490 C   0  0  0  0  0  0
   11.1940    5.2802    7.1938 C   0  0  0  0  0  0
    9.8685    4.9302    6.9976 C   0  0  0  0  0  0
   13.6546    4.7623    7.1040 C   0  0  0  0  0  0
   12.7432    1.3946    4.5082 C   0  0  0  0  0  0
    7.0558    3.8832    6.6198 C   0  0  2  0  0  0
    6.5775    2.9428    7.7675 C   0  0  2  0  0  0
   11.5588    0.7624    4.0982 C   0  0  0  0  0  0
   13.9219    1.1379    3.8045 C   0  0  0  0  0  0
   11.5684   -0.1228    3.0195 C   0  0  0  0  0  0
    5.9949    4.0701    5.5178 C   0  0  0  0  0  0
   13.9282    0.2713    2.7106 C   0  0  0  0  0  0
    5.2105    3.4107    8.3184 C   0  0  0  0  0  0
   12.7494   -0.3578    2.3129 C   0  0  0  0  0  0
    4.6597    4.5541    6.1016 C   0  0  0  0  0  0
    4.1576    3.6129    7.2111 C   0  0  0  0  0  0
   13.7310    2.6470    5.7824 H   0  0  0  0  0  0
    8.1836    2.4727    5.4955 H   0  0  0  0  0  0
   13.2089    6.6052    7.8873 H   0  0  0  0  0  0
   14.8988    6.1299    7.9123 H   0  0  0  0  0  0
    7.5841    3.6196    9.3869 H   0  0  0  0  0  0
    7.1557    2.0665    9.4945 H   0  0  0  0  0  0
   11.3903    6.1590    7.7902 H   0  0  0  0  0  0
    9.1221    5.5481    7.4535 H   0  0  0  0  0  0
    7.2470    4.8589    7.0564 H   0  0  0  0  0  0
    6.4247    1.9632    7.3084 H   0  0  0  0  0  0
   10.6239    0.9131    4.6109 H   0  0  0  0  0  0
   14.8463    1.6082    4.1035 H   0  0  0  0  0  0
    5.8351    3.1304    4.9836 H   0  0  0  0  0  0
    6.3484    4.7882    4.7753 H   0  0  0  0  0  0
   14.8503    0.0781    2.1837 H   0  0  0  0  0  0
    5.3322    4.3589    8.8462 H   0  0  0  0  0  0
    4.8298    2.6937    9.0481 H   0  0  0  0  0  0
   12.7548   -1.0403    1.4762 H   0  0  0  0  0  0
    4.7704    5.5645    6.4976 H   0  0  0  0  0  0
    3.9201    4.6173    5.3055 H   0  0  0  0  0  0
    3.2387    4.0093    7.6448 H   0  0  0  0  0  0
    3.8993    2.6461    6.7762 H   0  0  0  0  0  0
  1 19  1  0  0  0
  2 13  2  0  0  0
  3  8  2  0  0  0
  3 10  1  0  0  0
  4  8  1  0  0  0
  4 14  1  0  0  0
  4 26  1  0  0  0
  5 10  1  0  0  0
  5 15  1  0  0  0
  5 27  1  0  0  0
  6 13  1  0  0  0
  6 28  1  0  0  0
  6 29  1  0  0  0
  7 16  1  0  0  0
  7 30  1  0  0  0
  7 31  1  0  0  0
  8  9  1  0  0  0
  9 11  2  0  0  0
  9 13  1  0  0  0
 10 12  2  0  0  0
 11 12  1  0  0  0
 11 32  1  0  0  0
 12 33  1  0  0  0
 14 17  1  0  0  0
 14 18  2  0  0  0
 15 16  1  0  0  0
 15 20  1  0  0  0
 15 34  1  0  0  0
 16 22  1  0  0  0
 16 35  1  0  0  0
 17 19  2  0  0  0
 17 36  1  0  0  0
 18 21  1  0  0  0
 18 37  1  0  0  0
 19 23  1  0  0  0
 20 24  1  0  0  0
 20 38  1  0  0  0
 20 39  1  0  0  0
 21 23  2  0  0  0
 21 40  1  0  0  0
 22 25  1  0  0  0
 22 41  1  0  0  0
 22 42  1  0  0  0
 23 43  1  0  0  0
 24 25  1  0  0  0
 24 44  1  0  0  0
 24 45  1  0  0  0
 25 46  1  0  0  0
 25 47  1  0  0  0
M  END
> <s_m_entry_id>
47677

> <s_m_entry_name>
dock_pv.210

> <s_m_Source_Path>
/home/csk/Desktop/cluster/DUD-E-result/fak1

> <s_m_Source_File>
dock_pv.maegz

> <i_m_Source_File_Index>
210

> <chembl_id>
CHEMBL1982753

> <chembl_pref_name>
None

> <i_lp_mmshare_version>
53161

> <i_f3d_flags>
0

> <r_lp_tautomer_probability>
1

> <s_lp_Force_Field>
OPLS_2005

> <r_lp_Energy>
29.342372

> <b_lp_Chiralities_Consistent>
1

> <s_lp_Variant>
CHEMBL2695_lig1948-1

> <s_i_glide_gridfile>
glide-grid_3bz3

> <i_i_glide_lignum>
2272

> <i_i_glide_rotatable_bonds>
5

> <r_i_docking_score>
-7.35308167690166

> <r_i_glide_ligand_efficiency>
-0.294123267076066

> <r_i_glide_ligand_efficiency_sa>
-0.860021649228771

> <r_i_glide_ligand_efficiency_ln>
-1.74290071150207

> <r_i_glide_gscore>
-7.35308167690166

> <r_i_glide_lipo>
-3.024893821378

> <r_i_glide_hbond>
-0.608

> <r_i_glide_metal>
0

> <r_i_glide_rewards>
-1.47212716103425

> <r_i_glide_evdw>
-29.0315341949463

> <r_i_glide_ecoul>
-9.25801849365234

> <r_i_glide_erotb>
0.59221878930576

> <r_i_glide_esite>
0

> <r_i_glide_emodel>
-54.1056876638247

> <r_i_glide_energy>
-38.2895526885986

> <r_i_glide_einternal>
6.87802839279175

> <i_i_glide_confnum>
18

> <i_i_glide_posenum>
268

> <r_i_glide_eff_state_penalty>
0

> <s_user_duplicate_titles>
CHEMBL2695_lig1948

> <s_m_subgroup_title>
dock_pv

> <s_m_subgroupid>
dock_pv

> <b_m_subgroup_collapsed>
1

$$$$
CHEMBL2695_lig1539
                    3D
 Schrodinger Suite 2021-1.
 39 41  0  0  1  0            999 V2000
    4.0418    2.0147    8.7392 S   0  0  0  0  0  0
    4.7456    1.4308    7.5942 O   0  0  0  0  0  0
    3.0809    1.2183    9.5090 O   0  0  0  0  0  0
    5.2267    2.6094    9.9057 N   0  0  0  0  0  0
    8.9559    3.8994    7.0297 N   0  0  0  0  0  0
    9.8951    5.5630    9.1090 N   0  0  0  0  0  0
    1.1220    6.7630    6.7090 N   0  0  0  0  0  0
    8.2823    3.9791    8.2130 C   0  0  0  0  0  0
    8.7550    4.8238    9.2620 C   0  0  0  0  0  0
    6.3881    3.3290    9.6112 C   0  0  0  0  0  0
    3.1852    3.4718    8.1818 C   0  0  0  0  0  0
    7.0983    3.2253    8.4087 C   0  0  0  0  0  0
    8.0160    4.9007   10.4644 C   0  0  0  0  0  0
    6.8538    4.1614   10.6221 C   0  0  0  0  0  0
   10.0734    4.6591    6.8813 C   0  0  0  0  0  0
   10.5369    5.4944    7.9091 C   0  0  0  0  0  0
    3.7593    4.2513    7.1791 C   0  0  0  0  0  0
    1.9563    3.8236    8.7454 C   0  0  0  0  0  0
    1.8334    5.6941    7.2397 C   0  0  0  0  0  0
    3.0814    5.3695    6.7118 C   0  0  0  0  0  0
    1.2759    4.9395    8.2685 C   0  0  0  0  0  0
   10.7863    4.4993    5.5476 C   0  0  0  0  0  0
   11.7886    6.3485    7.7823 C   0  0  0  0  0  0
    4.8893    2.6546   10.8650 H   0  0  0  0  0  0
    1.4069    7.0609    5.7853 H   0  0  0  0  0  0
    0.1604    6.8752    6.9899 H   0  0  0  0  0  0
    6.7802    2.5734    7.6117 H   0  0  0  0  0  0
    8.3220    5.5631   11.2575 H   0  0  0  0  0  0
    6.3042    4.2432   11.5499 H   0  0  0  0  0  0
    4.7164    3.9858    6.7534 H   0  0  0  0  0  0
    1.5201    3.2305    9.5354 H   0  0  0  0  0  0
    3.5219    5.9628    5.9246 H   0  0  0  0  0  0
    0.3160    5.2023    8.6873 H   0  0  0  0  0  0
   11.4305    5.3472    5.3177 H   0  0  0  0  0  0
   10.0701    4.3992    4.7301 H   0  0  0  0  0  0
   11.4032    3.6008    5.5641 H   0  0  0  0  0  0
   12.6374    5.7393    7.4700 H   0  0  0  0  0  0
   11.6352    7.1327    7.0407 H   0  0  0  0  0  0
   12.0566    6.8282    8.7254 H   0  0  0  0  0  0
  1  2  2  0  0  0
  1  3  2  0  0  0
  1  4  1  0  0  0
  1 11  1  0  0  0
  4 10  1  0  0  0
  4 24  1  0  0  0
  5  8  1  0  0  0
  5 15  2  0  0  0
  6  9  1  0  0  0
  6 16  2  0  0  0
  7 19  1  0  0  0
  7 25  1  0  0  0
  7 26  1  0  0  0
  8  9  1  0  0  0
  8 12  2  0  0  0
  9 13  2  0  0  0
 10 12  1  0  0  0
 10 14  2  0  0  0
 11 17  2  0  0  0
 11 18  1  0  0  0
 12 27  1  0  0  0
 13 14  1  0  0  0
 13 28  1  0  0  0
 14 29  1  0  0  0
 15 16  1  0  0  0
 15 22  1  0  0  0
 16 23  1  0  0  0
 17 20  1  0  0  0
 17 30  1  0  0  0
 18 21  2  0  0  0
 18 31  1  0  0  0
 19 20  2  0  0  0
 19 21  1  0  0  0
 20 32  1  0  0  0
 21 33  1  0  0  0
 22 34  1  0  0  0
 22 35  1  0  0  0
 22 36  1  0  0  0
 23 37  1  0  0  0
 23 38  1  0  0  0
 23 39  1  0  0  0
M  END
> <s_m_entry_id>
47678

> <s_m_entry_name>
dock_pv.211

> <s_m_Source_Path>
/home/csk/Desktop/cluster/DUD-E-result/fak1

> <s_m_Source_File>
dock_pv.maegz

> <i_m_Source_File_Index>
211

> <chembl_id>
CHEMBL2006263

> <chembl_pref_name>
None

> <i_lp_mmshare_version>
53161

> <i_f3d_flags>
0

> <r_lp_tautomer_probability>
1

> <s_lp_Force_Field>
OPLS_2005

> <r_lp_Energy>
20.266067

> <b_lp_Chiralities_Consistent>
1

> <s_lp_Variant>
CHEMBL2695_lig1539-1

> <s_i_glide_gridfile>
glide-grid_3bz3

> <i_i_glide_lignum>
1690

> <i_i_glide_rotatable_bonds>
3

> <r_i_docking_score>
-7.34903111640998

> <r_i_glide_ligand_efficiency>
-0.319523092017825

> <r_i_glide_ligand_efficiency_sa>
-0.908681169739845

> <r_i_glide_ligand_efficiency_ln>
-1.77706236127786

> <r_i_glide_gscore>
-7.34903111640998

> <r_i_glide_lipo>
-2.86449854158483

> <r_i_glide_hbond>
-0.558577730460695

> <r_i_glide_metal>
0

> <r_i_glide_rewards>
-1.98794360394512

> <r_i_glide_evdw>
-30.9791679382324

> <r_i_glide_ecoul>
-5.55604553222656

> <r_i_glide_erotb>
0.522466518742854

> <r_i_glide_esite>
-0.0781125324165874

> <r_i_glide_emodel>
-54.6336747685861

> <r_i_glide_energy>
-36.535213470459

> <r_i_glide_einternal>
0.476592272520065

> <i_i_glide_confnum>
3

> <i_i_glide_posenum>
117

> <r_i_glide_eff_state_penalty>
0

> <s_user_duplicate_titles>
CHEMBL2695_lig1539

> <s_m_subgroup_title>
dock_pv

> <s_m_subgroupid>
dock_pv

> <b_m_subgroup_collapsed>
1

$$$$
CHEMBL2695_lig84
                    3D
 Schrodinger Suite 2021-1.
 42 45  0  0  1  0            999 V2000
    9.5054    1.2830    4.8125 N   0  0  0  0  0  0
    9.1441    2.4139    5.4633 C   0  0  0  0  0  0
    9.9800    3.3345    6.0254 N   0  0  0  0  0  0
   10.8221    0.9875    4.7472 C   0  0  0  0  0  0
   11.7819    1.8433    5.2968 C   0  0  0  0  0  0
   11.2854    3.0389    5.9025 C   0  0  0  0  0  0
   12.3923    3.7911    6.3088 N   0  0  0  0  0  0
   13.5218    3.0579    5.9840 C   0  0  0  0  0  0
   13.2025    1.8591    5.3986 C   0  0  0  0  0  0
   12.4294    5.0608    6.9376 C   0  0  0  0  0  0
   11.4275    6.0162    6.7365 C   0  0  0  0  0  0
   11.5220    7.2351    7.4117 C   0  0  0  0  0  0
   12.5668    7.4493    8.3092 C   0  0  0  0  0  0
   13.5218    6.4496    8.4631 C   0  0  0  0  0  0
   13.4797    5.2806    7.7801 N   0  0  0  0  0  0
    7.7618    2.5898    5.5529 N   0  0  0  0  0  0
    6.9788    3.1360    6.5829 C   0  0  0  0  0  0
    5.6807    3.6075    6.3179 C   0  0  0  0  0  0
    4.8711    4.0217    7.3796 C   0  0  0  0  0  0
    5.3400    3.9630    8.6901 C   0  0  0  0  0  0
    6.6309    3.5259    8.9696 C   0  0  0  0  0  0
    7.4438    3.1211    7.9032 C   0  0  0  0  0  0
    5.1209    3.6700    4.9012 C   0  0  0  0  0  0
    7.0157    3.5142   10.2952 O   0  0  0  0  0  0
    8.2473    2.8963   10.6470 C   0  0  0  0  0  0
   11.0972    0.0738    4.2410 H   0  0  0  0  0  0
   14.4923    3.4662    6.2130 H   0  0  0  0  0  0
   13.9140    1.1201    5.0599 H   0  0  0  0  0  0
   10.6020    5.8306    6.0685 H   0  0  0  0  0  0
   10.7733    7.9984    7.2607 H   0  0  0  0  0  0
   12.6396    8.3629    8.8733 H   0  0  0  0  0  0
   14.3530    6.5806    9.1375 H   0  0  0  0  0  0
    7.2714    1.8702    5.0384 H   0  0  0  0  0  0
    3.8708    4.3848    7.1981 H   0  0  0  0  0  0
    4.7044    4.2838    9.5038 H   0  0  0  0  0  0
    8.4377    2.7632    8.0932 H   0  0  0  0  0  0
    5.6874    4.3897    4.3097 H   0  0  0  0  0  0
    5.2054    2.6976    4.4143 H   0  0  0  0  0  0
    4.0691    3.9593    4.8826 H   0  0  0  0  0  0
    8.3221    2.8771   11.7331 H   0  0  0  0  0  0
    9.1030    3.4482   10.2553 H   0  0  0  0  0  0
    8.2948    1.8604   10.3047 H   0  0  0  0  0  0
  1  2  2  0  0  0
  1  4  1  0  0  0
  2  3  1  0  0  0
  2 16  1  0  0  0
  3  6  2  0  0  0
  4  5  2  0  0  0
  4 26  1  0  0  0
  5  9  1  0  0  0
  5  6  1  0  0  0
  6  7  1  0  0  0
  7  8  1  0  0  0
  7 10  1  0  0  0
  8  9  2  0  0  0
  8 27  1  0  0  0
  9 28  1  0  0  0
 10 15  1  0  0  0
 10 11  2  0  0  0
 11 12  1  0  0  0
 11 29  1  0  0  0
 12 13  2  0  0  0
 12 30  1  0  0  0
 13 14  1  0  0  0
 13 31  1  0  0  0
 14 15  2  0  0  0
 14 32  1  0  0  0
 16 17  1  0  0  0
 16 33  1  0  0  0
 17 18  2  0  0  0
 17 22  1  0  0  0
 18 19  1  0  0  0
 18 23  1  0  0  0
 19 20  2  0  0  0
 19 34  1  0  0  0
 20 21  1  0  0  0
 20 35  1  0  0  0
 21 22  2  0  0  0
 21 24  1  0  0  0
 22 36  1  0  0  0
 23 37  1  0  0  0
 23 38  1  0  0  0
 23 39  1  0  0  0
 24 25  1  0  0  0
 25 40  1  0  0  0
 25 41  1  0  0  0
 25 42  1  0  0  0
M  END
> <s_m_entry_id>
47679

> <s_m_entry_name>
dock_pv.212

> <s_m_Source_Path>
/home/csk/Desktop/cluster/DUD-E-result/fak1

> <s_m_Source_File>
dock_pv.maegz

> <i_m_Source_File_Index>
212

> <chembl_id>
CHEMBL377957

> <chembl_pref_name>
None

> <i_lp_mmshare_version>
53161

> <i_f3d_flags>
0

> <r_lp_tautomer_probability>
1

> <s_lp_Force_Field>
OPLS_2005

> <r_lp_Energy>
15.637573

> <b_lp_Chiralities_Consistent>
1

> <s_lp_Variant>
CHEMBL2695_lig84-1

> <s_i_glide_gridfile>
glide-grid_3bz3

> <i_i_glide_lignum>
106

> <i_i_glide_rotatable_bonds>
4

> <r_i_docking_score>
-7.34895798887379

> <r_i_glide_ligand_efficiency>
-0.293958319554952

> <r_i_glide_ligand_efficiency_sa>
-0.859539339751674

> <r_i_glide_ligand_efficiency_ln>
-1.7419232738625

> <r_i_glide_gscore>
-7.34895798887379

> <r_i_glide_lipo>
-3.35151743434909

> <r_i_glide_hbond>
0

> <r_i_glide_metal>
0

> <r_i_glide_rewards>
-2.5207663746618

> <r_i_glide_evdw>
-43.5787734985352

> <r_i_glide_ecoul>
1.47889876365662

> <r_i_glide_erotb>
0.514187457045719

> <r_i_glide_esite>
-0.033757776530346

> <r_i_glide_emodel>
-56.260589051729

> <r_i_glide_energy>
-42.0998747348785

> <r_i_glide_einternal>
6.39215469360352

> <i_i_glide_confnum>
11

> <i_i_glide_posenum>
102

> <r_i_glide_eff_state_penalty>
0

> <s_user_duplicate_titles>
CHEMBL2695_lig84,345057

> <s_m_subgroup_title>
dock_pv

> <s_m_subgroupid>
dock_pv

> <b_m_subgroup_collapsed>
1

$$$$
CHEMBL2695_lig1839
                    3D
 Schrodinger Suite 2021-1.
 34 36  0  0  1  0            999 V2000
    6.8154    2.7630    6.1734 C   0  0  0  0  0  0
    6.9687    3.5382    7.3207 C   0  0  0  0  0  0
    8.1280    4.2906    7.4935 C   0  0  0  0  0  0
    9.1331    4.2644    6.5240 C   0  0  0  0  0  0
    8.9578    3.5040    5.3617 C   0  0  0  0  0  0
    7.8033    2.7447    5.1924 C   0  0  0  0  0  0
   10.2984    5.0143    6.7561 N   0  0  0  0  0  0
   13.2170    3.0611    5.9090 C   0  0  0  0  0  0
   11.9333    3.5001    5.9090 N   0  0  0  0  0  0
   11.6376    4.6110    6.6354 C   0  0  0  0  0  0
   12.6308    5.2934    7.3511 C   0  0  0  0  0  0
   13.9220    4.7630    7.3109 C   0  0  0  0  0  0
   14.2285    3.6433    6.6044 N   0  0  0  0  0  0
   13.5744    1.9630    5.1130 N   0  0  0  0  0  0
   12.8458    1.1630    4.2157 C   0  0  0  0  0  0
   13.5254    0.6418    3.1090 C   0  0  0  0  0  0
   12.8657   -0.1968    2.2146 C   0  0  0  0  0  0
   11.5220   -0.5039    2.4186 C   0  0  0  0  0  0
   10.8307    0.0192    3.5090 C   0  0  0  0  0  0
   11.4929    0.8503    4.4095 C   0  0  0  0  0  0
   12.3548    6.3893    8.0985 F   0  0  0  0  0  0
    5.9251    2.1640    6.0418 H   0  0  0  0  0  0
    6.1964    3.5470    8.0763 H   0  0  0  0  0  0
    8.2459    4.8793    8.3914 H   0  0  0  0  0  0
    9.7115    3.4902    4.5885 H   0  0  0  0  0  0
    7.6750    2.1365    4.3090 H   0  0  0  0  0  0
   10.1816    5.7558    7.4299 H   0  0  0  0  0  0
   14.7220    5.2040    7.8825 H   0  0  0  0  0  0
   14.5468    1.6974    5.1971 H   0  0  0  0  0  0
   14.5701    0.8688    2.9539 H   0  0  0  0  0  0
   13.3936   -0.6062    1.3665 H   0  0  0  0  0  0
   11.0058   -1.1481    1.7219 H   0  0  0  0  0  0
    9.7848   -0.2128    3.6513 H   0  0  0  0  0  0
   10.9516    1.2281    5.2636 H   0  0  0  0  0  0
  1  2  1  0  0  0
  1  6  2  0  0  0
  1 22  1  0  0  0
  2  3  2  0  0  0
  2 23  1  0  0  0
  3  4  1  0  0  0
  3 24  1  0  0  0
  4  5  2  0  0  0
  4  7  1  0  0  0
  5  6  1  0  0  0
  5 25  1  0  0  0
  6 26  1  0  0  0
  7 10  1  0  0  0
  7 27  1  0  0  0
  8  9  1  0  0  0
  8 13  2  0  0  0
  8 14  1  0  0  0
  9 10  2  0  0  0
 10 11  1  0  0  0
 11 12  2  0  0  0
 11 21  1  0  0  0
 12 13  1  0  0  0
 12 28  1  0  0  0
 14 15  1  0  0  0
 14 29  1  0  0  0
 15 16  1  0  0  0
 15 20  2  0  0  0
 16 17  2  0  0  0
 16 30  1  0  0  0
 17 18  1  0  0  0
 17 31  1  0  0  0
 18 19  2  0  0  0
 18 32  1  0  0  0
 19 20  1  0  0  0
 19 33  1  0  0  0
 20 34  1  0  0  0
M  END
> <s_m_entry_id>
47680

> <s_m_entry_name>
dock_pv.213

> <s_m_Source_Path>
/home/csk/Desktop/cluster/DUD-E-result/fak1

> <s_m_Source_File>
dock_pv.maegz

> <i_m_Source_File_Index>
213

> <chembl_id>
CHEMBL491758

> <chembl_pref_name>
None

> <i_lp_mmshare_version>
53161

> <i_f3d_flags>
0

> <r_lp_tautomer_probability>
0.999999624730965

> <s_lp_Force_Field>
OPLS_2005

> <r_lp_Energy>
12.367817

> <b_lp_Chiralities_Consistent>
1

> <s_lp_Variant>
CHEMBL2695_lig1839-1

> <s_i_glide_gridfile>
glide-grid_3bz3

> <i_i_glide_lignum>
2118

> <i_i_glide_rotatable_bonds>
4

> <r_i_docking_score>
-7.34551655761923

> <r_i_glide_ligand_efficiency>
-0.349786502743773

> <r_i_glide_ligand_efficiency_sa>
-0.965034438012239

> <r_i_glide_ligand_efficiency_ln>
-1.81616412585755

> <r_i_glide_gscore>
-7.34551655761923

> <r_i_glide_lipo>
-2.14318097168531

> <r_i_glide_hbond>
-0.593024973945254

> <r_i_glide_metal>
0

> <r_i_glide_rewards>
-3.21462378257576

> <r_i_glide_evdw>
-29.7214946746826

> <r_i_glide_ecoul>
-5.51970195770264

> <r_i_glide_erotb>
0.919343197976617

> <r_i_glide_esite>
0

> <r_i_glide_emodel>
-48.9406635736695

> <r_i_glide_energy>
-35.2411966323853

> <r_i_glide_einternal>
3.73186540603638

> <i_i_glide_confnum>
67

> <i_i_glide_posenum>
295

> <r_i_glide_eff_state_penalty>
0

> <s_user_duplicate_titles>
CHEMBL2695_lig1839

> <s_m_subgroup_title>
dock_pv

> <s_m_subgroupid>
dock_pv

> <b_m_subgroup_collapsed>
1

$$$$
CHEMBL2695_lig1820
                    3D
 Schrodinger Suite 2021-1.
 44 47  0  0  1  0            999 V2000
   14.2027    4.7629    6.7099 N   0  0  0  0  0  0
   12.8821    5.1268    6.8951 C   0  0  0  0  0  0
   12.6271    6.1371    7.7523 N   0  0  0  0  0  0
   11.3214    6.3072    8.0609 C   0  0  0  0  0  0
   10.3222    5.4459    7.5917 C   0  0  0  0  0  0
   10.6762    4.3976    6.7262 C   0  0  0  0  0  0
   11.9612    4.3322    6.3076 N   0  0  0  0  0  0
    9.7930    3.2245    6.2790 C   0  0  0  0  0  0
   10.0946    2.0358    5.5292 C   0  0  0  0  0  0
    8.9886    1.3819    5.2319 N   0  0  0  0  0  0
    8.0345    1.9627    5.8778 C   0  0  0  0  0  0
    8.4331    3.0608    6.5871 N   0  0  0  0  0  0
    7.5509    3.8479    7.4697 C   0  0  0  0  0  0
    6.0274    3.5974    7.3431 C   0  0  0  0  0  0
    5.5368    2.3576    8.1254 C   0  0  0  0  0  0
    6.0169    2.3631    9.5081 N   0  0  2  0  0  0
    7.4675    2.4701    9.6193 C   0  0  0  0  0  0
    7.9651    3.7553    8.9585 C   0  0  0  0  0  0
   11.3693    1.4796    4.9265 C   0  0  0  0  0  0
   12.6327    1.7372    5.4662 C   0  0  0  0  0  0
   13.7729    1.5630    4.6922 C   0  0  0  0  0  0
   13.6929    0.8597    3.4935 C   0  0  0  0  0  0
   14.8066    0.6505    2.7551 F   0  0  0  0  0  0
   12.4684    0.3636    3.0581 C   0  0  0  0  0  0
   11.3097    0.7073    3.7537 C   0  0  0  0  0  0
   14.3975    4.1233    5.9576 H   0  0  0  0  0  0
   14.9169    5.3603    7.1149 H   0  0  0  0  0  0
   11.0969    7.1157    8.7405 H   0  0  0  0  0  0
    9.3340    5.5802    7.9663 H   0  0  0  0  0  0
    7.0124    1.6184    5.8793 H   0  0  0  0  0  0
    7.6848    4.8428    7.0674 H   0  0  0  0  0  0
    5.4723    4.4798    7.6663 H   0  0  0  0  0  0
    5.7399    3.5404    6.2922 H   0  0  0  0  0  0
    4.4475    2.3490    8.1490 H   0  0  0  0  0  0
    5.8473    1.4276    7.6500 H   0  0  0  0  0  0
    5.7552    1.4761    9.9444 H   0  0  0  0  0  0
    7.7562    2.4590   10.6720 H   0  0  0  0  0  0
    7.9216    1.5947    9.1517 H   0  0  0  0  0  0
    9.0455    3.7762    9.0795 H   0  0  0  0  0  0
    7.6301    4.6335    9.5121 H   0  0  0  0  0  0
   12.7457    2.1485    6.4526 H   0  0  0  0  0  0
   14.7220    1.9359    5.0441 H   0  0  0  0  0  0
   12.4050   -0.1949    2.1363 H   0  0  0  0  0  0
   10.3586    0.4240    3.3251 H   0  0  0  0  0  0
  1  2  1  0  0  0
  1 26  1  0  0  0
  1 27  1  0  0  0
  2  3  2  0  0  0
  2  7  1  0  0  0
  3  4  1  0  0  0
  4  5  2  0  0  0
  4 28  1  0  0  0
  5  6  1  0  0  0
  5 29  1  0  0  0
  6  7  2  0  0  0
  6  8  1  0  0  0
  8  9  2  0  0  0
  8 12  1  0  0  0
  9 10  1  0  0  0
  9 19  1  0  0  0
 10 11  2  0  0  0
 11 12  1  0  0  0
 11 30  1  0  0  0
 12 13  1  0  0  0
 13 14  1  0  0  0
 13 18  1  0  0  0
 13 31  1  0  0  0
 14 15  1  0  0  0
 14 32  1  0  0  0
 14 33  1  0  0  0
 15 16  1  0  0  0
 15 34  1  0  0  0
 15 35  1  0  0  0
 16 17  1  0  0  0
 16 36  1  0  0  0
 17 18  1  0  0  0
 17 37  1  0  0  0
 17 38  1  0  0  0
 18 39  1  0  0  0
 18 40  1  0  0  0
 19 20  2  0  0  0
 19 25  1  0  0  0
 20 21  1  0  0  0
 20 41  1  0  0  0
 21 22  2  0  0  0
 21 42  1  0  0  0
 22 23  1  0  0  0
 22 24  1  0  0  0
 24 25  2  0  0  0
 24 43  1  0  0  0
 25 44  1  0  0  0
M  END
> <s_m_entry_id>
47681

> <s_m_entry_name>
dock_pv.214

> <s_m_Source_Path>
/home/csk/Desktop/cluster/DUD-E-result/fak1

> <s_m_Source_File>
dock_pv.maegz

> <i_m_Source_File_Index>
214

> <chembl_id>
CHEMBL274064

> <chembl_pref_name>
SB-220025

> <i_lp_mmshare_version>
53161

> <i_f3d_flags>
0

> <r_lp_tautomer_probability>
0.999999987636

> <s_lp_Force_Field>
OPLS_2005

> <r_lp_Energy>
23.304277

> <b_lp_Chiralities_Consistent>
1

> <s_lp_Variant>
CHEMBL2695_lig1820-1

> <s_i_glide_gridfile>
glide-grid_3bz3

> <i_i_glide_lignum>
2095

> <i_i_glide_rotatable_bonds>
3

> <r_i_docking_score>
-7.33814190176487

> <r_i_glide_ligand_efficiency>
-0.293525676070595

> <r_i_glide_ligand_efficiency_sa>
-0.85827428253045

> <r_i_glide_ligand_efficiency_ln>
-1.73935953708572

> <r_i_glide_gscore>
-7.33814190176487

> <r_i_glide_lipo>
-2.92605024299783

> <r_i_glide_hbond>
-0.600931302455567

> <r_i_glide_metal>
0

> <r_i_glide_rewards>
-1.99628429770213

> <r_i_glide_evdw>
-30.8133392333984

> <r_i_glide_ecoul>
-4.80246734619141

> <r_i_glide_erotb>
0.495481255241694

> <r_i_glide_esite>
-0.0493202502523987

> <r_i_glide_emodel>
-47.8306630555534

> <r_i_glide_energy>
-35.6158065795898

> <r_i_glide_einternal>
3.21542716026306

> <i_i_glide_confnum>
67

> <i_i_glide_posenum>
164

> <r_i_glide_eff_state_penalty>
0

> <s_user_duplicate_titles>
CHEMBL2695_lig1820

> <s_m_subgroup_title>
dock_pv

> <s_m_subgroupid>
dock_pv

> <b_m_subgroup_collapsed>
1

$$$$
CHEMBL2695_lig1527
                    3D
 Schrodinger Suite 2021-1.
 57 61  0  0  1  0            999 V2000
   14.3226    2.3630    5.9076 O   0  0  0  0  0  0
    4.5351    3.9695    8.3779 O   0  0  0  0  0  0
   12.2680    1.5634    5.3730 N   0  0  0  0  0  0
   13.2177    6.5134    8.3683 N   0  0  0  0  0  0
    5.5218    5.3794    5.1078 N   0  0  0  0  0  0
    1.1781    3.5876    9.7920 N   0  0  0  0  0  0
   10.9349    3.2382    6.0182 C   0  0  0  0  0  0
   12.3215    3.6024    6.3089 C   0  0  0  0  0  0
   10.9705    1.9905    5.4268 C   0  0  0  0  0  0
   13.1103    2.4751    5.8694 C   0  0  0  0  0  0
    8.5348    3.2420    5.7617 C   0  0  0  0  0  0
    9.7054    3.8656    6.2071 C   0  0  0  0  0  0
    9.8244    1.3504    4.9726 C   0  0  0  0  0  0
    7.2371    3.8984    5.9458 C   0  0  0  0  0  0
   12.9679    4.6618    6.8471 C   0  0  0  0  0  0
    8.5977    1.9882    5.1404 C   0  0  0  0  0  0
   12.4915    5.9123    7.3728 C   0  0  0  0  0  0
    6.4783    3.6656    7.0915 C   0  0  0  0  0  0
    6.7204    4.7633    4.9820 C   0  0  0  0  0  0
    5.2287    4.2620    7.2342 C   0  0  0  0  0  0
   11.4427    6.7708    7.0694 C   0  0  0  0  0  0
    4.7849    5.1184    6.2163 C   0  0  0  0  0  0
   12.6372    7.6978    8.7098 C   0  0  0  0  0  0
   11.5261    7.8845    7.9084 C   0  0  0  0  0  0
    3.1226    4.1111    8.3723 C   0  0  0  0  0  0
    2.6216    3.4461    9.6710 C   0  0  2  0  0  0
    3.0740    1.9705    9.8023 C   0  0  0  0  0  0
    2.7290    1.0390    8.6377 C   0  0  0  0  0  0
    3.7669    0.4521    7.9081 C   0  0  0  0  0  0
    1.3994    0.7456    8.3103 C   0  0  0  0  0  0
    3.4827   -0.4223    6.8638 C   0  0  0  0  0  0
    1.1145   -0.1226    7.2578 C   0  0  0  0  0  0
    2.1577   -0.7023    6.5389 C   0  0  0  0  0  0
   12.5762    0.6938    4.9713 H   0  0  0  0  0  0
   14.0688    6.1417    8.7701 H   0  0  0  0  0  0
    0.9477    4.5734    9.8199 H   0  0  0  0  0  0
    0.7514    3.2281    8.9514 H   0  0  0  0  0  0
    9.6308    4.8185    6.7009 H   0  0  0  0  0  0
    9.8630    0.3850    4.4907 H   0  0  0  0  0  0
   14.0467    4.6106    6.9279 H   0  0  0  0  0  0
    7.6961    1.5042    4.7907 H   0  0  0  0  0  0
    6.8432    3.0006    7.8609 H   0  0  0  0  0  0
    7.2768    4.9789    4.0803 H   0  0  0  0  0  0
   10.6968    6.6265    6.3089 H   0  0  0  0  0  0
    3.8327    5.6240    6.2686 H   0  0  0  0  0  0
   13.0727    8.3136    9.4855 H   0  0  0  0  0  0
   10.8613    8.7377    7.9194 H   0  0  0  0  0  0
    2.8350    5.1618    8.3098 H   0  0  0  0  0  0
    2.6917    3.6148    7.4996 H   0  0  0  0  0  0
    3.0668    3.9647   10.5194 H   0  0  0  0  0  0
    4.1602    1.9696    9.9147 H   0  0  0  0  0  0
    2.7222    1.5634   10.7435 H   0  0  0  0  0  0
    4.7996    0.6608    8.1517 H   0  0  0  0  0  0
    0.5842    1.1788    8.8707 H   0  0  0  0  0  0
    4.2902   -0.8791    6.3089 H   0  0  0  0  0  0
    0.0898   -0.3438    7.0004 H   0  0  0  0  0  0
    1.9442   -1.3735    5.7196 H   0  0  0  0  0  0
  1 10  2  0  0  0
  2 20  1  0  0  0
  2 25  1  0  0  0
  3  9  1  0  0  0
  3 10  1  0  0  0
  3 34  1  0  0  0
  4 17  1  0  0  0
  4 23  1  0  0  0
  4 35  1  0  0  0
  5 19  2  0  0  0
  5 22  1  0  0  0
  6 26  1  0  0  0
  6 36  1  0  0  0
  6 37  1  0  0  0
  7  8  1  0  0  0
  7  9  1  0  0  0
  7 12  2  0  0  0
  8 10  1  0  0  0
  8 15  2  3  0  0
  9 13  2  0  0  0
 11 12  1  0  0  0
 11 14  1  0  0  0
 11 16  2  0  0  0
 12 38  1  0  0  0
 13 16  1  0  0  0
 13 39  1  0  0  0
 14 18  2  0  0  0
 14 19  1  0  0  0
 15 17  1  0  0  0
 15 40  1  0  0  0
 16 41  1  0  0  0
 17 21  2  0  0  0
 18 20  1  0  0  0
 18 42  1  0  0  0
 19 43  1  0  0  0
 20 22  2  0  0  0
 21 24  1  0  0  0
 21 44  1  0  0  0
 22 45  1  0  0  0
 23 24  2  0  0  0
 23 46  1  0  0  0
 24 47  1  0  0  0
 25 26  1  0  0  0
 25 48  1  0  0  0
 25 49  1  0  0  0
 26 27  1  0  0  0
 26 50  1  0  0  0
 27 28  1  0  0  0
 27 51  1  0  0  0
 27 52  1  0  0  0
 28 29  2  0  0  0
 28 30  1  0  0  0
 29 31  1  0  0  0
 29 53  1  0  0  0
 30 32  2  0  0  0
 30 54  1  0  0  0
 31 33  2  0  0  0
 31 55  1  0  0  0
 32 33  1  0  0  0
 32 56  1  0  0  0
 33 57  1  0  0  0
M  END
> <s_m_entry_id>
47682

> <s_m_entry_name>
dock_pv.215

> <s_m_Source_Path>
/home/csk/Desktop/cluster/DUD-E-result/fak1

> <s_m_Source_File>
dock_pv.maegz

> <i_m_Source_File_Index>
215

> <chembl_id>
CHEMBL1980407

> <chembl_pref_name>
None

> <i_lp_mmshare_version>
53161

> <i_f3d_flags>
0

> <r_lp_tautomer_probability>
1

> <s_lp_Force_Field>
OPLS_2005

> <r_lp_Energy>
45.100306

> <b_lp_Chiralities_Consistent>
1

> <s_lp_Variant>
CHEMBL2695_lig1527-1

> <s_i_glide_gridfile>
glide-grid_3bz3

> <i_i_glide_lignum>
1670

> <i_i_glide_rotatable_bonds>
7

> <r_i_docking_score>
-7.33140962234464

> <r_i_glide_ligand_efficiency>
-0.222163927949838

> <r_i_glide_ligand_efficiency_sa>
-0.712598424955288

> <r_i_glide_ligand_efficiency_ln>
-1.630467540002

> <r_i_glide_gscore>
-7.33140962234464

> <r_i_glide_lipo>
-3.46157361168536

> <r_i_glide_hbond>
-0.168326552494787

> <r_i_glide_metal>
0

> <r_i_glide_rewards>
-1.19584144574063

> <r_i_glide_evdw>
-48.1941337585449

> <r_i_glide_ecoul>
-4.12698125839233

> <r_i_glide_erotb>
0.523085864262234

> <r_i_glide_esite>
0

> <r_i_glide_emodel>
-66.2704697689087

> <r_i_glide_energy>
-52.3211150169373

> <r_i_glide_einternal>
10.3197984695435

> <i_i_glide_confnum>
32

> <i_i_glide_posenum>
104

> <r_i_glide_eff_state_penalty>
0

> <s_user_duplicate_titles>
CHEMBL2695_lig1527

> <s_m_subgroup_title>
dock_pv

> <s_m_subgroupid>
dock_pv

> <b_m_subgroup_collapsed>
1

$$$$
CHEMBL2695_lig1931
                    3D
 Schrodinger Suite 2021-1.
 38 41  0  0  1  0            999 V2000
   11.4685    6.6500    7.4425 O   0  0  0  0  0  0
    5.3007    3.9630   10.3090 O   0  0  0  0  0  0
   12.7226    4.8651    6.7090 N   0  0  0  0  0  0
    8.2777    3.6469    6.6033 N   0  0  0  0  0  0
   10.7290   -0.5849    3.2598 N   0  0  0  0  0  0
   10.4485    4.6741    6.3362 C   0  0  1  0  0  0
   11.1734    3.4711    5.8424 C   0  0  0  0  0  0
    9.2455    4.3631    7.2280 C   0  0  0  0  0  0
   12.5212    3.6466    6.0802 C   0  0  0  0  0  0
   11.5808    5.5470    6.9130 C   0  0  0  0  0  0
    7.1623    3.2843    7.2766 C   0  0  0  0  0  0
    6.9785    3.6198    8.6313 C   0  0  0  0  0  0
   10.7073    2.3383    5.1761 C   0  0  0  0  0  0
    9.1220    4.7630    8.5602 C   0  0  0  0  0  0
   13.4474    2.6817    5.6972 C   0  0  0  0  0  0
   11.6194    1.3877    4.7257 C   0  0  0  0  0  0
    7.9891    4.3630    9.2592 C   0  0  0  0  0  0
    5.8563    3.0035    9.4557 C   0  0  2  0  0  0
   12.9907    1.5630    4.9977 C   0  0  0  0  0  0
    6.1076    2.4984    6.5040 C   0  0  0  0  0  0
    4.7429    2.3500    8.6119 C   0  0  0  0  0  0
    5.3075    1.5630    7.4202 C   0  0  0  0  0  0
   11.1220    0.2885    3.9090 C   0  0  0  0  0  0
    4.8328    3.4993   11.0195 H   0  0  0  0  0  0
   13.6211    5.2192    7.0012 H   0  0  0  0  0  0
   10.0364    5.1630    5.4630 H   0  0  0  0  0  0
    9.6545    2.2258    4.9522 H   0  0  0  0  0  0
    9.8875    5.3346    9.0614 H   0  0  0  0  0  0
   14.5021    2.7962    5.8935 H   0  0  0  0  0  0
    7.8987    4.6145   10.3063 H   0  0  0  0  0  0
    6.3036    2.2453   10.0978 H   0  0  0  0  0  0
   13.7192    0.8431    4.6493 H   0  0  0  0  0  0
    5.4260    3.2116    6.0386 H   0  0  0  0  0  0
    6.5596    1.9320    5.6870 H   0  0  0  0  0  0
    4.0824    3.1311    8.2294 H   0  0  0  0  0  0
    4.0937    1.7450    9.2461 H   0  0  0  0  0  0
    4.5007    1.0922    6.8569 H   0  0  0  0  0  0
    5.9450    0.7508    7.7751 H   0  0  0  0  0  0
  1 10  2  0  0  0
  2 18  1  0  0  0
  2 24  1  0  0  0
  3  9  1  0  0  0
  3 10  1  0  0  0
  3 25  1  0  0  0
  4  8  1  0  0  0
  4 11  2  0  0  0
  5 23  3  0  0  0
  6  7  1  0  0  0
  6  8  1  0  0  0
  6 10  1  0  0  0
  6 26  1  0  0  0
  7  9  1  0  0  0
  7 13  2  0  0  0
  8 14  2  0  0  0
  9 15  2  0  0  0
 11 12  1  0  0  0
 11 20  1  0  0  0
 12 17  2  0  0  0
 12 18  1  0  0  0
 13 16  1  0  0  0
 13 27  1  0  0  0
 14 17  1  0  0  0
 14 28  1  0  0  0
 15 19  1  0  0  0
 15 29  1  0  0  0
 16 19  2  0  0  0
 16 23  1  0  0  0
 17 30  1  0  0  0
 18 21  1  0  0  0
 18 31  1  0  0  0
 19 32  1  0  0  0
 20 22  1  0  0  0
 20 33  1  0  0  0
 20 34  1  0  0  0
 21 22  1  0  0  0
 21 35  1  0  0  0
 21 36  1  0  0  0
 22 37  1  0  0  0
 22 38  1  0  0  0
M  END
> <s_m_entry_id>
47683

> <s_m_entry_name>
dock_pv.216

> <s_m_Source_Path>
/home/csk/Desktop/cluster/DUD-E-result/fak1

> <s_m_Source_File>
dock_pv.maegz

> <i_m_Source_File_Index>
216

> <chembl_id>
CHEMBL1985681

> <chembl_pref_name>
None

> <i_lp_mmshare_version>
53161

> <i_f3d_flags>
0

> <r_lp_tautomer_probability>
1

> <s_lp_Force_Field>
OPLS_2005

> <r_lp_Energy>
34.63805

> <b_lp_Chiralities_Consistent>
1

> <s_lp_Variant>
CHEMBL2695_lig1931-2

> <s_i_glide_gridfile>
glide-grid_3bz3

> <i_i_glide_lignum>
2250

> <i_i_glide_rotatable_bonds>
2

> <r_i_docking_score>
-7.33034542669417

> <r_i_glide_ligand_efficiency>
-0.318710670725833

> <r_i_glide_ligand_efficiency_sa>
-0.906370751656236

> <r_i_glide_ligand_efficiency_ln>
-1.77254399207211

> <r_i_glide_gscore>
-7.33034542669417

> <r_i_glide_lipo>
-2.83588387910247

> <r_i_glide_hbond>
-0.32

> <r_i_glide_metal>
0

> <r_i_glide_rewards>
-1.87081299636806

> <r_i_glide_evdw>
-33.0815582275391

> <r_i_glide_ecoul>
-5.65023136138916

> <r_i_glide_erotb>
0.197964064361684

> <r_i_glide_esite>
0

> <r_i_glide_emodel>
-52.7027095117552

> <r_i_glide_energy>
-38.7317895889282

> <r_i_glide_einternal>
1.93155145645142

> <i_i_glide_confnum>
2

> <i_i_glide_posenum>
66

> <r_i_glide_eff_state_penalty>
0

> <s_user_duplicate_titles>
CHEMBL2695_lig1931

> <s_m_subgroup_title>
dock_pv

> <s_m_subgroupid>
dock_pv

> <b_m_subgroup_collapsed>
1

$$$$
CHEMBL2695_lig222
                    3D
 Schrodinger Suite 2021-1.
 59 62  0  0  1  0            999 V2000
    5.2286    3.5546    9.6337 C   0  0  0  0  0  0
    6.4955    3.2525    9.1541 C   0  0  0  0  0  0
    6.6537    2.1616    8.3019 C   0  0  0  0  0  0
    5.5442    1.4101    7.9071 C   0  0  0  0  0  0
    7.5577    4.0527    9.5948 N   0  0  0  0  0  0
    8.6940    4.5266    8.9404 C   0  0  0  0  0  0
    8.9175    4.2080    7.6471 N   0  0  0  0  0  0
   10.0015    4.7609    7.0380 C   0  0  0  0  0  0
   10.8472    5.6530    7.7243 C   0  0  0  0  0  0
   10.5395    5.9119    9.0594 C   0  0  0  0  0  0
    9.4687    5.3521    9.6736 N   0  0  0  0  0  0
   10.2640    4.4420    5.6944 N   0  0  0  0  0  0
   12.0209    6.3652    7.0728 C   0  0  0  0  0  0
   12.8463    6.9129    7.9663 F   0  0  0  0  0  0
   12.7205    5.5163    6.3245 F   0  0  0  0  0  0
   11.5304    7.3406    6.3142 F   0  0  0  0  0  0
    4.2583    1.7499    8.3546 C   0  0  0  0  0  0
    4.1005    2.8220    9.2608 C   0  0  0  0  0  0
    2.7380    3.1804    9.8477 C   0  0  0  0  0  0
    3.1186    0.8564    7.8975 C   0  0  0  0  0  0
    1.6795    3.6255    8.8231 C   0  0  0  0  0  0
    1.9664    1.4661    7.5604 N   0  0  0  0  0  0
    1.7160    2.9032    7.4642 C   0  0  0  0  0  0
    3.2475   -0.3646    7.8527 O   0  0  0  0  0  0
    8.0469    3.8299    4.6934 C   0  0  0  0  0  0
    9.5217    3.4508    4.9098 C   0  0  2  0  0  0
    9.5563    2.0090    5.4846 C   0  0  1  0  0  0
    8.2040    1.3910    5.0991 C   0  0  0  0  0  0
    7.2245    2.5485    4.8528 C   0  0  0  0  0  0
   10.7381    1.1784    5.1826 N   0  0  0  0  0  0
   10.8005    0.6914    3.8103 C   0  0  0  0  0  0
   11.9896    1.7777    5.6353 C   0  0  0  0  0  0
    5.1154    4.3661   10.3336 H   0  0  0  0  0  0
    7.6338    1.8843    7.9480 H   0  0  0  0  0  0
    5.6956    0.5679    7.2416 H   0  0  0  0  0  0
    7.4374    4.4365   10.5176 H   0  0  0  0  0  0
   11.1343    6.5944    9.6476 H   0  0  0  0  0  0
   11.1822    4.6933    5.3575 H   0  0  0  0  0  0
    2.3912    2.3108   10.4068 H   0  0  0  0  0  0
    2.8506    3.9622   10.6020 H   0  0  0  0  0  0
    0.6941    3.4967    9.2719 H   0  0  0  0  0  0
    1.7698    4.6983    8.6456 H   0  0  0  0  0  0
    1.2234    0.8387    7.2962 H   0  0  0  0  0  0
    0.7575    3.0441    6.9645 H   0  0  0  0  0  0
    2.4667    3.3468    6.8050 H   0  0  0  0  0  0
    7.6904    4.6002    5.3803 H   0  0  0  0  0  0
    7.9269    4.2492    3.6950 H   0  0  0  0  0  0
    9.9590    3.4157    3.9135 H   0  0  0  0  0  0
    9.5400    2.0470    6.5713 H   0  0  0  0  0  0
    8.2448    0.7837    4.1958 H   0  0  0  0  0  0
    7.8407    0.7632    5.9096 H   0  0  0  0  0  0
    6.5257    2.6639    5.6788 H   0  0  0  0  0  0
    6.6122    2.3496    3.9733 H   0  0  0  0  0  0
   10.2165   -0.2225    3.7073 H   0  0  0  0  0  0
   11.8152    0.4799    3.4659 H   0  0  0  0  0  0
   10.3389    1.4244    3.1496 H   0  0  0  0  0  0
   11.9361    2.0046    6.6992 H   0  0  0  0  0  0
   12.8307    1.1027    5.4877 H   0  0  0  0  0  0
   12.2175    2.7036    5.1135 H   0  0  0  0  0  0
  1  2  2  0  0  0
  1 18  1  0  0  0
  1 33  1  0  0  0
  2  3  1  0  0  0
  2  5  1  0  0  0
  3  4  2  0  0  0
  3 34  1  0  0  0
  4 17  1  0  0  0
  4 35  1  0  0  0
  5  6  1  0  0  0
  5 36  1  0  0  0
  6  7  2  0  0  0
  6 11  1  0  0  0
  7  8  1  0  0  0
  8  9  2  0  0  0
  8 12  1  0  0  0
  9 10  1  0  0  0
  9 13  1  0  0  0
 10 11  2  0  0  0
 10 37  1  0  0  0
 12 26  1  0  0  0
 12 38  1  0  0  0
 13 15  1  0  0  0
 13 16  1  0  0  0
 13 14  1  0  0  0
 17 18  2  0  0  0
 17 20  1  0  0  0
 18 19  1  0  0  0
 19 21  1  0  0  0
 19 39  1  0  0  0
 19 40  1  0  0  0
 20 22  1  0  0  0
 20 24  2  0  0  0
 21 23  1  0  0  0
 21 41  1  0  0  0
 21 42  1  0  0  0
 22 23  1  0  0  0
 22 43  1  0  0  0
 23 44  1  0  0  0
 23 45  1  0  0  0
 25 26  1  0  0  0
 25 29  1  0  0  0
 25 46  1  0  0  0
 25 47  1  0  0  0
 26 27  1  0  0  0
 26 48  1  0  0  0
 27 28  1  0  0  0
 27 30  1  0  0  0
 27 49  1  0  0  0
 28 29  1  0  0  0
 28 50  1  0  0  0
 28 51  1  0  0  0
 29 52  1  0  0  0
 29 53  1  0  0  0
 30 31  1  0  0  0
 30 32  1  0  0  0
 31 54  1  0  0  0
 31 55  1  0  0  0
 31 56  1  0  0  0
 32 57  1  0  0  0
 32 58  1  0  0  0
 32 59  1  0  0  0
M  END
> <s_m_entry_id>
47684

> <s_m_entry_name>
dock_pv.217

> <s_m_Source_Path>
/home/csk/Desktop/cluster/DUD-E-result/fak1

> <s_m_Source_File>
dock_pv.maegz

> <i_m_Source_File_Index>
217

> <chembl_id>
CHEMBL518905

> <chembl_pref_name>
None

> <i_lp_mmshare_version>
53161

> <i_f3d_flags>
0

> <r_lp_tautomer_probability>
0.999999624730965

> <s_lp_Force_Field>
OPLS_2005

> <r_lp_Energy>
44.852766

> <b_lp_Chiralities_Consistent>
1

> <s_lp_Variant>
CHEMBL2695_lig222-1

> <s_i_glide_gridfile>
glide-grid_3bz3

> <i_i_glide_lignum>
254

> <i_i_glide_rotatable_bonds>
6

> <r_i_docking_score>
-7.31763610464461

> <r_i_glide_ligand_efficiency>
-0.228676128270144

> <r_i_glide_ligand_efficiency_sa>
-0.726001452313374

> <r_i_glide_ligand_efficiency_ln>
-1.63861819505648

> <r_i_glide_gscore>
-7.31763610464461

> <r_i_glide_lipo>
-2.33019222474769

> <r_i_glide_hbond>
-0.305333679241982

> <r_i_glide_metal>
0

> <r_i_glide_rewards>
-2.78356232601275

> <r_i_glide_evdw>
-36.4605102539062

> <r_i_glide_ecoul>
-2.96563363075256

> <r_i_glide_erotb>
0.39839522262561

> <r_i_glide_esite>
-0.0290725399596005

> <r_i_glide_emodel>
-50.4245674798677

> <r_i_glide_energy>
-39.4261438846588

> <r_i_glide_einternal>
14.4402809143066

> <i_i_glide_confnum>
24

> <i_i_glide_posenum>
240

> <r_i_glide_eff_state_penalty>
0

> <s_user_duplicate_titles>
CHEMBL2695_lig222,453007

> <s_m_subgroup_title>
dock_pv

> <s_m_subgroupid>
dock_pv

> <b_m_subgroup_collapsed>
1

$$$$
CHEMBL2695_lig537
                    3D
 Schrodinger Suite 2021-1.
 47 50  0  0  1  0            999 V2000
    3.5556    4.1821    6.6143 C   0  0  0  0  0  0
    4.9142    3.7593    6.5689 O   0  0  0  0  0  0
    5.6557    3.7043    7.7367 C   0  0  0  0  0  0
    5.1192    3.9629    9.0069 C   0  0  0  0  0  0
    5.9284    3.9616   10.1406 C   0  0  0  0  0  0
    7.2768    3.6579   10.0336 C   0  0  0  0  0  0
    7.8146    3.3643    8.7874 C   0  0  0  0  0  0
    7.0191    3.3882    7.6280 C   0  0  0  0  0  0
    7.5868    3.1149    6.2269 C   0  0  0  0  0  0
    8.9771    2.6704    6.1705 N   0  0  0  0  0  0
   10.0658    3.5399    6.3688 C   0  0  0  0  0  0
    9.9377    4.8250    6.9127 C   0  0  0  0  0  0
   11.0422    5.6479    7.1506 C   0  0  0  0  0  0
   12.3215    5.1942    6.8417 C   0  0  0  0  0  0
   12.4417    3.9474    6.2969 N   0  0  0  0  0  0
   13.5725    3.3366    5.9091 N   0  0  0  0  0  0
   13.1111    2.2427    5.3383 C   0  0  0  0  0  0
   13.9220    1.5630    4.4812 N   0  0  0  0  0  0
   13.6363    0.7096    3.4026 C   0  0  0  0  0  0
   14.7221    0.1409    2.7313 C   0  0  0  0  0  0
   14.4874   -0.7509    1.6831 C   0  0  0  0  0  0
   13.2432   -1.0745    1.2539 N   0  0  0  0  0  0
   12.1917   -0.5153    1.9036 C   0  0  0  0  0  0
   10.8169   -0.8875    1.3830 C   0  0  0  0  0  0
   12.3442    0.3630    2.9789 C   0  0  0  0  0  0
   11.8377    1.9581    5.5089 N   0  0  0  0  0  0
   11.3612    3.1017    6.0472 C   0  0  0  0  0  0
    3.1515    4.2001    5.6020 H   0  0  0  0  0  0
    2.9427    3.4981    7.2024 H   0  0  0  0  0  0
    3.4635    5.1898    7.0227 H   0  0  0  0  0  0
    4.0757    4.2060    9.1304 H   0  0  0  0  0  0
    5.5156    4.1970   11.1087 H   0  0  0  0  0  0
    7.9027    3.6537   10.9139 H   0  0  0  0  0  0
    8.8705    3.1630    8.7400 H   0  0  0  0  0  0
    6.9759    2.3476    5.7477 H   0  0  0  0  0  0
    7.4629    4.0099    5.6149 H   0  0  0  0  0  0
    9.1561    1.8390    5.6214 H   0  0  0  0  0  0
    8.9554    5.1632    7.1876 H   0  0  0  0  0  0
   10.9023    6.6294    7.5814 H   0  0  0  0  0  0
   13.2294    5.7600    6.9962 H   0  0  0  0  0  0
   14.8991    1.5234    4.7331 H   0  0  0  0  0  0
   15.7358    0.3584    3.0362 H   0  0  0  0  0  0
   15.3136   -1.2306    1.1787 H   0  0  0  0  0  0
   10.0239   -0.4784    2.0108 H   0  0  0  0  0  0
   10.6780   -0.4986    0.3739 H   0  0  0  0  0  0
   10.6971   -1.9711    1.3555 H   0  0  0  0  0  0
   11.4602    0.7657    3.4447 H   0  0  0  0  0  0
  1  2  1  0  0  0
  1 28  1  0  0  0
  1 29  1  0  0  0
  1 30  1  0  0  0
  2  3  1  0  0  0
  3  4  2  0  0  0
  3  8  1  0  0  0
  4  5  1  0  0  0
  4 31  1  0  0  0
  5  6  2  0  0  0
  5 32  1  0  0  0
  6  7  1  0  0  0
  6 33  1  0  0  0
  7  8  2  0  0  0
  7 34  1  0  0  0
  8  9  1  0  0  0
  9 10  1  0  0  0
  9 35  1  0  0  0
  9 36  1  0  0  0
 10 11  1  0  0  0
 10 37  1  0  0  0
 11 12  2  0  0  0
 11 27  1  0  0  0
 12 13  1  0  0  0
 12 38  1  0  0  0
 13 14  2  0  0  0
 13 39  1  0  0  0
 14 15  1  0  0  0
 14 40  1  0  0  0
 15 16  1  0  0  0
 15 27  1  0  0  0
 16 17  2  0  0  0
 17 18  1  0  0  0
 17 26  1  0  0  0
 18 19  1  0  0  0
 18 41  1  0  0  0
 19 20  2  0  0  0
 19 25  1  0  0  0
 20 21  1  0  0  0
 20 42  1  0  0  0
 21 22  2  0  0  0
 21 43  1  0  0  0
 22 23  1  0  0  0
 23 24  1  0  0  0
 23 25  2  0  0  0
 24 44  1  0  0  0
 24 45  1  0  0  0
 24 46  1  0  0  0
 25 47  1  0  0  0
 26 27  2  0  0  0
M  END
> <s_m_entry_id>
47686

> <s_m_entry_name>
dock_pv.219

> <s_m_Source_Path>
/home/csk/Desktop/cluster/DUD-E-result/fak1

> <s_m_Source_File>
dock_pv.maegz

> <i_m_Source_File_Index>
219

> <chembl_id>
CHEMBL3645111

> <chembl_pref_name>
None

> <i_lp_mmshare_version>
53161

> <i_f3d_flags>
0

> <r_lp_tautomer_probability>
0.999999106000799

> <s_lp_Force_Field>
OPLS_2005

> <r_lp_Energy>
24.983871

> <b_lp_Chiralities_Consistent>
1

> <s_lp_Variant>
CHEMBL2695_lig537-1

> <s_i_glide_gridfile>
glide-grid_3bz3

> <i_i_glide_lignum>
591

> <i_i_glide_rotatable_bonds>
6

> <r_i_docking_score>
-7.31216617799632

> <r_i_glide_ligand_efficiency>
-0.270820969555419

> <r_i_glide_ligand_efficiency_sa>
-0.812462907773676

> <r_i_glide_ligand_efficiency_ln>
-1.70215173575657

> <r_i_glide_gscore>
-7.31216617799632

> <r_i_glide_lipo>
-3.04389476083519

> <r_i_glide_hbond>
-0.218986640094353

> <r_i_glide_metal>
0

> <r_i_glide_rewards>
-2.10741191254836

> <r_i_glide_evdw>
-38.9966773986816

> <r_i_glide_ecoul>
-4.86843347549438

> <r_i_glide_erotb>
0.738226026739814

> <r_i_glide_esite>
0

> <r_i_glide_emodel>
-54.4352558755389

> <r_i_glide_energy>
-43.865110874176

> <r_i_glide_einternal>
13.4030475616455

> <i_i_glide_confnum>
19

> <i_i_glide_posenum>
31

> <r_i_glide_eff_state_penalty>
0

> <s_user_duplicate_titles>
CHEMBL2695_lig537

> <s_m_subgroup_title>
dock_pv

> <s_m_subgroupid>
dock_pv

> <b_m_subgroup_collapsed>
1

$$$$
CHEMBL2695_lig1162
                    3D
 Schrodinger Suite 2021-1.
 62 65  0  0  1  0            999 V2000
    2.9907    1.6906    1.8529 C   0  0  0  0  0  0
    3.5212    2.3704    3.0333 N   0  0  0  0  0  0
    4.6559    1.6282    3.5854 C   0  0  0  0  0  0
    5.2511    2.3822    4.7968 C   0  0  0  0  0  0
    4.2681    2.6136    5.8664 N   0  0  0  0  0  0
    3.0166    3.1786    5.3262 C   0  0  0  0  0  0
    2.4883    2.4579    4.0634 C   0  0  0  0  0  0
    4.6488    2.9298    7.1629 C   0  0  0  0  0  0
    3.7372    2.7147    8.2015 C   0  0  0  0  0  0
    4.0691    3.0363    9.5092 C   0  0  0  0  0  0
    5.3223    3.5658    9.8008 C   0  0  0  0  0  0
    6.2584    3.7763    8.7950 C   0  0  0  0  0  0
    7.4713    4.3540    9.1979 N   0  0  0  0  0  0
    8.6875    4.5861    8.5555 C   0  0  0  0  0  0
    9.5378    5.4125    9.2132 N   0  0  0  0  0  0
   10.7180    5.6975    8.5970 C   0  0  0  0  0  0
   11.0796    5.1240    7.3737 C   0  0  0  0  0  0
   10.1391    4.2446    6.7824 C   0  0  0  0  0  0
   10.3957    3.3885    5.5354 C   0  0  0  0  0  0
   11.0363    2.0361    5.9079 C   0  0  0  0  0  0
   11.8152    1.3550    4.8007 C   0  0  0  0  0  0
   13.1968    1.5628    4.7065 C   0  0  0  0  0  0
   13.9155    1.0059    3.6501 C   0  0  0  0  0  0
   13.2650    0.2127    2.7067 C   0  0  0  0  0  0
   11.8854   -0.0372    2.7998 C   0  0  0  0  0  0
   11.1669    0.5449    3.8653 C   0  0  0  0  0  0
   11.2116   -0.8942    1.7479 C   0  0  0  0  0  0
   11.8459   -1.4038    0.8248 O   0  0  0  0  0  0
    9.8952   -1.0832    1.8501 N   0  0  0  0  0  0
    8.9430    3.9893    7.3670 N   0  0  0  0  0  0
   12.4581    5.3934    6.8020 C   0  0  0  0  0  0
   12.9987    6.4896    7.3343 F   0  0  0  0  0  0
   13.2954    4.3795    6.9950 F   0  0  0  0  0  0
   12.3220    5.5637    5.5070 F   0  0  0  0  0  0
    5.9150    3.4572    7.4721 C   0  0  0  0  0  0
    2.6180    0.6930    2.0930 H   0  0  0  0  0  0
    2.1718    2.2651    1.4155 H   0  0  0  0  0  0
    3.7565    1.5794    1.0847 H   0  0  0  0  0  0
    5.4292    1.5230    2.8237 H   0  0  0  0  0  0
    4.3625    0.6174    3.8796 H   0  0  0  0  0  0
    5.6242    3.3475    4.4518 H   0  0  0  0  0  0
    6.0985    1.8154    5.1850 H   0  0  0  0  0  0
    2.2254    3.1730    6.0753 H   0  0  0  0  0  0
    3.2063    4.2234    5.0799 H   0  0  0  0  0  0
    2.1181    1.4651    4.3274 H   0  0  0  0  0  0
    1.6370    3.0151    3.6699 H   0  0  0  0  0  0
    2.7649    2.2909    8.0021 H   0  0  0  0  0  0
    3.3578    2.8693   10.3068 H   0  0  0  0  0  0
    5.5629    3.8270   10.8220 H   0  0  0  0  0  0
    7.4259    4.7886   10.1061 H   0  0  0  0  0  0
   11.3839    6.3619    9.1295 H   0  0  0  0  0  0
   10.9989    3.9231    4.8119 H   0  0  0  0  0  0
    9.4542    3.2072    5.0119 H   0  0  0  0  0  0
   10.2782    1.3615    6.3089 H   0  0  0  0  0  0
   11.7520    2.1953    6.7086 H   0  0  0  0  0  0
   13.7134    2.1755    5.4309 H   0  0  0  0  0  0
   14.9816    1.1680    3.5785 H   0  0  0  0  0  0
   13.8500   -0.2153    1.9052 H   0  0  0  0  0  0
   10.1001    0.4045    3.9654 H   0  0  0  0  0  0
    9.4285   -1.6640    1.1713 H   0  0  0  0  0  0
    9.3481   -0.5884    2.5388 H   0  0  0  0  0  0
    6.6082    3.6450    6.6699 H   0  0  0  0  0  0
  1  2  1  0  0  0
  1 36  1  0  0  0
  1 37  1  0  0  0
  1 38  1  0  0  0
  2  3  1  0  0  0
  2  7  1  0  0  0
  3  4  1  0  0  0
  3 39  1  0  0  0
  3 40  1  0  0  0
  4  5  1  0  0  0
  4 41  1  0  0  0
  4 42  1  0  0  0
  5  6  1  0  0  0
  5  8  1  0  0  0
  6  7  1  0  0  0
  6 43  1  0  0  0
  6 44  1  0  0  0
  7 45  1  0  0  0
  7 46  1  0  0  0
  8  9  2  0  0  0
  8 35  1  0  0  0
  9 10  1  0  0  0
  9 47  1  0  0  0
 10 11  2  0  0  0
 10 48  1  0  0  0
 11 12  1  0  0  0
 11 49  1  0  0  0
 12 13  1  0  0  0
 12 35  2  0  0  0
 13 14  1  0  0  0
 13 50  1  0  0  0
 14 15  2  0  0  0
 14 30  1  0  0  0
 15 16  1  0  0  0
 16 17  2  0  0  0
 16 51  1  0  0  0
 17 18  1  0  0  0
 17 31  1  0  0  0
 18 19  1  0  0  0
 18 30  2  0  0  0
 19 20  1  0  0  0
 19 52  1  0  0  0
 19 53  1  0  0  0
 20 21  1  0  0  0
 20 54  1  0  0  0
 20 55  1  0  0  0
 21 22  2  0  0  0
 21 26  1  0  0  0
 22 23  1  0  0  0
 22 56  1  0  0  0
 23 24  2  0  0  0
 23 57  1  0  0  0
 24 25  1  0  0  0
 24 58  1  0  0  0
 25 26  2  0  0  0
 25 27  1  0  0  0
 26 59  1  0  0  0
 27 28  2  0  0  0
 27 29  1  0  0  0
 29 60  1  0  0  0
 29 61  1  0  0  0
 31 32  1  0  0  0
 31 33  1  0  0  0
 31 34  1  0  0  0
 35 62  1  0  0  0
M  END
> <s_m_entry_id>
47687

> <s_m_entry_name>
dock_pv.220

> <s_m_Source_Path>
/home/csk/Desktop/cluster/DUD-E-result/fak1

> <s_m_Source_File>
dock_pv.maegz

> <i_m_Source_File_Index>
220

> <chembl_id>
CHEMBL3692174

> <chembl_pref_name>
None

> <i_lp_mmshare_version>
53161

> <i_f3d_flags>
0

> <r_lp_tautomer_probability>
0.999999987636

> <s_lp_Force_Field>
OPLS_2005

> <r_lp_Energy>
37.373378

> <b_lp_Chiralities_Consistent>
1

> <s_lp_Variant>
CHEMBL2695_lig1162-1

> <s_i_glide_gridfile>
glide-grid_3bz3

> <i_i_glide_lignum>
1259

> <i_i_glide_rotatable_bonds>
8

> <r_i_docking_score>
-7.31148905513651

> <r_i_glide_ligand_efficiency>
-0.208899687289615

> <r_i_glide_ligand_efficiency_sa>
-0.683324728492171

> <r_i_glide_ligand_efficiency_ln>
-1.60503411735918

> <r_i_glide_gscore>
-7.31148905513651

> <r_i_glide_lipo>
-2.81635343821546

> <r_i_glide_hbond>
-0.443265403162742

> <r_i_glide_metal>
0

> <r_i_glide_rewards>
-1.72276908220777

> <r_i_glide_evdw>
-33.1860542297363

> <r_i_glide_ecoul>
-7.60883569717407

> <r_i_glide_erotb>
0.519052967641652

> <r_i_glide_esite>
-0.0475260331292698

> <r_i_glide_emodel>
-58.3192922299916

> <r_i_glide_energy>
-40.7948899269104

> <r_i_glide_einternal>
4.97189855575562

> <i_i_glide_confnum>
4

> <i_i_glide_posenum>
16

> <r_i_glide_eff_state_penalty>
0

> <s_user_duplicate_titles>
CHEMBL2695_lig1162

> <s_m_subgroup_title>
dock_pv

> <s_m_subgroupid>
dock_pv

> <b_m_subgroup_collapsed>
1

$$$$
CHEMBL2695_lig89
                    3D
 Schrodinger Suite 2021-1.
 38 41  0  0  1  0            999 V2000
    9.6513    1.1755    4.9222 N   0  0  0  0  0  0
    9.2475    2.2943    5.5662 C   0  0  0  0  0  0
   10.0476    3.2843    6.0614 N   0  0  0  0  0  0
   10.9787    0.9530    4.8148 C   0  0  0  0  0  0
   11.9072    1.8700    5.3208 C   0  0  0  0  0  0
   11.3626    3.0526    5.9092 C   0  0  0  0  0  0
   12.4374    3.8616    6.2902 N   0  0  0  0  0  0
   13.5945    3.1817    5.9636 C   0  0  0  0  0  0
   13.3253    1.9630    5.3888 C   0  0  0  0  0  0
   12.4253    5.1194    6.9334 C   0  0  0  0  0  0
   13.3206    5.3860    7.9794 C   0  0  0  0  0  0
   13.2526    6.6227    8.6215 C   0  0  0  0  0  0
   12.3222    7.5630    8.1881 C   0  0  0  0  0  0
   11.5031    7.2440    7.1088 C   0  0  0  0  0  0
   11.5234    6.0353    6.4929 N   0  0  0  0  0  0
    7.8639    2.3628    5.7309 N   0  0  0  0  0  0
    7.0609    2.9648    6.7159 C   0  0  0  0  0  0
    5.6786    3.1097    6.4879 C   0  0  0  0  0  0
    4.8630    3.6138    7.5052 C   0  0  0  0  0  0
    5.4044    3.9639    8.7411 C   0  0  0  0  0  0
    6.7739    3.8429    8.9629 C   0  0  0  0  0  0
    7.5950    3.3416    7.9567 C   0  0  0  0  0  0
    5.0374    2.7079    5.1616 C   0  0  0  0  0  0
    7.5214    4.3615   10.6374 Br  0  0  0  0  0  0
   11.2869    0.0435    4.3201 H   0  0  0  0  0  0
   14.5450    3.6405    6.1835 H   0  0  0  0  0  0
   14.0547    1.2492    5.0377 H   0  0  0  0  0  0
   14.0342    4.6496    8.3133 H   0  0  0  0  0  0
   13.9153    6.8449    9.4456 H   0  0  0  0  0  0
   12.2372    8.5154    8.6805 H   0  0  0  0  0  0
   10.7770    7.9515    6.7377 H   0  0  0  0  0  0
    7.3953    1.6122    5.2406 H   0  0  0  0  0  0
    3.7998    3.7273    7.3474 H   0  0  0  0  0  0
    4.7620    4.3456    9.5210 H   0  0  0  0  0  0
    8.6451    3.2229    8.1646 H   0  0  0  0  0  0
    5.5213    3.2117    4.3193 H   0  0  0  0  0  0
    5.1513    1.6320    5.0023 H   0  0  0  0  0  0
    3.9742    2.9527    5.1229 H   0  0  0  0  0  0
  1  2  2  0  0  0
  1  4  1  0  0  0
  2  3  1  0  0  0
  2 16  1  0  0  0
  3  6  2  0  0  0
  4  5  2  0  0  0
  4 25  1  0  0  0
  5  9  1  0  0  0
  5  6  1  0  0  0
  6  7  1  0  0  0
  7  8  1  0  0  0
  7 10  1  0  0  0
  8  9  2  0  0  0
  8 26  1  0  0  0
  9 27  1  0  0  0
 10 15  1  0  0  0
 10 11  2  0  0  0
 11 12  1  0  0  0
 11 28  1  0  0  0
 12 13  2  0  0  0
 12 29  1  0  0  0
 13 14  1  0  0  0
 13 30  1  0  0  0
 14 15  2  0  0  0
 14 31  1  0  0  0
 16 17  1  0  0  0
 16 32  1  0  0  0
 17 18  2  0  0  0
 17 22  1  0  0  0
 18 19  1  0  0  0
 18 23  1  0  0  0
 19 20  2  0  0  0
 19 33  1  0  0  0
 20 21  1  0  0  0
 20 34  1  0  0  0
 21 22  2  0  0  0
 21 24  1  0  0  0
 22 35  1  0  0  0
 23 36  1  0  0  0
 23 37  1  0  0  0
 23 38  1  0  0  0
M  END
> <s_m_entry_id>
47688

> <s_m_entry_name>
dock_pv.221

> <s_m_Source_Path>
/home/csk/Desktop/cluster/DUD-E-result/fak1

> <s_m_Source_File>
dock_pv.maegz

> <i_m_Source_File_Index>
221

> <chembl_id>
CHEMBL203675

> <chembl_pref_name>
None

> <i_lp_mmshare_version>
53161

> <i_f3d_flags>
0

> <r_lp_tautomer_probability>
1

> <s_lp_Force_Field>
OPLS_2005

> <r_lp_Energy>
11.777553

> <b_lp_Chiralities_Consistent>
1

> <s_lp_Variant>
CHEMBL2695_lig89-1

> <s_i_glide_gridfile>
glide-grid_3bz3

> <i_i_glide_lignum>
111

> <i_i_glide_rotatable_bonds>
3

> <r_i_docking_score>
-7.30948313951822

> <r_i_glide_ligand_efficiency>
-0.304561797479926

> <r_i_glide_ligand_efficiency_sa>
-0.878508242164301

> <r_i_glide_ligand_efficiency_ln>
-1.74949472561235

> <r_i_glide_gscore>
-7.30948313951822

> <r_i_glide_lipo>
-3.25482720377173

> <r_i_glide_hbond>
0

> <r_i_glide_metal>
0

> <r_i_glide_rewards>
-2.17115146503717

> <r_i_glide_evdw>
-44.4722099304199

> <r_i_glide_ecoul>
-0.162880912423134

> <r_i_glide_erotb>
0.402502543284491

> <r_i_glide_esite>
-0.0379643806093461

> <r_i_glide_emodel>
-61.1542286704362

> <r_i_glide_energy>
-44.6350908428431

> <r_i_glide_einternal>
5.86933708190918

> <i_i_glide_confnum>
18

> <i_i_glide_posenum>
236

> <r_i_glide_eff_state_penalty>
0

> <s_user_duplicate_titles>
CHEMBL2695_lig89

> <s_m_subgroup_title>
dock_pv

> <s_m_subgroupid>
dock_pv

> <b_m_subgroup_collapsed>
1

$$$$
CHEMBL2695_lig2085
                    3D
 Schrodinger Suite 2021-1.
 41 43  0  0  1  0            999 V2000
    4.0618    2.0984    9.0993 F   0  0  0  0  0  0
    5.1466    3.9636    8.9104 F   0  0  0  0  0  0
    3.0023    3.9205    8.6255 F   0  0  0  0  0  0
    8.3212    1.9821    6.7090 O   0  0  0  0  0  0
    5.6088    2.6999    6.5349 N   0  0  0  0  0  0
    9.3794    1.8886    4.7093 N   0  0  0  0  0  0
   13.4184    2.6778    5.7536 N   0  0  0  0  0  0
    7.1515    2.1071    4.7538 N   0  0  0  0  0  0
   11.0734    3.3785    5.8251 C   0  0  0  0  0  0
   10.6928    2.1673    5.1419 C   0  0  0  0  0  0
   12.4678    3.5849    6.0900 C   0  0  0  0  0  0
    4.3309    2.9352    6.9373 C   0  0  0  0  0  0
    4.1344    3.2442    8.4216 C   0  0  0  0  0  0
    5.8465    2.3629    5.2326 C   0  0  0  0  0  0
   10.1729    4.4094    6.2017 C   0  0  0  0  0  0
   12.9052    4.7777    6.7092 C   0  0  0  0  0  0
    8.2784    1.9637    5.4805 C   0  0  0  0  0  0
   11.6975    1.2680    4.7821 C   0  0  0  0  0  0
   11.9844    5.7587    7.0664 C   0  0  0  0  0  0
    3.2510    2.8736    6.0495 C   0  0  0  0  0  0
   10.6325    5.5545    6.8274 C   0  0  0  0  0  0
   13.0226    1.5629    5.1074 C   0  0  0  0  0  0
    4.8012    2.2588    4.3089 C   0  0  0  0  0  0
    3.4955    2.5282    4.7205 C   0  0  0  0  0  0
   12.4485    7.0806    7.6501 C   0  0  0  0  0  0
   11.7478    8.2762    6.9829 C   0  0  0  0  0  0
    9.2646    1.5623    3.7588 H   0  0  0  0  0  0
    7.2295    1.9527    3.7592 H   0  0  0  0  0  0
    9.1180    4.3375    5.9951 H   0  0  0  0  0  0
   13.9611    4.9274    6.8889 H   0  0  0  0  0  0
   11.4585    0.3622    4.2446 H   0  0  0  0  0  0
    2.2416    3.0692    6.3810 H   0  0  0  0  0  0
    9.9234    6.3186    7.0889 H   0  0  0  0  0  0
   13.8199    0.8867    4.8320 H   0  0  0  0  0  0
    4.9914    1.9627    3.2880 H   0  0  0  0  0  0
    2.6779    2.4568    4.0180 H   0  0  0  0  0  0
   13.5260    7.1748    7.5090 H   0  0  0  0  0  0
   12.2784    7.0918    8.7280 H   0  0  0  0  0  0
   12.3326    9.1684    7.1084 H   0  0  0  0  0  0
   10.7618    8.4637    7.4075 H   0  0  0  0  0  0
   11.6276    8.1360    5.9091 H   0  0  0  0  0  0
  1 13  1  0  0  0
  2 13  1  0  0  0
  3 13  1  0  0  0
  4 17  2  0  0  0
  5 12  2  0  0  0
  5 14  1  0  0  0
  6 10  1  0  0  0
  6 17  1  0  0  0
  6 27  1  0  0  0
  7 11  1  0  0  0
  7 22  2  0  0  0
  8 14  1  0  0  0
  8 17  1  0  0  0
  8 28  1  0  0  0
  9 10  1  0  0  0
  9 11  1  0  0  0
  9 15  2  0  0  0
 10 18  2  0  0  0
 11 16  2  0  0  0
 12 13  1  0  0  0
 12 20  1  0  0  0
 14 23  2  0  0  0
 15 21  1  0  0  0
 15 29  1  0  0  0
 16 19  1  0  0  0
 16 30  1  0  0  0
 18 22  1  0  0  0
 18 31  1  0  0  0
 19 21  2  0  0  0
 19 25  1  0  0  0
 20 24  2  0  0  0
 20 32  1  0  0  0
 21 33  1  0  0  0
 22 34  1  0  0  0
 23 24  1  0  0  0
 23 35  1  0  0  0
 24 36  1  0  0  0
 25 26  1  0  0  0
 25 37  1  0  0  0
 25 38  1  0  0  0
 26 39  1  0  0  0
 26 40  1  0  0  0
 26 41  1  0  0  0
M  END
> <s_m_entry_id>
47689

> <s_m_entry_name>
dock_pv.222

> <s_m_Source_Path>
/home/csk/Desktop/cluster/DUD-E-result/fak1

> <s_m_Source_File>
dock_pv.maegz

> <i_m_Source_File_Index>
222

> <chembl_id>
CHEMBL1986756

> <chembl_pref_name>
None

> <i_lp_mmshare_version>
53161

> <i_f3d_flags>
0

> <r_lp_tautomer_probability>
1

> <s_lp_Force_Field>
OPLS_2005

> <r_lp_Energy>
22.866889

> <b_lp_Chiralities_Consistent>
1

> <s_lp_Variant>
CHEMBL2695_lig2085-1

> <s_i_glide_gridfile>
glide-grid_3bz3

> <i_i_glide_lignum>
2508

> <i_i_glide_rotatable_bonds>
6

> <r_i_docking_score>
-7.30434771065838

> <r_i_glide_ligand_efficiency>
-0.280936450409938

> <r_i_glide_ligand_efficiency_sa>
-0.832273128907888

> <r_i_glide_ligand_efficiency_ln>
-1.7154020923284

> <r_i_glide_gscore>
-7.30434771065838

> <r_i_glide_lipo>
-3.19956913402851

> <r_i_glide_hbond>
-0.531784138084358

> <r_i_glide_metal>
0

> <r_i_glide_rewards>
-1.92126432762534

> <r_i_glide_evdw>
-33.5473670959473

> <r_i_glide_ecoul>
-2.70708250999451

> <r_i_glide_erotb>
0.590812526372092

> <r_i_glide_esite>
-0.159111905995728

> <r_i_glide_emodel>
-47.5864784726674

> <r_i_glide_energy>
-36.2544496059418

> <r_i_glide_einternal>
8.82352161407471

> <i_i_glide_confnum>
1

> <i_i_glide_posenum>
346

> <r_i_glide_eff_state_penalty>
0

> <s_user_duplicate_titles>
CHEMBL2695_lig2085

> <s_m_subgroup_title>
dock_pv

> <s_m_subgroupid>
dock_pv

> <b_m_subgroup_collapsed>
1

$$$$
CHEMBL2695_lig104
                    3D
 Schrodinger Suite 2021-1.
 38 41  0  0  1  0            999 V2000
    9.7845    1.1627    4.9600 N   0  0  0  0  0  0
    9.3079    2.2906    5.5239 C   0  0  0  0  0  0
   10.0408    3.3428    5.9886 N   0  0  0  0  0  0
   11.1218    0.9945    4.9003 C   0  0  0  0  0  0
   11.9921    1.9630    5.4025 C   0  0  0  0  0  0
   11.3731    3.1469    5.9091 C   0  0  0  0  0  0
   12.4035    3.9977    6.3091 N   0  0  0  0  0  0
   13.6025    3.3613    6.0679 C   0  0  0  0  0  0
   13.4047    2.1207    5.5089 C   0  0  0  0  0  0
    7.9267    2.2549    5.7009 N   0  0  0  0  0  0
   12.3088    5.2640    6.9127 C   0  0  0  0  0  0
   13.0553    5.5721    8.0587 C   0  0  0  0  0  0
   12.9225    6.8474    8.6138 C   0  0  0  0  0  0
   12.0698    7.7730    8.0062 C   0  0  0  0  0  0
   11.3912    7.3966    6.8502 C   0  0  0  0  0  0
   11.4907    6.1587    6.3091 N   0  0  0  0  0  0
    7.0079    3.2512    6.0460 C   0  0  0  0  0  0
    6.1371    3.0770    7.1385 C   0  0  0  0  0  0
    5.1479    4.0352    7.3871 C   0  0  0  0  0  0
    5.0057    5.1372    6.5445 C   0  0  0  0  0  0
    5.8689    5.3019    5.4623 C   0  0  0  0  0  0
    6.8790    4.3716    5.2228 C   0  0  0  0  0  0
    6.2493    1.8683    8.0617 C   0  0  0  0  0  0
   11.4827    0.0834    4.4487 H   0  0  0  0  0  0
   14.5218    3.8727    6.3091 H   0  0  0  0  0  0
   14.1806    1.4395    5.1917 H   0  0  0  0  0  0
    7.5066    1.3832    5.4051 H   0  0  0  0  0  0
   13.7118    4.8470    8.5182 H   0  0  0  0  0  0
   13.4724    7.1175    9.5045 H   0  0  0  0  0  0
   11.9265    8.7624    8.4167 H   0  0  0  0  0  0
   10.7238    8.0830    6.3498 H   0  0  0  0  0  0
    4.4749    3.9219    8.2247 H   0  0  0  0  0  0
    4.2244    5.8613    6.7309 H   0  0  0  0  0  0
    5.7472    6.1491    4.8043 H   0  0  0  0  0  0
    7.5365    4.4977    4.3741 H   0  0  0  0  0  0
    5.9805    0.9560    7.5282 H   0  0  0  0  0  0
    7.2769    1.7520    8.4078 H   0  0  0  0  0  0
    5.6161    1.9609    8.9446 H   0  0  0  0  0  0
  1  2  2  0  0  0
  1  4  1  0  0  0
  2  3  1  0  0  0
  2 10  1  0  0  0
  3  6  2  0  0  0
  4  5  2  0  0  0
  4 24  1  0  0  0
  5  9  1  0  0  0
  5  6  1  0  0  0
  6  7  1  0  0  0
  7 11  1  0  0  0
  7  8  1  0  0  0
  8  9  2  0  0  0
  8 25  1  0  0  0
  9 26  1  0  0  0
 10 17  1  0  0  0
 10 27  1  0  0  0
 11 12  2  0  0  0
 11 16  1  0  0  0
 12 13  1  0  0  0
 12 28  1  0  0  0
 13 14  2  0  0  0
 13 29  1  0  0  0
 14 15  1  0  0  0
 14 30  1  0  0  0
 15 16  2  0  0  0
 15 31  1  0  0  0
 17 18  2  0  0  0
 17 22  1  0  0  0
 18 19  1  0  0  0
 18 23  1  0  0  0
 19 20  2  0  0  0
 19 32  1  0  0  0
 20 21  1  0  0  0
 20 33  1  0  0  0
 21 22  2  0  0  0
 21 34  1  0  0  0
 22 35  1  0  0  0
 23 36  1  0  0  0
 23 37  1  0  0  0
 23 38  1  0  0  0
M  END
> <s_m_entry_id>
47690

> <s_m_entry_name>
dock_pv.223

> <s_m_Source_Path>
/home/csk/Desktop/cluster/DUD-E-result/fak1

> <s_m_Source_File>
dock_pv.maegz

> <i_m_Source_File_Index>
223

> <chembl_id>
CHEMBL206797

> <chembl_pref_name>
None

> <i_lp_mmshare_version>
53161

> <i_f3d_flags>
0

> <r_lp_tautomer_probability>
1

> <s_lp_Force_Field>
OPLS_2005

> <r_lp_Energy>
12.092759

> <b_lp_Chiralities_Consistent>
1

> <s_lp_Variant>
CHEMBL2695_lig104-1

> <s_i_glide_gridfile>
glide-grid_3bz3

> <i_i_glide_lignum>
126

> <i_i_glide_rotatable_bonds>
3

> <r_i_docking_score>
-7.30139064660641

> <r_i_glide_ligand_efficiency>
-0.317451767243757

> <r_i_glide_ligand_efficiency_sa>
-0.902790597616481

> <r_i_glide_ligand_efficiency_ln>
-1.76554246369946

> <r_i_glide_gscore>
-7.30139064660641

> <r_i_glide_lipo>
-3.30917129620841

> <r_i_glide_hbond>
0

> <r_i_glide_metal>
0

> <r_i_glide_rewards>
-2.61700809943923

> <r_i_glide_evdw>
-39.3252716064453

> <r_i_glide_ecoul>
0.16845665872097

> <r_i_glide_erotb>
0.607722040883985

> <r_i_glide_esite>
-0.0419382103286428

> <r_i_glide_emodel>
-53.6309589387908

> <r_i_glide_energy>
-39.1568149477243

> <r_i_glide_einternal>
3.39509558677673

> <i_i_glide_confnum>
9

> <i_i_glide_posenum>
322

> <r_i_glide_eff_state_penalty>
0

> <s_user_duplicate_titles>
CHEMBL2695_lig104,344763

> <s_m_subgroup_title>
dock_pv

> <s_m_subgroupid>
dock_pv

> <b_m_subgroup_collapsed>
1

$$$$
CHEMBL2695_lig863
                    3D
 Schrodinger Suite 2021-1.
 48 52  0  0  1  0            999 V2000
   10.1291   -1.3220    1.5887 C   0  0  0  0  0  0
   10.9397   -0.4376    2.5153 C   0  0  0  0  0  0
   10.3230    0.3167    3.5136 C   0  0  0  0  0  0
   11.1138    1.1202    4.3324 C   0  0  0  0  0  0
   12.5022    1.1623    4.1369 C   0  0  0  0  0  0
   13.3843    1.8615    4.9676 N   0  0  0  0  0  0
   13.1933    2.9570    5.7987 C   0  0  0  0  0  0
   14.3220    3.3539    6.3800 N   0  0  0  0  0  0
   14.3112    4.4788    7.1174 C   0  0  0  0  0  0
   13.1211    5.1507    7.3310 C   0  0  0  0  0  0
   12.8079    6.5200    8.3544 S   0  0  0  0  0  0
   11.1156    6.1875    8.1676 C   0  0  0  0  0  0
   10.7641    5.1923    7.2566 C   0  0  0  0  0  0
    9.3945    4.6782    6.9509 C   0  0  0  0  0  0
    9.0273    4.3855    5.6325 C   0  0  0  0  0  0
    7.7815    3.8368    5.3474 C   0  0  0  0  0  0
    6.8869    3.5710    6.3803 C   0  0  0  0  0  0
    7.2321    3.8444    7.7149 C   0  0  0  0  0  0
    8.5003    4.3798    7.9860 C   0  0  0  0  0  0
    6.2812    3.5457    8.8492 C   0  0  0  0  0  0
    6.7036    3.3221    9.9840 O   0  0  0  0  0  0
    4.9748    3.5631    8.5338 N   0  0  0  0  0  0
    3.8932    3.2743    9.4635 C   0  0  0  0  0  0
    2.6026    2.7204    8.9077 C   0  0  0  0  0  0
    3.5261    1.8271    9.7007 C   0  0  0  0  0  0
   11.9489    4.6127    6.7332 C   0  0  0  0  0  0
   11.9925    3.5604    5.9091 N   0  0  0  0  0  0
   13.0346    0.3659    3.1090 C   0  0  0  0  0  0
   12.2815   -0.4345    2.3090 N   0  0  0  0  0  0
    9.0630   -1.2690    1.8141 H   0  0  0  0  0  0
   10.2650   -1.0132    0.5511 H   0  0  0  0  0  0
   10.4416   -2.3628    1.6837 H   0  0  0  0  0  0
    9.2511    0.2800    3.6507 H   0  0  0  0  0  0
   10.6313    1.6710    5.1242 H   0  0  0  0  0  0
   14.3475    1.5571    4.9469 H   0  0  0  0  0  0
   15.2173    4.7629    7.6216 H   0  0  0  0  0  0
   10.4434    6.7597    8.7832 H   0  0  0  0  0  0
    9.7123    4.5761    4.8190 H   0  0  0  0  0  0
    7.5182    3.6050    4.3267 H   0  0  0  0  0  0
    5.9336    3.1267    6.1278 H   0  0  0  0  0  0
    8.7963    4.5708    9.0083 H   0  0  0  0  0  0
    4.7167    4.0470    7.6885 H   0  0  0  0  0  0
    3.8480    3.9550   10.3154 H   0  0  0  0  0  0
    2.5166    2.5749    7.8299 H   0  0  0  0  0  0
    1.6687    3.0583    9.3559 H   0  0  0  0  0  0
    3.2456    1.5298   10.7089 H   0  0  0  0  0  0
    4.1081    1.0602    9.1877 H   0  0  0  0  0  0
   14.1000    0.3333    2.9336 H   0  0  0  0  0  0
  1  2  1  0  0  0
  1 30  1  0  0  0
  1 31  1  0  0  0
  1 32  1  0  0  0
  2  3  2  0  0  0
  2 29  1  0  0  0
  3  4  1  0  0  0
  3 33  1  0  0  0
  4  5  2  0  0  0
  4 34  1  0  0  0
  5  6  1  0  0  0
  5 28  1  0  0  0
  6  7  1  0  0  0
  6 35  1  0  0  0
  7  8  2  0  0  0
  7 27  1  0  0  0
  8  9  1  0  0  0
  9 10  2  0  0  0
  9 36  1  0  0  0
 10 11  1  0  0  0
 10 26  1  0  0  0
 11 12  1  0  0  0
 12 13  2  0  0  0
 12 37  1  0  0  0
 13 14  1  0  0  0
 13 26  1  0  0  0
 14 15  2  0  0  0
 14 19  1  0  0  0
 15 16  1  0  0  0
 15 38  1  0  0  0
 16 17  2  0  0  0
 16 39  1  0  0  0
 17 18  1  0  0  0
 17 40  1  0  0  0
 18 19  2  0  0  0
 18 20  1  0  0  0
 19 41  1  0  0  0
 20 21  2  0  0  0
 20 22  1  0  0  0
 22 23  1  0  0  0
 22 42  1  0  0  0
 23 24  1  0  0  0
 23 25  1  0  0  0
 23 43  1  0  0  0
 24 25  1  0  0  0
 24 44  1  0  0  0
 24 45  1  0  0  0
 25 46  1  0  0  0
 25 47  1  0  0  0
 26 27  2  0  0  0
 28 29  2  0  0  0
 28 48  1  0  0  0
M  END
> <s_m_entry_id>
47691

> <s_m_entry_name>
dock_pv.224

> <s_m_Source_Path>
/home/csk/Desktop/cluster/DUD-E-result/fak1

> <s_m_Source_File>
dock_pv.maegz

> <i_m_Source_File_Index>
224

> <chembl_id>
CHEMBL3642823

> <chembl_pref_name>
None

> <i_lp_mmshare_version>
53161

> <i_f3d_flags>
0

> <r_lp_tautomer_probability>
0.999999999999999

> <s_lp_Force_Field>
OPLS_2005

> <r_lp_Energy>
24.587909

> <b_lp_Chiralities_Consistent>
1

> <s_lp_Variant>
CHEMBL2695_lig863-1

> <s_i_glide_gridfile>
glide-grid_3bz3

> <i_i_glide_lignum>
930

> <i_i_glide_rotatable_bonds>
6

> <r_i_docking_score>
-7.2979036605221

> <r_i_glide_ligand_efficiency>
-0.251651850362831

> <r_i_glide_ligand_efficiency_sa>
-0.77315421321689

> <r_i_glide_ligand_efficiency_ln>
-1.67103487939005

> <r_i_glide_gscore>
-7.2979036605221

> <r_i_glide_lipo>
-2.78493275444958

> <r_i_glide_hbond>
-0.487215764482665

> <r_i_glide_metal>
0

> <r_i_glide_rewards>
-2.10606385361787

> <r_i_glide_evdw>
-38.6783599853516

> <r_i_glide_ecoul>
-4.7725715637207

> <r_i_glide_erotb>
0.730112445853689

> <r_i_glide_esite>
0

> <r_i_glide_emodel>
-60.4398660298616

> <r_i_glide_energy>
-43.4509315490723

> <r_i_glide_einternal>
3.16673970222473

> <i_i_glide_confnum>
5

> <i_i_glide_posenum>
258

> <r_i_glide_eff_state_penalty>
0

> <s_user_duplicate_titles>
CHEMBL2695_lig863

> <s_m_subgroup_title>
dock_pv

> <s_m_subgroupid>
dock_pv

> <b_m_subgroup_collapsed>
1

$$$$
CHEMBL2695_lig1573
                    3D
 Schrodinger Suite 2021-1.
 41 44  0  0  1  0            999 V2000
    7.4911    2.9041    5.9464 N   0  0  0  0  0  0
   11.7405    2.3043    5.7206 N   0  0  0  0  0  0
    7.5180    4.2398    5.8477 N   0  0  0  0  0  0
   13.9250    3.2061    6.3090 N   0  0  0  0  0  0
   13.8582    5.3957    7.3514 N   0  0  0  0  0  0
    3.3304    0.8480    4.3466 N   0  0  0  0  0  0
   11.1303    3.4561    6.1072 C   0  0  0  0  0  0
   11.8862    4.5312    6.6414 C   0  0  0  0  0  0
    9.6431    3.4425    5.9971 C   0  0  0  0  0  0
   13.2939    4.3137    6.7089 C   0  0  0  0  0  0
    8.7568    2.3701    5.9706 C   0  0  0  0  0  0
    6.2056    2.1956    6.0349 C   0  0  1  0  0  0
    8.7926    4.5434    5.9088 C   0  0  0  0  0  0
   11.6537    5.8345    7.2024 C   0  0  0  0  0  0
    5.3015    2.8265    7.1473 C   0  0  0  0  0  0
   13.0889    2.2467    5.8339 C   0  0  0  0  0  0
   12.8747    6.3103    7.6421 C   0  0  0  0  0  0
    5.5743    2.1923    4.6237 C   0  0  0  0  0  0
    4.0525    2.0049    7.5079 C   0  0  0  0  0  0
    6.0165    2.9994    8.5073 C   0  0  0  0  0  0
    3.6508    2.4752    8.9057 C   0  0  0  0  0  0
    4.9599    2.8388    9.6075 C   0  0  0  0  0  0
    4.3209    1.4356    4.4716 C   0  0  0  0  0  0
   14.8347    5.5524    7.5818 H   0  0  0  0  0  0
    8.9099    1.3021    6.0238 H   0  0  0  0  0  0
    6.4277    1.1635    6.3144 H   0  0  0  0  0  0
    9.1225    5.5630    5.9089 H   0  0  0  0  0  0
   10.7212    6.3593    7.3204 H   0  0  0  0  0  0
    4.9745    3.8107    6.8068 H   0  0  0  0  0  0
   13.5392    1.3221    5.5044 H   0  0  0  0  0  0
   13.1345    7.2351    8.1399 H   0  0  0  0  0  0
    5.3609    3.2147    4.3104 H   0  0  0  0  0  0
    6.2778    1.7763    3.9011 H   0  0  0  0  0  0
    4.2779    0.9374    7.5129 H   0  0  0  0  0  0
    3.2342    2.1705    6.8083 H   0  0  0  0  0  0
    6.4963    3.9771    8.5731 H   0  0  0  0  0  0
    6.8042    2.2545    8.6361 H   0  0  0  0  0  0
    3.0881    1.7145    9.4495 H   0  0  0  0  0  0
    3.0162    3.3612    8.8314 H   0  0  0  0  0  0
    5.2508    2.0546   10.3085 H   0  0  0  0  0  0
    4.8471    3.7556   10.1900 H   0  0  0  0  0  0
  1  3  1  0  0  0
  1 11  1  0  0  0
  1 12  1  0  0  0
  2  7  2  0  0  0
  2 16  1  0  0  0
  3 13  2  0  0  0
  4 10  1  0  0  0
  4 16  2  0  0  0
  5 10  1  0  0  0
  5 17  1  0  0  0
  5 24  1  0  0  0
  6 23  3  0  0  0
  7  8  1  0  0  0
  7  9  1  0  0  0
  8 10  2  0  0  0
  8 14  1  0  0  0
  9 11  2  0  0  0
  9 13  1  0  0  0
 11 25  1  0  0  0
 12 15  1  0  0  0
 12 18  1  0  0  0
 12 26  1  0  0  0
 13 27  1  0  0  0
 14 17  2  0  0  0
 14 28  1  0  0  0
 15 19  1  0  0  0
 15 20  1  0  0  0
 15 29  1  0  0  0
 16 30  1  0  0  0
 17 31  1  0  0  0
 18 23  1  0  0  0
 18 32  1  0  0  0
 18 33  1  0  0  0
 19 21  1  0  0  0
 19 34  1  0  0  0
 19 35  1  0  0  0
 20 22  1  0  0  0
 20 36  1  0  0  0
 20 37  1  0  0  0
 21 22  1  0  0  0
 21 38  1  0  0  0
 21 39  1  0  0  0
 22 40  1  0  0  0
 22 41  1  0  0  0
M  END
> <s_m_entry_id>
47692

> <s_m_entry_name>
dock_pv.225

> <s_m_Source_Path>
/home/csk/Desktop/cluster/DUD-E-result/fak1

> <s_m_Source_File>
dock_pv.maegz

> <i_m_Source_File_Index>
225

> <chembl_id>
CHEMBL2002099

> <chembl_pref_name>
None

> <i_lp_mmshare_version>
53161

> <i_f3d_flags>
0

> <r_lp_tautomer_probability>
0.999998369746258

> <s_lp_Force_Field>
OPLS_2005

> <r_lp_Energy>
27.709066

> <b_lp_Chiralities_Consistent>
1

> <s_lp_Variant>
CHEMBL2695_lig1573-2

> <s_i_glide_gridfile>
glide-grid_3bz3

> <i_i_glide_lignum>
1736

> <i_i_glide_rotatable_bonds>
4

> <r_i_docking_score>
-7.28199424948112

> <r_i_glide_ligand_efficiency>
-0.316608445629614

> <r_i_glide_ligand_efficiency_sa>
-0.90039230312713

> <r_i_glide_ligand_efficiency_ln>
-1.76085223899776

> <r_i_glide_gscore>
-7.28199424948112

> <r_i_glide_lipo>
-1.7729073222739

> <r_i_glide_hbond>
-0.477054167075077

> <r_i_glide_metal>
0

> <r_i_glide_rewards>
-3.00766188175544

> <r_i_glide_evdw>
-30.4891395568848

> <r_i_glide_ecoul>
-5.48469018936157

> <r_i_glide_erotb>
0.413266198461075

> <r_i_glide_esite>
-0.0904765705892948

> <r_i_glide_emodel>
-51.5771594561704

> <r_i_glide_energy>
-35.9738297462463

> <r_i_glide_einternal>
1.92970895767212

> <i_i_glide_confnum>
9

> <i_i_glide_posenum>
99

> <r_i_glide_eff_state_penalty>
0

> <s_user_duplicate_titles>
CHEMBL2695_lig1573

> <s_m_subgroup_title>
dock_pv

> <s_m_subgroupid>
dock_pv

> <b_m_subgroup_collapsed>
1

$$$$
CHEMBL2695_lig1374
                    3D
 Schrodinger Suite 2021-1.
 68 73  0  0  1  0            999 V2000
    6.8809    4.4418   11.4093 C   0  0  0  0  0  0
    6.7695    3.9932   10.0291 N   0  0  0  0  0  0
    7.7826    4.0866    9.1513 C   0  0  0  0  0  0
    8.8647    4.5605    9.4987 O   0  0  0  0  0  0
    7.5285    3.6054    7.7241 C   0  0  0  0  0  0
    6.3590    2.8714    7.4343 C   0  0  0  0  0  0
    6.1150    2.3632    6.1625 C   0  0  0  0  0  0
    7.0283    2.5746    5.1390 C   0  0  0  0  0  0
    8.1836    3.3051    5.3887 C   0  0  0  0  0  0
    8.4587    3.8095    6.6675 C   0  0  0  0  0  0
    9.6651    4.5105    6.8576 N   0  0  0  0  0  0
   10.9685    4.1475    6.4957 C   0  0  0  0  0  0
   11.1583    2.9919    5.7968 N   0  0  0  0  0  0
   12.4391    2.5892    5.5822 C   0  0  0  0  0  0
   12.7290    1.5486    4.7091 N   0  0  0  0  0  0
   11.9730    0.7629    3.8129 C   0  0  0  0  0  0
   10.5928    0.5655    3.9304 C   0  0  0  0  0  0
    9.9308   -0.3517    3.1096 C   0  0  0  0  0  0
   10.6174   -1.1205    2.1618 C   0  0  0  0  0  0
   11.9805   -0.8418    1.9878 C   0  0  0  0  0  0
   12.6692    0.0750    2.7994 C   0  0  0  0  0  0
   14.0289    0.3174    2.6777 O   0  0  0  0  0  0
   14.8149   -0.5141    1.8325 C   0  0  0  0  0  0
    9.9572   -2.0799    1.3788 N   0  0  0  0  0  0
   10.6774   -3.1189    0.6152 C   0  0  0  0  0  0
   11.0928   -4.2778    1.5581 C   0  0  0  0  0  0
    9.9267   -4.8669    2.1348 O   0  0  0  0  0  0
    9.0919   -3.9208    2.8005 C   0  0  0  0  0  0
    8.7298   -2.7568    1.8431 C   0  0  0  0  0  0
   13.5434    3.2225    6.0293 N   0  0  0  0  0  0
   13.3197    4.3627    6.7090 C   0  0  0  0  0  0
   14.3164    5.1027    7.3214 N   0  0  0  0  0  0
   13.7750    6.2914    7.9525 C   0  0  0  0  0  0
   12.2774    6.1802    7.6955 C   0  0  0  0  0  0
   11.5222    7.4591    7.4063 C   0  0  0  0  0  0
   11.3676    6.7723    8.7365 C   0  0  0  0  0  0
   12.0645    4.8818    6.9657 C   0  0  0  0  0  0
    5.9220    4.3627   11.9080 H   0  0  0  0  0  0
    7.1921    5.4875   11.4505 H   0  0  0  0  0  0
    7.6011    3.8393   11.9629 H   0  0  0  0  0  0
    5.8880    3.5969    9.7419 H   0  0  0  0  0  0
    5.6253    2.6513    8.1958 H   0  0  0  0  0  0
    5.2251    1.7791    5.9708 H   0  0  0  0  0  0
    6.8470    2.1591    4.1574 H   0  0  0  0  0  0
    8.8759    3.4646    4.5757 H   0  0  0  0  0  0
    9.6432    5.1468    7.6421 H   0  0  0  0  0  0
   13.7238    1.4390    4.5745 H   0  0  0  0  0  0
   10.0138    1.0727    4.6854 H   0  0  0  0  0  0
    8.8683   -0.4641    3.2590 H   0  0  0  0  0  0
   12.5293   -1.3742    1.2340 H   0  0  0  0  0  0
   15.8595   -0.2160    1.9091 H   0  0  0  0  0  0
   14.7348   -1.5609    2.1307 H   0  0  0  0  0  0
   14.5231   -0.4219    0.7856 H   0  0  0  0  0  0
   10.0290   -3.5083   -0.1726 H   0  0  0  0  0  0
   11.5304   -2.7185    0.0718 H   0  0  0  0  0  0
   11.7725   -3.9330    2.3408 H   0  0  0  0  0  0
   11.6248   -5.0446    0.9963 H   0  0  0  0  0  0
    9.5702   -3.5561    3.7114 H   0  0  0  0  0  0
    8.1837   -4.4372    3.1102 H   0  0  0  0  0  0
    8.0225   -2.0726    2.3062 H   0  0  0  0  0  0
    8.1841   -3.1535    0.9864 H   0  0  0  0  0  0
   15.3232    5.0354    7.3852 H   0  0  0  0  0  0
   14.0117    6.2897    9.0182 H   0  0  0  0  0  0
   14.2035    7.1874    7.5124 H   0  0  0  0  0  0
   12.0750    8.3974    7.3526 H   0  0  0  0  0  0
   10.7222    7.4127    6.6685 H   0  0  0  0  0  0
   10.4263    6.2941    8.9769 H   0  0  0  0  0  0
   11.8704    7.1630    9.6175 H   0  0  0  0  0  0
  1  2  1  0  0  0
  1 38  1  0  0  0
  1 39  1  0  0  0
  1 40  1  0  0  0
  2  3  1  0  0  0
  2 41  1  0  0  0
  3  4  2  0  0  0
  3  5  1  0  0  0
  5  6  2  0  0  0
  5 10  1  0  0  0
  6  7  1  0  0  0
  6 42  1  0  0  0
  7  8  2  0  0  0
  7 43  1  0  0  0
  8  9  1  0  0  0
  8 44  1  0  0  0
  9 10  2  0  0  0
  9 45  1  0  0  0
 10 11  1  0  0  0
 11 12  1  0  0  0
 11 46  1  0  0  0
 12 13  2  0  0  0
 12 37  1  0  0  0
 13 14  1  0  0  0
 14 15  1  0  0  0
 14 30  2  0  0  0
 15 16  1  0  0  0
 15 47  1  0  0  0
 16 17  2  0  0  0
 16 21  1  0  0  0
 17 18  1  0  0  0
 17 48  1  0  0  0
 18 19  2  0  0  0
 18 49  1  0  0  0
 19 20  1  0  0  0
 19 24  1  0  0  0
 20 21  2  0  0  0
 20 50  1  0  0  0
 21 22  1  0  0  0
 22 23  1  0  0  0
 23 51  1  0  0  0
 23 52  1  0  0  0
 23 53  1  0  0  0
 24 25  1  0  0  0
 24 29  1  0  0  0
 25 26  1  0  0  0
 25 54  1  0  0  0
 25 55  1  0  0  0
 26 27  1  0  0  0
 26 56  1  0  0  0
 26 57  1  0  0  0
 27 28  1  0  0  0
 28 29  1  0  0  0
 28 58  1  0  0  0
 28 59  1  0  0  0
 29 60  1  0  0  0
 29 61  1  0  0  0
 30 31  1  0  0  0
 31 32  1  0  0  0
 31 37  2  0  0  0
 32 33  1  0  0  0
 32 62  1  0  0  0
 33 34  1  0  0  0
 33 63  1  0  0  0
 33 64  1  0  0  0
 34 35  1  0  0  0
 34 36  1  0  0  0
 34 37  1  0  0  0
 35 36  1  0  0  0
 35 65  1  0  0  0
 35 66  1  0  0  0
 36 67  1  0  0  0
 36 68  1  0  0  0
M  END
> <s_m_entry_id>
47693

> <s_m_entry_name>
dock_pv.226

> <s_m_Source_Path>
/home/csk/Desktop/cluster/DUD-E-result/fak1

> <s_m_Source_File>
dock_pv.maegz

> <i_m_Source_File_Index>
226

> <chembl_id>
CHEMBL3915096

> <chembl_pref_name>
None

> <i_lp_mmshare_version>
53161

> <i_f3d_flags>
0

> <r_lp_tautomer_probability>
1

> <s_lp_Force_Field>
OPLS_2005

> <r_lp_Energy>
61.828907

> <b_lp_Chiralities_Consistent>
1

> <s_lp_Variant>
CHEMBL2695_lig1374-1

> <s_i_glide_gridfile>
glide-grid_3bz3

> <i_i_glide_lignum>
1505

> <i_i_glide_rotatable_bonds>
8

> <r_i_docking_score>
-7.27933528366899

> <r_i_glide_ligand_efficiency>
-0.196738791450513

> <r_i_glide_ligand_efficiency_sa>
-0.655577299148738

> <r_i_glide_ligand_efficiency_ln>
-1.57871717119651

> <r_i_glide_gscore>
-7.27933528366899

> <r_i_glide_lipo>
-3.12173056849103

> <r_i_glide_hbond>
-0.316227741912967

> <r_i_glide_metal>
0

> <r_i_glide_rewards>
-0.755226675558574

> <r_i_glide_evdw>
-47.0257682800293

> <r_i_glide_ecoul>
-7.77911281585693

> <r_i_glide_erotb>
0.487173337730914

> <r_i_glide_esite>
-0.0551682990573366

> <r_i_glide_emodel>
-69.5951545936465

> <r_i_glide_energy>
-54.8048810958862

> <r_i_glide_einternal>
9.91740989685059

> <i_i_glide_confnum>
29

> <i_i_glide_posenum>
57

> <r_i_glide_eff_state_penalty>
0

> <s_user_duplicate_titles>
CHEMBL2695_lig1374

> <s_m_subgroup_title>
dock_pv

> <s_m_subgroupid>
dock_pv

> <b_m_subgroup_collapsed>
1

$$$$
CHEMBL2695_lig1983
                    3D
 Schrodinger Suite 2021-1.
 45 49  0  0  1  0            999 V2000
    7.5794    3.8294    8.5066 C   0  0  0  0  0  0
    5.5474    3.6422    9.8598 C   0  0  0  0  0  0
    7.0866    2.8722    7.6099 C   0  0  0  0  0  0
    5.8209    2.3089    7.8309 C   0  0  0  0  0  0
    5.0437    2.6985    8.9624 C   0  0  0  0  0  0
    3.8667    1.2693    7.9376 N   0  0  0  0  0  0
    5.0031    1.3593    7.1757 C   0  0  0  0  0  0
    8.9119    4.4994    8.2859 C   0  0  0  0  0  0
    9.4591    5.1640    9.2899 N   0  0  0  0  0  0
    9.7374    4.5342    7.1337 C   0  0  0  0  0  0
   10.7998    5.3518    7.4640 N   0  0  0  0  0  0
   10.6140    5.6729    8.8124 C   0  0  0  0  0  0
   11.5228    6.3627    9.5090 N   0  0  0  0  0  0
   12.6547    6.7379    8.8685 C   0  0  0  0  0  0
   12.8956    6.4686    7.5317 C   0  0  0  0  0  0
   11.9184    5.7972    6.8013 C   0  0  0  0  0  0
   10.3034    2.6049    5.6873 C   0  0  0  0  0  0
    9.8080    2.0329    4.3486 C   0  0  0  0  0  0
   10.5334    0.7278    3.9702 C   0  0  0  0  0  0
   12.0532    0.9079    3.9098 C   0  0  0  0  0  0
   12.6048    1.5077    5.2311 C   0  0  0  0  0  0
   11.8424    2.7519    5.7118 C   0  0  0  0  0  0
    3.8366    2.0569    9.0234 N   0  0  0  0  0  0
    9.6725    3.9060    5.9129 N   0  0  0  0  0  0
    6.8061    4.1824    9.6238 C   0  0  0  0  0  0
    4.9674    3.9626   10.7110 H   0  0  0  0  0  0
    7.6564    2.5629    6.7496 H   0  0  0  0  0  0
    5.1197    0.7623    6.2849 H   0  0  0  0  0  0
   13.3906    7.2605    9.4641 H   0  0  0  0  0  0
   13.8382    6.7623    7.1090 H   0  0  0  0  0  0
   12.0077    5.5674    5.7526 H   0  0  0  0  0  0
    9.9882    1.9441    6.4940 H   0  0  0  0  0  0
    8.7371    1.8308    4.4093 H   0  0  0  0  0  0
    9.9236    2.7624    3.5463 H   0  0  0  0  0  0
   10.3217   -0.0381    4.7124 H   0  0  0  0  0  0
   10.1561    0.3561    3.0170 H   0  0  0  0  0  0
   12.5243   -0.0344    3.6351 H   0  0  0  0  0  0
   12.3204    1.5630    3.0916 H   0  0  0  0  0  0
   12.5464    0.7632    6.0219 H   0  0  0  0  0  0
   13.6658    1.7373    5.1210 H   0  0  0  0  0  0
   12.1469    3.5985    5.1088 H   0  0  0  0  0  0
   12.1785    2.9971    6.7092 H   0  0  0  0  0  0
    3.0919    0.6636    7.7117 H   0  0  0  0  0  0
    8.8024    3.9639    5.4011 H   0  0  0  0  0  0
    7.1654    4.9202   10.3267 H   0  0  0  0  0  0
  1 25  1  0  0  0
  1  8  1  0  0  0
  1  3  2  0  0  0
  2  5  1  0  0  0
  2 26  1  0  0  0
  2 25  2  0  0  0
  3 27  1  0  0  0
  3  4  1  0  0  0
  4  5  1  0  0  0
  4  7  2  0  0  0
  5 23  2  0  0  0
  6 43  1  0  0  0
  6 23  1  0  0  0
  6  7  1  0  0  0
  7 28  1  0  0  0
  8  9  1  0  0  0
  8 10  2  0  0  0
  9 12  2  0  0  0
 10 11  1  0  0  0
 10 24  1  0  0  0
 11 12  1  0  0  0
 11 16  1  0  0  0
 12 13  1  0  0  0
 13 14  2  0  0  0
 14 15  1  0  0  0
 14 29  1  0  0  0
 15 16  2  0  0  0
 15 30  1  0  0  0
 16 31  1  0  0  0
 17 18  1  0  0  0
 17 22  1  0  0  0
 17 24  1  0  0  0
 17 32  1  0  0  0
 18 19  1  0  0  0
 18 33  1  0  0  0
 18 34  1  0  0  0
 19 20  1  0  0  0
 19 35  1  0  0  0
 19 36  1  0  0  0
 20 21  1  0  0  0
 20 37  1  0  0  0
 20 38  1  0  0  0
 21 22  1  0  0  0
 21 39  1  0  0  0
 21 40  1  0  0  0
 22 41  1  0  0  0
 22 42  1  0  0  0
 24 44  1  0  0  0
 25 45  1  0  0  0
M  END
> <s_m_entry_id>
47694

> <s_m_entry_name>
dock_pv.227

> <s_m_Source_Path>
/home/csk/Desktop/cluster/DUD-E-result/fak1

> <s_m_Source_File>
dock_pv.maegz

> <i_m_Source_File_Index>
227

> <chembl_id>
CHEMBL1682552

> <chembl_pref_name>
None

> <i_lp_mmshare_version>
53161

> <i_f3d_flags>
0

> <r_lp_tautomer_probability>
0.0196078431372549

> <s_lp_Force_Field>
OPLS_2005

> <r_lp_Energy>
38.8572

> <b_lp_Chiralities_Consistent>
1

> <s_lp_Variant>
CHEMBL2695_lig1983-2

> <s_i_glide_gridfile>
glide-grid_3bz3

> <i_i_glide_lignum>
2325

> <i_i_glide_rotatable_bonds>
3

> <r_i_docking_score>
-7.27844043900787

> <r_i_glide_ligand_efficiency>
-0.291137617560315

> <r_i_glide_ligand_efficiency_sa>
-0.851291557093993

> <r_i_glide_ligand_efficiency_ln>
-1.72520850130384

> <r_i_glide_gscore>
-7.27844043900787

> <r_i_glide_lipo>
-3.09440878622217

> <r_i_glide_hbond>
-0.372529402053402

> <r_i_glide_metal>
0

> <r_i_glide_rewards>
-2.55628855051931

> <r_i_glide_evdw>
-26.037145614624

> <r_i_glide_ecoul>
-3.01136946678162

> <r_i_glide_erotb>
0.511370091182575

> <r_i_glide_esite>
-0.0130210906471193

> <r_i_glide_emodel>
-39.7025503759966

> <r_i_glide_energy>
-29.0485150814056

> <r_i_glide_einternal>
2.00312733650208

> <i_i_glide_confnum>
18

> <i_i_glide_posenum>
309

> <r_i_glide_eff_state_penalty>
0

> <s_user_duplicate_titles>
CHEMBL2695_lig1983

> <s_m_subgroup_title>
dock_pv

> <s_m_subgroupid>
dock_pv

> <b_m_subgroup_collapsed>
1

$$$$
CHEMBL2695_lig1931
                    3D
 Schrodinger Suite 2021-1.
 38 41  0  0  1  0            999 V2000
   10.7221    0.4802    4.7299 O   0  0  0  0  0  0
    4.0165    2.2183    7.3441 O   0  0  0  0  0  0
   12.3546    1.9076    5.5022 N   0  0  0  0  0  0
    8.7822    3.3151    7.1275 N   0  0  0  0  0  0
   11.7463    8.1701    7.9082 N   0  0  0  0  0  0
   10.2723    2.8750    5.2105 C   0  0  2  0  0  0
   11.2425    3.8415    5.8307 C   0  0  0  0  0  0
    8.9118    2.7349    5.9078 C   0  0  0  0  0  0
   12.4741    3.2273    5.9093 C   0  0  0  0  0  0
   11.1052    1.5821    5.1109 C   0  0  0  0  0  0
    7.5885    3.3102    7.7671 C   0  0  0  0  0  0
    6.4519    2.6856    7.2120 C   0  0  0  0  0  0
   11.0704    5.1358    6.3174 C   0  0  0  0  0  0
    7.8303    2.1248    5.2793 C   0  0  0  0  0  0
   13.5748    3.8943    6.4447 C   0  0  0  0  0  0
   12.1396    5.7868    6.9336 C   0  0  0  0  0  0
    6.6078    2.0957    5.9482 C   0  0  0  0  0  0
    5.2055    2.4557    8.0711 C   0  0  1  0  0  0
   13.3932    5.1632    7.0048 C   0  0  0  0  0  0
    7.5335    4.0629    9.0971 C   0  0  0  0  0  0
    5.0325    3.5613    9.1242 C   0  0  0  0  0  0
    6.3123    3.7034    9.9640 C   0  0  0  0  0  0
   11.9253    7.1136    7.4812 C   0  0  0  0  0  0
    4.1402    1.4190    6.8254 H   0  0  0  0  0  0
   13.1020    1.2315    5.5405 H   0  0  0  0  0  0
   10.0521    3.1815    4.1882 H   0  0  0  0  0  0
   10.0973    5.6052    6.2654 H   0  0  0  0  0  0
    7.9314    1.6634    4.3056 H   0  0  0  0  0  0
   14.5352    3.4107    6.5114 H   0  0  0  0  0  0
    5.7870    1.5677    5.4854 H   0  0  0  0  0  0
    5.3710    1.5185    8.6054 H   0  0  0  0  0  0
   14.2340    5.6612    7.4708 H   0  0  0  0  0  0
    8.4529    3.9041    9.6629 H   0  0  0  0  0  0
    7.5114    5.1282    8.8679 H   0  0  0  0  0  0
    4.1846    3.3277    9.7700 H   0  0  0  0  0  0
    4.7606    4.5018    8.6431 H   0  0  0  0  0  0
    6.5009    2.7665   10.4863 H   0  0  0  0  0  0
    6.1697    4.4552   10.7420 H   0  0  0  0  0  0
  1 10  2  0  0  0
  2 18  1  0  0  0
  2 24  1  0  0  0
  3  9  1  0  0  0
  3 10  1  0  0  0
  3 25  1  0  0  0
  4  8  1  0  0  0
  4 11  2  0  0  0
  5 23  3  0  0  0
  6  7  1  0  0  0
  6  8  1  0  0  0
  6 10  1  0  0  0
  6 26  1  0  0  0
  7  9  1  0  0  0
  7 13  2  0  0  0
  8 14  2  0  0  0
  9 15  2  0  0  0
 11 12  1  0  0  0
 11 20  1  0  0  0
 12 17  2  0  0  0
 12 18  1  0  0  0
 13 16  1  0  0  0
 13 27  1  0  0  0
 14 17  1  0  0  0
 14 28  1  0  0  0
 15 19  1  0  0  0
 15 29  1  0  0  0
 16 19  2  0  0  0
 16 23  1  0  0  0
 17 30  1  0  0  0
 18 21  1  0  0  0
 18 31  1  0  0  0
 19 32  1  0  0  0
 20 22  1  0  0  0
 20 33  1  0  0  0
 20 34  1  0  0  0
 21 22  1  0  0  0
 21 35  1  0  0  0
 21 36  1  0  0  0
 22 37  1  0  0  0
 22 38  1  0  0  0
M  END
> <s_m_entry_id>
47695

> <s_m_entry_name>
dock_pv.228

> <s_m_Source_Path>
/home/csk/Desktop/cluster/DUD-E-result/fak1

> <s_m_Source_File>
dock_pv.maegz

> <i_m_Source_File_Index>
228

> <chembl_id>
CHEMBL1985681

> <chembl_pref_name>
None

> <i_lp_mmshare_version>
53161

> <i_f3d_flags>
0

> <r_lp_tautomer_probability>
1

> <s_lp_Force_Field>
OPLS_2005

> <r_lp_Energy>
34.63805

> <b_lp_Chiralities_Consistent>
1

> <s_lp_Variant>
CHEMBL2695_lig1931-3

> <s_i_glide_gridfile>
glide-grid_3bz3

> <i_i_glide_lignum>
2251

> <i_i_glide_rotatable_bonds>
2

> <r_i_docking_score>
-7.27477286919693

> <r_i_glide_ligand_efficiency>
-0.316294472573779

> <r_i_glide_ligand_efficiency_sa>
-0.899499405522013

> <r_i_glide_ligand_efficiency_ln>
-1.75910604376518

> <r_i_glide_gscore>
-7.27477286919693

> <r_i_glide_lipo>
-2.79404457748027

> <r_i_glide_hbond>
0

> <r_i_glide_metal>
0

> <r_i_glide_rewards>
-2.30642816158981

> <r_i_glide_evdw>
-37.8163566589355

> <r_i_glide_ecoul>
-3.20964241027832

> <r_i_glide_erotb>
0.197964064361684

> <r_i_glide_esite>
0

> <r_i_glide_emodel>
-54.8135521347844

> <r_i_glide_energy>
-41.0259990692139

> <r_i_glide_einternal>
1.0095362663269

> <i_i_glide_confnum>
1

> <i_i_glide_posenum>
162

> <r_i_glide_eff_state_penalty>
0

> <s_user_duplicate_titles>
CHEMBL2695_lig1931

> <s_m_subgroup_title>
dock_pv

> <s_m_subgroupid>
dock_pv

> <b_m_subgroup_collapsed>
1

$$$$
CHEMBL2695_lig435
                    3D
 Schrodinger Suite 2021-1.
 48 51  0  0  1  0            999 V2000
   11.7730    5.7969    6.8723 C   0  0  0  0  0  0
   12.0380    4.4090    6.3544 C   0  0  0  0  0  0
   11.0213    3.5254    5.9042 C   0  0  0  0  0  0
   11.3605    2.2288    5.5089 C   0  0  0  0  0  0
   12.6834    1.8021    5.5133 C   0  0  0  0  0  0
   13.6888    2.6720    5.9084 C   0  0  0  0  0  0
   13.3726    3.9626    6.3092 C   0  0  0  0  0  0
   10.7220    6.4100    6.7090 O   0  0  0  0  0  0
   12.7955    6.2917    7.6164 O   0  0  0  0  0  0
    9.6581    3.8394    5.7719 N   0  0  0  0  0  0
    6.8085    3.9631    8.6448 N   0  0  0  0  0  0
    8.1597    4.1277    8.9769 C   0  0  0  0  0  0
    9.1187    4.1229    8.0512 N   0  0  0  0  0  0
    8.7002    3.9649    6.7737 C   0  0  0  0  0  0
    7.4176    3.8438    6.3609 N   0  0  0  0  0  0
    6.4595    3.8409    7.3233 C   0  0  0  0  0  0
    8.3219    4.2793   10.3091 N   0  0  0  0  0  0
    7.1092    4.1680   10.8088 C   0  0  0  0  0  0
    6.1290    3.9630    9.8434 C   0  0  0  0  0  0
    5.1030    3.7288    6.9872 N   0  0  0  0  0  0
    4.4602    3.2323    5.8452 C   0  0  0  0  0  0
    3.1183    3.5630    5.6595 C   0  0  0  0  0  0
    2.4040    3.0177    4.5958 C   0  0  0  0  0  0
    3.0281    2.1341    3.7093 C   0  0  0  0  0  0
    4.3722    1.8087    3.8937 C   0  0  0  0  0  0
    5.0878    2.3599    4.9526 C   0  0  0  0  0  0
    2.2452    1.4578    2.5900 C   0  0  0  0  0  0
    1.3369    2.3628    1.9091 N   0  0  0  0  0  0
   12.6950    7.5636    8.2358 C   0  0  0  0  0  0
   10.5937    1.5431    5.1769 H   0  0  0  0  0  0
   12.9307    0.8048    5.1934 H   0  0  0  0  0  0
   14.7197    2.3553    5.8927 H   0  0  0  0  0  0
   14.1917    4.6007    6.6113 H   0  0  0  0  0  0
    9.2319    3.5422    4.9088 H   0  0  0  0  0  0
    6.9336    4.2320   11.8746 H   0  0  0  0  0  0
    5.0582    3.8413    9.9364 H   0  0  0  0  0  0
    4.4854    3.8809    7.7693 H   0  0  0  0  0  0
    2.6190    4.2368    6.3402 H   0  0  0  0  0  0
    1.3627    3.2745    4.4669 H   0  0  0  0  0  0
    4.8649    1.1036    3.2386 H   0  0  0  0  0  0
    6.1118    2.0504    5.0952 H   0  0  0  0  0  0
    2.9202    1.0096    1.8593 H   0  0  0  0  0  0
    1.6663    0.6446    3.0281 H   0  0  0  0  0  0
    1.8497    2.9237    1.2350 H   0  0  0  0  0  0
    0.6946    1.8339    1.3355 H   0  0  0  0  0  0
   13.5220    7.7022    8.9314 H   0  0  0  0  0  0
   11.7640    7.6500    8.7952 H   0  0  0  0  0  0
   12.7219    8.3607    7.4925 H   0  0  0  0  0  0
  1  2  1  0  0  0
  1  8  2  0  0  0
  1  9  1  0  0  0
  2  3  1  0  0  0
  2  7  2  0  0  0
  3  4  2  0  0  0
  3 10  1  0  0  0
  4  5  1  0  0  0
  4 30  1  0  0  0
  5  6  2  0  0  0
  5 31  1  0  0  0
  6  7  1  0  0  0
  6 32  1  0  0  0
  7 33  1  0  0  0
  9 29  1  0  0  0
 10 14  1  0  0  0
 10 34  1  0  0  0
 11 12  1  0  0  0
 11 16  1  0  0  0
 11 19  1  0  0  0
 12 13  1  0  0  0
 12 17  2  0  0  0
 13 14  2  0  0  0
 14 15  1  0  0  0
 15 16  2  0  0  0
 16 20  1  0  0  0
 17 18  1  0  0  0
 18 19  2  0  0  0
 18 35  1  0  0  0
 19 36  1  0  0  0
 20 21  1  0  0  0
 20 37  1  0  0  0
 21 22  1  0  0  0
 21 26  2  0  0  0
 22 23  2  0  0  0
 22 38  1  0  0  0
 23 24  1  0  0  0
 23 39  1  0  0  0
 24 25  2  0  0  0
 24 27  1  0  0  0
 25 26  1  0  0  0
 25 40  1  0  0  0
 26 41  1  0  0  0
 27 28  1  0  0  0
 27 42  1  0  0  0
 27 43  1  0  0  0
 28 44  1  0  0  0
 28 45  1  0  0  0
 29 46  1  0  0  0
 29 47  1  0  0  0
 29 48  1  0  0  0
M  END
> <s_m_entry_id>
47696

> <s_m_entry_name>
dock_pv.229

> <s_m_Source_Path>
/home/csk/Desktop/cluster/DUD-E-result/fak1

> <s_m_Source_File>
dock_pv.maegz

> <i_m_Source_File_Index>
229

> <chembl_id>
CHEMBL3393283

> <chembl_pref_name>
None

> <i_lp_mmshare_version>
53161

> <i_f3d_flags>
0

> <r_lp_tautomer_probability>
1

> <s_lp_Force_Field>
OPLS_2005

> <r_lp_Energy>
32.333223

> <b_lp_Chiralities_Consistent>
1

> <s_lp_Variant>
CHEMBL2695_lig435-1

> <s_i_glide_gridfile>
glide-grid_3bz3

> <i_i_glide_lignum>
488

> <i_i_glide_rotatable_bonds>
7

> <r_i_docking_score>
-7.27146606836161

> <r_i_glide_ligand_efficiency>
-0.250740209253849

> <r_i_glide_ligand_efficiency_sa>
-0.77035336290192

> <r_i_glide_ligand_efficiency_ln>
-1.66498134118479

> <r_i_glide_gscore>
-7.27146606836161

> <r_i_glide_lipo>
-2.61494196513427

> <r_i_glide_hbond>
-0.067995461788043

> <r_i_glide_metal>
0

> <r_i_glide_rewards>
-2.10585214519067

> <r_i_glide_evdw>
-45.9181671142578

> <r_i_glide_ecoul>
-5.53024864196777

> <r_i_glide_erotb>
0.642769155759432

> <r_i_glide_esite>
0

> <r_i_glide_emodel>
-67.6267858776199

> <r_i_glide_energy>
-51.4484157562256

> <r_i_glide_einternal>
9.18923950195312

> <i_i_glide_confnum>
2

> <i_i_glide_posenum>
229

> <r_i_glide_eff_state_penalty>
0

> <s_user_duplicate_titles>
CHEMBL2695_lig435

> <s_m_subgroup_title>
dock_pv

> <s_m_subgroupid>
dock_pv

> <b_m_subgroup_collapsed>
1

$$$$
CHEMBL2695_lig97
                    3D
 Schrodinger Suite 2021-1.
 35 38  0  0  1  0            999 V2000
    9.8586    1.0860    5.2906 N   0  0  0  0  0  0
    9.4015    2.1914    5.9089 C   0  0  0  0  0  0
   10.1405    3.2683    6.2985 N   0  0  0  0  0  0
   11.1864    0.9686    5.0905 C   0  0  0  0  0  0
   12.0697    1.9668    5.5089 C   0  0  0  0  0  0
   11.4576    3.1285    6.0618 C   0  0  0  0  0  0
   12.4779    4.0315    6.3280 N   0  0  0  0  0  0
   13.6790    3.4191    6.0484 C   0  0  0  0  0  0
   13.4825    2.1714    5.5085 C   0  0  0  0  0  0
   12.3676    5.2987    6.9144 C   0  0  0  0  0  0
   13.1222    5.6229    8.0501 C   0  0  0  0  0  0
   12.9629    6.8892    8.6102 C   0  0  0  0  0  0
   12.0821    7.7900    8.0120 C   0  0  0  0  0  0
   11.4042    7.4047    6.8571 C   0  0  0  0  0  0
   11.5221    6.1703    6.3120 N   0  0  0  0  0  0
    8.0301    2.1517    6.1625 N   0  0  0  0  0  0
    7.1128    3.1989    6.2909 C   0  0  0  0  0  0
    6.1453    3.1116    7.2966 C   0  0  0  0  0  0
    5.1232    4.0582    7.3799 C   0  0  0  0  0  0
    5.0452    5.0803    6.4347 C   0  0  0  0  0  0
    5.9954    5.1631    5.4176 C   0  0  0  0  0  0
    7.0328    4.2316    5.3432 C   0  0  0  0  0  0
    8.2857    4.3631    3.9090 Br  0  0  0  0  0  0
   11.5220    0.0695    4.5996 H   0  0  0  0  0  0
   14.5937    3.9588    6.2491 H   0  0  0  0  0  0
   14.2606    1.5101    5.1531 H   0  0  0  0  0  0
   13.7986    4.9116    8.5018 H   0  0  0  0  0  0
   13.5140    7.1677    9.4978 H   0  0  0  0  0  0
   11.9223    8.7629    8.4410 H   0  0  0  0  0  0
   10.7233    8.0811    6.3623 H   0  0  0  0  0  0
    7.6086    1.2764    5.8793 H   0  0  0  0  0  0
    6.1794    2.3005    8.0110 H   0  0  0  0  0  0
    4.3844    3.9906    8.1659 H   0  0  0  0  0  0
    4.2446    5.8037    6.4860 H   0  0  0  0  0  0
    5.9198    5.9489    4.6795 H   0  0  0  0  0  0
  1  2  2  0  0  0
  1  4  1  0  0  0
  2  3  1  0  0  0
  2 16  1  0  0  0
  3  6  2  0  0  0
  4  5  2  0  0  0
  4 24  1  0  0  0
  5  9  1  0  0  0
  5  6  1  0  0  0
  6  7  1  0  0  0
  7  8  1  0  0  0
  7 10  1  0  0  0
  8  9  2  0  0  0
  8 25  1  0  0  0
  9 26  1  0  0  0
 10 11  2  0  0  0
 10 15  1  0  0  0
 11 12  1  0  0  0
 11 27  1  0  0  0
 12 13  2  0  0  0
 12 28  1  0  0  0
 13 14  1  0  0  0
 13 29  1  0  0  0
 14 15  2  0  0  0
 14 30  1  0  0  0
 16 17  1  0  0  0
 16 31  1  0  0  0
 17 18  2  0  0  0
 17 22  1  0  0  0
 18 19  1  0  0  0
 18 32  1  0  0  0
 19 20  2  0  0  0
 19 33  1  0  0  0
 20 21  1  0  0  0
 20 34  1  0  0  0
 21 22  2  0  0  0
 21 35  1  0  0  0
 22 23  1  0  0  0
M  END
> <s_m_entry_id>
47697

> <s_m_entry_name>
dock_pv.230

> <s_m_Source_Path>
/home/csk/Desktop/cluster/DUD-E-result/fak1

> <s_m_Source_File>
dock_pv.maegz

> <i_m_Source_File_Index>
230

> <chembl_id>
CHEMBL203020

> <chembl_pref_name>
None

> <i_lp_mmshare_version>
53161

> <i_f3d_flags>
0

> <r_lp_tautomer_probability>
1

> <s_lp_Force_Field>
OPLS_2005

> <r_lp_Energy>
11.389085

> <b_lp_Chiralities_Consistent>
1

> <s_lp_Variant>
CHEMBL2695_lig97-1

> <s_i_glide_gridfile>
glide-grid_3bz3

> <i_i_glide_lignum>
119

> <i_i_glide_rotatable_bonds>
3

> <r_i_docking_score>
-7.26428408215627

> <r_i_glide_ligand_efficiency>
-0.31583843835462

> <r_i_glide_ligand_efficiency_sa>
-0.898202504865819

> <r_i_glide_ligand_efficiency_ln>
-1.75656975995169

> <r_i_glide_gscore>
-7.26428408215627

> <r_i_glide_lipo>
-3.38369375130525

> <r_i_glide_hbond>
0

> <r_i_glide_metal>
0

> <r_i_glide_rewards>
-2.25432391958291

> <r_i_glide_evdw>
-39.0844230651855

> <r_i_glide_ecoul>
-0.461333841085434

> <r_i_glide_erotb>
0.430492555323266

> <r_i_glide_esite>
-0.0333377371692787

> <r_i_glide_emodel>
-54.289541261294

> <r_i_glide_energy>
-39.545756906271

> <r_i_glide_einternal>
4.02431201934814

> <i_i_glide_confnum>
20

> <i_i_glide_posenum>
261

> <r_i_glide_eff_state_penalty>
0

> <s_user_duplicate_titles>
CHEMBL2695_lig97

> <s_m_subgroup_title>
dock_pv

> <s_m_subgroupid>
dock_pv

> <b_m_subgroup_collapsed>
1

$$$$
CHEMBL2695_lig1974
                    3D
 Schrodinger Suite 2021-1.
 33 36  0  0  1  0            999 V2000
    9.8431    4.1303    6.4227 C   0  0  0  0  0  0
   10.6823    3.2013    5.8067 C   0  0  0  0  0  0
   12.0681    3.2951    5.9090 C   0  0  0  0  0  0
   10.3832    5.1976    7.1488 C   0  0  0  0  0  0
   11.7737    5.3215    7.2591 C   0  0  0  0  0  0
   12.6178    4.3630    6.6279 C   0  0  0  0  0  0
   13.9220    5.6731    7.6450 N   0  0  0  0  0  0
   12.6809    6.1978    7.9090 C   0  0  0  0  0  0
    8.3675    3.9585    6.3210 C   0  0  0  0  0  0
    7.6143    4.0891    7.4018 N   0  0  0  0  0  0
    7.6627    3.6418    5.1590 C   0  0  0  0  0  0
    5.9651    3.5446    5.5090 S   0  0  0  0  0  0
    6.3393    3.9109    7.1699 C   0  0  0  0  0  0
    4.0015    3.9537    8.1058 C   0  0  0  0  0  0
    3.3000    3.2957    9.1185 C   0  0  0  0  0  0
    1.9073    3.3023    9.1237 C   0  0  0  0  0  0
    1.2172    3.9743    8.1168 C   0  0  0  0  0  0
    1.9076    4.6442    7.1090 C   0  0  0  0  0  0
    3.2995    4.6389    7.1074 C   0  0  0  0  0  0
    5.4030    3.9630    8.1787 N   0  0  0  0  0  0
   13.9390    4.5786    6.8725 N   0  0  0  0  0  0
   10.2537    2.3748    5.2575 H   0  0  0  0  0  0
   12.7024    2.5505    5.4514 H   0  0  0  0  0  0
    9.7397    5.9059    7.6399 H   0  0  0  0  0  0
   12.5743    7.0811    8.5210 H   0  0  0  0  0  0
    8.0410    3.4652    4.1623 H   0  0  0  0  0  0
    3.8320    2.7850    9.9090 H   0  0  0  0  0  0
    1.3666    2.7962    9.9090 H   0  0  0  0  0  0
    0.1373    3.9848    8.1213 H   0  0  0  0  0  0
    1.3707    5.1751    6.3360 H   0  0  0  0  0  0
    3.8212    5.1907    6.3401 H   0  0  0  0  0  0
    5.7294    3.8663    9.1287 H   0  0  0  0  0  0
   14.8000    6.0771    7.9681 H   0  0  0  0  0  0
  1  2  1  0  0  0
  1  9  1  0  0  0
  1  4  2  0  0  0
  2  3  2  0  0  0
  2 22  1  0  0  0
  3  6  1  0  0  0
  3 23  1  0  0  0
  4 24  1  0  0  0
  4  5  1  0  0  0
  5  6  1  0  0  0
  5  8  2  0  0  0
  6 21  2  0  0  0
  7 33  1  0  0  0
  7 21  1  0  0  0
  7  8  1  0  0  0
  8 25  1  0  0  0
  9 10  1  0  0  0
  9 11  2  0  0  0
 10 13  2  0  0  0
 11 12  1  0  0  0
 11 26  1  0  0  0
 12 13  1  0  0  0
 13 20  1  0  0  0
 14 15  2  0  0  0
 14 19  1  0  0  0
 14 20  1  0  0  0
 15 16  1  0  0  0
 15 27  1  0  0  0
 16 17  2  0  0  0
 16 28  1  0  0  0
 17 18  1  0  0  0
 17 29  1  0  0  0
 18 19  2  0  0  0
 18 30  1  0  0  0
 19 31  1  0  0  0
 20 32  1  0  0  0
M  END
> <s_m_entry_id>
47698

> <s_m_entry_name>
dock_pv.231

> <s_m_Source_Path>
/home/csk/Desktop/cluster/DUD-E-result/fak1

> <s_m_Source_File>
dock_pv.maegz

> <i_m_Source_File_Index>
231

> <chembl_id>
CHEMBL1682545

> <chembl_pref_name>
None

> <i_lp_mmshare_version>
53161

> <i_f3d_flags>
0

> <r_lp_tautomer_probability>
0.0196078431372549

> <s_lp_Force_Field>
OPLS_2005

> <r_lp_Energy>
27.557258

> <b_lp_Chiralities_Consistent>
1

> <s_lp_Variant>
CHEMBL2695_lig1974-2

> <s_i_glide_gridfile>
glide-grid_3bz3

> <i_i_glide_lignum>
2307

> <i_i_glide_rotatable_bonds>
3

> <r_i_docking_score>
-7.25833526934755

> <r_i_glide_ligand_efficiency>
-0.345635012826074

> <r_i_glide_ligand_efficiency_sa>
-0.953580792121921

> <r_i_glide_ligand_efficiency_ln>
-1.79460872849876

> <r_i_glide_gscore>
-7.25833526934755

> <r_i_glide_lipo>
-2.56395124751187

> <r_i_glide_hbond>
-0.32

> <r_i_glide_metal>
0

> <r_i_glide_rewards>
-2.55537470942589

> <r_i_glide_evdw>
-31.1696758270264

> <r_i_glide_ecoul>
-6.00848293304443

> <r_i_glide_erotb>
0.640746918898199

> <r_i_glide_esite>
0

> <r_i_glide_emodel>
-51.673566805549

> <r_i_glide_energy>
-37.1781587600708

> <r_i_glide_einternal>
2.62812972068787

> <i_i_glide_confnum>
5

> <i_i_glide_posenum>
383

> <r_i_glide_eff_state_penalty>
0

> <s_user_duplicate_titles>
CHEMBL2695_lig1974

> <s_m_subgroup_title>
dock_pv

> <s_m_subgroupid>
dock_pv

> <b_m_subgroup_collapsed>
1

$$$$
CHEMBL2695_lig1904
                    3D
 Schrodinger Suite 2021-1.
 27 30  0  0  1  0            999 V2000
    9.8491    3.5681    5.9375 C   0  0  0  0  0  0
   10.6902    2.5084    5.5759 C   0  0  0  0  0  0
   12.0708    2.5650    5.7597 C   0  0  0  0  0  0
   10.3992    4.7333    6.4978 C   0  0  0  0  0  0
   11.7842    4.8108    6.7064 C   0  0  0  0  0  0
   12.6262    3.7284    6.3089 C   0  0  0  0  0  0
   13.9218    5.1628    7.1894 N   0  0  0  0  0  0
   12.6833    5.7479    7.2803 C   0  0  0  0  0  0
    8.3631    3.4400    5.7433 C   0  0  0  0  0  0
    7.5347    4.3629    6.2031 N   0  0  0  0  0  0
    7.6678    2.4011    5.1084 C   0  0  0  0  0  0
    6.3385    2.7258    5.1859 N   0  0  0  0  0  0
    6.2887    3.9498    5.8669 C   0  0  0  0  0  0
    5.1279    4.5743    6.1149 N   0  0  0  0  0  0
    3.9923    3.9628    5.6816 C   0  0  0  0  0  0
    3.9718    2.7421    5.0059 C   0  0  0  0  0  0
    5.1903    2.1147    4.7543 C   0  0  0  0  0  0
   13.9434    3.9620    6.5921 N   0  0  0  0  0  0
   10.2650    1.6083    5.1537 H   0  0  0  0  0  0
   12.6943    1.7282    5.4801 H   0  0  0  0  0  0
    9.7638    5.5573    6.7923 H   0  0  0  0  0  0
   12.5672    6.7229    7.7284 H   0  0  0  0  0  0
    8.0054    1.4951    4.6235 H   0  0  0  0  0  0
    3.0678    4.4868    5.8840 H   0  0  0  0  0  0
    3.0420    2.2948    4.6865 H   0  0  0  0  0  0
    5.3025    1.1651    4.2489 H   0  0  0  0  0  0
   14.7797    5.6001    7.5142 H   0  0  0  0  0  0
  1  2  1  0  0  0
  1  9  1  0  0  0
  1  4  2  0  0  0
  2  3  2  0  0  0
  2 19  1  0  0  0
  3  6  1  0  0  0
  3 20  1  0  0  0
  4 21  1  0  0  0
  4  5  1  0  0  0
  5  6  1  0  0  0
  5  8  2  0  0  0
  6 18  2  0  0  0
  7 27  1  0  0  0
  7 18  1  0  0  0
  7  8  1  0  0  0
  8 22  1  0  0  0
  9 10  1  0  0  0
  9 11  2  0  0  0
 10 13  2  0  0  0
 11 12  1  0  0  0
 11 23  1  0  0  0
 12 13  1  0  0  0
 12 17  1  0  0  0
 13 14  1  0  0  0
 14 15  2  0  0  0
 15 16  1  0  0  0
 15 24  1  0  0  0
 16 17  2  0  0  0
 16 25  1  0  0  0
 17 26  1  0  0  0
M  END
> <s_m_entry_id>
47700

> <s_m_entry_name>
dock_pv.233

> <s_m_Source_Path>
/home/csk/Desktop/cluster/DUD-E-result/fak1

> <s_m_Source_File>
dock_pv.maegz

> <i_m_Source_File_Index>
233

> <chembl_id>
CHEMBL1682540

> <chembl_pref_name>
None

> <i_lp_mmshare_version>
53161

> <i_f3d_flags>
0

> <r_lp_tautomer_probability>
0.0196078431372549

> <s_lp_Force_Field>
OPLS_2005

> <r_lp_Energy>
23.665613

> <b_lp_Chiralities_Consistent>
1

> <s_lp_Variant>
CHEMBL2695_lig1904-2

> <s_i_glide_gridfile>
glide-grid_3bz3

> <i_i_glide_lignum>
2217

> <i_i_glide_rotatable_bonds>
1

> <r_i_docking_score>
-7.25407899287753

> <r_i_glide_ligand_efficiency>
-0.403004388493196

> <r_i_glide_ligand_efficiency_sa>
-1.05617028195439

> <r_i_glide_ligand_efficiency_ln>
-1.86462360008505

> <r_i_glide_gscore>
-7.25407899287753

> <r_i_glide_lipo>
-1.92329309614943

> <r_i_glide_hbond>
-0.413762592006143

> <r_i_glide_metal>
0

> <r_i_glide_rewards>
-2.84022097511528

> <r_i_glide_evdw>
-26.4068870544434

> <r_i_glide_ecoul>
-6.19280624389648

> <r_i_glide_erotb>
0.217462495087339

> <r_i_glide_esite>
-0.0449995353873801

> <r_i_glide_emodel>
-47.1276531676651

> <r_i_glide_energy>
-32.5996932983398

> <r_i_glide_einternal>
0.0848100632429123

> <i_i_glide_confnum>
2

> <i_i_glide_posenum>
326

> <r_i_glide_eff_state_penalty>
0

> <s_user_duplicate_titles>
CHEMBL2695_lig1904

> <s_m_subgroup_title>
dock_pv

> <s_m_subgroupid>
dock_pv

> <b_m_subgroup_collapsed>
1

$$$$
CHEMBL2695_lig1674
                    3D
 Schrodinger Suite 2021-1.
 37 39  0  0  1  0            999 V2000
   10.7217   -0.7680    3.5087 Cl  0  0  0  0  0  0
   10.2777    3.0063    5.8693 N   0  0  0  0  0  0
   12.6720    3.1041    5.9090 N   0  0  0  0  0  0
   11.6592    1.2966    4.8861 N   0  0  0  0  0  0
   14.0413    4.5024    7.1085 N   0  0  0  0  0  0
    7.8912    2.8687    5.6611 N   0  0  0  0  0  0
   13.9202    5.6612    7.7589 N   0  0  0  0  0  0
   11.4817    2.4530    5.5677 C   0  0  0  0  0  0
    9.1703    2.3478    5.4304 C   0  0  0  0  0  0
   12.8645    4.2841    6.5784 C   0  0  0  0  0  0
   10.5449    0.6745    4.4368 C   0  0  0  0  0  0
    9.2677    1.1635    4.7040 C   0  0  0  0  0  0
   11.9906    5.3500    6.8410 C   0  0  0  0  0  0
   12.6854    6.2401    7.6371 C   0  0  0  0  0  0
    7.6671    4.1653    6.2950 C   0  0  0  0  0  0
    7.4431    4.0358    7.7965 C   0  0  0  0  0  0
   12.3256    7.5639    8.2571 C   0  0  0  0  0  0
    6.3126    3.3674    8.2760 C   0  0  0  0  0  0
    8.3273    4.6429    8.6936 C   0  0  0  0  0  0
    6.0526    3.3305    9.6437 C   0  0  0  0  0  0
    8.0609    4.6144   10.0603 C   0  0  0  0  0  0
    6.9227    3.9632   10.5290 C   0  0  0  0  0  0
   13.4749    2.5467    5.6629 H   0  0  0  0  0  0
    7.1003    2.3783    5.2695 H   0  0  0  0  0  0
   14.7084    6.0805    8.2390 H   0  0  0  0  0  0
    8.3873    0.6580    4.3340 H   0  0  0  0  0  0
   10.9687    5.4476    6.5110 H   0  0  0  0  0  0
    8.4933    4.8480    6.0877 H   0  0  0  0  0  0
    6.7827    4.6234    5.8466 H   0  0  0  0  0  0
   12.7223    7.6671    9.2669 H   0  0  0  0  0  0
   11.2461    7.7042    8.3121 H   0  0  0  0  0  0
   12.7217    8.3831    7.6618 H   0  0  0  0  0  0
    5.6268    2.8952    7.5878 H   0  0  0  0  0  0
    9.2019    5.1619    8.3324 H   0  0  0  0  0  0
    5.1733    2.8262   10.0172 H   0  0  0  0  0  0
    8.7216    5.1115   10.7523 H   0  0  0  0  0  0
    6.7063    3.9561   11.5868 H   0  0  0  0  0  0
  1 11  1  0  0  0
  2  8  1  0  0  0
  2  9  2  0  0  0
  3  8  1  0  0  0
  3 10  1  0  0  0
  3 23  1  0  0  0
  4  8  2  0  0  0
  4 11  1  0  0  0
  5  7  1  0  0  0
  5 10  2  0  0  0
  6  9  1  0  0  0
  6 15  1  0  0  0
  6 24  1  0  0  0
  7 14  1  0  0  0
  7 25  1  0  0  0
  9 12  1  0  0  0
 10 13  1  0  0  0
 11 12  2  0  0  0
 12 26  1  0  0  0
 13 14  2  0  0  0
 13 27  1  0  0  0
 14 17  1  0  0  0
 15 16  1  0  0  0
 15 28  1  0  0  0
 15 29  1  0  0  0
 16 18  2  0  0  0
 16 19  1  0  0  0
 17 30  1  0  0  0
 17 31  1  0  0  0
 17 32  1  0  0  0
 18 20  1  0  0  0
 18 33  1  0  0  0
 19 21  2  0  0  0
 19 34  1  0  0  0
 20 22  2  0  0  0
 20 35  1  0  0  0
 21 22  1  0  0  0
 21 36  1  0  0  0
 22 37  1  0  0  0
M  END
> <s_m_entry_id>
47701

> <s_m_entry_name>
dock_pv.234

> <s_m_Source_Path>
/home/csk/Desktop/cluster/DUD-E-result/fak1

> <s_m_Source_File>
dock_pv.maegz

> <i_m_Source_File_Index>
234

> <chembl_id>
CHEMBL2005449

> <chembl_pref_name>
None

> <i_lp_mmshare_version>
53161

> <i_f3d_flags>
0

> <r_lp_tautomer_probability>
0.842599732729633

> <s_lp_Force_Field>
OPLS_2005

> <r_lp_Energy>
-0.079036

> <b_lp_Chiralities_Consistent>
1

> <s_lp_Variant>
CHEMBL2695_lig1674-1

> <s_i_glide_gridfile>
glide-grid_3bz3

> <i_i_glide_lignum>
1873

> <i_i_glide_rotatable_bonds>
5

> <r_i_docking_score>
-7.24847465499715

> <r_i_glide_ligand_efficiency>
-0.329476120681689

> <r_i_glide_ligand_efficiency_sa>
-0.923205047710631

> <r_i_glide_ligand_efficiency_ln>
-1.7717916002184

> <r_i_glide_gscore>
-7.24847465499715

> <r_i_glide_lipo>
-2.92407729055576

> <r_i_glide_hbond>
-0.260328504363741

> <r_i_glide_metal>
0

> <r_i_glide_rewards>
-2.24667408010452

> <r_i_glide_evdw>
-37.9188652038574

> <r_i_glide_ecoul>
-5.64439487457275

> <r_i_glide_erotb>
0.938273284943892

> <r_i_glide_esite>
-0.0130655735382406

> <r_i_glide_emodel>
-58.8648130001539

> <r_i_glide_energy>
-43.5632600784302

> <r_i_glide_einternal>
6.96732759475708

> <i_i_glide_confnum>
15

> <i_i_glide_posenum>
129

> <r_i_glide_eff_state_penalty>
0

> <s_user_duplicate_titles>
CHEMBL2695_lig1674

> <s_m_subgroup_title>
dock_pv

> <s_m_subgroupid>
dock_pv

> <b_m_subgroup_collapsed>
1

$$$$
CHEMBL2695_lig1571
                    3D
 Schrodinger Suite 2021-1.
 41 44  0  0  1  0            999 V2000
    6.7517    4.5249   10.2402 O   0  0  0  0  0  0
    6.8992    1.9739    6.3588 N   0  0  0  0  0  0
    4.8591    3.5628    9.5091 N   0  0  0  0  0  0
   11.6722    1.1629    4.4726 N   0  0  0  0  0  0
    6.7555    3.2058    8.2279 C   0  0  0  0  0  0
    8.1726    2.4364    6.6041 C   0  0  0  0  0  0
    6.0299    2.4939    7.2829 C   0  0  0  0  0  0
    8.0673    3.2348    7.7440 C   0  0  0  0  0  0
    9.3726    2.0470    5.8059 C   0  0  0  0  0  0
    6.1900    3.8049    9.4179 C   0  0  0  0  0  0
    4.5514    2.2157    7.4142 C   0  0  0  0  0  0
   10.6433    2.5031    6.1849 C   0  0  0  0  0  0
    9.2749    1.1802    4.7112 C   0  0  0  0  0  0
   11.7766    2.0381    5.5089 C   0  0  0  0  0  0
    4.1799    2.3926    8.9131 C   0  0  0  0  0  0
   10.4411    0.7624    4.0776 C   0  0  0  0  0  0
   13.1597    2.4764    5.7899 C   0  0  0  0  0  0
   13.6473    3.6086    6.3443 C   0  0  0  0  0  0
   12.9806    4.8286    6.8439 C   0  0  0  0  0  0
   11.8590    5.3969    6.2329 C   0  0  0  0  0  0
   13.5226    5.4455    7.9765 C   0  0  0  0  0  0
   11.2842    6.5501    6.7636 C   0  0  0  0  0  0
   12.9612    6.6059    8.4985 C   0  0  0  0  0  0
   11.8399    7.1536    7.8881 C   0  0  0  0  0  0
    6.6465    1.3145    5.6312 H   0  0  0  0  0  0
    4.3499    4.1304   10.1731 H   0  0  0  0  0  0
    8.8844    3.7455    8.2318 H   0  0  0  0  0  0
    4.2768    1.2230    7.0552 H   0  0  0  0  0  0
    3.9852    2.9254    6.8097 H   0  0  0  0  0  0
   10.7518    3.1622    7.0311 H   0  0  0  0  0  0
    8.3203    0.8068    4.3681 H   0  0  0  0  0  0
    3.1012    2.5025    9.0291 H   0  0  0  0  0  0
    4.4666    1.5126    9.4878 H   0  0  0  0  0  0
   10.3950    0.0858    3.2368 H   0  0  0  0  0  0
   13.9099    1.7497    5.5050 H   0  0  0  0  0  0
   14.7215    3.6522    6.4263 H   0  0  0  0  0  0
   11.4320    4.9547    5.3445 H   0  0  0  0  0  0
   14.3958    5.0308    8.4599 H   0  0  0  0  0  0
   10.4080    6.9838    6.3094 H   0  0  0  0  0  0
   13.3957    7.0760    9.3688 H   0  0  0  0  0  0
   11.3956    8.0526    8.2903 H   0  0  0  0  0  0
  1 10  2  0  0  0
  2  6  1  0  0  0
  2  7  1  0  0  0
  2 25  1  0  0  0
  3 10  1  0  0  0
  3 15  1  0  0  0
  3 26  1  0  0  0
  4 14  1  0  0  0
  4 16  2  0  0  0
  5  7  2  0  0  0
  5  8  1  0  0  0
  5 10  1  0  0  0
  6  8  2  0  0  0
  6  9  1  0  0  0
  7 11  1  0  0  0
  8 27  1  0  0  0
  9 12  1  0  0  0
  9 13  2  0  0  0
 11 15  1  0  0  0
 11 28  1  0  0  0
 11 29  1  0  0  0
 12 14  2  0  0  0
 12 30  1  0  0  0
 13 16  1  0  0  0
 13 31  1  0  0  0
 14 17  1  0  0  0
 15 32  1  0  0  0
 15 33  1  0  0  0
 16 34  1  0  0  0
 17 18  2  3  0  0
 17 35  1  0  0  0
 18 19  1  0  0  0
 18 36  1  0  0  0
 19 20  2  0  0  0
 19 21  1  0  0  0
 20 22  1  0  0  0
 20 37  1  0  0  0
 21 23  2  0  0  0
 21 38  1  0  0  0
 22 24  2  0  0  0
 22 39  1  0  0  0
 23 24  1  0  0  0
 23 40  1  0  0  0
 24 41  1  0  0  0
M  END
> <s_m_entry_id>
47702

> <s_m_entry_name>
dock_pv.235

> <s_m_Source_Path>
/home/csk/Desktop/cluster/DUD-E-result/fak1

> <s_m_Source_File>
dock_pv.maegz

> <i_m_Source_File_Index>
235

> <chembl_id>
CHEMBL1997129

> <chembl_pref_name>
None

> <i_lp_mmshare_version>
53161

> <i_f3d_flags>
0

> <r_lp_tautomer_probability>
1

> <s_lp_Force_Field>
OPLS_2005

> <r_lp_Energy>
27.263764

> <b_lp_Chiralities_Consistent>
1

> <s_lp_Variant>
CHEMBL2695_lig1571-2

> <s_i_glide_gridfile>
glide-grid_3bz3

> <i_i_glide_lignum>
1733

> <i_i_glide_rotatable_bonds>
3

> <r_i_docking_score>
-7.24655988514391

> <r_i_glide_ligand_efficiency>
-0.30193999521433

> <r_i_glide_ligand_efficiency_sa>
-0.870945655790338

> <r_i_glide_ligand_efficiency_ln>
-1.73443430348058

> <r_i_glide_gscore>
-7.24655988514391

> <r_i_glide_lipo>
-3.27650052519379

> <r_i_glide_hbond>
-0.239443661216123

> <r_i_glide_metal>
0

> <r_i_glide_rewards>
-1.80310164225316

> <r_i_glide_evdw>
-38.0781364440918

> <r_i_glide_ecoul>
-3.45041632652283

> <r_i_glide_erotb>
0.561093860807163

> <r_i_glide_esite>
-0.0671386461049882

> <r_i_glide_emodel>
-55.81769738719

> <r_i_glide_energy>
-41.5285527706146

> <r_i_glide_einternal>
3.28743505477905

> <i_i_glide_confnum>
7

> <i_i_glide_posenum>
324

> <r_i_glide_eff_state_penalty>
0

> <s_user_duplicate_titles>
CHEMBL2695_lig1571

> <s_m_subgroup_title>
dock_pv

> <s_m_subgroupid>
dock_pv

> <b_m_subgroup_collapsed>
1

$$$$
CHEMBL2695_lig192
                    3D
 Schrodinger Suite 2021-1.
 32 34  0  0  1  0            999 V2000
    8.8300    4.7630    8.8903 C   0  0  0  0  0  0
    7.8008    4.2311    9.5942 O   0  0  0  0  0  0
    6.8418    3.1684    7.5956 C   0  0  0  0  0  0
    6.7729    3.5857    8.9382 C   0  0  0  0  0  0
    5.6279    3.3926    9.6973 C   0  0  0  0  0  0
    4.5030    2.8179    9.1251 C   0  0  0  0  0  0
    4.5016    2.5110    7.7679 C   0  0  0  0  0  0
    5.6481    2.7134    6.9862 C   0  0  0  0  0  0
    9.1022    4.2409    7.5063 C   0  0  0  0  0  0
    8.1827    3.3354    6.9346 C   0  0  0  0  0  0
    8.5909    2.5665    5.8349 C   0  0  0  0  0  0
    9.8240    2.7894    5.2112 C   0  0  0  0  0  0
   10.6261    3.8274    5.6682 C   0  0  0  0  0  0
   10.2919    4.5372    6.8145 C   0  0  0  0  0  0
   11.1864    5.4869    7.2393 O   0  0  0  0  0  0
   10.3217    2.0596    4.1547 O   0  0  0  0  0  0
    9.5355    5.5570    9.5088 O   0  0  0  0  0  0
    3.4046    2.5875    9.9078 O   0  0  0  0  0  0
    5.5023    2.5500    5.4799 C   0  0  0  0  0  0
    9.8939    0.7203    3.9495 C   0  0  0  0  0  0
    5.6121    3.7036   10.7283 H   0  0  0  0  0  0
    3.5945    2.1349    7.3181 H   0  0  0  0  0  0
    7.9514    1.7811    5.4722 H   0  0  0  0  0  0
   11.5552    4.0307    5.1581 H   0  0  0  0  0  0
   11.9576    5.5431    6.6724 H   0  0  0  0  0  0
    3.6199    2.7623   10.8371 H   0  0  0  0  0  0
    6.0892    3.2997    4.9490 H   0  0  0  0  0  0
    4.4699    2.7052    5.1640 H   0  0  0  0  0  0
    5.8100    1.5630    5.1502 H   0  0  0  0  0  0
   10.2870    0.3632    2.9968 H   0  0  0  0  0  0
   10.3219    0.0808    4.7226 H   0  0  0  0  0  0
    8.8113    0.5977    3.9114 H   0  0  0  0  0  0
  1  9  1  0  0  0
  1  2  1  0  0  0
  1 17  2  0  0  0
  2  4  1  0  0  0
  3 10  1  0  0  0
  3  4  1  0  0  0
  3  8  2  0  0  0
  4  5  2  0  0  0
  5  6  1  0  0  0
  5 21  1  0  0  0
  6  7  2  0  0  0
  6 18  1  0  0  0
  7  8  1  0  0  0
  7 22  1  0  0  0
  8 19  1  0  0  0
  9 10  2  0  0  0
  9 14  1  0  0  0
 10 11  1  0  0  0
 11 12  2  0  0  0
 11 23  1  0  0  0
 12 13  1  0  0  0
 12 16  1  0  0  0
 13 14  2  0  0  0
 13 24  1  0  0  0
 14 15  1  0  0  0
 15 25  1  0  0  0
 16 20  1  0  0  0
 18 26  1  0  0  0
 19 27  1  0  0  0
 19 28  1  0  0  0
 19 29  1  0  0  0
 20 30  1  0  0  0
 20 31  1  0  0  0
 20 32  1  0  0  0
M  END
> <s_m_entry_id>
47703

> <s_m_entry_name>
dock_pv.236

> <s_m_Source_Path>
/home/csk/Desktop/cluster/DUD-E-result/fak1

> <s_m_Source_File>
dock_pv.maegz

> <i_m_Source_File_Index>
236

> <chembl_id>
CHEMBL483526

> <chembl_pref_name>
None

> <i_lp_mmshare_version>
53161

> <i_f3d_flags>
0

> <r_lp_tautomer_probability>
1

> <s_lp_Force_Field>
OPLS_2005

> <r_lp_Energy>
34.726994

> <b_lp_Chiralities_Consistent>
1

> <s_lp_Variant>
CHEMBL2695_lig192-1

> <s_i_glide_gridfile>
glide-grid_3bz3

> <i_i_glide_lignum>
217

> <i_i_glide_rotatable_bonds>
3

> <r_i_docking_score>
-7.23715824851239

> <r_i_glide_ligand_efficiency>
-0.361857912425619

> <r_i_glide_ligand_efficiency_sa>
-0.982233491211522

> <r_i_glide_ligand_efficiency_ln>
-1.81122201214831

> <r_i_glide_gscore>
-7.23715824851239

> <r_i_glide_lipo>
-1.69788040195652

> <r_i_glide_hbond>
-0.608

> <r_i_glide_metal>
0

> <r_i_glide_rewards>
-1.98544855044381

> <r_i_glide_evdw>
-28.8334217071533

> <r_i_glide_ecoul>
-10.0277214050293

> <r_i_glide_erotb>
0

> <r_i_glide_esite>
0

> <r_i_glide_emodel>
-50.9641231394185

> <r_i_glide_energy>
-38.8611431121826

> <r_i_glide_einternal>
5.8035831451416

> <i_i_glide_confnum>
1

> <i_i_glide_posenum>
70

> <r_i_glide_eff_state_penalty>
0

> <s_user_duplicate_titles>
CHEMBL2695_lig192

> <s_m_subgroup_title>
dock_pv

> <s_m_subgroupid>
dock_pv

> <b_m_subgroup_collapsed>
1

$$$$
CHEMBL2695_lig2100
                    3D
 Schrodinger Suite 2021-1.
 54 58  0  0  1  0            999 V2000
   11.6477    7.2697    8.3073 Cl  0  0  0  0  0  0
    9.9302    5.1628    6.9134 N   0  0  0  0  0  0
   11.7856    3.8766    6.1645 N   0  0  0  0  0  0
   13.6167    2.4377    5.6646 N   0  0  0  0  0  0
   11.3793   -0.9043    1.7807 N   0  0  0  0  0  0
   14.0117    4.3655    6.9185 N   0  0  0  0  0  0
    5.7586    1.5630    6.7132 N   0  0  0  0  0  0
    5.0458    1.9296    7.7947 N   0  0  0  0  0  0
    9.8385   -3.4027    1.6070 N   0  0  0  0  0  0
   11.3167    4.9801    6.8013 C   0  0  0  0  0  0
    6.8264    3.3092    7.5713 C   0  0  0  0  0  0
    8.8833    4.2448    6.7325 C   0  0  0  0  0  0
    6.8575    2.3702    6.5135 C   0  0  0  0  0  0
   13.1111    3.6024    6.2559 C   0  0  0  0  0  0
   12.1853    5.8461    7.4832 C   0  0  0  0  0  0
    7.8469    4.2662    7.6686 C   0  0  0  0  0  0
   13.0247    1.5629    4.7466 C   0  0  0  0  0  0
   11.9048   -0.0861    2.7766 C   0  0  0  0  0  0
    8.8615    3.3279    5.6747 C   0  0  0  0  0  0
    7.8596    2.3661    5.5411 C   0  0  0  0  0  0
    5.6537    2.9674    8.3114 C   0  0  0  0  0  0
   13.5336    5.4908    7.5113 C   0  0  0  0  0  0
   11.6866    1.1630    4.8419 C   0  0  0  0  0  0
   13.8076    1.1158    3.6841 C   0  0  0  0  0  0
   11.1257    0.3578    3.8573 C   0  0  0  0  0  0
   13.2518    0.2928    2.7089 C   0  0  0  0  0  0
   12.0002   -2.1981    1.4416 C   0  0  0  0  0  0
    9.9477   -0.9484    1.4313 C   0  0  0  0  0  0
   11.2381   -3.4079    2.0397 C   0  0  0  0  0  0
    9.2122   -2.1566    2.0549 C   0  0  0  0  0  0
    9.1200   -4.5409    2.1713 C   0  0  0  0  0  0
    9.6918    5.9521    7.4950 H   0  0  0  0  0  0
   14.6060    2.2944    5.7866 H   0  0  0  0  0  0
    5.5218    0.7281    6.1796 H   0  0  0  0  0  0
    7.8475    4.9782    8.4801 H   0  0  0  0  0  0
    9.6388    3.3545    4.9256 H   0  0  0  0  0  0
    7.8643    1.6544    4.7273 H   0  0  0  0  0  0
    5.2707    3.4436    9.2023 H   0  0  0  0  0  0
   14.2592    6.1025    8.0301 H   0  0  0  0  0  0
   11.0739    1.4757    5.6740 H   0  0  0  0  0  0
   14.8458    1.4037    3.6094 H   0  0  0  0  0  0
   10.0879    0.0732    3.9435 H   0  0  0  0  0  0
   13.8676   -0.0377    1.8863 H   0  0  0  0  0  0
   12.0578   -2.2906    0.3570 H   0  0  0  0  0  0
   13.0259   -2.2338    1.8076 H   0  0  0  0  0  0
    9.8464   -0.9706    0.3452 H   0  0  0  0  0  0
    9.4545   -0.0370    1.7571 H   0  0  0  0  0  0
   11.3032   -3.3985    3.1262 H   0  0  0  0  0  0
   11.7145   -4.3319    1.7074 H   0  0  0  0  0  0
    8.1655   -2.1397    1.7456 H   0  0  0  0  0  0
    9.2138   -2.0854    3.1443 H   0  0  0  0  0  0
    9.5763   -5.4780    1.8475 H   0  0  0  0  0  0
    8.0825   -4.5474    1.8313 H   0  0  0  0  0  0
    9.1154   -4.5167    3.2641 H   0  0  0  0  0  0
  1 15  1  0  0  0
  2 10  1  0  0  0
  2 12  1  0  0  0
  2 32  1  0  0  0
  3 10  2  0  0  0
  3 14  1  0  0  0
  4 14  1  0  0  0
  4 17  1  0  0  0
  4 33  1  0  0  0
  5 18  1  0  0  0
  5 27  1  0  0  0
  5 28  1  0  0  0
  6 14  2  0  0  0
  6 22  1  0  0  0
  7  8  1  0  0  0
  7 13  1  0  0  0
  7 34  1  0  0  0
  8 21  2  0  0  0
  9 29  1  0  0  0
  9 30  1  0  0  0
  9 31  1  0  0  0
 10 15  1  0  0  0
 11 13  1  0  0  0
 11 16  2  0  0  0
 11 21  1  0  0  0
 12 16  1  0  0  0
 12 19  2  0  0  0
 13 20  2  0  0  0
 15 22  2  0  0  0
 16 35  1  0  0  0
 17 23  2  0  0  0
 17 24  1  0  0  0
 18 25  2  0  0  0
 18 26  1  0  0  0
 19 20  1  0  0  0
 19 36  1  0  0  0
 20 37  1  0  0  0
 21 38  1  0  0  0
 22 39  1  0  0  0
 23 25  1  0  0  0
 23 40  1  0  0  0
 24 26  2  0  0  0
 24 41  1  0  0  0
 25 42  1  0  0  0
 26 43  1  0  0  0
 27 29  1  0  0  0
 27 44  1  0  0  0
 27 45  1  0  0  0
 28 30  1  0  0  0
 28 46  1  0  0  0
 28 47  1  0  0  0
 29 48  1  0  0  0
 29 49  1  0  0  0
 30 50  1  0  0  0
 30 51  1  0  0  0
 31 52  1  0  0  0
 31 53  1  0  0  0
 31 54  1  0  0  0
M  END
> <s_m_entry_id>
47704

> <s_m_entry_name>
dock_pv.237

> <s_m_Source_Path>
/home/csk/Desktop/cluster/DUD-E-result/fak1

> <s_m_Source_File>
dock_pv.maegz

> <i_m_Source_File_Index>
237

> <chembl_id>
CHEMBL1979690

> <chembl_pref_name>
None

> <i_lp_mmshare_version>
53161

> <i_f3d_flags>
0

> <r_lp_tautomer_probability>
0.983170142140339

> <s_lp_Force_Field>
OPLS_2005

> <r_lp_Energy>
37.301325

> <b_lp_Chiralities_Consistent>
1

> <s_lp_Variant>
CHEMBL2695_lig2100-1

> <s_i_glide_gridfile>
glide-grid_3bz3

> <i_i_glide_lignum>
2525

> <i_i_glide_rotatable_bonds>
5

> <r_i_docking_score>
-7.23373587666414

> <r_i_glide_ligand_efficiency>
-0.233346318602069

> <r_i_glide_ligand_efficiency_sa>
-0.733029609724226

> <r_i_glide_ligand_efficiency_ln>
-1.63142912756874

> <r_i_glide_gscore>
-7.23373587666414

> <r_i_glide_lipo>
-2.76858911360702

> <r_i_glide_hbond>
-0.214544348275123

> <r_i_glide_metal>
0

> <r_i_glide_rewards>
-1.78801267505703

> <r_i_glide_evdw>
-42.50146484375

> <r_i_glide_ecoul>
-5.34833097457886

> <r_i_glide_erotb>
0.526538403514266

> <r_i_glide_esite>
-0.0618052548649108

> <r_i_glide_emodel>
-67.2744478708442

> <r_i_glide_energy>
-47.8497958183289

> <r_i_glide_einternal>
2.40264320373535

> <i_i_glide_confnum>
13

> <i_i_glide_posenum>
65

> <r_i_glide_eff_state_penalty>
0

> <s_user_duplicate_titles>
CHEMBL2695_lig2100

> <s_m_subgroup_title>
dock_pv

> <s_m_subgroupid>
dock_pv

> <b_m_subgroup_collapsed>
1

$$$$
CHEMBL2695_lig1389
                    3D
 Schrodinger Suite 2021-1.
 48 51  0  0  1  0            999 V2000
    2.1007    1.3769    8.5939 C   0  0  0  0  0  0
    2.7427    2.2758    7.5118 C   0  0  0  0  0  0
    1.7726    3.4399    7.2136 C   0  0  0  0  0  0
    9.9220    5.5630    9.1091 N   0  0  0  0  0  0
    9.0240    4.7640    8.4670 C   0  0  0  0  0  0
    9.1693    4.2309    7.2304 N   0  0  0  0  0  0
   10.3114    4.4702    6.5471 C   0  0  0  0  0  0
   10.4912    3.9168    5.2737 N   0  0  0  0  0  0
    9.4925    3.0354    4.6536 C   0  0  0  0  0  0
    9.5918    1.5597    5.0830 C   0  0  0  0  0  0
    8.8717    0.7634    4.3090 F   0  0  0  0  0  0
   10.8475    1.1076    5.0528 F   0  0  0  0  0  0
    9.1221    1.3977    6.3090 F   0  0  0  0  0  0
    7.8423    4.5050    9.1615 N   0  0  0  0  0  0
    6.6237    3.9621    8.7161 C   0  0  0  0  0  0
    6.1781    4.0644    7.3946 C   0  0  0  0  0  0
    4.6020    2.7616    9.2414 C   0  0  0  0  0  0
    5.8150    3.3144    9.6370 C   0  0  0  0  0  0
   11.0451    5.8096    8.4232 C   0  0  0  0  0  0
   11.2933    5.2622    7.1487 C   0  0  0  0  0  0
   12.5428    5.5895    6.7056 O   0  0  0  0  0  0
   13.0880    6.3629    7.6916 C   0  0  0  0  0  0
   12.2072    6.5657    8.7436 C   0  0  0  0  0  0
    4.9687    3.5048    6.9730 C   0  0  0  0  0  0
    4.1430    2.8314    7.9149 C   0  0  0  0  0  0
    4.6650    3.5410    5.6016 N   0  0  0  0  0  0
    2.7100    1.4100    6.3657 O   0  0  0  0  0  0
    4.1458    2.5933    4.7982 C   0  0  0  0  0  0
    3.8535    1.2740    5.5250 C   0  0  0  0  0  0
    3.9219    2.7630    3.6010 O   0  0  0  0  0  0
    1.8889    1.9302    9.5096 H   0  0  0  0  0  0
    1.1536    0.9576    8.2517 H   0  0  0  0  0  0
    2.7527    0.5383    8.8389 H   0  0  0  0  0  0
    1.6637    4.0955    8.0786 H   0  0  0  0  0  0
    2.1110    4.0576    6.3823 H   0  0  0  0  0  0
    0.7803    3.0736    6.9491 H   0  0  0  0  0  0
   11.4291    3.9230    4.9003 H   0  0  0  0  0  0
    8.4969    3.3927    4.9216 H   0  0  0  0  0  0
    9.5242    3.1259    3.5693 H   0  0  0  0  0  0
    7.8270    4.9026   10.0865 H   0  0  0  0  0  0
    6.7817    4.5796    6.6632 H   0  0  0  0  0  0
    4.0205    2.2776   10.0093 H   0  0  0  0  0  0
    6.1177    3.2287   10.6707 H   0  0  0  0  0  0
   14.0973    6.7065    7.5091 H   0  0  0  0  0  0
   12.3992    7.1497    9.6275 H   0  0  0  0  0  0
    4.9120    4.3869    5.1121 H   0  0  0  0  0  0
    3.6446    0.5026    4.7830 H   0  0  0  0  0  0
    4.7219    0.9200    6.0836 H   0  0  0  0  0  0
  1  2  1  0  0  0
  1 31  1  0  0  0
  1 32  1  0  0  0
  1 33  1  0  0  0
  2  3  1  0  0  0
  2 25  1  0  0  0
  2 27  1  0  0  0
  3 34  1  0  0  0
  3 35  1  0  0  0
  3 36  1  0  0  0
  4 19  1  0  0  0
  4  5  2  0  0  0
  5  6  1  0  0  0
  5 14  1  0  0  0
  6  7  2  0  0  0
  7 20  1  0  0  0
  7  8  1  0  0  0
  8  9  1  0  0  0
  8 37  1  0  0  0
  9 10  1  0  0  0
  9 38  1  0  0  0
  9 39  1  0  0  0
 10 11  1  0  0  0
 10 12  1  0  0  0
 10 13  1  0  0  0
 14 15  1  0  0  0
 14 40  1  0  0  0
 15 16  2  0  0  0
 15 18  1  0  0  0
 16 24  1  0  0  0
 16 41  1  0  0  0
 17 25  1  0  0  0
 17 18  2  0  0  0
 17 42  1  0  0  0
 18 43  1  0  0  0
 19 20  2  0  0  0
 19 23  1  0  0  0
 20 21  1  0  0  0
 21 22  1  0  0  0
 22 23  2  0  0  0
 22 44  1  0  0  0
 23 45  1  0  0  0
 24 25  2  0  0  0
 24 26  1  0  0  0
 26 28  1  0  0  0
 26 46  1  0  0  0
 27 29  1  0  0  0
 28 29  1  0  0  0
 28 30  2  0  0  0
 29 47  1  0  0  0
 29 48  1  0  0  0
M  END
> <s_m_entry_id>
47705

> <s_m_entry_name>
dock_pv.238

> <s_m_Source_Path>
/home/csk/Desktop/cluster/DUD-E-result/fak1

> <s_m_Source_File>
dock_pv.maegz

> <i_m_Source_File_Index>
238

> <chembl_id>
CHEMBL4069365

> <chembl_pref_name>
None

> <i_lp_mmshare_version>
53161

> <i_f3d_flags>
0

> <r_lp_tautomer_probability>
1

> <s_lp_Force_Field>
OPLS_2005

> <r_lp_Energy>
32.776263

> <b_lp_Chiralities_Consistent>
1

> <s_lp_Variant>
CHEMBL2695_lig1389-1

> <s_i_glide_gridfile>
glide-grid_3bz3

> <i_i_glide_lignum>
1520

> <i_i_glide_rotatable_bonds>
5

> <r_i_docking_score>
-7.23181804718806

> <r_i_glide_ligand_efficiency>
-0.241060601572935

> <r_i_glide_ligand_efficiency_sa>
-0.749031336263015

> <r_i_glide_ligand_efficiency_ln>
-1.64314785728989

> <r_i_glide_gscore>
-7.23181804718806

> <r_i_glide_lipo>
-2.23406573533412

> <r_i_glide_hbond>
-0.507765382707509

> <r_i_glide_metal>
0

> <r_i_glide_rewards>
-2.06470340875022

> <r_i_glide_evdw>
-35.3286209106445

> <r_i_glide_ecoul>
-6.85481786727905

> <r_i_glide_erotb>
0.446077783550424

> <r_i_glide_esite>
-0.0767075783225463

> <r_i_glide_emodel>
-59.4793096687924

> <r_i_glide_energy>
-42.1834387779236

> <r_i_glide_einternal>
1.94388830661774

> <i_i_glide_confnum>
46

> <i_i_glide_posenum>
366

> <r_i_glide_eff_state_penalty>
0

> <s_user_duplicate_titles>
CHEMBL2695_lig1389

> <s_m_subgroup_title>
dock_pv

> <s_m_subgroupid>
dock_pv

> <b_m_subgroup_collapsed>
1

$$$$
CHEMBL2695_lig2023
                    3D
 Schrodinger Suite 2021-1.
 49 53  0  0  1  0            999 V2000
    4.0233    1.9780    8.6697 S   0  0  0  0  0  0
    3.3952    1.5108    9.9078 O   0  0  0  0  0  0
    3.9929    1.1405    7.4673 O   0  0  0  0  0  0
   11.0211    4.0100    6.7087 N   0  0  0  0  0  0
    9.5981    2.4596    5.9618 N   0  0  0  0  0  0
    5.6979    2.3775    9.0619 N   0  0  3  0  0  0
   13.8121    4.2989    6.4887 N   0  0  0  0  0  0
   13.5219    6.2371    7.9090 N   0  0  0  0  0  0
    9.7047    3.5546    6.6990 C   0  0  0  0  0  0
    8.5143    4.1996    7.4282 C   0  0  1  0  0  0
   11.6714    5.1019    7.3632 C   0  0  0  0  0  0
   11.7514    3.0732    5.9634 C   0  0  0  0  0  0
   13.0698    5.1634    7.1812 C   0  0  0  0  0  0
    7.2599    4.3635    6.5493 C   0  0  2  0  0  0
    6.8209    2.4815    8.0893 C   0  0  2  0  0  0
    7.9619    3.3850    8.6178 C   0  0  0  0  0  0
   10.7884    2.1492    5.5081 C   0  0  0  0  0  0
    3.2161    3.6461    8.3056 C   0  0  0  0  0  0
   13.1442    3.2655    5.9052 C   0  0  0  0  0  0
    6.4924    3.0394    6.6928 C   0  0  0  0  0  0
   11.3018    6.1367    8.2859 C   0  0  0  0  0  0
    2.9920    4.0652    6.8715 C   0  0  0  0  0  0
    1.8202    3.6301    7.7389 C   0  0  0  0  0  0
   12.4682    6.8343    8.5574 C   0  0  0  0  0  0
    7.5431    4.7794    5.0910 C   0  0  0  0  0  0
    6.2921    5.2766    4.3725 C   0  0  0  0  0  0
    5.9110    2.5209   10.0502 H   0  0  0  0  0  0
   14.4863    6.5349    8.0044 H   0  0  0  0  0  0
    8.8666    5.1630    7.7726 H   0  0  0  0  0  0
    6.6498    5.1478    7.0062 H   0  0  0  0  0  0
    7.1855    1.4545    8.0251 H   0  0  0  0  0  0
    7.5231    4.0998    9.3159 H   0  0  0  0  0  0
    8.7223    2.8377    9.1704 H   0  0  0  0  0  0
   10.9356    1.2709    4.8965 H   0  0  0  0  0  0
    3.4619    4.3631    9.0835 H   0  0  0  0  0  0
   13.7642    2.5592    5.3711 H   0  0  0  0  0  0
    6.7973    2.3236    5.9265 H   0  0  0  0  0  0
    5.4333    3.2024    6.5435 H   0  0  0  0  0  0
   10.3477    6.3359    8.7381 H   0  0  0  0  0  0
    3.2871    3.4068    6.0541 H   0  0  0  0  0  0
    3.1063    5.1192    6.6123 H   0  0  0  0  0  0
    1.1079    4.3787    8.0870 H   0  0  0  0  0  0
    1.3486    2.6652    7.5524 H   0  0  0  0  0  0
   12.6632    7.6838    9.1961 H   0  0  0  0  0  0
    8.3066    5.5619    5.0766 H   0  0  0  0  0  0
    7.9608    3.9470    4.5221 H   0  0  0  0  0  0
    6.5579    5.5682    3.3635 H   0  0  0  0  0  0
    5.5160    4.5140    4.3172 H   0  0  0  0  0  0
    5.8807    6.1515    4.8749 H   0  0  0  0  0  0
  1  2  2  0  0  0
  1  3  2  0  0  0
  1  6  1  0  0  0
  1 18  1  0  0  0
  4  9  1  0  0  0
  4 11  1  0  0  0
  4 12  1  0  0  0
  5  9  2  0  0  0
  5 17  1  0  0  0
  6 15  1  0  0  0
  6 27  1  0  0  0
  7 13  1  0  0  0
  7 19  2  0  0  0
  8 13  1  0  0  0
  8 24  1  0  0  0
  8 28  1  0  0  0
  9 10  1  0  0  0
 10 14  1  0  0  0
 10 16  1  0  0  0
 10 29  1  0  0  0
 11 13  2  0  0  0
 11 21  1  0  0  0
 12 17  2  0  0  0
 12 19  1  0  0  0
 14 20  1  0  0  0
 14 25  1  0  0  0
 14 30  1  0  0  0
 15 16  1  0  0  0
 15 20  1  0  0  0
 15 31  1  0  0  0
 16 32  1  0  0  0
 16 33  1  0  0  0
 17 34  1  0  0  0
 18 22  1  0  0  0
 18 23  1  0  0  0
 18 35  1  0  0  0
 19 36  1  0  0  0
 20 37  1  0  0  0
 20 38  1  0  0  0
 21 24  2  0  0  0
 21 39  1  0  0  0
 22 23  1  0  0  0
 22 40  1  0  0  0
 22 41  1  0  0  0
 23 42  1  0  0  0
 23 43  1  0  0  0
 24 44  1  0  0  0
 25 26  1  0  0  0
 25 45  1  0  0  0
 25 46  1  0  0  0
 26 47  1  0  0  0
 26 48  1  0  0  0
 26 49  1  0  0  0
M  END
> <s_m_entry_id>
47706

> <s_m_entry_name>
dock_pv.239

> <s_m_Source_Path>
/home/csk/Desktop/cluster/DUD-E-result/fak1

> <s_m_Source_File>
dock_pv.maegz

> <i_m_Source_File_Index>
239

> <chembl_id>
CHEMBL1992073

> <chembl_pref_name>
None

> <i_lp_mmshare_version>
53161

> <i_f3d_flags>
0

> <r_lp_tautomer_probability>
1

> <s_lp_Force_Field>
OPLS_2005

> <r_lp_Energy>
61.961656

> <b_lp_Chiralities_Consistent>
1

> <s_lp_Variant>
CHEMBL2695_lig2023-2

> <s_i_glide_gridfile>
glide-grid_3bz3

> <i_i_glide_lignum>
2392

> <i_i_glide_rotatable_bonds>
5

> <r_i_docking_score>
-7.23023254547664

> <r_i_glide_ligand_efficiency>
-0.278085867133717

> <r_i_glide_ligand_efficiency_sa>
-0.823828287168587

> <r_i_glide_ligand_efficiency_ln>
-1.69799638897716

> <r_i_glide_gscore>
-7.23023254547664

> <r_i_glide_lipo>
-2.55790945452189

> <r_i_glide_hbond>
-0.32

> <r_i_glide_metal>
0

> <r_i_glide_rewards>
-2.52251570031197

> <r_i_glide_evdw>
-35.6547470092773

> <r_i_glide_ecoul>
-3.58264899253845

> <r_i_glide_erotb>
0.554205160720862

> <r_i_glide_esite>
-0.063877852019011

> <r_i_glide_emodel>
-50.3642716955856

> <r_i_glide_energy>
-39.2373960018158

> <r_i_glide_einternal>
11.1466827392578

> <i_i_glide_confnum>
14

> <i_i_glide_posenum>
308

> <r_i_glide_eff_state_penalty>
0

> <s_user_duplicate_titles>
CHEMBL2695_lig2023

> <s_m_subgroup_title>
dock_pv

> <s_m_subgroupid>
dock_pv

> <b_m_subgroup_collapsed>
1

$$$$
CHEMBL2695_lig505
                    3D
 Schrodinger Suite 2021-1.
 55 59  0  0  1  0            999 V2000
    6.3301    4.5762    6.3743 F   0  0  0  0  0  0
    6.3765    4.1157    5.1265 C   0  0  0  0  0  0
    6.4966    5.1630    4.3090 F   0  0  0  0  0  0
    7.4429    3.0236    4.9028 C   0  0  0  0  0  0
    8.7455    3.5767    5.0664 O   0  0  0  0  0  0
    9.8529    2.7486    5.0275 C   0  0  0  0  0  0
    9.8588    1.5045    4.3715 C   0  0  0  0  0  0
   11.0300    0.7636    4.2416 C   0  0  0  0  0  0
   12.2099    1.2534    4.7864 C   0  0  0  0  0  0
   12.2002    2.4349    5.5112 C   0  0  0  0  0  0
   11.0338    3.2007    5.6477 C   0  0  0  0  0  0
   11.0759    4.4146    6.5172 C   0  0  0  0  0  0
   12.1800    5.2829    6.5198 C   0  0  0  0  0  0
   12.3559    6.2531    7.5090 C   0  0  0  0  0  0
   11.4285    6.3706    8.5400 C   0  0  0  0  0  0
   10.3249    5.5630    8.5157 N   0  0  0  0  0  0
    9.3709    5.4527    9.4723 N   0  0  0  0  0  0
    8.5885    4.5105    8.9755 C   0  0  0  0  0  0
    7.4319    4.1529    9.6176 N   0  0  0  0  0  0
    6.4405    3.2589    9.1640 C   0  0  0  0  0  0
    6.6995    2.1376    8.3713 C   0  0  0  0  0  0
    5.6542    1.3448    7.9090 C   0  0  0  0  0  0
    4.3245    1.6152    8.2542 C   0  0  0  0  0  0
    3.2170    0.7058    7.7205 C   0  0  0  0  0  0
    2.0465    1.3811    6.9893 C   0  0  0  0  0  0
    1.0913    2.0757    7.8342 N   0  0  1  0  0  0
    1.5710    3.2702    8.5057 C   0  0  0  0  0  0
    2.6436    3.0462    9.5811 C   0  0  0  0  0  0
    4.0558    2.7137    9.1000 C   0  0  0  0  0  0
    5.1220    3.5194    9.5196 C   0  0  0  0  0  0
    8.9590    3.9697    7.8346 N   0  0  0  0  0  0
   10.0917    4.6249    7.5090 C   0  0  0  0  0  0
    5.3867    3.7005    4.9359 H   0  0  0  0  0  0
    7.3369    2.5984    3.9090 H   0  0  0  0  0  0
    7.2890    2.2073    5.6088 H   0  0  0  0  0  0
    8.9650    1.1159    3.9091 H   0  0  0  0  0  0
   11.0247   -0.1639    3.6885 H   0  0  0  0  0  0
   13.1578    0.7630    4.6432 H   0  0  0  0  0  0
   13.1229    2.7634    5.9658 H   0  0  0  0  0  0
   12.9516    5.1628    5.7729 H   0  0  0  0  0  0
   13.2408    6.8751    7.5046 H   0  0  0  0  0  0
   11.5317    7.0531    9.3681 H   0  0  0  0  0  0
    7.0872    4.7834   10.3229 H   0  0  0  0  0  0
    7.7057    1.8667    8.0953 H   0  0  0  0  0  0
    5.8907    0.4976    7.2806 H   0  0  0  0  0  0
    3.6712    0.0100    7.0126 H   0  0  0  0  0  0
    2.8521    0.0723    8.5279 H   0  0  0  0  0  0
    2.4231    2.0528    6.2156 H   0  0  0  0  0  0
    1.4889    0.6072    6.4605 H   0  0  0  0  0  0
    0.2622    2.2968    7.2993 H   0  0  0  0  0  0
    1.9206    3.9997    7.7727 H   0  0  0  0  0  0
    0.7045    3.7283    8.9845 H   0  0  0  0  0  0
    2.3271    2.2904   10.2994 H   0  0  0  0  0  0
    2.6980    3.9631   10.1689 H   0  0  0  0  0  0
    4.9171    4.3630   10.1601 H   0  0  0  0  0  0
  1  2  1  0  0  0
  2  3  1  0  0  0
  2  4  1  0  0  0
  2 33  1  0  0  0
  4  5  1  0  0  0
  4 34  1  0  0  0
  4 35  1  0  0  0
  5  6  1  0  0  0
  6  7  2  0  0  0
  6 11  1  0  0  0
  7  8  1  0  0  0
  7 36  1  0  0  0
  8  9  2  0  0  0
  8 37  1  0  0  0
  9 10  1  0  0  0
  9 38  1  0  0  0
 10 11  2  0  0  0
 10 39  1  0  0  0
 11 12  1  0  0  0
 12 13  2  0  0  0
 12 32  1  0  0  0
 13 14  1  0  0  0
 13 40  1  0  0  0
 14 15  2  0  0  0
 14 41  1  0  0  0
 15 16  1  0  0  0
 15 42  1  0  0  0
 16 17  1  0  0  0
 16 32  1  0  0  0
 17 18  2  0  0  0
 18 19  1  0  0  0
 18 31  1  0  0  0
 19 20  1  0  0  0
 19 43  1  0  0  0
 20 21  2  0  0  0
 20 30  1  0  0  0
 21 22  1  0  0  0
 21 44  1  0  0  0
 22 23  2  0  0  0
 22 45  1  0  0  0
 23 24  1  0  0  0
 23 29  1  0  0  0
 24 25  1  0  0  0
 24 46  1  0  0  0
 24 47  1  0  0  0
 25 26  1  0  0  0
 25 48  1  0  0  0
 25 49  1  0  0  0
 26 27  1  0  0  0
 26 50  1  0  0  0
 27 28  1  0  0  0
 27 51  1  0  0  0
 27 52  1  0  0  0
 28 29  1  0  0  0
 28 53  1  0  0  0
 28 54  1  0  0  0
 29 30  2  0  0  0
 30 55  1  0  0  0
 31 32  2  0  0  0
M  END
> <s_m_entry_id>
47708

> <s_m_entry_name>
dock_pv.241

> <s_m_Source_Path>
/home/csk/Desktop/cluster/DUD-E-result/fak1

> <s_m_Source_File>
dock_pv.maegz

> <i_m_Source_File_Index>
241

> <chembl_id>
CHEMBL3645079

> <chembl_pref_name>
None

> <i_lp_mmshare_version>
53161

> <i_f3d_flags>
0

> <r_lp_tautomer_probability>
1

> <s_lp_Force_Field>
OPLS_2005

> <r_lp_Energy>
31.60817

> <b_lp_Chiralities_Consistent>
1

> <s_lp_Variant>
CHEMBL2695_lig505-1

> <s_i_glide_gridfile>
glide-grid_3bz3

> <i_i_glide_lignum>
559

> <i_i_glide_rotatable_bonds>
6

> <r_i_docking_score>
-7.22179842173516

> <r_i_glide_ligand_efficiency>
-0.225681200679224

> <r_i_glide_ligand_efficiency_sa>
-0.716493149907567

> <r_i_glide_ligand_efficiency_ln>
-1.61715752541649

> <r_i_glide_gscore>
-7.22179842173516

> <r_i_glide_lipo>
-2.77614244225726

> <r_i_glide_hbond>
-0.275611884940561

> <r_i_glide_metal>
0

> <r_i_glide_rewards>
-2.38393757085631

> <r_i_glide_evdw>
-35.8073196411133

> <r_i_glide_ecoul>
-3.47390103340149

> <r_i_glide_erotb>
0.525344613384852

> <r_i_glide_esite>
0

> <r_i_glide_emodel>
-51.6411063486002

> <r_i_glide_energy>
-39.2812206745148

> <r_i_glide_einternal>
6.22683382034302

> <i_i_glide_confnum>
31

> <i_i_glide_posenum>
218

> <r_i_glide_eff_state_penalty>
0

> <s_user_duplicate_titles>
CHEMBL2695_lig505

> <s_m_subgroup_title>
dock_pv

> <s_m_subgroupid>
dock_pv

> <b_m_subgroup_collapsed>
1

$$$$
CHEMBL2695_lig2069
                    3D
 Schrodinger Suite 2021-1.
 37 41  0  0  1  0            999 V2000
   14.1724    0.2356    2.7645 C   0  0  0  0  0  0
   13.4870   -0.7487    2.0589 C   0  0  0  0  0  0
   12.1136   -0.9401    2.2132 C   0  0  0  0  0  0
   13.5117    1.0772    3.6559 C   0  0  0  0  0  0
   12.1299    0.8944    3.8692 C   0  0  0  0  0  0
   11.4544   -0.1130    3.1288 C   0  0  0  0  0  0
   10.1293   -0.0645    3.5013 N   0  0  0  0  0  0
   11.1633    1.5630    4.6647 C   0  0  0  0  0  0
    9.9201    0.9386    4.4213 C   0  0  0  0  0  0
    8.7373    1.3543    5.0434 C   0  0  0  0  0  0
    8.7848    2.4448    5.9137 C   0  0  0  0  0  0
   11.1687    2.6933    5.5093 C   0  0  0  0  0  0
    9.9980    3.1225    6.0893 C   0  0  0  0  0  0
   10.3213    4.3471    6.8728 C   0  0  0  0  0  0
   11.6337    4.5640    6.6797 N   0  0  0  0  0  0
   12.2472    3.6326    5.9285 C   0  0  0  0  0  0
    9.5851    5.0282    7.5797 O   0  0  0  0  0  0
   13.4514    3.6011    5.6924 O   0  0  0  0  0  0
   15.5226    0.3630    2.6034 O   0  0  0  0  0  0
    7.5379    2.8556    6.6150 C   0  0  0  0  0  0
    6.7544    3.9237    6.1544 C   0  0  0  0  0  0
    5.6067    4.3132    6.8486 C   0  0  0  0  0  0
    5.2214    3.6322    8.0028 C   0  0  0  0  0  0
    5.9756    2.5503    8.4540 C   0  0  0  0  0  0
    7.1222    2.1636    7.7607 C   0  0  0  0  0  0
    7.1796    4.7630    4.7091 Cl  0  0  0  0  0  0
   14.0303   -1.3857    1.3768 H   0  0  0  0  0  0
   11.5918   -1.7054    1.6573 H   0  0  0  0  0  0
   14.0738    1.8267    4.1882 H   0  0  0  0  0  0
    9.3969   -0.6524    3.1280 H   0  0  0  0  0  0
    7.8071    0.8497    4.8447 H   0  0  0  0  0  0
   12.1266    5.3343    7.1023 H   0  0  0  0  0  0
   15.9903   -0.4797    2.7088 H   0  0  0  0  0  0
    5.0125    5.1415    6.4901 H   0  0  0  0  0  0
    4.3360    3.9382    8.5415 H   0  0  0  0  0  0
    5.6740    2.0073    9.3394 H   0  0  0  0  0  0
    7.6951    1.3220    8.1221 H   0  0  0  0  0  0
  1  2  2  0  0  0
  1 19  1  0  0  0
  1  4  1  0  0  0
  2  3  1  0  0  0
  2 27  1  0  0  0
  3  6  2  0  0  0
  3 28  1  0  0  0
  4  5  2  0  0  0
  4 29  1  0  0  0
  5  8  1  0  0  0
  5  6  1  0  0  0
  6  7  1  0  0  0
  7  9  1  0  0  0
  7 30  1  0  0  0
  8  9  2  0  0  0
  8 12  1  0  0  0
  9 10  1  0  0  0
 10 11  2  0  0  0
 10 31  1  0  0  0
 11 13  1  0  0  0
 11 20  1  0  0  0
 12 13  2  0  0  0
 12 16  1  0  0  0
 13 14  1  0  0  0
 14 15  1  0  0  0
 14 17  2  0  0  0
 15 16  1  0  0  0
 15 32  1  0  0  0
 16 18  2  0  0  0
 19 33  1  0  0  0
 20 21  2  0  0  0
 20 25  1  0  0  0
 21 22  1  0  0  0
 21 26  1  0  0  0
 22 23  2  0  0  0
 22 34  1  0  0  0
 23 24  1  0  0  0
 23 35  1  0  0  0
 24 25  2  0  0  0
 24 36  1  0  0  0
 25 37  1  0  0  0
M  END
> <s_m_entry_id>
47709

> <s_m_entry_name>
dock_pv.242

> <s_m_Source_Path>
/home/csk/Desktop/cluster/DUD-E-result/fak1

> <s_m_Source_File>
dock_pv.maegz

> <i_m_Source_File_Index>
242

> <chembl_id>
CHEMBL379975

> <chembl_pref_name>
None

> <i_lp_mmshare_version>
53161

> <i_f3d_flags>
0

> <r_lp_tautomer_probability>
1

> <s_lp_Force_Field>
OPLS_2005

> <r_lp_Energy>
66.786592

> <b_lp_Chiralities_Consistent>
1

> <s_lp_Variant>
CHEMBL2695_lig2069-1

> <s_i_glide_gridfile>
glide-grid_3bz3

> <i_i_glide_lignum>
2484

> <i_i_glide_rotatable_bonds>
2

> <r_i_docking_score>
-7.21899135804912

> <r_i_glide_ligand_efficiency>
-0.27765351377112

> <r_i_glide_ligand_efficiency_sa>
-0.822547442033122

> <r_i_glide_ligand_efficiency_ln>
-1.69535643299516

> <r_i_glide_gscore>
-7.21899135804912

> <r_i_glide_lipo>
-2.43143044090133

> <r_i_glide_hbond>
-0.32

> <r_i_glide_metal>
0

> <r_i_glide_rewards>
-1.57306722902073

> <r_i_glide_evdw>
-31.2639198303223

> <r_i_glide_ecoul>
-9.59963321685791

> <r_i_glide_erotb>
0.145941509380587

> <r_i_glide_esite>
-0.0372942234628463

> <r_i_glide_emodel>
-55.7876694630651

> <r_i_glide_energy>
-40.8635530471802

> <r_i_glide_einternal>
3.63656663894653

> <i_i_glide_confnum>
1

> <i_i_glide_posenum>
28

> <r_i_glide_eff_state_penalty>
0

> <s_user_duplicate_titles>
CHEMBL2695_lig2069

> <s_m_subgroup_title>
dock_pv

> <s_m_subgroupid>
dock_pv

> <b_m_subgroup_collapsed>
1

$$$$
CHEMBL2695_lig583
                    3D
 Schrodinger Suite 2021-1.
 53 57  0  0  1  0            999 V2000
    7.4537    2.7789    4.9177 C   0  0  0  0  0  0
    8.7047    3.4449    5.0751 O   0  0  0  0  0  0
    9.8622    2.6895    5.0508 C   0  0  0  0  0  0
    9.9269    1.4488    4.3933 C   0  0  0  0  0  0
   11.1220    0.7454    4.3050 C   0  0  0  0  0  0
   12.2649    1.2541    4.9071 C   0  0  0  0  0  0
   12.2011    2.4377    5.6239 C   0  0  0  0  0  0
   11.0187    3.1880    5.6895 C   0  0  0  0  0  0
   11.0418    4.4258    6.5219 C   0  0  0  0  0  0
   12.1492    5.2914    6.5164 C   0  0  0  0  0  0
   12.3422    6.2545    7.5090 C   0  0  0  0  0  0
   11.4313    6.3630    8.5549 C   0  0  0  0  0  0
   10.3220    5.5630    8.5311 N   0  0  0  0  0  0
    9.3647    5.4570    9.4887 N   0  0  0  0  0  0
    8.5582    4.5397    8.9796 C   0  0  0  0  0  0
    7.3941    4.1869    9.6176 N   0  0  0  0  0  0
    6.4121    3.2776    9.1682 C   0  0  0  0  0  0
    6.6991    2.1549    8.3851 C   0  0  0  0  0  0
    5.6758    1.3406    7.9090 C   0  0  0  0  0  0
    4.3324    1.5894    8.2289 C   0  0  0  0  0  0
    4.0625    2.7018    9.0444 C   0  0  0  0  0  0
    5.0864    3.5247    9.5090 C   0  0  0  0  0  0
    3.3053    0.7945    7.6960 N   0  0  0  0  0  0
    3.5431   -0.6343    7.3878 C   0  0  0  0  0  0
    2.4217   -1.3447    6.6022 C   0  0  0  0  0  0
    1.1670   -1.1248    7.2253 O   0  0  0  0  0  0
    0.8518    0.2576    7.2215 C   0  0  0  0  0  0
    1.8914    1.0370    8.0527 C   0  0  0  0  0  0
    8.9090    4.0192    7.8228 N   0  0  0  0  0  0
   10.0604    4.6473    7.5090 C   0  0  0  0  0  0
    6.6430    3.4758    5.1289 H   0  0  0  0  0  0
    7.3099    2.3970    3.9090 H   0  0  0  0  0  0
    7.3597    1.9423    5.6104 H   0  0  0  0  0  0
    9.0594    1.0291    3.9090 H   0  0  0  0  0  0
   11.1606   -0.1843    3.7568 H   0  0  0  0  0  0
   13.2207    0.7630    4.8174 H   0  0  0  0  0  0
   13.0985    2.7853    6.1141 H   0  0  0  0  0  0
   12.9177    5.1630    5.7675 H   0  0  0  0  0  0
   13.2312    6.8706    7.4995 H   0  0  0  0  0  0
   11.5484    7.0339    9.3907 H   0  0  0  0  0  0
    7.0641    4.7956   10.3488 H   0  0  0  0  0  0
    7.7125    1.8977    8.1223 H   0  0  0  0  0  0
    5.9615    0.5150    7.2773 H   0  0  0  0  0  0
    3.0561    2.9552    9.3368 H   0  0  0  0  0  0
    4.8333    4.3630   10.1377 H   0  0  0  0  0  0
    4.4309   -0.7317    6.7681 H   0  0  0  0  0  0
    3.7557   -1.1743    8.3090 H   0  0  0  0  0  0
    2.6143   -2.4171    6.5717 H   0  0  0  0  0  0
    2.4058   -1.0098    5.5626 H   0  0  0  0  0  0
   -0.1413    0.3900    7.6510 H   0  0  0  0  0  0
    0.7983    0.6446    6.2015 H   0  0  0  0  0  0
    1.7525    0.8188    9.1090 H   0  0  0  0  0  0
    1.6720    2.0965    7.9170 H   0  0  0  0  0  0
  1  2  1  0  0  0
  1 31  1  0  0  0
  1 32  1  0  0  0
  1 33  1  0  0  0
  2  3  1  0  0  0
  3  4  2  0  0  0
  3  8  1  0  0  0
  4  5  1  0  0  0
  4 34  1  0  0  0
  5  6  2  0  0  0
  5 35  1  0  0  0
  6  7  1  0  0  0
  6 36  1  0  0  0
  7  8  2  0  0  0
  7 37  1  0  0  0
  8  9  1  0  0  0
  9 10  2  0  0  0
  9 30  1  0  0  0
 10 11  1  0  0  0
 10 38  1  0  0  0
 11 12  2  0  0  0
 11 39  1  0  0  0
 12 13  1  0  0  0
 12 40  1  0  0  0
 13 14  1  0  0  0
 13 30  1  0  0  0
 14 15  2  0  0  0
 15 16  1  0  0  0
 15 29  1  0  0  0
 16 17  1  0  0  0
 16 41  1  0  0  0
 17 18  2  0  0  0
 17 22  1  0  0  0
 18 19  1  0  0  0
 18 42  1  0  0  0
 19 20  2  0  0  0
 19 43  1  0  0  0
 20 21  1  0  0  0
 20 23  1  0  0  0
 21 22  2  0  0  0
 21 44  1  0  0  0
 22 45  1  0  0  0
 23 24  1  0  0  0
 23 28  1  0  0  0
 24 25  1  0  0  0
 24 46  1  0  0  0
 24 47  1  0  0  0
 25 26  1  0  0  0
 25 48  1  0  0  0
 25 49  1  0  0  0
 26 27  1  0  0  0
 27 28  1  0  0  0
 27 50  1  0  0  0
 27 51  1  0  0  0
 28 52  1  0  0  0
 28 53  1  0  0  0
 29 30  2  0  0  0
M  END
> <s_m_entry_id>
47710

> <s_m_entry_name>
dock_pv.243

> <s_m_Source_Path>
/home/csk/Desktop/cluster/DUD-E-result/fak1

> <s_m_Source_File>
dock_pv.maegz

> <i_m_Source_File_Index>
243

> <chembl_id>
CHEMBL3642253

> <chembl_pref_name>
None

> <i_lp_mmshare_version>
53161

> <i_f3d_flags>
0

> <r_lp_tautomer_probability>
1

> <s_lp_Force_Field>
OPLS_2005

> <r_lp_Energy>
37.314341

> <b_lp_Chiralities_Consistent>
1

> <s_lp_Variant>
CHEMBL2695_lig583-1

> <s_i_glide_gridfile>
glide-grid_3bz3

> <i_i_glide_lignum>
637

> <i_i_glide_rotatable_bonds>
5

> <r_i_docking_score>
-7.21782175271282

> <r_i_glide_ligand_efficiency>
-0.240594058423761

> <r_i_glide_ligand_efficiency_sa>
-0.747581678226113

> <r_i_glide_ligand_efficiency_ln>
-1.63996774668328

> <r_i_glide_gscore>
-7.21782175271282

> <r_i_glide_lipo>
-2.60207891462953

> <r_i_glide_hbond>
-0.282632366537777

> <r_i_glide_metal>
0

> <r_i_glide_rewards>
-2.44486356749007

> <r_i_glide_evdw>
-34.9091987609863

> <r_i_glide_ecoul>
-4.03093528747559

> <r_i_glide_erotb>
0.486794331351184

> <r_i_glide_esite>
-0.0249410042359712

> <r_i_glide_emodel>
-49.68596991453

> <r_i_glide_energy>
-38.9401340484619

> <r_i_glide_einternal>
5.62146949768066

> <i_i_glide_confnum>
13

> <i_i_glide_posenum>
82

> <r_i_glide_eff_state_penalty>
0

> <s_user_duplicate_titles>
CHEMBL2695_lig583

> <s_m_subgroup_title>
dock_pv

> <s_m_subgroupid>
dock_pv

> <b_m_subgroup_collapsed>
1

$$$$
CHEMBL2695_lig1587
                    3D
 Schrodinger Suite 2021-1.
 34 37  0  0  1  0            999 V2000
    8.1734    4.3630    4.7859 S   0  0  0  0  0  0
   10.1886    2.7601    5.6505 N   0  0  0  0  0  0
   12.0704    1.5640    5.2599 N   0  0  0  0  0  0
    7.9866    2.3671    6.4082 N   0  0  0  0  0  0
   10.0872    0.7631    4.3091 N   0  0  0  0  0  0
   12.7219    7.4632    8.4855 N   0  0  0  0  0  0
   11.2311    3.5139    6.1516 C   0  0  0  0  0  0
    8.8446    3.0413    5.6810 C   0  0  0  0  0  0
   12.3867    2.7286    5.9090 C   0  0  0  0  0  0
   10.7812    1.6511    5.0692 C   0  0  0  0  0  0
    6.6438    4.0199    5.5344 C   0  0  0  0  0  0
    6.7762    2.8875    6.3480 C   0  0  0  0  0  0
   11.2961    4.7629    6.7802 C   0  0  0  0  0  0
   13.6470    3.2106    6.2846 C   0  0  0  0  0  0
   12.5635    5.2053    7.1780 C   0  0  0  0  0  0
   13.7177    4.4512    6.9230 C   0  0  0  0  0  0
    5.3498    4.7724    5.2806 C   0  0  0  0  0  0
    5.6220    2.2995    7.1524 C   0  0  0  0  0  0
    4.3294    4.3887    6.3768 C   0  0  0  0  0  0
    4.2802    2.8652    6.6243 C   0  0  0  0  0  0
   12.6581    6.4632    7.9060 C   0  0  0  0  0  0
    9.1228    0.9300    4.0472 H   0  0  0  0  0  0
   10.5514   -0.0115    3.8620 H   0  0  0  0  0  0
   10.4040    5.3422    6.9712 H   0  0  0  0  0  0
   14.5269    2.6243    6.0716 H   0  0  0  0  0  0
   14.6838    4.8143    7.2469 H   0  0  0  0  0  0
    5.5039    5.8532    5.2626 H   0  0  0  0  0  0
    4.9455    4.4958    4.3088 H   0  0  0  0  0  0
    5.6111    1.2098    7.0949 H   0  0  0  0  0  0
    5.7352    2.5602    8.2053 H   0  0  0  0  0  0
    4.5799    4.9001    7.3076 H   0  0  0  0  0  0
    3.3415    4.7542    6.0934 H   0  0  0  0  0  0
    3.4826    2.6283    7.3307 H   0  0  0  0  0  0
    4.0151    2.3597    5.6934 H   0  0  0  0  0  0
  1  8  1  0  0  0
  1 11  1  0  0  0
  2  7  1  0  0  0
  2  8  1  0  0  0
  2 10  1  0  0  0
  3  9  1  0  0  0
  3 10  2  0  0  0
  4  8  2  0  0  0
  4 12  1  0  0  0
  5 10  1  0  0  0
  5 22  1  0  0  0
  5 23  1  0  0  0
  6 21  3  0  0  0
  7  9  1  0  0  0
  7 13  2  0  0  0
  9 14  2  0  0  0
 11 12  2  0  0  0
 11 17  1  0  0  0
 12 18  1  0  0  0
 13 15  1  0  0  0
 13 24  1  0  0  0
 14 16  1  0  0  0
 14 25  1  0  0  0
 15 16  2  0  0  0
 15 21  1  0  0  0
 16 26  1  0  0  0
 17 19  1  0  0  0
 17 27  1  0  0  0
 17 28  1  0  0  0
 18 20  1  0  0  0
 18 29  1  0  0  0
 18 30  1  0  0  0
 19 20  1  0  0  0
 19 31  1  0  0  0
 19 32  1  0  0  0
 20 33  1  0  0  0
 20 34  1  0  0  0
M  END
> <s_m_entry_id>
47711

> <s_m_entry_name>
dock_pv.244

> <s_m_Source_Path>
/home/csk/Desktop/cluster/DUD-E-result/fak1

> <s_m_Source_File>
dock_pv.maegz

> <i_m_Source_File_Index>
244

> <chembl_id>
CHEMBL1996345

> <chembl_pref_name>
None

> <i_lp_mmshare_version>
53161

> <i_f3d_flags>
0

> <r_lp_tautomer_probability>
1

> <s_lp_Force_Field>
OPLS_2005

> <r_lp_Energy>
14.391367

> <b_lp_Chiralities_Consistent>
1

> <s_lp_Variant>
CHEMBL2695_lig1587-1

> <s_i_glide_gridfile>
glide-grid_3bz3

> <i_i_glide_lignum>
1754

> <i_i_glide_rotatable_bonds>
1

> <r_i_docking_score>
-7.21469389056052

> <r_i_glide_ligand_efficiency>
-0.343556851931453

> <r_i_glide_ligand_efficiency_sa>
-0.947847303793162

> <r_i_glide_ligand_efficiency_ln>
-1.78381848577938

> <r_i_glide_gscore>
-7.21469389056052

> <r_i_glide_lipo>
-2.41928947640729

> <r_i_glide_hbond>
-0.00594719348838504

> <r_i_glide_metal>
0

> <r_i_glide_rewards>
-2.67807997657676

> <r_i_glide_evdw>
-38.5381851196289

> <r_i_glide_ecoul>
-2.62847876548767

> <r_i_glide_erotb>
0.209803826716507

> <r_i_glide_esite>
0

> <r_i_glide_emodel>
-57.0477528395556

> <r_i_glide_energy>
-41.1666638851166

> <r_i_glide_einternal>
1.45807254314423

> <i_i_glide_confnum>
7

> <i_i_glide_posenum>
392

> <r_i_glide_eff_state_penalty>
0

> <s_user_duplicate_titles>
CHEMBL2695_lig1587

> <s_m_subgroup_title>
dock_pv

> <s_m_subgroupid>
dock_pv

> <b_m_subgroup_collapsed>
1

$$$$
CHEMBL2695_lig1816
                    3D
 Schrodinger Suite 2021-1.
 41 43  0  0  1  0            999 V2000
    7.7260    3.7517    9.9583 S   0  0  0  0  0  0
    4.3678    2.3057    7.0109 O   0  0  0  0  0  0
    8.7045    4.6292    9.3081 O   0  0  0  0  0  0
    8.0695    2.3661   10.2893 O   0  0  0  0  0  0
    5.7242    5.1199    5.1114 N   0  0  0  0  0  0
   13.9911    3.1543    6.3090 N   0  0  0  0  0  0
    6.2680    3.7570    8.9884 N   0  0  2  0  0  0
    8.9665    3.2154    5.5296 C   0  0  0  0  0  0
    7.5204    3.5411    5.5304 C   0  0  0  0  0  0
   11.2568    3.8370    6.1140 C   0  0  0  0  0  0
   11.6990    2.5386    5.7185 C   0  0  0  0  0  0
    9.8862    4.1552    6.0025 C   0  0  0  0  0  0
    9.4177    1.9546    5.1300 C   0  0  0  0  0  0
    6.5996    2.6623    6.1047 C   0  0  0  0  0  0
   10.7637    1.6078    5.2083 C   0  0  0  0  0  0
    5.2632    3.0435    6.2684 C   0  0  0  0  0  0
    7.0316    4.7609    5.0476 C   0  0  0  0  0  0
   12.2087    4.7629    6.6173 C   0  0  0  0  0  0
   13.0828    2.2680    5.8414 C   0  0  0  0  0  0
    4.8636    4.2632    5.7197 C   0  0  0  0  0  0
   13.5441    4.3687    6.7062 C   0  0  0  0  0  0
    4.8312    1.7768    8.2633 C   0  0  0  0  0  0
    5.1340    2.8605    9.3261 C   0  0  0  0  0  0
    7.1186    4.5848   11.5087 C   0  0  0  0  0  0
    6.4392    3.8435    7.9801 H   0  0  0  0  0  0
    9.5496    5.1274    6.3360 H   0  0  0  0  0  0
    8.7113    1.2275    4.7535 H   0  0  0  0  0  0
    6.9405    1.7126    6.4912 H   0  0  0  0  0  0
   11.0962    0.6301    4.8940 H   0  0  0  0  0  0
    7.6999    5.4735    4.5894 H   0  0  0  0  0  0
   11.8969    5.7475    6.9341 H   0  0  0  0  0  0
   13.4706    1.3042    5.5450 H   0  0  0  0  0  0
    3.8407    4.5989    5.8090 H   0  0  0  0  0  0
   14.2902    5.0500    7.0931 H   0  0  0  0  0  0
    5.6868    1.1132    8.1369 H   0  0  0  0  0  0
    4.0449    1.1285    8.6516 H   0  0  0  0  0  0
    5.4159    2.3257   10.2362 H   0  0  0  0  0  0
    4.2446    3.4178    9.6248 H   0  0  0  0  0  0
    7.9297    4.6704   12.2252 H   0  0  0  0  0  0
    6.3220    3.9653   11.9161 H   0  0  0  0  0  0
    6.7264    5.5628   11.2427 H   0  0  0  0  0  0
  1  3  2  0  0  0
  1  4  2  0  0  0
  1  7  1  0  0  0
  1 24  1  0  0  0
  2 16  1  0  0  0
  2 22  1  0  0  0
  5 17  2  0  0  0
  5 20  1  0  0  0
  6 19  2  0  0  0
  6 21  1  0  0  0
  7 23  1  0  0  0
  7 25  1  0  0  0
  8  9  1  0  0  0
  8 12  1  0  0  0
  8 13  2  0  0  0
  9 14  2  0  0  0
  9 17  1  0  0  0
 10 11  1  0  0  0
 10 12  2  0  0  0
 10 18  1  0  0  0
 11 15  2  0  0  0
 11 19  1  0  0  0
 12 26  1  0  0  0
 13 15  1  0  0  0
 13 27  1  0  0  0
 14 16  1  0  0  0
 14 28  1  0  0  0
 15 29  1  0  0  0
 16 20  2  0  0  0
 17 30  1  0  0  0
 18 21  2  0  0  0
 18 31  1  0  0  0
 19 32  1  0  0  0
 20 33  1  0  0  0
 21 34  1  0  0  0
 22 23  1  0  0  0
 22 35  1  0  0  0
 22 36  1  0  0  0
 23 37  1  0  0  0
 23 38  1  0  0  0
 24 39  1  0  0  0
 24 40  1  0  0  0
 24 41  1  0  0  0
M  END
> <s_m_entry_id>
47712

> <s_m_entry_name>
dock_pv.245

> <s_m_Source_Path>
/home/csk/Desktop/cluster/DUD-E-result/fak1

> <s_m_Source_File>
dock_pv.maegz

> <i_m_Source_File_Index>
245

> <chembl_id>
CHEMBL1964804

> <chembl_pref_name>
None

> <i_lp_mmshare_version>
53161

> <i_f3d_flags>
0

> <r_lp_tautomer_probability>
1

> <s_lp_Force_Field>
OPLS_2005

> <r_lp_Energy>
18.467482

> <b_lp_Chiralities_Consistent>
1

> <s_lp_Variant>
CHEMBL2695_lig1816-1

> <s_i_glide_gridfile>
glide-grid_3bz3

> <i_i_glide_lignum>
2088

> <i_i_glide_rotatable_bonds>
6

> <r_i_docking_score>
-7.20955115243248

> <r_i_glide_ligand_efficiency>
-0.300397964684687

> <r_i_glide_ligand_efficiency_sa>
-0.866497670057494

> <r_i_glide_ligand_efficiency_ln>
-1.72557641552265

> <r_i_glide_gscore>
-7.20955115243248

> <r_i_glide_lipo>
-2.99592656776478

> <r_i_glide_hbond>
-0.209174871901268

> <r_i_glide_metal>
0

> <r_i_glide_rewards>
-1.77724599573346

> <r_i_glide_evdw>
-44.466926574707

> <r_i_glide_ecoul>
-5.38919019699097

> <r_i_glide_erotb>
0.804521141251023

> <r_i_glide_esite>
0

> <r_i_glide_emodel>
-64.11304806641

> <r_i_glide_energy>
-49.856116771698

> <r_i_glide_einternal>
12.2779808044434

> <i_i_glide_confnum>
36

> <i_i_glide_posenum>
396

> <r_i_glide_eff_state_penalty>
0

> <s_user_duplicate_titles>
CHEMBL2695_lig1816

> <s_m_subgroup_title>
dock_pv

> <s_m_subgroupid>
dock_pv

> <b_m_subgroup_collapsed>
1

$$$$
CHEMBL2695_lig1861
                    3D
 Schrodinger Suite 2021-1.
 30 32  0  0  1  0            999 V2000
   11.6476    7.9643    7.9091 O   0  0  0  0  0  0
    8.0505    1.7309    5.5732 N   0  0  0  0  0  0
    5.7509    2.3630    5.1544 N   0  0  0  0  0  0
    9.5850    3.6225    5.8124 C   0  0  0  0  0  0
    7.2478    4.0339    5.3329 C   0  0  0  0  0  0
    7.0844    2.6262    5.3657 C   0  0  0  0  0  0
   10.9464    4.1016    6.1863 C   0  0  0  0  0  0
    8.5462    4.5238    5.5271 C   0  0  0  0  0  0
    9.2785    2.2558    5.8018 C   0  0  0  0  0  0
   11.1002    5.3104    6.8742 C   0  0  0  0  0  0
    5.9493    4.6030    5.1087 C   0  0  0  0  0  0
   12.3517    5.7459    7.3158 C   0  0  0  0  0  0
   12.0966    3.3498    5.9090 C   0  0  0  0  0  0
    5.0605    3.5454    5.0197 C   0  0  0  0  0  0
   13.4842    4.9702    7.0349 C   0  0  0  0  0  0
   13.3583    3.7880    6.3090 C   0  0  0  0  0  0
   12.4528    7.0422    8.0344 C   0  0  0  0  0  0
   13.5217    7.1341    9.1088 C   0  0  0  0  0  0
    5.3262    1.4440    5.1123 H   0  0  0  0  0  0
    8.7219    5.5847    5.5086 H   0  0  0  0  0  0
   10.0364    1.5201    6.0238 H   0  0  0  0  0  0
   10.2272    5.9027    7.1083 H   0  0  0  0  0  0
    5.6850    5.6475    5.0310 H   0  0  0  0  0  0
   12.0208    2.4161    5.3720 H   0  0  0  0  0  0
    3.9906    3.5328    4.8604 H   0  0  0  0  0  0
   14.4699    5.2847    7.3471 H   0  0  0  0  0  0
   14.2305    3.1948    6.0768 H   0  0  0  0  0  0
   14.5055    7.2361    8.6584 H   0  0  0  0  0  0
   13.5245    6.2129    9.6878 H   0  0  0  0  0  0
   13.3327    7.9642    9.7890 H   0  0  0  0  0  0
  1 17  2  0  0  0
  2  6  2  0  0  0
  2  9  1  0  0  0
  3  6  1  0  0  0
  3 14  1  0  0  0
  3 19  1  0  0  0
  4  7  1  0  0  0
  4  8  1  0  0  0
  4  9  2  0  0  0
  5  6  1  0  0  0
  5  8  2  0  0  0
  5 11  1  0  0  0
  7 10  2  0  0  0
  7 13  1  0  0  0
  8 20  1  0  0  0
  9 21  1  0  0  0
 10 12  1  0  0  0
 10 22  1  0  0  0
 11 14  2  0  0  0
 11 23  1  0  0  0
 12 15  2  0  0  0
 12 17  1  0  0  0
 13 16  2  0  0  0
 13 24  1  0  0  0
 14 25  1  0  0  0
 15 16  1  0  0  0
 15 26  1  0  0  0
 16 27  1  0  0  0
 17 18  1  0  0  0
 18 28  1  0  0  0
 18 29  1  0  0  0
 18 30  1  0  0  0
M  END
> <s_m_entry_id>
47713

> <s_m_entry_name>
dock_pv.246

> <s_m_Source_Path>
/home/csk/Desktop/cluster/DUD-E-result/fak1

> <s_m_Source_File>
dock_pv.maegz

> <i_m_Source_File_Index>
246

> <chembl_id>
CHEMBL2000568

> <chembl_pref_name>
None

> <i_lp_mmshare_version>
53161

> <i_f3d_flags>
0

> <r_lp_tautomer_probability>
0.999948432606831

> <s_lp_Force_Field>
OPLS_2005

> <r_lp_Energy>
16.517045

> <b_lp_Chiralities_Consistent>
1

> <s_lp_Variant>
CHEMBL2695_lig1861-1

> <s_i_glide_gridfile>
glide-grid_3bz3

> <i_i_glide_lignum>
2149

> <i_i_glide_rotatable_bonds>
2

> <r_i_docking_score>
-7.20947961539769

> <r_i_glide_ligand_efficiency>
-0.400526645299872

> <r_i_glide_ligand_efficiency_sa>
-1.04967675780968

> <r_i_glide_ligand_efficiency_ln>
-1.8531595600767

> <r_i_glide_gscore>
-7.20947961539769

> <r_i_glide_lipo>
-3.16679173471332

> <r_i_glide_hbond>
-0.00732744356143298

> <r_i_glide_metal>
0

> <r_i_glide_rewards>
-2.37316877272727

> <r_i_glide_evdw>
-31.0977954864502

> <r_i_glide_ecoul>
-1.98069405555725

> <r_i_glide_erotb>
0.308371208856827

> <r_i_glide_esite>
-0.118568990596393

> <r_i_glide_emodel>
-46.2214342767696

> <r_i_glide_energy>
-33.0784895420074

> <r_i_glide_einternal>
2.46824145317078

> <i_i_glide_confnum>
1

> <i_i_glide_posenum>
257

> <r_i_glide_eff_state_penalty>
0

> <s_user_duplicate_titles>
CHEMBL2695_lig1861

> <s_m_subgroup_title>
dock_pv

> <s_m_subgroupid>
dock_pv

> <b_m_subgroup_collapsed>
1

$$$$
CHEMBL2695_lig1902
                    3D
 Schrodinger Suite 2021-1.
 50 53  0  0  1  0            999 V2000
   14.3095    3.0178    6.1114 F   0  0  0  0  0  0
   13.0948    7.0344    8.2435 F   0  0  0  0  0  0
    8.3225    2.7631   10.5840 O   0  0  0  0  0  0
   10.4506    0.8004    4.2365 N   0  0  0  0  0  0
   12.4562    1.5629    4.9523 N   0  0  0  0  0  0
    8.3217    1.8734    6.5961 N   0  0  0  0  0  0
   11.5439   -0.8464    2.2877 N   0  0  0  0  0  0
    6.5596    3.5100    6.3952 N   0  0  0  0  0  0
    6.7875    2.0934    8.3089 N   0  0  0  0  0  0
   10.2268    1.8190    5.1483 C   0  0  0  0  0  0
   11.5158    2.3049    5.5047 C   0  0  0  0  0  0
   11.8350    0.7636    4.0615 C   0  0  0  0  0  0
    8.8723    2.3422    5.4531 C   0  0  0  0  0  0
   11.9498    3.5704    6.2128 C   0  0  0  0  0  0
   12.3515   -0.0429    3.0305 C   0  0  0  0  0  0
    9.6362   -0.0359    3.5089 C   0  0  0  0  0  0
   13.3137    3.8729    6.4375 C   0  0  0  0  0  0
   11.0018    4.5112    6.6395 C   0  0  0  0  0  0
    8.2779    3.3669    4.7096 C   0  0  0  0  0  0
   10.2146   -0.8528    2.5431 C   0  0  0  0  0  0
    7.1984    2.4905    7.0345 C   0  0  0  0  0  0
   13.6819    5.0182    7.1272 C   0  0  0  0  0  0
   11.3879    5.6694    7.3105 C   0  0  0  0  0  0
   12.7275    5.9239    7.5657 C   0  0  0  0  0  0
    7.1017    3.9191    5.2199 C   0  0  0  0  0  0
   13.8258   -0.0991    2.6639 C   0  0  0  0  0  0
    6.3456    3.1104    9.2657 C   0  0  0  0  0  0
    7.4953    3.7915   10.0698 C   0  0  0  0  0  0
    6.9915    4.5592   11.2913 C   0  0  0  0  0  0
    8.4850    4.5963    9.2105 C   0  0  0  0  0  0
    7.7542    2.0659   10.9182 H   0  0  0  0  0  0
    7.3330    1.3429    8.7069 H   0  0  0  0  0  0
    8.5702    0.0360    3.6698 H   0  0  0  0  0  0
    9.9500    4.3619    6.4780 H   0  0  0  0  0  0
    8.7252    3.7534    3.8112 H   0  0  0  0  0  0
    9.6024   -1.4989    1.9293 H   0  0  0  0  0  0
   14.7220    5.1630    7.3417 H   0  0  0  0  0  0
   10.6484    6.3623    7.6581 H   0  0  0  0  0  0
    6.5985    4.7286    4.7110 H   0  0  0  0  0  0
   14.1746    0.8953    2.3871 H   0  0  0  0  0  0
   14.4242   -0.4373    3.5085 H   0  0  0  0  0  0
   14.0245   -0.7702    1.8274 H   0  0  0  0  0  0
    5.6503    2.6213    9.9504 H   0  0  0  0  0  0
    5.7433    3.8794    8.7799 H   0  0  0  0  0  0
    6.4442    5.4466   10.9849 H   0  0  0  0  0  0
    7.8214    4.8977   11.9117 H   0  0  0  0  0  0
    6.3224    3.9609   11.9090 H   0  0  0  0  0  0
    7.9696    5.3897    8.6724 H   0  0  0  0  0  0
    9.2610    5.0637    9.8174 H   0  0  0  0  0  0
    8.9867    3.9682    8.4773 H   0  0  0  0  0  0
  1 17  1  0  0  0
  2 24  1  0  0  0
  3 28  1  0  0  0
  3 31  1  0  0  0
  4 10  1  0  0  0
  4 12  1  0  0  0
  4 16  1  0  0  0
  5 11  1  0  0  0
  5 12  2  0  0  0
  6 13  1  0  0  0
  6 21  2  0  0  0
  7 15  2  0  0  0
  7 20  1  0  0  0
  8 21  1  0  0  0
  8 25  2  0  0  0
  9 21  1  0  0  0
  9 27  1  0  0  0
  9 32  1  0  0  0
 10 11  2  0  0  0
 10 13  1  0  0  0
 11 14  1  0  0  0
 12 15  1  0  0  0
 13 19  2  0  0  0
 14 17  1  0  0  0
 14 18  2  0  0  0
 15 26  1  0  0  0
 16 20  2  0  0  0
 16 33  1  0  0  0
 17 22  2  0  0  0
 18 23  1  0  0  0
 18 34  1  0  0  0
 19 25  1  0  0  0
 19 35  1  0  0  0
 20 36  1  0  0  0
 22 24  1  0  0  0
 22 37  1  0  0  0
 23 24  2  0  0  0
 23 38  1  0  0  0
 25 39  1  0  0  0
 26 40  1  0  0  0
 26 41  1  0  0  0
 26 42  1  0  0  0
 27 28  1  0  0  0
 27 43  1  0  0  0
 27 44  1  0  0  0
 28 29  1  0  0  0
 28 30  1  0  0  0
 29 45  1  0  0  0
 29 46  1  0  0  0
 29 47  1  0  0  0
 30 48  1  0  0  0
 30 49  1  0  0  0
 30 50  1  0  0  0
M  END
> <s_m_entry_id>
47715

> <s_m_entry_name>
dock_pv.248

> <s_m_Source_Path>
/home/csk/Desktop/cluster/DUD-E-result/fak1

> <s_m_Source_File>
dock_pv.maegz

> <i_m_Source_File_Index>
248

> <chembl_id>
CHEMBL1996500

> <chembl_pref_name>
None

> <i_lp_mmshare_version>
53161

> <i_f3d_flags>
0

> <r_lp_tautomer_probability>
0.999999987636

> <s_lp_Force_Field>
OPLS_2005

> <r_lp_Energy>
17.701271

> <b_lp_Chiralities_Consistent>
1

> <s_lp_Variant>
CHEMBL2695_lig1902-1

> <s_i_glide_gridfile>
glide-grid_3bz3

> <i_i_glide_lignum>
2213

> <i_i_glide_rotatable_bonds>
6

> <r_i_docking_score>
-7.1982611098325

> <r_i_glide_ligand_efficiency>
-0.239942036994417

> <r_i_glide_ligand_efficiency_sa>
-0.745555696048574

> <r_i_glide_ligand_efficiency_ln>
-1.63552335549059

> <r_i_glide_gscore>
-7.1982611098325

> <r_i_glide_lipo>
-3.80364013248145

> <r_i_glide_hbond>
0

> <r_i_glide_metal>
0

> <r_i_glide_rewards>
-1.49451781321719

> <r_i_glide_evdw>
-38.2447319030762

> <r_i_glide_ecoul>
-3.62685918807983

> <r_i_glide_erotb>
0.58476324699005

> <r_i_glide_esite>
-0.0286009377581189

> <r_i_glide_emodel>
-39.6114364258231

> <r_i_glide_energy>
-41.871591091156

> <r_i_glide_einternal>
17.2894191741943

> <i_i_glide_confnum>
107

> <i_i_glide_posenum>
1

> <r_i_glide_eff_state_penalty>
0

> <s_user_duplicate_titles>
CHEMBL2695_lig1902

> <s_m_subgroup_title>
dock_pv

> <s_m_subgroupid>
dock_pv

> <b_m_subgroup_collapsed>
1

$$$$
CHEMBL2695_lig225
                    3D
 Schrodinger Suite 2021-1.
 54 56  0  0  1  0            999 V2000
    6.8675    2.0667    8.3328 C   0  0  0  0  0  0
    6.5664    3.1508    9.1586 C   0  0  0  0  0  0
    5.2516    3.3791    9.5487 C   0  0  0  0  0  0
    4.2259    2.5477    9.1068 C   0  0  0  0  0  0
    7.5583    4.0136    9.6396 N   0  0  0  0  0  0
    8.6844    4.5219    8.9920 C   0  0  0  0  0  0
    8.8356    4.3137    7.6693 N   0  0  0  0  0  0
    9.8937    4.8936    7.0493 C   0  0  0  0  0  0
   10.8169    5.6840    7.7477 C   0  0  0  0  0  0
   10.5834    5.8273    9.1103 C   0  0  0  0  0  0
    9.5221    5.2580    9.7448 N   0  0  0  0  0  0
   10.0301    4.7367    5.6673 N   0  0  0  0  0  0
   11.9955    6.3882    7.0897 C   0  0  0  0  0  0
   12.8311    6.9286    7.9793 F   0  0  0  0  0  0
   12.6857    5.5213    6.3507 F   0  0  0  0  0  0
   11.5219    7.3619    6.3120 F   0  0  0  0  0  0
    7.7745    3.9473    4.8184 C   0  0  0  0  0  0
    9.2967    3.7202    4.9145 C   0  0  2  0  0  0
    9.5532    2.2551    5.3357 C   0  0  1  0  0  0
    8.2688    1.5284    4.8900 C   0  0  0  0  0  0
    7.1346    2.5553    4.8038 C   0  0  0  0  0  0
   10.8126    1.7155    4.7857 N   0  0  0  0  0  0
   11.9852    2.2015    5.5176 C   0  0  0  0  0  0
   10.8877    0.2623    4.7235 C   0  0  0  0  0  0
    5.8517    1.2190    7.9090 C   0  0  0  0  0  0
    4.5297    1.4675    8.2777 C   0  0  0  0  0  0
    3.2508    0.3553    7.7083 S   0  0  0  0  0  0
    3.1740    0.6965    5.8637 C   0  0  0  0  0  0
    3.7398   -1.0154    7.8999 O   0  0  0  0  0  0
    1.9829    0.7781    8.3122 O   0  0  0  0  0  0
    7.8857    1.8672    8.0334 H   0  0  0  0  0  0
    5.0295    4.1965   10.2122 H   0  0  0  0  0  0
    3.2115    2.7386    9.4247 H   0  0  0  0  0  0
    7.4293    4.3474   10.5824 H   0  0  0  0  0  0
   11.2843    6.3777    9.7176 H   0  0  0  0  0  0
   10.9676    4.9231    5.3389 H   0  0  0  0  0  0
    7.3698    4.5465    5.6342 H   0  0  0  0  0  0
    7.5333    4.4957    3.9088 H   0  0  0  0  0  0
    9.6659    3.7974    3.9057 H   0  0  0  0  0  0
    9.5899    2.1552    6.4206 H   0  0  0  0  0  0
    8.3740    1.0673    3.9100 H   0  0  0  0  0  0
    8.0048    0.7632    5.6129 H   0  0  0  0  0  0
    6.4475    2.4593    5.6407 H   0  0  0  0  0  0
    6.5427    2.3611    3.9098 H   0  0  0  0  0  0
   12.0897    3.2798    5.4402 H   0  0  0  0  0  0
   12.9093    1.7769    5.1221 H   0  0  0  0  0  0
   11.9298    1.9629    6.5792 H   0  0  0  0  0  0
   10.0980   -0.1548    4.1025 H   0  0  0  0  0  0
   11.8159   -0.0335    4.2368 H   0  0  0  0  0  0
   10.8392   -0.1856    5.7168 H   0  0  0  0  0  0
    6.0901    0.3632    7.3065 H   0  0  0  0  0  0
    2.3909    0.0813    5.4286 H   0  0  0  0  0  0
    2.9557    1.7517    5.7099 H   0  0  0  0  0  0
    4.1365    0.4367    5.4223 H   0  0  0  0  0  0
  1  2  2  0  0  0
  1 25  1  0  0  0
  1 31  1  0  0  0
  2  3  1  0  0  0
  2  5  1  0  0  0
  3  4  2  0  0  0
  3 32  1  0  0  0
  4 26  1  0  0  0
  4 33  1  0  0  0
  5  6  1  0  0  0
  5 34  1  0  0  0
  6  7  2  0  0  0
  6 11  1  0  0  0
  7  8  1  0  0  0
  8  9  2  0  0  0
  8 12  1  0  0  0
  9 10  1  0  0  0
  9 13  1  0  0  0
 10 11  2  0  0  0
 10 35  1  0  0  0
 12 18  1  0  0  0
 12 36  1  0  0  0
 13 14  1  0  0  0
 13 15  1  0  0  0
 13 16  1  0  0  0
 17 18  1  0  0  0
 17 21  1  0  0  0
 17 37  1  0  0  0
 17 38  1  0  0  0
 18 19  1  0  0  0
 18 39  1  0  0  0
 19 20  1  0  0  0
 19 22  1  0  0  0
 19 40  1  0  0  0
 20 21  1  0  0  0
 20 41  1  0  0  0
 20 42  1  0  0  0
 21 43  1  0  0  0
 21 44  1  0  0  0
 22 23  1  0  0  0
 22 24  1  0  0  0
 23 45  1  0  0  0
 23 46  1  0  0  0
 23 47  1  0  0  0
 24 48  1  0  0  0
 24 49  1  0  0  0
 24 50  1  0  0  0
 25 26  2  0  0  0
 25 51  1  0  0  0
 26 27  1  0  0  0
 27 28  1  0  0  0
 27 29  2  0  0  0
 27 30  2  0  0  0
 28 52  1  0  0  0
 28 53  1  0  0  0
 28 54  1  0  0  0
M  END
> <s_m_entry_id>
47716

> <s_m_entry_name>
dock_pv.249

> <s_m_Source_Path>
/home/csk/Desktop/cluster/DUD-E-result/fak1

> <s_m_Source_File>
dock_pv.maegz

> <i_m_Source_File_Index>
249

> <chembl_id>
CHEMBL519418

> <chembl_pref_name>
None

> <i_lp_mmshare_version>
53161

> <i_f3d_flags>
0

> <r_lp_tautomer_probability>
0.999999624730965

> <s_lp_Force_Field>
OPLS_2005

> <r_lp_Energy>
24.312846

> <b_lp_Chiralities_Consistent>
1

> <s_lp_Variant>
CHEMBL2695_lig225-1

> <s_i_glide_gridfile>
glide-grid_3bz3

> <i_i_glide_lignum>
257

> <i_i_glide_rotatable_bonds>
7

> <r_i_docking_score>
-7.19304704622887

> <r_i_glide_ligand_efficiency>
-0.239768234874296

> <r_i_glide_ligand_efficiency_sa>
-0.745015652451943

> <r_i_glide_ligand_efficiency_ln>
-1.63433866342808

> <r_i_glide_gscore>
-7.19304704622887

> <r_i_glide_lipo>
-2.31824309347619

> <r_i_glide_hbond>
-0.304397784154488

> <r_i_glide_metal>
0

> <r_i_glide_rewards>
-2.81448707913757

> <r_i_glide_evdw>
-29.6850261688232

> <r_i_glide_ecoul>
-3.77482867240906

> <r_i_glide_erotb>
0.406588756927995

> <r_i_glide_esite>
-0.112032237086089

> <r_i_glide_emodel>
-43.198036523894

> <r_i_glide_energy>
-33.4598548412323

> <r_i_glide_einternal>
13.5102396011353

> <i_i_glide_confnum>
7

> <i_i_glide_posenum>
201

> <r_i_glide_eff_state_penalty>
0

> <s_user_duplicate_titles>
CHEMBL2695_lig225

> <s_m_subgroup_title>
dock_pv

> <s_m_subgroupid>
dock_pv

> <b_m_subgroup_collapsed>
1

$$$$
CHEMBL2695_lig258
                    3D
 Schrodinger Suite 2021-1.
 58 60  0  0  1  0            999 V2000
    4.4585    1.7494    8.3689 C   0  0  0  0  0  0
    5.7303    1.5419    7.8369 C   0  0  0  0  0  0
    6.7927    2.3545    8.2224 C   0  0  0  0  0  0
    6.5907    3.4020    9.1220 C   0  0  0  0  0  0
    5.3285    3.5753    9.6810 C   0  0  0  0  0  0
    4.2606    2.7631    9.3057 C   0  0  0  0  0  0
    7.6097    4.2965    9.4947 N   0  0  0  0  0  0
    8.7469    4.7440    8.8102 C   0  0  0  0  0  0
    8.9563    4.3536    7.5295 N   0  0  0  0  0  0
   10.0963    4.7622    6.9156 C   0  0  0  0  0  0
   11.0345    5.5635    7.5986 C   0  0  0  0  0  0
   10.7153    5.9620    8.8964 C   0  0  0  0  0  0
    9.5724    5.5605    9.5090 N   0  0  0  0  0  0
    3.0677    0.7558    7.8192 S   0  0  2  0  0  0
    2.6968    1.4008    6.0937 C   0  0  0  0  0  0
    1.9219    0.9917    8.7062 O   0  0  0  0  0  0
    3.6691   -0.6330    7.5187 N   0  0  0  0  0  0
   12.3678    6.0059    7.0352 C   0  0  0  0  0  0
   13.3295    5.8934    7.9529 F   0  0  0  0  0  0
   12.7268    5.2825    5.9759 F   0  0  0  0  0  0
   12.2293    7.2903    6.7125 F   0  0  0  0  0  0
   10.3326    4.3756    5.5806 N   0  0  0  0  0  0
    9.6056    3.3413    4.8395 C   0  0  1  0  0  0
    9.6828    1.9335    5.4629 C   0  0  1  0  0  0
    8.3445    1.2612    5.1250 C   0  0  0  0  0  0
    7.3493    2.3535    4.7233 C   0  0  0  0  0  0
    8.1240    3.6680    4.5841 C   0  0  0  0  0  0
   10.8831    1.1137    5.1921 N   0  0  0  0  0  0
   12.1085    1.7061    5.7241 C   0  0  0  0  0  0
   11.1115    0.7272    3.8035 C   0  0  0  0  0  0
    3.0162   -1.8498    7.9154 C   0  0  0  0  0  0
    5.8933    0.7632    7.1100 H   0  0  0  0  0  0
    7.7654    2.1689    7.8025 H   0  0  0  0  0  0
    5.1638    4.3595   10.4011 H   0  0  0  0  0  0
    3.2859    2.9361    9.7381 H   0  0  0  0  0  0
    7.5160    4.6870   10.4191 H   0  0  0  0  0  0
   11.3933    6.5770    9.4717 H   0  0  0  0  0  0
    3.5895    1.2840    5.4790 H   0  0  0  0  0  0
    1.8759    0.8208    5.6758 H   0  0  0  0  0  0
    2.4223    2.4521    6.1624 H   0  0  0  0  0  0
   11.3038    4.4774    5.3215 H   0  0  0  0  0  0
   10.0615    3.2579    3.8604 H   0  0  0  0  0  0
    9.6656    2.0453    6.5461 H   0  0  0  0  0  0
    8.4062    0.5443    4.3081 H   0  0  0  0  0  0
    7.9492    0.7630    6.0029 H   0  0  0  0  0  0
    6.5611    2.4694    5.4639 H   0  0  0  0  0  0
    6.8378    2.0467    3.8134 H   0  0  0  0  0  0
    7.7267    4.4221    5.2638 H   0  0  0  0  0  0
    8.0050    4.0824    3.5828 H   0  0  0  0  0  0
   12.9058    0.9670    5.8013 H   0  0  0  0  0  0
   11.9378    2.1121    6.7115 H   0  0  0  0  0  0
   12.4726    2.5291    5.1105 H   0  0  0  0  0  0
   11.8384   -0.0820    3.7543 H   0  0  0  0  0  0
   10.2152    0.3786    3.2944 H   0  0  0  0  0  0
   11.5260    1.5588    3.2426 H   0  0  0  0  0  0
    2.9590   -2.5327    7.0673 H   0  0  0  0  0  0
    3.5853   -2.3393    8.7078 H   0  0  0  0  0  0
    2.0040   -1.6749    8.2850 H   0  0  0  0  0  0
  1  6  2  0  0  0
  1  2  1  0  0  0
  1 14  1  0  0  0
  2  3  2  0  0  0
  2 32  1  0  0  0
  3  4  1  0  0  0
  3 33  1  0  0  0
  4  5  2  0  0  0
  4  7  1  0  0  0
  5  6  1  0  0  0
  5 34  1  0  0  0
  6 35  1  0  0  0
  7  8  1  0  0  0
  7 36  1  0  0  0
  8  9  2  0  0  0
  8 13  1  0  0  0
  9 10  1  0  0  0
 10 22  1  0  0  0
 10 11  2  0  0  0
 11 18  1  0  0  0
 11 12  1  0  0  0
 12 13  2  0  0  0
 12 37  1  0  0  0
 14 15  1  0  0  0
 14 16  2  0  0  0
 14 17  2  0  0  0
 15 38  1  0  0  0
 15 39  1  0  0  0
 15 40  1  0  0  0
 17 31  1  0  0  0
 18 19  1  0  0  0
 18 20  1  0  0  0
 18 21  1  0  0  0
 22 23  1  0  0  0
 22 41  1  0  0  0
 23 24  1  0  0  0
 23 27  1  0  0  0
 23 42  1  0  0  0
 24 25  1  0  0  0
 24 28  1  0  0  0
 24 43  1  0  0  0
 25 26  1  0  0  0
 25 44  1  0  0  0
 25 45  1  0  0  0
 26 27  1  0  0  0
 26 46  1  0  0  0
 26 47  1  0  0  0
 27 48  1  0  0  0
 27 49  1  0  0  0
 28 29  1  0  0  0
 28 30  1  0  0  0
 29 50  1  0  0  0
 29 51  1  0  0  0
 29 52  1  0  0  0
 30 53  1  0  0  0
 30 54  1  0  0  0
 30 55  1  0  0  0
 31 56  1  0  0  0
 31 57  1  0  0  0
 31 58  1  0  0  0
M  END
> <s_m_entry_id>
47717

> <s_m_entry_name>
dock_pv.250

> <s_m_Source_Path>
/home/csk/Desktop/cluster/DUD-E-result/fak1

> <s_m_Source_File>
dock_pv.maegz

> <i_m_Source_File_Index>
250

> <chembl_id>
CHEMBL2029180

> <chembl_pref_name>
None

> <i_lp_mmshare_version>
53161

> <i_f3d_flags>
0

> <r_lp_tautomer_probability>
0.999999624730965

> <s_lp_Force_Field>
OPLS_2005

> <r_lp_Energy>
24.028096

> <b_lp_Chiralities_Consistent>
1

> <s_lp_Variant>
CHEMBL2695_lig258-2

> <s_i_glide_gridfile>
glide-grid_3bz3

> <i_i_glide_lignum>
293

> <i_i_glide_rotatable_bonds>
7

> <r_i_docking_score>
-7.18783240017848

> <r_i_glide_ligand_efficiency>
-0.23186556129608

> <r_i_glide_ligand_efficiency_sa>
-0.72837798737763

> <r_i_glide_ligand_efficiency_ln>
-1.62107648684861

> <r_i_glide_gscore>
-7.18783240017848

> <r_i_glide_lipo>
-2.37572908363863

> <r_i_glide_hbond>
-0.32

> <r_i_glide_metal>
0

> <r_i_glide_rewards>
-2.60065163021504

> <r_i_glide_evdw>
-36.0088005065918

> <r_i_glide_ecoul>
-3.66531348228455

> <r_i_glide_erotb>
0.482147135928592

> <r_i_glide_esite>
-0.0233617745811337

> <r_i_glide_emodel>
-46.2357624595052

> <r_i_glide_energy>
-39.6741139888763

> <r_i_glide_einternal>
18.206356048584

> <i_i_glide_confnum>
73

> <i_i_glide_posenum>
399

> <r_i_glide_eff_state_penalty>
0

> <s_user_duplicate_titles>
CHEMBL2695_lig258

> <s_m_subgroup_title>
dock_pv

> <s_m_subgroupid>
dock_pv

> <b_m_subgroup_collapsed>
1

$$$$
CHEMBL2695_lig88
                    3D
 Schrodinger Suite 2021-1.
 38 41  0  0  1  0            999 V2000
    9.5158    1.1682    4.8823 N   0  0  0  0  0  0
    9.1519    2.2765    5.5674 C   0  0  0  0  0  0
    9.9815    3.2299    6.0806 N   0  0  0  0  0  0
   10.8363    0.9166    4.7478 C   0  0  0  0  0  0
   11.7917    1.7923    5.2677 C   0  0  0  0  0  0
   11.2892    2.9712    5.9065 C   0  0  0  0  0  0
   12.3901    3.7435    6.2869 N   0  0  0  0  0  0
   13.5221    3.0400    5.9093 C   0  0  0  0  0  0
   13.2118    1.8426    5.3137 C   0  0  0  0  0  0
   12.4229    5.0122    6.9192 C   0  0  0  0  0  0
   11.4188    5.9650    6.7159 C   0  0  0  0  0  0
   11.5217    7.1945    7.3732 C   0  0  0  0  0  0
   12.5734    7.4220    8.2589 C   0  0  0  0  0  0
   13.5219    6.4163    8.4275 C   0  0  0  0  0  0
   13.4735    5.2384    7.7581 N   0  0  0  0  0  0
    7.7723    2.3624    5.7633 N   0  0  0  0  0  0
    6.9837    2.9704    6.7550 C   0  0  0  0  0  0
    5.5905    3.0595    6.5661 C   0  0  0  0  0  0
    4.7825    3.5558    7.5930 C   0  0  0  0  0  0
    5.3478    3.9626    8.7984 C   0  0  0  0  0  0
    6.7259    3.9116    8.9762 C   0  0  0  0  0  0
    7.5379    3.4088    7.9648 C   0  0  0  0  0  0
    4.9298    2.6137    5.2669 C   0  0  0  0  0  0
    7.5749    4.6033   10.7544 I   0  0  0  0  0  0
   11.1135    0.0154    4.2217 H   0  0  0  0  0  0
   14.4926    3.4663    6.1083 H   0  0  0  0  0  0
   13.9237    1.1233    4.9331 H   0  0  0  0  0  0
   10.5910    5.7750    6.0515 H   0  0  0  0  0  0
   10.7758    7.9592    7.2134 H   0  0  0  0  0  0
   12.6543    8.3551    8.7955 H   0  0  0  0  0  0
   14.3496    6.5490    9.1078 H   0  0  0  0  0  0
    7.2905    1.6076    5.2944 H   0  0  0  0  0  0
    3.7106    3.6220    7.4655 H   0  0  0  0  0  0
    4.7209    4.3482    9.5873 H   0  0  0  0  0  0
    8.5986    3.3408    8.1482 H   0  0  0  0  0  0
    5.3255    3.1857    4.4270 H   0  0  0  0  0  0
    5.1430    1.5620    5.0761 H   0  0  0  0  0  0
    3.8451    2.7422    5.2856 H   0  0  0  0  0  0
  1  2  2  0  0  0
  1  4  1  0  0  0
  2  3  1  0  0  0
  2 16  1  0  0  0
  3  6  2  0  0  0
  4  5  2  0  0  0
  4 25  1  0  0  0
  5  9  1  0  0  0
  5  6  1  0  0  0
  6  7  1  0  0  0
  7  8  1  0  0  0
  7 10  1  0  0  0
  8  9  2  0  0  0
  8 26  1  0  0  0
  9 27  1  0  0  0
 10 15  1  0  0  0
 10 11  2  0  0  0
 11 12  1  0  0  0
 11 28  1  0  0  0
 12 13  2  0  0  0
 12 29  1  0  0  0
 13 14  1  0  0  0
 13 30  1  0  0  0
 14 15  2  0  0  0
 14 31  1  0  0  0
 16 17  1  0  0  0
 16 32  1  0  0  0
 17 18  2  0  0  0
 17 22  1  0  0  0
 18 19  1  0  0  0
 18 23  1  0  0  0
 19 20  2  0  0  0
 19 33  1  0  0  0
 20 21  1  0  0  0
 20 34  1  0  0  0
 21 22  2  0  0  0
 21 24  1  0  0  0
 22 35  1  0  0  0
 23 36  1  0  0  0
 23 37  1  0  0  0
 23 38  1  0  0  0
M  END
> <s_m_entry_id>
47718

> <s_m_entry_name>
dock_pv.251

> <s_m_Source_Path>
/home/csk/Desktop/cluster/DUD-E-result/fak1

> <s_m_Source_File>
dock_pv.maegz

> <i_m_Source_File_Index>
251

> <chembl_id>
CHEMBL383834

> <chembl_pref_name>
None

> <i_lp_mmshare_version>
53161

> <i_f3d_flags>
0

> <r_lp_tautomer_probability>
1

> <s_lp_Force_Field>
OPLS_2005

> <r_lp_Energy>
11.305088

> <b_lp_Chiralities_Consistent>
1

> <s_lp_Variant>
CHEMBL2695_lig88-1

> <s_i_glide_gridfile>
glide-grid_3bz3

> <i_i_glide_lignum>
110

> <i_i_glide_rotatable_bonds>
3

> <r_i_docking_score>
-7.18626501607361

> <r_i_glide_ligand_efficiency>
-0.299427709003067

> <r_i_glide_ligand_efficiency_sa>
-0.86369896838065

> <r_i_glide_ligand_efficiency_ln>
-1.7200029745608

> <r_i_glide_gscore>
-7.18626501607361

> <r_i_glide_lipo>
-3.34611065128369

> <r_i_glide_hbond>
0

> <r_i_glide_metal>
0

> <r_i_glide_rewards>
-1.86405608890501

> <r_i_glide_evdw>
-43.8645858764648

> <r_i_glide_ecoul>
-0.459742844104767

> <r_i_glide_erotb>
0.326290100549852

> <r_i_glide_esite>
-0.040197655995804

> <r_i_glide_emodel>
-58.902522571705

> <r_i_glide_energy>
-44.3243287205696

> <r_i_glide_einternal>
7.88500785827637

> <i_i_glide_confnum>
17

> <i_i_glide_posenum>
97

> <r_i_glide_eff_state_penalty>
0

> <s_user_duplicate_titles>
CHEMBL2695_lig88

> <s_m_subgroup_title>
dock_pv

> <s_m_subgroupid>
dock_pv

> <b_m_subgroup_collapsed>
1

$$$$
CHEMBL2695_lig2043
                    3D
 Schrodinger Suite 2021-1.
 32 34  0  0  1  0            999 V2000
   11.5567    7.4099    7.8889 I   0  0  0  0  0  0
    8.5181    2.3102    6.7113 O   0  0  0  0  0  0
    7.4654    4.7107    4.3104 O   0  0  0  0  0  0
    6.4009    1.9630    4.5059 O   0  0  0  0  0  0
    5.4793    1.9639    8.6775 O   0  0  0  0  0  0
    9.9413    3.9808    5.9920 N   0  0  0  0  0  0
    9.8583    5.1543    6.6656 N   0  0  0  0  0  0
   11.7336    2.3640    5.5200 N   0  0  0  0  0  0
   13.9229    3.1427    6.2614 N   0  0  0  0  0  0
   14.1812    5.1629    7.4241 N   0  0  0  0  0  0
    8.7657    3.2006    5.6748 C   0  0  2  0  0  0
   11.2516    3.5359    5.9657 C   0  0  0  0  0  0
   12.0147    4.5552    6.5760 C   0  0  0  0  0  0
    7.4561    3.9654    5.5119 C   0  0  2  0  0  0
   11.0693    5.5532    6.9361 C   0  0  0  0  0  0
    6.4973    2.7761    5.6741 C   0  0  2  0  0  0
    7.1314    2.0024    6.8468 C   0  0  2  0  0  0
   13.3796    4.2977    6.7084 C   0  0  0  0  0  0
   13.0779    2.2441    5.6923 C   0  0  0  0  0  0
    6.7427    2.4592    8.2755 C   0  0  0  0  0  0
    7.5210    4.0829    3.5844 H   0  0  0  0  0  0
    6.3075    1.0248    4.7518 H   0  0  0  0  0  0
    5.6124    1.2416    9.3067 H   0  0  0  0  0  0
   13.7676    6.0084    7.7857 H   0  0  0  0  0  0
   15.1720    5.0018    7.5466 H   0  0  0  0  0  0
    9.0163    2.6248    4.7790 H   0  0  0  0  0  0
    7.3279    4.6446    6.3568 H   0  0  0  0  0  0
    5.4970    3.1207    5.9403 H   0  0  0  0  0  0
    7.0090    0.9233    6.7547 H   0  0  0  0  0  0
   13.5220    1.3233    5.3447 H   0  0  0  0  0  0
    6.7626    3.5452    8.3681 H   0  0  0  0  0  0
    7.4725    2.0777    8.9913 H   0  0  0  0  0  0
  1 15  1  0  0  0
  2 11  1  0  0  0
  2 17  1  0  0  0
  3 14  1  0  0  0
  3 21  1  0  0  0
  4 16  1  0  0  0
  4 22  1  0  0  0
  5 20  1  0  0  0
  5 23  1  0  0  0
  6  7  1  0  0  0
  6 11  1  0  0  0
  6 12  1  0  0  0
  7 15  2  0  0  0
  8 12  1  0  0  0
  8 19  2  0  0  0
  9 18  2  0  0  0
  9 19  1  0  0  0
 10 18  1  0  0  0
 10 24  1  0  0  0
 10 25  1  0  0  0
 11 14  1  0  0  0
 11 26  1  0  0  0
 12 13  2  0  0  0
 13 15  1  0  0  0
 13 18  1  0  0  0
 14 16  1  0  0  0
 14 27  1  0  0  0
 16 17  1  0  0  0
 16 28  1  0  0  0
 17 20  1  0  0  0
 17 29  1  0  0  0
 19 30  1  0  0  0
 20 31  1  0  0  0
 20 32  1  0  0  0
M  END
> <s_m_entry_id>
47719

> <s_m_entry_name>
dock_pv.252

> <s_m_Source_Path>
/home/csk/Desktop/cluster/DUD-E-result/fak1

> <s_m_Source_File>
dock_pv.maegz

> <i_m_Source_File_Index>
252

> <chembl_id>
CHEMBL2001288

> <chembl_pref_name>
None

> <i_lp_mmshare_version>
53161

> <i_f3d_flags>
0

> <r_lp_tautomer_probability>
1

> <s_lp_Force_Field>
OPLS_2005

> <r_lp_Energy>
30.536128

> <b_lp_Chiralities_Consistent>
1

> <s_lp_Variant>
CHEMBL2695_lig2043-1

> <s_i_glide_gridfile>
glide-grid_3bz3

> <i_i_glide_lignum>
2424

> <i_i_glide_rotatable_bonds>
5

> <r_i_docking_score>
-7.18566375931828

> <r_i_glide_ligand_efficiency>
-0.359283187965914

> <r_i_glide_ligand_efficiency_sa>
-0.975244613787199

> <r_i_glide_ligand_efficiency_ln>
-1.79833463990494

> <r_i_glide_gscore>
-7.18566375931828

> <r_i_glide_lipo>
-1.4334669772302

> <r_i_glide_hbond>
-0.564534917408208

> <r_i_glide_metal>
0

> <r_i_glide_rewards>
-2.42497453937127

> <r_i_glide_evdw>
-25.5018329620361

> <r_i_glide_ecoul>
-11.5016250610352

> <r_i_glide_erotb>
0.252745181338646

> <r_i_glide_esite>
-0.0150970993901674

> <r_i_glide_emodel>
-49.4728111706306

> <r_i_glide_energy>
-37.0034580230713

> <r_i_glide_einternal>
8.318528175354

> <i_i_glide_confnum>
24

> <i_i_glide_posenum>
6

> <r_i_glide_eff_state_penalty>
0

> <s_user_duplicate_titles>
CHEMBL2695_lig2043

> <s_m_subgroup_title>
dock_pv

> <s_m_subgroupid>
dock_pv

> <b_m_subgroup_collapsed>
1

$$$$
CHEMBL2695_lig711
                    3D
 Schrodinger Suite 2021-1.
 57 61  0  0  1  0            999 V2000
    5.0213    5.2394    5.3237 C   0  0  0  0  0  0
    4.9157    3.8348    5.6877 N   0  0  0  0  0  0
    5.4581    3.5258    6.9383 C   0  0  0  0  0  0
    4.7997    3.9307    8.1066 C   0  0  0  0  0  0
    5.2944    3.5618    9.3537 C   0  0  0  0  0  0
    6.4296    2.7636    9.4308 C   0  0  0  0  0  0
    7.0823    2.3560    8.2739 C   0  0  0  0  0  0
    6.6452    2.7771    7.0147 C   0  0  0  0  0  0
    7.4246    2.4244    5.7348 C   0  0  0  0  0  0
    8.8412    2.0970    5.9173 N   0  0  0  0  0  0
    9.8285    3.0691    6.1888 C   0  0  0  0  0  0
    9.5470    4.3465    6.7072 C   0  0  0  0  0  0
   10.5631    5.2698    6.9744 C   0  0  0  0  0  0
   11.8924    4.9490    6.7180 C   0  0  0  0  0  0
   12.1642    3.7129    6.2088 N   0  0  0  0  0  0
   13.3724    3.2310    5.8555 N   0  0  0  0  0  0
   13.0430    2.1066    5.2501 C   0  0  0  0  0  0
   13.9216    1.5624    4.3526 N   0  0  0  0  0  0
   13.6786    0.6590    3.3009 C   0  0  0  0  0  0
   14.7851    0.0376    2.7347 C   0  0  0  0  0  0
   14.6499   -0.9883    1.8037 C   0  0  0  0  0  0
   13.3668   -1.4048    1.3961 C   0  0  0  0  0  0
   13.1413   -2.4844    0.5142 C   0  0  0  0  0  0
   11.9195   -2.8781    0.0863 N   0  0  0  0  0  0
   10.8448   -2.1963    0.5528 C   0  0  0  0  0  0
   10.9370   -1.1311    1.4496 C   0  0  0  0  0  0
   12.2208   -0.7241    1.8977 C   0  0  0  0  0  0
   12.4010    0.3127    2.8417 C   0  0  0  0  0  0
   11.8089    1.6693    5.4256 N   0  0  0  0  0  0
   11.1842    2.7579    5.9353 C   0  0  0  0  0  0
    3.5148    2.9061    5.0837 S   0  0  0  0  0  0
    3.3989    3.1628    3.6446 O   0  0  0  0  0  0
    3.6586    1.5354    5.5822 O   0  0  0  0  0  0
    2.0483    3.6790    5.9751 C   0  0  0  0  0  0
    6.0329    5.6136    5.4870 H   0  0  0  0  0  0
    4.7936    5.3582    4.2709 H   0  0  0  0  0  0
    4.3271    5.8534    5.8987 H   0  0  0  0  0  0
    3.9035    4.5313    8.0561 H   0  0  0  0  0  0
    4.7870    3.8746   10.2559 H   0  0  0  0  0  0
    6.8076    2.4399   10.3819 H   0  0  0  0  0  0
    7.9222    1.6957    8.3660 H   0  0  0  0  0  0
    6.9318    1.5834    5.2464 H   0  0  0  0  0  0
    7.3651    3.2551    5.0305 H   0  0  0  0  0  0
    9.1532    1.2639    5.4348 H   0  0  0  0  0  0
    8.5280    4.6352    6.9170 H   0  0  0  0  0  0
   10.3213    6.2402    7.3776 H   0  0  0  0  0  0
   12.7296    5.6111    6.8866 H   0  0  0  0  0  0
   14.9003    1.6284    4.5877 H   0  0  0  0  0  0
   15.7777    0.3033    3.0718 H   0  0  0  0  0  0
   15.5270   -1.5012    1.4373 H   0  0  0  0  0  0
   13.9807   -3.0569    0.1468 H   0  0  0  0  0  0
    9.8783   -2.5317    0.2037 H   0  0  0  0  0  0
   10.0506   -0.6286    1.8116 H   0  0  0  0  0  0
   11.5106    0.7872    3.2180 H   0  0  0  0  0  0
    1.1366    3.3258    5.4971 H   0  0  0  0  0  0
    2.0698    3.3641    7.0164 H   0  0  0  0  0  0
    2.1086    4.7616    5.9092 H   0  0  0  0  0  0
  1  2  1  0  0  0
  1 35  1  0  0  0
  1 36  1  0  0  0
  1 37  1  0  0  0
  2  3  1  0  0  0
  2 31  1  0  0  0
  3  4  2  0  0  0
  3  8  1  0  0  0
  4  5  1  0  0  0
  4 38  1  0  0  0
  5  6  2  0  0  0
  5 39  1  0  0  0
  6  7  1  0  0  0
  6 40  1  0  0  0
  7  8  2  0  0  0
  7 41  1  0  0  0
  8  9  1  0  0  0
  9 10  1  0  0  0
  9 42  1  0  0  0
  9 43  1  0  0  0
 10 11  1  0  0  0
 10 44  1  0  0  0
 11 12  2  0  0  0
 11 30  1  0  0  0
 12 13  1  0  0  0
 12 45  1  0  0  0
 13 14  2  0  0  0
 13 46  1  0  0  0
 14 15  1  0  0  0
 14 47  1  0  0  0
 15 16  1  0  0  0
 15 30  1  0  0  0
 16 17  2  0  0  0
 17 18  1  0  0  0
 17 29  1  0  0  0
 18 19  1  0  0  0
 18 48  1  0  0  0
 19 20  2  0  0  0
 19 28  1  0  0  0
 20 21  1  0  0  0
 20 49  1  0  0  0
 21 22  2  0  0  0
 21 50  1  0  0  0
 22 23  1  0  0  0
 22 27  1  0  0  0
 23 24  2  0  0  0
 23 51  1  0  0  0
 24 25  1  0  0  0
 25 26  2  0  0  0
 25 52  1  0  0  0
 26 27  1  0  0  0
 26 53  1  0  0  0
 27 28  2  0  0  0
 28 54  1  0  0  0
 29 30  2  0  0  0
 31 32  2  0  0  0
 31 33  2  0  0  0
 31 34  1  0  0  0
 34 55  1  0  0  0
 34 56  1  0  0  0
 34 57  1  0  0  0
M  END
> <s_m_entry_id>
47720

> <s_m_entry_name>
dock_pv.253

> <s_m_Source_Path>
/home/csk/Desktop/cluster/DUD-E-result/fak1

> <s_m_Source_File>
dock_pv.maegz

> <i_m_Source_File_Index>
253

> <chembl_id>
CHEMBL3642421

> <chembl_pref_name>
None

> <i_lp_mmshare_version>
53161

> <i_f3d_flags>
0

> <r_lp_tautomer_probability>
1

> <s_lp_Force_Field>
OPLS_2005

> <r_lp_Energy>
24.580882

> <b_lp_Chiralities_Consistent>
1

> <s_lp_Variant>
CHEMBL2695_lig711-1

> <s_i_glide_gridfile>
glide-grid_3bz3

> <i_i_glide_lignum>
766

> <i_i_glide_rotatable_bonds>
7

> <r_i_docking_score>
-7.1855357729521

> <r_i_glide_ligand_efficiency>
-0.211339287439768

> <r_i_glide_ligand_efficiency_sa>
-0.684657248858663

> <r_i_glide_ligand_efficiency_ln>
-1.58748639969668

> <r_i_glide_gscore>
-7.1855357729521

> <r_i_glide_lipo>
-2.50122127327116

> <r_i_glide_hbond>
-0.182231907427757

> <r_i_glide_metal>
0

> <r_i_glide_rewards>
-1.58431928753401

> <r_i_glide_evdw>
-43.0657424926758

> <r_i_glide_ecoul>
-8.3402214050293

> <r_i_glide_erotb>
0.541225604878733

> <r_i_glide_esite>
-0.0546685742097225

> <r_i_glide_emodel>
-67.1142492886754

> <r_i_glide_energy>
-51.4059638977051

> <r_i_glide_einternal>
10.8795051574707

> <i_i_glide_confnum>
4

> <i_i_glide_posenum>
142

> <r_i_glide_eff_state_penalty>
0

> <s_user_duplicate_titles>
CHEMBL2695_lig711

> <s_m_subgroup_title>
dock_pv

> <s_m_subgroupid>
dock_pv

> <b_m_subgroup_collapsed>
1

$$$$
CHEMBL2695_lig2067
                    3D
 Schrodinger Suite 2021-1.
 48 52  0  0  1  0            999 V2000
   14.1551    3.1597    6.4692 F   0  0  0  0  0  0
   12.5738    7.3564    7.9407 F   0  0  0  0  0  0
    8.2237    2.3853   10.3125 O   0  0  0  0  0  0
   10.5234    0.7674    4.1846 N   0  0  0  0  0  0
   12.4661    1.6003    4.9934 N   0  0  0  0  0  0
    8.7113    2.8644    6.6840 N   0  0  0  0  0  0
   11.8028   -0.8146    2.2552 N   0  0  0  0  0  0
    6.3578    3.2658    6.3244 N   0  0  0  0  0  0
    7.4375    4.3673    8.0203 N   0  0  0  0  0  0
   10.2022    1.7549    5.1224 C   0  0  0  0  0  0
   11.4718    2.3395    5.4511 C   0  0  0  0  0  0
   11.9176    0.7929    4.0611 C   0  0  0  0  0  0
    8.7919    2.1617    5.5228 C   0  0  0  0  0  0
   11.8323    3.6915    6.0646 C   0  0  0  0  0  0
   12.5276    0.0166    3.0447 C   0  0  0  0  0  0
    9.8084   -0.1094    3.4017 C   0  0  0  0  0  0
   13.1158    4.0170    6.5657 C   0  0  0  0  0  0
    7.6217    1.9395    4.7805 C   0  0  0  0  0  0
   10.8844    4.7256    6.0655 C   0  0  0  0  0  0
    7.5167    3.4341    6.9972 C   0  0  0  0  0  0
    7.9667    3.7686   10.3263 C   0  0  0  0  0  0
   10.4694   -0.8863    2.4548 C   0  0  0  0  0  0
   13.3519    5.2305    7.2130 C   0  0  0  0  0  0
    6.4219    2.4826    5.2289 C   0  0  0  0  0  0
   11.1215    5.9377    6.7085 C   0  0  0  0  0  0
   12.3464    6.1828    7.3100 C   0  0  0  0  0  0
    7.9178    4.4934   11.6466 C   0  0  0  0  0  0
    6.6461    4.2596   10.8756 C   0  0  0  0  0  0
    8.4322    4.5053    9.0714 C   0  0  0  0  0  0
   14.0224    0.0255    2.7688 C   0  0  0  0  0  0
    7.6278    1.9728    9.6781 H   0  0  0  0  0  0
    6.5131    4.7217    8.2143 H   0  0  0  0  0  0
    8.7432   -0.1717    3.5090 H   0  0  0  0  0  0
    7.5570    1.3316    3.9092 H   0  0  0  0  0  0
    9.9402    4.6108    5.5594 H   0  0  0  0  0  0
    9.9211   -1.5670    1.8189 H   0  0  0  0  0  0
   14.3224    5.4342    7.6353 H   0  0  0  0  0  0
    5.4964    2.2995    4.7021 H   0  0  0  0  0  0
   10.3528    6.6907    6.7090 H   0  0  0  0  0  0
    8.2206    5.5359   11.7116 H   0  0  0  0  0  0
    7.9220    3.9704   12.6042 H   0  0  0  0  0  0
    5.9281    3.5628   11.2967 H   0  0  0  0  0  0
    6.1743    5.1617   10.4913 H   0  0  0  0  0  0
    8.5521    5.5689    9.2736 H   0  0  0  0  0  0
    9.4158    4.1610    8.7532 H   0  0  0  0  0  0
   14.3129    0.9894    2.3513 H   0  0  0  0  0  0
   14.5843   -0.1204    3.6922 H   0  0  0  0  0  0
   14.3254   -0.7555    2.0697 H   0  0  0  0  0  0
  1 17  1  0  0  0
  2 26  1  0  0  0
  3 21  1  0  0  0
  3 31  1  0  0  0
  4 10  1  0  0  0
  4 12  1  0  0  0
  4 16  1  0  0  0
  5 11  1  0  0  0
  5 12  2  0  0  0
  6 13  1  0  0  0
  6 20  2  0  0  0
  7 15  2  0  0  0
  7 22  1  0  0  0
  8 20  1  0  0  0
  8 24  2  0  0  0
  9 20  1  0  0  0
  9 29  1  0  0  0
  9 32  1  0  0  0
 10 11  2  0  0  0
 10 13  1  0  0  0
 11 14  1  0  0  0
 12 15  1  0  0  0
 13 18  2  0  0  0
 14 17  1  0  0  0
 14 19  2  0  0  0
 15 30  1  0  0  0
 16 22  2  0  0  0
 16 33  1  0  0  0
 17 23  2  0  0  0
 18 24  1  0  0  0
 18 34  1  0  0  0
 19 25  1  0  0  0
 19 35  1  0  0  0
 21 27  1  0  0  0
 21 28  1  0  0  0
 21 29  1  0  0  0
 22 36  1  0  0  0
 23 26  1  0  0  0
 23 37  1  0  0  0
 24 38  1  0  0  0
 25 26  2  0  0  0
 25 39  1  0  0  0
 27 28  1  0  0  0
 27 40  1  0  0  0
 27 41  1  0  0  0
 28 42  1  0  0  0
 28 43  1  0  0  0
 29 44  1  0  0  0
 29 45  1  0  0  0
 30 46  1  0  0  0
 30 47  1  0  0  0
 30 48  1  0  0  0
M  END
> <s_m_entry_id>
47721

> <s_m_entry_name>
dock_pv.254

> <s_m_Source_Path>
/home/csk/Desktop/cluster/DUD-E-result/fak1

> <s_m_Source_File>
dock_pv.maegz

> <i_m_Source_File_Index>
254

> <chembl_id>
CHEMBL1965589

> <chembl_pref_name>
None

> <i_lp_mmshare_version>
53161

> <i_f3d_flags>
0

> <r_lp_tautomer_probability>
0.999999987636

> <s_lp_Force_Field>
OPLS_2005

> <r_lp_Energy>
26.908174

> <b_lp_Chiralities_Consistent>
1

> <s_lp_Variant>
CHEMBL2695_lig2067-1

> <s_i_glide_gridfile>
glide-grid_3bz3

> <i_i_glide_lignum>
2482

> <i_i_glide_rotatable_bonds>
6

> <r_i_docking_score>
-7.18365453258223

> <r_i_glide_ligand_efficiency>
-0.239455151086074

> <r_i_glide_ligand_efficiency_sa>
-0.744042828329197

> <r_i_glide_ligand_efficiency_ln>
-1.63220458198792

> <r_i_glide_gscore>
-7.18365453258223

> <r_i_glide_lipo>
-3.55416489947831

> <r_i_glide_hbond>
0

> <r_i_glide_metal>
0

> <r_i_glide_rewards>
-1.85756591324076

> <r_i_glide_evdw>
-31.2283897399902

> <r_i_glide_ecoul>
-5.33655977249146

> <r_i_glide_erotb>
0.58997973301007

> <r_i_glide_esite>
0

> <r_i_glide_emodel>
-38.6795498306908

> <r_i_glide_energy>
-36.5649495124817

> <r_i_glide_einternal>
7.99879312515259

> <i_i_glide_confnum>
209

> <i_i_glide_posenum>
278

> <r_i_glide_eff_state_penalty>
0

> <s_user_duplicate_titles>
CHEMBL2695_lig2067

> <s_m_subgroup_title>
dock_pv

> <s_m_subgroupid>
dock_pv

> <b_m_subgroup_collapsed>
1

$$$$
CHEMBL2695_lig1897
                    3D
 Schrodinger Suite 2021-1.
 30 32  0  0  1  0            999 V2000
    9.4610    5.1629    9.9052 O   0  0  0  0  0  0
    7.8499    3.6125   10.3474 O   0  0  0  0  0  0
    9.1545    4.1685    7.0393 N   0  0  0  0  0  0
    8.5969    3.7736    5.8735 N   0  0  0  0  0  0
    4.0354    2.3461    4.9711 N   0  0  0  0  0  0
    8.2755    4.1115    8.1341 C   0  0  0  0  0  0
    7.0199    3.7380    7.5583 C   0  0  0  0  0  0
    7.3075    3.4888    6.1899 C   0  0  0  0  0  0
   10.5366    4.5084    6.9683 C   0  0  0  0  0  0
    8.5967    4.3878    9.5124 C   0  0  0  0  0  0
    5.7046    3.5657    8.0318 C   0  0  0  0  0  0
    6.3172    3.0019    5.3297 C   0  0  0  0  0  0
    5.0268    2.8276    5.8213 C   0  0  0  0  0  0
    4.7218    3.1217    7.1476 C   0  0  0  0  0  0
   11.4428    3.6622    6.3090 C   0  0  0  0  0  0
   11.0107    5.6879    7.5479 C   0  0  0  0  0  0
   12.8047    3.9635    6.3060 C   0  0  0  0  0  0
   12.3690    5.9833    7.5591 C   0  0  0  0  0  0
   13.2628    5.1065    6.9567 C   0  0  0  0  0  0
    7.2656    3.0292    9.8577 H   0  0  0  0  0  0
    3.1534    2.0867    5.3865 H   0  0  0  0  0  0
    4.3578    1.8311    4.1639 H   0  0  0  0  0  0
    5.4450    3.7741    9.0601 H   0  0  0  0  0  0
    6.5565    2.7607    4.3091 H   0  0  0  0  0  0
    3.7130    2.9891    7.5100 H   0  0  0  0  0  0
   11.1027    2.7546    5.8298 H   0  0  0  0  0  0
   10.3287    6.3629    8.0275 H   0  0  0  0  0  0
   13.5037    3.2985    5.8205 H   0  0  0  0  0  0
   12.7291    6.8803    8.0417 H   0  0  0  0  0  0
   14.3204    5.3277    6.9812 H   0  0  0  0  0  0
  1 10  2  0  0  0
  2 10  1  0  0  0
  2 20  1  0  0  0
  3  4  1  0  0  0
  3  6  1  0  0  0
  3  9  1  0  0  0
  4  8  2  0  0  0
  5 13  1  0  0  0
  5 21  1  0  0  0
  5 22  1  0  0  0
  6  7  2  0  0  0
  6 10  1  0  0  0
  7  8  1  0  0  0
  7 11  1  0  0  0
  8 12  1  0  0  0
  9 15  2  0  0  0
  9 16  1  0  0  0
 11 14  2  0  0  0
 11 23  1  0  0  0
 12 13  2  0  0  0
 12 24  1  0  0  0
 13 14  1  0  0  0
 14 25  1  0  0  0
 15 17  1  0  0  0
 15 26  1  0  0  0
 16 18  2  0  0  0
 16 27  1  0  0  0
 17 19  2  0  0  0
 17 28  1  0  0  0
 18 19  1  0  0  0
 18 29  1  0  0  0
 19 30  1  0  0  0
M  END
> <s_m_entry_id>
47722

> <s_m_entry_name>
dock_pv.255

> <s_m_Source_Path>
/home/csk/Desktop/cluster/DUD-E-result/fak1

> <s_m_Source_File>
dock_pv.maegz

> <i_m_Source_File_Index>
255

> <chembl_id>
CHEMBL1974574

> <chembl_pref_name>
None

> <i_lp_mmshare_version>
53161

> <i_f3d_flags>
0

> <r_lp_tautomer_probability>
1

> <s_lp_Force_Field>
OPLS_2005

> <r_lp_Energy>
36.187162

> <b_lp_Chiralities_Consistent>
1

> <s_lp_Variant>
CHEMBL2695_lig1897-1

> <s_i_glide_gridfile>
glide-grid_3bz3

> <i_i_glide_lignum>
2207

> <i_i_glide_rotatable_bonds>
3

> <r_i_docking_score>
-7.13853500689137

> <r_i_glide_ligand_efficiency>
-0.375712368783757

> <r_i_glide_ligand_efficiency_sa>
-1.00255150332382

> <r_i_glide_ligand_efficiency_ln>
-1.80977194592067

> <r_i_glide_gscore>
-7.13853500689137

> <r_i_glide_lipo>
-2.25568357677354

> <r_i_glide_hbond>
-0.273812423706705

> <r_i_glide_metal>
0

> <r_i_glide_rewards>
-2.93541315079799

> <r_i_glide_evdw>
-28.635612487793

> <r_i_glide_ecoul>
-5.158362865448

> <r_i_glide_erotb>
0.547704957638241

> <r_i_glide_esite>
-0.0157957590445315

> <r_i_glide_emodel>
-48.0259567156338

> <r_i_glide_energy>
-33.793975353241

> <r_i_glide_einternal>
0.731396079063416

> <i_i_glide_confnum>
5

> <i_i_glide_posenum>
382

> <r_i_glide_eff_state_penalty>
0

> <s_user_duplicate_titles>
CHEMBL2695_lig1897

> <s_m_subgroup_title>
dock_pv

> <s_m_subgroupid>
dock_pv

> <b_m_subgroup_collapsed>
1

$$$$
CHEMBL2695_lig2133
                    3D
 Schrodinger Suite 2021-1.
 46 49  0  0  1  0            999 V2000
    5.5252    2.6500    5.0438 C   0  0  0  0  0  0
    6.7446    2.3630    4.7090 N   0  0  0  0  0  0
    7.5064    2.7445    5.7108 C   0  0  0  0  0  0
    6.7185    3.2495    6.7757 C   0  0  0  0  0  0
    5.4061    3.2038    6.2923 N   0  0  0  0  0  0
    8.7209    4.8681    9.4041 C   0  0  0  0  0  0
    8.3059    4.4005    8.1964 N   0  0  0  0  0  0
    7.1287    3.7207    8.1490 C   0  0  0  0  0  0
    6.4108    3.4573    9.3262 C   0  0  0  0  0  0
    6.9005    3.9954   10.5177 C   0  0  0  0  0  0
    8.0464    4.7194   10.5716 N   0  0  0  0  0  0
    9.9136    5.5632    9.5090 O   0  0  0  0  0  0
   10.7637    5.7558    8.3779 C   0  0  0  0  0  0
    8.9850    2.5040    5.5811 C   0  0  0  0  0  0
    9.9356    3.4781    5.8918 C   0  0  0  0  0  0
   11.2948    3.1693    5.8910 C   0  0  0  0  0  0
   11.7124    1.8997    5.5090 C   0  0  0  0  0  0
   10.7845    0.9518    5.0909 C   0  0  0  0  0  0
    9.4269    1.2602    5.1178 C   0  0  0  0  0  0
   13.0304    1.6002    5.5063 F   0  0  0  0  0  0
    1.7077    5.3293    6.7085 N   0  0  2  0  0  0
    2.8614    5.8269    7.4473 C   0  0  0  0  0  0
    4.1656    5.2340    6.8713 C   0  0  0  0  0  0
    4.1542    3.6964    6.9182 C   0  0  0  0  0  0
    2.8629    3.1973    6.2146 C   0  0  0  0  0  0
    1.6030    3.8721    6.8006 C   0  0  0  0  0  0
    4.6687    2.4670    4.4174 H   0  0  0  0  0  0
    5.5302    2.8384    9.3535 H   0  0  0  0  0  0
    6.3787    3.8412   11.4524 H   0  0  0  0  0  0
   11.6693    6.2660    8.7053 H   0  0  0  0  0  0
   10.3221    6.3622    7.5914 H   0  0  0  0  0  0
   11.0717    4.8167    7.9314 H   0  0  0  0  0  0
    9.6216    4.4806    6.1293 H   0  0  0  0  0  0
   12.0323    3.9142    6.1471 H   0  0  0  0  0  0
   11.1164   -0.0194    4.7570 H   0  0  0  0  0  0
    8.7027    0.5244    4.7972 H   0  0  0  0  0  0
    1.8736    5.5631    5.7308 H   0  0  0  0  0  0
    2.7217    5.5408    8.4872 H   0  0  0  0  0  0
    2.8764    6.9169    7.4034 H   0  0  0  0  0  0
    4.9752    5.5631    7.5096 H   0  0  0  0  0  0
    4.4102    5.6356    5.8865 H   0  0  0  0  0  0
    4.1692    3.3171    7.9327 H   0  0  0  0  0  0
    2.8703    3.2907    5.1293 H   0  0  0  0  0  0
    2.7589    2.1296    6.4102 H   0  0  0  0  0  0
    1.4523    3.5804    7.8414 H   0  0  0  0  0  0
    0.7171    3.5561    6.2484 H   0  0  0  0  0  0
  1  2  2  0  0  0
  1  5  1  0  0  0
  1 27  1  0  0  0
  2  3  1  0  0  0
  3  4  2  0  0  0
  3 14  1  0  0  0
  4  5  1  0  0  0
  4  8  1  0  0  0
  5 24  1  0  0  0
  6  7  1  0  0  0
  6 11  2  0  0  0
  6 12  1  0  0  0
  7  8  2  0  0  0
  8  9  1  0  0  0
  9 10  2  0  0  0
  9 28  1  0  0  0
 10 11  1  0  0  0
 10 29  1  0  0  0
 12 13  1  0  0  0
 13 30  1  0  0  0
 13 31  1  0  0  0
 13 32  1  0  0  0
 14 15  1  0  0  0
 14 19  2  0  0  0
 15 16  2  0  0  0
 15 33  1  0  0  0
 16 17  1  0  0  0
 16 34  1  0  0  0
 17 18  2  0  0  0
 17 20  1  0  0  0
 18 19  1  0  0  0
 18 35  1  0  0  0
 19 36  1  0  0  0
 21 22  1  0  0  0
 21 26  1  0  0  0
 21 37  1  0  0  0
 22 23  1  0  0  0
 22 38  1  0  0  0
 22 39  1  0  0  0
 23 24  1  0  0  0
 23 40  1  0  0  0
 23 41  1  0  0  0
 24 25  1  0  0  0
 24 42  1  0  0  0
 25 26  1  0  0  0
 25 43  1  0  0  0
 25 44  1  0  0  0
 26 45  1  0  0  0
 26 46  1  0  0  0
M  END
> <s_m_entry_id>
47723

> <s_m_entry_name>
dock_pv.256

> <s_m_Source_Path>
/home/csk/Desktop/cluster/DUD-E-result/fak1

> <s_m_Source_File>
dock_pv.maegz

> <i_m_Source_File_Index>
256

> <chembl_id>
CHEMBL95692

> <chembl_pref_name>
SB-242235

> <i_lp_mmshare_version>
53161

> <i_f3d_flags>
0

> <r_lp_tautomer_probability>
1

> <s_lp_Force_Field>
OPLS_2005

> <r_lp_Energy>
27.8208

> <b_lp_Chiralities_Consistent>
1

> <s_lp_Variant>
CHEMBL2695_lig2133-1

> <s_i_glide_gridfile>
glide-grid_3bz3

> <i_i_glide_lignum>
2582

> <i_i_glide_rotatable_bonds>
4

> <r_i_docking_score>
-7.13439804073274

> <r_i_glide_ligand_efficiency>
-0.274399924643567

> <r_i_glide_ligand_efficiency_sa>
-0.812908697045001

> <r_i_glide_ligand_efficiency_ln>
-1.67548996999672

> <r_i_glide_gscore>
-7.13439804073274

> <r_i_glide_lipo>
-2.34368779408052

> <r_i_glide_hbond>
-0.608

> <r_i_glide_metal>
0

> <r_i_glide_rewards>
-1.79565269879749

> <r_i_glide_evdw>
-36.6691398620605

> <r_i_glide_ecoul>
-6.44988393783569

> <r_i_glide_erotb>
0.458726367842866

> <r_i_glide_esite>
-0.0448443319192267

> <r_i_glide_emodel>
-59.6206349450911

> <r_i_glide_energy>
-43.1190237998962

> <r_i_glide_einternal>
2.40418148040771

> <i_i_glide_confnum>
45

> <i_i_glide_posenum>
169

> <r_i_glide_eff_state_penalty>
0

> <s_user_duplicate_titles>
CHEMBL2695_lig2133

> <s_m_subgroup_title>
dock_pv

> <s_m_subgroupid>
dock_pv

> <b_m_subgroup_collapsed>
1

$$$$
CHEMBL2695_lig1960
                    3D
 Schrodinger Suite 2021-1.
 38 41  0  0  1  0            999 V2000
   10.5795    5.9491    9.1103 O   0  0  0  0  0  0
    7.7481    3.1520    6.2972 O   0  0  0  0  0  0
    6.5974    4.2269   10.8638 O   0  0  0  0  0  0
   10.1281    4.2504    5.4042 O   0  0  0  0  0  0
    5.6516    1.7827    7.9087 N   0  0  0  0  0  0
    4.5983    3.5418    8.8001 N   0  0  0  0  0  0
    7.1166    3.6862    8.5511 C   0  0  0  0  0  0
    9.2360    4.5213    7.6354 C   0  0  0  0  0  0
    8.0501    3.7629    7.4924 C   0  0  0  0  0  0
    9.4680    5.1630    8.8618 C   0  0  0  0  0  0
    5.7992    2.9854    8.4059 C   0  0  0  0  0  0
    7.4152    4.3094    9.7684 C   0  0  0  0  0  0
   10.2424    4.7163    6.5337 C   0  0  0  0  0  0
    8.5698    5.0512    9.9091 C   0  0  0  0  0  0
    4.3089    1.5293    7.9718 C   0  0  0  0  0  0
    3.6103    2.6206    8.5443 C   0  0  0  0  0  0
   11.5038    6.0851    8.1296 C   0  0  0  0  0  0
   11.3901    5.5267    6.9126 C   0  0  0  0  0  0
    3.6042    0.3912    7.5573 C   0  0  0  0  0  0
    2.2251    2.6100    8.7311 C   0  0  0  0  0  0
    2.2190    0.3768    7.7356 C   0  0  0  0  0  0
    1.5498    1.4604    8.3086 C   0  0  0  0  0  0
    8.2940    1.8445    6.1283 C   0  0  0  0  0  0
   12.6621    6.9309    8.6127 C   0  0  0  0  0  0
    5.8875    3.5849   10.7681 H   0  0  0  0  0  0
    4.5064    4.4701    9.1938 H   0  0  0  0  0  0
    8.7220    5.5626   10.8416 H   0  0  0  0  0  0
   12.1732    5.6819    6.1875 H   0  0  0  0  0  0
    4.1240   -0.4388    7.0991 H   0  0  0  0  0  0
    1.7015    3.4495    9.1639 H   0  0  0  0  0  0
    1.6531   -0.4844    7.4120 H   0  0  0  0  0  0
    0.4761    1.4124    8.4192 H   0  0  0  0  0  0
    7.9247    1.4206    5.1944 H   0  0  0  0  0  0
    9.3827    1.8573    6.0752 H   0  0  0  0  0  0
    8.0084    1.1651    6.9321 H   0  0  0  0  0  0
   13.4441    7.0040    7.8567 H   0  0  0  0  0  0
   12.3233    7.9394    8.8481 H   0  0  0  0  0  0
   13.1006    6.4925    9.5085 H   0  0  0  0  0  0
  1 10  1  0  0  0
  1 17  1  0  0  0
  2  9  1  0  0  0
  2 23  1  0  0  0
  3 12  1  0  0  0
  3 25  1  0  0  0
  4 13  2  0  0  0
  5 11  2  0  0  0
  5 15  1  0  0  0
  6 11  1  0  0  0
  6 16  1  0  0  0
  6 26  1  0  0  0
  7  9  1  0  0  0
  7 11  1  0  0  0
  7 12  2  0  0  0
  8  9  2  0  0  0
  8 10  1  0  0  0
  8 13  1  0  0  0
 10 14  2  0  0  0
 12 14  1  0  0  0
 13 18  1  0  0  0
 14 27  1  0  0  0
 15 16  1  0  0  0
 15 19  2  0  0  0
 16 20  2  0  0  0
 17 18  2  0  0  0
 17 24  1  0  0  0
 18 28  1  0  0  0
 19 21  1  0  0  0
 19 29  1  0  0  0
 20 22  1  0  0  0
 20 30  1  0  0  0
 21 22  2  0  0  0
 21 31  1  0  0  0
 22 32  1  0  0  0
 23 33  1  0  0  0
 23 34  1  0  0  0
 23 35  1  0  0  0
 24 36  1  0  0  0
 24 37  1  0  0  0
 24 38  1  0  0  0
M  END
> <s_m_entry_id>
47724

> <s_m_entry_name>
dock_pv.257

> <s_m_Source_Path>
/home/csk/Desktop/cluster/DUD-E-result/fak1

> <s_m_Source_File>
dock_pv.maegz

> <i_m_Source_File_Index>
257

> <chembl_id>
CHEMBL1972355

> <chembl_pref_name>
None

> <i_lp_mmshare_version>
53161

> <i_f3d_flags>
0

> <r_lp_tautomer_probability>
1

> <s_lp_Force_Field>
OPLS_2005

> <r_lp_Energy>
28.668871

> <b_lp_Chiralities_Consistent>
1

> <s_lp_Variant>
CHEMBL2695_lig1960-1

> <s_i_glide_gridfile>
glide-grid_3bz3

> <i_i_glide_lignum>
2290

> <i_i_glide_rotatable_bonds>
3

> <r_i_docking_score>
-7.13130298805305

> <r_i_glide_ligand_efficiency>
-0.29713762450221

> <r_i_glide_ligand_efficiency_sa>
-0.857093221612991

> <r_i_glide_ligand_efficiency_ln>
-1.70684803921235

> <r_i_glide_gscore>
-7.13130298805305

> <r_i_glide_lipo>
-2.39523209638816

> <r_i_glide_hbond>
-0.531342935836949

> <r_i_glide_metal>
0

> <r_i_glide_rewards>
-2.00422545414662

> <r_i_glide_evdw>
-36.5591621398926

> <r_i_glide_ecoul>
-3.68356609344482

> <r_i_glide_erotb>
0.17999051933003

> <r_i_glide_esite>
0

> <r_i_glide_emodel>
-57.2703999963978

> <r_i_glide_energy>
-40.2427282333374

> <r_i_glide_einternal>
0.139520898461342

> <i_i_glide_confnum>
2

> <i_i_glide_posenum>
187

> <r_i_glide_eff_state_penalty>
0

> <s_user_duplicate_titles>
CHEMBL2695_lig1960

> <s_m_subgroup_title>
dock_pv

> <s_m_subgroupid>
dock_pv

> <b_m_subgroup_collapsed>
1

$$$$
CHEMBL2695_lig1618
                    3D
 Schrodinger Suite 2021-1.
 43 45  0  0  1  0            999 V2000
    8.8947    3.3537    5.0652 O   0  0  0  0  0  0
    9.7141    4.5218    6.8499 N   0  0  0  0  0  0
   13.9216    6.1003    8.1019 N   0  0  0  0  0  0
   13.9496    4.2043    6.5971 N   0  0  0  0  0  0
    3.7952    1.1064    5.7070 N   0  0  0  0  0  0
   11.9183    5.3108    7.4195 C   0  0  0  0  0  0
   11.1014    4.4290    6.6864 C   0  0  0  0  0  0
   13.3259    5.1441    7.3108 C   0  0  0  0  0  0
   11.7047    6.3841    8.3488 C   0  0  0  0  0  0
    8.7313    3.9496    6.1306 C   0  0  0  0  0  0
   11.7386    3.4445    5.9114 C   0  0  0  0  0  0
    7.3246    4.0805    6.7405 C   0  0  2  0  0  0
   12.9489    6.8538    8.7174 C   0  0  0  0  0  0
   13.1310    3.3657    5.9081 C   0  0  0  0  0  0
    6.8438    2.6531    7.1305 C   0  0  0  0  0  0
    6.3710    4.7446    5.7074 C   0  0  0  0  0  0
    4.4378    3.3268    6.5972 C   0  0  1  0  0  0
    5.3970    2.7326    7.6648 C   0  0  0  0  0  0
    4.9380    4.7623    6.2850 C   0  0  0  0  0  0
    4.2490    2.4326    5.3316 C   0  0  2  0  0  0
    3.2472    2.9956    4.3087 C   0  0  0  0  0  0
    9.4191    5.1128    7.6104 H   0  0  0  0  0  0
   14.9180    6.2577    8.2255 H   0  0  0  0  0  0
    3.8021    0.5224    4.8817 H   0  0  0  0  0  0
    4.4919    0.6851    6.3095 H   0  0  0  0  0  0
   10.7630    6.7634    8.7088 H   0  0  0  0  0  0
   11.1747    2.7041    5.3634 H   0  0  0  0  0  0
    7.3948    4.7034    7.6355 H   0  0  0  0  0  0
   13.2325    7.6466    9.3946 H   0  0  0  0  0  0
   13.6238    2.5776    5.3579 H   0  0  0  0  0  0
    7.4538    2.2405    7.9363 H   0  0  0  0  0  0
    6.8298    1.9732    6.2763 H   0  0  0  0  0  0
    6.3295    4.1928    4.7674 H   0  0  0  0  0  0
    6.6473    5.7826    5.5258 H   0  0  0  0  0  0
    3.4629    3.4336    7.0767 H   0  0  0  0  0  0
    5.3793    3.3424    8.5697 H   0  0  0  0  0  0
    5.0715    1.7358    7.9645 H   0  0  0  0  0  0
    4.2761    5.2609    5.5784 H   0  0  0  0  0  0
    4.9186    5.3690    7.1911 H   0  0  0  0  0  0
    5.2059    2.3010    4.8248 H   0  0  0  0  0  0
    3.5982    3.9444    3.9085 H   0  0  0  0  0  0
    2.2665    3.1737    4.7519 H   0  0  0  0  0  0
    3.1109    2.3247    3.4595 H   0  0  0  0  0  0
  1 10  2  0  0  0
  2  7  1  0  0  0
  2 10  1  0  0  0
  2 22  1  0  0  0
  3  8  1  0  0  0
  3 13  1  0  0  0
  3 23  1  0  0  0
  4  8  1  0  0  0
  4 14  2  0  0  0
  5 20  1  0  0  0
  5 24  1  0  0  0
  5 25  1  0  0  0
  6  7  1  0  0  0
  6  8  2  0  0  0
  6  9  1  0  0  0
  7 11  2  0  0  0
  9 13  2  0  0  0
  9 26  1  0  0  0
 10 12  1  0  0  0
 11 14  1  0  0  0
 11 27  1  0  0  0
 12 15  1  0  0  0
 12 16  1  0  0  0
 12 28  1  0  0  0
 13 29  1  0  0  0
 14 30  1  0  0  0
 15 18  1  0  0  0
 15 31  1  0  0  0
 15 32  1  0  0  0
 16 19  1  0  0  0
 16 33  1  0  0  0
 16 34  1  0  0  0
 17 18  1  0  0  0
 17 19  1  0  0  0
 17 20  1  0  0  0
 17 35  1  0  0  0
 18 36  1  0  0  0
 18 37  1  0  0  0
 19 38  1  0  0  0
 19 39  1  0  0  0
 20 21  1  0  0  0
 20 40  1  0  0  0
 21 41  1  0  0  0
 21 42  1  0  0  0
 21 43  1  0  0  0
M  END
> <s_m_entry_id>
47725

> <s_m_entry_name>
dock_pv.258

> <s_m_Source_Path>
/home/csk/Desktop/cluster/DUD-E-result/fak1

> <s_m_Source_File>
dock_pv.maegz

> <i_m_Source_File_Index>
258

> <chembl_id>
CHEMBL2002992

> <chembl_pref_name>
None

> <i_lp_mmshare_version>
53161

> <i_f3d_flags>
0

> <r_lp_tautomer_probability>
0.999998432528457

> <s_lp_Force_Field>
OPLS_2005

> <r_lp_Energy>
22.127094

> <b_lp_Chiralities_Consistent>
1

> <s_lp_Variant>
CHEMBL2695_lig1618-3

> <s_i_glide_gridfile>
glide-grid_3bz3

> <i_i_glide_lignum>
1797

> <i_i_glide_rotatable_bonds>
4

> <r_i_docking_score>
-7.12687838124293

> <r_i_glide_ligand_efficiency>
-0.339375161011568

> <r_i_glide_ligand_efficiency_sa>
-0.936310335627844

> <r_i_glide_ligand_efficiency_ln>
-1.76210627854855

> <r_i_glide_gscore>
-7.12687838124293

> <r_i_glide_lipo>
-2.48412265915645

> <r_i_glide_hbond>
-0.337892427848861

> <r_i_glide_metal>
0

> <r_i_glide_rewards>
-2.40174987427701

> <r_i_glide_evdw>
-29.5508289337158

> <r_i_glide_ecoul>
-5.93711805343628

> <r_i_glide_erotb>
0.46499573474063

> <r_i_glide_esite>
0

> <r_i_glide_emodel>
-50.245985170334

> <r_i_glide_energy>
-35.4879469871521

> <r_i_glide_einternal>
1.5916633605957

> <i_i_glide_confnum>
25

> <i_i_glide_posenum>
208

> <r_i_glide_eff_state_penalty>
0

> <s_user_duplicate_titles>
CHEMBL2695_lig1618

> <s_m_subgroup_title>
dock_pv

> <s_m_subgroupid>
dock_pv

> <b_m_subgroup_collapsed>
1

$$$$
CHEMBL2695_lig1906
                    3D
 Schrodinger Suite 2021-1.
 28 29  0  0  1  0            999 V2000
   11.9773    6.4335    7.8132 N   0  0  0  0  0  0
   13.1633    1.5631    5.1974 N   0  0  0  0  0  0
   11.1367    4.4135    6.5887 C   0  0  0  0  0  0
   11.4306    3.1823    5.9094 C   0  0  0  0  0  0
   12.2101    5.2220    7.1093 C   0  0  0  0  0  0
   12.7882    2.7597    5.8080 C   0  0  0  0  0  0
   13.5210    4.7628    6.9417 C   0  0  0  0  0  0
    9.7690    4.7619    6.7637 C   0  0  0  0  0  0
   13.7992    3.5624    6.3090 C   0  0  0  0  0  0
   10.3521    2.4080    5.3867 C   0  0  0  0  0  0
    8.7439    3.9788    6.2439 C   0  0  0  0  0  0
    9.0342    2.8153    5.5488 C   0  0  0  0  0  0
   12.9156    6.8098    8.8697 C   0  0  0  0  0  0
   11.5101    7.5531    7.0013 C   0  0  0  0  0  0
   12.4480    0.9635    4.8153 H   0  0  0  0  0  0
   14.1269    1.2526    5.2480 H   0  0  0  0  0  0
   14.3555    5.3406    7.3086 H   0  0  0  0  0  0
    9.5220    5.6419    7.3306 H   0  0  0  0  0  0
   14.8209    3.2447    6.2112 H   0  0  0  0  0  0
   10.5501    1.4855    4.8619 H   0  0  0  0  0  0
    7.7141    4.2722    6.3877 H   0  0  0  0  0  0
    8.2316    2.2115    5.1481 H   0  0  0  0  0  0
   13.1397    5.9545    9.5079 H   0  0  0  0  0  0
   12.4929    7.5851    9.5068 H   0  0  0  0  0  0
   13.8568    7.1753    8.4568 H   0  0  0  0  0  0
   10.7229    7.2597    6.3091 H   0  0  0  0  0  0
   11.1108    8.3459    7.6353 H   0  0  0  0  0  0
   12.3223    7.9702    6.4077 H   0  0  0  0  0  0
  1  5  1  0  0  0
  1 13  1  0  0  0
  1 14  1  0  0  0
  2  6  1  0  0  0
  2 15  1  0  0  0
  2 16  1  0  0  0
  3  4  1  0  0  0
  3  5  1  0  0  0
  3  8  2  0  0  0
  4  6  1  0  0  0
  4 10  2  0  0  0
  5  7  2  0  0  0
  6  9  2  0  0  0
  7  9  1  0  0  0
  7 17  1  0  0  0
  8 11  1  0  0  0
  8 18  1  0  0  0
  9 19  1  0  0  0
 10 12  1  0  0  0
 10 20  1  0  0  0
 11 12  2  0  0  0
 11 21  1  0  0  0
 12 22  1  0  0  0
 13 23  1  0  0  0
 13 24  1  0  0  0
 13 25  1  0  0  0
 14 26  1  0  0  0
 14 27  1  0  0  0
 14 28  1  0  0  0
M  END
> <s_m_entry_id>
47726

> <s_m_entry_name>
dock_pv.259

> <s_m_Source_Path>
/home/csk/Desktop/cluster/DUD-E-result/fak1

> <s_m_Source_File>
dock_pv.maegz

> <i_m_Source_File_Index>
259

> <chembl_id>
CHEMBL1998253

> <chembl_pref_name>
None

> <i_lp_mmshare_version>
53161

> <i_f3d_flags>
0

> <r_lp_tautomer_probability>
1

> <s_lp_Force_Field>
OPLS_2005

> <r_lp_Energy>
22.13078

> <b_lp_Chiralities_Consistent>
1

> <s_lp_Variant>
CHEMBL2695_lig1906-1

> <s_i_glide_gridfile>
glide-grid_3bz3

> <i_i_glide_lignum>
2219

> <i_i_glide_rotatable_bonds>
1

> <r_i_docking_score>
-7.12294703057115

> <r_i_glide_ligand_efficiency>
-0.508781930755082

> <r_i_glide_ligand_efficiency_sa>
-1.2262368334828

> <r_i_glide_ligand_efficiency_ln>
-1.95736048800425

> <r_i_glide_gscore>
-7.12294703057115

> <r_i_glide_lipo>
-2.88513502934345

> <r_i_glide_hbond>
-0.255455182757352

> <r_i_glide_metal>
0

> <r_i_glide_rewards>
-2.58918436363636

> <r_i_glide_evdw>
-24.8030529022217

> <r_i_glide_ecoul>
-1.02013206481934

> <r_i_glide_erotb>
0

> <r_i_glide_esite>
0

> <r_i_glide_emodel>
-36.8356480476185

> <r_i_glide_energy>
-25.823184967041

> <r_i_glide_einternal>
0.0127867851406336

> <i_i_glide_confnum>
1

> <i_i_glide_posenum>
47

> <r_i_glide_eff_state_penalty>
0

> <s_user_duplicate_titles>
CHEMBL2695_lig1906

> <s_m_subgroup_title>
dock_pv

> <s_m_subgroupid>
dock_pv

> <b_m_subgroup_collapsed>
1

$$$$
CHEMBL2695_lig1387
                    3D
 Schrodinger Suite 2021-1.
 46 49  0  0  1  0            999 V2000
    9.9228    5.5630    9.2549 N   0  0  0  0  0  0
    9.1067    4.7030    8.5891 C   0  0  0  0  0  0
    9.3338    4.1764    7.3566 N   0  0  0  0  0  0
   10.4755    4.5124    6.7090 C   0  0  0  0  0  0
   10.7737    3.9549    5.4597 N   0  0  0  0  0  0
   10.2640    2.6394    5.0418 C   0  0  0  0  0  0
   11.2985    1.4782    5.0909 C   0  0  0  0  0  0
   10.7220    0.3630    5.5090 F   0  0  0  0  0  0
   11.8061    1.1630    3.9018 F   0  0  0  0  0  0
   12.3231    1.7185    5.9090 F   0  0  0  0  0  0
    7.9406    4.3497    9.2758 N   0  0  0  0  0  0
    6.8901    3.4759    8.9405 C   0  0  0  0  0  0
    5.6214    3.7284    9.4578 C   0  0  0  0  0  0
    4.5183    2.9422    9.1069 C   0  0  0  0  0  0
    4.6824    1.8325    8.2404 C   0  0  0  0  0  0
    5.9739    1.5696    7.7642 C   0  0  0  0  0  0
    7.0583    2.3682    8.1079 C   0  0  0  0  0  0
   11.0403    5.9133    8.6004 C   0  0  0  0  0  0
   11.3530    5.4101    7.3228 C   0  0  0  0  0  0
   12.5719    5.8542    6.8962 O   0  0  0  0  0  0
   13.0500    6.6354    7.9090 C   0  0  0  0  0  0
   12.1562    6.7202    8.9661 C   0  0  0  0  0  0
    3.6665    0.9986    7.7637 N   0  0  0  0  0  0
    2.3769    0.7869    8.4352 C   0  0  0  0  0  0
    1.7178   -0.5420    8.0056 C   0  0  0  0  0  0
    1.5215   -0.5520    6.5982 O   0  0  0  0  0  0
    2.7429   -0.3808    5.8862 C   0  0  0  0  0  0
    3.4280    0.9385    6.3079 C   0  0  0  0  0  0
    2.9905    3.4416    9.7557 Cl  0  0  0  0  0  0
   11.6368    4.2629    5.0352 H   0  0  0  0  0  0
    9.3530    2.3664    5.5765 H   0  0  0  0  0  0
    9.9424    2.7584    4.0058 H   0  0  0  0  0  0
    7.8401    4.8346   10.1529 H   0  0  0  0  0  0
    5.4755    4.5723   10.1154 H   0  0  0  0  0  0
    6.1498    0.7282    7.1090 H   0  0  0  0  0  0
    8.0211    2.1077    7.7034 H   0  0  0  0  0  0
   14.0363    7.0502    7.7519 H   0  0  0  0  0  0
   12.3220    7.2609    9.8818 H   0  0  0  0  0  0
    2.5460    0.7630    9.5090 H   0  0  0  0  0  0
    1.7045    1.6218    8.2326 H   0  0  0  0  0  0
    0.7491   -0.6514    8.4931 H   0  0  0  0  0  0
    2.3221   -1.3987    8.3090 H   0  0  0  0  0  0
    2.5248   -0.3598    4.8183 H   0  0  0  0  0  0
    3.4072   -1.2322    6.0492 H   0  0  0  0  0  0
    2.8374    1.8010    5.9948 H   0  0  0  0  0  0
    4.3691    1.0034    5.7614 H   0  0  0  0  0  0
  1 18  1  0  0  0
  1  2  2  0  0  0
  2  3  1  0  0  0
  2 11  1  0  0  0
  3  4  2  0  0  0
  4 19  1  0  0  0
  4  5  1  0  0  0
  5  6  1  0  0  0
  5 30  1  0  0  0
  6  7  1  0  0  0
  6 31  1  0  0  0
  6 32  1  0  0  0
  7  8  1  0  0  0
  7  9  1  0  0  0
  7 10  1  0  0  0
 11 12  1  0  0  0
 11 33  1  0  0  0
 12 13  2  0  0  0
 12 17  1  0  0  0
 13 14  1  0  0  0
 13 34  1  0  0  0
 14 15  2  0  0  0
 14 29  1  0  0  0
 15 16  1  0  0  0
 15 23  1  0  0  0
 16 17  2  0  0  0
 16 35  1  0  0  0
 17 36  1  0  0  0
 18 19  2  0  0  0
 18 22  1  0  0  0
 19 20  1  0  0  0
 20 21  1  0  0  0
 21 22  2  0  0  0
 21 37  1  0  0  0
 22 38  1  0  0  0
 23 24  1  0  0  0
 23 28  1  0  0  0
 24 25  1  0  0  0
 24 39  1  0  0  0
 24 40  1  0  0  0
 25 26  1  0  0  0
 25 41  1  0  0  0
 25 42  1  0  0  0
 26 27  1  0  0  0
 27 28  1  0  0  0
 27 43  1  0  0  0
 27 44  1  0  0  0
 28 45  1  0  0  0
 28 46  1  0  0  0
M  END
> <s_m_entry_id>
47727

> <s_m_entry_name>
dock_pv.260

> <s_m_Source_Path>
/home/csk/Desktop/cluster/DUD-E-result/fak1

> <s_m_Source_File>
dock_pv.maegz

> <i_m_Source_File_Index>
260

> <chembl_id>
CHEMBL4078893

> <chembl_pref_name>
None

> <i_lp_mmshare_version>
53161

> <i_f3d_flags>
0

> <r_lp_tautomer_probability>
1

> <s_lp_Force_Field>
OPLS_2005

> <r_lp_Energy>
27.64733

> <b_lp_Chiralities_Consistent>
1

> <s_lp_Variant>
CHEMBL2695_lig1387-1

> <s_i_glide_gridfile>
glide-grid_3bz3

> <i_i_glide_lignum>
1518

> <i_i_glide_rotatable_bonds>
6

> <r_i_docking_score>
-7.11972155624725

> <r_i_glide_ligand_efficiency>
-0.245507639870595

> <r_i_glide_ligand_efficiency_sa>
-0.754277251962225

> <r_i_glide_ligand_efficiency_ln>
-1.63023569581942

> <r_i_glide_gscore>
-7.11972155624725

> <r_i_glide_lipo>
-2.60522291254866

> <r_i_glide_hbond>
-0.31301274143588

> <r_i_glide_metal>
0

> <r_i_glide_rewards>
-2.36369559833581

> <r_i_glide_evdw>
-35.3158493041992

> <r_i_glide_ecoul>
-3.94416189193726

> <r_i_glide_erotb>
0.542514819947001

> <r_i_glide_esite>
-0.0228883748733461

> <r_i_glide_emodel>
-53.5396230149288

> <r_i_glide_energy>
-39.2600111961365

> <r_i_glide_einternal>
4.93269681930542

> <i_i_glide_confnum>
8

> <i_i_glide_posenum>
299

> <r_i_glide_eff_state_penalty>
0

> <s_user_duplicate_titles>
CHEMBL2695_lig1387

> <s_m_subgroup_title>
dock_pv

> <s_m_subgroupid>
dock_pv

> <b_m_subgroup_collapsed>
1

$$$$
CHEMBL2695_lig1985
                    3D
 Schrodinger Suite 2021-1.
 49 52  0  0  1  0            999 V2000
    7.2779    4.7553   11.1089 Cl  0  0  0  0  0  0
    5.0178    5.0278    6.7541 O   0  0  0  0  0  0
   13.8366    4.4500    6.7090 N   0  0  0  0  0  0
   14.3220    3.2663    6.3090 N   0  0  0  0  0  0
    6.5895    2.3630    4.7090 N   0  0  0  0  0  0
    1.5150    4.0325    7.5360 N   0  0  0  0  0  0
   12.0905    3.2530    6.0321 C   0  0  0  0  0  0
   12.4696    4.5097    6.5513 C   0  0  0  0  0  0
    9.7683    3.9353    6.0917 C   0  0  0  0  0  0
   10.7374    2.9637    5.8137 C   0  0  0  0  0  0
   13.3157    2.5501    5.8866 C   0  0  0  0  0  0
    8.3123    3.6566    5.8412 C   0  0  0  0  0  0
   11.5394    5.4992    6.8296 C   0  0  0  0  0  0
   10.2083    5.1729    6.5882 C   0  0  0  0  0  0
    7.2857    4.3976    6.4483 C   0  0  0  0  0  0
    5.9386    4.2015    6.1347 C   0  0  0  0  0  0
    7.8880    2.6391    4.9748 C   0  0  0  0  0  0
    5.6396    3.1516    5.2576 C   0  0  0  0  0  0
   13.5220    1.1665    5.3569 C   0  0  0  0  0  0
    3.6136    4.8315    6.5715 C   0  0  0  0  0  0
    2.9456    4.1305    7.7859 C   0  0  2  0  0  0
    4.9083    2.6520    8.6412 C   0  0  0  0  0  0
    3.4717    2.7092    8.1228 C   0  0  0  0  0  0
    5.3772    3.5835    9.5751 C   0  0  0  0  0  0
    6.7062    3.5699    9.9924 C   0  0  0  0  0  0
    5.7904    1.6814    8.1518 C   0  0  0  0  0  0
    7.5765    2.6056    9.4944 C   0  0  0  0  0  0
    7.1220    1.6662    8.5679 C   0  0  0  0  0  0
   14.4509    5.1618    7.0836 H   0  0  0  0  0  0
    1.1461    4.9469    7.3146 H   0  0  0  0  0  0
    1.3530    3.4623    6.7182 H   0  0  0  0  0  0
   10.4623    1.9882    5.4456 H   0  0  0  0  0  0
   11.8238    6.4652    7.2209 H   0  0  0  0  0  0
    9.5220    5.9630    6.7929 H   0  0  0  0  0  0
    7.5076    5.1587    7.1794 H   0  0  0  0  0  0
    8.5831    2.0114    4.4389 H   0  0  0  0  0  0
    4.6333    2.8763    4.9906 H   0  0  0  0  0  0
   12.5817    0.7630    4.9816 H   0  0  0  0  0  0
   14.2321    1.1543    4.5286 H   0  0  0  0  0  0
   13.9164    0.5239    6.1477 H   0  0  0  0  0  0
    3.3466    4.3583    5.6281 H   0  0  0  0  0  0
    3.1915    5.8335    6.4840 H   0  0  0  0  0  0
    3.0670    4.7630    8.6650 H   0  0  0  0  0  0
    3.3752    2.0716    7.2426 H   0  0  0  0  0  0
    2.8488    2.2580    8.8966 H   0  0  0  0  0  0
    4.7217    4.3409    9.9766 H   0  0  0  0  0  0
    5.4605    0.9528    7.4245 H   0  0  0  0  0  0
    8.6047    2.5908    9.8230 H   0  0  0  0  0  0
    7.7943    0.9192    8.1742 H   0  0  0  0  0  0
  1 25  1  0  0  0
  2 16  1  0  0  0
  2 20  1  0  0  0
  3  4  1  0  0  0
  3  8  1  0  0  0
  3 29  1  0  0  0
  4 11  2  0  0  0
  5 17  1  0  0  0
  5 18  2  0  0  0
  6 21  1  0  0  0
  6 30  1  0  0  0
  6 31  1  0  0  0
  7  8  1  0  0  0
  7 10  2  0  0  0
  7 11  1  0  0  0
  8 13  2  0  0  0
  9 10  1  0  0  0
  9 12  1  0  0  0
  9 14  2  0  0  0
 10 32  1  0  0  0
 11 19  1  0  0  0
 12 15  1  0  0  0
 12 17  2  0  0  0
 13 14  1  0  0  0
 13 33  1  0  0  0
 14 34  1  0  0  0
 15 16  2  0  0  0
 15 35  1  0  0  0
 16 18  1  0  0  0
 17 36  1  0  0  0
 18 37  1  0  0  0
 19 38  1  0  0  0
 19 39  1  0  0  0
 19 40  1  0  0  0
 20 21  1  0  0  0
 20 41  1  0  0  0
 20 42  1  0  0  0
 21 23  1  0  0  0
 21 43  1  0  0  0
 22 23  1  0  0  0
 22 24  1  0  0  0
 22 26  2  0  0  0
 23 44  1  0  0  0
 23 45  1  0  0  0
 24 25  2  0  0  0
 24 46  1  0  0  0
 25 27  1  0  0  0
 26 28  1  0  0  0
 26 47  1  0  0  0
 27 28  2  0  0  0
 27 48  1  0  0  0
 28 49  1  0  0  0
M  END
> <s_m_entry_id>
47728

> <s_m_entry_name>
dock_pv.261

> <s_m_Source_Path>
/home/csk/Desktop/cluster/DUD-E-result/fak1

> <s_m_Source_File>
dock_pv.maegz

> <i_m_Source_File_Index>
261

> <chembl_id>
CHEMBL1974870

> <chembl_pref_name>
None

> <i_lp_mmshare_version>
53161

> <i_f3d_flags>
0

> <r_lp_tautomer_probability>
0.980392156862745

> <s_lp_Force_Field>
OPLS_2005

> <r_lp_Energy>
24.572435

> <b_lp_Chiralities_Consistent>
1

> <s_lp_Variant>
CHEMBL2695_lig1985-1

> <s_i_glide_gridfile>
glide-grid_3bz3

> <i_i_glide_lignum>
2327

> <i_i_glide_rotatable_bonds>
6

> <r_i_docking_score>
-7.1188336139764

> <r_i_glide_ligand_efficiency>
-0.254244057642014

> <r_i_glide_ligand_efficiency_sa>
-0.772034700743135

> <r_i_glide_ligand_efficiency_ln>
-1.64323581614306

> <r_i_glide_gscore>
-7.1188336139764

> <r_i_glide_lipo>
-3.6305856783708

> <r_i_glide_hbond>
-0.32

> <r_i_glide_metal>
0

> <r_i_glide_rewards>
-1.57771375563571

> <r_i_glide_evdw>
-34.5098266601562

> <r_i_glide_ecoul>
-3.31765508651733

> <r_i_glide_erotb>
0.632605416015526

> <r_i_glide_esite>
0

> <r_i_glide_emodel>
-50.1782380784948

> <r_i_glide_energy>
-37.8274817466736

> <r_i_glide_einternal>
3.09348654747009

> <i_i_glide_confnum>
72

> <i_i_glide_posenum>
200

> <r_i_glide_eff_state_penalty>
0

> <s_user_duplicate_titles>
CHEMBL2695_lig1985

> <s_m_subgroup_title>
dock_pv

> <s_m_subgroupid>
dock_pv

> <b_m_subgroup_collapsed>
1

$$$$
CHEMBL2695_lig1446 
                    3D
 Schrodinger Suite 2021-1.
 48 51  0  0  1  0            999 V2000
   13.5167    3.9602    6.2280 N   0  0  0  0  0  0
   12.9572    2.8483    5.6803 C   0  0  0  0  0  0
   11.6505    2.4946    5.7357 N   0  0  0  0  0  0
   10.7692    3.3393    6.3077 C   0  0  0  0  0  0
   11.2252    4.5199    6.9169 C   0  0  0  0  0  0
   12.6262    4.7628    6.8231 C   0  0  0  0  0  0
   12.8888    5.9280    7.5095 N   0  0  0  0  0  0
   11.7166    6.4192    8.0377 C   0  0  0  0  0  0
   10.6750    5.5648    7.7116 C   0  0  0  0  0  0
    9.4422    2.8926    6.3080 N   0  0  0  0  0  0
    8.2799    3.6449    6.2995 C   0  0  0  0  0  0
    7.8267    4.2459    5.1703 C   0  0  0  0  0  0
    6.5138    4.8644    5.1557 C   0  0  0  0  0  0
    5.7823    4.7559    6.2802 C   0  0  0  0  0  0
    6.2054    4.1435    7.4406 N   0  0  0  0  0  0
    7.4805    3.6127    7.5479 C   0  0  0  0  0  0
    7.9229    3.1624    8.6111 O   0  0  0  0  0  0
    5.3160    3.9866    8.6008 C   0  0  0  0  0  0
   13.8228    2.0783    4.8988 N   0  0  0  0  0  0
   13.5990    1.1627    3.8534 C   0  0  0  0  0  0
   14.7228    0.6404    3.2163 C   0  0  0  0  0  0
   14.6080   -0.3747    2.2748 C   0  0  0  0  0  0
   13.3517   -0.8849    1.9320 C   0  0  0  0  0  0
   12.2122   -0.2961    2.4997 C   0  0  0  0  0  0
   12.3347    0.7228    3.4411 C   0  0  0  0  0  0
   13.2562   -2.0676    0.9952 C   0  0  0  0  0  0
   14.2139   -2.3968    0.2910 O   0  0  0  0  0  0
   12.0925   -2.7409    0.9946 N   0  0  0  0  0  0
   11.8336   -3.9371    0.2034 C   0  0  0  0  0  0
   13.7897    6.3634    7.6473 H   0  0  0  0  0  0
   11.7299    7.3234    8.6301 H   0  0  0  0  0  0
    9.6460    5.6560    8.0264 H   0  0  0  0  0  0
    9.3949    1.9715    5.8948 H   0  0  0  0  0  0
    8.4020    4.1978    4.2545 H   0  0  0  0  0  0
    6.1370    5.3822    4.2851 H   0  0  0  0  0  0
    4.7988    5.1925    6.3811 H   0  0  0  0  0  0
    5.8477    4.0457    9.5540 H   0  0  0  0  0  0
    4.5513    4.7638    8.6165 H   0  0  0  0  0  0
    4.8070    3.0219    8.5546 H   0  0  0  0  0  0
   14.7822    2.3720    4.9844 H   0  0  0  0  0  0
   15.7112    0.9649    3.5079 H   0  0  0  0  0  0
   15.5163   -0.7937    1.8575 H   0  0  0  0  0  0
   11.2164   -0.6242    2.2405 H   0  0  0  0  0  0
   11.4176    1.1098    3.8464 H   0  0  0  0  0  0
   11.3645   -2.4518    1.6295 H   0  0  0  0  0  0
   10.7858   -4.2238    0.2954 H   0  0  0  0  0  0
   12.4452   -4.7707    0.5555 H   0  0  0  0  0  0
   12.0511   -3.7728   -0.8523 H   0  0  0  0  0  0
  1  2  2  0  0  0
  1  6  1  0  0  0
  2  3  1  0  0  0
  2 19  1  0  0  0
  3  4  2  0  0  0
  4  5  1  0  0  0
  4 10  1  0  0  0
  5  6  2  0  0  0
  5  9  1  0  0  0
  6  7  1  0  0  0
  7  8  1  0  0  0
  7 30  1  0  0  0
  8  9  2  0  0  0
  8 31  1  0  0  0
  9 32  1  0  0  0
 10 11  1  0  0  0
 10 33  1  0  0  0
 11 12  2  0  0  0
 11 16  1  0  0  0
 12 13  1  0  0  0
 12 34  1  0  0  0
 13 14  2  0  0  0
 13 35  1  0  0  0
 14 15  1  0  0  0
 14 36  1  0  0  0
 15 16  1  0  0  0
 15 18  1  0  0  0
 16 17  2  0  0  0
 18 37  1  0  0  0
 18 38  1  0  0  0
 18 39  1  0  0  0
 19 20  1  0  0  0
 19 40  1  0  0  0
 20 21  2  0  0  0
 20 25  1  0  0  0
 21 22  1  0  0  0
 21 41  1  0  0  0
 22 23  2  0  0  0
 22 42  1  0  0  0
 23 24  1  0  0  0
 23 26  1  0  0  0
 24 25  2  0  0  0
 24 43  1  0  0  0
 25 44  1  0  0  0
 26 27  2  0  0  0
 26 28  1  0  0  0
 28 29  1  0  0  0
 28 45  1  0  0  0
 29 46  1  0  0  0
 29 47  1  0  0  0
 29 48  1  0  0  0
M  END
> <s_m_entry_id>
47729

> <s_m_entry_name>
dock_pv.262

> <s_m_Source_Path>
/home/csk/Desktop/cluster/DUD-E-result/fak1

> <s_m_Source_File>
dock_pv.maegz

> <i_m_Source_File_Index>
262

> <chembl_id>
CHEMBL4448618

> <chembl_pref_name>
None

> <i_lp_mmshare_version>
53161

> <i_f3d_flags>
0

> <r_lp_tautomer_probability>
1

> <s_lp_Force_Field>
OPLS_2005

> <r_lp_Energy>
26.659552

> <b_lp_Chiralities_Consistent>
1

> <s_lp_Variant>
CHEMBL2695_lig1446 -1

> <s_i_glide_gridfile>
glide-grid_3bz3

> <i_i_glide_lignum>
1581

> <i_i_glide_rotatable_bonds>
6

> <r_i_docking_score>
-7.11358695407171

> <r_i_glide_ligand_efficiency>
-0.245296101864542

> <r_i_glide_ligand_efficiency_sa>
-0.753627340187685

> <r_i_glide_ligand_efficiency_ln>
-1.62883102748131

> <r_i_glide_gscore>
-7.11358695407171

> <r_i_glide_lipo>
-3.23077363716541

> <r_i_glide_hbond>
-0.0670968930933655

> <r_i_glide_metal>
0

> <r_i_glide_rewards>
-1.69859390224343

> <r_i_glide_evdw>
-39.2773704528809

> <r_i_glide_ecoul>
-4.95711374282837

> <r_i_glide_erotb>
0.642769155759432

> <r_i_glide_esite>
-0.0524560932606309

> <r_i_glide_emodel>
-55.0996071576464

> <r_i_glide_energy>
-44.2344841957092

> <r_i_glide_einternal>
12.2460308074951

> <i_i_glide_confnum>
11

> <i_i_glide_posenum>
341

> <r_i_glide_eff_state_penalty>
0

> <s_user_duplicate_titles>
CHEMBL2695_lig1446 

> <s_m_subgroup_title>
dock_pv

> <s_m_subgroupid>
dock_pv

> <b_m_subgroup_collapsed>
1

$$$$
CHEMBL2695_lig2005
                    3D
 Schrodinger Suite 2021-1.
 42 44  0  0  1  0            999 V2000
    7.4322    4.4042   11.2403 O   0  0  0  0  0  0
   11.2849    5.9627    8.0348 O   0  0  0  0  0  0
   11.2051    4.9744    5.9634 O   0  0  0  0  0  0
    1.9331    0.6129    8.7024 O   0  5  0  0  0  0
    1.5836    1.0646    6.6275 O   0  0  0  0  0  0
    3.9217    3.1629    3.9084 O   0  0  0  0  0  0
    7.4612    3.6096    7.6700 N   0  0  0  0  0  0
    9.0248    4.7568    8.7933 N   0  0  0  0  0  0
    5.9503    3.3755    9.9103 N   0  0  0  0  0  0
    2.3003    1.0800    7.6241 N   0  3  0  0  0  0
    3.9212    1.2596    5.1577 N   0  0  0  0  0  0
    6.2024    2.9490    7.5338 C   0  0  0  0  0  0
    7.8776    4.1429    8.8861 C   0  0  0  0  0  0
    8.5046    3.8849    6.7916 C   0  0  0  0  0  0
    5.4523    2.8519    8.7170 C   0  0  0  0  0  0
    9.4467    4.6077    7.5456 C   0  0  0  0  0  0
    7.1185    4.0166   10.1196 C   0  0  0  0  0  0
    5.6559    2.4156    6.3638 C   0  0  0  0  0  0
    4.3903    1.8100    6.3595 C   0  0  0  0  0  0
    3.6468    1.7075    7.5560 C   0  0  0  0  0  0
    4.2036    2.2370    8.7274 C   0  0  0  0  0  0
   10.7234    5.1661    7.0824 C   0  0  0  0  0  0
    8.5116    3.4520    5.3331 C   0  0  0  0  0  0
    3.7282    1.9529    4.0219 C   0  0  0  0  0  0
   12.3949    6.8007    7.7440 C   0  0  0  0  0  0
    3.2367    1.1533    2.8233 C   0  0  0  0  0  0
   11.8936    8.1061    7.1093 C   0  0  0  0  0  0
    5.4009    3.2645   10.7566 H   0  0  0  0  0  0
    3.7341    0.2684    5.1569 H   0  0  0  0  0  0
    6.1911    2.4564    5.4310 H   0  0  0  0  0  0
    3.6570    2.1799    9.6579 H   0  0  0  0  0  0
    9.4417    3.6857    4.8143 H   0  0  0  0  0  0
    8.3908    2.3720    5.2373 H   0  0  0  0  0  0
    7.7147    3.9308    4.7621 H   0  0  0  0  0  0
   12.9077    7.0215    8.6822 H   0  0  0  0  0  0
   13.1166    6.2923    7.1011 H   0  0  0  0  0  0
    3.9781    0.4023    2.5436 H   0  0  0  0  0  0
    3.0715    1.8054    1.9642 H   0  0  0  0  0  0
    2.2997    0.6512    3.0579 H   0  0  0  0  0  0
   12.7186    8.7622    6.8501 H   0  0  0  0  0  0
   11.3404    7.9141    6.1891 H   0  0  0  0  0  0
   11.2315    8.6434    7.7881 H   0  0  0  0  0  0
  1 17  2  0  0  0
  2 22  1  0  0  0
  2 25  1  0  0  0
  3 22  2  0  0  0
  4 10  1  0  0  0
  5 10  2  0  0  0
  6 24  2  0  0  0
  7 12  1  0  0  0
  7 13  1  0  0  0
  7 14  1  0  0  0
  8 13  2  0  0  0
  8 16  1  0  0  0
  9 15  1  0  0  0
  9 17  1  0  0  0
  9 28  1  0  0  0
 10 20  1  0  0  0
 11 19  1  0  0  0
 11 24  1  0  0  0
 11 29  1  0  0  0
 12 15  1  0  0  0
 12 18  2  0  0  0
 13 17  1  0  0  0
 14 16  2  0  0  0
 14 23  1  0  0  0
 15 21  2  0  0  0
 16 22  1  0  0  0
 18 19  1  0  0  0
 18 30  1  0  0  0
 19 20  2  0  0  0
 20 21  1  0  0  0
 21 31  1  0  0  0
 23 32  1  0  0  0
 23 33  1  0  0  0
 23 34  1  0  0  0
 24 26  1  0  0  0
 25 27  1  0  0  0
 25 35  1  0  0  0
 25 36  1  0  0  0
 26 37  1  0  0  0
 26 38  1  0  0  0
 26 39  1  0  0  0
 27 40  1  0  0  0
 27 41  1  0  0  0
 27 42  1  0  0  0
M  CHG  2   4  -1  10   1
M  END
> <s_m_entry_id>
47730

> <s_m_entry_name>
dock_pv.263

> <s_m_Source_Path>
/home/csk/Desktop/cluster/DUD-E-result/fak1

> <s_m_Source_File>
dock_pv.maegz

> <i_m_Source_File_Index>
263

> <chembl_id>
CHEMBL1997611

> <chembl_pref_name>
None

> <i_lp_mmshare_version>
53161

> <i_f3d_flags>
0

> <r_lp_tautomer_probability>
1

> <s_lp_Force_Field>
OPLS_2005

> <r_lp_Energy>
41.332063

> <b_lp_Chiralities_Consistent>
1

> <s_lp_Variant>
CHEMBL2695_lig2005-1

> <s_i_glide_gridfile>
glide-grid_3bz3

> <i_i_glide_lignum>
2359

> <i_i_glide_rotatable_bonds>
6

> <r_i_docking_score>
-7.101035118777

> <r_i_glide_ligand_efficiency>
-0.263001300695445

> <r_i_glide_ligand_efficiency_sa>
-0.789003901219524

> <r_i_glide_ligand_efficiency_ln>
-1.65300390593786

> <r_i_glide_gscore>
-7.101035118777

> <r_i_glide_lipo>
-1.66749862647887

> <r_i_glide_hbond>
-0.608

> <r_i_glide_metal>
0

> <r_i_glide_rewards>
-1.73281360801703

> <r_i_glide_evdw>
-44.2933731079102

> <r_i_glide_ecoul>
-7.83888339996338

> <r_i_glide_erotb>
0.415959272443681

> <r_i_glide_esite>
-0.118180991334777

> <r_i_glide_emodel>
-73.4477674897038

> <r_i_glide_energy>
-52.1322565078735

> <r_i_glide_einternal>
2.98746037483215

> <i_i_glide_confnum>
11

> <i_i_glide_posenum>
281

> <r_i_glide_eff_state_penalty>
0

> <s_user_duplicate_titles>
CHEMBL2695_lig2005

> <s_m_subgroup_title>
dock_pv

> <s_m_subgroupid>
dock_pv

> <b_m_subgroup_collapsed>
1

$$$$
CHEMBL2695_lig83
                    3D
 Schrodinger Suite 2021-1.
 38 41  0  0  1  0            999 V2000
    9.9901    1.1897    4.9802 N   0  0  0  0  0  0
    9.4272    2.2773    5.5522 C   0  0  0  0  0  0
   10.0794    3.3690    6.0528 N   0  0  0  0  0  0
   11.3373    1.1350    4.9397 C   0  0  0  0  0  0
   12.1273    2.1356    5.5090 C   0  0  0  0  0  0
   11.4236    3.2626    6.0188 C   0  0  0  0  0  0
   12.3897    4.1730    6.4553 N   0  0  0  0  0  0
   13.6343    3.5999    6.2853 C   0  0  0  0  0  0
   13.5209    2.3628    5.6893 C   0  0  0  0  0  0
   12.1957    5.4439    7.0126 C   0  0  0  0  0  0
   12.8607    5.8630    8.1732 C   0  0  0  0  0  0
   12.6282    7.1627    8.6291 C   0  0  0  0  0  0
   11.7682    7.9952    7.9090 C   0  0  0  0  0  0
   11.1966    7.5166    6.7370 C   0  0  0  0  0  0
   11.3743    6.2502    6.3090 N   0  0  0  0  0  0
    8.0440    2.1644    5.6837 N   0  0  0  0  0  0
    7.0726    3.0936    6.0664 C   0  0  0  0  0  0
    6.1623    2.7923    7.0959 C   0  0  0  0  0  0
    5.1391    3.6963    7.3960 C   0  0  0  0  0  0
    4.9994    4.8712    6.6621 C   0  0  0  0  0  0
    5.8974    5.1631    5.6369 C   0  0  0  0  0  0
    6.9423    4.2866    5.3510 C   0  0  0  0  0  0
    6.2665    1.5079    7.9090 C   0  0  0  0  0  0
    3.4385    6.1878    7.1090 I   0  0  0  0  0  0
   11.7717    0.2891    4.4370 H   0  0  0  0  0  0
   14.5127    4.1570    6.5786 H   0  0  0  0  0  0
   14.3220    1.7025    5.4031 H   0  0  0  0  0  0
   13.5301    5.2053    8.7090 H   0  0  0  0  0  0
   13.1092    7.5227    9.5255 H   0  0  0  0  0  0
   11.5220    8.9898    8.2459 H   0  0  0  0  0  0
   10.5655    8.1438    6.1279 H   0  0  0  0  0  0
    7.6741    1.2785    5.3636 H   0  0  0  0  0  0
    4.4375    3.4839    8.1900 H   0  0  0  0  0  0
    5.7814    6.0697    5.0626 H   0  0  0  0  0  0
    7.6295    4.5132    4.5487 H   0  0  0  0  0  0
    5.9290    0.6549    7.3200 H   0  0  0  0  0  0
    7.2999    1.3223    8.2041 H   0  0  0  0  0  0
    5.6806    1.5630    8.8270 H   0  0  0  0  0  0
  1  2  2  0  0  0
  1  4  1  0  0  0
  2  3  1  0  0  0
  2 16  1  0  0  0
  3  6  2  0  0  0
  4  5  2  0  0  0
  4 25  1  0  0  0
  5  9  1  0  0  0
  5  6  1  0  0  0
  6  7  1  0  0  0
  7  8  1  0  0  0
  7 10  1  0  0  0
  8  9  2  0  0  0
  8 26  1  0  0  0
  9 27  1  0  0  0
 10 15  1  0  0  0
 10 11  2  0  0  0
 11 12  1  0  0  0
 11 28  1  0  0  0
 12 13  2  0  0  0
 12 29  1  0  0  0
 13 14  1  0  0  0
 13 30  1  0  0  0
 14 15  2  0  0  0
 14 31  1  0  0  0
 16 17  1  0  0  0
 16 32  1  0  0  0
 17 18  2  0  0  0
 17 22  1  0  0  0
 18 19  1  0  0  0
 18 23  1  0  0  0
 19 20  2  0  0  0
 19 33  1  0  0  0
 20 21  1  0  0  0
 20 24  1  0  0  0
 21 22  2  0  0  0
 21 34  1  0  0  0
 22 35  1  0  0  0
 23 36  1  0  0  0
 23 37  1  0  0  0
 23 38  1  0  0  0
M  END
> <s_m_entry_id>
47731

> <s_m_entry_name>
dock_pv.264

> <s_m_Source_Path>
/home/csk/Desktop/cluster/DUD-E-result/fak1

> <s_m_Source_File>
dock_pv.maegz

> <i_m_Source_File_Index>
264

> <chembl_id>
CHEMBL203676

> <chembl_pref_name>
None

> <i_lp_mmshare_version>
53161

> <i_f3d_flags>
0

> <r_lp_tautomer_probability>
1

> <s_lp_Force_Field>
OPLS_2005

> <r_lp_Energy>
11.065934

> <b_lp_Chiralities_Consistent>
1

> <s_lp_Variant>
CHEMBL2695_lig83-1

> <s_i_glide_gridfile>
glide-grid_3bz3

> <i_i_glide_lignum>
105

> <i_i_glide_rotatable_bonds>
3

> <r_i_docking_score>
-7.10047715661272

> <r_i_glide_ligand_efficiency>
-0.295853214858863

> <r_i_glide_ligand_efficiency_sa>
-0.853388343104483

> <r_i_glide_ligand_efficiency_ln>
-1.69947000324345

> <r_i_glide_gscore>
-7.10047715661272

> <r_i_glide_lipo>
-3.51424922010235

> <r_i_glide_hbond>
0

> <r_i_glide_metal>
0

> <r_i_glide_rewards>
-1.83456090468557

> <r_i_glide_evdw>
-40.9010620117188

> <r_i_glide_ecoul>
0.0675492212176323

> <r_i_glide_erotb>
0.326290100549852

> <r_i_glide_esite>
-0.0430364149713456

> <r_i_glide_emodel>
-54.9544470487866

> <r_i_glide_energy>
-40.8335127905011

> <r_i_glide_einternal>
3.83423042297363

> <i_i_glide_confnum>
6

> <i_i_glide_posenum>
303

> <r_i_glide_eff_state_penalty>
0

> <s_user_duplicate_titles>
CHEMBL2695_lig83

> <s_m_subgroup_title>
dock_pv

> <s_m_subgroupid>
dock_pv

> <b_m_subgroup_collapsed>
1

$$$$
CHEMBL2695_lig1603
                    3D
 Schrodinger Suite 2021-1.
 51 54  0  0  1  0            999 V2000
    0.0301    2.0105    4.7462 F   0  0  0  0  0  0
   -0.0925    4.1645    4.6527 F   0  0  0  0  0  0
    1.6278    3.1425    3.8217 F   0  0  0  0  0  0
    5.1729    2.0479    6.7421 O   0  0  0  0  0  0
   10.4882    2.7015    5.6770 N   0  0  0  0  0  0
   13.8708    3.9630    6.5583 N   0  0  0  0  0  0
   13.9223    5.1629    7.1655 N   0  0  0  0  0  0
    6.3812    4.8499    4.7865 N   0  0  0  0  0  0
    3.9219   -0.4999    6.8214 N   0  0  0  0  0  0
   11.7761    4.9604    6.7099 C   0  0  0  0  0  0
   12.5322    3.8169    6.3090 C   0  0  0  0  0  0
    9.7902    3.8212    6.0039 C   0  0  0  0  0  0
   12.7318    5.8404    7.2792 C   0  0  0  0  0  0
   10.3902    4.9737    6.5204 C   0  0  0  0  0  0
    8.3254    3.7845    5.7812 C   0  0  0  0  0  0
   11.8388    2.6987    5.8230 C   0  0  0  0  0  0
    7.4912    2.8324    6.3837 C   0  0  0  0  0  0
    6.1000    2.9007    6.1934 C   0  0  0  0  0  0
    7.7175    4.7630    4.9910 C   0  0  0  0  0  0
    1.4909    3.2355    6.1470 C   0  0  0  0  0  0
    0.7424    3.1369    4.8183 C   0  0  0  0  0  0
    2.6277    2.1652    8.0157 C   0  0  0  0  0  0
   12.6255    7.2114    7.9060 C   0  0  0  0  0  0
    1.9027    2.0785    6.8218 C   0  0  0  0  0  0
    5.5992    3.9228    5.3867 C   0  0  0  0  0  0
    1.7889    4.4870    6.6992 C   0  0  0  0  0  0
    3.1407    0.9033    8.7088 C   0  0  0  0  0  0
    2.9112    3.4248    8.5548 C   0  0  0  0  0  0
    4.3423    0.1807    8.0346 C   0  0  2  0  0  0
    5.5594    1.0823    7.7162 C   0  0  0  0  0  0
    2.4903    4.5803    7.8986 C   0  0  0  0  0  0
   14.8083    5.5508    7.4898 H   0  0  0  0  0  0
    3.6002    0.2185    6.1878 H   0  0  0  0  0  0
    4.7683   -0.8370    6.3515 H   0  0  0  0  0  0
    9.8066    5.8351    6.8007 H   0  0  0  0  0  0
   12.3580    1.7930    5.5482 H   0  0  0  0  0  0
    7.9280    2.0660    7.0050 H   0  0  0  0  0  0
    8.3214    5.5139    4.5060 H   0  0  0  0  0  0
   12.3664    7.9682    7.1651 H   0  0  0  0  0  0
   11.8535    7.2387    8.6753 H   0  0  0  0  0  0
   13.5548    7.5302    8.3785 H   0  0  0  0  0  0
    1.6832    1.1073    6.4028 H   0  0  0  0  0  0
    4.5353    4.0126    5.2192 H   0  0  0  0  0  0
    1.4944    5.3937    6.1891 H   0  0  0  0  0  0
    3.4247    1.1634    9.7302 H   0  0  0  0  0  0
    2.3025    0.2140    8.8109 H   0  0  0  0  0  0
    3.4759    3.5163    9.4720 H   0  0  0  0  0  0
    4.6803   -0.6062    8.7090 H   0  0  0  0  0  0
    5.9101    1.5778    8.6230 H   0  0  0  0  0  0
    6.3777    0.4655    7.3437 H   0  0  0  0  0  0
    2.7229    5.5521    8.3089 H   0  0  0  0  0  0
  1 21  1  0  0  0
  2 21  1  0  0  0
  3 21  1  0  0  0
  4 18  1  0  0  0
  4 30  1  0  0  0
  5 16  2  0  0  0
  5 12  1  0  0  0
  6  7  1  0  0  0
  6 11  2  0  0  0
  7 13  1  0  0  0
  7 32  1  0  0  0
  8 19  1  0  0  0
  8 25  2  0  0  0
  9 29  1  0  0  0
  9 33  1  0  0  0
  9 34  1  0  0  0
 10 14  1  0  0  0
 10 13  2  0  0  0
 10 11  1  0  0  0
 11 16  1  0  0  0
 12 15  1  0  0  0
 12 14  2  0  0  0
 13 23  1  0  0  0
 14 35  1  0  0  0
 15 17  1  0  0  0
 15 19  2  0  0  0
 16 36  1  0  0  0
 17 18  2  0  0  0
 17 37  1  0  0  0
 18 25  1  0  0  0
 19 38  1  0  0  0
 20 21  1  0  0  0
 20 24  2  0  0  0
 20 26  1  0  0  0
 22 24  1  0  0  0
 22 27  1  0  0  0
 22 28  2  0  0  0
 23 39  1  0  0  0
 23 40  1  0  0  0
 23 41  1  0  0  0
 24 42  1  0  0  0
 25 43  1  0  0  0
 26 31  2  0  0  0
 26 44  1  0  0  0
 27 29  1  0  0  0
 27 45  1  0  0  0
 27 46  1  0  0  0
 28 31  1  0  0  0
 28 47  1  0  0  0
 29 30  1  0  0  0
 29 48  1  0  0  0
 30 49  1  0  0  0
 30 50  1  0  0  0
 31 51  1  0  0  0
M  END
> <s_m_entry_id>
47732

> <s_m_entry_name>
dock_pv.265

> <s_m_Source_Path>
/home/csk/Desktop/cluster/DUD-E-result/fak1

> <s_m_Source_File>
dock_pv.maegz

> <i_m_Source_File_Index>
265

> <chembl_id>
CHEMBL1998159

> <chembl_pref_name>
None

> <i_lp_mmshare_version>
53161

> <i_f3d_flags>
0

> <r_lp_tautomer_probability>
0.0448800538560646

> <s_lp_Force_Field>
OPLS_2005

> <r_lp_Energy>
40.770312

> <b_lp_Chiralities_Consistent>
1

> <s_lp_Variant>
CHEMBL2695_lig1603-3

> <s_i_glide_gridfile>
glide-grid_3bz3

> <i_i_glide_lignum>
1773

> <i_i_glide_rotatable_bonds>
7

> <r_i_docking_score>
-7.09567452302741

> <r_i_glide_ligand_efficiency>
-0.228892726549271

> <r_i_glide_ligand_efficiency_sa>
-0.719039181831937

> <r_i_glide_ligand_efficiency_ln>
-1.6002920612513

> <r_i_glide_gscore>
-7.09567452302741

> <r_i_glide_lipo>
-2.52969538644888

> <r_i_glide_hbond>
-0.486875264223315

> <r_i_glide_metal>
0

> <r_i_glide_rewards>
-1.34737218510627

> <r_i_glide_evdw>
-36.5608596801758

> <r_i_glide_ecoul>
-8.89571666717529

> <r_i_glide_erotb>
0.456456812237784

> <r_i_glide_esite>
-0.0257880154016513

> <r_i_glide_emodel>
-61.8547960157577

> <r_i_glide_energy>
-45.4565763473511

> <r_i_glide_einternal>
5.69443893432617

> <i_i_glide_confnum>
7

> <i_i_glide_posenum>
378

> <r_i_glide_eff_state_penalty>
0

> <s_user_duplicate_titles>
CHEMBL2695_lig1603

> <s_m_subgroup_title>
dock_pv

> <s_m_subgroupid>
dock_pv

> <b_m_subgroup_collapsed>
1

$$$$
CHEMBL2695_lig429
                    3D
 Schrodinger Suite 2021-1.
 59 62  0  0  1  0            999 V2000
    2.9991    2.7343    9.5110 C   0  0  0  0  0  0
    1.6097    3.3441    9.3848 C   0  0  0  0  0  0
    3.1202    1.5641    9.8848 O   0  0  0  0  0  0
    4.0250    3.5627    9.2623 N   0  0  0  0  0  0
    5.3770    3.2345    9.3887 C   0  0  0  0  0  0
    6.0419    2.2213    8.6605 C   0  0  0  0  0  0
    7.3976    1.9993    8.9324 C   0  0  0  0  0  0
    8.0807    2.7650    9.8794 C   0  0  0  0  0  0
    7.4264    3.7854   10.5565 C   0  0  0  0  0  0
    6.0820    4.0084   10.3081 C   0  0  0  0  0  0
    5.3660    1.3342    7.5951 C   0  0  0  0  0  0
    4.7646    3.3027    6.1306 N   0  0  0  0  0  0
    5.5954    4.4111    6.0602 C   0  0  0  0  0  0
    6.9449    4.2705    5.8546 N   0  0  0  0  0  0
    7.4258    3.1158    5.5686 C   0  0  0  0  0  0
    6.5643    1.9784    5.4459 N   0  0  0  0  0  0
    5.2737    1.9211    6.1633 C   0  0  1  0  0  0
    4.9250    5.5329    6.1500 N   0  0  0  0  0  0
    3.6646    5.1648    6.3091 C   0  0  0  0  0  0
    3.4942    3.7921    6.2446 C   0  0  0  0  0  0
    8.8063    2.9058    5.3407 N   0  0  0  0  0  0
    9.9556    3.5380    5.8336 C   0  0  0  0  0  0
    9.9614    4.7008    6.6128 C   0  0  0  0  0  0
   11.1619    5.2878    7.0122 C   0  0  0  0  0  0
   12.3810    4.6856    6.6690 C   0  0  0  0  0  0
   12.3914    3.5069    5.9099 C   0  0  0  0  0  0
   11.1695    2.9392    5.5129 C   0  0  0  0  0  0
   13.6237    2.9600    5.6103 O   0  0  0  0  0  0
   13.7081    1.6910    4.9737 C   0  0  0  0  0  0
   13.5735    5.2411    7.0698 O   0  0  0  0  0  0
   13.8334    5.2228    8.4664 C   0  0  0  0  0  0
   11.1219    6.4149    7.7976 O   0  0  0  0  0  0
   11.5295    7.6168    7.1597 C   0  0  0  0  0  0
    1.4647    4.1261   10.1303 H   0  0  0  0  0  0
    1.4797    3.7798    8.3948 H   0  0  0  0  0  0
    0.8369    2.5907    9.5328 H   0  0  0  0  0  0
    3.8190    4.5524    9.2147 H   0  0  0  0  0  0
    7.9212    1.2169    8.4084 H   0  0  0  0  0  0
    9.1222    2.5824   10.0822 H   0  0  0  0  0  0
    7.9445    4.3874   11.2888 H   0  0  0  0  0  0
    5.5690    4.7633   10.8810 H   0  0  0  0  0  0
    5.9109    0.3902    7.5331 H   0  0  0  0  0  0
    4.3820    1.0207    7.9190 H   0  0  0  0  0  0
    6.9850    1.0652    5.2938 H   0  0  0  0  0  0
    4.6126    1.2933    5.5612 H   0  0  0  0  0  0
    2.8789    5.8985    6.4192 H   0  0  0  0  0  0
    2.6329    3.1452    6.3117 H   0  0  0  0  0  0
    9.0104    2.0792    4.7985 H   0  0  0  0  0  0
    9.0365    5.1629    6.9139 H   0  0  0  0  0  0
   11.1454    2.0301    4.9351 H   0  0  0  0  0  0
   14.7193    1.5640    4.5979 H   0  0  0  0  0  0
   13.5107    0.9024    5.6998 H   0  0  0  0  0  0
   13.0565    1.5629    4.1111 H   0  0  0  0  0  0
   14.3219    6.1549    8.7437 H   0  0  0  0  0  0
   12.9436    5.1587    9.0942 H   0  0  0  0  0  0
   14.4996    4.3947    8.7091 H   0  0  0  0  0  0
   11.2794    8.4633    7.8031 H   0  0  0  0  0  0
   12.6087    7.6382    6.9989 H   0  0  0  0  0  0
   11.0281    7.7711    6.2021 H   0  0  0  0  0  0
  1  2  1  0  0  0
  1  3  2  0  0  0
  1  4  1  0  0  0
  2 34  1  0  0  0
  2 35  1  0  0  0
  2 36  1  0  0  0
  4  5  1  0  0  0
  4 37  1  0  0  0
  5  6  1  0  0  0
  5 10  2  0  0  0
  6  7  2  0  0  0
  6 11  1  0  0  0
  7  8  1  0  0  0
  7 38  1  0  0  0
  8  9  2  0  0  0
  8 39  1  0  0  0
  9 10  1  0  0  0
  9 40  1  0  0  0
 10 41  1  0  0  0
 11 17  1  0  0  0
 11 42  1  0  0  0
 11 43  1  0  0  0
 12 13  1  0  0  0
 12 17  1  0  0  0
 12 20  1  0  0  0
 13 14  1  0  0  0
 13 18  2  0  0  0
 14 15  2  0  0  0
 15 16  1  0  0  0
 15 21  1  0  0  0
 16 17  1  0  0  0
 16 44  1  0  0  0
 17 45  1  0  0  0
 18 19  1  0  0  0
 19 20  2  0  0  0
 19 46  1  0  0  0
 20 47  1  0  0  0
 21 22  1  0  0  0
 21 48  1  0  0  0
 22 23  1  0  0  0
 22 27  2  0  0  0
 23 24  2  0  0  0
 23 49  1  0  0  0
 24 25  1  0  0  0
 24 32  1  0  0  0
 25 26  2  0  0  0
 25 30  1  0  0  0
 26 27  1  0  0  0
 26 28  1  0  0  0
 27 50  1  0  0  0
 28 29  1  0  0  0
 29 51  1  0  0  0
 29 52  1  0  0  0
 29 53  1  0  0  0
 30 31  1  0  0  0
 31 54  1  0  0  0
 31 55  1  0  0  0
 31 56  1  0  0  0
 32 33  1  0  0  0
 33 57  1  0  0  0
 33 58  1  0  0  0
 33 59  1  0  0  0
M  END
> <s_m_entry_id>
47733

> <s_m_entry_name>
dock_pv.266

> <s_m_Source_Path>
/home/csk/Desktop/cluster/DUD-E-result/fak1

> <s_m_Source_File>
dock_pv.maegz

> <i_m_Source_File_Index>
266

> <chembl_id>
CHEMBL3393289

> <chembl_pref_name>
None

> <i_lp_mmshare_version>
53161

> <i_f3d_flags>
0

> <r_lp_tautomer_probability>
1

> <s_lp_Force_Field>
OPLS_2005

> <r_lp_Energy>
42.071786

> <b_lp_Chiralities_Consistent>
1

> <s_lp_Variant>
CHEMBL2695_lig429-1

> <s_i_glide_gridfile>
glide-grid_3bz3

> <i_i_glide_lignum>
481

> <i_i_glide_rotatable_bonds>
9

> <r_i_docking_score>
-7.08828376361992

> <r_i_glide_ligand_efficiency>
-0.214796477685452

> <r_i_glide_ligand_efficiency_sa>
-0.688967075335277

> <r_i_glide_ligand_efficiency_ln>
-1.57639760785995

> <r_i_glide_gscore>
-7.08828376361992

> <r_i_glide_lipo>
-3.13118389327976

> <r_i_glide_hbond>
-0.391886194002967

> <r_i_glide_metal>
0

> <r_i_glide_rewards>
-0.68412155327704

> <r_i_glide_evdw>
-46.1502723693848

> <r_i_glide_ecoul>
-5.80429029464722

> <r_i_glide_erotb>
0.493970374947124

> <r_i_glide_esite>
-0.196905335340954

> <r_i_glide_emodel>
-66.7820593013902

> <r_i_glide_energy>
-51.954562664032

> <r_i_glide_einternal>
15.2582931518555

> <i_i_glide_confnum>
9

> <i_i_glide_posenum>
317

> <r_i_glide_eff_state_penalty>
0

> <s_user_duplicate_titles>
CHEMBL2695_lig429

> <s_m_subgroup_title>
dock_pv

> <s_m_subgroupid>
dock_pv

> <b_m_subgroup_collapsed>
1

$$$$
CHEMBL2695_lig2167
                    3D
 Schrodinger Suite 2021-1.
 39 40  0  0  1  0            999 V2000
    8.7699    4.3628    7.0462 O   0  0  0  0  0  0
    9.8886    3.0952    5.5314 N   0  0  0  0  0  0
   13.9233    3.8449    6.4423 N   0  0  0  0  0  0
    4.1529    2.3689    9.5090 N   0  0  0  0  0  0
    7.4380    3.2542    5.3484 C   0  0  2  0  0  0
    8.7673    3.6400    6.0494 C   0  0  0  0  0  0
    5.3196    3.2860    7.5506 C   0  0  1  0  0  0
   11.2145    3.3623    5.9086 C   0  0  0  0  0  0
    6.3639    4.3719    5.4255 C   0  0  0  0  0  0
    6.8957    1.9630    5.9946 C   0  0  0  0  0  0
    5.7409    4.5951    6.8242 C   0  0  0  0  0  0
    6.3741    2.1480    7.4320 C   0  0  0  0  0  0
    4.8230    3.5507    8.9975 C   0  0  2  0  0  0
   12.1740    2.3775    5.6448 C   0  0  0  0  0  0
   11.6296    4.5927    6.4462 C   0  0  0  0  0  0
   13.5145    2.6686    5.9089 C   0  0  0  0  0  0
   12.9848    4.7835    6.7090 C   0  0  0  0  0  0
    5.9336    3.9248   10.0021 C   0  0  0  0  0  0
    9.7609    2.3712    4.8401 H   0  0  0  0  0  0
    4.8080    1.5967    9.4846 H   0  0  0  0  0  0
    3.9835    2.5252   10.4979 H   0  0  0  0  0  0
    7.7091    3.0507    4.3091 H   0  0  0  0  0  0
    4.4740    2.9295    6.9605 H   0  0  0  0  0  0
    5.5752    4.1114    4.7178 H   0  0  0  0  0  0
    6.7351    5.2936    4.9747 H   0  0  0  0  0  0
    7.6315    1.1630    5.9164 H   0  0  0  0  0  0
    6.1028    1.5691    5.3566 H   0  0  0  0  0  0
    4.8971    5.2851    6.7667 H   0  0  0  0  0  0
    6.4742    5.1214    7.4314 H   0  0  0  0  0  0
    7.2219    2.3658    8.0818 H   0  0  0  0  0  0
    5.9704    1.2073    7.8087 H   0  0  0  0  0  0
    4.0883    4.3580    8.9736 H   0  0  0  0  0  0
   11.8983    1.4278    5.2109 H   0  0  0  0  0  0
   10.9365    5.3964    6.6421 H   0  0  0  0  0  0
   14.2911    1.9633    5.6716 H   0  0  0  0  0  0
   13.3419    5.7154    7.1251 H   0  0  0  0  0  0
    6.5333    4.7628    9.6504 H   0  0  0  0  0  0
    6.6199    3.0961   10.1897 H   0  0  0  0  0  0
    5.5219    4.2285   10.9658 H   0  0  0  0  0  0
  1  6  2  0  0  0
  2  6  1  0  0  0
  2  8  1  0  0  0
  2 19  1  0  0  0
  3 16  2  0  0  0
  3 17  1  0  0  0
  4 13  1  0  0  0
  4 20  1  0  0  0
  4 21  1  0  0  0
  5  6  1  0  0  0
  5  9  1  0  0  0
  5 10  1  0  0  0
  5 22  1  0  0  0
  7 11  1  0  0  0
  7 12  1  0  0  0
  7 13  1  0  0  0
  7 23  1  0  0  0
  8 14  2  0  0  0
  8 15  1  0  0  0
  9 11  1  0  0  0
  9 24  1  0  0  0
  9 25  1  0  0  0
 10 12  1  0  0  0
 10 26  1  0  0  0
 10 27  1  0  0  0
 11 28  1  0  0  0
 11 29  1  0  0  0
 12 30  1  0  0  0
 12 31  1  0  0  0
 13 18  1  0  0  0
 13 32  1  0  0  0
 14 16  1  0  0  0
 14 33  1  0  0  0
 15 17  2  0  0  0
 15 34  1  0  0  0
 16 35  1  0  0  0
 17 36  1  0  0  0
 18 37  1  0  0  0
 18 38  1  0  0  0
 18 39  1  0  0  0
M  END
> <s_m_entry_id>
47734

> <s_m_entry_name>
dock_pv.267

> <s_m_Source_Path>
/home/csk/Desktop/cluster/DUD-E-result/fak1

> <s_m_Source_File>
dock_pv.maegz

> <i_m_Source_File_Index>
267

> <chembl_id>
CHEMBL1994526

> <chembl_pref_name>
None

> <i_lp_mmshare_version>
53161

> <i_f3d_flags>
0

> <r_lp_tautomer_probability>
1

> <s_lp_Force_Field>
OPLS_2005

> <r_lp_Energy>
20.810281

> <b_lp_Chiralities_Consistent>
1

> <s_lp_Variant>
CHEMBL2695_lig2167-3

> <s_i_glide_gridfile>
glide-grid_3bz3

> <i_i_glide_lignum>
2632

> <i_i_glide_rotatable_bonds>
4

> <r_i_docking_score>
-7.08752874368525

> <r_i_glide_ligand_efficiency>
-0.393751596871403

> <r_i_glide_ligand_efficiency_sa>
-1.03192110796253

> <r_i_glide_ligand_efficiency_ln>
-1.8218127173322

> <r_i_glide_gscore>
-7.08752874368525

> <r_i_glide_lipo>
-2.31712974249172

> <r_i_glide_hbond>
-0.516575339633081

> <r_i_glide_metal>
0

> <r_i_glide_rewards>
-2.62881151496004

> <r_i_glide_evdw>
-28.6842937469482

> <r_i_glide_ecoul>
-6.97571134567261

> <r_i_glide_erotb>
0.855559242597892

> <r_i_glide_esite>
0

> <r_i_glide_emodel>
-47.2066654851386

> <r_i_glide_energy>
-35.6600050926208

> <r_i_glide_einternal>
6.78526926040649

> <i_i_glide_confnum>
2

> <i_i_glide_posenum>
359

> <r_i_glide_eff_state_penalty>
0

> <s_user_duplicate_titles>
CHEMBL2695_lig2167

> <s_m_subgroup_title>
dock_pv

> <s_m_subgroupid>
dock_pv

> <b_m_subgroup_collapsed>
1

$$$$
CHEMBL2695_lig1922
                    3D
 Schrodinger Suite 2021-1.
 24 26  0  0  1  0            999 V2000
   11.5220    7.5415    7.8692 I   0  0  0  0  0  0
   14.3220    3.1630    6.5255 O   0  0  0  0  0  0
   10.4197    1.9889    5.2738 N   0  0  0  0  0  0
   13.3620    1.7762    5.0954 N   0  0  0  0  0  0
    9.7060    3.9627    6.3387 N   0  0  0  0  0  0
    9.9092    5.1630    6.9052 N   0  0  0  0  0  0
   12.0607    3.6388    6.0956 C   0  0  0  0  0  0
   10.7409    3.1912    5.9090 C   0  0  0  0  0  0
   13.3202    2.8358    5.9090 C   0  0  0  0  0  0
   11.0781    1.1630    4.3546 C   0  0  0  0  0  0
   12.4855    1.1630    4.1961 C   0  0  0  0  0  0
   12.2611    4.9110    6.6510 C   0  0  0  0  0  0
   11.1640    5.6528    7.0402 C   0  0  0  0  0  0
   10.3220    0.3163    3.5357 C   0  0  0  0  0  0
   13.0458    0.4618    3.1090 C   0  0  0  0  0  0
   10.9029   -0.4527    2.5322 C   0  0  0  0  0  0
   12.2692   -0.3624    2.3014 C   0  0  0  0  0  0
    9.4189    1.8536    5.2509 H   0  0  0  0  0  0
   14.2978    1.3939    5.0821 H   0  0  0  0  0  0
   13.2483    5.3225    6.8188 H   0  0  0  0  0  0
    9.2471    0.2801    3.6520 H   0  0  0  0  0  0
   14.1146    0.4822    2.9492 H   0  0  0  0  0  0
   10.2836   -1.0856    1.9130 H   0  0  0  0  0  0
   12.7269   -0.9355    1.5090 H   0  0  0  0  0  0
  1 13  1  0  0  0
  2  9  2  0  0  0
  3  8  1  0  0  0
  3 10  1  0  0  0
  3 18  1  0  0  0
  4  9  1  0  0  0
  4 11  1  0  0  0
  4 19  1  0  0  0
  5  6  2  0  0  0
  5  8  1  0  0  0
  6 13  1  0  0  0
  7  8  2  0  0  0
  7  9  1  0  0  0
  7 12  1  0  0  0
 10 11  1  0  0  0
 10 14  2  0  0  0
 11 15  2  0  0  0
 12 13  2  0  0  0
 12 20  1  0  0  0
 14 16  1  0  0  0
 14 21  1  0  0  0
 15 17  1  0  0  0
 15 22  1  0  0  0
 16 17  2  0  0  0
 16 23  1  0  0  0
 17 24  1  0  0  0
M  END
> <s_m_entry_id>
47735

> <s_m_entry_name>
dock_pv.268

> <s_m_Source_Path>
/home/csk/Desktop/cluster/DUD-E-result/fak1

> <s_m_Source_File>
dock_pv.maegz

> <i_m_Source_File_Index>
268

> <chembl_id>
CHEMBL1977346

> <chembl_pref_name>
None

> <i_lp_mmshare_version>
53161

> <i_f3d_flags>
0

> <r_lp_tautomer_probability>
0.999989120118012

> <s_lp_Force_Field>
OPLS_2005

> <r_lp_Energy>
29.924697

> <b_lp_Chiralities_Consistent>
1

> <s_lp_Variant>
CHEMBL2695_lig1922-1

> <s_i_glide_gridfile>
glide-grid_3bz3

> <i_i_glide_lignum>
2239

> <i_i_glide_rotatable_bonds>
0

> <r_i_docking_score>
-7.08221893968149

> <r_i_glide_ligand_efficiency>
-0.416601114098911

> <r_i_glide_ligand_efficiency_sa>
-1.0711987743186

> <r_i_glide_ligand_efficiency_ln>
-1.84759320810129

> <r_i_glide_gscore>
-7.08221893968149

> <r_i_glide_lipo>
-2.15158976121487

> <r_i_glide_hbond>
-0.565538282522546

> <r_i_glide_metal>
0

> <r_i_glide_rewards>
-2.17883670454545

> <r_i_glide_evdw>
-25.779670715332

> <r_i_glide_ecoul>
-5.98180437088013

> <r_i_glide_erotb>
0

> <r_i_glide_esite>
0

> <r_i_glide_emodel>
-45.2963412980284

> <r_i_glide_energy>
-31.7614750862122

> <r_i_glide_einternal>
0

> <i_i_glide_confnum>
1

> <i_i_glide_posenum>
18

> <r_i_glide_eff_state_penalty>
0

> <s_user_duplicate_titles>
CHEMBL2695_lig1922

> <s_m_subgroup_title>
dock_pv

> <s_m_subgroupid>
dock_pv

> <b_m_subgroup_collapsed>
1

$$$$
CHEMBL2695_lig2134
                    3D
 Schrodinger Suite 2021-1.
 72 78  0  0  1  0            999 V2000
    9.2497    3.0357    4.7087 N   0  0  0  0  0  0
    9.8066    1.8039    4.7535 C   0  0  0  0  0  0
    9.1696    0.7631    4.7041 O   0  0  0  0  0  0
   11.3287    1.7053    4.9583 C   0  0  0  0  0  0
   12.1422    0.9221    3.9094 C   0  0  0  0  0  0
   13.5221    1.1629    3.8565 C   0  0  0  0  0  0
   14.3309    0.4637    2.9668 C   0  0  0  0  0  0
   13.7664   -0.4863    2.1224 C   0  0  0  0  0  0
   12.4004   -0.7502    2.1729 C   0  0  0  0  0  0
   11.5921   -0.0617    3.0761 C   0  0  0  0  0  0
    7.5767    4.7408    4.9682 C   0  0  0  0  0  0
    6.2612    5.1631    5.1592 C   0  0  0  0  0  0
    5.2181    4.2484    5.1225 C   0  0  0  0  0  0
    5.4876    2.9056    4.8744 C   0  0  0  0  0  0
    6.8086    2.4730    4.7094 C   0  0  0  0  0  0
    7.8773    3.3872    4.7740 C   0  0  0  0  0  0
    4.3601    1.9612    4.7296 C   0  0  0  0  0  0
    3.4012    1.6013    5.6890 C   0  0  0  0  0  0
    4.1035    1.4648    3.5358 N   0  0  0  0  0  0
    3.0317    0.7338    3.6925 C   0  0  0  0  0  0
    2.5423    0.7630    4.9838 N   0  0  0  0  0  0
    1.4100   -0.0187    5.1797 C   0  0  0  0  0  0
    1.0051   -0.6433    4.0177 C   0  0  0  0  0  0
    2.0433   -0.2724    2.6505 S   0  0  0  0  0  0
    3.2181    2.0087    7.1200 C   0  0  0  0  0  0
    1.9634    2.0199    7.7402 C   0  0  0  0  0  0
    1.9217    2.3655    9.0888 C   0  0  0  0  0  0
    4.3475    2.3700    7.7944 N   0  0  0  0  0  0
    4.2131    2.6875    9.1122 C   0  0  0  0  0  0
    3.0363    2.6802    9.7904 N   0  0  0  0  0  0
    5.3174    3.0932    9.8793 N   0  0  0  0  0  0
    6.5964    3.5464    9.5278 C   0  0  0  0  0  0
    7.2932    3.0543    8.4276 C   0  0  0  0  0  0
    8.5033    3.6317    8.0607 C   0  0  0  0  0  0
    9.0440    4.7277    8.7514 C   0  0  0  0  0  0
    8.3715    5.1414    9.9090 C   0  0  0  0  0  0
    7.1748    4.5453   10.3075 C   0  0  0  0  0  0
   10.1705    5.4162    8.2697 N   0  0  0  0  0  0
   11.2142    5.9629    9.1610 C   0  0  0  0  0  0
   12.2247    6.9403    8.5087 C   0  0  0  0  0  0
   12.6928    6.4432    7.2667 O   0  0  0  0  0  0
   11.6083    6.2309    6.3808 C   0  0  0  0  0  0
   10.7436    5.1033    6.9531 C   0  0  0  0  0  0
    9.8892    3.8122    4.6976 H   0  0  0  0  0  0
   11.4763    1.1949    5.9092 H   0  0  0  0  0  0
   11.7556    2.6976    5.1086 H   0  0  0  0  0  0
   13.9762    1.8895    4.5142 H   0  0  0  0  0  0
   15.3942    0.6489    2.9444 H   0  0  0  0  0  0
   14.3960   -1.0348    1.4385 H   0  0  0  0  0  0
   11.9678   -1.4994    1.5269 H   0  0  0  0  0  0
   10.5416   -0.3073    3.0902 H   0  0  0  0  0  0
    8.3534    5.4865    4.9969 H   0  0  0  0  0  0
    6.0347    6.2035    5.3295 H   0  0  0  0  0  0
    4.1999    4.5867    5.2533 H   0  0  0  0  0  0
    6.9632    1.4261    4.5087 H   0  0  0  0  0  0
    0.9554   -0.0995    6.1539 H   0  0  0  0  0  0
    0.1596   -1.3019    3.8770 H   0  0  0  0  0  0
    1.0545    1.7999    7.2059 H   0  0  0  0  0  0
    0.9845    2.4092    9.6239 H   0  0  0  0  0  0
    5.0771    3.1830   10.8622 H   0  0  0  0  0  0
    6.9026    2.2378    7.8380 H   0  0  0  0  0  0
    9.0117    3.2119    7.2139 H   0  0  0  0  0  0
    8.7218    5.9763   10.4886 H   0  0  0  0  0  0
    6.6574    4.9254   11.1769 H   0  0  0  0  0  0
   10.7136    6.5526    9.9091 H   0  0  0  0  0  0
   11.7435    5.1684    9.6860 H   0  0  0  0  0  0
   13.0817    7.0844    9.1683 H   0  0  0  0  0  0
   11.7779    7.9286    8.3720 H   0  0  0  0  0  0
   11.9594    5.9510    5.3903 H   0  0  0  0  0  0
   11.0288    7.1479    6.2551 H   0  0  0  0  0  0
   11.3050    4.1699    7.0070 H   0  0  0  0  0  0
    9.9343    4.9539    6.2509 H   0  0  0  0  0  0
  1  2  1  0  0  0
  1 16  1  0  0  0
  1 44  1  0  0  0
  2  3  2  0  0  0
  2  4  1  0  0  0
  4  5  1  0  0  0
  4 45  1  0  0  0
  4 46  1  0  0  0
  5  6  1  0  0  0
  5 10  2  0  0  0
  6  7  2  0  0  0
  6 47  1  0  0  0
  7  8  1  0  0  0
  7 48  1  0  0  0
  8  9  2  0  0  0
  8 49  1  0  0  0
  9 10  1  0  0  0
  9 50  1  0  0  0
 10 51  1  0  0  0
 11 16  1  0  0  0
 11 12  2  0  0  0
 11 52  1  0  0  0
 12 13  1  0  0  0
 12 53  1  0  0  0
 13 14  2  0  0  0
 13 54  1  0  0  0
 14 17  1  0  0  0
 14 15  1  0  0  0
 15 16  2  0  0  0
 15 55  1  0  0  0
 17 19  1  0  0  0
 17 18  2  0  0  0
 18 21  1  0  0  0
 18 25  1  0  0  0
 19 20  2  0  0  0
 20 21  1  0  0  0
 20 24  1  0  0  0
 21 22  1  0  0  0
 22 23  2  0  0  0
 22 56  1  0  0  0
 23 24  1  0  0  0
 23 57  1  0  0  0
 25 26  2  0  0  0
 25 28  1  0  0  0
 26 27  1  0  0  0
 26 58  1  0  0  0
 27 30  2  0  0  0
 27 59  1  0  0  0
 28 29  2  0  0  0
 29 31  1  0  0  0
 29 30  1  0  0  0
 31 32  1  0  0  0
 31 60  1  0  0  0
 32 33  2  0  0  0
 32 37  1  0  0  0
 33 34  1  0  0  0
 33 61  1  0  0  0
 34 35  2  0  0  0
 34 62  1  0  0  0
 35 36  1  0  0  0
 35 38  1  0  0  0
 36 37  2  0  0  0
 36 63  1  0  0  0
 37 64  1  0  0  0
 38 39  1  0  0  0
 38 43  1  0  0  0
 39 40  1  0  0  0
 39 65  1  0  0  0
 39 66  1  0  0  0
 40 41  1  0  0  0
 40 67  1  0  0  0
 40 68  1  0  0  0
 41 42  1  0  0  0
 42 43  1  0  0  0
 42 69  1  0  0  0
 42 70  1  0  0  0
 43 71  1  0  0  0
 43 72  1  0  0  0
M  END
> <s_m_entry_id>
47736

> <s_m_entry_name>
dock_pv.269

> <s_m_Source_Path>
/home/csk/Desktop/cluster/DUD-E-result/fak1

> <s_m_Source_File>
dock_pv.maegz

> <i_m_Source_File_Index>
269

> <chembl_id>
CHEMBL1090356

> <chembl_pref_name>
None

> <i_lp_mmshare_version>
53161

> <i_f3d_flags>
0

> <r_lp_tautomer_probability>
0.999999987636

> <s_lp_Force_Field>
OPLS_2005

> <r_lp_Energy>
41.1786

> <b_lp_Chiralities_Consistent>
1

> <s_lp_Variant>
CHEMBL2695_lig2134-1

> <s_i_glide_gridfile>
glide-grid_3bz3

> <i_i_glide_lignum>
2583

> <i_i_glide_rotatable_bonds>
9

> <r_i_docking_score>
-7.08170110215603

> <r_i_glide_ligand_efficiency>
-0.164690723305954

> <r_i_glide_ligand_efficiency_sa>
-0.576977159870391

> <r_i_glide_ligand_efficiency_ln>
-1.48737732716039

> <r_i_glide_gscore>
-7.08170110215603

> <r_i_glide_lipo>
-4.53929606533142

> <r_i_glide_hbond>
-0.32

> <r_i_glide_metal>
0

> <r_i_glide_rewards>
-0.379059837182288

> <r_i_glide_evdw>
-45.2011032104492

> <r_i_glide_ecoul>
0.544072926044464

> <r_i_glide_erotb>
0.378640433886497

> <r_i_glide_esite>
-0.0435414119130322

> <r_i_glide_emodel>
-53.3661732118736

> <r_i_glide_energy>
-44.6570302844048

> <r_i_glide_einternal>
12.7101268768311

> <i_i_glide_confnum>
2

> <i_i_glide_posenum>
39

> <r_i_glide_eff_state_penalty>
0

> <s_user_duplicate_titles>
CHEMBL2695_lig2134

> <s_m_subgroup_title>
dock_pv

> <s_m_subgroupid>
dock_pv

> <b_m_subgroup_collapsed>
1

$$$$
CHEMBL2695_lig1993
                    3D
 Schrodinger Suite 2021-1.
 45 48  0  0  1  0            999 V2000
    1.1919    0.7950    8.6844 O   0  0  0  0  0  0
   11.1864    5.6482    6.6951 O   0  0  0  0  0  0
    6.2427    3.6159    9.2103 N   0  0  0  0  0  0
    5.1923    3.1555    9.9090 N   0  0  0  0  0  0
    3.1229    1.9621    9.4778 N   0  0  0  0  0  0
    4.7872    2.5998    7.7972 C   0  0  0  0  0  0
    6.0158    3.3344    7.9478 C   0  0  0  0  0  0
    4.2708    2.5314    9.1052 C   0  0  0  0  0  0
    6.9511    3.7717    6.8829 C   0  0  0  0  0  0
    4.0400    1.9812    6.7726 C   0  0  0  0  0  0
    9.1685    3.8233    5.8834 C   0  0  0  0  0  0
    8.3214    3.4940    6.9477 C   0  0  0  0  0  0
    2.3975    1.4004    8.4761 C   0  0  0  0  0  0
    2.8273    1.3882    7.1454 C   0  0  0  0  0  0
   10.6054    3.4642    5.9083 C   0  0  0  0  0  0
    6.4348    4.4293    5.7664 C   0  0  0  0  0  0
    8.6235    4.4392    4.7563 C   0  0  0  0  0  0
   11.5985    4.3807    6.3094 C   0  0  0  0  0  0
    7.2701    4.7629    4.7091 C   0  0  0  0  0  0
    4.4808    1.8918    5.3228 C   0  0  0  0  0  0
   10.9678    2.1737    5.5093 C   0  0  0  0  0  0
   12.9446    3.9622    6.3065 C   0  0  0  0  0  0
   12.3010    1.7775    5.5090 C   0  0  0  0  0  0
   13.2901    2.6704    5.9089 C   0  0  0  0  0  0
   12.1238    6.5800    7.2348 C   0  0  0  0  0  0
   11.5648    8.0009    7.1085 C   0  0  0  0  0  0
    0.8139    0.5038    7.8536 H   0  0  0  0  0  0
    5.1385    3.2419   10.9193 H   0  0  0  0  0  0
    8.7208    2.9918    7.8146 H   0  0  0  0  0  0
    2.2259    0.9120    6.3846 H   0  0  0  0  0  0
    5.3829    4.6713    5.7116 H   0  0  0  0  0  0
    9.2541    4.6857    3.9154 H   0  0  0  0  0  0
    6.8625    5.2598    3.8429 H   0  0  0  0  0  0
    4.0067    1.0551    4.8082 H   0  0  0  0  0  0
    4.2457    2.8110    4.7870 H   0  0  0  0  0  0
    5.5560    1.7177    5.2658 H   0  0  0  0  0  0
   10.2067    1.4710    5.1987 H   0  0  0  0  0  0
   13.7471    4.6101    6.6194 H   0  0  0  0  0  0
   12.5591    0.7761    5.2024 H   0  0  0  0  0  0
   14.3242    2.3577    5.9076 H   0  0  0  0  0  0
   12.3294    6.3377    8.2783 H   0  0  0  0  0  0
   13.0727    6.5657    6.7091 H   0  0  0  0  0  0
   12.3222    8.7409    7.3639 H   0  0  0  0  0  0
   11.2343    8.2054    6.0900 H   0  0  0  0  0  0
   10.7227    8.1613    7.7756 H   0  0  0  0  0  0
  1 13  1  0  0  0
  1 27  1  0  0  0
  2 18  1  0  0  0
  2 25  1  0  0  0
  3  4  1  0  0  0
  3  7  2  0  0  0
  4  8  1  0  0  0
  4 28  1  0  0  0
  5  8  2  0  0  0
  5 13  1  0  0  0
  6  7  1  0  0  0
  6  8  1  0  0  0
  6 10  2  0  0  0
  7  9  1  0  0  0
  9 12  2  0  0  0
  9 16  1  0  0  0
 10 14  1  0  0  0
 10 20  1  0  0  0
 11 12  1  0  0  0
 11 15  1  0  0  0
 11 17  2  0  0  0
 12 29  1  0  0  0
 13 14  2  0  0  0
 14 30  1  0  0  0
 15 18  1  0  0  0
 15 21  2  0  0  0
 16 19  2  0  0  0
 16 31  1  0  0  0
 17 19  1  0  0  0
 17 32  1  0  0  0
 18 22  2  0  0  0
 19 33  1  0  0  0
 20 34  1  0  0  0
 20 35  1  0  0  0
 20 36  1  0  0  0
 21 23  1  0  0  0
 21 37  1  0  0  0
 22 24  1  0  0  0
 22 38  1  0  0  0
 23 24  2  0  0  0
 23 39  1  0  0  0
 24 40  1  0  0  0
 25 26  1  0  0  0
 25 41  1  0  0  0
 25 42  1  0  0  0
 26 43  1  0  0  0
 26 44  1  0  0  0
 26 45  1  0  0  0
M  END
> <s_m_entry_id>
47737

> <s_m_entry_name>
dock_pv.270

> <s_m_Source_Path>
/home/csk/Desktop/cluster/DUD-E-result/fak1

> <s_m_Source_File>
dock_pv.maegz

> <i_m_Source_File_Index>
270

> <chembl_id>
CHEMBL1983070

> <chembl_pref_name>
None

> <i_lp_mmshare_version>
53161

> <i_f3d_flags>
0

> <r_lp_tautomer_probability>
1

> <s_lp_Force_Field>
OPLS_2005

> <r_lp_Energy>
20.452039

> <b_lp_Chiralities_Consistent>
1

> <s_lp_Variant>
CHEMBL2695_lig1993-1

> <s_i_glide_gridfile>
glide-grid_3bz3

> <i_i_glide_lignum>
2344

> <i_i_glide_rotatable_bonds>
5

> <r_i_docking_score>
-7.07850419924078

> <r_i_glide_ligand_efficiency>
-0.272250161509261

> <r_i_glide_ligand_efficiency_sa>
-0.806540032218529

> <r_i_glide_ligand_efficiency_ln>
-1.66236348472498

> <r_i_glide_gscore>
-7.07850419924078

> <r_i_glide_lipo>
-3.57742943260463

> <r_i_glide_hbond>
-0.295744500116014

> <r_i_glide_metal>
0

> <r_i_glide_rewards>
-1.18785686477718

> <r_i_glide_evdw>
-36.7411575317383

> <r_i_glide_ecoul>
-4.29842805862427

> <r_i_glide_erotb>
0.477779114191055

> <r_i_glide_esite>
-0.0134304305534601

> <r_i_glide_emodel>
-56.5912112313602

> <r_i_glide_energy>
-41.0395855903625

> <r_i_glide_einternal>
2.57442927360535

> <i_i_glide_confnum>
15

> <i_i_glide_posenum>
157

> <r_i_glide_eff_state_penalty>
0

> <s_user_duplicate_titles>
CHEMBL2695_lig1993

> <s_m_subgroup_title>
dock_pv

> <s_m_subgroupid>
dock_pv

> <b_m_subgroup_collapsed>
1

$$$$
CHEMBL2695_lig1351
                    3D
 Schrodinger Suite 2021-1.
 72 77  0  0  1  0            999 V2000
    6.7433    4.3664   11.3763 C   0  0  0  0  0  0
    6.6121    3.9637    9.9841 N   0  0  0  0  0  0
    7.6517    3.9686    9.1363 C   0  0  0  0  0  0
    8.7611    4.3357    9.5174 O   0  0  0  0  0  0
    7.4070    3.5179    7.7003 C   0  0  0  0  0  0
    6.2060    2.8569    7.3749 C   0  0  0  0  0  0
    5.9751    2.3623    6.0962 C   0  0  0  0  0  0
    6.9388    2.5068    5.1088 C   0  0  0  0  0  0
    8.1232    3.1762    5.3914 C   0  0  0  0  0  0
    8.3766    3.6787    6.6741 C   0  0  0  0  0  0
    9.5854    4.3633    6.9030 N   0  0  0  0  0  0
   10.9002    4.0676    6.5261 C   0  0  0  0  0  0
   11.1488    2.9371    5.8148 N   0  0  0  0  0  0
   12.4454    2.6017    5.5802 C   0  0  0  0  0  0
   12.7631    1.5623    4.7091 N   0  0  0  0  0  0
   11.9933    0.7628    3.8342 C   0  0  0  0  0  0
   10.6148    0.5867    3.9725 C   0  0  0  0  0  0
    9.9223   -0.3158    3.1699 C   0  0  0  0  0  0
   10.5581   -1.0997    2.2037 C   0  0  0  0  0  0
    9.7838   -2.0477    1.5235 N   0  0  0  0  0  0
    8.4775   -1.6745    0.9462 C   0  0  0  0  0  0
    7.5260   -2.8822    0.8181 C   0  0  0  0  0  0
    8.1348   -3.8866    0.0180 O   0  0  0  0  0  0
    9.3501   -4.3473    0.5888 C   0  0  0  0  0  0
   10.3471   -3.1796    0.7656 C   0  0  0  0  0  0
   11.9459   -0.9168    2.0406 C   0  0  0  0  0  0
   12.6096   -1.6381    1.0610 O   0  0  0  0  0  0
   14.0097   -1.7898    1.2841 C   0  0  0  0  0  0
   14.5959   -0.3969    1.5572 C   0  0  0  0  0  0
   14.0232    0.1613    2.7369 O   0  0  0  0  0  0
   12.6468    0.0242    2.8319 C   0  0  0  0  0  0
   13.5213    3.2913    6.0175 N   0  0  0  0  0  0
   13.2316    4.4104    6.7098 C   0  0  0  0  0  0
   14.1716    5.1665    7.3793 N   0  0  0  0  0  0
   13.5467    6.3423    7.9668 C   0  0  0  0  0  0
   12.0219    6.1601    7.7800 C   0  0  0  0  0  0
   11.3915    7.3280    6.9883 C   0  0  0  0  0  0
   11.3874    6.0702    9.1790 C   0  0  0  0  0  0
   11.9519    4.8670    6.9840 C   0  0  0  0  0  0
    5.9221    3.9631   11.9487 H   0  0  0  0  0  0
    6.7239    5.4533   11.4573 H   0  0  0  0  0  0
    7.6664    4.0016   11.8303 H   0  0  0  0  0  0
    5.6957    3.6826    9.6672 H   0  0  0  0  0  0
    5.4364    2.6873    8.1134 H   0  0  0  0  0  0
    5.0580    1.8341    5.8794 H   0  0  0  0  0  0
    6.7704    2.0915    4.1256 H   0  0  0  0  0  0
    8.8478    3.2966    4.5984 H   0  0  0  0  0  0
    9.5511    4.9545    7.7182 H   0  0  0  0  0  0
   13.7576    1.4625    4.5651 H   0  0  0  0  0  0
   10.0462    1.0912    4.7345 H   0  0  0  0  0  0
    8.8664   -0.4302    3.3642 H   0  0  0  0  0  0
    7.9684   -0.9248    1.5499 H   0  0  0  0  0  0
    8.6394   -1.2098   -0.0277 H   0  0  0  0  0  0
    6.5943   -2.5700    0.3465 H   0  0  0  0  0  0
    7.2625   -3.2723    1.8057 H   0  0  0  0  0  0
    9.7781   -5.1028   -0.0731 H   0  0  0  0  0  0
    9.1601   -4.8422    1.5421 H   0  0  0  0  0  0
   10.7157   -2.8342   -0.1999 H   0  0  0  0  0  0
   11.2024   -3.5790    1.3110 H   0  0  0  0  0  0
   14.1832   -2.4407    2.1430 H   0  0  0  0  0  0
   14.4766   -2.2524    0.4163 H   0  0  0  0  0  0
   15.6827   -0.4356    1.6422 H   0  0  0  0  0  0
   14.3217    0.2402    0.7148 H   0  0  0  0  0  0
   15.1803    5.1369    7.4870 H   0  0  0  0  0  0
   13.8386    6.3939    9.0173 H   0  0  0  0  0  0
   13.9200    7.2557    7.5092 H   0  0  0  0  0  0
   11.4034    8.2551    7.5628 H   0  0  0  0  0  0
   11.9213    7.5164    6.0608 H   0  0  0  0  0  0
   10.3543    7.1166    6.7128 H   0  0  0  0  0  0
   11.7399    6.8870    9.8026 H   0  0  0  0  0  0
   10.3063    6.1593    9.1354 H   0  0  0  0  0  0
   11.6608    5.1640    9.7126 H   0  0  0  0  0  0
  1  2  1  0  0  0
  1 40  1  0  0  0
  1 41  1  0  0  0
  1 42  1  0  0  0
  2  3  1  0  0  0
  2 43  1  0  0  0
  3  4  2  0  0  0
  3  5  1  0  0  0
  5  6  2  0  0  0
  5 10  1  0  0  0
  6  7  1  0  0  0
  6 44  1  0  0  0
  7  8  2  0  0  0
  7 45  1  0  0  0
  8  9  1  0  0  0
  8 46  1  0  0  0
  9 10  2  0  0  0
  9 47  1  0  0  0
 10 11  1  0  0  0
 11 12  1  0  0  0
 11 48  1  0  0  0
 12 13  2  0  0  0
 12 39  1  0  0  0
 13 14  1  0  0  0
 14 15  1  0  0  0
 14 32  2  0  0  0
 15 16  1  0  0  0
 15 49  1  0  0  0
 16 17  2  0  0  0
 16 31  1  0  0  0
 17 18  1  0  0  0
 17 50  1  0  0  0
 18 19  2  0  0  0
 18 51  1  0  0  0
 19 20  1  0  0  0
 19 26  1  0  0  0
 20 21  1  0  0  0
 20 25  1  0  0  0
 21 22  1  0  0  0
 21 52  1  0  0  0
 21 53  1  0  0  0
 22 23  1  0  0  0
 22 54  1  0  0  0
 22 55  1  0  0  0
 23 24  1  0  0  0
 24 25  1  0  0  0
 24 56  1  0  0  0
 24 57  1  0  0  0
 25 58  1  0  0  0
 25 59  1  0  0  0
 26 27  1  0  0  0
 26 31  2  0  0  0
 27 28  1  0  0  0
 28 29  1  0  0  0
 28 60  1  0  0  0
 28 61  1  0  0  0
 29 30  1  0  0  0
 29 62  1  0  0  0
 29 63  1  0  0  0
 30 31  1  0  0  0
 32 33  1  0  0  0
 33 34  1  0  0  0
 33 39  2  0  0  0
 34 35  1  0  0  0
 34 64  1  0  0  0
 35 36  1  0  0  0
 35 65  1  0  0  0
 35 66  1  0  0  0
 36 37  1  0  0  0
 36 38  1  0  0  0
 36 39  1  0  0  0
 37 67  1  0  0  0
 37 68  1  0  0  0
 37 69  1  0  0  0
 38 70  1  0  0  0
 38 71  1  0  0  0
 38 72  1  0  0  0
M  END
> <s_m_entry_id>
47738

> <s_m_entry_name>
dock_pv.271

> <s_m_Source_Path>
/home/csk/Desktop/cluster/DUD-E-result/fak1

> <s_m_Source_File>
dock_pv.maegz

> <i_m_Source_File_Index>
271

> <chembl_id>
CHEMBL3948194

> <chembl_pref_name>
None

> <i_lp_mmshare_version>
53161

> <i_f3d_flags>
0

> <r_lp_tautomer_probability>
1

> <s_lp_Force_Field>
OPLS_2005

> <r_lp_Energy>
54.225427

> <b_lp_Chiralities_Consistent>
1

> <s_lp_Variant>
CHEMBL2695_lig1351-1

> <s_i_glide_gridfile>
glide-grid_3bz3

> <i_i_glide_lignum>
1481

> <i_i_glide_rotatable_bonds>
7

> <r_i_docking_score>
-7.0717809670738

> <r_i_glide_ligand_efficiency>
-0.181327717104456

> <r_i_glide_ligand_efficiency_sa>
-0.614920628429335

> <r_i_glide_ligand_efficiency_ln>
-1.51639058378113

> <r_i_glide_gscore>
-7.0717809670738

> <r_i_glide_lipo>
-3.05094959439455

> <r_i_glide_hbond>
-0.221292718047999

> <r_i_glide_metal>
0

> <r_i_glide_rewards>
-0.928888986537578

> <r_i_glide_evdw>
-45.779613494873

> <r_i_glide_ecoul>
-6.54233264923096

> <r_i_glide_erotb>
0.437805318625696

> <r_i_glide_esite>
-0.0381244145910717

> <r_i_glide_emodel>
-66.8345971455215

> <r_i_glide_energy>
-52.321946144104

> <r_i_glide_einternal>
9.81913280487061

> <i_i_glide_confnum>
11

> <i_i_glide_posenum>
328

> <r_i_glide_eff_state_penalty>
0

> <s_user_duplicate_titles>
CHEMBL2695_lig1351

> <s_m_subgroup_title>
dock_pv

> <s_m_subgroupid>
dock_pv

> <b_m_subgroup_collapsed>
1

$$$$
CHEMBL2695_lig1737
                    3D
 Schrodinger Suite 2021-1.
 40 42  0  0  1  0            999 V2000
   11.3831    5.1138    6.9483 N   0  0  0  0  0  0
   13.2793    2.3616    5.5567 C   0  0  0  0  0  0
   13.1582    3.5789    6.1447 N   0  0  0  0  0  0
   11.8833    3.9769    6.3090 C   0  0  0  0  0  0
   10.7496    3.2353    5.8949 C   0  0  0  0  0  0
   11.0119    2.0051    5.2707 C   0  0  0  0  0  0
   12.2817    1.5611    5.1153 N   0  0  0  0  0  0
   10.0296    5.1368    6.8458 N   0  0  0  0  0  0
    9.6270    4.0410    6.2481 C   0  0  0  0  0  0
    9.9964    1.2083    4.7588 N   0  0  0  0  0  0
    8.1814    3.7670    6.0272 C   0  0  0  0  0  0
    7.4122    4.6861    5.3130 C   0  0  0  0  0  0
    6.0542    4.4634    5.1089 C   0  0  0  0  0  0
    5.4674    3.2941    5.5915 C   0  0  0  0  0  0
    6.2355    2.3629    6.2935 C   0  0  0  0  0  0
    7.5928    2.5960    6.5085 C   0  0  0  0  0  0
    3.9914    3.0324    5.3563 C   0  0  0  0  0  0
   12.0543    6.2181    7.6958 C   0  0  0  0  0  0
   11.7561    7.5545    6.9791 C   0  0  0  0  0  0
   13.5811    6.0144    7.7893 C   0  0  0  0  0  0
   11.5130    6.2874    9.1408 C   0  0  0  0  0  0
   14.2859    1.9855    5.4261 H   0  0  0  0  0  0
    9.0395    1.5337    4.7932 H   0  0  0  0  0  0
   10.2387    0.3608    4.2735 H   0  0  0  0  0  0
    7.8819    5.5629    4.9074 H   0  0  0  0  0  0
    5.4660    5.1849    4.5603 H   0  0  0  0  0  0
    5.7908    1.4467    6.6570 H   0  0  0  0  0  0
    8.1785    1.8689    7.0517 H   0  0  0  0  0  0
    3.4359    3.9646    5.2465 H   0  0  0  0  0  0
    3.8490    2.4276    4.4597 H   0  0  0  0  0  0
    3.5535    2.5051    6.2044 H   0  0  0  0  0  0
   10.7222    7.8629    7.1097 H   0  0  0  0  0  0
   12.3776    8.3666    7.3598 H   0  0  0  0  0  0
   11.9199    7.4815    5.9090 H   0  0  0  0  0  0
   13.8380    5.0993    8.3242 H   0  0  0  0  0  0
   14.0417    5.9539    6.8069 H   0  0  0  0  0  0
   14.0641    6.8375    8.3173 H   0  0  0  0  0  0
   11.7962    5.4168    9.7297 H   0  0  0  0  0  0
   11.9221    7.1628    9.6466 H   0  0  0  0  0  0
   10.4259    6.3631    9.1722 H   0  0  0  0  0  0
  1  4  1  0  0  0
  1  8  1  0  0  0
  1 18  1  0  0  0
  2  3  2  0  0  0
  2  7  1  0  0  0
  2 22  1  0  0  0
  3  4  1  0  0  0
  4  5  2  0  0  0
  5  6  1  0  0  0
  5  9  1  0  0  0
  6  7  2  0  0  0
  6 10  1  0  0  0
  8  9  2  0  0  0
  9 11  1  0  0  0
 10 23  1  0  0  0
 10 24  1  0  0  0
 11 12  2  0  0  0
 11 16  1  0  0  0
 12 13  1  0  0  0
 12 25  1  0  0  0
 13 14  2  0  0  0
 13 26  1  0  0  0
 14 15  1  0  0  0
 14 17  1  0  0  0
 15 16  2  0  0  0
 15 27  1  0  0  0
 16 28  1  0  0  0
 17 29  1  0  0  0
 17 30  1  0  0  0
 17 31  1  0  0  0
 18 19  1  0  0  0
 18 20  1  0  0  0
 18 21  1  0  0  0
 19 32  1  0  0  0
 19 33  1  0  0  0
 19 34  1  0  0  0
 20 35  1  0  0  0
 20 36  1  0  0  0
 20 37  1  0  0  0
 21 38  1  0  0  0
 21 39  1  0  0  0
 21 40  1  0  0  0
M  END
> <s_m_entry_id>
47739

> <s_m_entry_name>
dock_pv.272

> <s_m_Source_Path>
/home/csk/Desktop/cluster/DUD-E-result/fak1

> <s_m_Source_File>
dock_pv.maegz

> <i_m_Source_File_Index>
272

> <chembl_id>
CHEMBL306380

> <chembl_pref_name>
None

> <i_lp_mmshare_version>
53161

> <i_f3d_flags>
0

> <r_lp_tautomer_probability>
1

> <s_lp_Force_Field>
OPLS_2005

> <r_lp_Energy>
19.078647

> <b_lp_Chiralities_Consistent>
1

> <s_lp_Variant>
CHEMBL2695_lig1737-1

> <s_i_glide_gridfile>
glide-grid_3bz3

> <i_i_glide_lignum>
1973

> <i_i_glide_rotatable_bonds>
2

> <r_i_docking_score>
-7.07151205182678

> <r_i_glide_ligand_efficiency>
-0.336738669134609

> <r_i_glide_ligand_efficiency_sa>
-0.929036454455051

> <r_i_glide_ligand_efficiency_ln>
-1.74841706547861

> <r_i_glide_gscore>
-7.07151205182678

> <r_i_glide_lipo>
-2.54322468940288

> <r_i_glide_hbond>
0

> <r_i_glide_metal>
0

> <r_i_glide_rewards>
-2.81066593452908

> <r_i_glide_evdw>
-33.9920463562012

> <r_i_glide_ecoul>
-1.64238882064819

> <r_i_glide_erotb>
0.228339213012472

> <r_i_glide_esite>
0

> <r_i_glide_emodel>
-47.6900397507711

> <r_i_glide_energy>
-35.6344351768494

> <r_i_glide_einternal>
2.96894264221191

> <i_i_glide_confnum>
2

> <i_i_glide_posenum>
291

> <r_i_glide_eff_state_penalty>
0

> <s_user_duplicate_titles>
CHEMBL2695_lig1737

> <s_m_subgroup_title>
dock_pv

> <s_m_subgroupid>
dock_pv

> <b_m_subgroup_collapsed>
1

$$$$
CHEMBL2695_lig1962
                    3D
 Schrodinger Suite 2021-1.
 34 36  0  0  1  0            999 V2000
    3.9220    6.0564    7.4200 Br  0  0  0  0  0  0
   10.8139    5.5630    7.8573 S   0  0  0  0  0  0
   10.0298    0.4969    4.1579 O   0  0  0  0  0  0
    5.8920    1.5630    3.9090 O   0  0  0  0  0  0
    8.4122    1.8936    4.9061 N   0  0  0  0  0  0
   13.1187    1.5630    5.6062 N   0  0  0  0  0  0
   10.3156    3.6000    5.9306 C   0  0  0  0  0  0
    7.9768    3.0840    5.4428 C   0  0  0  0  0  0
   10.6751    2.3873    5.4188 C   0  0  0  0  0  0
    6.4822    3.3229    5.4965 C   0  0  0  0  0  0
   11.2793    4.5056    6.5623 C   0  0  0  0  0  0
    8.8942    3.9601    5.9182 C   0  0  0  0  0  0
    9.7086    1.5069    4.7791 C   0  0  0  0  0  0
    5.5338    2.5552    4.7736 C   0  0  0  0  0  0
    5.9610    4.3630    6.2960 C   0  0  0  0  0  0
   12.6307    4.6854    6.2835 C   0  0  0  0  0  0
   12.0199    1.9137    5.5090 C   0  0  0  0  0  0
   12.4158    6.2073    8.0265 C   0  0  0  0  0  0
    4.5907    4.6200    6.3709 C   0  0  0  0  0  0
   13.2669    5.5630    7.1520 C   0  0  0  0  0  0
    4.1662    2.8025    4.8661 C   0  0  0  0  0  0
    3.6938    3.8313    5.6659 C   0  0  0  0  0  0
   12.7274    7.2904    9.0126 C   0  0  0  0  0  0
    5.9220    0.6756    4.3211 H   0  0  0  0  0  0
    7.7486    1.2596    4.4834 H   0  0  0  0  0  0
    8.5962    4.9135    6.3168 H   0  0  0  0  0  0
    6.6033    4.9937    6.8885 H   0  0  0  0  0  0
   13.1640    4.1771    5.4955 H   0  0  0  0  0  0
   14.3221    5.7847    7.1090 H   0  0  0  0  0  0
    3.4669    2.2050    4.2992 H   0  0  0  0  0  0
    2.6344    4.0373    5.7168 H   0  0  0  0  0  0
   13.7762    7.2864    9.3116 H   0  0  0  0  0  0
   12.1339    7.1630    9.9090 H   0  0  0  0  0  0
   12.5024    8.2783    8.6113 H   0  0  0  0  0  0
  1 19  1  0  0  0
  2 11  1  0  0  0
  2 18  1  0  0  0
  3 13  2  0  0  0
  4 14  1  0  0  0
  4 24  1  0  0  0
  5  8  1  0  0  0
  5 13  1  0  0  0
  5 25  1  0  0  0
  6 17  3  0  0  0
  7  9  2  0  0  0
  7 11  1  0  0  0
  7 12  1  0  0  0
  8 10  1  0  0  0
  8 12  2  0  0  0
  9 13  1  0  0  0
  9 17  1  0  0  0
 10 14  1  0  0  0
 10 15  2  0  0  0
 11 16  2  0  0  0
 12 26  1  0  0  0
 14 21  2  0  0  0
 15 19  1  0  0  0
 15 27  1  0  0  0
 16 20  1  0  0  0
 16 28  1  0  0  0
 18 20  2  0  0  0
 18 23  1  0  0  0
 19 22  2  0  0  0
 20 29  1  0  0  0
 21 22  1  0  0  0
 21 30  1  0  0  0
 22 31  1  0  0  0
 23 32  1  0  0  0
 23 33  1  0  0  0
 23 34  1  0  0  0
M  END
> <s_m_entry_id>
47740

> <s_m_entry_name>
dock_pv.273

> <s_m_Source_Path>
/home/csk/Desktop/cluster/DUD-E-result/fak1

> <s_m_Source_File>
dock_pv.maegz

> <i_m_Source_File_Index>
273

> <chembl_id>
CHEMBL1997193

> <chembl_pref_name>
None

> <i_lp_mmshare_version>
53161

> <i_f3d_flags>
0

> <r_lp_tautomer_probability>
0.999999999997365

> <s_lp_Force_Field>
OPLS_2005

> <r_lp_Energy>
25.171856

> <b_lp_Chiralities_Consistent>
1

> <s_lp_Variant>
CHEMBL2695_lig1962-1

> <s_i_glide_gridfile>
glide-grid_3bz3

> <i_i_glide_lignum>
2292

> <i_i_glide_rotatable_bonds>
3

> <r_i_docking_score>
-7.07134521123444

> <r_i_glide_ligand_efficiency>
-0.307449791792802

> <r_i_glide_ligand_efficiency_sa>
-0.874346309927952

> <r_i_glide_ligand_efficiency_ln>
-1.70991539148983

> <r_i_glide_gscore>
-7.07134521123444

> <r_i_glide_lipo>
-2.87106769271096

> <r_i_glide_hbond>
-0.16

> <r_i_glide_metal>
0

> <r_i_glide_rewards>
-1.35902383062881

> <r_i_glide_evdw>
-32.5991058349609

> <r_i_glide_ecoul>
-8.35198497772217

> <r_i_glide_erotb>
0.259686819479919

> <r_i_glide_esite>
-0.0581874689682215

> <r_i_glide_emodel>
-55.2469611862266

> <r_i_glide_energy>
-40.9510908126831

> <r_i_glide_einternal>
5.93297576904297

> <i_i_glide_confnum>
8

> <i_i_glide_posenum>
368

> <r_i_glide_eff_state_penalty>
0

> <s_user_duplicate_titles>
CHEMBL2695_lig1962

> <s_m_subgroup_title>
dock_pv

> <s_m_subgroupid>
dock_pv

> <b_m_subgroup_collapsed>
1

$$$$
CHEMBL2695_lig1767
                    3D
 Schrodinger Suite 2021-1.
 20 22  0  0  1  0            999 V2000
   11.3259    5.2522    6.5765 C   0  0  0  0  0  0
   11.8890    5.9114    7.6323 N   0  0  0  0  0  0
   11.9218    5.1634    5.5090 O   0  0  0  0  0  0
    8.9443    3.8771    5.8776 S   0  0  0  0  0  0
    5.9490    2.3634    5.6130 Cl  0  0  0  0  0  0
   11.3720    6.0674    8.8963 C   0  0  0  0  0  0
   10.2260    5.5630    9.2147 N   0  0  0  0  0  0
    7.8429    4.7632   11.1068 Cl  0  0  0  0  0  0
    9.5220    4.8835    8.2493 C   0  0  0  0  0  0
   10.0116    4.7304    6.9505 C   0  0  0  0  0  0
    7.7777    3.6748    7.1855 C   0  0  0  0  0  0
    6.5315    3.0316    7.0969 C   0  0  0  0  0  0
    5.7489    2.9446    8.2412 C   0  0  0  0  0  0
    6.1759    3.4782    9.4480 C   0  0  0  0  0  0
    7.4024    4.1296    9.5589 C   0  0  0  0  0  0
    8.2377    4.2524    8.4186 C   0  0  0  0  0  0
   12.7975    6.3018    7.4341 H   0  0  0  0  0  0
   11.9656    6.6268    9.6134 H   0  0  0  0  0  0
    4.7904    2.4485    8.1930 H   0  0  0  0  0  0
    5.5360    3.3858   10.3147 H   0  0  0  0  0  0
  1  3  2  0  0  0
  1 10  1  0  0  0
  1  2  1  0  0  0
  2  6  1  0  0  0
  2 17  1  0  0  0
  4 10  1  0  0  0
  4 11  1  0  0  0
  5 12  1  0  0  0
  6  7  2  0  0  0
  6 18  1  0  0  0
  7  9  1  0  0  0
  8 15  1  0  0  0
  9 10  2  0  0  0
  9 16  1  0  0  0
 11 12  1  0  0  0
 11 16  2  0  0  0
 12 13  2  0  0  0
 13 14  1  0  0  0
 13 19  1  0  0  0
 14 15  2  0  0  0
 14 20  1  0  0  0
 15 16  1  0  0  0
M  END
> <s_m_entry_id>
47741

> <s_m_entry_name>
dock_pv.274

> <s_m_Source_Path>
/home/csk/Desktop/cluster/DUD-E-result/fak1

> <s_m_Source_File>
dock_pv.maegz

> <i_m_Source_File_Index>
274

> <chembl_id>
CHEMBL583144

> <chembl_pref_name>
None

> <i_lp_mmshare_version>
53161

> <i_f3d_flags>
0

> <r_lp_tautomer_probability>
1

> <s_lp_Force_Field>
OPLS_2005

> <r_lp_Energy>
19.716585

> <b_lp_Chiralities_Consistent>
1

> <s_lp_Variant>
CHEMBL2695_lig1767-1

> <s_i_glide_gridfile>
glide-grid_3bz3

> <i_i_glide_lignum>
2018

> <i_i_glide_rotatable_bonds>
0

> <r_i_docking_score>
-7.06502012031863

> <r_i_glide_ligand_efficiency>
-0.441563757519914

> <r_i_glide_ligand_efficiency_sa>
-1.1126709449117

> <r_i_glide_ligand_efficiency_ln>
-1.87272470987087

> <r_i_glide_gscore>
-7.06502012031863

> <r_i_glide_lipo>
-2.15690827684313

> <r_i_glide_hbond>
-0.315097073886197

> <r_i_glide_metal>
0

> <r_i_glide_rewards>
-2.70514863017738

> <r_i_glide_evdw>
-26.1985511779785

> <r_i_glide_ecoul>
-3.85292387008667

> <r_i_glide_erotb>
0

> <r_i_glide_esite>
0

> <r_i_glide_emodel>
-42.5473385976412

> <r_i_glide_energy>
-30.0514750480652

> <r_i_glide_einternal>
0

> <i_i_glide_confnum>
1

> <i_i_glide_posenum>
41

> <r_i_glide_eff_state_penalty>
0

> <s_user_duplicate_titles>
CHEMBL2695_lig1767

> <s_m_subgroup_title>
dock_pv

> <s_m_subgroupid>
dock_pv

> <b_m_subgroup_collapsed>
1

$$$$
CHEMBL2695_lig213
                    3D
 Schrodinger Suite 2021-1.
 45 48  0  0  1  0            999 V2000
    5.1786    3.5056    9.5114 C   0  0  0  0  0  0
    6.4804    3.2030    9.1053 C   0  0  0  0  0  0
    6.6988    2.0654    8.3084 C   0  0  0  0  0  0
    5.6324    1.2569    7.9084 C   0  0  0  0  0  0
    4.1152    2.7008    9.1079 C   0  0  0  0  0  0
    4.3449    1.5982    8.3120 C   0  0  0  0  0  0
    3.1417    0.9652    8.0507 N   0  0  0  0  0  0
    2.0950    1.5675    8.6429 C   0  0  0  0  0  0
    2.6498    2.7823    9.3874 C   0  0  0  0  0  0
    0.9185    1.2154    8.6119 O   0  0  0  0  0  0
    7.5161    4.0606    9.5180 N   0  0  0  0  0  0
    8.6988    4.4198    8.8643 C   0  0  0  0  0  0
    8.9052    3.9641    7.6110 N   0  0  0  0  0  0
    9.9768    4.4162    6.9160 C   0  0  0  0  0  0
   10.9011    5.2934    7.5146 C   0  0  0  0  0  0
   10.6069    5.7100    8.8202 C   0  0  0  0  0  0
    9.5110    5.2900    9.5068 N   0  0  0  0  0  0
   10.0999    4.0077    5.5749 N   0  0  0  0  0  0
    9.1954    3.0441    4.9362 C   0  0  0  0  0  0
    7.7110    3.4281    4.9652 C   0  0  0  0  0  0
    7.2811    4.7615    5.0244 C   0  0  0  0  0  0
    5.9223    5.0548    5.1091 C   0  0  0  0  0  0
    4.9915    4.0189    5.1084 C   0  0  0  0  0  0
    5.4068    2.6946    4.9955 C   0  0  0  0  0  0
    6.7664    2.4019    4.9170 C   0  0  0  0  0  0
   12.1909    5.7888    6.8763 C   0  0  0  0  0  0
   12.3200    7.0981    7.1041 F   0  0  0  0  0  0
   13.2209    5.1633    7.4444 F   0  0  0  0  0  0
   12.2403    5.5627    5.5672 F   0  0  0  0  0  0
    4.9972    4.3628   10.1411 H   0  0  0  0  0  0
    7.6932    1.7881    7.9974 H   0  0  0  0  0  0
    5.8200    0.3882    7.2945 H   0  0  0  0  0  0
    3.0491    0.1435    7.4739 H   0  0  0  0  0  0
    2.4342    2.6999   10.4521 H   0  0  0  0  0  0
    2.2083    3.6975    8.9926 H   0  0  0  0  0  0
    7.3446    4.5762   10.3671 H   0  0  0  0  0  0
   11.2677    6.3852    9.3465 H   0  0  0  0  0  0
   10.9381    4.2776    5.0801 H   0  0  0  0  0  0
    9.3197    2.0828    5.4384 H   0  0  0  0  0  0
    9.5044    2.8945    3.9026 H   0  0  0  0  0  0
    8.0028    5.5629    5.0382 H   0  0  0  0  0  0
    5.5871    6.0793    5.1653 H   0  0  0  0  0  0
    3.9374    4.2496    5.1727 H   0  0  0  0  0  0
    4.6831    1.8923    4.9792 H   0  0  0  0  0  0
    7.0909    1.3747    4.8386 H   0  0  0  0  0  0
  1  2  2  0  0  0
  1  5  1  0  0  0
  1 30  1  0  0  0
  2 11  1  0  0  0
  2  3  1  0  0  0
  3  4  2  0  0  0
  3 31  1  0  0  0
  4  6  1  0  0  0
  4 32  1  0  0  0
  5  9  1  0  0  0
  5  6  2  0  0  0
  6  7  1  0  0  0
  7  8  1  0  0  0
  7 33  1  0  0  0
  8  9  1  0  0  0
  8 10  2  0  0  0
  9 34  1  0  0  0
  9 35  1  0  0  0
 11 12  1  0  0  0
 11 36  1  0  0  0
 12 17  1  0  0  0
 12 13  2  0  0  0
 13 14  1  0  0  0
 14 15  2  0  0  0
 14 18  1  0  0  0
 15 16  1  0  0  0
 15 26  1  0  0  0
 16 17  2  0  0  0
 16 37  1  0  0  0
 18 19  1  0  0  0
 18 38  1  0  0  0
 19 20  1  0  0  0
 19 39  1  0  0  0
 19 40  1  0  0  0
 20 21  2  0  0  0
 20 25  1  0  0  0
 21 22  1  0  0  0
 21 41  1  0  0  0
 22 23  2  0  0  0
 22 42  1  0  0  0
 23 24  1  0  0  0
 23 43  1  0  0  0
 24 25  2  0  0  0
 24 44  1  0  0  0
 25 45  1  0  0  0
 26 27  1  0  0  0
 26 28  1  0  0  0
 26 29  1  0  0  0
M  END
> <s_m_entry_id>
47742

> <s_m_entry_name>
dock_pv.275

> <s_m_Source_Path>
/home/csk/Desktop/cluster/DUD-E-result/fak1

> <s_m_Source_File>
dock_pv.maegz

> <i_m_Source_File_Index>
275

> <chembl_id>
CHEMBL471520

> <chembl_pref_name>
None

> <i_lp_mmshare_version>
53161

> <i_f3d_flags>
0

> <r_lp_tautomer_probability>
0.999999624730965

> <s_lp_Force_Field>
OPLS_2005

> <r_lp_Energy>
22.110434

> <b_lp_Chiralities_Consistent>
1

> <s_lp_Variant>
CHEMBL2695_lig213-1

> <s_i_glide_gridfile>
glide-grid_3bz3

> <i_i_glide_lignum>
245

> <i_i_glide_rotatable_bonds>
6

> <r_i_docking_score>
-7.065009148575

> <r_i_glide_ligand_efficiency>
-0.243621005123276

> <r_i_glide_ligand_efficiency_sa>
-0.74848091229062

> <r_i_glide_ligand_efficiency_ln>
-1.61770794184943

> <r_i_glide_gscore>
-7.065009148575

> <r_i_glide_lipo>
-2.46541473864896

> <r_i_glide_hbond>
-0.303013042114383

> <r_i_glide_metal>
0

> <r_i_glide_rewards>
-2.44673889501785

> <r_i_glide_evdw>
-35.7410926818848

> <r_i_glide_ecoul>
-4.25791454315186

> <r_i_glide_erotb>
0.6142425074908

> <r_i_glide_esite>
-0.0383431647175893

> <r_i_glide_emodel>
-57.1978097948667

> <r_i_glide_energy>
-39.9990072250366

> <r_i_glide_einternal>
3.14662599563599

> <i_i_glide_confnum>
53

> <i_i_glide_posenum>
342

> <r_i_glide_eff_state_penalty>
0

> <s_user_duplicate_titles>
CHEMBL2695_lig213,452648

> <s_m_subgroup_title>
dock_pv

> <s_m_subgroupid>
dock_pv

> <b_m_subgroup_collapsed>
1

$$$$
CHEMBL2695_lig1391
                    3D
 Schrodinger Suite 2021-1.
 57 60  0  0  1  0            999 V2000
   14.1634    3.6522    6.5553 N   0  0  0  0  0  0
   13.1212    3.0729    5.9084 C   0  0  0  0  0  0
   11.8553    3.5462    5.9453 N   0  0  0  0  0  0
   11.6153    4.6310    6.7203 C   0  0  0  0  0  0
   12.6739    5.2660    7.3820 C   0  0  0  0  0  0
   13.9332    4.7631    7.2799 N   0  0  0  0  0  0
   13.4140    1.9611    5.1044 N   0  0  0  0  0  0
   12.4218    6.6427    8.4019 Cl  0  0  0  0  0  0
   12.5955    1.1630    4.2642 C   0  0  0  0  0  0
   10.2846    4.9939    6.9794 N   0  0  0  0  0  0
    9.1164    4.2701    6.6707 C   0  0  0  0  0  0
   11.2291    0.9789    4.5225 C   0  0  0  0  0  0
   10.4494    0.1696    3.7024 C   0  0  0  0  0  0
   10.9999   -0.5134    2.6166 C   0  0  0  0  0  0
   12.3623   -0.3215    2.3506 C   0  0  0  0  0  0
   13.1672    0.5175    3.1458 C   0  0  0  0  0  0
    8.1376    3.9484    7.6508 C   0  0  0  0  0  0
    7.0177    3.1968    7.2345 C   0  0  0  0  0  0
    6.8743    2.7646    5.9191 C   0  0  0  0  0  0
    7.8338    3.0949    4.9731 C   0  0  0  0  0  0
    8.9362    3.8529    5.3443 C   0  0  0  0  0  0
   14.5139    0.7243    2.9021 O   0  0  0  0  0  0
   15.1768   -0.1227    1.9738 C   0  0  0  0  0  0
   10.2086   -1.3813    1.8619 N   0  0  0  0  0  0
    8.8709   -0.9521    1.4027 C   0  0  0  0  0  0
    7.9658   -2.1193    0.9501 C   0  0  0  0  0  0
    8.6295   -2.8994   -0.0344 O   0  0  0  0  0  0
    9.8356   -3.4533    0.4695 C   0  0  0  0  0  0
   10.7980   -2.3205    0.8884 C   0  0  0  0  0  0
    8.2659    4.3628    9.1159 C   0  0  0  0  0  0
    9.1214    5.1665    9.4953 O   0  0  0  0  0  0
    7.3975    3.8055    9.9797 N   0  0  0  0  0  0
    7.2769    4.1748   11.3828 C   0  0  0  0  0  0
   14.4027    1.7640    5.0224 H   0  0  0  0  0  0
   10.1948    5.5633    7.8109 H   0  0  0  0  0  0
   10.7493    1.4314    5.3759 H   0  0  0  0  0  0
    9.4019    0.0542    3.9341 H   0  0  0  0  0  0
   12.7934   -0.8310    1.5072 H   0  0  0  0  0  0
    6.2324    2.9182    7.9219 H   0  0  0  0  0  0
    6.0188    2.1684    5.6327 H   0  0  0  0  0  0
    7.7268    2.7617    3.9513 H   0  0  0  0  0  0
    9.6653    4.1047    4.5881 H   0  0  0  0  0  0
   16.2303    0.1519    1.9145 H   0  0  0  0  0  0
   15.1212   -1.1657    2.2870 H   0  0  0  0  0  0
   14.7506   -0.0386    0.9754 H   0  0  0  0  0  0
    8.3374   -0.4372    2.2006 H   0  0  0  0  0  0
    8.9826   -0.2259    0.5967 H   0  0  0  0  0  0
    7.0436   -1.7270    0.5199 H   0  0  0  0  0  0
    7.6696   -2.7390    1.7994 H   0  0  0  0  0  0
   10.2929   -4.0611   -0.3116 H   0  0  0  0  0  0
    9.6331   -4.1244    1.3072 H   0  0  0  0  0  0
   11.1365   -1.7684    0.0103 H   0  0  0  0  0  0
   11.6784   -2.7887    1.3329 H   0  0  0  0  0  0
    6.7913    3.0681    9.6551 H   0  0  0  0  0  0
    6.2529    4.0254   11.7210 H   0  0  0  0  0  0
    7.5308    5.2236   11.5300 H   0  0  0  0  0  0
    7.9220    3.5623   12.0094 H   0  0  0  0  0  0
  1  2  2  0  0  0
  1  6  1  0  0  0
  2  3  1  0  0  0
  2  7  1  0  0  0
  3  4  2  0  0  0
  4  5  1  0  0  0
  4 10  1  0  0  0
  5  6  2  0  0  0
  5  8  1  0  0  0
  7  9  1  0  0  0
  7 34  1  0  0  0
  9 12  2  0  0  0
  9 16  1  0  0  0
 10 11  1  0  0  0
 10 35  1  0  0  0
 11 17  2  0  0  0
 11 21  1  0  0  0
 12 13  1  0  0  0
 12 36  1  0  0  0
 13 14  2  0  0  0
 13 37  1  0  0  0
 14 15  1  0  0  0
 14 24  1  0  0  0
 15 16  2  0  0  0
 15 38  1  0  0  0
 16 22  1  0  0  0
 17 18  1  0  0  0
 17 30  1  0  0  0
 18 19  2  0  0  0
 18 39  1  0  0  0
 19 20  1  0  0  0
 19 40  1  0  0  0
 20 21  2  0  0  0
 20 41  1  0  0  0
 21 42  1  0  0  0
 22 23  1  0  0  0
 23 43  1  0  0  0
 23 44  1  0  0  0
 23 45  1  0  0  0
 24 25  1  0  0  0
 24 29  1  0  0  0
 25 26  1  0  0  0
 25 46  1  0  0  0
 25 47  1  0  0  0
 26 27  1  0  0  0
 26 48  1  0  0  0
 26 49  1  0  0  0
 27 28  1  0  0  0
 28 29  1  0  0  0
 28 50  1  0  0  0
 28 51  1  0  0  0
 29 52  1  0  0  0
 29 53  1  0  0  0
 30 31  2  0  0  0
 30 32  1  0  0  0
 32 33  1  0  0  0
 32 54  1  0  0  0
 33 55  1  0  0  0
 33 56  1  0  0  0
 33 57  1  0  0  0
M  END
> <s_m_entry_id>
47743

> <s_m_entry_name>
dock_pv.276

> <s_m_Source_Path>
/home/csk/Desktop/cluster/DUD-E-result/fak1

> <s_m_Source_File>
dock_pv.maegz

> <i_m_Source_File_Index>
276

> <chembl_id>
CHEMBL4097578

> <chembl_pref_name>
None

> <i_lp_mmshare_version>
53161

> <i_f3d_flags>
0

> <r_lp_tautomer_probability>
0.999981035422916

> <s_lp_Force_Field>
OPLS_2005

> <r_lp_Energy>
51.079906

> <b_lp_Chiralities_Consistent>
1

> <s_lp_Variant>
CHEMBL2695_lig1391-1

> <s_i_glide_gridfile>
glide-grid_3bz3

> <i_i_glide_lignum>
1522

> <i_i_glide_rotatable_bonds>
8

> <r_i_docking_score>
-7.05423040256743

> <r_i_glide_ligand_efficiency>
-0.213764557653559

> <r_i_glide_ligand_efficiency_sa>
-0.685657156411026

> <r_i_glide_ligand_efficiency_ln>
-1.56882431668074

> <r_i_glide_gscore>
-7.05423040256743

> <r_i_glide_lipo>
-2.49696400729261

> <r_i_glide_hbond>
-0.207950873877432

> <r_i_glide_metal>
0

> <r_i_glide_rewards>
-1.05684488189836

> <r_i_glide_evdw>
-49.8493270874023

> <r_i_glide_ecoul>
-8.73637390136719

> <r_i_glide_erotb>
0.548874643003133

> <r_i_glide_esite>
-0.0384228429269708

> <r_i_glide_emodel>
-79.5379923911367

> <r_i_glide_energy>
-58.5857009887695

> <r_i_glide_einternal>
5.04000616073608

> <i_i_glide_confnum>
6

> <i_i_glide_posenum>
348

> <r_i_glide_eff_state_penalty>
0

> <s_user_duplicate_titles>
CHEMBL2695_lig1391

> <s_m_subgroup_title>
dock_pv

> <s_m_subgroupid>
dock_pv

> <b_m_subgroup_collapsed>
1

$$$$
CHEMBL2695_lig231
                    3D
 Schrodinger Suite 2021-1.
 47 49  0  0  1  0            999 V2000
   13.8044    0.9563    3.4947 C   0  0  0  0  0  0
   12.4244    0.7630    3.6605 C   0  0  0  0  0  0
   11.7669   -0.1039    2.7832 C   0  0  0  0  0  0
   12.4921   -0.7240    1.7647 C   0  0  0  0  0  0
   11.6616    1.3070    4.7074 N   0  0  0  0  0  0
   11.8655    2.4036    5.5455 C   0  0  0  0  0  0
   10.7189    2.8927    6.0540 N   0  0  0  0  0  0
   10.7720    4.0823    6.7069 C   0  0  0  0  0  0
   11.9797    4.7888    6.8565 C   0  0  0  0  0  0
   13.1199    4.1842    6.3094 C   0  0  0  0  0  0
   13.0852    2.9869    5.6714 N   0  0  0  0  0  0
    9.5790    4.5805    7.2490 N   0  0  0  0  0  0
   12.0815    6.1073    7.6311 C   0  0  0  0  0  0
   13.3481    6.4420    7.8850 F   0  0  0  0  0  0
   11.5220    7.0832    6.9164 F   0  0  0  0  0  0
   11.4505    6.0198    8.8037 F   0  0  0  0  0  0
    7.7119    4.1247    5.6723 C   0  0  0  0  0  0
    8.2907    3.9041    7.0779 C   0  0  2  0  0  0
    7.2161    4.4047    8.0768 C   0  0  1  0  0  0
    5.9063    4.4466    7.2367 C   0  0  0  0  0  0
    6.2254    3.8688    5.8545 C   0  0  0  0  0  0
    7.0996    3.6230    9.3229 N   0  0  0  0  0  0
    6.1025    4.1970   10.2316 C   0  0  0  0  0  0
    8.3524    3.5740   10.0735 C   0  0  0  0  0  0
   13.8237   -0.5402    1.5921 N   0  0  0  0  0  0
   14.4599    0.2864    2.4607 C   0  0  0  0  0  0
   14.3827    1.5632    4.1700 H   0  0  0  0  0  0
   10.7077   -0.2955    2.8810 H   0  0  0  0  0  0
   12.0039   -1.3957    1.0734 H   0  0  0  0  0  0
   10.6906    1.0331    4.6890 H   0  0  0  0  0  0
   14.0948    4.6373    6.4098 H   0  0  0  0  0  0
    9.6065    5.4423    7.7731 H   0  0  0  0  0  0
    7.8879    5.1442    5.3212 H   0  0  0  0  0  0
    8.1418    3.4427    4.9377 H   0  0  0  0  0  0
    8.3995    2.8255    7.2217 H   0  0  0  0  0  0
    7.5181    5.4236    8.3308 H   0  0  0  0  0  0
    5.0777    3.8858    7.6717 H   0  0  0  0  0  0
    5.5889    5.4815    7.1061 H   0  0  0  0  0  0
    5.6225    4.3156    5.0615 H   0  0  0  0  0  0
    6.0311    2.7930    5.8477 H   0  0  0  0  0  0
    5.9819    3.5625   11.1082 H   0  0  0  0  0  0
    5.1150    4.2766    9.7790 H   0  0  0  0  0  0
    6.3920    5.1888   10.5805 H   0  0  0  0  0  0
    8.2327    3.0185   11.0053 H   0  0  0  0  0  0
    9.1223    3.0597    9.5075 H   0  0  0  0  0  0
    8.7204    4.5726   10.3147 H   0  0  0  0  0  0
   15.5284    0.3850    2.3324 H   0  0  0  0  0  0
  1 26  1  0  0  0
  1  2  2  0  0  0
  1 27  1  0  0  0
  2  3  1  0  0  0
  2  5  1  0  0  0
  3  4  2  0  0  0
  3 28  1  0  0  0
  4 25  1  0  0  0
  4 29  1  0  0  0
  5  6  1  0  0  0
  5 30  1  0  0  0
  6  7  2  0  0  0
  6 11  1  0  0  0
  7  8  1  0  0  0
  8 12  1  0  0  0
  8  9  2  0  0  0
  9 13  1  0  0  0
  9 10  1  0  0  0
 10 11  2  0  0  0
 10 31  1  0  0  0
 12 18  1  0  0  0
 12 32  1  0  0  0
 13 14  1  0  0  0
 13 15  1  0  0  0
 13 16  1  0  0  0
 17 18  1  0  0  0
 17 21  1  0  0  0
 17 33  1  0  0  0
 17 34  1  0  0  0
 18 19  1  0  0  0
 18 35  1  0  0  0
 19 20  1  0  0  0
 19 22  1  0  0  0
 19 36  1  0  0  0
 20 21  1  0  0  0
 20 37  1  0  0  0
 20 38  1  0  0  0
 21 39  1  0  0  0
 21 40  1  0  0  0
 22 23  1  0  0  0
 22 24  1  0  0  0
 23 41  1  0  0  0
 23 42  1  0  0  0
 23 43  1  0  0  0
 24 44  1  0  0  0
 24 45  1  0  0  0
 24 46  1  0  0  0
 25 26  2  0  0  0
 26 47  1  0  0  0
M  END
> <s_m_entry_id>
47744

> <s_m_entry_name>
dock_pv.277

> <s_m_Source_Path>
/home/csk/Desktop/cluster/DUD-E-result/fak1

> <s_m_Source_File>
dock_pv.maegz

> <i_m_Source_File_Index>
277

> <chembl_id>
CHEMBL452340

> <chembl_pref_name>
None

> <i_lp_mmshare_version>
53161

> <i_f3d_flags>
0

> <r_lp_tautomer_probability>
0.999998730732435

> <s_lp_Force_Field>
OPLS_2005

> <r_lp_Energy>
30.393982

> <b_lp_Chiralities_Consistent>
1

> <s_lp_Variant>
CHEMBL2695_lig231-1

> <s_i_glide_gridfile>
glide-grid_3bz3

> <i_i_glide_lignum>
264

> <i_i_glide_rotatable_bonds>
6

> <r_i_docking_score>
-7.05402594219841

> <r_i_glide_ligand_efficiency>
-0.271308690084554

> <r_i_glide_ligand_efficiency_sa>
-0.803750926827347

> <r_i_glide_ligand_efficiency_ln>
-1.6566148463783

> <r_i_glide_gscore>
-7.05402594219841

> <r_i_glide_lipo>
-3.1991023122215

> <r_i_glide_hbond>
0

> <r_i_glide_metal>
0

> <r_i_glide_rewards>
-2.59787692494119

> <r_i_glide_evdw>
-36.0904960632324

> <r_i_glide_ecoul>
-0.173588573932648

> <r_i_glide_erotb>
0.573516384215787

> <r_i_glide_esite>
0

> <r_i_glide_emodel>
-48.6307976768875

> <r_i_glide_energy>
-36.2640846371651

> <r_i_glide_einternal>
5.53750610351562

> <i_i_glide_confnum>
69

> <i_i_glide_posenum>
72

> <r_i_glide_eff_state_penalty>
0

> <s_user_duplicate_titles>
CHEMBL2695_lig231

> <s_m_subgroup_title>
dock_pv

> <s_m_subgroupid>
dock_pv

> <b_m_subgroup_collapsed>
1

$$$$
CHEMBL2695_lig106
                    3D
 Schrodinger Suite 2021-1.
 40 43  0  0  1  0            999 V2000
    9.4975    1.4663    5.0986 N   0  0  0  0  0  0
    9.1923    2.7399    5.4724 C   0  0  0  0  0  0
   10.0870    3.6670    5.9146 N   0  0  0  0  0  0
   10.7985    1.0915    5.1088 C   0  0  0  0  0  0
   11.8055    1.9798    5.5060 C   0  0  0  0  0  0
   11.3661    3.2715    5.9081 C   0  0  0  0  0  0
   12.4848    3.9935    6.3149 N   0  0  0  0  0  0
   13.5916    3.1958    6.0764 C   0  0  0  0  0  0
   13.2290    1.9610    5.5912 C   0  0  0  0  0  0
    7.8491    3.1125    5.4673 N   0  0  0  0  0  0
   12.5203    5.2619    6.9433 C   0  0  0  0  0  0
   11.5218    6.2255    6.7487 C   0  0  0  0  0  0
   11.5570    7.3962    7.5077 C   0  0  0  0  0  0
   12.5624    7.5624    8.4593 C   0  0  0  0  0  0
   13.5223    6.5655    8.5963 C   0  0  0  0  0  0
   13.5209    5.4383    7.8492 N   0  0  0  0  0  0
    7.4045    4.5207    5.4509 C   0  0  0  0  0  0
    6.0213    4.7448    6.0938 C   0  0  0  0  0  0
    5.0162    3.9205    5.4294 N   0  0  0  0  0  0
    5.3894    2.5179    5.6291 C   0  0  0  0  0  0
    6.7717    2.2138    5.0111 C   0  0  0  0  0  0
    3.7082    4.1702    6.0258 C   0  0  0  0  0  0
   11.0209    0.0885    4.7802 H   0  0  0  0  0  0
   14.5725    3.5807    6.3101 H   0  0  0  0  0  0
   13.9122    1.1624    5.3406 H   0  0  0  0  0  0
   10.7268    6.0720    6.0428 H   0  0  0  0  0  0
   10.8032    8.1574    7.3750 H   0  0  0  0  0  0
   12.6030    8.4355    9.0890 H   0  0  0  0  0  0
   14.3224    6.6610    9.3151 H   0  0  0  0  0  0
    8.1305    5.1624    5.9428 H   0  0  0  0  0  0
    7.3596    4.8467    4.4111 H   0  0  0  0  0  0
    5.7539    5.7975    5.9983 H   0  0  0  0  0  0
    6.0603    4.5309    7.1637 H   0  0  0  0  0  0
    5.4032    2.2657    6.6920 H   0  0  0  0  0  0
    4.6445    1.8688    5.1675 H   0  0  0  0  0  0
    7.0407    1.1909    5.2617 H   0  0  0  0  0  0
    6.6935    2.2525    3.9256 H   0  0  0  0  0  0
    3.6885    3.9315    7.0919 H   0  0  0  0  0  0
    2.9428    3.5751    5.5292 H   0  0  0  0  0  0
    3.4303    5.2200    5.9147 H   0  0  0  0  0  0
  1  2  2  0  0  0
  1  4  1  0  0  0
  2  3  1  0  0  0
  2 10  1  0  0  0
  3  6  2  0  0  0
  4  5  2  0  0  0
  4 23  1  0  0  0
  5  6  1  0  0  0
  5  9  1  0  0  0
  6  7  1  0  0  0
  7 11  1  0  0  0
  7  8  1  0  0  0
  8  9  2  0  0  0
  8 24  1  0  0  0
  9 25  1  0  0  0
 10 17  1  0  0  0
 10 21  1  0  0  0
 11 12  2  0  0  0
 11 16  1  0  0  0
 12 13  1  0  0  0
 12 26  1  0  0  0
 13 14  2  0  0  0
 13 27  1  0  0  0
 14 15  1  0  0  0
 14 28  1  0  0  0
 15 16  2  0  0  0
 15 29  1  0  0  0
 17 18  1  0  0  0
 17 30  1  0  0  0
 17 31  1  0  0  0
 18 19  1  0  0  0
 18 32  1  0  0  0
 18 33  1  0  0  0
 19 20  1  0  0  0
 19 22  1  0  0  0
 20 21  1  0  0  0
 20 34  1  0  0  0
 20 35  1  0  0  0
 21 36  1  0  0  0
 21 37  1  0  0  0
 22 38  1  0  0  0
 22 39  1  0  0  0
 22 40  1  0  0  0
M  END
> <s_m_entry_id>
47745

> <s_m_entry_name>
dock_pv.278

> <s_m_Source_Path>
/home/csk/Desktop/cluster/DUD-E-result/fak1

> <s_m_Source_File>
dock_pv.maegz

> <i_m_Source_File_Index>
278

> <chembl_id>
CHEMBL205642

> <chembl_pref_name>
None

> <i_lp_mmshare_version>
53161

> <i_f3d_flags>
0

> <r_lp_tautomer_probability>
1

> <s_lp_Force_Field>
OPLS_2005

> <r_lp_Energy>
33.654238

> <b_lp_Chiralities_Consistent>
1

> <s_lp_Variant>
CHEMBL2695_lig106-1

> <s_i_glide_gridfile>
glide-grid_3bz3

> <i_i_glide_lignum>
128

> <i_i_glide_rotatable_bonds>
2

> <r_i_docking_score>
-7.04810746809722

> <r_i_glide_ligand_efficiency>
-0.320368521277146

> <r_i_glide_ligand_efficiency_sa>
-0.897685195997543

> <r_i_glide_ligand_efficiency_ln>
-1.72281455116934

> <r_i_glide_gscore>
-7.04810746809722

> <r_i_glide_lipo>
-2.88125954624542

> <r_i_glide_hbond>
0

> <r_i_glide_metal>
0

> <r_i_glide_rewards>
-2.83749547249273

> <r_i_glide_evdw>
-37.2628211975098

> <r_i_glide_ecoul>
0.750819861888885

> <r_i_glide_erotb>
0.422123046020535

> <r_i_glide_esite>
-0.00095741478744295

> <r_i_glide_emodel>
-50.0133006342523

> <r_i_glide_energy>
-36.5120013356209

> <r_i_glide_einternal>
1.01532888412476

> <i_i_glide_confnum>
11

> <i_i_glide_posenum>
13

> <r_i_glide_eff_state_penalty>
0

> <s_user_duplicate_titles>
CHEMBL2695_lig106

> <s_m_subgroup_title>
dock_pv

> <s_m_subgroupid>
dock_pv

> <b_m_subgroup_collapsed>
1

$$$$
CHEMBL2695_lig433
                    3D
 Schrodinger Suite 2021-1.
 49 52  0  0  1  0            999 V2000
    5.6220    3.8688    5.8487 C   0  0  0  0  0  0
    6.0971    3.8826    7.2867 C   0  0  0  0  0  0
    7.4697    3.9221    7.6333 C   0  0  0  0  0  0
    7.8312    3.9753    8.9894 C   0  0  0  0  0  0
    6.8682    3.9837    9.9928 C   0  0  0  0  0  0
    5.5229    3.9418    9.6528 C   0  0  0  0  0  0
    5.1404    3.8959    8.3166 C   0  0  0  0  0  0
    6.2040    4.5120    4.9739 O   0  0  0  0  0  0
    4.5396    3.1114    5.6068 N   0  0  0  0  0  0
    3.9035    2.9806    4.3053 C   0  0  0  0  0  0
    8.4805    3.7992    6.6589 N   0  0  0  0  0  0
   12.4364    4.6490    6.8217 N   0  0  0  0  0  0
   11.5082    5.4802    7.4712 C   0  0  0  0  0  0
   10.2025    5.2064    7.4510 N   0  0  0  0  0  0
    9.8308    4.1366    6.7074 C   0  0  0  0  0  0
   10.6545    3.3227    6.0157 N   0  0  0  0  0  0
   11.9851    3.5445    6.1359 C   0  0  0  0  0  0
   12.1240    6.4899    8.1361 N   0  0  0  0  0  0
   13.4068    6.2832    7.9248 C   0  0  0  0  0  0
   13.6713    5.1628    7.1386 C   0  0  0  0  0  0
   12.9126    2.6130    5.6335 N   0  0  0  0  0  0
   12.7801    1.5627    4.7090 C   0  0  0  0  0  0
   11.5628    0.9319    4.3908 C   0  0  0  0  0  0
   11.4940    0.0353    3.3219 C   0  0  0  0  0  0
   12.6328   -0.2299    2.5541 C   0  0  0  0  0  0
   13.8510    0.3633    2.8931 C   0  0  0  0  0  0
   13.9221    1.2354    3.9727 C   0  0  0  0  0  0
   12.5334   -1.1128    1.3175 C   0  0  0  0  0  0
   13.4854   -2.2108    1.3446 N   0  0  0  0  0  0
    8.8693    3.9772    9.2822 H   0  0  0  0  0  0
    7.1609    4.0193   11.0319 H   0  0  0  0  0  0
    4.7682    3.9627   10.4256 H   0  0  0  0  0  0
    4.0816    3.8941    8.0948 H   0  0  0  0  0  0
    4.1935    2.5224    6.3483 H   0  0  0  0  0  0
    2.9900    2.3930    4.3920 H   0  0  0  0  0  0
    4.5678    2.4787    3.6005 H   0  0  0  0  0  0
    3.6395    3.9612    3.9094 H   0  0  0  0  0  0
    8.2448    3.1905    5.8903 H   0  0  0  0  0  0
   14.1560    6.9382    8.3498 H   0  0  0  0  0  0
   14.6083    4.7410    6.8120 H   0  0  0  0  0  0
   13.8682    2.8632    5.8265 H   0  0  0  0  0  0
   10.6558    1.1383    4.9356 H   0  0  0  0  0  0
   10.5433   -0.4128    3.0698 H   0  0  0  0  0  0
   14.7413    0.1621    2.3155 H   0  0  0  0  0  0
   14.8699    1.6925    4.2112 H   0  0  0  0  0  0
   11.5232   -1.5120    1.2083 H   0  0  0  0  0  0
   12.7274   -0.4937    0.4406 H   0  0  0  0  0  0
   14.4106   -1.8791    1.5827 H   0  0  0  0  0  0
   13.2245   -2.8845    2.0523 H   0  0  0  0  0  0
  1  2  1  0  0  0
  1  8  2  0  0  0
  1  9  1  0  0  0
  2  3  1  0  0  0
  2  7  2  0  0  0
  3  4  2  0  0  0
  3 11  1  0  0  0
  4  5  1  0  0  0
  4 30  1  0  0  0
  5  6  2  0  0  0
  5 31  1  0  0  0
  6  7  1  0  0  0
  6 32  1  0  0  0
  7 33  1  0  0  0
  9 10  1  0  0  0
  9 34  1  0  0  0
 10 35  1  0  0  0
 10 36  1  0  0  0
 10 37  1  0  0  0
 11 15  1  0  0  0
 11 38  1  0  0  0
 12 13  1  0  0  0
 12 17  1  0  0  0
 12 20  1  0  0  0
 13 14  1  0  0  0
 13 18  2  0  0  0
 14 15  2  0  0  0
 15 16  1  0  0  0
 16 17  2  0  0  0
 17 21  1  0  0  0
 18 19  1  0  0  0
 19 20  2  0  0  0
 19 39  1  0  0  0
 20 40  1  0  0  0
 21 22  1  0  0  0
 21 41  1  0  0  0
 22 23  1  0  0  0
 22 27  2  0  0  0
 23 24  2  0  0  0
 23 42  1  0  0  0
 24 25  1  0  0  0
 24 43  1  0  0  0
 25 26  2  0  0  0
 25 28  1  0  0  0
 26 27  1  0  0  0
 26 44  1  0  0  0
 27 45  1  0  0  0
 28 29  1  0  0  0
 28 46  1  0  0  0
 28 47  1  0  0  0
 29 48  1  0  0  0
 29 49  1  0  0  0
M  END
> <s_m_entry_id>
47746

> <s_m_entry_name>
dock_pv.279

> <s_m_Source_Path>
/home/csk/Desktop/cluster/DUD-E-result/fak1

> <s_m_Source_File>
dock_pv.maegz

> <i_m_Source_File_Index>
279

> <chembl_id>
CHEMBL3393285

> <chembl_pref_name>
None

> <i_lp_mmshare_version>
53161

> <i_f3d_flags>
0

> <r_lp_tautomer_probability>
1

> <s_lp_Force_Field>
OPLS_2005

> <r_lp_Energy>
28.366102

> <b_lp_Chiralities_Consistent>
1

> <s_lp_Variant>
CHEMBL2695_lig433-1

> <s_i_glide_gridfile>
glide-grid_3bz3

> <i_i_glide_lignum>
486

> <i_i_glide_rotatable_bonds>
7

> <r_i_docking_score>
-7.04550549838412

> <r_i_glide_ligand_efficiency>
-0.242948465461521

> <r_i_glide_ligand_efficiency_sa>
-0.746414657374189

> <r_i_glide_ligand_efficiency_ln>
-1.61324210052561

> <r_i_glide_gscore>
-7.04550549838412

> <r_i_glide_lipo>
-2.62503992205447

> <r_i_glide_hbond>
0

> <r_i_glide_metal>
0

> <r_i_glide_rewards>
-2.44843586472984

> <r_i_glide_evdw>
-41.9514007568359

> <r_i_glide_ecoul>
-3.46771764755249

> <r_i_glide_erotb>
0.645697973374854

> <r_i_glide_esite>
0

> <r_i_glide_emodel>
-59.4885218290271

> <r_i_glide_energy>
-45.4191184043884

> <r_i_glide_einternal>
10.2087669372559

> <i_i_glide_confnum>
3

> <i_i_glide_posenum>
8

> <r_i_glide_eff_state_penalty>
0

> <s_user_duplicate_titles>
CHEMBL2695_lig433

> <s_m_subgroup_title>
dock_pv

> <s_m_subgroupid>
dock_pv

> <b_m_subgroup_collapsed>
1

$$$$
CHEMBL2695_lig1709
                    3D
 Schrodinger Suite 2021-1.
 38 40  0  0  1  0            999 V2000
   10.6036    6.4169    6.3095 F   0  0  0  0  0  0
   11.1264    8.5827    7.8358 F   0  0  0  0  0  0
    8.1418    4.4036    4.8667 O   0  0  0  0  0  0
   11.0778    0.5401    4.3165 N   0  0  0  0  0  0
    9.7534    0.7630    4.3090 N   0  0  0  0  0  0
    7.9787    2.1422    5.1657 N   0  0  0  0  0  0
   10.5082    2.4530    5.5054 C   0  0  0  0  0  0
   11.5550    1.5902    5.0489 C   0  0  0  0  0  0
   12.1599    3.9942    6.3734 C   0  0  0  0  0  0
    9.3198    1.8211    5.0519 C   0  0  0  0  0  0
   12.4837    5.2320    7.1560 C   0  0  0  0  0  0
   10.8211    3.6121    6.2156 C   0  0  0  0  0  0
   12.8961    1.9183    5.2989 C   0  0  0  0  0  0
   11.6723    6.3785    7.1102 C   0  0  0  0  0  0
   13.1721    3.1422    5.9090 C   0  0  0  0  0  0
   11.9212    7.4908    7.9091 C   0  0  0  0  0  0
   13.5779    5.2597    8.0296 C   0  0  0  0  0  0
    7.4805    3.3933    5.1091 C   0  0  0  0  0  0
   12.9758    7.4696    8.8039 C   0  0  0  0  0  0
   13.8156    6.3643    8.8462 C   0  0  0  0  0  0
    5.9683    3.5293    5.3409 C   0  0  0  0  0  0
    5.5991    4.3818    6.5766 C   0  0  0  0  0  0
    6.0540    3.7807    7.9193 C   0  0  0  0  0  0
    9.1237    0.1592    3.7979 H   0  0  0  0  0  0
    7.3259    1.3697    5.2255 H   0  0  0  0  0  0
   10.0190    4.2113    6.6171 H   0  0  0  0  0  0
   13.7005    1.2822    4.9576 H   0  0  0  0  0  0
   14.2067    3.4149    6.0476 H   0  0  0  0  0  0
   14.2397    4.4100    8.1177 H   0  0  0  0  0  0
   13.1289    8.3184    9.4533 H   0  0  0  0  0  0
   14.6662    6.3630    9.5090 H   0  0  0  0  0  0
    5.4993    2.5464    5.4160 H   0  0  0  0  0  0
    5.5442    3.9942    4.4507 H   0  0  0  0  0  0
    4.5144    4.5034    6.6002 H   0  0  0  0  0  0
    5.9975    5.3928    6.4717 H   0  0  0  0  0  0
    5.6772    4.3643    8.7598 H   0  0  0  0  0  0
    7.1411    3.7550    7.9996 H   0  0  0  0  0  0
    5.6864    2.7610    8.0415 H   0  0  0  0  0  0
  1 14  1  0  0  0
  2 16  1  0  0  0
  3 18  2  0  0  0
  4  5  1  0  0  0
  4  8  2  0  0  0
  5 24  1  0  0  0
  5 10  1  0  0  0
  6 18  1  0  0  0
  6 25  1  0  0  0
  6 10  1  0  0  0
  7 12  1  0  0  0
  7  8  1  0  0  0
  7 10  2  0  0  0
  8 13  1  0  0  0
  9 15  1  0  0  0
  9 11  1  0  0  0
  9 12  2  0  0  0
 11 14  1  0  0  0
 11 17  2  0  0  0
 12 26  1  0  0  0
 13 27  1  0  0  0
 13 15  2  0  0  0
 14 16  2  0  0  0
 15 28  1  0  0  0
 16 19  1  0  0  0
 17 20  1  0  0  0
 17 29  1  0  0  0
 18 21  1  0  0  0
 19 20  2  0  0  0
 19 30  1  0  0  0
 20 31  1  0  0  0
 21 22  1  0  0  0
 21 32  1  0  0  0
 21 33  1  0  0  0
 22 23  1  0  0  0
 22 34  1  0  0  0
 22 35  1  0  0  0
 23 36  1  0  0  0
 23 37  1  0  0  0
 23 38  1  0  0  0
M  END
> <s_m_entry_id>
47747

> <s_m_entry_name>
dock_pv.280

> <s_m_Source_Path>
/home/csk/Desktop/cluster/DUD-E-result/fak1

> <s_m_Source_File>
dock_pv.maegz

> <i_m_Source_File_Index>
280

> <chembl_id>
CHEMBL1985406

> <chembl_pref_name>
None

> <i_lp_mmshare_version>
53161

> <i_f3d_flags>
0

> <r_lp_tautomer_probability>
0.0196078431372549

> <s_lp_Force_Field>
OPLS_2005

> <r_lp_Energy>
37.583558

> <b_lp_Chiralities_Consistent>
1

> <s_lp_Variant>
CHEMBL2695_lig1709-2

> <s_i_glide_gridfile>
glide-grid_3bz3

> <i_i_glide_lignum>
1937

> <i_i_glide_rotatable_bonds>
5

> <r_i_docking_score>
-7.03583337164209

> <r_i_glide_ligand_efficiency>
-0.305905798767047

> <r_i_glide_ligand_efficiency_sa>
-0.869955399149477

> <r_i_glide_ligand_efficiency_ln>
-1.70132830667285

> <r_i_glide_gscore>
-7.03583337164209

> <r_i_glide_lipo>
-3.66532715482486

> <r_i_glide_hbond>
-0.0252519835789221

> <r_i_glide_metal>
0

> <r_i_glide_rewards>
-1.86701671265578

> <r_i_glide_evdw>
-29.9487609863281

> <r_i_glide_ecoul>
-4.26389503479004

> <r_i_glide_erotb>
0.748338760134179

> <r_i_glide_esite>
-0.0895539761817963

> <r_i_glide_emodel>
-49.2102630794846

> <r_i_glide_energy>
-34.2126560211182

> <r_i_glide_einternal>
1.099724650383

> <i_i_glide_confnum>
15

> <i_i_glide_posenum>
255

> <r_i_glide_eff_state_penalty>
0

> <s_user_duplicate_titles>
CHEMBL2695_lig1709

> <s_m_subgroup_title>
dock_pv

> <s_m_subgroupid>
dock_pv

> <b_m_subgroup_collapsed>
1

$$$$
CHEMBL2695_lig2101
                    3D
 Schrodinger Suite 2021-1.
 43 45  0  0  1  0            999 V2000
    7.9557    4.4637    8.5768 N   0  0  0  0  0  0
    7.5735    4.3298    9.8658 C   0  0  0  0  0  0
    6.3733    3.9127   10.3223 N   0  0  0  0  0  0
    7.0697    4.1679    7.5814 C   0  0  0  0  0  0
    5.7717    3.7109    7.9422 C   0  0  0  0  0  0
    5.5211    3.6088    9.3423 C   0  0  0  0  0  0
    4.2382    3.1489    9.5087 N   0  0  0  0  0  0
    3.6536    2.9495    8.2829 C   0  0  0  0  0  0
    4.5591    3.2771    7.2903 C   0  0  0  0  0  0
    7.4839    4.3628    6.2271 N   0  0  0  0  0  0
    8.8226    4.0170    5.6750 C   0  0  1  0  0  0
    6.4479    4.6332    5.2266 C   0  0  0  0  0  0
    9.9776    4.0577    6.7152 C   0  0  0  0  0  0
   11.2426    3.6911    6.0538 N   0  0  0  0  0  0
   11.2662    2.3539    5.4219 C   0  0  0  0  0  0
   10.1358    2.3224    4.3643 C   0  0  0  0  0  0
    8.7576    2.6404    4.9614 C   0  0  1  0  0  0
    8.2550    1.4797    5.8230 C   0  0  0  0  0  0
   12.3987    4.3647    6.2994 C   0  0  0  0  0  0
   13.5005    3.9444    5.9390 O   0  0  0  0  0  0
   12.3472    5.7764    6.9013 C   0  0  0  0  0  0
   11.9394    5.8793    8.3098 C   0  0  0  0  0  0
   11.6136    5.9633    9.4163 N   0  0  0  0  0  0
    8.3053    4.5959   10.6147 H   0  0  0  0  0  0
    3.7834    2.9730   10.3952 H   0  0  0  0  0  0
    2.6377    2.5857    8.2203 H   0  0  0  0  0  0
    4.3548    3.2009    6.2325 H   0  0  0  0  0  0
    9.0412    4.7759    4.9224 H   0  0  0  0  0  0
    6.0151    3.7035    4.8582 H   0  0  0  0  0  0
    5.6426    5.2446    5.6367 H   0  0  0  0  0  0
    6.8583    5.1705    4.3720 H   0  0  0  0  0  0
    9.8058    3.3349    7.5112 H   0  0  0  0  0  0
    9.9854    5.0650    7.1259 H   0  0  0  0  0  0
   12.2202    2.1135    4.9512 H   0  0  0  0  0  0
   11.0705    1.6077    6.1907 H   0  0  0  0  0  0
   10.3220    3.0071    3.5468 H   0  0  0  0  0  0
   10.1174    1.3371    3.8961 H   0  0  0  0  0  0
    8.0688    2.7417    4.1213 H   0  0  0  0  0  0
    8.8620    1.3261    6.7085 H   0  0  0  0  0  0
    7.2152    1.6003    6.1282 H   0  0  0  0  0  0
    8.3204    0.5766    5.2253 H   0  0  0  0  0  0
   11.6828    6.4045    6.3075 H   0  0  0  0  0  0
   13.3354    6.2307    6.8467 H   0  0  0  0  0  0
  1  2  1  0  0  0
  1  4  2  0  0  0
  2  3  2  0  0  0
  2 24  1  0  0  0
  3  6  1  0  0  0
  4  5  1  0  0  0
  4 10  1  0  0  0
  5  9  1  0  0  0
  5  6  2  0  0  0
  6  7  1  0  0  0
  7  8  1  0  0  0
  7 25  1  0  0  0
  8  9  2  0  0  0
  8 26  1  0  0  0
  9 27  1  0  0  0
 10 11  1  0  0  0
 10 12  1  0  0  0
 11 13  1  0  0  0
 11 17  1  0  0  0
 11 28  1  0  0  0
 12 29  1  0  0  0
 12 30  1  0  0  0
 12 31  1  0  0  0
 13 14  1  0  0  0
 13 32  1  0  0  0
 13 33  1  0  0  0
 14 15  1  0  0  0
 14 19  1  0  0  0
 15 16  1  0  0  0
 15 34  1  0  0  0
 15 35  1  0  0  0
 16 17  1  0  0  0
 16 36  1  0  0  0
 16 37  1  0  0  0
 17 18  1  0  0  0
 17 38  1  0  0  0
 18 39  1  0  0  0
 18 40  1  0  0  0
 18 41  1  0  0  0
 19 20  2  0  0  0
 19 21  1  0  0  0
 21 22  1  0  0  0
 21 42  1  0  0  0
 21 43  1  0  0  0
 22 23  3  0  0  0
M  END
> <s_m_entry_id>
47748

> <s_m_entry_name>
dock_pv.281

> <s_m_Source_Path>
/home/csk/Desktop/cluster/DUD-E-result/fak1

> <s_m_Source_File>
dock_pv.maegz

> <i_m_Source_File_Index>
281

> <chembl_id>
CHEMBL234085

> <chembl_pref_name>
None

> <i_lp_mmshare_version>
53161

> <i_f3d_flags>
0

> <r_lp_tautomer_probability>
0.999998369746258

> <s_lp_Force_Field>
OPLS_2005

> <r_lp_Energy>
35.175229

> <b_lp_Chiralities_Consistent>
1

> <s_lp_Variant>
CHEMBL2695_lig2101-4

> <s_i_glide_gridfile>
glide-grid_3bz3

> <i_i_glide_lignum>
2530

> <i_i_glide_rotatable_bonds>
4

> <r_i_docking_score>
-7.03211974367742

> <r_i_glide_ligand_efficiency>
-0.305744336681627

> <r_i_glide_ligand_efficiency_sa>
-0.869496222456732

> <r_i_glide_ligand_efficiency_ln>
-1.70043031775767

> <r_i_glide_gscore>
-7.03211974367742

> <r_i_glide_lipo>
-1.5099310864193

> <r_i_glide_hbond>
-0.440156327150212

> <r_i_glide_metal>
0

> <r_i_glide_rewards>
-3.15177007200767

> <r_i_glide_evdw>
-34.5513343811035

> <r_i_glide_ecoul>
-5.08750200271606

> <r_i_glide_erotb>
0.570600221807648

> <r_i_glide_esite>
-0.0101704604452981

> <r_i_glide_emodel>
-50.7884193137729

> <r_i_glide_energy>
-39.6388363838196

> <r_i_glide_einternal>
10.2965478897095

> <i_i_glide_confnum>
18

> <i_i_glide_posenum>
86

> <r_i_glide_eff_state_penalty>
0

> <s_user_duplicate_titles>
CHEMBL2695_lig2101

> <s_m_subgroup_title>
dock_pv

> <s_m_subgroupid>
dock_pv

> <b_m_subgroup_collapsed>
1

$$$$
CHEMBL2695_lig1601
                    3D
 Schrodinger Suite 2021-1.
 44 46  0  0  1  0            999 V2000
   11.7161    7.7350    7.2473 F   0  0  0  0  0  0
   11.5237    6.5539    9.0599 F   0  0  0  0  0  0
   13.4764    7.1627    8.3692 F   0  0  0  0  0  0
    8.7563    3.9796    5.4354 O   0  0  0  0  0  0
    0.6419    3.4805   11.4171 O   0  0  0  0  0  0
    0.2464    5.1631    9.9089 O   0  0  0  0  0  0
    3.2328    2.4770    8.5323 N   0  0  2  0  0  0
    1.3299    3.2124    9.0732 C   0  0  0  0  0  0
   12.3203    5.4638    7.1685 C   0  0  0  0  0  0
   12.2679    6.7599    7.9725 C   0  0  0  0  0  0
    2.6690    3.8155    8.6805 C   0  0  0  0  0  0
    2.1770    1.9927    9.4187 C   0  0  0  0  0  0
    4.6131    2.2363    8.9470 C   0  0  0  0  0  0
    5.6854    2.6873    7.9608 C   0  0  0  0  0  0
   11.1553    3.7351    5.9090 C   0  0  0  0  0  0
   11.1456    4.9544    6.5978 C   0  0  0  0  0  0
    0.7101    3.9393   10.2779 C   0  0  0  0  0  0
   13.5224    4.7632    6.9996 C   0  0  0  0  0  0
    7.7738    3.4839    6.2698 C   0  0  0  0  0  0
   12.3494    3.0122    5.8313 C   0  0  0  0  0  0
    5.6818    3.9630    7.3896 C   0  0  0  0  0  0
    6.7383    1.8155    7.6888 C   0  0  0  0  0  0
    9.9326    3.2216    5.1479 C   0  0  0  0  0  0
   13.5380    3.5518    6.3090 C   0  0  0  0  0  0
    6.7130    4.3471    6.5380 C   0  0  0  0  0  0
    7.7774    2.2081    6.8529 C   0  0  0  0  0  0
   -0.0384    5.6914   10.6642 H   0  0  0  0  0  0
    0.6210    3.0782    8.2566 H   0  0  0  0  0  0
    2.6870    4.4184    7.7717 H   0  0  0  0  0  0
    3.1536    4.3629    9.4861 H   0  0  0  0  0  0
    2.4790    1.9479   10.4688 H   0  0  0  0  0  0
    1.7883    1.0211    9.1096 H   0  0  0  0  0  0
    4.8055    2.7128    9.9090 H   0  0  0  0  0  0
    4.7204    1.1628    9.1088 H   0  0  0  0  0  0
   10.2271    5.5181    6.6836 H   0  0  0  0  0  0
   14.4451    5.1474    7.4114 H   0  0  0  0  0  0
   12.3763    2.0670    5.3078 H   0  0  0  0  0  0
    4.8965    4.6691    7.6034 H   0  0  0  0  0  0
    6.7618    0.8307    8.1316 H   0  0  0  0  0  0
    9.8347    2.1427    5.2395 H   0  0  0  0  0  0
   10.1299    3.3795    4.0886 H   0  0  0  0  0  0
   14.4586    3.0030    6.1826 H   0  0  0  0  0  0
    6.6958    5.3281    6.0883 H   0  0  0  0  0  0
    8.5648    1.4928    6.6895 H   0  0  0  0  0  0
  1 10  1  0  0  0
  2 10  1  0  0  0
  3 10  1  0  0  0
  4 19  1  0  0  0
  4 23  1  0  0  0
  5 17  2  0  0  0
  6 17  1  0  0  0
  6 27  1  0  0  0
  7 11  1  0  0  0
  7 12  1  0  0  0
  7 13  1  0  0  0
  8 11  1  0  0  0
  8 12  1  0  0  0
  8 17  1  0  0  0
  8 28  1  0  0  0
  9 10  1  0  0  0
  9 16  2  0  0  0
  9 18  1  0  0  0
 11 29  1  0  0  0
 11 30  1  0  0  0
 12 31  1  0  0  0
 12 32  1  0  0  0
 13 14  1  0  0  0
 13 33  1  0  0  0
 13 34  1  0  0  0
 14 21  2  0  0  0
 14 22  1  0  0  0
 15 16  1  0  0  0
 15 20  2  0  0  0
 15 23  1  0  0  0
 16 35  1  0  0  0
 18 24  2  0  0  0
 18 36  1  0  0  0
 19 25  2  0  0  0
 19 26  1  0  0  0
 20 24  1  0  0  0
 20 37  1  0  0  0
 21 25  1  0  0  0
 21 38  1  0  0  0
 22 26  2  0  0  0
 22 39  1  0  0  0
 23 40  1  0  0  0
 23 41  1  0  0  0
 24 42  1  0  0  0
 25 43  1  0  0  0
 26 44  1  0  0  0
M  END
> <s_m_entry_id>
47749

> <s_m_entry_name>
dock_pv.282

> <s_m_Source_Path>
/home/csk/Desktop/cluster/DUD-E-result/fak1

> <s_m_Source_File>
dock_pv.maegz

> <i_m_Source_File_Index>
282

> <chembl_id>
CHEMBL1971132

> <chembl_pref_name>
None

> <i_lp_mmshare_version>
53161

> <i_f3d_flags>
0

> <r_lp_tautomer_probability>
1

> <s_lp_Force_Field>
OPLS_2005

> <r_lp_Energy>
30.664926

> <b_lp_Chiralities_Consistent>
1

> <s_lp_Variant>
CHEMBL2695_lig1601-1

> <s_i_glide_gridfile>
glide-grid_3bz3

> <i_i_glide_lignum>
1769

> <i_i_glide_rotatable_bonds>
8

> <r_i_docking_score>
-7.03018744430982

> <r_i_glide_ligand_efficiency>
-0.270391824781147

> <r_i_glide_ligand_efficiency_sa>
-0.801034716973693

> <r_i_glide_ligand_efficiency_ln>
-1.65101645336965

> <r_i_glide_gscore>
-7.03018744430982

> <r_i_glide_lipo>
-2.71990093174113

> <r_i_glide_hbond>
-0.0247091979524976

> <r_i_glide_metal>
0

> <r_i_glide_rewards>
-2.31431446494969

> <r_i_glide_evdw>
-38.7971687316895

> <r_i_glide_ecoul>
-5.79914665222168

> <r_i_glide_erotb>
0.864641934382632

> <r_i_glide_esite>
-0.0261743496314115

> <r_i_glide_emodel>
-59.6260099654066

> <r_i_glide_energy>
-44.5963153839111

> <r_i_glide_einternal>
7.62896299362183

> <i_i_glide_confnum>
99

> <i_i_glide_posenum>
162

> <r_i_glide_eff_state_penalty>
0

> <s_user_duplicate_titles>
CHEMBL2695_lig1601

> <s_m_subgroup_title>
dock_pv

> <s_m_subgroupid>
dock_pv

> <b_m_subgroup_collapsed>
1

$$$$
CHEMBL2695_lig1876
                    3D
 Schrodinger Suite 2021-1.
 37 39  0  0  1  0            999 V2000
   12.3819    5.4611    6.8845 C   0  0  0  0  0  0
   13.5302    4.7633    6.7413 N   0  0  0  0  0  0
   13.4355    3.5142    6.2466 C   0  0  0  0  0  0
   11.1244    4.9534    6.5607 C   0  0  0  0  0  0
   11.0020    3.6160    6.0698 C   0  0  0  0  0  0
   12.2200    2.8793    5.9089 C   0  0  0  0  0  0
   12.1941    1.5631    5.4118 C   0  0  0  0  0  0
   10.9830    0.9682    5.0813 C   0  0  0  0  0  0
    9.7879    1.6541    5.2502 C   0  0  0  0  0  0
    9.7619    2.9614    5.7471 C   0  0  0  0  0  0
    8.1468    3.7571    5.8751 S   0  0  0  0  0  0
    7.6927    3.6609    7.6000 N   0  0  1  0  0  0
    8.3255    5.1627    5.5090 O   0  0  0  0  0  0
    7.1956    2.9489    5.1055 O   0  0  0  0  0  0
    5.7405    2.7648    8.9376 C   0  0  0  0  0  0
    6.0379    3.1630   10.3024 N   0  0  1  0  0  0
    6.8059    4.3634   10.5379 C   0  0  0  0  0  0
    6.9489    2.4473    8.0392 C   0  0  0  0  0  0
    8.4625    4.5074    8.5575 C   0  0  0  0  0  0
    8.2553    4.2610   10.0598 C   0  0  0  0  0  0
   12.4856    6.4656    7.2691 H   0  0  0  0  0  0
   14.3632    2.9765    6.1238 H   0  0  0  0  0  0
   10.2647    5.5834    6.7097 H   0  0  0  0  0  0
   13.1300    1.0400    5.2800 H   0  0  0  0  0  0
   10.9654   -0.0371    4.6880 H   0  0  0  0  0  0
    8.8676    1.1533    4.9793 H   0  0  0  0  0  0
    5.1333    3.5414    8.4698 H   0  0  0  0  0  0
    5.0759    1.9004    8.9563 H   0  0  0  0  0  0
    5.2501    3.0631   10.9462 H   0  0  0  0  0  0
    6.7783    4.6140   11.5977 H   0  0  0  0  0  0
    6.2954    5.1627   10.0085 H   0  0  0  0  0  0
    6.5238    1.9749    7.1545 H   0  0  0  0  0  0
    7.6145    1.7106    8.4885 H   0  0  0  0  0  0
    9.5065    4.2411    8.4117 H   0  0  0  0  0  0
    8.3890    5.5616    8.2985 H   0  0  0  0  0  0
    8.6512    3.2727   10.3022 H   0  0  0  0  0  0
    8.8560    4.9813   10.6116 H   0  0  0  0  0  0
  1  2  2  0  0  0
  1  4  1  0  0  0
  1 21  1  0  0  0
  2  3  1  0  0  0
  3  6  2  0  0  0
  3 22  1  0  0  0
  4  5  2  0  0  0
  4 23  1  0  0  0
  5  6  1  0  0  0
  5 10  1  0  0  0
  6  7  1  0  0  0
  7  8  2  0  0  0
  7 24  1  0  0  0
  8  9  1  0  0  0
  8 25  1  0  0  0
  9 10  2  0  0  0
  9 26  1  0  0  0
 10 11  1  0  0  0
 11 12  1  0  0  0
 11 13  2  0  0  0
 11 14  2  0  0  0
 12 18  1  0  0  0
 12 19  1  0  0  0
 15 16  1  0  0  0
 15 18  1  0  0  0
 15 27  1  0  0  0
 15 28  1  0  0  0
 16 17  1  0  0  0
 16 29  1  0  0  0
 17 20  1  0  0  0
 17 30  1  0  0  0
 17 31  1  0  0  0
 18 32  1  0  0  0
 18 33  1  0  0  0
 19 20  1  0  0  0
 19 34  1  0  0  0
 19 35  1  0  0  0
 20 36  1  0  0  0
 20 37  1  0  0  0
M  END
> <s_m_entry_id>
47750

> <s_m_entry_name>
dock_pv.283

> <s_m_Source_Path>
/home/csk/Desktop/cluster/DUD-E-result/fak1

> <s_m_Source_File>
dock_pv.maegz

> <i_m_Source_File_Index>
283

> <chembl_id>
CHEMBL38380

> <chembl_pref_name>
FASUDIL

> <i_lp_mmshare_version>
53161

> <i_f3d_flags>
0

> <r_lp_tautomer_probability>
1

> <s_lp_Force_Field>
OPLS_2005

> <r_lp_Energy>
15.602143

> <b_lp_Chiralities_Consistent>
1

> <s_lp_Variant>
CHEMBL2695_lig1876-1

> <s_i_glide_gridfile>
glide-grid_3bz3

> <i_i_glide_lignum>
2171

> <i_i_glide_rotatable_bonds>
2

> <r_i_docking_score>
-7.02588754382167

> <r_i_glide_ligand_efficiency>
-0.351294377191083

> <r_i_glide_ligand_efficiency_sa>
-0.95355964510601

> <r_i_glide_ligand_efficiency_ln>
-1.75834792293842

> <r_i_glide_gscore>
-7.02588754382167

> <r_i_glide_lipo>
-3.36939861551597

> <r_i_glide_hbond>
-0.32

> <r_i_glide_metal>
0

> <r_i_glide_rewards>
-1.75364585175258

> <r_i_glide_evdw>
-32.8212547302246

> <r_i_glide_ecoul>
-2.32520604133606

> <r_i_glide_erotb>
0.429699200720085

> <r_i_glide_esite>
-0.0226986345615658

> <r_i_glide_emodel>
-49.2935577762825

> <r_i_glide_energy>
-35.1464607715607

> <r_i_glide_einternal>
1.1124359369278

> <i_i_glide_confnum>
13

> <i_i_glide_posenum>
165

> <r_i_glide_eff_state_penalty>
0

> <s_user_duplicate_titles>
CHEMBL2695_lig1876

> <s_m_subgroup_title>
dock_pv

> <s_m_subgroupid>
dock_pv

> <b_m_subgroup_collapsed>
1

$$$$
CHEMBL2695_lig724
                    3D
 Schrodinger Suite 2021-1.
 64 68  0  0  1  0            999 V2000
    7.6409    3.3102    4.7972 C   0  0  0  0  0  0
    8.9580    3.8161    4.9184 O   0  0  0  0  0  0
   10.0004    2.9156    5.0177 C   0  0  0  0  0  0
    9.9876    1.6437    4.4192 C   0  0  0  0  0  0
   11.1303    0.8466    4.4138 C   0  0  0  0  0  0
   12.2863    1.3028    5.0411 C   0  0  0  0  0  0
   12.2777    2.5003    5.7300 C   0  0  0  0  0  0
   11.1491    3.3234    5.7162 C   0  0  0  0  0  0
   11.1923    4.5485    6.5410 C   0  0  0  0  0  0
   12.3223    5.3785    6.5631 C   0  0  0  0  0  0
   12.5195    6.3270    7.5660 C   0  0  0  0  0  0
   11.5947    6.4371    8.5986 C   0  0  0  0  0  0
   10.4759    5.6510    8.5513 N   0  0  0  0  0  0
    9.5213    5.5533    9.4999 N   0  0  0  0  0  0
    8.6956    4.6678    8.9721 C   0  0  0  0  0  0
    7.5482    4.3638    9.6456 N   0  0  0  0  0  0
    6.4040    3.6519    9.2417 C   0  0  0  0  0  0
    5.2382    3.9627    9.9091 C   0  0  0  0  0  0
    4.0331    3.3492    9.5984 C   0  0  0  0  0  0
    3.9538    2.3619    8.6244 C   0  0  0  0  0  0
    2.6345    1.6064    8.4568 C   0  0  0  0  0  0
    1.9862    1.5444    7.0704 C   0  0  0  0  0  0
    2.6605    0.7222    6.0765 N   0  0  1  0  0  0
    1.8306    0.1373    5.0235 C   0  0  0  0  0  0
    0.8765   -0.9740    5.5164 C   0  0  0  0  0  0
    1.7087   -2.2941    6.5965 S   0  0  0  0  0  0
    0.8730   -3.4993    6.5432 O   0  0  0  0  0  0
    2.0310   -1.7250    7.9080 O   0  0  0  0  0  0
    3.3184   -2.6932    5.7172 C   0  0  0  0  0  0
    3.9950    1.1598    5.6855 C   0  0  0  0  0  0
    5.0914    1.0513    6.7607 C   0  0  0  0  0  0
    5.1179    2.0651    7.8878 C   0  0  0  0  0  0
    6.3353    2.6883    8.2337 C   0  0  0  0  0  0
    9.0241    4.1511    7.8060 N   0  0  0  0  0  0
   10.1979    4.7628    7.5110 C   0  0  0  0  0  0
    6.9232    4.1318    4.7778 H   0  0  0  0  0  0
    7.4999    2.7098    3.9091 H   0  0  0  0  0  0
    7.4132    2.6827    5.6486 H   0  0  0  0  0  0
    9.1131    1.2754    3.9092 H   0  0  0  0  0  0
   11.1256   -0.1021    3.8981 H   0  0  0  0  0  0
   13.2171    0.7636    5.0017 H   0  0  0  0  0  0
   13.1716    2.8001    6.2570 H   0  0  0  0  0  0
   13.1017    5.2241    5.8319 H   0  0  0  0  0  0
   13.4229    6.9218    7.5746 H   0  0  0  0  0  0
   11.7143    7.0907    9.4482 H   0  0  0  0  0  0
    7.3795    4.8954   10.4836 H   0  0  0  0  0  0
    5.2558    4.6890   10.7043 H   0  0  0  0  0  0
    3.1638    3.6180   10.1803 H   0  0  0  0  0  0
    1.8984    2.0646    9.1186 H   0  0  0  0  0  0
    2.7645    0.6030    8.8595 H   0  0  0  0  0  0
    1.7705    2.5377    6.6725 H   0  0  0  0  0  0
    1.0071    1.1003    7.2482 H   0  0  0  0  0  0
    2.4574   -0.2933    4.2409 H   0  0  0  0  0  0
    1.2686    0.9321    4.5292 H   0  0  0  0  0  0
    0.4427   -1.4890    4.6609 H   0  0  0  0  0  0
    0.0438   -0.5670    6.0855 H   0  0  0  0  0  0
    3.8527   -3.4552    6.2792 H   0  0  0  0  0  0
    3.9222   -1.7887    5.6678 H   0  0  0  0  0  0
    3.0984   -3.0457    4.7118 H   0  0  0  0  0  0
    4.3206    0.4844    4.8947 H   0  0  0  0  0  0
    3.9699    2.1430    5.2141 H   0  0  0  0  0  0
    5.1189    0.0465    7.1826 H   0  0  0  0  0  0
    6.0399    1.1633    6.2447 H   0  0  0  0  0  0
    7.2405    2.3966    7.7298 H   0  0  0  0  0  0
  1  2  1  0  0  0
  1 36  1  0  0  0
  1 37  1  0  0  0
  1 38  1  0  0  0
  2  3  1  0  0  0
  3  4  2  0  0  0
  3  8  1  0  0  0
  4  5  1  0  0  0
  4 39  1  0  0  0
  5  6  2  0  0  0
  5 40  1  0  0  0
  6  7  1  0  0  0
  6 41  1  0  0  0
  7  8  2  0  0  0
  7 42  1  0  0  0
  8  9  1  0  0  0
  9 10  2  0  0  0
  9 35  1  0  0  0
 10 11  1  0  0  0
 10 43  1  0  0  0
 11 12  2  0  0  0
 11 44  1  0  0  0
 12 13  1  0  0  0
 12 45  1  0  0  0
 13 14  1  0  0  0
 13 35  1  0  0  0
 14 15  2  0  0  0
 15 16  1  0  0  0
 15 34  1  0  0  0
 16 17  1  0  0  0
 16 46  1  0  0  0
 17 18  2  0  0  0
 17 33  1  0  0  0
 18 19  1  0  0  0
 18 47  1  0  0  0
 19 20  2  0  0  0
 19 48  1  0  0  0
 20 21  1  0  0  0
 20 32  1  0  0  0
 21 22  1  0  0  0
 21 49  1  0  0  0
 21 50  1  0  0  0
 22 23  1  0  0  0
 22 51  1  0  0  0
 22 52  1  0  0  0
 23 24  1  0  0  0
 23 30  1  0  0  0
 24 25  1  0  0  0
 24 53  1  0  0  0
 24 54  1  0  0  0
 25 26  1  0  0  0
 25 55  1  0  0  0
 25 56  1  0  0  0
 26 27  2  0  0  0
 26 28  2  0  0  0
 26 29  1  0  0  0
 29 57  1  0  0  0
 29 58  1  0  0  0
 29 59  1  0  0  0
 30 31  1  0  0  0
 30 60  1  0  0  0
 30 61  1  0  0  0
 31 32  1  0  0  0
 31 62  1  0  0  0
 31 63  1  0  0  0
 32 33  2  0  0  0
 33 64  1  0  0  0
 34 35  2  0  0  0
M  END
> <s_m_entry_id>
47751

> <s_m_entry_name>
dock_pv.284

> <s_m_Source_Path>
/home/csk/Desktop/cluster/DUD-E-result/fak1

> <s_m_Source_File>
dock_pv.maegz

> <i_m_Source_File_Index>
284

> <chembl_id>
CHEMBL3645034

> <chembl_pref_name>
None

> <i_lp_mmshare_version>
53161

> <i_f3d_flags>
0

> <r_lp_tautomer_probability>
1

> <s_lp_Force_Field>
OPLS_2005

> <r_lp_Energy>
33.838579

> <b_lp_Chiralities_Consistent>
1

> <s_lp_Variant>
CHEMBL2695_lig724-1

> <s_i_glide_gridfile>
glide-grid_3bz3

> <i_i_glide_lignum>
780

> <i_i_glide_rotatable_bonds>
7

> <r_i_docking_score>
-7.02520909209632

> <r_i_glide_ligand_efficiency>
-0.200720259774181

> <r_i_glide_ligand_efficiency_sa>
-0.656569278741513

> <r_i_glide_ligand_efficiency_ln>
-1.5421893118304

> <r_i_glide_gscore>
-7.02520909209632

> <r_i_glide_lipo>
-2.70875296928684

> <r_i_glide_hbond>
-0.32

> <r_i_glide_metal>
0

> <r_i_glide_rewards>
-1.72235825128631

> <r_i_glide_evdw>
-32.3493881225586

> <r_i_glide_ecoul>
-6.37712144851685

> <r_i_glide_erotb>
0.421197791376188

> <r_i_glide_esite>
-0.121258039493907

> <r_i_glide_emodel>
-53.3423766876736

> <r_i_glide_energy>
-38.7265095710754

> <r_i_glide_einternal>
6.3702826499939

> <i_i_glide_confnum>
5

> <i_i_glide_posenum>
265

> <r_i_glide_eff_state_penalty>
0

> <s_user_duplicate_titles>
CHEMBL2695_lig724

> <s_m_subgroup_title>
dock_pv

> <s_m_subgroupid>
dock_pv

> <b_m_subgroup_collapsed>
1

$$$$
CHEMBL2695_lig2101
                    3D
 Schrodinger Suite 2021-1.
 43 45  0  0  1  0            999 V2000
    8.3202    3.5512    9.0957 N   0  0  0  0  0  0
    7.5191    3.3802   10.1675 C   0  0  0  0  0  0
    6.1703    3.4039   10.1939 N   0  0  0  0  0  0
    7.7525    3.8096    7.8821 C   0  0  0  0  0  0
    6.3325    3.7578    7.7676 C   0  0  0  0  0  0
    5.6249    3.5587    8.9890 C   0  0  0  0  0  0
    4.2789    3.5634    8.7089 N   0  0  0  0  0  0
    4.0903    3.7445    7.3613 C   0  0  0  0  0  0
    5.3200    3.8551    6.7406 C   0  0  0  0  0  0
    8.6299    4.1347    6.8039 N   0  0  0  0  0  0
   10.1032    4.1616    7.0020 C   0  0  1  0  0  0
    8.0450    4.7624    5.6126 C   0  0  0  0  0  0
   10.8377    3.8430    5.6618 C   0  0  0  0  0  0
   12.2921    3.9143    5.9087 N   0  0  0  0  0  0
   12.7631    5.2412    6.3182 C   0  0  0  0  0  0
   12.1717    5.4992    7.6950 C   0  0  0  0  0  0
   10.6311    5.4965    7.6613 C   0  0  2  0  0  0
   10.1561    5.8544    9.0875 C   0  0  0  0  0  0
   13.1602    2.8692    5.9092 C   0  0  0  0  0  0
   14.3212    2.9934    6.3088 O   0  0  0  0  0  0
   12.7649    1.5037    5.3514 C   0  0  0  0  0  0
   13.4134    1.1631    4.0762 C   0  0  0  0  0  0
   13.9222    0.8924    3.0719 N   0  0  0  0  0  0
    8.0109    3.2070   11.1109 H   0  0  0  0  0  0
    3.5237    3.4714    9.3716 H   0  0  0  0  0  0
    3.0893    3.7783    6.9540 H   0  0  0  0  0  0
    5.4480    3.9886    5.6760 H   0  0  0  0  0  0
   10.3218    3.3089    7.6351 H   0  0  0  0  0  0
    7.1626    5.3573    5.8429 H   0  0  0  0  0  0
    8.7225    5.4548    5.1238 H   0  0  0  0  0  0
    7.7610    3.9983    4.8880 H   0  0  0  0  0  0
   10.6259    4.6171    4.9251 H   0  0  0  0  0  0
   10.4910    2.9377    5.1693 H   0  0  0  0  0  0
   13.8479    5.3357    6.3093 H   0  0  0  0  0  0
   12.3777    5.9627    5.5977 H   0  0  0  0  0  0
   12.5657    4.7645    8.3990 H   0  0  0  0  0  0
   12.5345    6.4615    8.0595 H   0  0  0  0  0  0
   10.3215    6.3055    6.9971 H   0  0  0  0  0  0
   10.4733    5.1629    9.8547 H   0  0  0  0  0  0
   10.6203    6.7818    9.3906 H   0  0  0  0  0  0
    9.0759    5.9629    9.1606 H   0  0  0  0  0  0
   11.6960    1.3513    5.2362 H   0  0  0  0  0  0
   13.0831    0.7635    6.0851 H   0  0  0  0  0  0
  1  2  1  0  0  0
  1  4  2  0  0  0
  2  3  2  0  0  0
  2 24  1  0  0  0
  3  6  1  0  0  0
  4  5  1  0  0  0
  4 10  1  0  0  0
  5  9  1  0  0  0
  5  6  2  0  0  0
  6  7  1  0  0  0
  7  8  1  0  0  0
  7 25  1  0  0  0
  8  9  2  0  0  0
  8 26  1  0  0  0
  9 27  1  0  0  0
 10 11  1  0  0  0
 10 12  1  0  0  0
 11 13  1  0  0  0
 11 17  1  0  0  0
 11 28  1  0  0  0
 12 29  1  0  0  0
 12 30  1  0  0  0
 12 31  1  0  0  0
 13 14  1  0  0  0
 13 32  1  0  0  0
 13 33  1  0  0  0
 14 15  1  0  0  0
 14 19  1  0  0  0
 15 16  1  0  0  0
 15 34  1  0  0  0
 15 35  1  0  0  0
 16 17  1  0  0  0
 16 36  1  0  0  0
 16 37  1  0  0  0
 17 18  1  0  0  0
 17 38  1  0  0  0
 18 39  1  0  0  0
 18 40  1  0  0  0
 18 41  1  0  0  0
 19 20  2  0  0  0
 19 21  1  0  0  0
 21 22  1  0  0  0
 21 42  1  0  0  0
 21 43  1  0  0  0
 22 23  3  0  0  0
M  END
> <s_m_entry_id>
47753

> <s_m_entry_name>
dock_pv.286

> <s_m_Source_Path>
/home/csk/Desktop/cluster/DUD-E-result/fak1

> <s_m_Source_File>
dock_pv.maegz

> <i_m_Source_File_Index>
286

> <chembl_id>
CHEMBL234085

> <chembl_pref_name>
None

> <i_lp_mmshare_version>
53161

> <i_f3d_flags>
0

> <r_lp_tautomer_probability>
0.999998369746258

> <s_lp_Force_Field>
OPLS_2005

> <r_lp_Energy>
26.766019

> <b_lp_Chiralities_Consistent>
1

> <s_lp_Variant>
CHEMBL2695_lig2101-2

> <s_i_glide_gridfile>
glide-grid_3bz3

> <i_i_glide_lignum>
2528

> <i_i_glide_rotatable_bonds>
4

> <r_i_docking_score>
-7.02055940945551

> <r_i_glide_ligand_efficiency>
-0.305241713454587

> <r_i_glide_ligand_efficiency_sa>
-0.868066828859542

> <r_i_glide_ligand_efficiency_ln>
-1.6976349241195

> <r_i_glide_gscore>
-7.02055940945551

> <r_i_glide_lipo>
-2.25872152868839

> <r_i_glide_hbond>
-0.32

> <r_i_glide_metal>
0

> <r_i_glide_rewards>
-2.97508767447037

> <r_i_glide_evdw>
-33.0400314331055

> <r_i_glide_ecoul>
-2.56899237632751

> <r_i_glide_erotb>
0.570600221807648

> <r_i_glide_esite>
0

> <r_i_glide_emodel>
-51.6740561865405

> <r_i_glide_energy>
-35.609023809433

> <r_i_glide_einternal>
5.69781732559204

> <i_i_glide_confnum>
7

> <i_i_glide_posenum>
227

> <r_i_glide_eff_state_penalty>
0

> <s_user_duplicate_titles>
CHEMBL2695_lig2101

> <s_m_subgroup_title>
dock_pv

> <s_m_subgroupid>
dock_pv

> <b_m_subgroup_collapsed>
1

$$$$
CHEMBL2695_lig503
                    3D
 Schrodinger Suite 2021-1.
 47 50  0  0  1  0            999 V2000
    4.6273    1.7754    6.5852 C   0  0  0  0  0  0
    4.8568    3.5853    6.1398 S   0  0  0  0  0  0
    4.1411    4.3974    7.1283 O   0  0  0  0  0  0
    4.5917    3.7495    4.7069 O   0  0  0  0  0  0
    6.6024    3.8636    6.4012 C   0  0  0  0  0  0
    7.4788    3.8967    5.3159 C   0  0  0  0  0  0
    8.8249    4.1736    5.5267 C   0  0  0  0  0  0
    9.3059    4.4190    6.8179 C   0  0  0  0  0  0
    8.4237    4.3446    7.9025 C   0  0  0  0  0  0
    7.0756    4.0673    7.6972 C   0  0  0  0  0  0
   10.7329    4.7769    7.0295 C   0  0  0  0  0  0
   11.1078    5.8351    7.8718 C   0  0  0  0  0  0
   12.4418    6.1757    8.1015 C   0  0  0  0  0  0
   13.4537    5.4186    7.5185 C   0  0  0  0  0  0
   13.0959    4.3624    6.7315 N   0  0  0  0  0  0
   13.9113    3.4046    6.2528 N   0  0  0  0  0  0
   13.0619    2.6126    5.6186 C   0  0  0  0  0  0
   13.5247    1.5630    4.8811 N   0  0  0  0  0  0
   12.9435    0.8910    3.7171 C   0  0  0  0  0  0
   11.4576    0.4608    3.8485 C   0  0  0  0  0  0
   10.9634   -0.5619    2.8219 C   0  0  0  0  0  0
    9.5960   -0.8362    2.7090 C   0  0  0  0  0  0
    9.1722   -1.8127    1.8073 C   0  0  0  0  0  0
   10.1180   -2.4955    1.0414 C   0  0  0  0  0  0
   11.4653   -2.1704    1.2055 C   0  0  0  0  0  0
   11.8937   -1.2190    2.0738 N   0  0  0  0  0  0
   11.7763    2.8842    5.7215 N   0  0  0  0  0  0
   11.7707    4.0195    6.4522 C   0  0  0  0  0  0
    3.5754    1.5242    6.4687 H   0  0  0  0  0  0
    5.2292    1.1659    5.9129 H   0  0  0  0  0  0
    4.9406    1.6245    7.6159 H   0  0  0  0  0  0
    7.1239    3.7258    4.3101 H   0  0  0  0  0  0
    9.4918    4.2160    4.6768 H   0  0  0  0  0  0
    8.7778    4.5149    8.9086 H   0  0  0  0  0  0
    6.3981    4.0351    8.5391 H   0  0  0  0  0  0
   10.3315    6.3635    8.3952 H   0  0  0  0  0  0
   12.6880    6.9937    8.7645 H   0  0  0  0  0  0
   14.5076    5.5629    7.6937 H   0  0  0  0  0  0
   14.5160    1.3722    4.9589 H   0  0  0  0  0  0
   13.5770    0.0276    3.5088 H   0  0  0  0  0  0
   13.0582    1.5582    2.8618 H   0  0  0  0  0  0
   10.8173    1.3420    3.7891 H   0  0  0  0  0  0
   11.2749    0.0352    4.8362 H   0  0  0  0  0  0
    8.8705   -0.3071    3.3116 H   0  0  0  0  0  0
    8.1201   -2.0415    1.7153 H   0  0  0  0  0  0
    9.8113   -3.2619    0.3449 H   0  0  0  0  0  0
   12.2293   -2.6868    0.6447 H   0  0  0  0  0  0
  1  2  1  0  0  0
  1 29  1  0  0  0
  1 30  1  0  0  0
  1 31  1  0  0  0
  2  3  2  0  0  0
  2  4  2  0  0  0
  2  5  1  0  0  0
  5  6  2  0  0  0
  5 10  1  0  0  0
  6  7  1  0  0  0
  6 32  1  0  0  0
  7  8  2  0  0  0
  7 33  1  0  0  0
  8  9  1  0  0  0
  8 11  1  0  0  0
  9 10  2  0  0  0
  9 34  1  0  0  0
 10 35  1  0  0  0
 11 12  2  0  0  0
 11 28  1  0  0  0
 12 13  1  0  0  0
 12 36  1  0  0  0
 13 14  2  0  0  0
 13 37  1  0  0  0
 14 15  1  0  0  0
 14 38  1  0  0  0
 15 16  1  0  0  0
 15 28  1  0  0  0
 16 17  2  0  0  0
 17 18  1  0  0  0
 17 27  1  0  0  0
 18 19  1  0  0  0
 18 39  1  0  0  0
 19 20  1  0  0  0
 19 40  1  0  0  0
 19 41  1  0  0  0
 20 21  1  0  0  0
 20 42  1  0  0  0
 20 43  1  0  0  0
 21 22  2  0  0  0
 21 26  1  0  0  0
 22 23  1  0  0  0
 22 44  1  0  0  0
 23 24  2  0  0  0
 23 45  1  0  0  0
 24 25  1  0  0  0
 24 46  1  0  0  0
 25 26  2  0  0  0
 25 47  1  0  0  0
 27 28  2  0  0  0
M  END
> <s_m_entry_id>
47754

> <s_m_entry_name>
dock_pv.287

> <s_m_Source_Path>
/home/csk/Desktop/cluster/DUD-E-result/fak1

> <s_m_Source_File>
dock_pv.maegz

> <i_m_Source_File_Index>
287

> <chembl_id>
CHEMBL3645113

> <chembl_pref_name>
None

> <i_lp_mmshare_version>
53161

> <i_f3d_flags>
0

> <r_lp_tautomer_probability>
1

> <s_lp_Force_Field>
OPLS_2005

> <r_lp_Energy>
11.755688

> <b_lp_Chiralities_Consistent>
1

> <s_lp_Variant>
CHEMBL2695_lig503-1

> <s_i_glide_gridfile>
glide-grid_3bz3

> <i_i_glide_lignum>
557

> <i_i_glide_rotatable_bonds>
6

> <r_i_docking_score>
-7.01314405053104

> <r_i_glide_ligand_efficiency>
-0.250469430376109

> <r_i_glide_ligand_efficiency_sa>
-0.760572709227276

> <r_i_glide_ligand_efficiency_ln>
-1.61883956171945

> <r_i_glide_gscore>
-7.01314405053104

> <r_i_glide_lipo>
-2.34754616053727

> <r_i_glide_hbond>
-0.41790954882754

> <r_i_glide_metal>
0

> <r_i_glide_rewards>
-2.02906841391962

> <r_i_glide_evdw>
-38.7107620239258

> <r_i_glide_ecoul>
-5.25214195251465

> <r_i_glide_erotb>
0.504739466826876

> <r_i_glide_esite>
0

> <r_i_glide_emodel>
-58.2561705833122

> <r_i_glide_energy>
-43.9629039764404

> <r_i_glide_einternal>
3.17487072944641

> <i_i_glide_confnum>
21

> <i_i_glide_posenum>
221

> <r_i_glide_eff_state_penalty>
0

> <s_user_duplicate_titles>
CHEMBL2695_lig503

> <s_m_subgroup_title>
dock_pv

> <s_m_subgroupid>
dock_pv

> <b_m_subgroup_collapsed>
1

$$$$
CHEMBL2695_lig1488 
                    3D
 Schrodinger Suite 2021-1.
 77 80  0  0  1  0            999 V2000
    2.5928    0.8446    8.0163 C   0  0  0  0  0  0
    1.2633    1.1875    8.3385 C   0  0  0  0  0  0
    1.0854    2.3546    9.0926 C   0  0  0  0  0  0
    2.1193    3.1333    9.4975 N   0  0  0  0  0  0
    3.3582    2.7316    9.1248 C   0  0  0  0  0  0
    3.6399    1.5981    8.4283 N   0  0  0  0  0  0
    4.4125    3.5622    9.5073 N   0  0  0  0  0  0
    5.6729    3.7028    8.9166 C   0  0  0  0  0  0
    2.9494   -0.3005    7.2920 N   0  0  0  0  0  0
    2.4796   -0.7503    6.0442 C   0  0  0  0  0  0
    2.7540   -2.0568    5.5707 C   0  0  0  0  0  0
    2.3596   -2.3962    4.2618 C   0  0  0  0  0  0
    1.6912   -1.4845    3.4505 C   0  0  0  0  0  0
    1.4076   -0.2105    3.9257 C   0  0  0  0  0  0
    1.8036    0.1519    5.2088 C   0  0  0  0  0  0
    5.8101    3.7121    7.5278 C   0  0  0  0  0  0
    7.0648    3.8842    6.9549 C   0  0  0  0  0  0
    8.1992    4.0056    7.7664 C   0  0  0  0  0  0
    8.0443    4.0357    9.1598 C   0  0  0  0  0  0
    6.7850    3.8890    9.7335 C   0  0  0  0  0  0
    9.5796    4.1985    7.1785 C   0  0  0  0  0  0
   10.2550    5.1304    7.6284 O   0  0  0  0  0  0
   10.0563    3.3408    6.2253 N   0  0  0  0  0  0
   11.4067    3.5709    5.6872 C   0  0  0  0  0  0
   12.1653    2.2239    5.5734 C   0  0  0  0  0  0
   11.3860    1.2839    4.7268 N   0  0  0  0  0  0
   10.0537    1.0159    5.3187 C   0  0  0  0  0  0
    9.2546    2.3261    5.5076 C   0  0  0  0  0  0
    3.4243   -3.1148    6.4243 C   0  0  0  0  0  0
    3.1494   -3.2420    7.6212 O   0  0  0  0  0  0
    4.2824   -3.9203    5.7753 N   0  0  0  0  0  0
    4.9436   -5.0902    6.3255 C   0  0  0  0  0  0
   11.9240    0.6261    3.6209 C   0  0  0  0  0  0
   10.7246   -0.4369    2.7864 S   0  0  0  0  0  0
   13.5223    0.7630    3.1088 S   0  0  0  0  0  0
   11.4733   -0.9713    1.1993 C   0  0  0  0  0  0
   11.7600   -2.4853    1.1146 C   0  0  0  0  0  0
   12.9871   -2.8243    0.3797 N   0  0  0  0  0  0
   14.1839   -2.4849    1.1538 C   0  0  0  0  0  0
   13.0034   -4.2630    0.1160 C   0  0  0  0  0  0
    0.0573    0.3238    7.9956 C   0  0  0  0  0  0
    0.0995    2.6805    9.3942 H   0  0  0  0  0  0
    4.1304    4.3353   10.0940 H   0  0  0  0  0  0
    3.8982   -0.5929    7.4694 H   0  0  0  0  0  0
    2.5558   -3.3800    3.8572 H   0  0  0  0  0  0
    1.3975   -1.7662    2.4492 H   0  0  0  0  0  0
    0.9005    0.5070    3.2965 H   0  0  0  0  0  0
    1.6101    1.1623    5.5351 H   0  0  0  0  0  0
    4.9450    3.6050    6.8920 H   0  0  0  0  0  0
    7.1357    3.9252    5.8769 H   0  0  0  0  0  0
    8.9039    4.1647    9.8044 H   0  0  0  0  0  0
    6.6750    3.9053   10.8083 H   0  0  0  0  0  0
   11.2648    4.0243    4.7094 H   0  0  0  0  0  0
   12.0031    4.2570    6.2943 H   0  0  0  0  0  0
   12.3031    1.7786    6.5582 H   0  0  0  0  0  0
   13.1661    2.4351    5.2060 H   0  0  0  0  0  0
   10.2078    0.5266    6.2783 H   0  0  0  0  0  0
    9.4117    0.3660    4.7313 H   0  0  0  0  0  0
    8.3535    2.0371    6.0426 H   0  0  0  0  0  0
    9.0027    2.7200    4.5223 H   0  0  0  0  0  0
    4.6715   -3.5702    4.9083 H   0  0  0  0  0  0
    5.1049   -5.8221    5.5365 H   0  0  0  0  0  0
    4.3485   -5.5625    7.1076 H   0  0  0  0  0  0
    5.9174   -4.8169    6.7340 H   0  0  0  0  0  0
   10.7213   -0.7414    0.4457 H   0  0  0  0  0  0
   12.3180   -0.3628    0.8871 H   0  0  0  0  0  0
   11.7789   -2.9240    2.1162 H   0  0  0  0  0  0
   10.9046   -2.9523    0.6259 H   0  0  0  0  0  0
   15.0892   -2.8457    0.6647 H   0  0  0  0  0  0
   14.2950   -1.4077    1.2542 H   0  0  0  0  0  0
   14.1513   -2.9174    2.1568 H   0  0  0  0  0  0
   13.8918   -4.5509   -0.4476 H   0  0  0  0  0  0
   12.9895   -4.8463    1.0396 H   0  0  0  0  0  0
   12.1381   -4.5557   -0.4796 H   0  0  0  0  0  0
   -0.6806    0.3760    8.7951 H   0  0  0  0  0  0
   -0.4114    0.6578    7.0686 H   0  0  0  0  0  0
    0.3319   -0.7274    7.8993 H   0  0  0  0  0  0
  1  2  2  0  0  0
  1  6  1  0  0  0
  1  9  1  0  0  0
  2  3  1  0  0  0
  2 41  1  0  0  0
  3  4  2  0  0  0
  3 42  1  0  0  0
  4  5  1  0  0  0
  5  6  2  0  0  0
  5  7  1  0  0  0
  7  8  1  0  0  0
  7 43  1  0  0  0
  8 16  2  0  0  0
  8 20  1  0  0  0
  9 10  1  0  0  0
  9 44  1  0  0  0
 10 11  2  0  0  0
 10 15  1  0  0  0
 11 12  1  0  0  0
 11 29  1  0  0  0
 12 13  2  0  0  0
 12 45  1  0  0  0
 13 14  1  0  0  0
 13 46  1  0  0  0
 14 15  2  0  0  0
 14 47  1  0  0  0
 15 48  1  0  0  0
 16 17  1  0  0  0
 16 49  1  0  0  0
 17 18  2  0  0  0
 17 50  1  0  0  0
 18 19  1  0  0  0
 18 21  1  0  0  0
 19 20  2  0  0  0
 19 51  1  0  0  0
 20 52  1  0  0  0
 21 22  2  0  0  0
 21 23  1  0  0  0
 23 24  1  0  0  0
 23 28  1  0  0  0
 24 25  1  0  0  0
 24 53  1  0  0  0
 24 54  1  0  0  0
 25 26  1  0  0  0
 25 55  1  0  0  0
 25 56  1  0  0  0
 26 27  1  0  0  0
 26 33  1  0  0  0
 27 28  1  0  0  0
 27 57  1  0  0  0
 27 58  1  0  0  0
 28 59  1  0  0  0
 28 60  1  0  0  0
 29 30  2  0  0  0
 29 31  1  0  0  0
 31 32  1  0  0  0
 31 61  1  0  0  0
 32 62  1  0  0  0
 32 63  1  0  0  0
 32 64  1  0  0  0
 33 34  1  0  0  0
 33 35  2  0  0  0
 34 36  1  0  0  0
 36 37  1  0  0  0
 36 65  1  0  0  0
 36 66  1  0  0  0
 37 38  1  0  0  0
 37 67  1  0  0  0
 37 68  1  0  0  0
 38 39  1  0  0  0
 38 40  1  0  0  0
 39 69  1  0  0  0
 39 70  1  0  0  0
 39 71  1  0  0  0
 40 72  1  0  0  0
 40 73  1  0  0  0
 40 74  1  0  0  0
 41 75  1  0  0  0
 41 76  1  0  0  0
 41 77  1  0  0  0
M  END
> <s_m_entry_id>
47755

> <s_m_entry_name>
dock_pv.288

> <s_m_Source_Path>
/home/csk/Desktop/cluster/DUD-E-result/fak1

> <s_m_Source_File>
dock_pv.maegz

> <i_m_Source_File_Index>
288

> <chembl_id>
CHEMBL4458861

> <chembl_pref_name>
None

> <i_lp_mmshare_version>
53161

> <i_f3d_flags>
0

> <r_lp_tautomer_probability>
0.999999624730965

> <s_lp_Force_Field>
OPLS_2005

> <r_lp_Energy>
75.184681

> <b_lp_Chiralities_Consistent>
1

> <s_lp_Variant>
CHEMBL2695_lig1488 -1

> <s_i_glide_gridfile>
glide-grid_3bz3

> <i_i_glide_lignum>
1625

> <i_i_glide_rotatable_bonds>
13

> <r_i_docking_score>
-7.00825450224167

> <r_i_glide_ligand_efficiency>
-0.170933036640041

> <r_i_glide_ligand_efficiency_sa>
-0.58941424316355

> <r_i_glide_ligand_efficiency_ln>
-1.48682451505229

> <r_i_glide_gscore>
-7.00825450224167

> <r_i_glide_lipo>
-1.68163016589754

> <r_i_glide_hbond>
-0.452288809555423

> <r_i_glide_metal>
0

> <r_i_glide_rewards>
-1.49969748330046

> <r_i_glide_evdw>
-49.4309501647949

> <r_i_glide_ecoul>
-8.09398460388184

> <r_i_glide_erotb>
0.545545739439366

> <r_i_glide_esite>
-0.234538584105597

> <r_i_glide_emodel>
-70.1402719593515

> <r_i_glide_energy>
-57.5249347686768

> <r_i_glide_einternal>
19.9058132171631

> <i_i_glide_confnum>
2

> <i_i_glide_posenum>
304

> <r_i_glide_eff_state_penalty>
0

> <s_user_duplicate_titles>
CHEMBL2695_lig1488 

> <s_m_subgroup_title>
dock_pv

> <s_m_subgroupid>
dock_pv

> <b_m_subgroup_collapsed>
1

$$$$
CHEMBL2695_lig233
                    3D
 Schrodinger Suite 2021-1.
 54 57  0  0  1  0            999 V2000
    5.5000    3.1644    9.5241 C   0  0  0  0  0  0
    6.3473    3.9438    8.7425 C   0  0  0  0  0  0
    5.9148    4.3628    7.4783 C   0  0  0  0  0  0
    4.6399    4.0267    7.0207 C   0  0  0  0  0  0
    7.5568    4.3629    9.3141 N   0  0  0  0  0  0
    8.7475    4.7929    8.7294 C   0  0  0  0  0  0
    9.0368    4.4470    7.4598 N   0  0  0  0  0  0
   10.2299    4.8446    6.9424 C   0  0  0  0  0  0
   11.1326    5.6025    7.7105 C   0  0  0  0  0  0
   10.7221    5.9630    8.9917 C   0  0  0  0  0  0
    9.5392    5.5583    9.5090 N   0  0  0  0  0  0
   10.5465    4.4698    5.6225 N   0  0  0  0  0  0
   12.5068    6.0367    7.2448 C   0  0  0  0  0  0
   13.3586    6.1517    8.2653 F   0  0  0  0  0  0
   13.0379    5.1794    6.3672 F   0  0  0  0  0  0
   12.3220    7.2396    6.7092 F   0  0  0  0  0  0
    4.2236    2.8226    9.0810 C   0  0  0  0  0  0
    3.7862    3.2752    7.8285 C   0  0  0  0  0  0
    2.4665    2.9287    7.5313 N   0  0  0  0  0  0
    1.8933    1.6528    8.5812 S   0  0  0  0  0  0
    3.1714    2.0795    9.8693 C   0  0  0  0  0  0
    0.5508    1.9626    9.0830 O   0  0  0  0  0  0
    2.1831    0.3331    8.0123 O   0  0  0  0  0  0
    9.8145    3.4146    4.9106 C   0  0  1  0  0  0
    9.7534    2.0764    5.7108 C   0  0  1  0  0  0
    8.2460    1.8076    5.8870 C   0  0  0  0  0  0
    7.5149    2.5725    4.7904 C   0  0  0  0  0  0
    8.3724    3.8095    4.5273 C   0  0  0  0  0  0
   10.5890    0.9865    5.1817 N   0  0  0  0  0  0
   12.0149    1.3105    5.2740 C   0  0  0  0  0  0
   10.1912    0.4784    3.8745 C   0  0  0  0  0  0
    5.8267    2.8530   10.5057 H   0  0  0  0  0  0
    6.5407    4.9910    6.8646 H   0  0  0  0  0  0
    4.3132    4.3875    6.0561 H   0  0  0  0  0  0
    7.4848    4.6161   10.2873 H   0  0  0  0  0  0
   11.3532    6.5656    9.6298 H   0  0  0  0  0  0
   11.5385    4.5113    5.4383 H   0  0  0  0  0  0
    2.2344    2.8501    6.5534 H   0  0  0  0  0  0
    3.5601    1.1635   10.3093 H   0  0  0  0  0  0
    2.7192    2.7020   10.6397 H   0  0  0  0  0  0
   10.3221    3.2347    3.9650 H   0  0  0  0  0  0
   10.1367    2.2744    6.7089 H   0  0  0  0  0  0
    7.9948    0.7630    5.8509 H   0  0  0  0  0  0
    7.9145    2.1466    6.8680 H   0  0  0  0  0  0
    6.4933    2.8249    5.0732 H   0  0  0  0  0  0
    7.4472    1.9404    3.9090 H   0  0  0  0  0  0
    8.0052    4.6660    5.0911 H   0  0  0  0  0  0
    8.3218    4.0990    3.4785 H   0  0  0  0  0  0
   12.6174    0.7630    4.5517 H   0  0  0  0  0  0
   12.3838    1.0760    6.2734 H   0  0  0  0  0  0
   12.2212    2.3662    5.1090 H   0  0  0  0  0  0
   10.7871   -0.3928    3.6003 H   0  0  0  0  0  0
    9.1452    0.1709    3.8683 H   0  0  0  0  0  0
   10.3218    1.2324    3.1090 H   0  0  0  0  0  0
  1  2  2  0  0  0
  1 17  1  0  0  0
  1 32  1  0  0  0
  2  3  1  0  0  0
  2  5  1  0  0  0
  3  4  2  0  0  0
  3 33  1  0  0  0
  4 18  1  0  0  0
  4 34  1  0  0  0
  5  6  1  0  0  0
  5 35  1  0  0  0
  6  7  2  0  0  0
  6 11  1  0  0  0
  7  8  1  0  0  0
  8  9  2  0  0  0
  8 12  1  0  0  0
  9 10  1  0  0  0
  9 13  1  0  0  0
 10 11  2  0  0  0
 10 36  1  0  0  0
 12 24  1  0  0  0
 12 37  1  0  0  0
 13 15  1  0  0  0
 13 16  1  0  0  0
 13 14  1  0  0  0
 17 18  2  0  0  0
 17 21  1  0  0  0
 18 19  1  0  0  0
 19 20  1  0  0  0
 19 38  1  0  0  0
 20 21  1  0  0  0
 20 22  2  0  0  0
 20 23  2  0  0  0
 21 39  1  0  0  0
 21 40  1  0  0  0
 24 25  1  0  0  0
 24 28  1  0  0  0
 24 41  1  0  0  0
 25 26  1  0  0  0
 25 29  1  0  0  0
 25 42  1  0  0  0
 26 27  1  0  0  0
 26 43  1  0  0  0
 26 44  1  0  0  0
 27 28  1  0  0  0
 27 45  1  0  0  0
 27 46  1  0  0  0
 28 47  1  0  0  0
 28 48  1  0  0  0
 29 30  1  0  0  0
 29 31  1  0  0  0
 30 49  1  0  0  0
 30 50  1  0  0  0
 30 51  1  0  0  0
 31 52  1  0  0  0
 31 53  1  0  0  0
 31 54  1  0  0  0
M  END
> <s_m_entry_id>
47756

> <s_m_entry_name>
dock_pv.289

> <s_m_Source_Path>
/home/csk/Desktop/cluster/DUD-E-result/fak1

> <s_m_Source_File>
dock_pv.maegz

> <i_m_Source_File_Index>
289

> <chembl_id>
CHEMBL452342

> <chembl_pref_name>
None

> <i_lp_mmshare_version>
53161

> <i_f3d_flags>
0

> <r_lp_tautomer_probability>
0.999999624730965

> <s_lp_Force_Field>
OPLS_2005

> <r_lp_Energy>
36.632655

> <b_lp_Chiralities_Consistent>
1

> <s_lp_Variant>
CHEMBL2695_lig233-1

> <s_i_glide_gridfile>
glide-grid_3bz3

> <i_i_glide_lignum>
266

> <i_i_glide_rotatable_bonds>
6

> <r_i_docking_score>
-7.00305324322528

> <r_i_glide_ligand_efficiency>
-0.225904943329848

> <r_i_glide_ligand_efficiency_sa>
-0.709653417443644

> <r_i_glide_ligand_efficiency_ln>
-1.57940312415458

> <r_i_glide_gscore>
-7.00305324322528

> <r_i_glide_lipo>
-2.47682581079669

> <r_i_glide_hbond>
-0.32

> <r_i_glide_metal>
0

> <r_i_glide_rewards>
-2.07877441292986

> <r_i_glide_evdw>
-37.4129333496094

> <r_i_glide_ecoul>
-3.91063213348389

> <r_i_glide_erotb>
0.385783942240135

> <r_i_glide_esite>
-0.0559954742358146

> <r_i_glide_emodel>
-51.3630086691944

> <r_i_glide_energy>
-41.3235654830933

> <r_i_glide_einternal>
14.0910167694092

> <i_i_glide_confnum>
37

> <i_i_glide_posenum>
87

> <r_i_glide_eff_state_penalty>
0

> <s_user_duplicate_titles>
CHEMBL2695_lig233

> <s_m_subgroup_title>
dock_pv

> <s_m_subgroupid>
dock_pv

> <b_m_subgroup_collapsed>
1

$$$$
CHEMBL2695_lig1692
                    3D
 Schrodinger Suite 2021-1.
 26 28  0  0  1  0            999 V2000
    9.2355    5.1624    9.8567 O   0  0  0  0  0  0
    7.1451    4.2723    9.9094 N   0  0  0  0  0  0
   11.4578    4.0753    6.1319 N   0  0  0  0  0  0
    8.2358    3.9753    7.9763 C   0  0  0  0  0  0
    6.9317    3.3215    7.9022 C   0  0  0  0  0  0
    6.2927    3.5641    9.0961 C   0  0  0  0  0  0
    8.3208    4.5455    9.3174 C   0  0  0  0  0  0
    9.1888    4.0371    7.0145 C   0  0  0  0  0  0
    6.2921    2.5744    6.9082 C   0  0  0  0  0  0
   10.5174    4.6347    6.9654 C   0  0  0  0  0  0
    4.9927    3.1242    9.3341 C   0  0  0  0  0  0
    4.9941    2.1055    7.1345 C   0  0  0  0  0  0
    4.3412    2.3897    8.3385 C   0  0  0  0  0  0
   11.1539    5.7109    7.5821 C   0  0  0  0  0  0
   12.6566    4.7300    6.2453 C   0  0  0  0  0  0
   12.4858    5.7543    7.1556 C   0  0  0  0  0  0
    6.9288    4.5389   10.8576 H   0  0  0  0  0  0
   11.2916    3.2769    5.5371 H   0  0  0  0  0  0
    8.9406    3.5422    6.0867 H   0  0  0  0  0  0
    6.7784    2.3448    5.9707 H   0  0  0  0  0  0
    4.4891    3.3415   10.2656 H   0  0  0  0  0  0
    4.4974    1.5214    6.3731 H   0  0  0  0  0  0
    3.3344    2.0392    8.5026 H   0  0  0  0  0  0
   10.7171    6.3922    8.2941 H   0  0  0  0  0  0
   13.5132    4.4079    5.6707 H   0  0  0  0  0  0
   13.2416    6.4590    7.4750 H   0  0  0  0  0  0
  1  7  2  0  0  0
  2  6  1  0  0  0
  2  7  1  0  0  0
  2 17  1  0  0  0
  3 10  1  0  0  0
  3 15  1  0  0  0
  3 18  1  0  0  0
  4  5  1  0  0  0
  4  7  1  0  0  0
  4  8  2  3  0  0
  5  6  1  0  0  0
  5  9  2  0  0  0
  6 11  2  0  0  0
  8 10  1  0  0  0
  8 19  1  0  0  0
  9 12  1  0  0  0
  9 20  1  0  0  0
 10 14  2  0  0  0
 11 13  1  0  0  0
 11 21  1  0  0  0
 12 13  2  0  0  0
 12 22  1  0  0  0
 13 23  1  0  0  0
 14 16  1  0  0  0
 14 24  1  0  0  0
 15 16  2  0  0  0
 15 25  1  0  0  0
 16 26  1  0  0  0
M  END
> <s_m_entry_id>
47757

> <s_m_entry_name>
dock_pv.290

> <s_m_Source_Path>
/home/csk/Desktop/cluster/DUD-E-result/fak1

> <s_m_Source_File>
dock_pv.maegz

> <i_m_Source_File_Index>
290

> <chembl_id>
CHEMBL1996176

> <chembl_pref_name>
None

> <i_lp_mmshare_version>
53161

> <i_f3d_flags>
0

> <r_lp_tautomer_probability>
1

> <s_lp_Force_Field>
OPLS_2005

> <r_lp_Energy>
28.729957

> <b_lp_Chiralities_Consistent>
1

> <s_lp_Variant>
CHEMBL2695_lig1692-2

> <s_i_glide_gridfile>
glide-grid_3bz3

> <i_i_glide_lignum>
1899

> <i_i_glide_rotatable_bonds>
1

> <r_i_docking_score>
-6.99063620757864

> <r_i_glide_ligand_efficiency>
-0.436914762973665

> <r_i_glide_ligand_efficiency_sa>
-1.1009562127432

> <r_i_glide_ligand_efficiency_ln>
-1.85300776794676

> <r_i_glide_gscore>
-6.99063620757864

> <r_i_glide_lipo>
-2.0654504541705

> <r_i_glide_hbond>
-0.248925855696635

> <r_i_glide_metal>
0

> <r_i_glide_rewards>
-2.72218451357149

> <r_i_glide_evdw>
-26.7087593078613

> <r_i_glide_ecoul>
-4.12424945831299

> <r_i_glide_erotb>
0

> <r_i_glide_esite>
0

> <r_i_glide_emodel>
-43.0474588024133

> <r_i_glide_energy>
-30.8330087661743

> <r_i_glide_einternal>
1.07330369949341

> <i_i_glide_confnum>
1

> <i_i_glide_posenum>
357

> <r_i_glide_eff_state_penalty>
0

> <s_user_duplicate_titles>
CHEMBL2695_lig1692

> <s_m_subgroup_title>
dock_pv

> <s_m_subgroupid>
dock_pv

> <b_m_subgroup_collapsed>
1

$$$$
CHEMBL2695_lig1752
                    3D
 Schrodinger Suite 2021-1.
 37 39  0  0  1  0            999 V2000
    9.5998    3.9646    6.3971 S   0  0  0  0  0  0
    9.8101    0.7629    4.3094 O   0  0  0  0  0  0
    4.0481    3.2709    8.7701 O   0  0  0  0  0  0
    3.5751    5.6603    7.5085 O   0  0  0  0  0  0
   11.1203    2.3240    5.2518 N   0  0  0  0  0  0
   12.3366    4.1052    6.1756 N   0  0  0  0  0  0
    8.8858    2.5912    5.5549 C   0  0  0  0  0  0
    9.9292    1.7835    4.9789 C   0  0  0  0  0  0
   11.2561    3.4783    5.9176 C   0  0  0  0  0  0
    6.4981    3.1314    5.9571 C   0  0  0  0  0  0
    7.5771    2.2857    5.4245 C   0  0  0  0  0  0
    4.7831    3.5763    7.6372 C   0  0  0  0  0  0
    5.7796    2.7424    7.0931 C   0  0  0  0  0  0
    4.5074    4.7946    6.9981 C   0  0  0  0  0  0
    6.1930    4.3424    5.3318 C   0  0  0  0  0  0
   12.4138    5.2751    6.9425 C   0  0  0  0  0  0
    5.1941    5.1629    5.8445 C   0  0  0  0  0  0
   13.3943    5.3336    7.9324 C   0  0  0  0  0  0
   11.6398    6.4236    6.7099 C   0  0  0  0  0  0
   13.5251    6.4565    8.7379 C   0  0  0  0  0  0
   11.7800    7.5593    7.5029 C   0  0  0  0  0  0
   12.7179    7.5627    8.5285 C   0  0  0  0  0  0
    4.3268    2.0714    9.4837 C   0  0  0  0  0  0
    3.4513    5.5354    8.4584 H   0  0  0  0  0  0
   11.9433    1.8651    4.8976 H   0  0  0  0  0  0
    7.2686    1.3957    4.8915 H   0  0  0  0  0  0
    6.0216    1.7987    7.5575 H   0  0  0  0  0  0
    6.7344    4.6546    4.4492 H   0  0  0  0  0  0
    4.9585    6.0938    5.3509 H   0  0  0  0  0  0
   14.0479    4.4903    8.1010 H   0  0  0  0  0  0
   10.9228    6.4275    5.9090 H   0  0  0  0  0  0
   14.2796    6.4759    9.5095 H   0  0  0  0  0  0
   11.1613    8.4271    7.3281 H   0  0  0  0  0  0
   12.8221    8.4215    9.1698 H   0  0  0  0  0  0
    3.6206    1.9684   10.3083 H   0  0  0  0  0  0
    4.2188    1.1874    8.8546 H   0  0  0  0  0  0
    5.3319    2.0935    9.9077 H   0  0  0  0  0  0
  1  7  1  0  0  0
  1  9  1  0  0  0
  2  8  2  0  0  0
  3 12  1  0  0  0
  3 23  1  0  0  0
  4 14  1  0  0  0
  4 24  1  0  0  0
  5  8  1  0  0  0
  5  9  1  0  0  0
  5 25  1  0  0  0
  6  9  2  3  0  0
  6 16  1  0  0  0
  7  8  1  0  0  0
  7 11  2  3  0  0
 10 11  1  0  0  0
 10 13  1  0  0  0
 10 15  2  0  0  0
 11 26  1  0  0  0
 12 13  2  0  0  0
 12 14  1  0  0  0
 13 27  1  0  0  0
 14 17  2  0  0  0
 15 17  1  0  0  0
 15 28  1  0  0  0
 16 18  2  0  0  0
 16 19  1  0  0  0
 17 29  1  0  0  0
 18 20  1  0  0  0
 18 30  1  0  0  0
 19 21  2  0  0  0
 19 31  1  0  0  0
 20 22  2  0  0  0
 20 32  1  0  0  0
 21 22  1  0  0  0
 21 33  1  0  0  0
 22 34  1  0  0  0
 23 35  1  0  0  0
 23 36  1  0  0  0
 23 37  1  0  0  0
M  END
> <s_m_entry_id>
47758

> <s_m_entry_name>
dock_pv.291

> <s_m_Source_Path>
/home/csk/Desktop/cluster/DUD-E-result/fak1

> <s_m_Source_File>
dock_pv.maegz

> <i_m_Source_File_Index>
291

> <chembl_id>
CHEMBL1970522

> <chembl_pref_name>
None

> <i_lp_mmshare_version>
53161

> <i_f3d_flags>
0

> <r_lp_tautomer_probability>
1

> <s_lp_Force_Field>
OPLS_2005

> <r_lp_Energy>
21.527101

> <b_lp_Chiralities_Consistent>
1

> <s_lp_Variant>
CHEMBL2695_lig1752-3

> <s_i_glide_gridfile>
glide-grid_3bz3

> <i_i_glide_lignum>
1993

> <i_i_glide_rotatable_bonds>
4

> <r_i_docking_score>
-6.99021292027643

> <r_i_glide_ligand_efficiency>
-0.303922300881584

> <r_i_glide_ligand_efficiency_sa>
-0.864314595014298

> <r_i_glide_ligand_efficiency_ln>
-1.69029686786925

> <r_i_glide_gscore>
-6.99021292027643

> <r_i_glide_lipo>
-2.84082926946986

> <r_i_glide_hbond>
0

> <r_i_glide_metal>
0

> <r_i_glide_rewards>
-1.68507465121876

> <r_i_glide_evdw>
-39.7361221313477

> <r_i_glide_ecoul>
-4.35710477828979

> <r_i_glide_erotb>
0.176062823723035

> <r_i_glide_esite>
0

> <r_i_glide_emodel>
-57.4946686230406

> <r_i_glide_energy>
-44.0932269096375

> <r_i_glide_einternal>
8.42642974853516

> <i_i_glide_confnum>
2

> <i_i_glide_posenum>
56

> <r_i_glide_eff_state_penalty>
0

> <s_user_duplicate_titles>
CHEMBL2695_lig1752

> <s_m_subgroup_title>
dock_pv

> <s_m_subgroupid>
dock_pv

> <b_m_subgroup_collapsed>
1

$$$$
CHEMBL2695_lig1791
                    3D
 Schrodinger Suite 2021-1.
 36 39  0  0  1  0            999 V2000
    6.3486    4.9322    4.9117 O   0  0  0  0  0  0
   11.5280    6.6154    8.9320 O   0  0  0  0  0  0
    4.3040    4.8335    5.9098 N   0  0  0  0  0  0
    9.9589    3.0370    5.0471 N   0  0  0  0  0  0
    5.9531    3.8793    7.0735 C   0  0  0  0  0  0
    4.7065    3.7459    7.8177 C   0  0  0  0  0  0
    8.4175    3.4891    6.6338 C   0  0  0  0  0  0
    9.6098    4.2461    6.9108 C   0  0  0  0  0  0
    3.7270    4.3480    7.0614 C   0  0  0  0  0  0
    5.6221    4.5903    5.8432 C   0  0  0  0  0  0
   10.5717    3.9199    5.9091 C   0  0  0  0  0  0
    7.1900    3.4472    7.4039 C   0  0  0  0  0  0
    8.6811    2.7890    5.4713 C   0  0  0  0  0  0
    9.9732    5.1630    7.9090 C   0  0  0  0  0  0
    4.3810    3.1481    9.0391 C   0  0  0  0  0  0
   11.2489    5.7313    7.9091 C   0  0  0  0  0  0
   11.8601    4.4619    5.9090 C   0  0  0  0  0  0
    2.3991    4.3898    7.4843 C   0  0  0  0  0  0
   12.1701    5.3706    6.9174 C   0  0  0  0  0  0
    3.0518    3.1651    9.4746 C   0  0  0  0  0  0
    2.0648    3.7920    8.7035 C   0  0  0  0  0  0
   12.8010    7.2594    8.9695 C   0  0  0  0  0  0
    3.7898    5.3168    5.1808 H   0  0  0  0  0  0
   10.3408    2.6136    4.2136 H   0  0  0  0  0  0
    7.3152    2.9622    8.3621 H   0  0  0  0  0  0
    8.0512    2.1090    4.9111 H   0  0  0  0  0  0
    9.2683    5.4327    8.6809 H   0  0  0  0  0  0
    5.1320    2.6639    9.6462 H   0  0  0  0  0  0
   12.5898    4.2045    5.1566 H   0  0  0  0  0  0
    1.6357    4.8689    6.8891 H   0  0  0  0  0  0
   13.1639    5.7931    6.9152 H   0  0  0  0  0  0
    2.7935    2.7095   10.4193 H   0  0  0  0  0  0
    1.0427    3.8154    9.0517 H   0  0  0  0  0  0
   12.8378    7.9615    9.8010 H   0  0  0  0  0  0
   13.6092    6.5381    9.1114 H   0  0  0  0  0  0
   12.9880    7.8296    8.0582 H   0  0  0  0  0  0
  1 10  2  0  0  0
  2 16  1  0  0  0
  2 22  1  0  0  0
  3  9  1  0  0  0
  3 10  1  0  0  0
  3 23  1  0  0  0
  4 11  1  0  0  0
  4 13  1  0  0  0
  4 24  1  0  0  0
  5  6  1  0  0  0
  5 10  1  0  0  0
  5 12  2  3  0  0
  6  9  1  0  0  0
  6 15  2  0  0  0
  7  8  1  0  0  0
  7 12  1  0  0  0
  7 13  2  0  0  0
  8 11  1  0  0  0
  8 14  2  0  0  0
  9 18  2  0  0  0
 11 17  2  0  0  0
 12 25  1  0  0  0
 13 26  1  0  0  0
 14 16  1  0  0  0
 14 27  1  0  0  0
 15 20  1  0  0  0
 15 28  1  0  0  0
 16 19  2  0  0  0
 17 19  1  0  0  0
 17 29  1  0  0  0
 18 21  1  0  0  0
 18 30  1  0  0  0
 19 31  1  0  0  0
 20 21  2  0  0  0
 20 32  1  0  0  0
 21 33  1  0  0  0
 22 34  1  0  0  0
 22 35  1  0  0  0
 22 36  1  0  0  0
M  END
> <s_m_entry_id>
47759

> <s_m_entry_name>
dock_pv.292

> <s_m_Source_Path>
/home/csk/Desktop/cluster/DUD-E-result/fak1

> <s_m_Source_File>
dock_pv.maegz

> <i_m_Source_File_Index>
292

> <chembl_id>
CHEMBL1997275

> <chembl_pref_name>
None

> <i_lp_mmshare_version>
53161

> <i_f3d_flags>
0

> <r_lp_tautomer_probability>
1

> <s_lp_Force_Field>
OPLS_2005

> <r_lp_Energy>
38.834641

> <b_lp_Chiralities_Consistent>
1

> <s_lp_Variant>
CHEMBL2695_lig1791-2

> <s_i_glide_gridfile>
glide-grid_3bz3

> <i_i_glide_lignum>
2051

> <i_i_glide_rotatable_bonds>
2

> <r_i_docking_score>
-6.98447378655791

> <r_i_glide_ligand_efficiency>
-0.317476081207178

> <r_i_glide_ligand_efficiency_sa>
-0.889580465168278

> <r_i_glide_ligand_efficiency_ln>
-1.7072601583062

> <r_i_glide_gscore>
-6.98447378655791

> <r_i_glide_lipo>
-2.57643914031722

> <r_i_glide_hbond>
-0.32

> <r_i_glide_metal>
0

> <r_i_glide_rewards>
-1.76377105251201

> <r_i_glide_evdw>
-34.120964050293

> <r_i_glide_ecoul>
-5.56284618377686

> <r_i_glide_erotb>
0.216211536352508

> <r_i_glide_esite>
0

> <r_i_glide_emodel>
-52.5587997577495

> <r_i_glide_energy>
-39.6838102340698

> <r_i_glide_einternal>
7.55467653274536

> <i_i_glide_confnum>
4

> <i_i_glide_posenum>
301

> <r_i_glide_eff_state_penalty>
0

> <s_user_duplicate_titles>
CHEMBL2695_lig1791,CHEMBL2695_lig1791

> <s_m_subgroup_title>
dock_pv

> <s_m_subgroupid>
dock_pv

> <b_m_subgroup_collapsed>
1

$$$$
CHEMBL2695_lig1191
                    3D
 Schrodinger Suite 2021-1.
 62 65  0  0  1  0            999 V2000
    9.7470   -0.8370    1.7775 N   0  0  0  0  0  0
   11.0788   -0.8949    1.8143 C   0  0  0  0  0  0
   11.6982   -1.6149    1.0325 O   0  0  0  0  0  0
   11.7906   -0.0370    2.8381 C   0  0  0  0  0  0
   13.1704    0.1941    2.7090 C   0  0  0  0  0  0
   13.8501    0.9853    3.6365 C   0  0  0  0  0  0
   13.1600    1.5630    4.7048 C   0  0  0  0  0  0
   11.7740    1.3987    4.8129 C   0  0  0  0  0  0
   11.0135    2.1181    5.9117 C   0  0  0  0  0  0
   10.3401    3.4590    5.5342 C   0  0  0  0  0  0
    9.9492    4.2360    6.7977 C   0  0  0  0  0  0
    8.7418    3.8567    7.3028 N   0  0  0  0  0  0
    8.3928    4.3312    8.5281 C   0  0  0  0  0  0
    7.1604    3.9854    9.0870 N   0  0  0  0  0  0
    6.1197    3.2237    8.5488 C   0  0  0  0  0  0
    4.8414    3.7728    8.5430 C   0  0  0  0  0  0
    3.7771    3.0632    7.9986 C   0  0  0  0  0  0
    3.9930    1.7934    7.4599 C   0  0  0  0  0  0
    2.8329    1.0308    6.8210 C   0  0  0  0  0  0
    2.6204    1.2897    5.3888 N   0  0  0  0  0  0
    2.3130    2.6918    5.0697 C   0  0  0  0  0  0
    1.9405    2.8299    3.5729 C   0  0  0  0  0  0
    3.0239    2.3630    2.7043 N   0  0  0  0  0  0
    3.3637    0.9778    3.0416 C   0  0  0  0  0  0
    3.7252    0.8182    4.5404 C   0  0  0  0  0  0
    5.2686    1.2244    7.5090 C   0  0  0  0  0  0
    6.3358    1.9432    8.0406 C   0  0  0  0  0  0
    9.1437    5.1630    9.2825 N   0  0  0  0  0  0
   10.3220    5.5630    8.7449 C   0  0  0  0  0  0
   10.7916    5.1367    7.4986 C   0  0  0  0  0  0
   12.1933    5.5968    7.0914 C   0  0  0  0  0  0
   12.6065    5.1630    5.9089 F   0  0  0  0  0  0
   12.2158    6.9300    7.0885 F   0  0  0  0  0  0
   13.0775    5.1758    7.9955 F   0  0  0  0  0  0
   11.1021    0.5767    3.9051 C   0  0  0  0  0  0
    9.2410   -0.1418    2.3087 H   0  0  0  0  0  0
    9.2475   -1.4210    1.1257 H   0  0  0  0  0  0
   13.7310   -0.2497    1.8980 H   0  0  0  0  0  0
   14.9159    1.1351    3.5424 H   0  0  0  0  0  0
   13.6992    2.1759    5.4125 H   0  0  0  0  0  0
   10.2591    1.4395    6.3090 H   0  0  0  0  0  0
   11.7288    2.2975    6.7090 H   0  0  0  0  0  0
   10.9566    4.0639    4.8782 H   0  0  0  0  0  0
    9.4465    3.2544    4.9405 H   0  0  0  0  0  0
    6.9675    4.4125    9.9798 H   0  0  0  0  0  0
    4.6798    4.7629    8.9370 H   0  0  0  0  0  0
    2.7940    3.5104    7.9785 H   0  0  0  0  0  0
    2.9862   -0.0392    6.9698 H   0  0  0  0  0  0
    1.9149    1.2708    7.3596 H   0  0  0  0  0  0
    1.4820    3.0371    5.6857 H   0  0  0  0  0  0
    3.1651    3.3362    5.2936 H   0  0  0  0  0  0
    1.7153    3.8691    3.3317 H   0  0  0  0  0  0
    1.0285    2.2726    3.3520 H   0  0  0  0  0  0
    2.7285    2.4144    1.7348 H   0  0  0  0  0  0
    4.1959    0.6578    2.4136 H   0  0  0  0  0  0
    2.5300    0.3238    2.7802 H   0  0  0  0  0  0
    4.6456    1.3623    4.7594 H   0  0  0  0  0  0
    3.9220   -0.2336    4.7516 H   0  0  0  0  0  0
    5.4427    0.2368    7.1090 H   0  0  0  0  0  0
    7.3221    1.5039    8.0583 H   0  0  0  0  0  0
   10.9154    6.2319    9.3522 H   0  0  0  0  0  0
   10.0351    0.4478    4.0242 H   0  0  0  0  0  0
  1  2  1  0  0  0
  1 36  1  0  0  0
  1 37  1  0  0  0
  2  3  2  0  0  0
  2  4  1  0  0  0
  4  5  2  0  0  0
  4 35  1  0  0  0
  5  6  1  0  0  0
  5 38  1  0  0  0
  6  7  2  0  0  0
  6 39  1  0  0  0
  7  8  1  0  0  0
  7 40  1  0  0  0
  8  9  1  0  0  0
  8 35  2  0  0  0
  9 10  1  0  0  0
  9 41  1  0  0  0
  9 42  1  0  0  0
 10 11  1  0  0  0
 10 43  1  0  0  0
 10 44  1  0  0  0
 11 12  2  0  0  0
 11 30  1  0  0  0
 12 13  1  0  0  0
 13 14  1  0  0  0
 13 28  2  0  0  0
 14 15  1  0  0  0
 14 45  1  0  0  0
 15 16  2  0  0  0
 15 27  1  0  0  0
 16 17  1  0  0  0
 16 46  1  0  0  0
 17 18  2  0  0  0
 17 47  1  0  0  0
 18 19  1  0  0  0
 18 26  1  0  0  0
 19 20  1  0  0  0
 19 48  1  0  0  0
 19 49  1  0  0  0
 20 21  1  0  0  0
 20 25  1  0  0  0
 21 22  1  0  0  0
 21 50  1  0  0  0
 21 51  1  0  0  0
 22 23  1  0  0  0
 22 52  1  0  0  0
 22 53  1  0  0  0
 23 24  1  0  0  0
 23 54  1  0  0  0
 24 25  1  0  0  0
 24 55  1  0  0  0
 24 56  1  0  0  0
 25 57  1  0  0  0
 25 58  1  0  0  0
 26 27  2  0  0  0
 26 59  1  0  0  0
 27 60  1  0  0  0
 28 29  1  0  0  0
 29 30  2  0  0  0
 29 61  1  0  0  0
 30 31  1  0  0  0
 31 32  1  0  0  0
 31 33  1  0  0  0
 31 34  1  0  0  0
 35 62  1  0  0  0
M  END
> <s_m_entry_id>
47760

> <s_m_entry_name>
dock_pv.293

> <s_m_Source_Path>
/home/csk/Desktop/cluster/DUD-E-result/fak1

> <s_m_Source_File>
dock_pv.maegz

> <i_m_Source_File_Index>
293

> <chembl_id>
CHEMBL3692202

> <chembl_pref_name>
None

> <i_lp_mmshare_version>
53161

> <i_f3d_flags>
0

> <r_lp_tautomer_probability>
0.999999987636

> <s_lp_Force_Field>
OPLS_2005

> <r_lp_Energy>
31.455566

> <b_lp_Chiralities_Consistent>
1

> <s_lp_Variant>
CHEMBL2695_lig1191-1

> <s_i_glide_gridfile>
glide-grid_3bz3

> <i_i_glide_lignum>
1293

> <i_i_glide_rotatable_bonds>
9

> <r_i_docking_score>
-6.98418045331489

> <r_i_glide_ligand_efficiency>
-0.199548012951854

> <r_i_glide_ligand_efficiency_sa>
-0.652734781658319

> <r_i_glide_ligand_efficiency_ln>
-1.5331826150363

> <r_i_glide_gscore>
-6.98418045331489

> <r_i_glide_lipo>
-2.73704700799649

> <r_i_glide_hbond>
-0.367850404240996

> <r_i_glide_metal>
0

> <r_i_glide_rewards>
-1.49403887890066

> <r_i_glide_evdw>
-37.6157836914062

> <r_i_glide_ecoul>
-7.05510854721069

> <r_i_glide_erotb>
0.605561795581928

> <r_i_glide_esite>
-0.0517504911067521

> <r_i_glide_emodel>
-58.6503669165343

> <r_i_glide_energy>
-44.6708922386169

> <r_i_glide_einternal>
7.7146577835083

> <i_i_glide_confnum>
8

> <i_i_glide_posenum>
208

> <r_i_glide_eff_state_penalty>
0

> <s_user_duplicate_titles>
CHEMBL2695_lig1191

> <s_m_subgroup_title>
dock_pv

> <s_m_subgroupid>
dock_pv

> <b_m_subgroup_collapsed>
1

$$$$
CHEMBL2695_lig2153
                    3D
 Schrodinger Suite 2021-1.
 35 37  0  0  1  0            999 V2000
   14.3220    3.9639    7.3736 Cl  0  0  0  0  0  0
    7.5487    3.9639    5.5758 S   0  0  0  0  0  0
   11.6271    4.0915    6.1194 O   0  0  0  0  0  0
    9.1318    3.9626    7.5705 N   0  0  0  0  0  0
    4.9137    3.4442    8.5258 N   0  0  0  0  0  0
    2.6519    3.9793    7.8684 N   0  0  0  0  0  0
    3.0925    2.9331    9.9084 N   0  0  0  0  0  0
    6.8601    3.9821    7.1828 C   0  0  0  0  0  0
    7.9225    3.9727    8.0994 C   0  0  0  0  0  0
    5.3744    3.9918    7.3671 C   0  0  0  0  0  0
    9.1380    3.9669    6.2611 C   0  0  0  0  0  0
   10.3916    3.9918    5.3949 C   0  0  0  0  0  0
    4.4997    4.5565    6.4269 C   0  0  0  0  0  0
    3.5721    3.4670    8.7214 C   0  0  0  0  0  0
   11.9701    5.2460    6.8053 C   0  0  0  0  0  0
    7.8842    4.0019    9.6154 C   0  0  0  0  0  0
   13.1851    5.2618    7.5095 C   0  0  0  0  0  0
    3.1358    4.5242    6.7229 C   0  0  0  0  0  0
   11.1601    6.3927    6.8527 C   0  0  0  0  0  0
   13.5087    6.3413    8.3320 C   0  0  0  0  0  0
   11.5221    7.4951    7.6262 C   0  0  0  0  0  0
   12.6804    7.4556    8.3927 C   0  0  0  0  0  0
    3.7764    2.7635   10.6402 H   0  0  0  0  0  0
    2.1451    3.1710   10.1498 H   0  0  0  0  0  0
   10.3554    4.7574    4.6192 H   0  0  0  0  0  0
   10.4418    3.0510    4.8461 H   0  0  0  0  0  0
    4.8504    5.0090    5.5115 H   0  0  0  0  0  0
    8.1139    3.0250   10.0414 H   0  0  0  0  0  0
    8.5999    4.7118   10.0296 H   0  0  0  0  0  0
    6.9112    4.2984   10.0064 H   0  0  0  0  0  0
    2.4110    4.9447    6.0397 H   0  0  0  0  0  0
   10.2308    6.4389    6.3097 H   0  0  0  0  0  0
   14.4095    6.3216    8.9237 H   0  0  0  0  0  0
   10.8870    8.3685    7.6575 H   0  0  0  0  0  0
   12.9415    8.2910    9.0257 H   0  0  0  0  0  0
  1 17  1  0  0  0
  2  8  1  0  0  0
  2 11  1  0  0  0
  3 12  1  0  0  0
  3 15  1  0  0  0
  4  9  1  0  0  0
  4 11  2  0  0  0
  5 10  1  0  0  0
  5 14  2  0  0  0
  6 14  1  0  0  0
  6 18  2  0  0  0
  7 14  1  0  0  0
  7 23  1  0  0  0
  7 24  1  0  0  0
  8  9  2  0  0  0
  8 10  1  0  0  0
  9 16  1  0  0  0
 10 13  2  0  0  0
 11 12  1  0  0  0
 12 25  1  0  0  0
 12 26  1  0  0  0
 13 18  1  0  0  0
 13 27  1  0  0  0
 15 17  1  0  0  0
 15 19  2  0  0  0
 16 28  1  0  0  0
 16 29  1  0  0  0
 16 30  1  0  0  0
 17 20  2  0  0  0
 18 31  1  0  0  0
 19 21  1  0  0  0
 19 32  1  0  0  0
 20 22  1  0  0  0
 20 33  1  0  0  0
 21 22  2  0  0  0
 21 34  1  0  0  0
 22 35  1  0  0  0
M  END
> <s_m_entry_id>
47761

> <s_m_entry_name>
dock_pv.294

> <s_m_Source_Path>
/home/csk/Desktop/cluster/DUD-E-result/fak1

> <s_m_Source_File>
dock_pv.maegz

> <i_m_Source_File_Index>
294

> <chembl_id>
CHEMBL1375640

> <chembl_pref_name>
None

> <i_lp_mmshare_version>
53161

> <i_f3d_flags>
0

> <r_lp_tautomer_probability>
0.999999987636

> <s_lp_Force_Field>
OPLS_2005

> <r_lp_Energy>
6.782556

> <b_lp_Chiralities_Consistent>
1

> <s_lp_Variant>
CHEMBL2695_lig2153-1

> <s_i_glide_gridfile>
glide-grid_3bz3

> <i_i_glide_lignum>
2612

> <i_i_glide_rotatable_bonds>
4

> <r_i_docking_score>
-6.97636903730003

> <r_i_glide_ligand_efficiency>
-0.317107683513638

> <r_i_glide_ligand_efficiency_sa>
-0.888548200342721

> <r_i_glide_ligand_efficiency_ln>
-1.70527906195966

> <r_i_glide_gscore>
-6.97636903730003

> <r_i_glide_lipo>
-3.28564927610659

> <r_i_glide_hbond>
-0.32

> <r_i_glide_metal>
0

> <r_i_glide_rewards>
-1.33994122727273

> <r_i_glide_evdw>
-39.8127403259277

> <r_i_glide_ecoul>
-4.43028593063354

> <r_i_glide_erotb>
0.680355041949262

> <r_i_glide_esite>
-0.0559536699785603

> <r_i_glide_emodel>
-59.8946549538252

> <r_i_glide_energy>
-44.2430262565613

> <r_i_glide_einternal>
4.57512617111206

> <i_i_glide_confnum>
14

> <i_i_glide_posenum>
168

> <r_i_glide_eff_state_penalty>
0

> <s_user_duplicate_titles>
CHEMBL2695_lig2153

> <s_m_subgroup_title>
dock_pv

> <s_m_subgroupid>
dock_pv

> <b_m_subgroup_collapsed>
1

$$$$
CHEMBL2695_lig1805
                    3D
 Schrodinger Suite 2021-1.
 52 56  0  0  1  0            999 V2000
    4.6418    4.3320    8.2415 O   0  0  0  0  0  0
    4.3213   -0.0413    7.1088 N   0  0  0  0  0  0
    5.6722    5.1635    4.7877 N   0  0  0  0  0  0
   13.9336    3.1058    6.3090 N   0  0  0  0  0  0
    1.1542    3.4913    9.1817 N   0  0  0  0  0  0
    2.3595    0.4176    8.1021 C   0  0  0  0  0  0
    3.3673    1.2743    8.6815 C   0  0  0  0  0  0
    2.9989   -0.4042    7.1224 C   0  0  0  0  0  0
    8.9057    3.6534    5.9432 C   0  0  0  0  0  0
    7.5149    4.1349    5.9672 C   0  0  0  0  0  0
   11.2808    4.0614    6.3106 C   0  0  0  0  0  0
   11.5587    2.7216    5.9062 C   0  0  0  0  0  0
    9.9407    4.5069    6.3260 C   0  0  0  0  0  0
    4.5363    0.9635    8.0112 C   0  0  0  0  0  0
    9.1903    2.3507    5.5314 C   0  0  0  0  0  0
    6.7190    4.0232    7.1140 C   0  0  0  0  0  0
    5.3945    4.4670    7.0959 C   0  0  0  0  0  0
    3.2244    2.3092    9.7884 C   0  0  0  0  0  0
    0.9802    0.2474    8.3089 C   0  0  0  0  0  0
   10.4978    1.8750    5.5069 C   0  0  0  0  0  0
    2.3104   -1.3597    6.3689 C   0  0  0  0  0  0
    6.9497    4.7189    4.8326 C   0  0  0  0  0  0
    2.5866    3.6590    9.3730 C   0  0  1  0  0  0
   12.3579    4.8936    6.7088 C   0  0  0  0  0  0
   12.9126    2.3185    5.9089 C   0  0  0  0  0  0
    4.9195    5.0400    5.9086 C   0  0  0  0  0  0
    0.2914   -0.7065    7.5607 C   0  0  0  0  0  0
    0.9440   -1.4906    6.6120 C   0  0  0  0  0  0
    3.2184    4.2918    8.1115 C   0  0  0  0  0  0
   13.6489    4.3661    6.7079 C   0  0  0  0  0  0
    5.0525   -0.4072    6.4979 H   0  0  0  0  0  0
    0.7519    4.3861    8.9344 H   0  0  0  0  0  0
    1.0103    2.8884    8.3832 H   0  0  0  0  0  0
    9.7289    5.5194    6.6368 H   0  0  0  0  0  0
    5.5313    1.3721    8.1222 H   0  0  0  0  0  0
    8.3830    1.6953    5.2281 H   0  0  0  0  0  0
    7.1192    3.5816    8.0142 H   0  0  0  0  0  0
    2.7190    1.9002   10.6632 H   0  0  0  0  0  0
    4.2264    2.5380   10.1534 H   0  0  0  0  0  0
    0.4588    0.8499    9.0395 H   0  0  0  0  0  0
   10.7051    0.8625    5.1906 H   0  0  0  0  0  0
    2.8112   -1.9608    5.6234 H   0  0  0  0  0  0
    7.5231    4.8265    3.9222 H   0  0  0  0  0  0
    2.7219    4.3603   10.2006 H   0  0  0  0  0  0
   12.1731    5.9105    7.0278 H   0  0  0  0  0  0
   13.1806    1.3176    5.6036 H   0  0  0  0  0  0
    3.9153    5.4230    5.8346 H   0  0  0  0  0  0
   -0.7670   -0.8368    7.7120 H   0  0  0  0  0  0
    0.3775   -2.2105    6.0374 H   0  0  0  0  0  0
    2.9342    3.7017    7.2368 H   0  0  0  0  0  0
    2.8334    5.3007    7.9553 H   0  0  0  0  0  0
   14.4838    4.9740    7.0302 H   0  0  0  0  0  0
  1 17  1  0  0  0
  1 29  1  0  0  0
  2  8  1  0  0  0
  2 14  1  0  0  0
  2 31  1  0  0  0
  3 22  2  0  0  0
  3 26  1  0  0  0
  4 25  2  0  0  0
  4 30  1  0  0  0
  5 23  1  0  0  0
  5 32  1  0  0  0
  5 33  1  0  0  0
  6  7  1  0  0  0
  6  8  1  0  0  0
  6 19  2  0  0  0
  7 14  2  0  0  0
  7 18  1  0  0  0
  8 21  2  0  0  0
  9 10  1  0  0  0
  9 13  1  0  0  0
  9 15  2  0  0  0
 10 16  2  0  0  0
 10 22  1  0  0  0
 11 12  1  0  0  0
 11 13  2  0  0  0
 11 24  1  0  0  0
 12 20  2  0  0  0
 12 25  1  0  0  0
 13 34  1  0  0  0
 14 35  1  0  0  0
 15 20  1  0  0  0
 15 36  1  0  0  0
 16 17  1  0  0  0
 16 37  1  0  0  0
 17 26  2  0  0  0
 18 23  1  0  0  0
 18 38  1  0  0  0
 18 39  1  0  0  0
 19 27  1  0  0  0
 19 40  1  0  0  0
 20 41  1  0  0  0
 21 28  1  0  0  0
 21 42  1  0  0  0
 22 43  1  0  0  0
 23 29  1  0  0  0
 23 44  1  0  0  0
 24 30  2  0  0  0
 24 45  1  0  0  0
 25 46  1  0  0  0
 26 47  1  0  0  0
 27 28  2  0  0  0
 27 48  1  0  0  0
 28 49  1  0  0  0
 29 50  1  0  0  0
 29 51  1  0  0  0
 30 52  1  0  0  0
M  END
> <s_m_entry_id>
47762

> <s_m_entry_name>
dock_pv.295

> <s_m_Source_Path>
/home/csk/Desktop/cluster/DUD-E-result/fak1

> <s_m_Source_File>
dock_pv.maegz

> <i_m_Source_File_Index>
295

> <chembl_id>
CHEMBL1981133

> <chembl_pref_name>
None

> <i_lp_mmshare_version>
53161

> <i_f3d_flags>
0

> <r_lp_tautomer_probability>
1

> <s_lp_Force_Field>
OPLS_2005

> <r_lp_Energy>
24.279899

> <b_lp_Chiralities_Consistent>
1

> <s_lp_Variant>
CHEMBL2695_lig1805-2

> <s_i_glide_gridfile>
glide-grid_3bz3

> <i_i_glide_lignum>
2071

> <i_i_glide_rotatable_bonds>
6

> <r_i_docking_score>
-6.97205812298314

> <r_i_glide_ligand_efficiency>
-0.232401937432771

> <r_i_glide_ligand_efficiency_sa>
-0.722126853619063

> <r_i_glide_ligand_efficiency_ln>
-1.58412757219947

> <r_i_glide_gscore>
-6.97205812298314

> <r_i_glide_lipo>
-2.75110021251047

> <r_i_glide_hbond>
-0.318200431493707

> <r_i_glide_metal>
0

> <r_i_glide_rewards>
-1.29086589081658

> <r_i_glide_evdw>
-38.709903717041

> <r_i_glide_ecoul>
-8.06761074066162

> <r_i_glide_erotb>
0.62803719808006

> <r_i_glide_esite>
-0.0942919892911493

> <r_i_glide_emodel>
-59.6679346648376

> <r_i_glide_energy>
-46.7775144577026

> <r_i_glide_einternal>
10.1679496765137

> <i_i_glide_confnum>
12

> <i_i_glide_posenum>
323

> <r_i_glide_eff_state_penalty>
0

> <s_user_duplicate_titles>
CHEMBL2695_lig1805

> <s_m_subgroup_title>
dock_pv

> <s_m_subgroupid>
dock_pv

> <b_m_subgroup_collapsed>
1

$$$$
CHEMBL2695_lig2023
                    3D
 Schrodinger Suite 2021-1.
 49 53  0  0  1  0            999 V2000
    3.7540    2.0341    8.1901 S   0  0  0  0  0  0
    3.1887    1.1629    9.2214 O   0  0  0  0  0  0
    3.3593    1.8683    6.7879 O   0  0  0  0  0  0
   11.1189    3.2207    6.1108 N   0  0  0  0  0  0
    9.9400    1.5197    5.2806 N   0  0  0  0  0  0
    5.5098    1.9428    8.3198 N   0  0  1  0  0  0
   13.8856    3.7346    6.3097 N   0  0  0  0  0  0
   13.2105    5.7741    7.4388 N   0  0  0  0  0  0
    9.8538    2.6751    5.9118 C   0  0  0  0  0  0
    8.5211    3.2457    6.4064 C   0  0  1  0  0  0
   11.5721    4.4285    6.7087 C   0  0  0  0  0  0
   12.0281    2.2863    5.6004 C   0  0  0  0  0  0
   12.9743    4.5979    6.7617 C   0  0  0  0  0  0
    7.4023    3.3406    5.3302 C   0  0  1  0  0  0
    6.3952    2.7955    7.4978 C   0  0  1  0  0  0
    7.8861    2.4741    7.5835 C   0  0  0  0  0  0
   11.2116    1.2598    5.0772 C   0  0  0  0  0  0
    3.3831    3.8016    8.7242 C   0  0  0  0  0  0
   13.3971    2.6051    5.7214 C   0  0  0  0  0  0
    6.1349    2.7599    6.0007 C   0  0  0  0  0  0
   10.9642    5.5630    7.3353 C   0  0  0  0  0  0
    3.3228    4.8665    7.6581 C   0  0  0  0  0  0
    2.0481    4.3833    8.3473 C   0  0  0  0  0  0
   12.0090    6.3666    7.7643 C   0  0  0  0  0  0
    7.2852    4.7558    4.7010 C   0  0  0  0  0  0
    5.8731    5.2193    4.3084 C   0  0  0  0  0  0
    5.8971    1.5308    9.1755 H   0  0  0  0  0  0
   14.1123    6.1711    7.6705 H   0  0  0  0  0  0
    8.7097    4.2436    6.7819 H   0  0  0  0  0  0
    7.6353    2.6566    4.5091 H   0  0  0  0  0  0
    6.2277    3.7851    7.9273 H   0  0  0  0  0  0
    8.3216    2.7629    8.5406 H   0  0  0  0  0  0
    8.0299    1.3978    7.4631 H   0  0  0  0  0  0
   11.5103    0.3634    4.5567 H   0  0  0  0  0  0
    3.8016    3.9976    9.7094 H   0  0  0  0  0  0
   14.1487    1.9460    5.3151 H   0  0  0  0  0  0
    5.9857    1.7296    5.6723 H   0  0  0  0  0  0
    5.2165    3.2848    5.7703 H   0  0  0  0  0  0
    9.9220    5.7713    7.4836 H   0  0  0  0  0  0
    3.4805    4.5972    6.6140 H   0  0  0  0  0  0
    3.7139    5.8576    7.8896 H   0  0  0  0  0  0
    1.5500    5.0397    9.0611 H   0  0  0  0  0  0
    1.3450    3.7636    7.7898 H   0  0  0  0  0  0
   12.0043    7.3102    8.2937 H   0  0  0  0  0  0
    7.7120    5.5163    5.3538 H   0  0  0  0  0  0
    7.9145    4.7644    3.8095 H   0  0  0  0  0  0
    5.9223    5.9650    3.5193 H   0  0  0  0  0  0
    5.2543    4.4121    3.9119 H   0  0  0  0  0  0
    5.3423    5.6527    5.1552 H   0  0  0  0  0  0
  1  2  2  0  0  0
  1  3  2  0  0  0
  1  6  1  0  0  0
  1 18  1  0  0  0
  4  9  1  0  0  0
  4 11  1  0  0  0
  4 12  1  0  0  0
  5  9  2  0  0  0
  5 17  1  0  0  0
  6 15  1  0  0  0
  6 27  1  0  0  0
  7 13  1  0  0  0
  7 19  2  0  0  0
  8 13  1  0  0  0
  8 24  1  0  0  0
  8 28  1  0  0  0
  9 10  1  0  0  0
 10 14  1  0  0  0
 10 16  1  0  0  0
 10 29  1  0  0  0
 11 13  2  0  0  0
 11 21  1  0  0  0
 12 17  2  0  0  0
 12 19  1  0  0  0
 14 20  1  0  0  0
 14 25  1  0  0  0
 14 30  1  0  0  0
 15 16  1  0  0  0
 15 20  1  0  0  0
 15 31  1  0  0  0
 16 32  1  0  0  0
 16 33  1  0  0  0
 17 34  1  0  0  0
 18 22  1  0  0  0
 18 23  1  0  0  0
 18 35  1  0  0  0
 19 36  1  0  0  0
 20 37  1  0  0  0
 20 38  1  0  0  0
 21 24  2  0  0  0
 21 39  1  0  0  0
 22 23  1  0  0  0
 22 40  1  0  0  0
 22 41  1  0  0  0
 23 42  1  0  0  0
 23 43  1  0  0  0
 24 44  1  0  0  0
 25 26  1  0  0  0
 25 45  1  0  0  0
 25 46  1  0  0  0
 26 47  1  0  0  0
 26 48  1  0  0  0
 26 49  1  0  0  0
M  END
> <s_m_entry_id>
47763

> <s_m_entry_name>
dock_pv.296

> <s_m_Source_Path>
/home/csk/Desktop/cluster/DUD-E-result/fak1

> <s_m_Source_File>
dock_pv.maegz

> <i_m_Source_File_Index>
296

> <chembl_id>
CHEMBL1992073

> <chembl_pref_name>
None

> <i_lp_mmshare_version>
53161

> <i_f3d_flags>
0

> <r_lp_tautomer_probability>
1

> <s_lp_Force_Field>
OPLS_2005

> <r_lp_Energy>
63.149951

> <b_lp_Chiralities_Consistent>
1

> <s_lp_Variant>
CHEMBL2695_lig2023-8

> <s_i_glide_gridfile>
glide-grid_3bz3

> <i_i_glide_lignum>
2398

> <i_i_glide_rotatable_bonds>
5

> <r_i_docking_score>
-6.9706425408348

> <r_i_glide_ligand_efficiency>
-0.268101636185954

> <r_i_glide_ligand_efficiency_sa>
-0.794250042271891

> <r_i_glide_ligand_efficiency_ln>
-1.63703252817131

> <r_i_glide_gscore>
-6.9706425408348

> <r_i_glide_lipo>
-2.14842381302604

> <r_i_glide_hbond>
-0.355029357636772

> <r_i_glide_metal>
0

> <r_i_glide_rewards>
-2.14840435702791

> <r_i_glide_evdw>
-36.6845588684082

> <r_i_glide_ecoul>
-5.64442253112793

> <r_i_glide_erotb>
0.387943612504603

> <r_i_glide_esite>
-0.0258373025590829

> <r_i_glide_emodel>
-49.9473774501509

> <r_i_glide_energy>
-42.3289813995361

> <r_i_glide_einternal>
17.157693862915

> <i_i_glide_confnum>
7

> <i_i_glide_posenum>
255

> <r_i_glide_eff_state_penalty>
0

> <s_user_duplicate_titles>
CHEMBL2695_lig2023

> <s_m_subgroup_title>
dock_pv

> <s_m_subgroupid>
dock_pv

> <b_m_subgroup_collapsed>
1

$$$$
CHEMBL2695_lig2146
                    3D
 Schrodinger Suite 2021-1.
 42 45  0  0  1  0            999 V2000
    5.8800    4.8808    4.7090 O   0  0  0  0  0  0
   13.5038    4.5757    6.6567 N   0  0  0  0  0  0
   13.9220    6.2841    8.3323 N   0  0  0  0  0  0
    5.4600    3.3163    6.2646 N   0  0  0  0  0  0
   11.1203    4.3115    6.1171 C   0  0  0  0  0  0
   11.7987    5.9628    7.7332 C   0  0  0  0  0  0
   10.0222    3.5470    5.4584 C   0  0  0  0  0  0
   13.1235    5.5311    7.5090 C   0  0  0  0  0  0
   10.7888    5.3295    7.0206 C   0  0  0  0  0  0
   12.4827    3.9954    5.9668 C   0  0  0  0  0  0
    7.6227    3.3169    5.1090 C   0  0  0  0  0  0
    8.7427    4.1149    5.3365 C   0  0  0  0  0  0
   11.8450    6.9976    8.7049 C   0  0  0  0  0  0
   10.1859    2.2028    5.0997 C   0  0  0  0  0  0
    6.2507    3.8926    5.3378 C   0  0  0  0  0  0
   13.1613    7.1630    9.0602 C   0  0  0  0  0  0
    7.8076    1.9780    4.7559 C   0  0  0  0  0  0
    9.0910    1.4368    4.7090 C   0  0  0  0  0  0
    5.8763    2.4877    7.4090 C   0  0  0  0  0  0
    6.5494    3.2688    8.5399 C   0  0  0  0  0  0
    5.8184    3.6650    9.6640 C   0  0  0  0  0  0
    7.9219    3.5245    8.4974 C   0  0  0  0  0  0
    6.4535    4.3517   10.6986 C   0  0  0  0  0  0
    8.5345    4.2554    9.5085 C   0  0  0  0  0  0
    7.8004    4.6627   10.6104 C   0  0  0  0  0  0
   14.9406    6.2661    8.3711 H   0  0  0  0  0  0
    4.5357    3.7137    6.3363 H   0  0  0  0  0  0
    9.7672    5.6038    7.2216 H   0  0  0  0  0  0
   12.7970    3.2077    5.3000 H   0  0  0  0  0  0
    8.5807    5.1559    5.5737 H   0  0  0  0  0  0
   11.0075    7.5517    9.0850 H   0  0  0  0  0  0
   11.1508    1.7237    5.1607 H   0  0  0  0  0  0
   13.6279    7.8455    9.7572 H   0  0  0  0  0  0
    6.9617    1.3494    4.5178 H   0  0  0  0  0  0
    9.2237    0.4063    4.4156 H   0  0  0  0  0  0
    6.5333    1.6767    7.0900 H   0  0  0  0  0  0
    4.9917    1.9856    7.8036 H   0  0  0  0  0  0
    4.7638    3.4434    9.7463 H   0  0  0  0  0  0
    8.5208    3.1611    7.6816 H   0  0  0  0  0  0
    5.9220    4.6520   11.5809 H   0  0  0  0  0  0
    9.5758    4.5018    9.4485 H   0  0  0  0  0  0
    8.2762    5.2110   11.4093 H   0  0  0  0  0  0
  1 15  2  0  0  0
  2  8  2  0  0  0
  2 10  1  0  0  0
  3  8  1  0  0  0
  3 16  1  0  0  0
  3 26  1  0  0  0
  4 15  1  0  0  0
  4 19  1  0  0  0
  4 27  1  0  0  0
  5  7  1  0  0  0
  5  9  1  0  0  0
  5 10  2  0  0  0
  6  8  1  0  0  0
  6  9  2  0  0  0
  6 13  1  0  0  0
  7 12  2  0  0  0
  7 14  1  0  0  0
  9 28  1  0  0  0
 10 29  1  0  0  0
 11 12  1  0  0  0
 11 15  1  0  0  0
 11 17  2  0  0  0
 12 30  1  0  0  0
 13 16  2  0  0  0
 13 31  1  0  0  0
 14 18  2  0  0  0
 14 32  1  0  0  0
 16 33  1  0  0  0
 17 18  1  0  0  0
 17 34  1  0  0  0
 18 35  1  0  0  0
 19 20  1  0  0  0
 19 36  1  0  0  0
 19 37  1  0  0  0
 20 21  2  0  0  0
 20 22  1  0  0  0
 21 23  1  0  0  0
 21 38  1  0  0  0
 22 24  2  0  0  0
 22 39  1  0  0  0
 23 25  2  0  0  0
 23 40  1  0  0  0
 24 25  1  0  0  0
 24 41  1  0  0  0
 25 42  1  0  0  0
M  END
> <s_m_entry_id>
47764

> <s_m_entry_name>
dock_pv.297

> <s_m_Source_Path>
/home/csk/Desktop/cluster/DUD-E-result/fak1

> <s_m_Source_File>
dock_pv.maegz

> <i_m_Source_File_Index>
297

> <chembl_id>
CHEMBL1972142

> <chembl_pref_name>
None

> <i_lp_mmshare_version>
53161

> <i_f3d_flags>
0

> <r_lp_tautomer_probability>
0.999998432528457

> <s_lp_Force_Field>
OPLS_2005

> <r_lp_Energy>
16.759974

> <b_lp_Chiralities_Consistent>
1

> <s_lp_Variant>
CHEMBL2695_lig2146-1

> <s_i_glide_gridfile>
glide-grid_3bz3

> <i_i_glide_lignum>
2602

> <i_i_glide_rotatable_bonds>
5

> <r_i_docking_score>
-6.96581273826011

> <r_i_glide_ligand_efficiency>
-0.278632509530405

> <r_i_glide_ligand_efficiency_sa>
-0.814726399435501

> <r_i_glide_ligand_efficiency_ln>
-1.65110636753044

> <r_i_glide_gscore>
-6.96581273826011

> <r_i_glide_lipo>
-4.00755607505011

> <r_i_glide_hbond>
-0.32

> <r_i_glide_metal>
0

> <r_i_glide_rewards>
-0.431749721135044

> <r_i_glide_evdw>
-38.7770500183105

> <r_i_glide_ecoul>
-6.4538631439209

> <r_i_glide_erotb>
0.700425030428699

> <r_i_glide_esite>
0

> <r_i_glide_emodel>
-51.7790661215857

> <r_i_glide_energy>
-45.2309131622314

> <r_i_glide_einternal>
11.4385385513306

> <i_i_glide_confnum>
5

> <i_i_glide_posenum>
219

> <r_i_glide_eff_state_penalty>
0

> <s_user_duplicate_titles>
CHEMBL2695_lig2146

> <s_m_subgroup_title>
dock_pv

> <s_m_subgroupid>
dock_pv

> <b_m_subgroup_collapsed>
1

$$$$
CHEMBL2695_lig1847
                    3D
 Schrodinger Suite 2021-1.
 37 39  0  0  1  0            999 V2000
   11.9112    3.9644    6.3093 C   0  0  0  0  0  0
   13.1877    3.5736    6.1461 N   0  0  0  0  0  0
   13.3154    2.3583    5.5537 C   0  0  0  0  0  0
   12.3218    1.5526    5.1090 N   0  0  0  0  0  0
   11.0501    1.9910    5.2615 C   0  0  0  0  0  0
   10.7807    3.2190    5.8874 C   0  0  0  0  0  0
    9.6545    4.0211    6.2399 C   0  0  0  0  0  0
   10.0533    5.1145    6.8448 N   0  0  0  0  0  0
   11.4049    5.0985    6.9491 N   0  0  0  0  0  0
    8.2080    3.7511    6.0120 C   0  0  0  0  0  0
    7.4459    4.6856    5.3119 C   0  0  0  0  0  0
    6.0855    4.4815    5.1091 C   0  0  0  0  0  0
    5.4921    3.3139    5.5791 C   0  0  0  0  0  0
    6.2482    2.3626    6.2613 C   0  0  0  0  0  0
    7.6085    2.5782    6.4766 C   0  0  0  0  0  0
   12.0663    6.2092    7.6958 C   0  0  0  0  0  0
   11.7587    7.5448    6.9798 C   0  0  0  0  0  0
   13.5936    6.0112    7.8002 C   0  0  0  0  0  0
   11.5157    6.2843    9.1388 C   0  0  0  0  0  0
   10.0368    1.1938    4.7434 N   0  0  0  0  0  0
    3.8121    3.0391    5.2974 Cl  0  0  0  0  0  0
   14.3226    1.9904    5.4161 H   0  0  0  0  0  0
    7.9246    5.5630    4.9162 H   0  0  0  0  0  0
    5.4967    5.2100    4.5702 H   0  0  0  0  0  0
    5.7870    1.4497    6.6123 H   0  0  0  0  0  0
    8.1884    1.8408    7.0118 H   0  0  0  0  0  0
   10.7220    7.8452    7.1102 H   0  0  0  0  0  0
   12.3724    8.3617    7.3605 H   0  0  0  0  0  0
   11.9199    7.4741    5.9093 H   0  0  0  0  0  0
   13.8516    5.0988    8.3391 H   0  0  0  0  0  0
   14.0646    5.9552    6.8237 H   0  0  0  0  0  0
   14.0653    6.8380    8.3343 H   0  0  0  0  0  0
   11.7989    5.4130    9.7277 H   0  0  0  0  0  0
   11.9221    7.1611    9.6463 H   0  0  0  0  0  0
   10.4284    6.3631    9.1677 H   0  0  0  0  0  0
    9.0812    1.5241    4.7644 H   0  0  0  0  0  0
   10.2811    0.3459    4.2574 H   0  0  0  0  0  0
  1  2  1  0  0  0
  1  6  2  0  0  0
  1  9  1  0  0  0
  2  3  2  0  0  0
  3  4  1  0  0  0
  3 22  1  0  0  0
  4  5  2  0  0  0
  5  6  1  0  0  0
  5 20  1  0  0  0
  6  7  1  0  0  0
  7  8  2  0  0  0
  7 10  1  0  0  0
  8  9  1  0  0  0
  9 16  1  0  0  0
 10 11  1  0  0  0
 10 15  2  0  0  0
 11 12  2  0  0  0
 11 23  1  0  0  0
 12 13  1  0  0  0
 12 24  1  0  0  0
 13 14  2  0  0  0
 13 21  1  0  0  0
 14 15  1  0  0  0
 14 25  1  0  0  0
 15 26  1  0  0  0
 16 17  1  0  0  0
 16 18  1  0  0  0
 16 19  1  0  0  0
 17 27  1  0  0  0
 17 28  1  0  0  0
 17 29  1  0  0  0
 18 30  1  0  0  0
 18 31  1  0  0  0
 18 32  1  0  0  0
 19 33  1  0  0  0
 19 34  1  0  0  0
 19 35  1  0  0  0
 20 36  1  0  0  0
 20 37  1  0  0  0
M  END
> <s_m_entry_id>
47765

> <s_m_entry_name>
dock_pv.298

> <s_m_Source_Path>
/home/csk/Desktop/cluster/DUD-E-result/fak1

> <s_m_Source_File>
dock_pv.maegz

> <i_m_Source_File_Index>
298

> <chembl_id>
CHEMBL406845

> <chembl_pref_name>
None

> <i_lp_mmshare_version>
53161

> <i_f3d_flags>
0

> <r_lp_tautomer_probability>
1

> <s_lp_Force_Field>
OPLS_2005

> <r_lp_Energy>
18.38448

> <b_lp_Chiralities_Consistent>
1

> <s_lp_Variant>
CHEMBL2695_lig1847-1

> <s_i_glide_gridfile>
glide-grid_3bz3

> <i_i_glide_lignum>
2132

> <i_i_glide_rotatable_bonds>
2

> <r_i_docking_score>
-6.95937567019206

> <r_i_glide_ligand_efficiency>
-0.331398841437717

> <r_i_glide_ligand_efficiency_sa>
-0.914304274739338

> <r_i_glide_ligand_efficiency_ln>
-1.72069157171232

> <r_i_glide_gscore>
-6.95937567019206

> <r_i_glide_lipo>
-2.54961578271286

> <r_i_glide_hbond>
0

> <r_i_glide_metal>
0

> <r_i_glide_rewards>
-2.67778639995759

> <r_i_glide_evdw>
-34.839412689209

> <r_i_glide_ecoul>
-1.28048956394196

> <r_i_glide_erotb>
0.202070581530139

> <r_i_glide_esite>
0

> <r_i_glide_emodel>
-48.3671109989003

> <r_i_glide_energy>
-36.1199022531509

> <r_i_glide_einternal>
2.77936577796936

> <i_i_glide_confnum>
1

> <i_i_glide_posenum>
330

> <r_i_glide_eff_state_penalty>
0

> <s_user_duplicate_titles>
CHEMBL2695_lig1847

> <s_m_subgroup_title>
dock_pv

> <s_m_subgroupid>
dock_pv

> <b_m_subgroup_collapsed>
1

$$$$
CHEMBL2695_lig74
                    3D
 Schrodinger Suite 2021-1.
 47 50  0  0  1  0            999 V2000
    9.9304    0.8978    4.5179 N   0  0  0  0  0  0
    9.4210    1.9404    5.2114 C   0  0  0  0  0  0
   10.1257    2.9130    5.8571 N   0  0  0  0  0  0
   11.2700    0.7624    4.4784 C   0  0  0  0  0  0
   12.1107    1.6807    5.1100 C   0  0  0  0  0  0
   11.4607    2.7700    5.7727 C   0  0  0  0  0  0
   12.4631    3.6346    6.2295 N   0  0  0  0  0  0
   13.6762    3.0518    5.9090 C   0  0  0  0  0  0
   13.5175    1.8700    5.2273 C   0  0  0  0  0  0
    8.0274    1.9656    5.1865 N   0  0  0  0  0  0
    7.0536    2.6824    5.8848 C   0  0  0  0  0  0
    7.2677    3.2427    7.1427 C   0  0  0  0  0  0
    6.2204    3.8525    7.8333 C   0  0  0  0  0  0
    4.9473    3.9344    7.2389 C   0  0  0  0  0  0
    4.7198    3.3664    5.9771 C   0  0  0  0  0  0
    5.7868    2.7505    5.3105 C   0  0  0  0  0  0
    3.4344    3.4329    5.4674 O   0  0  0  0  0  0
    3.1290    2.7811    4.2394 C   0  0  0  0  0  0
    3.8959    4.5122    7.9088 O   0  0  0  0  0  0
    3.5882    5.8418    7.5091 C   0  0  0  0  0  0
    6.4925    4.3626    9.0817 O   0  0  0  0  0  0
    5.8494    3.7008   10.1644 C   0  0  0  0  0  0
   12.3487    4.9127    6.8292 C   0  0  0  0  0  0
   13.3237    5.3825    7.7286 C   0  0  0  0  0  0
   13.1861    6.6432    8.3097 C   0  0  0  0  0  0
   12.0772    7.4126    7.9656 C   0  0  0  0  0  0
   11.1220    6.9810    7.1091 N   0  0  0  0  0  0
   11.2497    5.7410    6.5774 C   0  0  0  0  0  0
   11.6583   -0.0674    3.9073 H   0  0  0  0  0  0
   14.5888    3.5656    6.1620 H   0  0  0  0  0  0
   14.3067    1.2530    4.8241 H   0  0  0  0  0  0
    7.6438    1.1989    4.6532 H   0  0  0  0  0  0
    8.2363    3.1689    7.6150 H   0  0  0  0  0  0
    5.6367    2.2829    4.3480 H   0  0  0  0  0  0
    2.0838    2.9581    3.9873 H   0  0  0  0  0  0
    3.7301    3.1623    3.4140 H   0  0  0  0  0  0
    3.2757    1.7027    4.3170 H   0  0  0  0  0  0
    2.6143    6.1226    7.9100 H   0  0  0  0  0  0
    4.3206    6.5419    7.9068 H   0  0  0  0  0  0
    3.5452    5.9567    6.4231 H   0  0  0  0  0  0
    6.3129    4.0083   11.1027 H   0  0  0  0  0  0
    5.9387    2.6136   10.0960 H   0  0  0  0  0  0
    4.7928    3.9619   10.2234 H   0  0  0  0  0  0
   14.1836    4.7849    7.9924 H   0  0  0  0  0  0
   13.9321    7.0175    8.9962 H   0  0  0  0  0  0
   11.9302    8.3951    8.3860 H   0  0  0  0  0  0
   10.4573    5.4438    5.9090 H   0  0  0  0  0  0
  1  2  2  0  0  0
  1  4  1  0  0  0
  2 10  1  0  0  0
  2  3  1  0  0  0
  3  6  2  0  0  0
  4  5  2  0  0  0
  4 29  1  0  0  0
  5  9  1  0  0  0
  5  6  1  0  0  0
  6  7  1  0  0  0
  7  8  1  0  0  0
  7 23  1  0  0  0
  8  9  2  0  0  0
  8 30  1  0  0  0
  9 31  1  0  0  0
 10 11  1  0  0  0
 10 32  1  0  0  0
 11 16  2  0  0  0
 11 12  1  0  0  0
 12 13  2  0  0  0
 12 33  1  0  0  0
 13 14  1  0  0  0
 13 21  1  0  0  0
 14 15  2  0  0  0
 14 19  1  0  0  0
 15 16  1  0  0  0
 15 17  1  0  0  0
 16 34  1  0  0  0
 17 18  1  0  0  0
 18 35  1  0  0  0
 18 36  1  0  0  0
 18 37  1  0  0  0
 19 20  1  0  0  0
 20 38  1  0  0  0
 20 39  1  0  0  0
 20 40  1  0  0  0
 21 22  1  0  0  0
 22 41  1  0  0  0
 22 42  1  0  0  0
 22 43  1  0  0  0
 23 24  2  0  0  0
 23 28  1  0  0  0
 24 25  1  0  0  0
 24 44  1  0  0  0
 25 26  2  0  0  0
 25 45  1  0  0  0
 26 27  1  0  0  0
 26 46  1  0  0  0
 27 28  2  0  0  0
 28 47  1  0  0  0
M  END
> <s_m_entry_id>
47766

> <s_m_entry_name>
dock_pv.299

> <s_m_Source_Path>
/home/csk/Desktop/cluster/DUD-E-result/fak1

> <s_m_Source_File>
dock_pv.maegz

> <i_m_Source_File_Index>
299

> <chembl_id>
CHEMBL378811

> <chembl_pref_name>
None

> <i_lp_mmshare_version>
53161

> <i_f3d_flags>
0

> <r_lp_tautomer_probability>
1

> <s_lp_Force_Field>
OPLS_2005

> <r_lp_Energy>
24.27072

> <b_lp_Chiralities_Consistent>
1

> <s_lp_Variant>
CHEMBL2695_lig74-1

> <s_i_glide_gridfile>
glide-grid_3bz3

> <i_i_glide_lignum>
96

> <i_i_glide_rotatable_bonds>
6

> <r_i_docking_score>
-6.95880238249871

> <r_i_glide_ligand_efficiency>
-0.248528656517811

> <r_i_glide_ligand_efficiency_sa>
-0.754679376738811

> <r_i_glide_ligand_efficiency_ln>
-1.60629590919688

> <r_i_glide_gscore>
-6.95880238249871

> <r_i_glide_lipo>
-3.54774563383198

> <r_i_glide_hbond>
-0.00109109833839908

> <r_i_glide_metal>
0

> <r_i_glide_rewards>
-1.73534303728258

> <r_i_glide_evdw>
-41.297435760498

> <r_i_glide_ecoul>
0.298342645168304

> <r_i_glide_erotb>
0.407952986299353

> <r_i_glide_esite>
-0.0624552080954509

> <r_i_glide_emodel>
-51.2478315864776

> <r_i_glide_energy>
-40.9990931153297

> <r_i_glide_einternal>
13.2036018371582

> <i_i_glide_confnum>
1

> <i_i_glide_posenum>
274

> <r_i_glide_eff_state_penalty>
0

> <s_user_duplicate_titles>
CHEMBL2695_lig74,345100

> <s_m_subgroup_title>
dock_pv

> <s_m_subgroupid>
dock_pv

> <b_m_subgroup_collapsed>
1

$$$$
CHEMBL2695_lig2043
                    3D
 Schrodinger Suite 2021-1.
 32 34  0  0  1  0            999 V2000
   11.9100    7.3845    7.9090 I   0  0  0  0  0  0
    7.7763    4.6243    5.3628 O   0  0  0  0  0  0
    8.8101    1.2748    5.9090 O   0  0  0  0  0  0
    6.3582    1.9630    4.7090 O   0  0  0  0  0  0
    4.1244    4.3630    5.5296 O   0  0  0  0  0  0
   10.0196    4.1614    5.9098 N   0  0  0  0  0  0
   10.0383    5.3332    6.5870 N   0  0  0  0  0  0
   11.6703    2.3630    5.5090 N   0  0  0  0  0  0
   13.9219    2.9477    6.2498 N   0  0  0  0  0  0
   14.3220    4.9138    7.4592 N   0  0  0  0  0  0
    8.7681    3.6265    5.3965 C   0  0  1  0  0  0
   11.2787    3.5713    5.9440 C   0  0  0  0  0  0
   12.1261    4.5123    6.5694 C   0  0  0  0  0  0
    8.1951    2.4999    6.2519 C   0  0  1  0  0  0
   11.2707    5.5915    6.9230 C   0  0  0  0  0  0
    6.7135    2.6310    5.9135 C   0  0  1  0  0  0
    6.5288    4.1577    5.8738 C   0  0  2  0  0  0
   13.4656    4.1356    6.7090 C   0  0  0  0  0  0
   13.0014    2.1273    5.6804 C   0  0  0  0  0  0
    5.3874    4.7134    4.9982 C   0  0  0  0  0  0
    8.4797    1.0051    5.0460 H   0  0  0  0  0  0
    6.3220    1.0023    4.8737 H   0  0  0  0  0  0
    3.4477    4.8695    5.0575 H   0  0  0  0  0  0
   13.9885    5.7968    7.8147 H   0  0  0  0  0  0
   15.2843    4.6567    7.6112 H   0  0  0  0  0  0
    8.9724    3.2933    4.3755 H   0  0  0  0  0  0
    8.3586    2.7435    7.3044 H   0  0  0  0  0  0
    6.1046    2.2140    6.7174 H   0  0  0  0  0  0
    6.4276    4.5642    6.8823 H   0  0  0  0  0  0
   13.3714    1.1755    5.3285 H   0  0  0  0  0  0
    5.4523    4.3630    3.9717 H   0  0  0  0  0  0
    5.4556    5.8013    4.9533 H   0  0  0  0  0  0
  1 15  1  0  0  0
  2 11  1  0  0  0
  2 17  1  0  0  0
  3 14  1  0  0  0
  3 21  1  0  0  0
  4 16  1  0  0  0
  4 22  1  0  0  0
  5 20  1  0  0  0
  5 23  1  0  0  0
  6  7  1  0  0  0
  6 11  1  0  0  0
  6 12  1  0  0  0
  7 15  2  0  0  0
  8 12  1  0  0  0
  8 19  2  0  0  0
  9 18  2  0  0  0
  9 19  1  0  0  0
 10 18  1  0  0  0
 10 24  1  0  0  0
 10 25  1  0  0  0
 11 14  1  0  0  0
 11 26  1  0  0  0
 12 13  2  0  0  0
 13 15  1  0  0  0
 13 18  1  0  0  0
 14 16  1  0  0  0
 14 27  1  0  0  0
 16 17  1  0  0  0
 16 28  1  0  0  0
 17 20  1  0  0  0
 17 29  1  0  0  0
 19 30  1  0  0  0
 20 31  1  0  0  0
 20 32  1  0  0  0
M  END
> <s_m_entry_id>
47767

> <s_m_entry_name>
dock_pv.300

> <s_m_Source_Path>
/home/csk/Desktop/cluster/DUD-E-result/fak1

> <s_m_Source_File>
dock_pv.maegz

> <i_m_Source_File_Index>
300

> <chembl_id>
CHEMBL2001288

> <chembl_pref_name>
None

> <i_lp_mmshare_version>
53161

> <i_f3d_flags>
0

> <r_lp_tautomer_probability>
1

> <s_lp_Force_Field>
OPLS_2005

> <r_lp_Energy>
35.58765

> <b_lp_Chiralities_Consistent>
1

> <s_lp_Variant>
CHEMBL2695_lig2043-8

> <s_i_glide_gridfile>
glide-grid_3bz3

> <i_i_glide_lignum>
2431

> <i_i_glide_rotatable_bonds>
5

> <r_i_docking_score>
-6.95819756605196

> <r_i_glide_ligand_efficiency>
-0.347909878302598

> <r_i_glide_ligand_efficiency_sa>
-0.944372701708933

> <r_i_glide_ligand_efficiency_ln>
-1.74140735406755

> <r_i_glide_gscore>
-6.95819756605196

> <r_i_glide_lipo>
-1.57106735189027

> <r_i_glide_hbond>
-0.181979004484391

> <r_i_glide_metal>
0

> <r_i_glide_rewards>
-2.47156659495061

> <r_i_glide_evdw>
-25.891263961792

> <r_i_glide_ecoul>
-11.0232124328613

> <r_i_glide_erotb>
0.252745181338646

> <r_i_glide_esite>
-0.0382847330465298

> <r_i_glide_emodel>
-49.0604917698456

> <r_i_glide_energy>
-36.9144763946533

> <r_i_glide_einternal>
6.42617654800415

> <i_i_glide_confnum>
2

> <i_i_glide_posenum>
294

> <r_i_glide_eff_state_penalty>
0

> <s_user_duplicate_titles>
CHEMBL2695_lig2043

> <s_m_subgroup_title>
dock_pv

> <s_m_subgroupid>
dock_pv

> <b_m_subgroup_collapsed>
1

$$$$
CHEMBL2695_lig1867
                    3D
 Schrodinger Suite 2021-1.
 49 51  0  0  1  0            999 V2000
   11.8442    1.1649    5.0429 O   0  0  0  0  0  0
    8.9273    4.0542    6.4020 N   0  0  0  0  0  0
    8.3518    1.6392    5.1414 N   0  0  0  0  0  0
   11.2358    3.8213    5.9097 N   0  0  0  0  0  0
    6.7185    4.3637    7.0483 N   0  0  0  0  0  0
   10.3220    0.3635    3.6236 N   0  0  0  0  0  0
    5.9879    2.7626    9.4599 N   0  0  0  0  0  0
    9.9222    3.3278    5.8254 C   0  0  0  0  0  0
    9.6345    2.0932    5.1969 C   0  0  0  0  0  0
    7.6609    3.5739    6.3770 C   0  0  0  0  0  0
    7.3781    2.3694    5.7314 C   0  0  0  0  0  0
   10.6914    1.1740    4.6186 C   0  0  0  0  0  0
   11.7977    4.9249    6.5720 C   0  0  0  0  0  0
    5.3293    4.0126    7.3635 C   0  0  2  0  0  0
    5.2004    2.7311    8.2381 C   0  0  2  0  0  0
   11.1654    6.1664    6.7105 C   0  0  0  0  0  0
   13.0713    4.7629    7.1101 C   0  0  0  0  0  0
    4.4381    4.0380    6.0997 C   0  0  0  0  0  0
   11.8225    7.2244    7.3487 C   0  0  0  0  0  0
    3.7129    2.4426    8.5375 C   0  0  0  0  0  0
   13.6356    5.7493    7.9076 C   0  0  0  0  0  0
    2.9726    3.7232    6.4480 C   0  0  0  0  0  0
   13.0292    6.9940    8.0041 C   0  0  0  0  0  0
    2.8462    2.4175    7.2592 C   0  0  0  0  0  0
   11.2878    8.6342    7.2550 C   0  0  0  0  0  0
   11.9062    3.1167    5.6300 H   0  0  0  0  0  0
    7.0830    5.1892    7.4980 H   0  0  0  0  0  0
    9.4104    0.4819    3.1982 H   0  0  0  0  0  0
   10.9914   -0.2710    3.2196 H   0  0  0  0  0  0
    5.9237    1.8578    9.9168 H   0  0  0  0  0  0
    6.9593    2.8974    9.2206 H   0  0  0  0  0  0
    6.3925    1.9381    5.6765 H   0  0  0  0  0  0
    4.9890    4.8335    7.9960 H   0  0  0  0  0  0
    5.5640    1.8916    7.6467 H   0  0  0  0  0  0
   10.1808    6.3298    6.3090 H   0  0  0  0  0  0
   13.5886    3.8212    7.0044 H   0  0  0  0  0  0
    4.4898    5.0200    5.6261 H   0  0  0  0  0  0
    4.7841    3.3289    5.3505 H   0  0  0  0  0  0
    3.6116    1.4940    9.0668 H   0  0  0  0  0  0
    3.3211    3.2200    9.1971 H   0  0  0  0  0  0
   14.5704    5.5612    8.4116 H   0  0  0  0  0  0
    2.3805    3.6577    5.5343 H   0  0  0  0  0  0
    2.5518    4.5506    7.0219 H   0  0  0  0  0  0
   13.5217    7.7842    8.5491 H   0  0  0  0  0  0
    3.1415    1.5716    6.6345 H   0  0  0  0  0  0
    1.8013    2.2492    7.5244 H   0  0  0  0  0  0
   10.7212    8.9138    8.1425 H   0  0  0  0  0  0
   10.6957    8.7589    6.3542 H   0  0  0  0  0  0
   12.1123    9.3283    7.1089 H   0  0  0  0  0  0
  1 12  2  0  0  0
  2  8  2  0  0  0
  2 10  1  0  0  0
  3  9  2  0  0  0
  3 11  1  0  0  0
  4  8  1  0  0  0
  4 13  1  0  0  0
  4 26  1  0  0  0
  5 10  1  0  0  0
  5 14  1  0  0  0
  5 27  1  0  0  0
  6 12  1  0  0  0
  6 28  1  0  0  0
  6 29  1  0  0  0
  7 15  1  0  0  0
  7 30  1  0  0  0
  7 31  1  0  0  0
  8  9  1  0  0  0
  9 12  1  0  0  0
 10 11  2  0  0  0
 11 32  1  0  0  0
 13 16  2  0  0  0
 13 17  1  0  0  0
 14 15  1  0  0  0
 14 18  1  0  0  0
 14 33  1  0  0  0
 15 20  1  0  0  0
 15 34  1  0  0  0
 16 19  1  0  0  0
 16 35  1  0  0  0
 17 21  2  0  0  0
 17 36  1  0  0  0
 18 22  1  0  0  0
 18 37  1  0  0  0
 18 38  1  0  0  0
 19 23  2  0  0  0
 19 25  1  0  0  0
 20 24  1  0  0  0
 20 39  1  0  0  0
 20 40  1  0  0  0
 21 23  1  0  0  0
 21 41  1  0  0  0
 22 24  1  0  0  0
 22 42  1  0  0  0
 22 43  1  0  0  0
 23 44  1  0  0  0
 24 45  1  0  0  0
 24 46  1  0  0  0
 25 47  1  0  0  0
 25 48  1  0  0  0
 25 49  1  0  0  0
M  END
> <s_m_entry_id>
47768

> <s_m_entry_name>
dock_pv.301

> <s_m_Source_Path>
/home/csk/Desktop/cluster/DUD-E-result/fak1

> <s_m_Source_File>
dock_pv.maegz

> <i_m_Source_File_Index>
301

> <chembl_id>
CHEMBL1974328

> <chembl_pref_name>
None

> <i_lp_mmshare_version>
53161

> <i_f3d_flags>
0

> <r_lp_tautomer_probability>
1

> <s_lp_Force_Field>
OPLS_2005

> <r_lp_Energy>
38.061405

> <b_lp_Chiralities_Consistent>
1

> <s_lp_Variant>
CHEMBL2695_lig1867-1

> <s_i_glide_gridfile>
glide-grid_3bz3

> <i_i_glide_lignum>
2157

> <i_i_glide_rotatable_bonds>
5

> <r_i_docking_score>
-6.95796694201897

> <r_i_glide_ligand_efficiency>
-0.278318677680759

> <r_i_glide_ligand_efficiency_sa>
-0.813808749541305

> <r_i_glide_ligand_efficiency_ln>
-1.64924667870175

> <r_i_glide_gscore>
-6.95796694201897

> <r_i_glide_lipo>
-3.00195391342905

> <r_i_glide_hbond>
-0.488874415733001

> <r_i_glide_metal>
0

> <r_i_glide_rewards>
-1.54282783472523

> <r_i_glide_evdw>
-37.8935089111328

> <r_i_glide_ecoul>
-4.44845581054688

> <r_i_glide_erotb>
0.653638663091057

> <r_i_glide_esite>
-0.0160056240840767

> <r_i_glide_emodel>
-53.9485271204905

> <r_i_glide_energy>
-42.3419647216797

> <r_i_glide_einternal>
8.79455089569092

> <i_i_glide_confnum>
12

> <i_i_glide_posenum>
320

> <r_i_glide_eff_state_penalty>
0

> <s_user_duplicate_titles>
CHEMBL2695_lig1867

> <s_m_subgroup_title>
dock_pv

> <s_m_subgroupid>
dock_pv

> <b_m_subgroup_collapsed>
1

$$$$
CHEMBL2695_lig1647
                    3D
 Schrodinger Suite 2021-1.
 50 53  0  0  1  0            999 V2000
    6.9117    4.2544   11.1858 C   0  0  0  0  0  0
    7.0445    3.0090   10.2862 C   0  0  0  0  0  0
    8.3754    2.2604   10.5166 C   0  0  0  0  0  0
    6.7931    3.2260    8.8506 N   0  0  0  0  0  0
    5.9618    2.1779    8.2388 C   0  0  0  0  0  0
    7.5209    4.1257    8.1385 C   0  0  0  0  0  0
    8.4619    4.7631    8.6141 O   0  0  0  0  0  0
    7.1797    4.3629    6.7648 C   0  0  0  0  0  0
    8.0082    4.2558    5.6530 C   0  0  0  0  0  0
    7.3828    4.7095    4.5854 N   0  0  0  0  0  0
    6.0914    5.0519    4.9420 N   0  0  0  0  0  0
    5.9776    4.8146    6.2535 N   0  0  0  0  0  0
    4.6994    5.0863    6.9212 C   0  0  0  0  0  0
    3.5750    4.0687    6.7205 C   0  0  0  0  0  0
    2.4410    4.1814    7.5312 C   0  0  0  0  0  0
    1.3876    3.2817    7.3943 C   0  0  0  0  0  0
    1.4673    2.2675    6.4429 C   0  0  0  0  0  0
    2.5895    2.1467    5.6271 C   0  0  0  0  0  0
    3.6423    3.0471    5.7625 C   0  0  0  0  0  0
    9.3886    3.7086    5.6068 C   0  0  0  0  0  0
    9.5762    2.3693    5.2542 C   0  0  0  0  0  0
   10.8295    1.7554    5.3168 C   0  0  0  0  0  0
   11.8994    2.5520    5.7383 C   0  0  0  0  0  0
   13.2468    2.2944    5.9090 N   0  0  0  0  0  0
   13.9219    3.3875    6.3090 N   0  0  0  0  0  0
   13.0559    4.3630    6.3977 C   0  0  0  0  0  0
   11.7397    3.9226    6.0679 C   0  0  0  0  0  0
   10.4642    4.4998    6.0151 C   0  0  0  0  0  0
    7.0562    3.9630   12.2261 H   0  0  0  0  0  0
    7.6613    5.0173   10.9801 H   0  0  0  0  0  0
    5.9211    4.6999   11.1100 H   0  0  0  0  0  0
    6.2331    2.3631   10.6233 H   0  0  0  0  0  0
    8.6783    2.2540   11.5587 H   0  0  0  0  0  0
    8.3114    1.2187   10.2013 H   0  0  0  0  0  0
    9.1941    2.7480    9.9913 H   0  0  0  0  0  0
    5.8813    2.2520    7.1553 H   0  0  0  0  0  0
    6.3825    1.1950    8.4547 H   0  0  0  0  0  0
    4.9533    2.2059    8.6533 H   0  0  0  0  0  0
    4.8853    5.1629    7.9911 H   0  0  0  0  0  0
    4.3403    6.0621    6.5927 H   0  0  0  0  0  0
    2.3758    4.9670    8.2719 H   0  0  0  0  0  0
    0.5126    3.3729    8.0202 H   0  0  0  0  0  0
    0.6507    1.5700    6.3319 H   0  0  0  0  0  0
    2.6447    1.3585    4.8900 H   0  0  0  0  0  0
    4.5031    2.9329    5.1200 H   0  0  0  0  0  0
    8.7219    1.7795    4.9473 H   0  0  0  0  0  0
   10.9544    0.7155    5.0535 H   0  0  0  0  0  0
   13.7362    1.4222    5.7614 H   0  0  0  0  0  0
   13.3641    5.3503    6.7092 H   0  0  0  0  0  0
   10.3095    5.5283    6.3078 H   0  0  0  0  0  0
  1  2  1  0  0  0
  1 29  1  0  0  0
  1 30  1  0  0  0
  1 31  1  0  0  0
  2  3  1  0  0  0
  2  4  1  0  0  0
  2 32  1  0  0  0
  3 33  1  0  0  0
  3 34  1  0  0  0
  3 35  1  0  0  0
  4  5  1  0  0  0
  4  6  1  0  0  0
  5 36  1  0  0  0
  5 37  1  0  0  0
  5 38  1  0  0  0
  6  7  2  0  0  0
  6  8  1  0  0  0
  8  9  2  0  0  0
  8 12  1  0  0  0
  9 10  1  0  0  0
  9 20  1  0  0  0
 10 11  2  0  0  0
 11 12  1  0  0  0
 12 13  1  0  0  0
 13 14  1  0  0  0
 13 39  1  0  0  0
 13 40  1  0  0  0
 14 15  2  0  0  0
 14 19  1  0  0  0
 15 16  1  0  0  0
 15 41  1  0  0  0
 16 17  2  0  0  0
 16 42  1  0  0  0
 17 18  1  0  0  0
 17 43  1  0  0  0
 18 19  2  0  0  0
 18 44  1  0  0  0
 19 45  1  0  0  0
 20 21  2  0  0  0
 20 28  1  0  0  0
 21 22  1  0  0  0
 21 46  1  0  0  0
 22 23  2  0  0  0
 22 47  1  0  0  0
 23 24  1  0  0  0
 23 27  1  0  0  0
 24 25  1  0  0  0
 24 48  1  0  0  0
 25 26  2  0  0  0
 26 27  1  0  0  0
 26 49  1  0  0  0
 27 28  2  0  0  0
 28 50  1  0  0  0
M  END
> <s_m_entry_id>
47769

> <s_m_entry_name>
dock_pv.302

> <s_m_Source_Path>
/home/csk/Desktop/cluster/DUD-E-result/fak1

> <s_m_Source_File>
dock_pv.maegz

> <i_m_Source_File_Index>
302

> <chembl_id>
CHEMBL1969561

> <chembl_pref_name>
None

> <i_lp_mmshare_version>
53161

> <i_f3d_flags>
0

> <r_lp_tautomer_probability>
0.980392156862745

> <s_lp_Force_Field>
OPLS_2005

> <r_lp_Energy>
28.988981

> <b_lp_Chiralities_Consistent>
1

> <s_lp_Variant>
CHEMBL2695_lig1647-1

> <s_i_glide_gridfile>
glide-grid_3bz3

> <i_i_glide_lignum>
1838

> <i_i_glide_rotatable_bonds>
6

> <r_i_docking_score>
-6.9490518138967

> <r_i_glide_ligand_efficiency>
-0.248180421924882

> <r_i_glide_ligand_efficiency_sa>
-0.753621931415472

> <r_i_glide_ligand_efficiency_ln>
-1.6040451916744

> <r_i_glide_gscore>
-6.9490518138967

> <r_i_glide_lipo>
-2.85990009408915

> <r_i_glide_hbond>
-0.140365683283702

> <r_i_glide_metal>
0

> <r_i_glide_rewards>
-1.67615828997305

> <r_i_glide_evdw>
-44.0112495422363

> <r_i_glide_ecoul>
-5.0775294303894

> <r_i_glide_erotb>
0.689564145119434

> <r_i_glide_esite>
0

> <r_i_glide_emodel>
-59.7793280303559

> <r_i_glide_energy>
-49.0887789726257

> <r_i_glide_einternal>
10.7791242599487

> <i_i_glide_confnum>
29

> <i_i_glide_posenum>
296

> <r_i_glide_eff_state_penalty>
0

> <s_user_duplicate_titles>
CHEMBL2695_lig1647

> <s_m_subgroup_title>
dock_pv

> <s_m_subgroupid>
dock_pv

> <b_m_subgroup_collapsed>
1

$$$$
CHEMBL2695_lig224
                    3D
 Schrodinger Suite 2021-1.
 57 60  0  0  1  0            999 V2000
    5.5714    3.0051    9.4731 C   0  0  0  0  0  0
    6.3695    3.9024    8.7635 C   0  0  0  0  0  0
    5.9422    4.3630    7.5093 C   0  0  0  0  0  0
    4.7323    3.9448    6.9523 C   0  0  0  0  0  0
    7.5492    4.3620    9.3628 N   0  0  0  0  0  0
    8.7571    4.7757    8.7983 C   0  0  0  0  0  0
    9.0983    4.3852    7.5512 N   0  0  0  0  0  0
   10.3054    4.7965    7.0746 C   0  0  0  0  0  0
   11.1896    5.5632    7.8612 C   0  0  0  0  0  0
   10.7221    5.9630    9.1090 C   0  0  0  0  0  0
    9.5190    5.5628    9.5843 N   0  0  0  0  0  0
   10.6500    4.4754    5.7563 N   0  0  0  0  0  0
   12.6177    5.9362    7.4843 C   0  0  0  0  0  0
   13.4195    5.8195    8.5439 F   0  0  0  0  0  0
   13.1224    5.1632    6.5212 F   0  0  0  0  0  0
   12.6122    7.2118    7.1090 F   0  0  0  0  0  0
    8.4030    3.9374    4.6611 C   0  0  0  0  0  0
    9.8864    3.5800    4.8870 C   0  0  2  0  0  0
    9.9803    2.0840    5.2659 C   0  0  1  0  0  0
    8.5805    1.5379    4.9274 C   0  0  0  0  0  0
    7.6201    2.7039    5.1015 C   0  0  0  0  0  0
   11.1219    1.4119    4.6127 N   0  0  0  0  0  0
   12.3888    1.6933    5.2922 C   0  0  0  0  0  0
   10.9836   -0.0301    4.4697 C   0  0  0  0  0  0
    4.3778    2.5455    8.9209 C   0  0  0  0  0  0
    3.9795    3.0263    7.6744 C   0  0  0  0  0  0
    2.3735    2.3251    7.2278 S   0  0  0  0  0  0
    2.7987    0.9612    8.2595 N   0  0  2  0  0  0
    3.4186    1.5242    9.4684 C   0  0  0  0  0  0
    1.2921    3.1176    7.8248 O   0  0  0  0  0  0
    2.3120    1.9463    5.8118 O   0  0  0  0  0  0
    3.3911   -0.2341    7.6141 C   0  0  0  0  0  0
    5.8976    2.6445   10.4370 H   0  0  0  0  0  0
    6.5396    5.0819    6.9703 H   0  0  0  0  0  0
    4.4118    4.3271    5.9933 H   0  0  0  0  0  0
    7.4614    4.5853   10.3419 H   0  0  0  0  0  0
   11.3361    6.5679    9.7618 H   0  0  0  0  0  0
   11.6420    4.5231    5.5741 H   0  0  0  0  0  0
    8.0788    4.8407    5.1776 H   0  0  0  0  0  0
    8.2371    4.1210    3.5985 H   0  0  0  0  0  0
   10.3221    3.6708    3.9090 H   0  0  0  0  0  0
   10.0885    1.9627    6.3442 H   0  0  0  0  0  0
    8.5075    1.1615    3.9091 H   0  0  0  0  0  0
    8.2888    0.7630    5.6263 H   0  0  0  0  0  0
    7.3681    2.7651    6.1560 H   0  0  0  0  0  0
    6.6906    2.5652    4.5481 H   0  0  0  0  0  0
   12.5889    2.7617    5.3506 H   0  0  0  0  0  0
   13.2268    1.2469    4.7539 H   0  0  0  0  0  0
   12.3959    1.2981    6.3087 H   0  0  0  0  0  0
   10.0923   -0.3091    3.9087 H   0  0  0  0  0  0
   11.8248   -0.4369    3.9087 H   0  0  0  0  0  0
   10.9419   -0.4859    5.4562 H   0  0  0  0  0  0
    3.9217    0.7630   10.0592 H   0  0  0  0  0  0
    2.6684    2.0116   10.0922 H   0  0  0  0  0  0
    3.4247   -1.0710    8.3089 H   0  0  0  0  0  0
    2.7827   -0.5246    6.7572 H   0  0  0  0  0  0
    4.3961   -0.0065    7.2543 H   0  0  0  0  0  0
  1  2  2  0  0  0
  1 25  1  0  0  0
  1 33  1  0  0  0
  2  3  1  0  0  0
  2  5  1  0  0  0
  3  4  2  0  0  0
  3 34  1  0  0  0
  4 26  1  0  0  0
  4 35  1  0  0  0
  5  6  1  0  0  0
  5 36  1  0  0  0
  6  7  2  0  0  0
  6 11  1  0  0  0
  7  8  1  0  0  0
  8  9  2  0  0  0
  8 12  1  0  0  0
  9 10  1  0  0  0
  9 13  1  0  0  0
 10 11  2  0  0  0
 10 37  1  0  0  0
 12 18  1  0  0  0
 12 38  1  0  0  0
 13 15  1  0  0  0
 13 16  1  0  0  0
 13 14  1  0  0  0
 17 18  1  0  0  0
 17 21  1  0  0  0
 17 39  1  0  0  0
 17 40  1  0  0  0
 18 19  1  0  0  0
 18 41  1  0  0  0
 19 20  1  0  0  0
 19 22  1  0  0  0
 19 42  1  0  0  0
 20 21  1  0  0  0
 20 43  1  0  0  0
 20 44  1  0  0  0
 21 45  1  0  0  0
 21 46  1  0  0  0
 22 23  1  0  0  0
 22 24  1  0  0  0
 23 47  1  0  0  0
 23 48  1  0  0  0
 23 49  1  0  0  0
 24 50  1  0  0  0
 24 51  1  0  0  0
 24 52  1  0  0  0
 25 26  2  0  0  0
 25 29  1  0  0  0
 26 27  1  0  0  0
 27 28  1  0  0  0
 27 30  2  0  0  0
 27 31  2  0  0  0
 28 29  1  0  0  0
 28 32  1  0  0  0
 29 53  1  0  0  0
 29 54  1  0  0  0
 32 55  1  0  0  0
 32 56  1  0  0  0
 32 57  1  0  0  0
M  END
> <s_m_entry_id>
47770

> <s_m_entry_name>
dock_pv.303

> <s_m_Source_Path>
/home/csk/Desktop/cluster/DUD-E-result/fak1

> <s_m_Source_File>
dock_pv.maegz

> <i_m_Source_File_Index>
303

> <chembl_id>
CHEMBL487057

> <chembl_pref_name>
None

> <i_lp_mmshare_version>
53161

> <i_f3d_flags>
0

> <r_lp_tautomer_probability>
0.999999624730965

> <s_lp_Force_Field>
OPLS_2005

> <r_lp_Energy>
41.233931

> <b_lp_Chiralities_Consistent>
1

> <s_lp_Variant>
CHEMBL2695_lig224-1

> <s_i_glide_gridfile>
glide-grid_3bz3

> <i_i_glide_lignum>
256

> <i_i_glide_rotatable_bonds>
6

> <r_i_docking_score>
-6.94436414728734

> <r_i_glide_ligand_efficiency>
-0.217011379602729

> <r_i_glide_ligand_efficiency_sa>
-0.688968183744959

> <r_i_glide_ligand_efficiency_ln>
-1.55503242879492

> <r_i_glide_gscore>
-6.94436414728734

> <r_i_glide_lipo>
-2.5849301503936

> <r_i_glide_hbond>
-0.32

> <r_i_glide_metal>
0

> <r_i_glide_rewards>
-2.41601731337752

> <r_i_glide_evdw>
-36.3012619018555

> <r_i_glide_ecoul>
-0.996734619140625

> <r_i_glide_erotb>
0.365081136361388

> <r_i_glide_esite>
-0.0239245319137356

> <r_i_glide_emodel>
-42.7409147013691

> <r_i_glide_energy>
-37.2979965209961

> <r_i_glide_einternal>
15.6375455856323

> <i_i_glide_confnum>
7

> <i_i_glide_posenum>
99

> <r_i_glide_eff_state_penalty>
0

> <s_user_duplicate_titles>
CHEMBL2695_lig224

> <s_m_subgroup_title>
dock_pv

> <s_m_subgroupid>
dock_pv

> <b_m_subgroup_collapsed>
1

$$$$
CHEMBL2695_lig1948
                    3D
 Schrodinger Suite 2021-1.
 47 49  0  0  1  0            999 V2000
   10.3316   -1.3325    2.1393 Cl  0  0  0  0  0  0
   14.2951    3.8997    6.3090 O   0  0  0  0  0  0
   10.2746    2.4856    5.6406 N   0  0  0  0  0  0
   12.5586    1.9630    5.4598 N   0  0  0  0  0  0
    7.9813    2.7874    5.7662 N   0  0  0  0  0  0
   13.5220    5.5915    7.5090 N   0  0  0  0  0  0
    6.7936    1.1630    7.9090 N   0  0  0  0  0  0
   11.5582    2.8614    5.8651 C   0  0  0  0  0  0
   11.8910    4.1154    6.4338 C   0  0  0  0  0  0
    9.2633    3.2914    6.0162 C   0  0  0  0  0  0
   10.8188    4.9508    6.7902 C   0  0  0  0  0  0
    9.5062    4.5294    6.6063 C   0  0  0  0  0  0
   13.3269    4.5404    6.7090 C   0  0  0  0  0  0
   12.6113    1.1630    4.3090 C   0  0  0  0  0  0
    6.7929    3.2529    6.4868 C   0  0  2  0  0  0
    6.7220    2.6189    7.9114 C   0  0  1  0  0  0
   11.5220    0.4185    3.8256 C   0  0  0  0  0  0
   13.8428    1.0674    3.6501 C   0  0  0  0  0  0
   11.6704   -0.4068    2.7090 C   0  0  0  0  0  0
    5.5340    2.9328    5.6492 C   0  0  0  0  0  0
   13.9886    0.2483    2.5312 C   0  0  0  0  0  0
    5.4480    3.1424    8.6148 C   0  0  0  0  0  0
   12.9014   -0.4851    2.0582 C   0  0  0  0  0  0
    4.2499    3.3953    6.3704 C   0  0  0  0  0  0
    4.1615    2.8481    7.8117 C   0  0  0  0  0  0
   13.4698    2.3235    5.7177 H   0  0  0  0  0  0
    7.9675    1.8143    5.4939 H   0  0  0  0  0  0
   12.7517    6.1085    7.8983 H   0  0  0  0  0  0
   14.4732    5.8595    7.7364 H   0  0  0  0  0  0
    6.5145    0.7895    8.8117 H   0  0  0  0  0  0
    6.1645    0.7714    7.2189 H   0  0  0  0  0  0
   10.9763    5.9223    7.2342 H   0  0  0  0  0  0
    8.7015    5.1630    6.9218 H   0  0  0  0  0  0
    6.8435    4.3353    6.5954 H   0  0  0  0  0  0
    7.5846    2.9868    8.4693 H   0  0  0  0  0  0
   10.5644    0.4403    4.3213 H   0  0  0  0  0  0
   14.7037    1.6016    4.0251 H   0  0  0  0  0  0
    5.4762    1.8619    5.4434 H   0  0  0  0  0  0
    5.5976    3.4244    4.6783 H   0  0  0  0  0  0
   14.9494    0.1670    2.0451 H   0  0  0  0  0  0
    5.5389    4.2171    8.7821 H   0  0  0  0  0  0
    5.3663    2.7038    9.6112 H   0  0  0  0  0  0
   13.0170   -1.1265    1.1976 H   0  0  0  0  0  0
    4.2240    4.4862    6.3966 H   0  0  0  0  0  0
    3.3722    3.0879    5.8002 H   0  0  0  0  0  0
    3.3003    3.2825    8.3213 H   0  0  0  0  0  0
    3.9859    1.7718    7.7825 H   0  0  0  0  0  0
  1 19  1  0  0  0
  2 13  2  0  0  0
  3  8  2  0  0  0
  3 10  1  0  0  0
  4  8  1  0  0  0
  4 14  1  0  0  0
  4 26  1  0  0  0
  5 10  1  0  0  0
  5 15  1  0  0  0
  5 27  1  0  0  0
  6 13  1  0  0  0
  6 28  1  0  0  0
  6 29  1  0  0  0
  7 16  1  0  0  0
  7 30  1  0  0  0
  7 31  1  0  0  0
  8  9  1  0  0  0
  9 11  2  0  0  0
  9 13  1  0  0  0
 10 12  2  0  0  0
 11 12  1  0  0  0
 11 32  1  0  0  0
 12 33  1  0  0  0
 14 17  1  0  0  0
 14 18  2  0  0  0
 15 16  1  0  0  0
 15 20  1  0  0  0
 15 34  1  0  0  0
 16 22  1  0  0  0
 16 35  1  0  0  0
 17 19  2  0  0  0
 17 36  1  0  0  0
 18 21  1  0  0  0
 18 37  1  0  0  0
 19 23  1  0  0  0
 20 24  1  0  0  0
 20 38  1  0  0  0
 20 39  1  0  0  0
 21 23  2  0  0  0
 21 40  1  0  0  0
 22 25  1  0  0  0
 22 41  1  0  0  0
 22 42  1  0  0  0
 23 43  1  0  0  0
 24 25  1  0  0  0
 24 44  1  0  0  0
 24 45  1  0  0  0
 25 46  1  0  0  0
 25 47  1  0  0  0
M  END
> <s_m_entry_id>
47771

> <s_m_entry_name>
dock_pv.304

> <s_m_Source_Path>
/home/csk/Desktop/cluster/DUD-E-result/fak1

> <s_m_Source_File>
dock_pv.maegz

> <i_m_Source_File_Index>
304

> <chembl_id>
CHEMBL1982753

> <chembl_pref_name>
None

> <i_lp_mmshare_version>
53161

> <i_f3d_flags>
0

> <r_lp_tautomer_probability>
1

> <s_lp_Force_Field>
OPLS_2005

> <r_lp_Energy>
31.738155

> <b_lp_Chiralities_Consistent>
1

> <s_lp_Variant>
CHEMBL2695_lig1948-3

> <s_i_glide_gridfile>
glide-grid_3bz3

> <i_i_glide_lignum>
2274

> <i_i_glide_rotatable_bonds>
5

> <r_i_docking_score>
-6.93567101626067

> <r_i_glide_ligand_efficiency>
-0.277426840650427

> <r_i_glide_ligand_efficiency_sa>
-0.811201002247817

> <r_i_glide_ligand_efficiency_ln>
-1.64396187614205

> <r_i_glide_gscore>
-6.93567101626067

> <r_i_glide_lipo>
-2.4176642147504

> <r_i_glide_hbond>
-0.831351404907972

> <r_i_glide_metal>
0

> <r_i_glide_rewards>
-1.38966060351213

> <r_i_glide_evdw>
-35.6290092468262

> <r_i_glide_ecoul>
-7.3024435043335

> <r_i_glide_erotb>
0.59221878930576

> <r_i_glide_esite>
-0.0123965944045978

> <r_i_glide_emodel>
-57.1205831297187

> <r_i_glide_energy>
-42.9314527511597

> <r_i_glide_einternal>
7.31943941116333

> <i_i_glide_confnum>
10

> <i_i_glide_posenum>
120

> <r_i_glide_eff_state_penalty>
0

> <s_user_duplicate_titles>
CHEMBL2695_lig1948

> <s_m_subgroup_title>
dock_pv

> <s_m_subgroupid>
dock_pv

> <b_m_subgroup_collapsed>
1

$$$$
CHEMBL2695_lig1655
                    3D
 Schrodinger Suite 2021-1.
 44 48  0  0  1  0            999 V2000
    5.8019    3.5625    9.1091 S   0  0  0  0  0  0
    8.0351    3.9619    5.6832 N   0  0  0  0  0  0
    5.7471    3.6275    5.6913 N   0  0  0  0  0  0
    9.3512    4.3094    7.6661 N   0  0  0  0  0  0
    3.3941    3.2214    5.9722 N   0  0  0  0  0  0
    2.2801    3.7736    6.4727 N   0  0  0  0  0  0
   10.3044    4.3630    5.4942 N   0  0  0  0  0  0
    6.9974    3.8440    7.8353 C   0  0  0  0  0  0
    6.9194    3.8088    6.4288 C   0  0  0  0  0  0
    8.2607    4.1283    8.4025 C   0  0  0  0  0  0
    9.1940    4.1975    6.3286 C   0  0  0  0  0  0
    4.5008    4.0093    6.1068 C   0  0  0  0  0  0
    2.6545    4.9501    6.9400 C   0  0  0  0  0  0
    1.6839    5.9090    7.6052 C   0  0  0  0  0  0
    8.2335    4.2191    9.8145 C   0  0  0  0  0  0
    4.0220    5.1477    6.7224 C   0  0  0  0  0  0
    6.9814    3.9615   10.3323 C   0  0  0  0  0  0
    0.2635    6.0559    7.1193 C   0  0  0  0  0  0
    0.5494    5.4129    8.4679 C   0  0  0  0  0  0
   11.6919    4.3873    5.9754 C   0  0  0  0  0  0
   12.0606    5.5510    6.9044 C   0  0  0  0  0  0
   13.1818    5.4145    7.7271 C   0  0  0  0  0  0
   11.3250    6.7414    6.9425 C   0  0  0  0  0  0
   13.5099    6.4130    8.6384 C   0  0  0  0  0  0
   11.6571    7.7458    7.8446 C   0  0  0  0  0  0
   12.7314    7.5629    8.7075 C   0  0  0  0  0  0
    5.9437    3.4643    4.7166 H   0  0  0  0  0  0
    3.4005    2.3004    5.5601 H   0  0  0  0  0  0
   10.1400    4.1529    4.5222 H   0  0  0  0  0  0
    2.1629    6.8279    7.9442 H   0  0  0  0  0  0
    9.1089    4.4636   10.3892 H   0  0  0  0  0  0
    4.6003    6.0100    7.0096 H   0  0  0  0  0  0
    6.6777    3.9607   11.3717 H   0  0  0  0  0  0
   -0.1658    7.0574    7.0840 H   0  0  0  0  0  0
   -0.0670    5.4351    6.2860 H   0  0  0  0  0  0
    0.4136    4.3376    8.5869 H   0  0  0  0  0  0
    0.3246    5.9618    9.3835 H   0  0  0  0  0  0
   12.3636    4.3961    5.1151 H   0  0  0  0  0  0
   11.8771    3.4498    6.5026 H   0  0  0  0  0  0
   13.7854    4.5193    7.6889 H   0  0  0  0  0  0
   10.4638    6.8796    6.3091 H   0  0  0  0  0  0
   14.3636    6.2990    9.2888 H   0  0  0  0  0  0
   11.0729    8.6535    7.8901 H   0  0  0  0  0  0
   12.9851    8.3339    9.4195 H   0  0  0  0  0  0
  1  8  1  0  0  0
  1 17  1  0  0  0
  2  9  1  0  0  0
  2 11  2  0  0  0
  3 12  1  0  0  0
  3  9  1  0  0  0
  3 27  1  0  0  0
  4 10  2  0  0  0
  4 11  1  0  0  0
  5  6  1  0  0  0
  5 28  1  0  0  0
  5 12  1  0  0  0
  6 13  2  0  0  0
  7 11  1  0  0  0
  7 20  1  0  0  0
  7 29  1  0  0  0
  8  9  2  0  0  0
  8 10  1  0  0  0
 10 15  1  0  0  0
 12 16  2  0  0  0
 13 14  1  0  0  0
 13 16  1  0  0  0
 14 18  1  0  0  0
 14 19  1  0  0  0
 14 30  1  0  0  0
 15 17  2  0  0  0
 15 31  1  0  0  0
 16 32  1  0  0  0
 17 33  1  0  0  0
 18 19  1  0  0  0
 18 34  1  0  0  0
 18 35  1  0  0  0
 19 36  1  0  0  0
 19 37  1  0  0  0
 20 21  1  0  0  0
 20 38  1  0  0  0
 20 39  1  0  0  0
 21 22  2  0  0  0
 21 23  1  0  0  0
 22 24  1  0  0  0
 22 40  1  0  0  0
 23 25  2  0  0  0
 23 41  1  0  0  0
 24 26  2  0  0  0
 24 42  1  0  0  0
 25 26  1  0  0  0
 25 43  1  0  0  0
 26 44  1  0  0  0
M  END
> <s_m_entry_id>
47772

> <s_m_entry_name>
dock_pv.305

> <s_m_Source_Path>
/home/csk/Desktop/cluster/DUD-E-result/fak1

> <s_m_Source_File>
dock_pv.maegz

> <i_m_Source_File_Index>
305

> <chembl_id>
CHEMBL1997924

> <chembl_pref_name>
None

> <i_lp_mmshare_version>
53161

> <i_f3d_flags>
0

> <r_lp_tautomer_probability>
0.157399999843308

> <s_lp_Force_Field>
OPLS_2005

> <r_lp_Energy>
8.319288

> <b_lp_Chiralities_Consistent>
1

> <s_lp_Variant>
CHEMBL2695_lig1655-2

> <s_i_glide_gridfile>
glide-grid_3bz3

> <i_i_glide_lignum>
1849

> <i_i_glide_rotatable_bonds>
6

> <r_i_docking_score>
-6.93423306490846

> <r_i_glide_ligand_efficiency>
-0.266701271727249

> <r_i_glide_ligand_efficiency_sa>
-0.790101468073144

> <r_i_glide_ligand_efficiency_ln>
-1.62848188221924

> <r_i_glide_gscore>
-6.93423306490846

> <r_i_glide_lipo>
-4.26797372709373

> <r_i_glide_hbond>
0

> <r_i_glide_metal>
0

> <r_i_glide_rewards>
-1.40930483656852

> <r_i_glide_evdw>
-45.8069305419922

> <r_i_glide_ecoul>
1.04261779785156

> <r_i_glide_erotb>
0.876999356175668

> <r_i_glide_esite>
0

> <r_i_glide_emodel>
-58.5954541621629

> <r_i_glide_energy>
-44.7643127441406

> <r_i_glide_einternal>
11.2026777267456

> <i_i_glide_confnum>
38

> <i_i_glide_posenum>
173

> <r_i_glide_eff_state_penalty>
0

> <s_user_duplicate_titles>
CHEMBL2695_lig1655

> <s_m_subgroup_title>
dock_pv

> <s_m_subgroupid>
dock_pv

> <b_m_subgroup_collapsed>
1

$$$$
CHEMBL2695_lig1840
                    3D
 Schrodinger Suite 2021-1.
 32 35  0  0  1  0            999 V2000
   10.7221    0.2815    4.4896 O   0  0  0  0  0  0
   12.0325    1.9627    5.2998 N   0  0  0  0  0  0
    6.0479    2.5766    8.4055 N   0  0  0  0  0  0
    9.8699    2.1256    5.8102 C   0  0  0  0  0  0
   10.5530    3.3370    6.2563 C   0  0  0  0  0  0
   11.8769    3.1865    5.9147 C   0  0  0  0  0  0
    7.5454    2.2640    6.7372 C   0  0  0  0  0  0
   10.8633    1.3333    5.1090 C   0  0  0  0  0  0
    6.6844    3.3587    6.3910 C   0  0  0  0  0  0
    8.6073    1.6787    5.9555 C   0  0  0  0  0  0
    5.7376    3.5187    7.4533 C   0  0  0  0  0  0
    7.1081    1.8228    7.9735 C   0  0  0  0  0  0
   10.1230    4.5003    6.9006 C   0  0  0  0  0  0
   12.8215    4.1734    6.2019 C   0  0  0  0  0  0
    6.6068    4.2154    5.2831 C   0  0  0  0  0  0
    4.7244    4.4818    7.4129 C   0  0  0  0  0  0
   11.0505    5.5064    7.1860 C   0  0  0  0  0  0
   12.3969    5.3400    6.8462 C   0  0  0  0  0  0
    5.5928    5.1658    5.2396 C   0  0  0  0  0  0
    4.6730    5.2868    6.2768 C   0  0  0  0  0  0
   12.9075    1.6080    4.9468 H   0  0  0  0  0  0
    5.5791    2.4063    9.2848 H   0  0  0  0  0  0
    8.3042    0.7617    5.4755 H   0  0  0  0  0  0
    7.4658    1.0059    8.5874 H   0  0  0  0  0  0
    9.0856    4.6408    7.1719 H   0  0  0  0  0  0
   13.8604    4.0526    5.9347 H   0  0  0  0  0  0
    7.3138    4.1244    4.4697 H   0  0  0  0  0  0
    4.0074    4.5997    8.2143 H   0  0  0  0  0  0
   10.7231    6.4105    7.6787 H   0  0  0  0  0  0
   13.1118    6.1165    7.0800 H   0  0  0  0  0  0
    5.5199    5.8216    4.3853 H   0  0  0  0  0  0
    3.8954    6.0331    6.1969 H   0  0  0  0  0  0
  1  8  2  0  0  0
  2  6  1  0  0  0
  2  8  1  0  0  0
  2 21  1  0  0  0
  3 11  1  0  0  0
  3 12  1  0  0  0
  3 22  1  0  0  0
  4  5  1  0  0  0
  4  8  1  0  0  0
  4 10  2  3  0  0
  5  6  1  0  0  0
  5 13  2  0  0  0
  6 14  2  0  0  0
  7  9  1  0  0  0
  7 10  1  0  0  0
  7 12  2  0  0  0
  9 11  1  0  0  0
  9 15  2  0  0  0
 10 23  1  0  0  0
 11 16  2  0  0  0
 12 24  1  0  0  0
 13 17  1  0  0  0
 13 25  1  0  0  0
 14 18  1  0  0  0
 14 26  1  0  0  0
 15 19  1  0  0  0
 15 27  1  0  0  0
 16 20  1  0  0  0
 16 28  1  0  0  0
 17 18  2  0  0  0
 17 29  1  0  0  0
 18 30  1  0  0  0
 19 20  2  0  0  0
 19 31  1  0  0  0
 20 32  1  0  0  0
M  END
> <s_m_entry_id>
47773

> <s_m_entry_name>
dock_pv.306

> <s_m_Source_Path>
/home/csk/Desktop/cluster/DUD-E-result/fak1

> <s_m_Source_File>
dock_pv.maegz

> <i_m_Source_File_Index>
306

> <chembl_id>
CHEMBL1986590

> <chembl_pref_name>
None

> <i_lp_mmshare_version>
53161

> <i_f3d_flags>
0

> <r_lp_tautomer_probability>
1

> <s_lp_Force_Field>
OPLS_2005

> <r_lp_Energy>
36.742984

> <b_lp_Chiralities_Consistent>
1

> <s_lp_Variant>
CHEMBL2695_lig1840-1

> <s_i_glide_gridfile>
glide-grid_3bz3

> <i_i_glide_lignum>
2119

> <i_i_glide_rotatable_bonds>
1

> <r_i_docking_score>
-6.93395029134904

> <r_i_glide_ligand_efficiency>
-0.346697514567452

> <r_i_glide_ligand_efficiency_sa>
-0.941081840231818

> <r_i_glide_ligand_efficiency_ln>
-1.73533906093805

> <r_i_glide_gscore>
-6.93395029134904

> <r_i_glide_lipo>
-2.80458656019262

> <r_i_glide_hbond>
0

> <r_i_glide_metal>
0

> <r_i_glide_rewards>
-2.04997072578533

> <r_i_glide_evdw>
-30.8002643585205

> <r_i_glide_ecoul>
-3.59586524963379

> <r_i_glide_erotb>
0

> <r_i_glide_esite>
0

> <r_i_glide_emodel>
-47.0061473513107

> <r_i_glide_energy>
-34.3961296081543

> <r_i_glide_einternal>
3.72745275497437

> <i_i_glide_confnum>
1

> <i_i_glide_posenum>
361

> <r_i_glide_eff_state_penalty>
0

> <s_user_duplicate_titles>
CHEMBL2695_lig1840

> <s_m_subgroup_title>
dock_pv

> <s_m_subgroupid>
dock_pv

> <b_m_subgroup_collapsed>
1

$$$$
CHEMBL2695_lig969
                    3D
 Schrodinger Suite 2021-1.
 67 71  0  0  1  0            999 V2000
    5.6202    5.5447    5.8374 C   0  0  0  0  0  0
    6.2861    4.9166    6.9244 O   0  0  0  0  0  0
    5.6359    3.9630    7.6779 C   0  0  0  0  0  0
    4.4203    3.3909    7.2537 C   0  0  0  0  0  0
    3.7168    2.4717    8.0488 C   0  0  0  0  0  0
    4.2505    2.1520    9.2967 C   0  0  0  0  0  0
    5.4563    2.7011    9.7173 C   0  0  0  0  0  0
    6.1810    3.5745    8.9223 C   0  0  0  0  0  0
    7.3835    4.0333    9.5027 N   0  0  0  0  0  0
    8.5795    4.5303    8.9787 C   0  0  0  0  0  0
    9.3987    5.1677    9.8400 N   0  0  0  0  0  0
   10.4729    5.8098    9.2950 C   0  0  0  0  0  0
   10.7711    5.8013    7.9413 C   0  0  0  0  0  0
    9.9280    5.0197    7.1492 C   0  0  0  0  0  0
   10.2004    4.8404    5.8113 O   0  0  0  0  0  0
    9.7419    3.6881    5.2396 C   0  0  0  0  0  0
    8.3950    3.5288    4.9176 C   0  0  0  0  0  0
    7.8888    2.2518    4.7092 C   0  0  0  0  0  0
    8.7594    1.1645    4.6752 C   0  0  0  0  0  0
   10.1269    1.3465    4.8865 C   0  0  0  0  0  0
   11.2514    0.3631    4.8335 C   0  0  0  0  0  0
   12.5140    1.1630    5.1854 C   0  0  0  0  0  0
   12.0523    2.5506    5.5135 C   0  0  0  0  0  0
   12.7819    3.4548    5.9092 O   0  0  0  0  0  0
   10.6081    2.6026    5.2116 C   0  0  0  0  0  0
    8.8496    4.3640    7.6751 N   0  0  0  0  0  0
   11.9167    6.6467    7.3968 C   0  0  0  0  0  0
   11.5207    7.3000    6.3091 F   0  0  0  0  0  0
   12.3198    7.5623    8.2805 F   0  0  0  0  0  0
   12.9607    5.8768    7.1109 F   0  0  0  0  0  0
    2.4268    1.8203    7.5926 C   0  0  0  0  0  0
    1.8080    1.0416    8.3233 O   0  0  0  0  0  0
    2.0178    2.1244    6.3490 N   0  0  0  0  0  0
    0.9277    1.4787    5.6164 C   0  0  2  0  0  0
    1.3624    0.1262    5.0041 C   0  0  0  0  0  0
    2.5597    0.2847    4.0379 C   0  0  0  0  0  0
    2.3024    1.3386    2.9305 C   0  0  2  0  0  0
    3.5219    1.6766    2.3097 O   0  0  0  0  0  0
    1.6042    2.6318    3.4227 C   0  0  0  0  0  0
    0.4676    2.3625    4.4369 C   0  0  0  0  0  0
    6.2674    6.3524    5.5072 H   0  0  0  0  0  0
    5.4711    4.8647    4.9975 H   0  0  0  0  0  0
    4.6571    5.9627    6.1325 H   0  0  0  0  0  0
    4.0196    3.6718    6.2935 H   0  0  0  0  0  0
    3.7499    1.4572    9.9564 H   0  0  0  0  0  0
    5.8396    2.4061   10.6824 H   0  0  0  0  0  0
    7.3566    4.0688   10.5091 H   0  0  0  0  0  0
   11.1196    6.3737    9.9413 H   0  0  0  0  0  0
    7.7412    4.3811    4.9411 H   0  0  0  0  0  0
    6.8373    2.1039    4.5111 H   0  0  0  0  0  0
    8.3468    0.2154    4.3763 H   0  0  0  0  0  0
   11.1207   -0.4364    5.5595 H   0  0  0  0  0  0
   11.3555   -0.0831    3.8438 H   0  0  0  0  0  0
   13.0390    0.7629    6.0529 H   0  0  0  0  0  0
   13.2149    1.2059    4.3518 H   0  0  0  0  0  0
    2.6704    2.6292    5.7712 H   0  0  0  0  0  0
    0.0836    1.3398    6.2964 H   0  0  0  0  0  0
    0.5233   -0.3316    4.4783 H   0  0  0  0  0  0
    1.6237   -0.5727    5.7997 H   0  0  0  0  0  0
    3.4533    0.5500    4.6072 H   0  0  0  0  0  0
    2.7832   -0.6804    3.5810 H   0  0  0  0  0  0
    1.6798    0.8981    2.1502 H   0  0  0  0  0  0
    4.0543    0.8792    2.2336 H   0  0  0  0  0  0
    2.3364    3.3104    3.8640 H   0  0  0  0  0  0
    1.1966    3.1626    2.5612 H   0  0  0  0  0  0
    0.0838    3.3118    4.8150 H   0  0  0  0  0  0
   -0.3745    1.8931    3.9265 H   0  0  0  0  0  0
  1  2  1  0  0  0
  1 41  1  0  0  0
  1 42  1  0  0  0
  1 43  1  0  0  0
  2  3  1  0  0  0
  3  4  2  0  0  0
  3  8  1  0  0  0
  4  5  1  0  0  0
  4 44  1  0  0  0
  5  6  2  0  0  0
  5 31  1  0  0  0
  6  7  1  0  0  0
  6 45  1  0  0  0
  7  8  2  0  0  0
  7 46  1  0  0  0
  8  9  1  0  0  0
  9 10  1  0  0  0
  9 47  1  0  0  0
 10 11  2  0  0  0
 10 26  1  0  0  0
 11 12  1  0  0  0
 12 13  2  0  0  0
 12 48  1  0  0  0
 13 14  1  0  0  0
 13 27  1  0  0  0
 14 15  1  0  0  0
 14 26  2  0  0  0
 15 16  1  0  0  0
 16 17  2  0  0  0
 16 25  1  0  0  0
 17 18  1  0  0  0
 17 49  1  0  0  0
 18 19  2  0  0  0
 18 50  1  0  0  0
 19 20  1  0  0  0
 19 51  1  0  0  0
 20 21  1  0  0  0
 20 25  2  0  0  0
 21 22  1  0  0  0
 21 52  1  0  0  0
 21 53  1  0  0  0
 22 23  1  0  0  0
 22 54  1  0  0  0
 22 55  1  0  0  0
 23 24  2  0  0  0
 23 25  1  0  0  0
 27 28  1  0  0  0
 27 29  1  0  0  0
 27 30  1  0  0  0
 31 32  2  0  0  0
 31 33  1  0  0  0
 33 34  1  0  0  0
 33 56  1  0  0  0
 34 35  1  0  0  0
 34 40  1  0  0  0
 34 57  1  0  0  0
 35 36  1  0  0  0
 35 58  1  0  0  0
 35 59  1  0  0  0
 36 37  1  0  0  0
 36 60  1  0  0  0
 36 61  1  0  0  0
 37 38  1  0  0  0
 37 39  1  0  0  0
 37 62  1  0  0  0
 38 63  1  0  0  0
 39 40  1  0  0  0
 39 64  1  0  0  0
 39 65  1  0  0  0
 40 66  1  0  0  0
 40 67  1  0  0  0
M  END
> <s_m_entry_id>
47774

> <s_m_entry_name>
dock_pv.307

> <s_m_Source_Path>
/home/csk/Desktop/cluster/DUD-E-result/fak1

> <s_m_Source_File>
dock_pv.maegz

> <i_m_Source_File_Index>
307

> <chembl_id>
CHEMBL3913867

> <chembl_pref_name>
None

> <i_lp_mmshare_version>
53161

> <i_f3d_flags>
0

> <r_lp_tautomer_probability>
0.999949917916752

> <s_lp_Force_Field>
OPLS_2005

> <r_lp_Energy>
44.895259

> <b_lp_Chiralities_Consistent>
1

> <s_lp_Variant>
CHEMBL2695_lig969-1

> <s_i_glide_gridfile>
glide-grid_3bz3

> <i_i_glide_lignum>
1045

> <i_i_glide_rotatable_bonds>
10

> <r_i_docking_score>
-6.9314381579614

> <r_i_glide_ligand_efficiency>
-0.173285953949035

> <r_i_glide_ligand_efficiency_sa>
-0.592629625570838

> <r_i_glide_ligand_efficiency_ln>
-1.47827177597408

> <r_i_glide_gscore>
-6.9314381579614

> <r_i_glide_lipo>
-2.45902238406609

> <r_i_glide_hbond>
-0.273114490682198

> <r_i_glide_metal>
0

> <r_i_glide_rewards>
-2.74725888074809

> <r_i_glide_evdw>
-29.2580909729004

> <r_i_glide_ecoul>
-2.51859736442566

> <r_i_glide_erotb>
0.393557237112029

> <r_i_glide_esite>
-0.00490548626818023

> <r_i_glide_emodel>
-37.8902830405024

> <r_i_glide_energy>
-31.776688337326

> <r_i_glide_einternal>
11.2710952758789

> <i_i_glide_confnum>
5

> <i_i_glide_posenum>
51

> <r_i_glide_eff_state_penalty>
0

> <s_user_duplicate_titles>
CHEMBL2695_lig969

> <s_m_subgroup_title>
dock_pv

> <s_m_subgroupid>
dock_pv

> <b_m_subgroup_collapsed>
1

$$$$
CHEMBL2695_lig9
                    3D
 Schrodinger Suite 2021-1.
 41 44  0  0  1  0            999 V2000
    6.8048    2.3631    4.8233 N   0  0  0  0  0  0
    5.5078    2.7631    5.0979 N   0  0  0  0  0  0
    5.5026    3.2697    6.3005 C   0  0  0  0  0  0
    6.7617    3.2060    6.8798 N   0  0  0  0  0  0
    7.5389    2.6455    5.8678 C   0  0  0  0  0  0
    4.2767    3.8717    6.8840 C   0  0  0  0  0  0
    4.0145    5.2345    6.7100 C   0  0  0  0  0  0
    2.8311    5.7607    7.2319 C   0  0  0  0  0  0
    1.9231    5.0089    7.9064 N   0  0  0  0  0  0
    2.1908    3.6867    8.0640 C   0  0  0  0  0  0
    3.3459    3.0806    7.5655 C   0  0  0  0  0  0
    7.1524    3.6580    8.1686 C   0  0  0  0  0  0
    8.3429    4.3677    8.3149 C   0  0  0  0  0  0
    8.7224    4.8789    9.5487 C   0  0  0  0  0  0
    7.9012    4.6848   10.6525 C   0  0  0  0  0  0
    6.7186    3.9631   10.5296 C   0  0  0  0  0  0
    6.3462    3.4379    9.2935 C   0  0  0  0  0  0
    9.2628    2.2576    5.9090 S   0  0  0  0  0  0
    9.9516    3.7712    5.1641 C   0  0  0  0  0  0
   11.1936    4.2614    5.9095 C   0  0  0  0  0  0
   11.1898    5.4901    6.5827 C   0  0  0  0  0  0
   12.3267    5.9259    7.2618 C   0  0  0  0  0  0
   13.4919    5.1640    7.2355 C   0  0  0  0  0  0
   13.5224    3.9630    6.5313 C   0  0  0  0  0  0
   12.3660    3.4957    5.9090 C   0  0  0  0  0  0
   12.3018    7.5627    8.2251 Br  0  0  0  0  0  0
    4.7023    5.8672    6.1675 H   0  0  0  0  0  0
    2.5939    6.8080    7.1174 H   0  0  0  0  0  0
    1.4502    3.1086    8.5963 H   0  0  0  0  0  0
    3.5151    2.0219    7.6997 H   0  0  0  0  0  0
    8.9590    4.5661    7.4636 H   0  0  0  0  0  0
    9.6374    5.4462    9.6334 H   0  0  0  0  0  0
    8.1737    5.1043   11.6099 H   0  0  0  0  0  0
    6.0827    3.8266   11.3908 H   0  0  0  0  0  0
    5.4283    2.8741    9.2230 H   0  0  0  0  0  0
    9.1946    4.5537    5.1029 H   0  0  0  0  0  0
   10.2257    3.5328    4.1388 H   0  0  0  0  0  0
   10.3073    6.1125    6.5892 H   0  0  0  0  0  0
   14.3649    5.5151    7.7622 H   0  0  0  0  0  0
   14.4208    3.3675    6.5044 H   0  0  0  0  0  0
   12.3890    2.5439    5.3989 H   0  0  0  0  0  0
  1  2  1  0  0  0
  1  5  2  0  0  0
  2  3  2  0  0  0
  3  4  1  0  0  0
  3  6  1  0  0  0
  4  5  1  0  0  0
  4 12  1  0  0  0
  5 18  1  0  0  0
  6  7  2  0  0  0
  6 11  1  0  0  0
  7  8  1  0  0  0
  7 27  1  0  0  0
  8  9  2  0  0  0
  8 28  1  0  0  0
  9 10  1  0  0  0
 10 11  2  0  0  0
 10 29  1  0  0  0
 11 30  1  0  0  0
 12 13  2  0  0  0
 12 17  1  0  0  0
 13 14  1  0  0  0
 13 31  1  0  0  0
 14 15  2  0  0  0
 14 32  1  0  0  0
 15 16  1  0  0  0
 15 33  1  0  0  0
 16 17  2  0  0  0
 16 34  1  0  0  0
 17 35  1  0  0  0
 18 19  1  0  0  0
 19 20  1  0  0  0
 19 36  1  0  0  0
 19 37  1  0  0  0
 20 21  2  0  0  0
 20 25  1  0  0  0
 21 22  1  0  0  0
 21 38  1  0  0  0
 22 23  2  0  0  0
 22 26  1  0  0  0
 23 24  1  0  0  0
 23 39  1  0  0  0
 24 25  2  0  0  0
 24 40  1  0  0  0
 25 41  1  0  0  0
M  END
> <s_m_entry_id>
47775

> <s_m_entry_name>
dock_pv.308

> <s_m_Source_Path>
/home/csk/Desktop/cluster/DUD-E-result/fak1

> <s_m_Source_File>
dock_pv.maegz

> <i_m_Source_File_Index>
308

> <chembl_id>
CHEMBL2298000

> <chembl_pref_name>
None

> <i_lp_mmshare_version>
53161

> <i_f3d_flags>
0

> <r_lp_tautomer_probability>
1

> <s_lp_Force_Field>
OPLS_2005

> <r_lp_Energy>
23.184609

> <b_lp_Chiralities_Consistent>
1

> <s_lp_Variant>
CHEMBL2695_lig9-1

> <s_i_glide_gridfile>
glide-grid_3bz3

> <i_i_glide_lignum>
10

> <i_i_glide_rotatable_bonds>
5

> <r_i_docking_score>
-6.92727732529059

> <r_i_glide_ligand_efficiency>
-0.266433743280407

> <r_i_glide_ligand_efficiency_sa>
-0.78930891610205

> <r_i_glide_ligand_efficiency_ln>
-1.62684834959363

> <r_i_glide_gscore>
-6.92727732529059

> <r_i_glide_lipo>
-4.37157678695275

> <r_i_glide_hbond>
0

> <r_i_glide_metal>
0

> <r_i_glide_rewards>
-0.782697164575629

> <r_i_glide_evdw>
-47.6508941650391

> <r_i_glide_ecoul>
1.27219665050507

> <r_i_glide_erotb>
0.552944568271151

> <r_i_glide_esite>
-0.134232731357168

> <r_i_glide_emodel>
-61.3787838757096

> <r_i_glide_energy>
-46.378697514534

> <r_i_glide_einternal>
6.16054153442383

> <i_i_glide_confnum>
169

> <i_i_glide_posenum>
121

> <r_i_glide_eff_state_penalty>
0

> <s_user_duplicate_titles>
CHEMBL2695_lig9

> <s_m_subgroup_title>
dock_pv

> <s_m_subgroupid>
dock_pv

> <b_m_subgroup_collapsed>
1

$$$$
CHEMBL2695_lig1880
                    3D
 Schrodinger Suite 2021-1.
 50 53  0  0  1  0            999 V2000
    5.2137    2.7638    9.5090 O   0  0  0  0  0  0
    3.5213    0.2078    5.4009 N   0  0  0  0  0  0
    4.1948    3.6173    7.6445 N   0  0  0  0  0  0
    2.3212    3.1532   10.3184 N   0  0  0  0  0  0
    5.9275    5.1651    4.8244 N   0  0  0  0  0  0
   14.1566    3.1324    6.3090 N   0  0  0  0  0  0
    2.0846    1.8915    5.4840 C   0  0  0  0  0  0
    2.3356    1.4218    6.8466 C   0  0  0  0  0  0
    2.8659    1.1023    4.5852 C   0  0  0  0  0  0
    3.1899    0.3796    6.7268 C   0  0  0  0  0  0
    1.8316    1.9926    8.1475 C   0  0  0  0  0  0
    2.8778    2.2954    9.2620 C   0  0  1  0  0  0
    1.3085    2.9272    4.9126 C   0  0  0  0  0  0
    2.8836    1.3309    3.1985 C   0  0  0  0  0  0
    4.2148    2.9423    8.8111 C   0  0  0  0  0  0
    5.2745    3.9972    6.8375 C   0  0  0  0  0  0
    1.3097    3.1606    3.5223 C   0  0  0  0  0  0
    2.0921    2.3634    2.6642 C   0  0  0  0  0  0
    7.5874    3.9606    6.1169 C   0  0  0  0  0  0
    6.6007    3.5719    7.0212 C   0  0  0  0  0  0
    4.9868    4.7826    5.7202 C   0  0  0  0  0  0
    7.2057    4.7629    5.0382 C   0  0  0  0  0  0
    8.9729    3.5194    6.3087 C   0  0  0  0  0  0
   10.0502    4.3115    6.1533 C   0  0  0  0  0  0
   11.4504    3.8779    6.2434 C   0  0  0  0  0  0
   12.4287    4.7817    6.6700 C   0  0  0  0  0  0
   11.8423    2.5777    5.8940 C   0  0  0  0  0  0
   13.7603    4.3642    6.7089 C   0  0  0  0  0  0
   13.2008    2.2556    5.9092 C   0  0  0  0  0  0
    4.2542   -0.4370    5.1094 H   0  0  0  0  0  0
    3.2837    3.7625    7.2387 H   0  0  0  0  0  0
    1.4771    2.7636   10.7047 H   0  0  0  0  0  0
    2.9945    3.1980   11.0820 H   0  0  0  0  0  0
    3.6075   -0.1725    7.5583 H   0  0  0  0  0  0
    1.0833    1.3029    8.5359 H   0  0  0  0  0  0
    1.2860    2.9077    7.9093 H   0  0  0  0  0  0
    3.1569    1.3306    9.6939 H   0  0  0  0  0  0
    0.7092    3.5583    5.5516 H   0  0  0  0  0  0
    3.4998    0.7236    2.5508 H   0  0  0  0  0  0
    0.7090    3.9617    3.1148 H   0  0  0  0  0  0
    2.0900    2.5508    1.5991 H   0  0  0  0  0  0
    6.8824    2.9298    7.8409 H   0  0  0  0  0  0
    3.9819    5.1203    5.5100 H   0  0  0  0  0  0
    7.9299    5.0810    4.3032 H   0  0  0  0  0  0
    9.1034    2.4767    6.5606 H   0  0  0  0  0  0
    9.8958    5.3526    5.9123 H   0  0  0  0  0  0
   12.1665    5.7877    6.9682 H   0  0  0  0  0  0
   11.1190    1.8473    5.5601 H   0  0  0  0  0  0
   14.5373    5.0386    7.0421 H   0  0  0  0  0  0
   13.5416    1.2747    5.6087 H   0  0  0  0  0  0
  1 15  2  0  0  0
  2  9  1  0  0  0
  2 10  1  0  0  0
  2 30  1  0  0  0
  3 15  1  0  0  0
  3 16  1  0  0  0
  3 31  1  0  0  0
  4 12  1  0  0  0
  4 32  1  0  0  0
  4 33  1  0  0  0
  5 21  1  0  0  0
  5 22  2  0  0  0
  6 28  2  0  0  0
  6 29  1  0  0  0
  7  8  1  0  0  0
  7  9  1  0  0  0
  7 13  2  0  0  0
  8 10  2  0  0  0
  8 11  1  0  0  0
  9 14  2  0  0  0
 10 34  1  0  0  0
 11 12  1  0  0  0
 11 35  1  0  0  0
 11 36  1  0  0  0
 12 15  1  0  0  0
 12 37  1  0  0  0
 13 17  1  0  0  0
 13 38  1  0  0  0
 14 18  1  0  0  0
 14 39  1  0  0  0
 16 20  1  0  0  0
 16 21  2  0  0  0
 17 18  2  0  0  0
 17 40  1  0  0  0
 18 41  1  0  0  0
 19 20  2  0  0  0
 19 22  1  0  0  0
 19 23  1  0  0  0
 20 42  1  0  0  0
 21 43  1  0  0  0
 22 44  1  0  0  0
 23 24  2  3  0  0
 23 45  1  0  0  0
 24 25  1  0  0  0
 24 46  1  0  0  0
 25 26  2  0  0  0
 25 27  1  0  0  0
 26 28  1  0  0  0
 26 47  1  0  0  0
 27 29  2  0  0  0
 27 48  1  0  0  0
 28 49  1  0  0  0
 29 50  1  0  0  0
M  END
> <s_m_entry_id>
47776

> <s_m_entry_name>
dock_pv.309

> <s_m_Source_Path>
/home/csk/Desktop/cluster/DUD-E-result/fak1

> <s_m_Source_File>
dock_pv.maegz

> <i_m_Source_File_Index>
309

> <chembl_id>
CHEMBL1983945

> <chembl_pref_name>
None

> <i_lp_mmshare_version>
53161

> <i_f3d_flags>
0

> <r_lp_tautomer_probability>
1

> <s_lp_Force_Field>
OPLS_2005

> <r_lp_Energy>
22.36196

> <b_lp_Chiralities_Consistent>
1

> <s_lp_Variant>
CHEMBL2695_lig1880-3

> <s_i_glide_gridfile>
glide-grid_3bz3

> <i_i_glide_lignum>
2177

> <i_i_glide_rotatable_bonds>
7

> <r_i_docking_score>
-6.92188755087776

> <r_i_glide_ligand_efficiency>
-0.238685777616475

> <r_i_glide_ligand_efficiency_sa>
-0.733318329799905

> <r_i_glide_ligand_efficiency_ln>
-1.58493672522734

> <r_i_glide_gscore>
-6.92188755087776

> <r_i_glide_lipo>
-2.46963324879943

> <r_i_glide_hbond>
-0.709680678420218

> <r_i_glide_metal>
0

> <r_i_glide_rewards>
-1.73940978433009

> <r_i_glide_evdw>
-37.6097183227539

> <r_i_glide_ecoul>
-5.53246974945068

> <r_i_glide_erotb>
0.792986291842066

> <r_i_glide_esite>
-0.0857937526147995

> <r_i_glide_emodel>
-58.7299992305298

> <r_i_glide_energy>
-43.1421880722046

> <r_i_glide_einternal>
6.72304916381836

> <i_i_glide_confnum>
9

> <i_i_glide_posenum>
305

> <r_i_glide_eff_state_penalty>
0

> <s_user_duplicate_titles>
CHEMBL2695_lig1880

> <s_m_subgroup_title>
dock_pv

> <s_m_subgroupid>
dock_pv

> <b_m_subgroup_collapsed>
1

$$$$
CHEMBL2695_lig72
                    3D
 Schrodinger Suite 2021-1.
 45 48  0  0  1  0            999 V2000
    9.7875    0.8467    4.4599 N   0  0  0  0  0  0
    9.2908    1.9038    5.1418 C   0  0  0  0  0  0
   10.0073    2.8578    5.7982 N   0  0  0  0  0  0
   11.1220    0.6664    4.4653 C   0  0  0  0  0  0
   11.9712    1.5713    5.1071 C   0  0  0  0  0  0
   11.3393    2.6858    5.7439 C   0  0  0  0  0  0
   12.3470    3.5384    6.2160 N   0  0  0  0  0  0
   13.5495    2.9247    5.9091 C   0  0  0  0  0  0
   13.3755    1.7366    5.2429 C   0  0  0  0  0  0
    7.8997    1.9630    5.1092 N   0  0  0  0  0  0
    6.9347    2.6582    5.8410 C   0  0  0  0  0  0
    7.1802    3.2331    7.0875 C   0  0  0  0  0  0
    6.1487    3.8411    7.8002 C   0  0  0  0  0  0
    4.8610    3.9167    7.2385 C   0  0  0  0  0  0
    4.5956    3.3074    6.0037 C   0  0  0  0  0  0
    5.6459    2.6875    5.3138 C   0  0  0  0  0  0
    3.2919    3.3444    5.5428 O   0  0  0  0  0  0
    2.9660    2.7284    4.3035 C   0  0  0  0  0  0
    3.8436    4.5530    7.9090 O   0  0  0  0  0  0
    3.5034    5.8325    7.3836 C   0  0  0  0  0  0
    6.4550    4.3630    9.0344 O   0  0  0  0  0  0
    5.8295    3.7235   10.1410 C   0  0  0  0  0  0
   12.2843    4.7630    6.8748 C   0  0  0  0  0  0
   13.3545    5.4105    7.5093 C   0  0  0  0  0  0
   12.9954    6.6169    8.1147 C   0  0  0  0  0  0
   11.6532    6.9120    7.9504 C   0  0  0  0  0  0
   10.8171    5.6728    7.0726 S   0  0  0  0  0  0
   11.5040   -0.1765    3.9092 H   0  0  0  0  0  0
   14.4774    3.4041    6.1692 H   0  0  0  0  0  0
   14.1653    1.1087    4.8570 H   0  0  0  0  0  0
    7.5098    1.2000    4.5722 H   0  0  0  0  0  0
    8.1617    3.1840    7.5317 H   0  0  0  0  0  0
    5.4699    2.1998    4.3674 H   0  0  0  0  0  0
    1.9095    2.8875    4.0893 H   0  0  0  0  0  0
    3.5373    3.1623    3.4846 H   0  0  0  0  0  0
    3.1416    1.6520    4.3328 H   0  0  0  0  0  0
    2.6387    6.2297    7.9139 H   0  0  0  0  0  0
    4.3219    6.5382    7.5091 H   0  0  0  0  0  0
    3.2434    5.7949    6.3249 H   0  0  0  0  0  0
    6.2834    4.0802   11.0659 H   0  0  0  0  0  0
    5.9488    2.6382   10.1109 H   0  0  0  0  0  0
    4.7650    3.9563   10.1936 H   0  0  0  0  0  0
   14.3671    5.0398    7.5526 H   0  0  0  0  0  0
   13.6928    7.2468    8.6474 H   0  0  0  0  0  0
   11.1220    7.7817    8.3079 H   0  0  0  0  0  0
  1  2  2  0  0  0
  1  4  1  0  0  0
  2 10  1  0  0  0
  2  3  1  0  0  0
  3  6  2  0  0  0
  4  5  2  0  0  0
  4 28  1  0  0  0
  5  9  1  0  0  0
  5  6  1  0  0  0
  6  7  1  0  0  0
  7  8  1  0  0  0
  7 23  1  0  0  0
  8  9  2  0  0  0
  8 29  1  0  0  0
  9 30  1  0  0  0
 10 11  1  0  0  0
 10 31  1  0  0  0
 11 16  2  0  0  0
 11 12  1  0  0  0
 12 13  2  0  0  0
 12 32  1  0  0  0
 13 14  1  0  0  0
 13 21  1  0  0  0
 14 15  2  0  0  0
 14 19  1  0  0  0
 15 16  1  0  0  0
 15 17  1  0  0  0
 16 33  1  0  0  0
 17 18  1  0  0  0
 18 34  1  0  0  0
 18 35  1  0  0  0
 18 36  1  0  0  0
 19 20  1  0  0  0
 20 37  1  0  0  0
 20 38  1  0  0  0
 20 39  1  0  0  0
 21 22  1  0  0  0
 22 40  1  0  0  0
 22 41  1  0  0  0
 22 42  1  0  0  0
 23 24  2  0  0  0
 23 27  1  0  0  0
 24 25  1  0  0  0
 24 43  1  0  0  0
 25 26  2  0  0  0
 25 44  1  0  0  0
 26 27  1  0  0  0
 26 45  1  0  0  0
M  END
> <s_m_entry_id>
47777

> <s_m_entry_name>
dock_pv.310

> <s_m_Source_Path>
/home/csk/Desktop/cluster/DUD-E-result/fak1

> <s_m_Source_File>
dock_pv.maegz

> <i_m_Source_File_Index>
310

> <chembl_id>
CHEMBL205587

> <chembl_pref_name>
None

> <i_lp_mmshare_version>
53161

> <i_f3d_flags>
0

> <r_lp_tautomer_probability>
1

> <s_lp_Force_Field>
OPLS_2005

> <r_lp_Energy>
21.8214

> <b_lp_Chiralities_Consistent>
1

> <s_lp_Variant>
CHEMBL2695_lig72-1

> <s_i_glide_gridfile>
glide-grid_3bz3

> <i_i_glide_lignum>
94

> <i_i_glide_rotatable_bonds>
6

> <r_i_docking_score>
-6.92145078526628

> <r_i_glide_ligand_efficiency>
-0.256350029083936

> <r_i_glide_ligand_efficiency_sa>
-0.769050086406922

> <r_i_glide_ligand_efficiency_ln>
-1.61119963377569

> <r_i_glide_gscore>
-6.92145078526628

> <r_i_glide_lipo>
-3.60373883937719

> <r_i_glide_hbond>
-0.0148856061507734

> <r_i_glide_metal>
0

> <r_i_glide_rewards>
-1.6750779302918

> <r_i_glide_evdw>
-40.7619514465332

> <r_i_glide_ecoul>
0.532025456428528

> <r_i_glide_erotb>
0.398369774965694

> <r_i_glide_esite>
-0.0678244305498348

> <r_i_glide_emodel>
-52.5782048955624

> <r_i_glide_energy>
-40.2299259901047

> <r_i_glide_einternal>
9.63640975952148

> <i_i_glide_confnum>
1

> <i_i_glide_posenum>
338

> <r_i_glide_eff_state_penalty>
0

> <s_user_duplicate_titles>
CHEMBL2695_lig72

> <s_m_subgroup_title>
dock_pv

> <s_m_subgroupid>
dock_pv

> <b_m_subgroup_collapsed>
1

$$$$
CHEMBL2695_lig2026
                    3D
 Schrodinger Suite 2021-1.
 37 39  0  0  1  0            999 V2000
    9.0653    4.7544    9.8903 F   0  0  0  0  0  0
    7.3236    4.3759   11.1094 F   0  0  0  0  0  0
    8.7099    2.7628   10.6802 F   0  0  0  0  0  0
   13.0228    1.7725    5.8699 O   0  0  0  0  0  0
   10.7225    0.0271    4.1923 O   0  0  0  0  0  0
   10.8452    4.4139    5.9094 N   0  0  0  0  0  0
    8.5100    2.4195    4.7092 N   0  0  0  0  0  0
   13.2412    6.7623    8.4490 N   0  0  0  0  0  0
   10.8200    3.0808    5.5385 C   0  0  0  0  0  0
    9.8397    2.2861    5.0288 C   0  0  0  0  0  0
   11.8624    1.9628    5.5092 C   0  0  0  0  0  0
   10.7718    1.1216    4.7533 C   0  0  0  0  0  0
   11.7272    5.1735    6.6912 C   0  0  0  0  0  0
    7.5931    3.4684    5.1301 C   0  0  0  0  0  0
    7.0819    3.2325    6.5428 C   0  0  0  0  0  0
    7.3232    3.4307    8.9542 C   0  0  0  0  0  0
    8.1232    3.8519   10.1808 C   0  0  0  0  0  0
    7.8017    3.6706    7.6593 C   0  0  0  0  0  0
    5.8826    2.5375    6.7281 C   0  0  0  0  0  0
    6.1047    2.7632    9.1203 C   0  0  0  0  0  0
   11.2706    6.4286    7.1008 C   0  0  0  0  0  0
   12.9967    4.7634    7.1090 C   0  0  0  0  0  0
    5.3909    2.3123    8.0118 C   0  0  0  0  0  0
   12.0485    7.1909    7.9714 C   0  0  0  0  0  0
   13.6969    5.5626    8.0105 C   0  0  0  0  0  0
   10.0145    4.9425    5.6914 H   0  0  0  0  0  0
    8.0942    1.7502    4.0692 H   0  0  0  0  0  0
    6.7452    3.4909    4.4469 H   0  0  0  0  0  0
    8.0696    4.4469    5.0560 H   0  0  0  0  0  0
    8.7400    4.1827    7.5198 H   0  0  0  0  0  0
    5.3310    2.1636    5.8766 H   0  0  0  0  0  0
    5.7198    2.5634   10.1113 H   0  0  0  0  0  0
   10.3219    6.8060    6.7560 H   0  0  0  0  0  0
   13.4431    3.8410    6.7985 H   0  0  0  0  0  0
    4.4649    1.7737    8.1487 H   0  0  0  0  0  0
   11.7143    8.1616    8.3088 H   0  0  0  0  0  0
   14.6554    5.2389    8.3928 H   0  0  0  0  0  0
  1 17  1  0  0  0
  2 17  1  0  0  0
  3 17  1  0  0  0
  4 11  2  0  0  0
  5 12  2  0  0  0
  6  9  1  0  0  0
  6 13  1  0  0  0
  6 26  1  0  0  0
  7 10  1  0  0  0
  7 14  1  0  0  0
  7 27  1  0  0  0
  8 24  2  0  0  0
  8 25  1  0  0  0
  9 10  2  0  0  0
  9 11  1  0  0  0
 10 12  1  0  0  0
 11 12  1  0  0  0
 13 21  2  0  0  0
 13 22  1  0  0  0
 14 15  1  0  0  0
 14 28  1  0  0  0
 14 29  1  0  0  0
 15 18  2  0  0  0
 15 19  1  0  0  0
 16 17  1  0  0  0
 16 18  1  0  0  0
 16 20  2  0  0  0
 18 30  1  0  0  0
 19 23  2  0  0  0
 19 31  1  0  0  0
 20 23  1  0  0  0
 20 32  1  0  0  0
 21 24  1  0  0  0
 21 33  1  0  0  0
 22 25  2  0  0  0
 22 34  1  0  0  0
 23 35  1  0  0  0
 24 36  1  0  0  0
 25 37  1  0  0  0
M  END
> <s_m_entry_id>
47778

> <s_m_entry_name>
dock_pv.311

> <s_m_Source_Path>
/home/csk/Desktop/cluster/DUD-E-result/fak1

> <s_m_Source_File>
dock_pv.maegz

> <i_m_Source_File_Index>
311

> <chembl_id>
CHEMBL1979252

> <chembl_pref_name>
None

> <i_lp_mmshare_version>
53161

> <i_f3d_flags>
0

> <r_lp_tautomer_probability>
1

> <s_lp_Force_Field>
OPLS_2005

> <r_lp_Energy>
52.279986

> <b_lp_Chiralities_Consistent>
1

> <s_lp_Variant>
CHEMBL2695_lig2026-1

> <s_i_glide_gridfile>
glide-grid_3bz3

> <i_i_glide_lignum>
2402

> <i_i_glide_rotatable_bonds>
6

> <r_i_docking_score>
-6.91998818764979

> <r_i_glide_ligand_efficiency>
-0.276799527505992

> <r_i_glide_ligand_efficiency_sa>
-0.809366727488042

> <r_i_glide_ligand_efficiency_ln>
-1.64024457578482

> <r_i_glide_gscore>
-6.91998818764979

> <r_i_glide_lipo>
-3.20431060905554

> <r_i_glide_hbond>
-0.106227613646735

> <r_i_glide_metal>
0

> <r_i_glide_rewards>
-1.78250138850575

> <r_i_glide_evdw>
-41.4044342041016

> <r_i_glide_ecoul>
-3.28224921226501

> <r_i_glide_erotb>
0.788590894489008

> <r_i_glide_esite>
-0.0529803788859402

> <r_i_glide_emodel>
-59.9168102936514

> <r_i_glide_energy>
-44.6866834163666

> <r_i_glide_einternal>
3.70717406272888

> <i_i_glide_confnum>
26

> <i_i_glide_posenum>
66

> <r_i_glide_eff_state_penalty>
0

> <s_user_duplicate_titles>
CHEMBL2695_lig2026

> <s_m_subgroup_title>
dock_pv

> <s_m_subgroupid>
dock_pv

> <b_m_subgroup_collapsed>
1

$$$$
CHEMBL2695_lig2167
                    3D
 Schrodinger Suite 2021-1.
 39 40  0  0  1  0            999 V2000
    9.1154    5.1621    5.9093 O   0  0  0  0  0  0
    9.8452    3.0560    5.5469 N   0  0  0  0  0  0
   13.9732    3.1694    6.3090 N   0  0  0  0  0  0
    5.2248    3.5638    9.9090 N   0  0  0  0  0  0
    7.4899    3.6146    5.0464 C   0  0  2  0  0  0
    8.8922    4.0035    5.5824 C   0  0  0  0  0  0
    6.1722    2.9705    7.7112 C   0  0  1  0  0  0
   11.2067    3.1645    5.8620 C   0  0  0  0  0  0
    6.3708    4.5288    5.6078 C   0  0  0  0  0  0
    7.0882    2.1605    5.4015 C   0  0  0  0  0  0
    6.1768    4.4215    7.1366 C   0  0  0  0  0  0
    6.9717    1.8937    6.9191 C   0  0  0  0  0  0
    6.2933    2.8372    9.2527 C   0  0  1  0  0  0
   11.9588    2.0090    5.6486 C   0  0  0  0  0  0
   11.8613    4.3322    6.3072 C   0  0  0  0  0  0
   13.3282    2.0551    5.8823 C   0  0  0  0  0  0
   13.2413    4.2933    6.5051 C   0  0  0  0  0  0
    7.6280    3.3142    9.8520 C   0  0  0  0  0  0
    9.5506    2.1510    5.2153 H   0  0  0  0  0  0
    4.3401    3.3675    9.4664 H   0  0  0  0  0  0
    5.1226    3.2604   10.8768 H   0  0  0  0  0  0
    7.5704    3.7313    3.9693 H   0  0  0  0  0  0
    5.1557    2.6604    7.4590 H   0  0  0  0  0  0
    5.4335    4.2423    5.1273 H   0  0  0  0  0  0
    6.4877    5.5585    5.2623 H   0  0  0  0  0  0
    7.7075    1.4321    4.8764 H   0  0  0  0  0  0
    6.1077    1.9666    4.9622 H   0  0  0  0  0  0
    5.3043    4.9838    7.4734 H   0  0  0  0  0  0
    7.0299    4.9380    7.5736 H   0  0  0  0  0  0
    7.9891    1.8853    7.3053 H   0  0  0  0  0  0
    6.5904    0.8902    7.1203 H   0  0  0  0  0  0
    6.1612    1.7887    9.5060 H   0  0  0  0  0  0
   11.5018    1.0963    5.2951 H   0  0  0  0  0  0
   11.3518    5.2627    6.4925 H   0  0  0  0  0  0
   13.9217    1.1765    5.7060 H   0  0  0  0  0  0
   13.7773    5.1633    6.8531 H   0  0  0  0  0  0
    8.4718    2.7639    9.4400 H   0  0  0  0  0  0
    7.6519    3.1653   10.9320 H   0  0  0  0  0  0
    7.8016    4.3750    9.6676 H   0  0  0  0  0  0
  1  6  2  0  0  0
  2  6  1  0  0  0
  2  8  1  0  0  0
  2 19  1  0  0  0
  3 16  2  0  0  0
  3 17  1  0  0  0
  4 13  1  0  0  0
  4 20  1  0  0  0
  4 21  1  0  0  0
  5  6  1  0  0  0
  5  9  1  0  0  0
  5 10  1  0  0  0
  5 22  1  0  0  0
  7 11  1  0  0  0
  7 12  1  0  0  0
  7 13  1  0  0  0
  7 23  1  0  0  0
  8 14  2  0  0  0
  8 15  1  0  0  0
  9 11  1  0  0  0
  9 24  1  0  0  0
  9 25  1  0  0  0
 10 12  1  0  0  0
 10 26  1  0  0  0
 10 27  1  0  0  0
 11 28  1  0  0  0
 11 29  1  0  0  0
 12 30  1  0  0  0
 12 31  1  0  0  0
 13 18  1  0  0  0
 13 32  1  0  0  0
 14 16  1  0  0  0
 14 33  1  0  0  0
 15 17  2  0  0  0
 15 34  1  0  0  0
 16 35  1  0  0  0
 17 36  1  0  0  0
 18 37  1  0  0  0
 18 38  1  0  0  0
 18 39  1  0  0  0
M  END
> <s_m_entry_id>
47780

> <s_m_entry_name>
dock_pv.313

> <s_m_Source_Path>
/home/csk/Desktop/cluster/DUD-E-result/fak1

> <s_m_Source_File>
dock_pv.maegz

> <i_m_Source_File_Index>
313

> <chembl_id>
CHEMBL1994526

> <chembl_pref_name>
None

> <i_lp_mmshare_version>
53161

> <i_f3d_flags>
0

> <r_lp_tautomer_probability>
1

> <s_lp_Force_Field>
OPLS_2005

> <r_lp_Energy>
21.316055

> <b_lp_Chiralities_Consistent>
1

> <s_lp_Variant>
CHEMBL2695_lig2167-4

> <s_i_glide_gridfile>
glide-grid_3bz3

> <i_i_glide_lignum>
2633

> <i_i_glide_rotatable_bonds>
4

> <r_i_docking_score>
-6.909468702241

> <r_i_glide_ligand_efficiency>
-0.383859372346722

> <r_i_glide_ligand_efficiency_sa>
-1.00599614569487

> <r_i_glide_ligand_efficiency_ln>
-1.77604330183024

> <r_i_glide_gscore>
-6.909468702241

> <r_i_glide_lipo>
-2.36264505011124

> <r_i_glide_hbond>
-0.499433712335738

> <r_i_glide_metal>
0

> <r_i_glide_rewards>
-2.71290361106471

> <r_i_glide_evdw>
-24.1741466522217

> <r_i_glide_ecoul>
-6.54225492477417

> <r_i_glide_erotb>
0.855559242597892

> <r_i_glide_esite>
0

> <r_i_glide_emodel>
-42.3110213090049

> <r_i_glide_energy>
-30.7164015769958

> <r_i_glide_einternal>
1.99410176277161

> <i_i_glide_confnum>
2

> <i_i_glide_posenum>
323

> <r_i_glide_eff_state_penalty>
0

> <s_user_duplicate_titles>
CHEMBL2695_lig2167

> <s_m_subgroup_title>
dock_pv

> <s_m_subgroupid>
dock_pv

> <b_m_subgroup_collapsed>
1

$$$$
CHEMBL2695_lig2187
                    3D
 Schrodinger Suite 2021-1.
 50 53  0  0  1  0            999 V2000
    8.7161    3.6085    5.1649 S   0  0  0  0  0  0
   11.7085    3.0919    5.9090 N   0  0  0  0  0  0
    7.4465    4.2050    7.3135 N   0  0  0  0  0  0
   13.7101    2.0228    5.1751 N   0  0  0  0  0  0
   13.8799    3.9405    6.5055 N   0  0  0  0  0  0
   12.4269   -1.4960    0.9935 N   0  0  0  0  0  0
    6.0563    3.5785    5.4751 N   0  0  0  0  0  0
   11.0786   -4.1151    1.0509 N   0  0  0  0  0  0
    9.6309    4.1052    6.5740 C   0  0  0  0  0  0
   11.1222    4.1458    6.5345 C   0  0  0  0  0  0
    8.7236    4.3629    7.6132 C   0  0  0  0  0  0
    7.2640    3.8180    6.0768 C   0  0  0  0  0  0
   13.0636    3.0316    5.9073 C   0  0  0  0  0  0
   11.8850    5.1630    7.1220 C   0  0  0  0  0  0
   13.3113    1.1630    4.1333 C   0  0  0  0  0  0
   12.6967   -0.6029    2.0293 C   0  0  0  0  0  0
   13.2752    5.0045    7.1028 C   0  0  0  0  0  0
    8.9995    4.7784    9.0438 C   0  0  0  0  0  0
   11.9857    0.7630    3.9088 C   0  0  0  0  0  0
   14.3206    0.6779    3.3009 C   0  0  0  0  0  0
   11.6863   -0.1105    2.8677 C   0  0  0  0  0  0
   14.0158   -0.1969    2.2631 C   0  0  0  0  0  0
   13.1564   -2.7775    0.9267 C   0  0  0  0  0  0
   11.0656   -1.7093    0.4621 C   0  0  0  0  0  0
   12.4005   -3.9247    1.6398 C   0  0  0  0  0  0
   10.3206   -2.8722    1.1641 C   0  0  0  0  0  0
    4.7633    3.6841    6.1335 C   0  0  0  0  0  0
   14.7095    2.0226    5.3139 H   0  0  0  0  0  0
    6.0375    2.9195    4.7091 H   0  0  0  0  0  0
   10.5905   -4.8637    1.5222 H   0  0  0  0  0  0
   11.4236    6.0144    7.5984 H   0  0  0  0  0  0
   13.9279    5.7360    7.5597 H   0  0  0  0  0  0
    8.8809    3.9389    9.7293 H   0  0  0  0  0  0
   10.0067    5.1630    9.1862 H   0  0  0  0  0  0
    8.3220    5.5629    9.3813 H   0  0  0  0  0  0
   11.1792    1.1017    4.5391 H   0  0  0  0  0  0
   15.3505    0.9595    3.4684 H   0  0  0  0  0  0
   10.6559   -0.4025    2.7321 H   0  0  0  0  0  0
   14.8191   -0.5620    1.6408 H   0  0  0  0  0  0
   13.3139   -3.0459   -0.1182 H   0  0  0  0  0  0
   14.1490   -2.6897    1.3692 H   0  0  0  0  0  0
   10.4791   -0.7924    0.5342 H   0  0  0  0  0  0
   11.1307   -1.9288   -0.6041 H   0  0  0  0  0  0
   12.3075   -3.7250    2.7088 H   0  0  0  0  0  0
   12.9577   -4.8590    1.5639 H   0  0  0  0  0  0
   10.1371   -2.6451    2.2157 H   0  0  0  0  0  0
    9.3349   -3.0197    0.7214 H   0  0  0  0  0  0
    3.9588    3.6447    5.3985 H   0  0  0  0  0  0
    4.6801    4.6195    6.6888 H   0  0  0  0  0  0
    4.6249    2.8562    6.8301 H   0  0  0  0  0  0
  1  9  1  0  0  0
  1 12  1  0  0  0
  2 10  1  0  0  0
  2 13  2  0  0  0
  3 11  1  0  0  0
  3 12  2  0  0  0
  4 13  1  0  0  0
  4 15  1  0  0  0
  4 28  1  0  0  0
  5 13  1  0  0  0
  5 17  2  0  0  0
  6 16  1  0  0  0
  6 23  1  0  0  0
  6 24  1  0  0  0
  7 12  1  0  0  0
  7 27  1  0  0  0
  7 29  1  0  0  0
  8 25  1  0  0  0
  8 26  1  0  0  0
  8 30  1  0  0  0
  9 10  1  0  0  0
  9 11  2  0  0  0
 10 14  2  0  0  0
 11 18  1  0  0  0
 14 17  1  0  0  0
 14 31  1  0  0  0
 15 19  2  0  0  0
 15 20  1  0  0  0
 16 21  2  0  0  0
 16 22  1  0  0  0
 17 32  1  0  0  0
 18 33  1  0  0  0
 18 34  1  0  0  0
 18 35  1  0  0  0
 19 21  1  0  0  0
 19 36  1  0  0  0
 20 22  2  0  0  0
 20 37  1  0  0  0
 21 38  1  0  0  0
 22 39  1  0  0  0
 23 25  1  0  0  0
 23 40  1  0  0  0
 23 41  1  0  0  0
 24 26  1  0  0  0
 24 42  1  0  0  0
 24 43  1  0  0  0
 25 44  1  0  0  0
 25 45  1  0  0  0
 26 46  1  0  0  0
 26 47  1  0  0  0
 27 48  1  0  0  0
 27 49  1  0  0  0
 27 50  1  0  0  0
M  END
> <s_m_entry_id>
47781

> <s_m_entry_name>
dock_pv.314

> <s_m_Source_Path>
/home/csk/Desktop/cluster/DUD-E-result/fak1

> <s_m_Source_File>
dock_pv.maegz

> <i_m_Source_File_Index>
314

> <chembl_id>
CHEMBL1999484

> <chembl_pref_name>
None

> <i_lp_mmshare_version>
53161

> <i_f3d_flags>
0

> <r_lp_tautomer_probability>
0.999999987636

> <s_lp_Force_Field>
OPLS_2005

> <r_lp_Energy>
28.52283

> <b_lp_Chiralities_Consistent>
1

> <s_lp_Variant>
CHEMBL2695_lig2187-1

> <s_i_glide_gridfile>
glide-grid_3bz3

> <i_i_glide_lignum>
2657

> <i_i_glide_rotatable_bonds>
5

> <r_i_docking_score>
-6.89811490320831

> <r_i_glide_ligand_efficiency>
-0.255485737155863

> <r_i_glide_ligand_efficiency_sa>
-0.766457210625551

> <r_i_glide_ligand_efficiency_ln>
-1.60576742515468

> <r_i_glide_gscore>
-6.89811490320831

> <r_i_glide_lipo>
-2.8228635481651

> <r_i_glide_hbond>
-0.16981361198464

> <r_i_glide_metal>
0

> <r_i_glide_rewards>
-2.08964677164918

> <r_i_glide_evdw>
-37.6832542419434

> <r_i_glide_ecoul>
-2.91862416267395

> <r_i_glide_erotb>
0.533503962674976

> <r_i_glide_esite>
-0.027338597586103

> <r_i_glide_emodel>
-53.5818335668198

> <r_i_glide_energy>
-40.6018784046173

> <r_i_glide_einternal>
6.21219825744629

> <i_i_glide_confnum>
29

> <i_i_glide_posenum>
341

> <r_i_glide_eff_state_penalty>
0

> <s_user_duplicate_titles>
CHEMBL2695_lig2187

> <s_m_subgroup_title>
dock_pv

> <s_m_subgroupid>
dock_pv

> <b_m_subgroup_collapsed>
1

$$$$
CHEMBL2695_lig1905
                    3D
 Schrodinger Suite 2021-1.
 40 42  0  0  1  0            999 V2000
    3.1610    1.9587    9.9079 O   0  0  0  0  0  0
    9.4075    5.1630    8.6716 N   0  0  0  0  0  0
   12.2292    5.1308    6.6013 N   0  0  0  0  0  0
   11.5118    6.2956    9.1090 N   0  0  0  0  0  0
    8.8847    4.3424    7.6879 C   0  0  0  0  0  0
    9.8235    4.2949    6.6305 C   0  0  0  0  0  0
   10.9939    4.9859    7.1088 C   0  0  0  0  0  0
   10.6788    5.5632    8.3606 C   0  0  0  0  0  0
    7.5364    3.6896    7.9031 C   0  0  0  0  0  0
    5.0039    2.5040    8.3500 C   0  0  0  0  0  0
    7.0001    2.7727    6.9920 C   0  0  0  0  0  0
    6.7933    3.9723    9.0598 C   0  0  0  0  0  0
    9.7371    3.6315    5.2664 C   0  0  0  0  0  0
    3.6046    1.8891    8.5603 C   0  0  0  0  0  0
    5.7523    2.1937    7.2071 C   0  0  0  0  0  0
    5.5432    3.4036    9.2758 C   0  0  0  0  0  0
   13.1219    5.8073    7.3798 C   0  0  0  0  0  0
   12.7634    6.3954    8.5927 C   0  0  0  0  0  0
   10.2516    2.1846    5.2838 C   0  0  0  0  0  0
    3.5496    0.3900    8.1926 C   0  0  0  0  0  0
    2.5592    2.6789    7.7499 C   0  0  0  0  0  0
    3.9234    1.8587   10.4888 H   0  0  0  0  0  0
    8.8944    5.3742    9.5131 H   0  0  0  0  0  0
    7.5306    2.4771    6.1050 H   0  0  0  0  0  0
    7.1555    4.6640    9.8045 H   0  0  0  0  0  0
    8.7264    3.6701    4.8629 H   0  0  0  0  0  0
   10.3220    4.2010    4.5436 H   0  0  0  0  0  0
    5.3793    1.5010    6.4664 H   0  0  0  0  0  0
    4.9952    3.6845   10.1646 H   0  0  0  0  0  0
   14.1390    5.8791    7.0250 H   0  0  0  0  0  0
   13.4903    6.9416    9.1770 H   0  0  0  0  0  0
   10.1748    1.7334    4.2937 H   0  0  0  0  0  0
   11.2975    2.1423    5.5894 H   0  0  0  0  0  0
    9.6823    1.5631    5.9756 H   0  0  0  0  0  0
    3.6926    0.2277    7.1242 H   0  0  0  0  0  0
    2.5809   -0.0459    8.4388 H   0  0  0  0  0  0
    4.3215   -0.1806    8.7093 H   0  0  0  0  0  0
    2.7921    2.6700    6.6843 H   0  0  0  0  0  0
    1.5580    2.2618    7.8659 H   0  0  0  0  0  0
    2.5153    3.7226    8.0660 H   0  0  0  0  0  0
  1 14  1  0  0  0
  1 22  1  0  0  0
  2  5  1  0  0  0
  2  8  1  0  0  0
  2 23  1  0  0  0
  3  7  2  0  0  0
  3 17  1  0  0  0
  4  8  2  0  0  0
  4 18  1  0  0  0
  5  6  2  0  0  0
  5  9  1  0  0  0
  6  7  1  0  0  0
  6 13  1  0  0  0
  7  8  1  0  0  0
  9 11  2  0  0  0
  9 12  1  0  0  0
 10 14  1  0  0  0
 10 15  2  0  0  0
 10 16  1  0  0  0
 11 15  1  0  0  0
 11 24  1  0  0  0
 12 16  2  0  0  0
 12 25  1  0  0  0
 13 19  1  0  0  0
 13 26  1  0  0  0
 13 27  1  0  0  0
 14 20  1  0  0  0
 14 21  1  0  0  0
 15 28  1  0  0  0
 16 29  1  0  0  0
 17 18  2  0  0  0
 17 30  1  0  0  0
 18 31  1  0  0  0
 19 32  1  0  0  0
 19 33  1  0  0  0
 19 34  1  0  0  0
 20 35  1  0  0  0
 20 36  1  0  0  0
 20 37  1  0  0  0
 21 38  1  0  0  0
 21 39  1  0  0  0
 21 40  1  0  0  0
M  END
> <s_m_entry_id>
47782

> <s_m_entry_name>
dock_pv.315

> <s_m_Source_Path>
/home/csk/Desktop/cluster/DUD-E-result/fak1

> <s_m_Source_File>
dock_pv.maegz

> <i_m_Source_File_Index>
315

> <chembl_id>
CHEMBL1976420

> <chembl_pref_name>
None

> <i_lp_mmshare_version>
53161

> <i_f3d_flags>
0

> <r_lp_tautomer_probability>
0.999999572927183

> <s_lp_Force_Field>
OPLS_2005

> <r_lp_Energy>
13.796034

> <b_lp_Chiralities_Consistent>
1

> <s_lp_Variant>
CHEMBL2695_lig1905-1

> <s_i_glide_gridfile>
glide-grid_3bz3

> <i_i_glide_lignum>
2218

> <i_i_glide_rotatable_bonds>
4

> <r_i_docking_score>
-6.894481219667

> <r_i_glide_ligand_efficiency>
-0.328308629507952

> <r_i_glide_ligand_efficiency_sa>
-0.905778614344821

> <r_i_glide_ligand_efficiency_ln>
-1.70464654995158

> <r_i_glide_gscore>
-6.894481219667

> <r_i_glide_lipo>
-2.30057261561649

> <r_i_glide_hbond>
-0.274001157311969

> <r_i_glide_metal>
0

> <r_i_glide_rewards>
-2.53718299252123

> <r_i_glide_evdw>
-30.8990345001221

> <r_i_glide_ecoul>
-4.62973642349243

> <r_i_glide_erotb>
0.45668773431265

> <r_i_glide_esite>
0

> <r_i_glide_emodel>
-48.7575774161993

> <r_i_glide_energy>
-35.5287709236145

> <r_i_glide_einternal>
1.84949564933777

> <i_i_glide_confnum>
5

> <i_i_glide_posenum>
387

> <r_i_glide_eff_state_penalty>
0

> <s_user_duplicate_titles>
CHEMBL2695_lig1905

> <s_m_subgroup_title>
dock_pv

> <s_m_subgroupid>
dock_pv

> <b_m_subgroup_collapsed>
1

$$$$
CHEMBL2695_lig574
                    3D
 Schrodinger Suite 2021-1.
 44 47  0  0  1  0            999 V2000
    4.0960    5.0927    6.5779 C   0  0  0  0  0  0
    4.8604    3.4295    6.1601 S   0  0  0  0  0  0
    4.6096    3.1632    4.7392 O   0  0  0  0  0  0
    4.4550    2.4716    7.1936 O   0  0  0  0  0  0
    6.6161    3.7162    6.3644 C   0  0  0  0  0  0
    7.4741    3.6147    5.2700 C   0  0  0  0  0  0
    8.8281    3.8968    5.4162 C   0  0  0  0  0  0
    9.3405    4.2739    6.6607 C   0  0  0  0  0  0
    8.4773    4.3320    7.7633 C   0  0  0  0  0  0
    7.1208    4.0496    7.6194 C   0  0  0  0  0  0
   10.7830    4.5996    6.8177 C   0  0  0  0  0  0
   11.1906    5.7235    7.5528 C   0  0  0  0  0  0
   12.5338    6.0145    7.7943 C   0  0  0  0  0  0
   13.5220    5.1662    7.3061 C   0  0  0  0  0  0
   13.1332    4.0801    6.5776 N   0  0  0  0  0  0
   13.9287    3.1066    6.1111 N   0  0  0  0  0  0
   13.0765    2.3090    5.5079 C   0  0  0  0  0  0
   13.5212    1.3423    4.6428 N   0  0  0  0  0  0
   12.9306    1.1630    3.3132 C   0  0  0  0  0  0
   13.0087   -0.2251    2.7089 C   0  0  0  0  0  0
   11.8358   -0.8767    2.3083 C   0  0  0  0  0  0
   11.9388   -2.1266    1.6956 C   0  0  0  0  0  0
   13.2003   -2.6855    1.4906 C   0  0  0  0  0  0
   14.3219   -1.9613    1.8986 C   0  0  0  0  0  0
   14.2471   -0.7400    2.4899 N   0  0  0  0  0  0
   11.7884    2.5817    5.6385 N   0  0  0  0  0  0
   11.7998    3.7584    6.3090 C   0  0  0  0  0  0
    3.0192    5.0178    6.4361 H   0  0  0  0  0  0
    4.3201    5.3349    7.6136 H   0  0  0  0  0  0
    4.5095    5.8434    5.9090 H   0  0  0  0  0  0
    7.0973    3.3105    4.3090 H   0  0  0  0  0  0
    9.4785    3.8224    4.5565 H   0  0  0  0  0  0
    8.8557    4.5987    8.7382 H   0  0  0  0  0  0
    6.4645    4.1036    8.4763 H   0  0  0  0  0  0
   10.4370    6.3630    7.9785 H   0  0  0  0  0  0
   12.8040    6.8826    8.3789 H   0  0  0  0  0  0
   14.5808    5.2962    7.4786 H   0  0  0  0  0  0
   14.4906    1.0576    4.6920 H   0  0  0  0  0  0
   13.3950    1.8635    2.6187 H   0  0  0  0  0  0
   11.8759    1.4351    3.3638 H   0  0  0  0  0  0
   10.8640   -0.4308    2.4684 H   0  0  0  0  0  0
   11.0484   -2.6568    1.3909 H   0  0  0  0  0  0
   13.3052   -3.6593    1.0348 H   0  0  0  0  0  0
   15.3141   -2.3666    1.7632 H   0  0  0  0  0  0
  1  2  1  0  0  0
  1 28  1  0  0  0
  1 29  1  0  0  0
  1 30  1  0  0  0
  2  3  2  0  0  0
  2  4  2  0  0  0
  2  5  1  0  0  0
  5  6  2  0  0  0
  5 10  1  0  0  0
  6  7  1  0  0  0
  6 31  1  0  0  0
  7  8  2  0  0  0
  7 32  1  0  0  0
  8  9  1  0  0  0
  8 11  1  0  0  0
  9 10  2  0  0  0
  9 33  1  0  0  0
 10 34  1  0  0  0
 11 12  2  0  0  0
 11 27  1  0  0  0
 12 13  1  0  0  0
 12 35  1  0  0  0
 13 14  2  0  0  0
 13 36  1  0  0  0
 14 15  1  0  0  0
 14 37  1  0  0  0
 15 16  1  0  0  0
 15 27  1  0  0  0
 16 17  2  0  0  0
 17 18  1  0  0  0
 17 26  1  0  0  0
 18 19  1  0  0  0
 18 38  1  0  0  0
 19 20  1  0  0  0
 19 39  1  0  0  0
 19 40  1  0  0  0
 20 21  2  0  0  0
 20 25  1  0  0  0
 21 22  1  0  0  0
 21 41  1  0  0  0
 22 23  2  0  0  0
 22 42  1  0  0  0
 23 24  1  0  0  0
 23 43  1  0  0  0
 24 25  2  0  0  0
 24 44  1  0  0  0
 26 27  2  0  0  0
M  END
> <s_m_entry_id>
47783

> <s_m_entry_name>
dock_pv.316

> <s_m_Source_Path>
/home/csk/Desktop/cluster/DUD-E-result/fak1

> <s_m_Source_File>
dock_pv.maegz

> <i_m_Source_File_Index>
316

> <chembl_id>
CHEMBL3645116

> <chembl_pref_name>
None

> <i_lp_mmshare_version>
53161

> <i_f3d_flags>
0

> <r_lp_tautomer_probability>
1

> <s_lp_Force_Field>
OPLS_2005

> <r_lp_Energy>
9.819647

> <b_lp_Chiralities_Consistent>
1

> <s_lp_Variant>
CHEMBL2695_lig574-1

> <s_i_glide_gridfile>
glide-grid_3bz3

> <i_i_glide_lignum>
628

> <i_i_glide_rotatable_bonds>
5

> <r_i_docking_score>
-6.89175543217138

> <r_i_glide_ligand_efficiency>
-0.255250201191532

> <r_i_glide_ligand_efficiency_sa>
-0.765750602733335

> <r_i_glide_ligand_efficiency_ln>
-1.60428704514135

> <r_i_glide_gscore>
-6.89175543217138

> <r_i_glide_lipo>
-2.66087686389181

> <r_i_glide_hbond>
-0.399916715176616

> <r_i_glide_metal>
0

> <r_i_glide_rewards>
-1.81589880694165

> <r_i_glide_evdw>
-35.8397598266602

> <r_i_glide_ecoul>
-5.06068658828735

> <r_i_glide_erotb>
0.53871083654438

> <r_i_glide_esite>
-0.00268290312956888

> <r_i_glide_emodel>
-55.0156710210665

> <r_i_glide_energy>
-40.9004464149475

> <r_i_glide_einternal>
6.9178204536438

> <i_i_glide_confnum>
4

> <i_i_glide_posenum>
79

> <r_i_glide_eff_state_penalty>
0

> <s_user_duplicate_titles>
CHEMBL2695_lig574

> <s_m_subgroup_title>
dock_pv

> <s_m_subgroupid>
dock_pv

> <b_m_subgroup_collapsed>
1

$$$$
CHEMBL2695_lig1744
                    3D
 Schrodinger Suite 2021-1.
 38 41  0  0  1  0            999 V2000
   13.9220    2.1332    4.8441 O   0  0  0  0  0  0
   13.1220    1.0708    6.6850 O   0  0  0  0  0  0
    9.7617    4.7630    6.1741 N   0  0  0  0  0  0
   10.6697    2.6159    5.5482 C   0  0  0  0  0  0
    9.6097    3.4967    5.7176 C   0  0  0  0  0  0
   11.9615    3.0102    5.9090 C   0  0  0  0  0  0
   12.1453    4.3050    6.4953 C   0  0  0  0  0  0
    8.3200    2.8525    5.3735 C   0  0  0  0  0  0
   11.0025    5.1609    6.5699 C   0  0  0  0  0  0
   10.1965    1.3455    4.9052 C   0  0  0  0  0  0
    8.6799    1.4317    4.9834 C   0  0  0  0  0  0
    7.0737    3.3651    5.4393 C   0  0  0  0  0  0
   13.1019    2.0491    5.7491 C   0  0  0  0  0  0
   13.3694    4.7632    7.0673 C   0  0  0  0  0  0
   11.1470    6.4571    7.1090 C   0  0  0  0  0  0
    5.7850    2.6106    5.1098 C   0  0  0  0  0  0
    6.6421    4.7630    5.8755 C   0  0  0  0  0  0
   13.4251    6.0003    7.7020 C   0  0  0  0  0  0
   12.3378    6.8576    7.6935 C   0  0  0  0  0  0
    4.7109    3.6832    4.9787 C   0  0  0  0  0  0
    5.1220    4.7137    6.0040 C   0  0  0  0  0  0
   13.8762    0.5000    6.5130 H   0  0  0  0  0  0
   10.5124    1.3000    3.8621 H   0  0  0  0  0  0
   10.5597    0.4458    5.4039 H   0  0  0  0  0  0
    8.3220    0.7630    5.7659 H   0  0  0  0  0  0
    8.1989    1.0940    4.0649 H   0  0  0  0  0  0
   14.2449    4.1322    7.0629 H   0  0  0  0  0  0
   10.3220    7.1376    7.0878 H   0  0  0  0  0  0
    5.8494    1.9832    4.2195 H   0  0  0  0  0  0
    5.5338    1.9380    5.9319 H   0  0  0  0  0  0
    7.0985    5.0881    6.8095 H   0  0  0  0  0  0
    6.9220    5.4862    5.1091 H   0  0  0  0  0  0
   14.3220    6.3259    8.1931 H   0  0  0  0  0  0
   12.4190    7.8352    8.1467 H   0  0  0  0  0  0
    4.7220    4.1162    3.9781 H   0  0  0  0  0  0
    3.7078    3.2946    5.1588 H   0  0  0  0  0  0
    4.8338    4.3898    7.0061 H   0  0  0  0  0  0
    4.6564    5.6841    5.8251 H   0  0  0  0  0  0
  1 13  2  0  0  0
  2 13  1  0  0  0
  2 22  1  0  0  0
  3  5  2  0  0  0
  3  9  1  0  0  0
  4  5  1  0  0  0
  4  6  2  0  0  0
  4 10  1  0  0  0
  5  8  1  0  0  0
  6  7  1  0  0  0
  6 13  1  0  0  0
  7  9  1  0  0  0
  7 14  2  0  0  0
  8 11  1  0  0  0
  8 12  2  0  0  0
  9 15  2  0  0  0
 10 11  1  0  0  0
 10 23  1  0  0  0
 10 24  1  0  0  0
 11 25  1  0  0  0
 11 26  1  0  0  0
 12 16  1  0  0  0
 12 17  1  0  0  0
 14 18  1  0  0  0
 14 27  1  0  0  0
 15 19  1  0  0  0
 15 28  1  0  0  0
 16 20  1  0  0  0
 16 29  1  0  0  0
 16 30  1  0  0  0
 17 21  1  0  0  0
 17 31  1  0  0  0
 17 32  1  0  0  0
 18 19  2  0  0  0
 18 33  1  0  0  0
 19 34  1  0  0  0
 20 21  1  0  0  0
 20 35  1  0  0  0
 20 36  1  0  0  0
 21 37  1  0  0  0
 21 38  1  0  0  0
M  END
> <s_m_entry_id>
47784

> <s_m_entry_name>
dock_pv.317

> <s_m_Source_Path>
/home/csk/Desktop/cluster/DUD-E-result/fak1

> <s_m_Source_File>
dock_pv.maegz

> <i_m_Source_File_Index>
317

> <chembl_id>
CHEMBL1996831

> <chembl_pref_name>
None

> <i_lp_mmshare_version>
53161

> <i_f3d_flags>
0

> <r_lp_tautomer_probability>
1

> <s_lp_Force_Field>
OPLS_2005

> <r_lp_Energy>
44.925929

> <b_lp_Chiralities_Consistent>
1

> <s_lp_Variant>
CHEMBL2695_lig1744-1

> <s_i_glide_gridfile>
glide-grid_3bz3

> <i_i_glide_lignum>
1980

> <i_i_glide_rotatable_bonds>
2

> <r_i_docking_score>
-6.89141207404026

> <r_i_glide_ligand_efficiency>
-0.328162479716203

> <r_i_glide_ligand_efficiency_sa>
-0.905375398151399

> <r_i_glide_ligand_efficiency_ln>
-1.70388770989716

> <r_i_glide_gscore>
-6.89141207404026

> <r_i_glide_lipo>
-3.13399090214682

> <r_i_glide_hbond>
0

> <r_i_glide_metal>
0

> <r_i_glide_rewards>
-2.12954718181818

> <r_i_glide_evdw>
-30.0839881896973

> <r_i_glide_ecoul>
-2.3659553527832

> <r_i_glide_erotb>
0.231218722327089

> <r_i_glide_esite>
0

> <r_i_glide_emodel>
-43.0055014893606

> <r_i_glide_energy>
-32.4499435424805

> <r_i_glide_einternal>
1.11863136291504

> <i_i_glide_confnum>
6

> <i_i_glide_posenum>
14

> <r_i_glide_eff_state_penalty>
0

> <s_user_duplicate_titles>
CHEMBL2695_lig1744

> <s_m_subgroup_title>
dock_pv

> <s_m_subgroupid>
dock_pv

> <b_m_subgroup_collapsed>
1

$$$$
CHEMBL2695_lig1627
                    3D
 Schrodinger Suite 2021-1.
 40 43  0  0  1  0            999 V2000
    0.0245    2.3980    9.3216 Cl  0  0  0  0  0  0
    7.1976    2.4187    5.8977 N   0  0  0  0  0  0
    8.2670    3.1901    5.6840 N   0  0  0  0  0  0
    5.4570    1.5630    7.1358 N   0  0  0  0  0  0
   13.9224    3.1615    6.3089 N   0  0  0  0  0  0
    7.0673    3.1492    8.2277 C   0  0  0  0  0  0
    8.2162    3.9738    8.0048 C   0  0  0  0  0  0
    6.5828    2.4010    7.1044 C   0  0  0  0  0  0
    8.7657    3.9512    6.6894 C   0  0  0  0  0  0
    6.4845    3.1304    9.5272 C   0  0  0  0  0  0
    8.7210    4.7628    9.0773 C   0  0  0  0  0  0
    9.9332    4.8530    6.2859 C   0  0  0  0  0  0
    4.1648    1.7997    7.6295 C   0  0  0  0  0  0
   11.3253    4.2319    6.3082 C   0  0  0  0  0  0
    6.9699    3.9559   10.5352 C   0  0  0  0  0  0
    8.0737    4.7626   10.3094 C   0  0  0  0  0  0
    3.3119    0.7072    7.7936 C   0  0  0  0  0  0
    3.7154    3.0875    7.9498 C   0  0  0  0  0  0
   11.5524    2.9067    5.9090 C   0  0  0  0  0  0
   12.4171    5.0083    6.7128 C   0  0  0  0  0  0
    1.6030    2.1730    8.6589 C   0  0  0  0  0  0
    2.0306    0.8925    8.3087 C   0  0  0  0  0  0
    2.4398    3.2728    8.4763 C   0  0  0  0  0  0
   12.8607    2.4173    5.9089 C   0  0  0  0  0  0
   13.6895    4.4358    6.7088 C   0  0  0  0  0  0
    5.5603    0.7237    6.5703 H   0  0  0  0  0  0
    5.6450    2.4840    9.7373 H   0  0  0  0  0  0
    9.5880    5.3873    8.9349 H   0  0  0  0  0  0
    9.9226    5.7882    6.8432 H   0  0  0  0  0  0
    9.7604    5.1609    5.2567 H   0  0  0  0  0  0
    6.4881    3.9633   11.5037 H   0  0  0  0  0  0
    8.4167    5.4001   11.1087 H   0  0  0  0  0  0
    3.6465   -0.2878    7.5333 H   0  0  0  0  0  0
    4.3531    3.9473    7.8062 H   0  0  0  0  0  0
   10.7428    2.2706    5.5841 H   0  0  0  0  0  0
   12.2869    6.0334    7.0276 H   0  0  0  0  0  0
    1.3744    0.0444    8.4418 H   0  0  0  0  0  0
    2.1073    4.2664    8.7416 H   0  0  0  0  0  0
   13.0726    1.4046    5.5973 H   0  0  0  0  0  0
   14.5484    5.0085    7.0312 H   0  0  0  0  0  0
  1 21  1  0  0  0
  2  3  2  0  0  0
  2  8  1  0  0  0
  3  9  1  0  0  0
  4  8  1  0  0  0
  4 13  1  0  0  0
  4 26  1  0  0  0
  5 24  2  0  0  0
  5 25  1  0  0  0
  6  7  1  0  0  0
  6  8  2  0  0  0
  6 10  1  0  0  0
  7  9  2  0  0  0
  7 11  1  0  0  0
  9 12  1  0  0  0
 10 15  2  0  0  0
 10 27  1  0  0  0
 11 16  2  0  0  0
 11 28  1  0  0  0
 12 14  1  0  0  0
 12 29  1  0  0  0
 12 30  1  0  0  0
 13 17  2  0  0  0
 13 18  1  0  0  0
 14 19  2  0  0  0
 14 20  1  0  0  0
 15 16  1  0  0  0
 15 31  1  0  0  0
 16 32  1  0  0  0
 17 22  1  0  0  0
 17 33  1  0  0  0
 18 23  2  0  0  0
 18 34  1  0  0  0
 19 24  1  0  0  0
 19 35  1  0  0  0
 20 25  2  0  0  0
 20 36  1  0  0  0
 21 22  2  0  0  0
 21 23  1  0  0  0
 22 37  1  0  0  0
 23 38  1  0  0  0
 24 39  1  0  0  0
 25 40  1  0  0  0
M  END
> <s_m_entry_id>
47785

> <s_m_entry_name>
dock_pv.318

> <s_m_Source_Path>
/home/csk/Desktop/cluster/DUD-E-result/fak1

> <s_m_Source_File>
dock_pv.maegz

> <i_m_Source_File_Index>
318

> <chembl_id>
CHEMBL101253

> <chembl_pref_name>
VATALANIB

> <i_lp_mmshare_version>
53161

> <i_f3d_flags>
0

> <r_lp_tautomer_probability>
1

> <s_lp_Force_Field>
OPLS_2005

> <r_lp_Energy>
27.36278

> <b_lp_Chiralities_Consistent>
1

> <s_lp_Variant>
CHEMBL2695_lig1627-1

> <s_i_glide_gridfile>
glide-grid_3bz3

> <i_i_glide_lignum>
1809

> <i_i_glide_rotatable_bonds>
4

> <r_i_docking_score>
-6.89101098038055

> <r_i_glide_ligand_efficiency>
-0.275640439215222

> <r_i_glide_ligand_efficiency_sa>
-0.805977532769314

> <r_i_glide_ligand_efficiency_ln>
-1.63337610928519

> <r_i_glide_gscore>
-6.89101098038055

> <r_i_glide_lipo>
-3.20940406208528

> <r_i_glide_hbond>
-0.268079308521973

> <r_i_glide_metal>
0

> <r_i_glide_rewards>
-1.59503151927606

> <r_i_glide_evdw>
-39.9510841369629

> <r_i_glide_ecoul>
-2.37523460388184

> <r_i_glide_erotb>
0.632420292485

> <r_i_glide_esite>
-0.0970769855518216

> <r_i_glide_emodel>
-52.1122899290954

> <r_i_glide_energy>
-42.3263187408447

> <r_i_glide_einternal>
13.26682472229

> <i_i_glide_confnum>
46

> <i_i_glide_posenum>
356

> <r_i_glide_eff_state_penalty>
0

> <s_user_duplicate_titles>
CHEMBL2695_lig1627

> <s_m_subgroup_title>
dock_pv

> <s_m_subgroupid>
dock_pv

> <b_m_subgroup_collapsed>
1

$$$$
CHEMBL2695_lig2109
                    3D
 Schrodinger Suite 2021-1.
 41 43  0  0  1  0            999 V2000
   11.1199    0.1432    4.3953 O   0  0  0  0  0  0
    8.0177    4.7622    9.3179 O   0  0  0  0  0  0
    7.5215    4.3193   11.5088 O   0  0  0  0  0  0
   12.3905    1.7947    5.3228 N   0  0  0  0  0  0
    7.2010    3.5013    5.2981 N   0  0  0  0  0  0
   10.1837    2.0705    5.5358 C   0  0  0  0  0  0
   10.8664    3.2468    6.0745 C   0  0  0  0  0  0
    7.7843    2.5090    6.0303 C   0  0  0  0  0  0
   12.2164    3.0276    5.9091 C   0  0  0  0  0  0
   11.2244    1.2044    5.0069 C   0  0  0  0  0  0
    7.1420    2.4658    7.2640 C   0  0  0  0  0  0
    8.8759    1.7348    5.4792 C   0  0  0  0  0  0
    6.1839    3.5084    7.2880 C   0  0  0  0  0  0
    6.2065    4.1022    6.0213 C   0  0  0  0  0  0
   10.4199    4.4309    6.6704 C   0  0  0  0  0  0
   13.1637    3.9711    6.3087 C   0  0  0  0  0  0
    5.2592    3.8986    8.4433 C   0  0  0  0  0  0
   11.3532    5.3901    7.0748 C   0  0  0  0  0  0
   12.7214    5.1621    6.8932 C   0  0  0  0  0  0
    7.3824    1.4452    8.3482 C   0  0  0  0  0  0
    5.3619    5.1904    5.3944 C   0  0  0  0  0  0
    5.8152    3.8391    9.9028 C   0  0  0  0  0  0
    7.2366    4.3627   10.1773 C   0  0  0  0  0  0
    6.7746    4.0306   12.0392 H   0  0  0  0  0  0
   13.2855    1.3921    5.0912 H   0  0  0  0  0  0
    7.4543    3.7375    4.3499 H   0  0  0  0  0  0
    8.5586    0.8098    5.0141 H   0  0  0  0  0  0
    9.3686    4.6214    6.8272 H   0  0  0  0  0  0
   14.2206    3.7971    6.1791 H   0  0  0  0  0  0
    4.3716    3.2665    8.4045 H   0  0  0  0  0  0
    4.8611    4.8995    8.2794 H   0  0  0  0  0  0
   11.0135    6.3067    7.5345 H   0  0  0  0  0  0
   13.4394    5.9038    7.2121 H   0  0  0  0  0  0
    7.9234    0.5733    8.0065 H   0  0  0  0  0  0
    7.9177    1.8479    9.2064 H   0  0  0  0  0  0
    6.4253    1.0771    8.7089 H   0  0  0  0  0  0
    4.5124    5.4677    6.0192 H   0  0  0  0  0  0
    5.9253    6.1021    5.2030 H   0  0  0  0  0  0
    4.9469    4.8693    4.4376 H   0  0  0  0  0  0
    5.8432    2.7940   10.2121 H   0  0  0  0  0  0
    5.1219    4.3473   10.5729 H   0  0  0  0  0  0
  1 10  2  0  0  0
  2 23  2  0  0  0
  3 23  1  0  0  0
  3 24  1  0  0  0
  4  9  1  0  0  0
  4 10  1  0  0  0
  4 25  1  0  0  0
  5  8  1  0  0  0
  5 14  1  0  0  0
  5 26  1  0  0  0
  6  7  1  0  0  0
  6 10  1  0  0  0
  6 12  2  3  0  0
  7  9  1  0  0  0
  7 15  2  0  0  0
  8 11  2  0  0  0
  8 12  1  0  0  0
  9 16  2  0  0  0
 11 13  1  0  0  0
 11 20  1  0  0  0
 12 27  1  0  0  0
 13 14  2  0  0  0
 13 17  1  0  0  0
 14 21  1  0  0  0
 15 18  1  0  0  0
 15 28  1  0  0  0
 16 19  1  0  0  0
 16 29  1  0  0  0
 17 22  1  0  0  0
 17 30  1  0  0  0
 17 31  1  0  0  0
 18 19  2  0  0  0
 18 32  1  0  0  0
 19 33  1  0  0  0
 20 34  1  0  0  0
 20 35  1  0  0  0
 20 36  1  0  0  0
 21 37  1  0  0  0
 21 38  1  0  0  0
 21 39  1  0  0  0
 22 23  1  0  0  0
 22 40  1  0  0  0
 22 41  1  0  0  0
M  END
> <s_m_entry_id>
47787

> <s_m_entry_name>
dock_pv.320

> <s_m_Source_Path>
/home/csk/Desktop/cluster/DUD-E-result/fak1

> <s_m_Source_File>
dock_pv.maegz

> <i_m_Source_File_Index>
320

> <chembl_id>
CHEMBL2007064

> <chembl_pref_name>
None

> <i_lp_mmshare_version>
53161

> <i_f3d_flags>
0

> <r_lp_tautomer_probability>
1

> <s_lp_Force_Field>
OPLS_2005

> <r_lp_Energy>
28.688211

> <b_lp_Chiralities_Consistent>
1

> <s_lp_Variant>
CHEMBL2695_lig2109-2

> <s_i_glide_gridfile>
glide-grid_3bz3

> <i_i_glide_lignum>
2543

> <i_i_glide_rotatable_bonds>
5

> <r_i_docking_score>
-6.88834947964636

> <r_i_glide_ligand_efficiency>
-0.299493455636798

> <r_i_glide_ligand_efficiency_sa>
-0.851719548276943

> <r_i_glide_ligand_efficiency_ln>
-1.66566536427828

> <r_i_glide_gscore>
-6.88834947964636

> <r_i_glide_lipo>
-2.65537740788203

> <r_i_glide_hbond>
0

> <r_i_glide_metal>
0

> <r_i_glide_rewards>
-2.14426892678311

> <r_i_glide_evdw>
-38.5715827941895

> <r_i_glide_ecoul>
-6.19771003723145

> <r_i_glide_erotb>
0.769532500312959

> <r_i_glide_esite>
0

> <r_i_glide_emodel>
-56.169374889784

> <r_i_glide_energy>
-44.7692928314209

> <r_i_glide_einternal>
10.6767129898071

> <i_i_glide_confnum>
57

> <i_i_glide_posenum>
330

> <r_i_glide_eff_state_penalty>
0

> <s_user_duplicate_titles>
CHEMBL2695_lig2109

> <s_m_subgroup_title>
dock_pv

> <s_m_subgroupid>
dock_pv

> <b_m_subgroup_collapsed>
1

$$$$
CHEMBL2695_lig1549
                    3D
 Schrodinger Suite 2021-1.
 34 36  0  0  1  0            999 V2000
    4.4200    5.3538    7.1085 Cl  0  0  0  0  0  0
    5.2582    3.9587    9.8896 Cl  0  0  0  0  0  0
   11.1464    1.0915    5.1101 O   0  0  0  0  0  0
   13.9141    6.2616    8.1190 N   0  0  0  0  0  0
   10.1954    3.1343    5.5106 N   0  0  0  0  0  0
   13.1090    7.1618    8.7066 N   0  0  0  0  0  0
    8.9730    1.4053    4.7091 N   0  0  0  0  0  0
   11.8514    5.7366    7.4842 C   0  0  0  0  0  0
   13.2081    5.3643    7.3451 C   0  0  0  0  0  0
   11.2418    3.8819    6.0715 C   0  0  0  0  0  0
   10.8615    4.9957    6.8260 C   0  0  0  0  0  0
   13.6082    4.2909    6.5453 C   0  0  0  0  0  0
   11.8885    6.8706    8.3469 C   0  0  0  0  0  0
   12.5989    3.5603    5.9152 C   0  0  0  0  0  0
    7.0870    2.5869    5.9772 C   0  0  0  0  0  0
    5.5762    4.0670    7.1724 C   0  0  0  0  0  0
   10.1785    1.8467    5.1102 C   0  0  0  0  0  0
    5.9285    3.4503    8.3817 C   0  0  0  0  0  0
    6.1627    3.6353    5.9816 C   0  0  0  0  0  0
    7.4278    1.9777    7.1895 C   0  0  0  0  0  0
    7.7019    2.1420    4.6513 C   0  0  0  0  0  0
    6.8496    2.4030    8.3841 C   0  0  0  0  0  0
   14.9260    6.3279    8.2235 H   0  0  0  0  0  0
    9.2966    3.5877    5.5197 H   0  0  0  0  0  0
    8.9252    0.4416    4.4155 H   0  0  0  0  0  0
    9.8206    5.2596    6.9421 H   0  0  0  0  0  0
   14.6457    4.0183    6.4310 H   0  0  0  0  0  0
   11.0614    7.4665    8.7003 H   0  0  0  0  0  0
   12.8986    2.7125    5.3161 H   0  0  0  0  0  0
    5.8856    4.1149    5.0556 H   0  0  0  0  0  0
    8.1343    1.1628    7.2105 H   0  0  0  0  0  0
    6.9724    1.5088    4.1456 H   0  0  0  0  0  0
    7.8437    3.0078    4.0017 H   0  0  0  0  0  0
    7.1114    1.9119    9.3122 H   0  0  0  0  0  0
  1 16  1  0  0  0
  2 18  1  0  0  0
  3 17  2  0  0  0
  4  6  1  0  0  0
  4  9  1  0  0  0
  4 23  1  0  0  0
  5 10  1  0  0  0
  5 17  1  0  0  0
  5 24  1  0  0  0
  6 13  2  0  0  0
  7 17  1  0  0  0
  7 21  1  0  0  0
  7 25  1  0  0  0
  8  9  1  0  0  0
  8 11  2  0  0  0
  8 13  1  0  0  0
  9 12  2  0  0  0
 10 11  1  0  0  0
 10 14  2  0  0  0
 11 26  1  0  0  0
 12 14  1  0  0  0
 12 27  1  0  0  0
 13 28  1  0  0  0
 14 29  1  0  0  0
 15 19  1  0  0  0
 15 20  2  0  0  0
 15 21  1  0  0  0
 16 18  1  0  0  0
 16 19  2  0  0  0
 18 22  2  0  0  0
 19 30  1  0  0  0
 20 22  1  0  0  0
 20 31  1  0  0  0
 21 32  1  0  0  0
 21 33  1  0  0  0
 22 34  1  0  0  0
M  END
> <s_m_entry_id>
47788

> <s_m_entry_name>
dock_pv.321

> <s_m_Source_Path>
/home/csk/Desktop/cluster/DUD-E-result/fak1

> <s_m_Source_File>
dock_pv.maegz

> <i_m_Source_File_Index>
321

> <chembl_id>
CHEMBL1981782

> <chembl_pref_name>
None

> <i_lp_mmshare_version>
53161

> <i_f3d_flags>
0

> <r_lp_tautomer_probability>
0.980392156862745

> <s_lp_Force_Field>
OPLS_2005

> <r_lp_Energy>
13.662103

> <b_lp_Chiralities_Consistent>
1

> <s_lp_Variant>
CHEMBL2695_lig1549-1

> <s_i_glide_gridfile>
glide-grid_3bz3

> <i_i_glide_lignum>
1704

> <i_i_glide_rotatable_bonds>
5

> <r_i_docking_score>
-6.8881573175981

> <r_i_glide_ligand_efficiency>
-0.313098059890823

> <r_i_glide_ligand_efficiency_sa>
-0.877313077262044

> <r_i_glide_ligand_efficiency_ln>
-1.68371690006386

> <r_i_glide_gscore>
-6.8881573175981

> <r_i_glide_lipo>
-2.80966497022755

> <r_i_glide_hbond>
-0.32

> <r_i_glide_metal>
0

> <r_i_glide_rewards>
-1.54514842561671

> <r_i_glide_evdw>
-36.7795295715332

> <r_i_glide_ecoul>
-5.55668592453003

> <r_i_glide_erotb>
0.503875668668628

> <r_i_glide_esite>
-0.0447402231663064

> <r_i_glide_emodel>
-54.9105056396015

> <r_i_glide_energy>
-42.3362154960632

> <r_i_glide_einternal>
6.23387336730957

> <i_i_glide_confnum>
1

> <i_i_glide_posenum>
33

> <r_i_glide_eff_state_penalty>
0

> <s_user_duplicate_titles>
CHEMBL2695_lig1549

> <s_m_subgroup_title>
dock_pv

> <s_m_subgroupid>
dock_pv

> <b_m_subgroup_collapsed>
1

$$$$
CHEMBL2695_lig2076
                    3D
 Schrodinger Suite 2021-1.
 30 31  0  0  1  0            999 V2000
    2.6831    2.4132    7.8759 S   0  0  0  0  0  0
    5.0656    5.1626    6.6502 O   0  0  0  0  0  0
    6.3512    4.0863   11.1087 O   0  0  0  0  0  0
   10.3121    5.5631    9.0309 O   0  0  0  0  0  0
    2.9946    4.3636    6.3089 N   0  0  0  0  0  0
    0.8634    3.3494    6.1603 N   0  0  0  0  0  0
    4.2317    3.2594    7.8747 C   0  0  0  0  0  0
    4.1864    4.3461    6.9168 C   0  0  0  0  0  0
    6.6167    3.5935    8.7510 C   0  0  0  0  0  0
    5.2813    2.9606    8.6764 C   0  0  0  0  0  0
    2.0319    3.4832    6.6125 C   0  0  0  0  0  0
    7.0855    4.1307    9.9557 C   0  0  0  0  0  0
    7.4372    3.6654    7.6190 C   0  0  0  0  0  0
    9.1219    4.8762    8.8755 C   0  0  0  0  0  0
    8.3223    4.7615   10.0084 C   0  0  0  0  0  0
    8.6740    4.3074    7.6745 C   0  0  0  0  0  0
   11.1414    5.7944    7.8936 C   0  0  0  0  0  0
   12.3426    6.6377    8.3330 C   0  0  0  0  0  0
    5.5210    3.6054   11.0532 H   0  0  0  0  0  0
    2.8325    5.0685    5.5990 H   0  0  0  0  0  0
    0.6412    4.0267    5.4452 H   0  0  0  0  0  0
    5.1518    2.1276    9.3541 H   0  0  0  0  0  0
    7.1061    3.2412    6.6812 H   0  0  0  0  0  0
    8.6590    5.1708   10.9462 H   0  0  0  0  0  0
    9.2655    4.3595    6.7731 H   0  0  0  0  0  0
   11.4877    4.8444    7.4836 H   0  0  0  0  0  0
   10.5923    6.3207    7.1108 H   0  0  0  0  0  0
   13.0283    6.8121    7.5038 H   0  0  0  0  0  0
   12.0252    7.6119    8.7082 H   0  0  0  0  0  0
   12.9015    6.1375    9.1241 H   0  0  0  0  0  0
  1  7  1  0  0  0
  1 11  1  0  0  0
  2  8  2  0  0  0
  3 12  1  0  0  0
  3 19  1  0  0  0
  4 14  1  0  0  0
  4 17  1  0  0  0
  5  8  1  0  0  0
  5 11  1  0  0  0
  5 20  1  0  0  0
  6 11  2  0  0  0
  6 21  1  0  0  0
  7  8  1  0  0  0
  7 10  2  3  0  0
  9 10  1  0  0  0
  9 12  1  0  0  0
  9 13  2  0  0  0
 10 22  1  0  0  0
 12 15  2  0  0  0
 13 16  1  0  0  0
 13 23  1  0  0  0
 14 15  1  0  0  0
 14 16  2  0  0  0
 15 24  1  0  0  0
 16 25  1  0  0  0
 17 18  1  0  0  0
 17 26  1  0  0  0
 17 27  1  0  0  0
 18 28  1  0  0  0
 18 29  1  0  0  0
 18 30  1  0  0  0
M  END
> <s_m_entry_id>
47789

> <s_m_entry_name>
dock_pv.322

> <s_m_Source_Path>
/home/csk/Desktop/cluster/DUD-E-result/fak1

> <s_m_Source_File>
dock_pv.maegz

> <i_m_Source_File_Index>
322

> <chembl_id>
CHEMBL1971289

> <chembl_pref_name>
None

> <i_lp_mmshare_version>
53161

> <i_f3d_flags>
0

> <r_lp_tautomer_probability>
1

> <s_lp_Force_Field>
OPLS_2005

> <r_lp_Energy>
14.033962

> <b_lp_Chiralities_Consistent>
1

> <s_lp_Variant>
CHEMBL2695_lig2076-1

> <s_i_glide_gridfile>
glide-grid_3bz3

> <i_i_glide_lignum>
2491

> <i_i_glide_rotatable_bonds>
4

> <r_i_docking_score>
-6.88778203994159

> <r_i_glide_ligand_efficiency>
-0.382654557774533

> <r_i_glide_ligand_efficiency_sa>
-1.00283863827623

> <r_i_glide_ligand_efficiency_ln>
-1.77046885711158

> <r_i_glide_gscore>
-6.88778203994159

> <r_i_glide_lipo>
-2.10900502561527

> <r_i_glide_hbond>
-0.66755567832007

> <r_i_glide_metal>
0

> <r_i_glide_rewards>
-1.83706535552414

> <r_i_glide_evdw>
-28.3210697174072

> <r_i_glide_ecoul>
-8.96778583526611

> <r_i_glide_erotb>
0.508904295288877

> <r_i_glide_esite>
-0.0218389146107143

> <r_i_glide_emodel>
-50.7220685776006

> <r_i_glide_energy>
-37.2888555526733

> <r_i_glide_einternal>
5.29716300964355

> <i_i_glide_confnum>
3

> <i_i_glide_posenum>
257

> <r_i_glide_eff_state_penalty>
0

> <s_user_duplicate_titles>
CHEMBL2695_lig2076

> <s_m_subgroup_title>
dock_pv

> <s_m_subgroupid>
dock_pv

> <b_m_subgroup_collapsed>
1

$$$$
CHEMBL2695_lig73
                    3D
 Schrodinger Suite 2021-1.
 47 50  0  0  1  0            999 V2000
    9.9080    0.8907    4.4681 N   0  0  0  0  0  0
    9.4394    1.9374    5.1824 C   0  0  0  0  0  0
   10.1793    2.8732    5.8475 N   0  0  0  0  0  0
   11.2369    0.6971    4.4341 C   0  0  0  0  0  0
   12.1116    1.5636    5.0891 C   0  0  0  0  0  0
   11.5107    2.6755    5.7642 C   0  0  0  0  0  0
   12.5545    3.4906    6.2240 N   0  0  0  0  0  0
   13.7376    2.8454    5.9089 C   0  0  0  0  0  0
   13.5218    1.6922    5.1976 C   0  0  0  0  0  0
    8.0483    1.9925    5.1566 N   0  0  0  0  0  0
    7.0714    2.6886    5.8688 C   0  0  0  0  0  0
    7.2909    3.2622    7.1202 C   0  0  0  0  0  0
    6.2356    3.8452    7.8206 C   0  0  0  0  0  0
    4.9546    3.8973    7.2396 C   0  0  0  0  0  0
    4.7243    3.3149    5.9859 C   0  0  0  0  0  0
    5.7954    2.7149    5.3127 C   0  0  0  0  0  0
    3.4327    3.3552    5.4915 O   0  0  0  0  0  0
    3.1354    2.7315    4.2478 C   0  0  0  0  0  0
    3.9001    4.4685    7.9093 O   0  0  0  0  0  0
    3.5897    5.7965    7.5073 C   0  0  0  0  0  0
    6.5086    4.3629    9.0644 O   0  0  0  0  0  0
    5.8802    3.6996   10.1548 C   0  0  0  0  0  0
   12.5137    4.7720    6.8311 C   0  0  0  0  0  0
   11.4695    5.6688    6.5746 C   0  0  0  0  0  0
   11.5013    6.9283    7.1770 C   0  0  0  0  0  0
   12.4712    7.3181    8.0395 N   0  0  0  0  0  0
   13.4607    6.4330    8.3097 C   0  0  0  0  0  0
   13.5214    5.1642    7.7314 C   0  0  0  0  0  0
   11.5914   -0.1374    3.8490 H   0  0  0  0  0  0
   14.6785    3.3096    6.1546 H   0  0  0  0  0  0
   14.2875    1.0635    4.7640 H   0  0  0  0  0  0
    7.6621    1.2446    4.5966 H   0  0  0  0  0  0
    8.2668    3.2207    7.5787 H   0  0  0  0  0  0
    5.6429    2.2355    4.3573 H   0  0  0  0  0  0
    2.0818    2.8821    4.0128 H   0  0  0  0  0  0
    3.7179    3.1625    3.4338 H   0  0  0  0  0  0
    3.3173    1.6565    4.2874 H   0  0  0  0  0  0
    2.6172    6.0783    7.9092 H   0  0  0  0  0  0
    4.3218    6.4982    7.9031 H   0  0  0  0  0  0
    3.5418    5.9131    6.4231 H   0  0  0  0  0  0
    6.3287    4.0369   11.0895 H   0  0  0  0  0  0
    6.0002    2.6156   10.1025 H   0  0  0  0  0  0
    4.8161    3.9308   10.2075 H   0  0  0  0  0  0
   10.6624    5.4167    5.9048 H   0  0  0  0  0  0
   10.7234    7.6504    6.9773 H   0  0  0  0  0  0
   14.2279    6.7609    8.9973 H   0  0  0  0  0  0
   14.3382    4.5105    7.9974 H   0  0  0  0  0  0
  1  2  2  0  0  0
  1  4  1  0  0  0
  2 10  1  0  0  0
  2  3  1  0  0  0
  3  6  2  0  0  0
  4  5  2  0  0  0
  4 29  1  0  0  0
  5  9  1  0  0  0
  5  6  1  0  0  0
  6  7  1  0  0  0
  7  8  1  0  0  0
  7 23  1  0  0  0
  8  9  2  0  0  0
  8 30  1  0  0  0
  9 31  1  0  0  0
 10 11  1  0  0  0
 10 32  1  0  0  0
 11 16  2  0  0  0
 11 12  1  0  0  0
 12 13  2  0  0  0
 12 33  1  0  0  0
 13 14  1  0  0  0
 13 21  1  0  0  0
 14 15  2  0  0  0
 14 19  1  0  0  0
 15 16  1  0  0  0
 15 17  1  0  0  0
 16 34  1  0  0  0
 17 18  1  0  0  0
 18 35  1  0  0  0
 18 36  1  0  0  0
 18 37  1  0  0  0
 19 20  1  0  0  0
 20 38  1  0  0  0
 20 39  1  0  0  0
 20 40  1  0  0  0
 21 22  1  0  0  0
 22 41  1  0  0  0
 22 42  1  0  0  0
 22 43  1  0  0  0
 23 24  2  0  0  0
 23 28  1  0  0  0
 24 25  1  0  0  0
 24 44  1  0  0  0
 25 26  2  0  0  0
 25 45  1  0  0  0
 26 27  1  0  0  0
 27 28  2  0  0  0
 27 46  1  0  0  0
 28 47  1  0  0  0
M  END
> <s_m_entry_id>
47790

> <s_m_entry_name>
dock_pv.323

> <s_m_Source_Path>
/home/csk/Desktop/cluster/DUD-E-result/fak1

> <s_m_Source_File>
dock_pv.maegz

> <i_m_Source_File_Index>
323

> <chembl_id>
CHEMBL381161

> <chembl_pref_name>
None

> <i_lp_mmshare_version>
53161

> <i_f3d_flags>
0

> <r_lp_tautomer_probability>
1

> <s_lp_Force_Field>
OPLS_2005

> <r_lp_Energy>
25.007679

> <b_lp_Chiralities_Consistent>
1

> <s_lp_Variant>
CHEMBL2695_lig73-1

> <s_i_glide_gridfile>
glide-grid_3bz3

> <i_i_glide_lignum>
95

> <i_i_glide_rotatable_bonds>
6

> <r_i_docking_score>
-6.88135658668941

> <r_i_glide_ligand_efficiency>
-0.245762735238908

> <r_i_glide_ligand_efficiency_sa>
-0.746280410695546

> <r_i_glide_ligand_efficiency_ln>
-1.58841914561672

> <r_i_glide_gscore>
-6.88135658668941

> <r_i_glide_lipo>
-3.48970871881385

> <r_i_glide_hbond>
0

> <r_i_glide_metal>
0

> <r_i_glide_rewards>
-1.63925554548102

> <r_i_glide_evdw>
-42.0491676330566

> <r_i_glide_ecoul>
0.023215014487505

> <r_i_glide_erotb>
0.407952986299353

> <r_i_glide_esite>
-0.061369179214195

> <r_i_glide_emodel>
-52.1333399968343

> <r_i_glide_energy>
-42.0259526185691

> <r_i_glide_einternal>
10.344165802002

> <i_i_glide_confnum>
6

> <i_i_glide_posenum>
114

> <r_i_glide_eff_state_penalty>
0

> <s_user_duplicate_titles>
CHEMBL2695_lig73

> <s_m_subgroup_title>
dock_pv

> <s_m_subgroupid>
dock_pv

> <b_m_subgroup_collapsed>
1

$$$$
CHEMBL2695_lig1764
                    3D
 Schrodinger Suite 2021-1.
 24 26  0  0  1  0            999 V2000
    7.5298    2.3625    6.3797 S   0  0  0  0  0  0
   10.0617    2.9257    5.5610 N   0  0  0  0  0  0
   11.9013    1.6330    5.2904 N   0  0  0  0  0  0
    8.2803    4.3627    4.9290 N   0  0  0  0  0  0
    9.9254    0.8546    4.3091 N   0  0  0  0  0  0
   12.7221    7.5083    8.5001 N   0  0  0  0  0  0
   11.1203    3.6370    6.0976 C   0  0  0  0  0  0
   12.2495    2.8028    5.9084 C   0  0  0  0  0  0
   10.6236    1.7626    5.0503 C   0  0  0  0  0  0
    8.7308    3.2828    5.5222 C   0  0  0  0  0  0
   11.2192    4.8884    6.7156 C   0  0  0  0  0  0
   13.5220    3.2465    6.2913 C   0  0  0  0  0  0
   12.4912    5.2817    7.1515 C   0  0  0  0  0  0
   13.6237    4.4898    6.9187 C   0  0  0  0  0  0
    6.3485    3.5280    5.8714 C   0  0  0  0  0  0
    6.9800    4.5047    5.1084 C   0  0  0  0  0  0
   12.6221    6.5239    7.9017 C   0  0  0  0  0  0
    8.9868    1.0474    3.9820 H   0  0  0  0  0  0
   10.3760    0.0369    3.9313 H   0  0  0  0  0  0
   10.3458    5.5044    6.8797 H   0  0  0  0  0  0
   14.3813    2.6206    6.1166 H   0  0  0  0  0  0
   14.5936    4.8180    7.2647 H   0  0  0  0  0  0
    5.3068    3.4346    6.1426 H   0  0  0  0  0  0
    6.4757    5.3447    4.6564 H   0  0  0  0  0  0
  1 10  1  0  0  0
  1 15  1  0  0  0
  2  7  1  0  0  0
  2  9  1  0  0  0
  2 10  1  0  0  0
  3  8  1  0  0  0
  3  9  2  0  0  0
  4 10  2  0  0  0
  4 16  1  0  0  0
  5  9  1  0  0  0
  5 18  1  0  0  0
  5 19  1  0  0  0
  6 17  3  0  0  0
  7  8  1  0  0  0
  7 11  2  0  0  0
  8 12  2  0  0  0
 11 13  1  0  0  0
 11 20  1  0  0  0
 12 14  1  0  0  0
 12 21  1  0  0  0
 13 14  2  0  0  0
 13 17  1  0  0  0
 14 22  1  0  0  0
 15 16  2  0  0  0
 15 23  1  0  0  0
 16 24  1  0  0  0
M  END
> <s_m_entry_id>
47791

> <s_m_entry_name>
dock_pv.324

> <s_m_Source_Path>
/home/csk/Desktop/cluster/DUD-E-result/fak1

> <s_m_Source_File>
dock_pv.maegz

> <i_m_Source_File_Index>
324

> <chembl_id>
CHEMBL1988805

> <chembl_pref_name>
None

> <i_lp_mmshare_version>
53161

> <i_f3d_flags>
0

> <r_lp_tautomer_probability>
1

> <s_lp_Force_Field>
OPLS_2005

> <r_lp_Energy>
9.496343

> <b_lp_Chiralities_Consistent>
1

> <s_lp_Variant>
CHEMBL2695_lig1764-1

> <s_i_glide_gridfile>
glide-grid_3bz3

> <i_i_glide_lignum>
2012

> <i_i_glide_rotatable_bonds>
1

> <r_i_docking_score>
-6.88050724326465

> <r_i_glide_ligand_efficiency>
-0.404735720192038

> <r_i_glide_ligand_efficiency_sa>
-1.04068950542876

> <r_i_glide_ligand_efficiency_ln>
-1.79497111840476

> <r_i_glide_gscore>
-6.88050724326465

> <r_i_glide_lipo>
-2.046320547882

> <r_i_glide_hbond>
-0.0683091393025857

> <r_i_glide_metal>
0

> <r_i_glide_rewards>
-3.02625622348982

> <r_i_glide_evdw>
-33.1264343261719

> <r_i_glide_ecoul>
-2.44050025939941

> <r_i_glide_erotb>
0.297547363106429

> <r_i_glide_esite>
-0.0147719404781761

> <r_i_glide_emodel>
-49.4409531744757

> <r_i_glide_energy>
-35.5669345855713

> <r_i_glide_einternal>
0.620914876461029

> <i_i_glide_confnum>
4

> <i_i_glide_posenum>
121

> <r_i_glide_eff_state_penalty>
0

> <s_user_duplicate_titles>
CHEMBL2695_lig1764

> <s_m_subgroup_title>
dock_pv

> <s_m_subgroupid>
dock_pv

> <b_m_subgroup_collapsed>
1

$$$$
CHEMBL2695_lig208
                    3D
 Schrodinger Suite 2021-1.
 44 47  0  0  1  0            999 V2000
    5.5049    3.7031    9.7055 C   0  0  0  0  0  0
    6.7819    3.4490    9.2005 C   0  0  0  0  0  0
    6.9546    2.3657    8.3198 C   0  0  0  0  0  0
    5.8706    1.5859    7.9104 C   0  0  0  0  0  0
    4.4145    2.9478    9.2700 C   0  0  0  0  0  0
    4.6039    1.9088    8.3835 C   0  0  0  0  0  0
    3.3852    1.3156    8.1023 N   0  0  0  0  0  0
    2.3599    1.8939    8.7522 C   0  0  0  0  0  0
    2.9516    3.0359    9.5793 C   0  0  0  0  0  0
    1.1752    1.5716    8.7068 O   0  0  0  0  0  0
    7.8282    4.3132    9.5832 N   0  0  0  0  0  0
    8.9704    4.7155    8.8774 C   0  0  0  0  0  0
    9.1222    4.2832    7.6047 N   0  0  0  0  0  0
   10.1696    4.7424    6.8785 C   0  0  0  0  0  0
   11.1175    5.6036    7.4588 C   0  0  0  0  0  0
   10.9097    5.9633    8.7947 C   0  0  0  0  0  0
    9.8237    5.5627    9.5088 N   0  0  0  0  0  0
   10.2604    4.3622    5.5252 N   0  0  0  0  0  0
    9.4433    3.2889    4.9351 C   0  0  0  0  0  0
    7.9218    3.4945    4.9422 C   0  0  0  0  0  0
    7.0782    2.3810    4.8636 C   0  0  0  0  0  0
    5.6948    2.5749    4.9271 C   0  0  0  0  0  0
    5.1864    3.8667    5.0752 C   0  0  0  0  0  0
    6.0873    4.9314    5.1092 C   0  0  0  0  0  0
    7.4330    4.7630    5.0307 N   0  0  0  0  0  0
   12.3221    6.1533    6.7149 C   0  0  0  0  0  0
    5.3545    4.5121   10.4027 H   0  0  0  0  0  0
    7.9236    2.1152    7.9275 H   0  0  0  0  0  0
    6.0257    0.7638    7.2258 H   0  0  0  0  0  0
    3.2692    0.5363    7.4725 H   0  0  0  0  0  0
    2.7311    2.8775   10.6346 H   0  0  0  0  0  0
    2.5253    3.9864    9.2590 H   0  0  0  0  0  0
    7.6749    4.8261   10.4370 H   0  0  0  0  0  0
   11.5968    6.6267    9.3008 H   0  0  0  0  0  0
   11.0817    4.6522    5.0193 H   0  0  0  0  0  0
    9.6610    2.3736    5.4883 H   0  0  0  0  0  0
    9.7671    3.1142    3.9092 H   0  0  0  0  0  0
    7.4822    1.3828    4.7703 H   0  0  0  0  0  0
    5.0307    1.7241    4.8817 H   0  0  0  0  0  0
    4.1219    4.0409    5.1402 H   0  0  0  0  0  0
    5.7350    5.9481    5.2008 H   0  0  0  0  0  0
   13.1753    6.2661    7.3859 H   0  0  0  0  0  0
   12.6475    5.4949    5.9104 H   0  0  0  0  0  0
   12.0707    7.1322    6.3091 H   0  0  0  0  0  0
  1  5  1  0  0  0
  1  2  2  0  0  0
  1 27  1  0  0  0
  2  3  1  0  0  0
  2 11  1  0  0  0
  3  4  2  0  0  0
  3 28  1  0  0  0
  4  6  1  0  0  0
  4 29  1  0  0  0
  5  9  1  0  0  0
  5  6  2  0  0  0
  6  7  1  0  0  0
  7  8  1  0  0  0
  7 30  1  0  0  0
  8  9  1  0  0  0
  8 10  2  0  0  0
  9 31  1  0  0  0
  9 32  1  0  0  0
 11 12  1  0  0  0
 11 33  1  0  0  0
 12 13  2  0  0  0
 12 17  1  0  0  0
 13 14  1  0  0  0
 14 15  2  0  0  0
 14 18  1  0  0  0
 15 16  1  0  0  0
 15 26  1  0  0  0
 16 17  2  0  0  0
 16 34  1  0  0  0
 18 19  1  0  0  0
 18 35  1  0  0  0
 19 20  1  0  0  0
 19 36  1  0  0  0
 19 37  1  0  0  0
 20 21  2  0  0  0
 20 25  1  0  0  0
 21 22  1  0  0  0
 21 38  1  0  0  0
 22 23  2  0  0  0
 22 39  1  0  0  0
 23 24  1  0  0  0
 23 40  1  0  0  0
 24 25  2  0  0  0
 24 41  1  0  0  0
 26 42  1  0  0  0
 26 43  1  0  0  0
 26 44  1  0  0  0
M  END
> <s_m_entry_id>
47792

> <s_m_entry_name>
dock_pv.325

> <s_m_Source_Path>
/home/csk/Desktop/cluster/DUD-E-result/fak1

> <s_m_Source_File>
dock_pv.maegz

> <i_m_Source_File_Index>
325

> <chembl_id>
CHEMBL471698

> <chembl_pref_name>
None

> <i_lp_mmshare_version>
53161

> <i_f3d_flags>
0

> <r_lp_tautomer_probability>
0.999999624730965

> <s_lp_Force_Field>
OPLS_2005

> <r_lp_Energy>
16.192266

> <b_lp_Chiralities_Consistent>
1

> <s_lp_Variant>
CHEMBL2695_lig208-1

> <s_i_glide_gridfile>
glide-grid_3bz3

> <i_i_glide_lignum>
240

> <i_i_glide_rotatable_bonds>
5

> <r_i_docking_score>
-6.87814242071427

> <r_i_glide_ligand_efficiency>
-0.264543939258241

> <r_i_glide_ligand_efficiency_sa>
-0.783710379122404

> <r_i_glide_ligand_efficiency_ln>
-1.61530917847865

> <r_i_glide_gscore>
-6.87814242071427

> <r_i_glide_lipo>
-2.43038169882751

> <r_i_glide_hbond>
-0.32

> <r_i_glide_metal>
0

> <r_i_glide_rewards>
-2.19728710593013

> <r_i_glide_evdw>
-38.0916137695312

> <r_i_glide_ecoul>
-5.23219966888428

> <r_i_glide_erotb>
0.792256103147441

> <r_i_glide_esite>
-0.0333190802948717

> <r_i_glide_emodel>
-60.6003236203066

> <r_i_glide_energy>
-43.3238134384155

> <r_i_glide_einternal>
2.34664154052734

> <i_i_glide_confnum>
2

> <i_i_glide_posenum>
354

> <r_i_glide_eff_state_penalty>
0

> <s_user_duplicate_titles>
CHEMBL2695_lig208

> <s_m_subgroup_title>
dock_pv

> <s_m_subgroupid>
dock_pv

> <b_m_subgroup_collapsed>
1

$$$$
CHEMBL2695_lig2165
                    3D
 Schrodinger Suite 2021-1.
 45 47  0  0  1  0            999 V2000
    7.0144    4.7630   10.7925 F   0  0  0  0  0  0
    9.5263    5.1630    9.9079 O   0  0  0  0  0  0
   12.6404    7.5615    8.0543 O   0  0  0  0  0  0
    9.8198    5.1072    7.6866 N   0  0  0  0  0  0
    1.7557    0.3245    7.9343 N   0  0  0  0  0  0
    7.8399    4.0225    8.6522 C   0  0  0  0  0  0
    5.4389    2.5271    8.3777 C   0  0  0  0  0  0
    6.8567    4.0400    9.6578 C   0  0  0  0  0  0
    9.1219    4.8168    8.8038 C   0  0  0  0  0  0
    5.6788    3.3123    9.5096 C   0  0  0  0  0  0
    4.1682    1.7616    8.2308 C   0  0  0  0  0  0
    7.6071    3.2139    7.5272 C   0  0  0  0  0  0
    6.4296    2.4823    7.3923 C   0  0  0  0  0  0
   11.1974    5.6355    7.6081 C   0  0  1  0  0  0
    4.1517    0.4878    7.6420 C   0  0  0  0  0  0
    2.9467    2.2961    8.6699 C   0  0  0  0  0  0
   11.9141    5.2393    6.2968 C   0  0  0  0  0  0
   11.7776    3.7772    5.9051 C   0  0  0  0  0  0
    2.9381   -0.1888    7.5094 C   0  0  0  0  0  0
    1.7753    1.5564    8.5023 C   0  0  0  0  0  0
   11.2999    7.1564    7.8452 C   0  0  0  0  0  0
   12.8909    2.9350    5.9091 C   0  0  0  0  0  0
   10.5566    3.3126    5.4011 C   0  0  0  0  0  0
   12.7583    1.6111    5.5086 C   0  0  0  0  0  0
   10.4191    1.9932    4.9934 C   0  0  0  0  0  0
   11.5219    1.1507    5.0562 C   0  0  0  0  0  0
   12.9425    7.2324    8.9050 H   0  0  0  0  0  0
    9.3995    4.8553    6.8074 H   0  0  0  0  0  0
    4.9518    3.3570   10.3089 H   0  0  0  0  0  0
    8.3340    3.1212    6.7414 H   0  0  0  0  0  0
    6.2920    1.8756    6.5069 H   0  0  0  0  0  0
   11.7532    5.1631    8.4173 H   0  0  0  0  0  0
    5.0627    0.0269    7.2850 H   0  0  0  0  0  0
    2.9028    3.2776    9.1223 H   0  0  0  0  0  0
   12.9694    5.5106    6.3522 H   0  0  0  0  0  0
   11.5220    5.8319    5.4698 H   0  0  0  0  0  0
    2.9055   -1.1638    7.0453 H   0  0  0  0  0  0
    0.8244    1.9543    8.8249 H   0  0  0  0  0  0
   10.8745    7.7091    7.0052 H   0  0  0  0  0  0
   10.7264    7.4421    8.7193 H   0  0  0  0  0  0
   13.8511    3.2969    6.2473 H   0  0  0  0  0  0
    9.7225    3.9859    5.2806 H   0  0  0  0  0  0
   13.6170    0.9577    5.5368 H   0  0  0  0  0  0
    9.4756    1.6336    4.6050 H   0  0  0  0  0  0
   11.4129    0.1282    4.7285 H   0  0  0  0  0  0
  1  8  1  0  0  0
  2  9  2  0  0  0
  3 21  1  0  0  0
  3 27  1  0  0  0
  4  9  1  0  0  0
  4 14  1  0  0  0
  4 28  1  0  0  0
  5 19  2  0  0  0
  5 20  1  0  0  0
  6  8  1  0  0  0
  6  9  1  0  0  0
  6 12  2  0  0  0
  7 10  1  0  0  0
  7 11  1  0  0  0
  7 13  2  0  0  0
  8 10  2  0  0  0
 10 29  1  0  0  0
 11 15  2  0  0  0
 11 16  1  0  0  0
 12 13  1  0  0  0
 12 30  1  0  0  0
 13 31  1  0  0  0
 14 17  1  0  0  0
 14 21  1  0  0  0
 14 32  1  0  0  0
 15 19  1  0  0  0
 15 33  1  0  0  0
 16 20  2  0  0  0
 16 34  1  0  0  0
 17 18  1  0  0  0
 17 35  1  0  0  0
 17 36  1  0  0  0
 18 22  2  0  0  0
 18 23  1  0  0  0
 19 37  1  0  0  0
 20 38  1  0  0  0
 21 39  1  0  0  0
 21 40  1  0  0  0
 22 24  1  0  0  0
 22 41  1  0  0  0
 23 25  2  0  0  0
 23 42  1  0  0  0
 24 26  2  0  0  0
 24 43  1  0  0  0
 25 26  1  0  0  0
 25 44  1  0  0  0
 26 45  1  0  0  0
M  END
> <s_m_entry_id>
47793

> <s_m_entry_name>
dock_pv.326

> <s_m_Source_Path>
/home/csk/Desktop/cluster/DUD-E-result/fak1

> <s_m_Source_File>
dock_pv.maegz

> <i_m_Source_File_Index>
326

> <chembl_id>
CHEMBL1969755

> <chembl_pref_name>
None

> <i_lp_mmshare_version>
53161

> <i_f3d_flags>
0

> <r_lp_tautomer_probability>
1

> <s_lp_Force_Field>
OPLS_2005

> <r_lp_Energy>
19.220758

> <b_lp_Chiralities_Consistent>
1

> <s_lp_Variant>
CHEMBL2695_lig2165-2

> <s_i_glide_gridfile>
glide-grid_3bz3

> <i_i_glide_lignum>
2628

> <i_i_glide_rotatable_bonds>
8

> <r_i_docking_score>
-6.87278163841388

> <r_i_glide_ligand_efficiency>
-0.264337755323611

> <r_i_glide_ligand_efficiency_sa>
-0.783099560027355

> <r_i_glide_ligand_efficiency_ln>
-1.61405021634557

> <r_i_glide_gscore>
-6.87278163841388

> <r_i_glide_lipo>
-3.24475528789551

> <r_i_glide_hbond>
-0.282803512837885

> <r_i_glide_metal>
0

> <r_i_glide_rewards>
-1.65321094876439

> <r_i_glide_evdw>
-35.7102317810059

> <r_i_glide_ecoul>
-5.58670425415039

> <r_i_glide_erotb>
0.931505338256756

> <r_i_glide_esite>
0

> <r_i_glide_emodel>
-53.456370644333

> <r_i_glide_energy>
-41.2969360351562

> <r_i_glide_einternal>
8.62018203735352

> <i_i_glide_confnum>
5

> <i_i_glide_posenum>
195

> <r_i_glide_eff_state_penalty>
0

> <s_user_duplicate_titles>
CHEMBL2695_lig2165

> <s_m_subgroup_title>
dock_pv

> <s_m_subgroupid>
dock_pv

> <b_m_subgroup_collapsed>
1

$$$$
CHEMBL2695_lig682
                    3D
 Schrodinger Suite 2021-1.
 59 64  0  0  1  0            999 V2000
    6.2215    3.9630    9.0829 C   0  0  0  0  0  0
    7.2851    4.2779    8.1721 O   0  0  0  0  0  0
    7.3373    3.6212    6.9642 C   0  0  0  0  0  0
    6.1365    3.1705    6.3886 C   0  0  0  0  0  0
    6.1448    2.3630    5.2707 C   0  0  0  0  0  0
    7.3568    2.0155    4.7075 C   0  0  0  0  0  0
    8.5405    2.5705    5.1687 C   0  0  0  0  0  0
    8.5824    3.3892    6.3093 C   0  0  0  0  0  0
    9.9146    3.9972    6.7218 C   0  0  0  0  0  0
    9.9819    5.1630    7.4950 C   0  0  0  0  0  0
   11.1628    5.8724    7.7352 C   0  0  0  0  0  0
   12.3671    5.4085    7.2200 C   0  0  0  0  0  0
   12.3489    4.2280    6.5373 N   0  0  0  0  0  0
   13.4179    3.5624    6.0432 N   0  0  0  0  0  0
   12.8575    2.4951    5.5091 C   0  0  0  0  0  0
   13.5999    1.6679    4.7028 N   0  0  0  0  0  0
   13.1932    0.7654    3.6917 C   0  0  0  0  0  0
   14.1785    0.1750    2.9051 C   0  0  0  0  0  0
   13.8451   -0.8303    2.0006 C   0  0  0  0  0  0
   12.5248   -1.2835    1.8600 C   0  0  0  0  0  0
   12.2386   -2.4694    0.9369 C   0  0  0  0  0  0
   11.1085   -2.3197   -0.0924 C   0  0  0  0  0  0
    9.7629   -2.3664    0.4365 N   0  0  1  0  0  0
    9.3460   -1.2377    1.2432 C   0  0  0  0  0  0
   10.0453   -1.1207    2.6005 C   0  0  0  0  0  0
   11.5099   -0.6658    2.6244 C   0  0  0  0  0  0
   11.8640    0.3629    3.5024 C   0  0  0  0  0  0
   11.5623    2.3517    5.6928 N   0  0  0  0  0  0
   11.1792    3.4883    6.3088 C   0  0  0  0  0  0
    6.7743    3.8980   10.4995 C   0  0  0  0  0  0
    8.1311    3.2743   10.7083 C   0  0  0  0  0  0
    7.9219    4.7631   10.9110 C   0  0  0  0  0  0
    5.7536    2.9935    8.9013 H   0  0  0  0  0  0
    5.4304    4.7104    9.0135 H   0  0  0  0  0  0
    5.1775    3.4035    6.8251 H   0  0  0  0  0  0
    5.2252    1.9578    4.8739 H   0  0  0  0  0  0
    7.3701    1.3239    3.8830 H   0  0  0  0  0  0
    9.4207    2.3381    4.5954 H   0  0  0  0  0  0
    9.0817    5.5630    7.9090 H   0  0  0  0  0  0
   11.1359    6.7841    8.3153 H   0  0  0  0  0  0
   13.3258    5.8883    7.3618 H   0  0  0  0  0  0
   14.5999    1.6739    4.8344 H   0  0  0  0  0  0
   15.2163    0.4492    3.0303 H   0  0  0  0  0  0
   14.6420   -1.2985    1.4416 H   0  0  0  0  0  0
   13.1499   -2.6860    0.3788 H   0  0  0  0  0  0
   12.0810   -3.3591    1.5483 H   0  0  0  0  0  0
   11.2387   -1.4019   -0.6666 H   0  0  0  0  0  0
   11.1899   -3.1404   -0.8065 H   0  0  0  0  0  0
    9.0766   -2.5855   -0.2734 H   0  0  0  0  0  0
    9.4469   -0.3064    0.6840 H   0  0  0  0  0  0
    8.2768   -1.3585    1.4253 H   0  0  0  0  0  0
    9.9525   -2.0527    3.1592 H   0  0  0  0  0  0
    9.4548   -0.4070    3.1777 H   0  0  0  0  0  0
   11.0602    0.7741    4.0808 H   0  0  0  0  0  0
    5.9953    3.7170   11.2366 H   0  0  0  0  0  0
    8.6976    2.9271    9.8432 H   0  0  0  0  0  0
    8.3220    2.6655   11.5876 H   0  0  0  0  0  0
    7.9219    5.1623   11.9233 H   0  0  0  0  0  0
    8.3367    5.4706   10.1935 H   0  0  0  0  0  0
  1  2  1  0  0  0
  1 30  1  0  0  0
  1 33  1  0  0  0
  1 34  1  0  0  0
  2  3  1  0  0  0
  3  4  2  0  0  0
  3  8  1  0  0  0
  4  5  1  0  0  0
  4 35  1  0  0  0
  5  6  2  0  0  0
  5 36  1  0  0  0
  6  7  1  0  0  0
  6 37  1  0  0  0
  7  8  2  0  0  0
  7 38  1  0  0  0
  8  9  1  0  0  0
  9 10  2  0  0  0
  9 29  1  0  0  0
 10 11  1  0  0  0
 10 39  1  0  0  0
 11 12  2  0  0  0
 11 40  1  0  0  0
 12 13  1  0  0  0
 12 41  1  0  0  0
 13 14  1  0  0  0
 13 29  1  0  0  0
 14 15  2  0  0  0
 15 16  1  0  0  0
 15 28  1  0  0  0
 16 17  1  0  0  0
 16 42  1  0  0  0
 17 18  2  0  0  0
 17 27  1  0  0  0
 18 19  1  0  0  0
 18 43  1  0  0  0
 19 20  2  0  0  0
 19 44  1  0  0  0
 20 21  1  0  0  0
 20 26  1  0  0  0
 21 22  1  0  0  0
 21 45  1  0  0  0
 21 46  1  0  0  0
 22 23  1  0  0  0
 22 47  1  0  0  0
 22 48  1  0  0  0
 23 24  1  0  0  0
 23 49  1  0  0  0
 24 25  1  0  0  0
 24 50  1  0  0  0
 24 51  1  0  0  0
 25 26  1  0  0  0
 25 52  1  0  0  0
 25 53  1  0  0  0
 26 27  2  0  0  0
 27 54  1  0  0  0
 28 29  2  0  0  0
 30 31  1  0  0  0
 30 32  1  0  0  0
 30 55  1  0  0  0
 31 32  1  0  0  0
 31 56  1  0  0  0
 31 57  1  0  0  0
 32 58  1  0  0  0
 32 59  1  0  0  0
M  END
> <s_m_entry_id>
47794

> <s_m_entry_name>
dock_pv.327

> <s_m_Source_Path>
/home/csk/Desktop/cluster/DUD-E-result/fak1

> <s_m_Source_File>
dock_pv.maegz

> <i_m_Source_File_Index>
327

> <chembl_id>
CHEMBL3645028

> <chembl_pref_name>
None

> <i_lp_mmshare_version>
53161

> <i_f3d_flags>
0

> <r_lp_tautomer_probability>
1

> <s_lp_Force_Field>
OPLS_2005

> <r_lp_Energy>
40.718862

> <b_lp_Chiralities_Consistent>
1

> <s_lp_Variant>
CHEMBL2695_lig682-1

> <s_i_glide_gridfile>
glide-grid_3bz3

> <i_i_glide_lignum>
737

> <i_i_glide_rotatable_bonds>
6

> <r_i_docking_score>
-6.86338441854644

> <r_i_glide_ligand_efficiency>
-0.214480763079576

> <r_i_glide_ligand_efficiency_sa>
-0.680933977092277

> <r_i_glide_ligand_efficiency_ln>
-1.5368988601058

> <r_i_glide_gscore>
-6.86338441854644

> <r_i_glide_lipo>
-3.1377087056404

> <r_i_glide_hbond>
-0.152893919749077

> <r_i_glide_metal>
0

> <r_i_glide_rewards>
-1.55753583392106

> <r_i_glide_evdw>
-39.488597869873

> <r_i_glide_ecoul>
-4.65445375442505

> <r_i_glide_erotb>
0.657351997421508

> <r_i_glide_esite>
0

> <r_i_glide_emodel>
-55.3638027587628

> <r_i_glide_energy>
-44.1430516242981

> <r_i_glide_einternal>
6.24906158447266

> <i_i_glide_confnum>
3

> <i_i_glide_posenum>
204

> <r_i_glide_eff_state_penalty>
0

> <s_user_duplicate_titles>
CHEMBL2695_lig682

> <s_m_subgroup_title>
dock_pv

> <s_m_subgroupid>
dock_pv

> <b_m_subgroup_collapsed>
1

$$$$
CHEMBL2695_lig1608
                    3D
 Schrodinger Suite 2021-1.
 27 29  0  0  1  0            999 V2000
   13.9197    6.5052    8.3192 O   0  0  0  0  0  0
   13.3382    3.5172    6.3004 N   0  0  0  0  0  0
    4.8980    3.5078    5.2868 N   0  0  0  0  0  0
   11.1928    4.5999    6.7084 C   0  0  0  0  0  0
   11.9826    3.5403    6.1684 C   0  0  0  0  0  0
    9.1721    3.5068    5.8509 C   0  0  0  0  0  0
    9.7917    4.5606    6.5337 C   0  0  0  0  0  0
    7.6976    3.4991    5.6591 C   0  0  0  0  0  0
   11.8559    5.6331    7.4271 C   0  0  0  0  0  0
   11.3414    2.4640    5.5091 C   0  0  0  0  0  0
    9.9582    2.4647    5.3517 C   0  0  0  0  0  0
   13.2366    5.5631    7.5952 C   0  0  0  0  0  0
   13.9230    4.5035    7.0191 C   0  0  0  0  0  0
    7.0202    4.6608    5.2752 C   0  0  0  0  0  0
    6.9392    2.3383    5.8517 C   0  0  0  0  0  0
    5.6344    4.6328    5.1094 C   0  0  0  0  0  0
    5.5584    2.3784    5.6522 C   0  0  0  0  0  0
   14.8824    6.3650    8.3091 H   0  0  0  0  0  0
    9.2000    5.3553    6.9562 H   0  0  0  0  0  0
   11.2885    6.4430    7.8584 H   0  0  0  0  0  0
   11.9330    1.6525    5.1112 H   0  0  0  0  0  0
    9.4917    1.6463    4.8201 H   0  0  0  0  0  0
   14.9909    4.4294    7.1451 H   0  0  0  0  0  0
    7.5764    5.5627    5.0974 H   0  0  0  0  0  0
    7.4064    1.4081    6.1424 H   0  0  0  0  0  0
    5.0956    5.5215    4.8119 H   0  0  0  0  0  0
    4.9656    1.4842    5.7828 H   0  0  0  0  0  0
  1 12  1  0  0  0
  1 18  1  0  0  0
  2  5  2  0  0  0
  2 13  1  0  0  0
  3 16  2  0  0  0
  3 17  1  0  0  0
  4  5  1  0  0  0
  4  7  1  0  0  0
  4  9  2  0  0  0
  5 10  1  0  0  0
  6  7  2  0  0  0
  6  8  1  0  0  0
  6 11  1  0  0  0
  7 19  1  0  0  0
  8 14  2  0  0  0
  8 15  1  0  0  0
  9 12  1  0  0  0
  9 20  1  0  0  0
 10 11  2  0  0  0
 10 21  1  0  0  0
 11 22  1  0  0  0
 12 13  2  0  0  0
 13 23  1  0  0  0
 14 16  1  0  0  0
 14 24  1  0  0  0
 15 17  2  0  0  0
 15 25  1  0  0  0
 16 26  1  0  0  0
 17 27  1  0  0  0
M  END
> <s_m_entry_id>
47795

> <s_m_entry_name>
dock_pv.328

> <s_m_Source_Path>
/home/csk/Desktop/cluster/DUD-E-result/fak1

> <s_m_Source_File>
dock_pv.maegz

> <i_m_Source_File_Index>
328

> <chembl_id>
CHEMBL1973868

> <chembl_pref_name>
None

> <i_lp_mmshare_version>
53161

> <i_f3d_flags>
0

> <r_lp_tautomer_probability>
1

> <s_lp_Force_Field>
OPLS_2005

> <r_lp_Energy>
14.981447

> <b_lp_Chiralities_Consistent>
1

> <s_lp_Variant>
CHEMBL2695_lig1608-1

> <s_i_glide_gridfile>
glide-grid_3bz3

> <i_i_glide_lignum>
1780

> <i_i_glide_rotatable_bonds>
2

> <r_i_docking_score>
-6.8536438411027

> <r_i_glide_ligand_efficiency>
-0.403155520064864

> <r_i_glide_ligand_efficiency_sa>
-1.03662636593604

> <r_i_glide_ligand_efficiency_ln>
-1.78796305499926

> <r_i_glide_gscore>
-6.8536438411027

> <r_i_glide_lipo>
-2.62726161643919

> <r_i_glide_hbond>
-0.32

> <r_i_glide_metal>
0

> <r_i_glide_rewards>
-1.97713787878788

> <r_i_glide_evdw>
-25.0646076202393

> <r_i_glide_ecoul>
-6.78745126724243

> <r_i_glide_erotb>
0.342103725222698

> <r_i_glide_esite>
0

> <r_i_glide_emodel>
-44.4758042386455

> <r_i_glide_energy>
-31.8520588874817

> <r_i_glide_einternal>
0.352120846509933

> <i_i_glide_confnum>
4

> <i_i_glide_posenum>
301

> <r_i_glide_eff_state_penalty>
0

> <s_user_duplicate_titles>
CHEMBL2695_lig1608

> <s_m_subgroup_title>
dock_pv

> <s_m_subgroupid>
dock_pv

> <b_m_subgroup_collapsed>
1

$$$$
CHEMBL2695_lig1936
                    3D
 Schrodinger Suite 2021-1.
 42 45  0  0  1  0            999 V2000
   10.7222   -0.2736    3.8419 Cl  0  0  0  0  0  0
    4.0717    2.4360    9.5088 O   0  0  0  0  0  0
    9.7850    3.4842    6.0953 N   0  0  0  0  0  0
   14.2556    4.4403    7.0860 N   0  0  0  0  0  0
   11.3779    1.9629    5.1094 N   0  0  0  0  0  0
   13.7855    6.3982    8.3978 N   0  0  0  0  0  0
    7.4495    2.9101    6.1188 N   0  0  0  0  0  0
   12.1810    3.9251    6.3092 C   0  0  0  0  0  0
   12.1197    5.1561    7.0740 C   0  0  0  0  0  0
   11.0483    3.1049    5.7724 C   0  0  0  0  0  0
   13.4266    5.4097    7.5769 C   0  0  0  0  0  0
   13.5292    3.5756    6.3009 C   0  0  0  0  0  0
    8.7768    2.6312    5.7514 C   0  0  0  0  0  0
   11.1222    6.0656    7.4641 C   0  0  0  0  0  0
   10.3554    1.1627    4.7235 C   0  0  0  0  0  0
    9.0296    1.4550    5.0426 C   0  0  0  0  0  0
    7.0977    4.1012    6.8917 C   0  0  2  0  0  0
   11.4828    7.1230    8.3037 C   0  0  0  0  0  0
   12.7945    7.2513    8.7350 C   0  0  0  0  0  0
    7.4104    3.9006    8.3993 C   0  0  0  0  0  0
    5.6083    4.4502    6.6701 C   0  0  0  0  0  0
    4.9609    3.3365    8.8798 C   0  0  1  0  0  0
    6.4350    2.9389    9.1143 C   0  0  0  0  0  0
    4.6403    3.4753    7.3761 C   0  0  0  0  0  0
    4.3231    2.3614   10.4382 H   0  0  0  0  0  0
   15.2410    4.3645    7.2780 H   0  0  0  0  0  0
    6.7898    2.1448    6.0909 H   0  0  0  0  0  0
   14.0148    2.7158    5.8560 H   0  0  0  0  0  0
   10.1022    5.9478    7.1287 H   0  0  0  0  0  0
    8.2346    0.7812    4.7514 H   0  0  0  0  0  0
    7.7168    4.9177    6.5236 H   0  0  0  0  0  0
   10.7345    7.8367    8.6131 H   0  0  0  0  0  0
   13.0793    8.0614    9.3910 H   0  0  0  0  0  0
    8.4320    3.5416    8.5336 H   0  0  0  0  0  0
    7.3825    4.8694    8.8972 H   0  0  0  0  0  0
    5.4222    5.4647    7.0269 H   0  0  0  0  0  0
    5.3810    4.4761    5.6029 H   0  0  0  0  0  0
    4.7633    4.3047    9.3431 H   0  0  0  0  0  0
    6.6523    2.9284   10.1827 H   0  0  0  0  0  0
    6.6004    1.9186    8.7627 H   0  0  0  0  0  0
    3.6133    3.8246    7.2523 H   0  0  0  0  0  0
    4.6894    2.4957    6.8987 H   0  0  0  0  0  0
  1 15  1  0  0  0
  2 22  1  0  0  0
  2 25  1  0  0  0
  3 10  2  0  0  0
  3 13  1  0  0  0
  4 11  1  0  0  0
  4 12  1  0  0  0
  4 26  1  0  0  0
  5 10  1  0  0  0
  5 15  2  0  0  0
  6 11  2  0  0  0
  6 19  1  0  0  0
  7 13  1  0  0  0
  7 17  1  0  0  0
  7 27  1  0  0  0
  8  9  1  0  0  0
  8 10  1  0  0  0
  8 12  2  0  0  0
  9 11  1  0  0  0
  9 14  2  0  0  0
 12 28  1  0  0  0
 13 16  2  0  0  0
 14 18  1  0  0  0
 14 29  1  0  0  0
 15 16  1  0  0  0
 16 30  1  0  0  0
 17 20  1  0  0  0
 17 21  1  0  0  0
 17 31  1  0  0  0
 18 19  2  0  0  0
 18 32  1  0  0  0
 19 33  1  0  0  0
 20 23  1  0  0  0
 20 34  1  0  0  0
 20 35  1  0  0  0
 21 24  1  0  0  0
 21 36  1  0  0  0
 21 37  1  0  0  0
 22 23  1  0  0  0
 22 24  1  0  0  0
 22 38  1  0  0  0
 23 39  1  0  0  0
 23 40  1  0  0  0
 24 41  1  0  0  0
 24 42  1  0  0  0
M  END
> <s_m_entry_id>
47796

> <s_m_entry_name>
dock_pv.329

> <s_m_Source_Path>
/home/csk/Desktop/cluster/DUD-E-result/fak1

> <s_m_Source_File>
dock_pv.maegz

> <i_m_Source_File_Index>
329

> <chembl_id>
CHEMBL1991674

> <chembl_pref_name>
None

> <i_lp_mmshare_version>
53161

> <i_f3d_flags>
0

> <r_lp_tautomer_probability>
0.999998015729938

> <s_lp_Force_Field>
OPLS_2005

> <r_lp_Energy>
5.514423

> <b_lp_Chiralities_Consistent>
1

> <s_lp_Variant>
CHEMBL2695_lig1936-2

> <s_i_glide_gridfile>
glide-grid_3bz3

> <i_i_glide_lignum>
2258

> <i_i_glide_rotatable_bonds>
4

> <r_i_docking_score>
-6.83799390794525

> <r_i_glide_ligand_efficiency>
-0.284916412831052

> <r_i_glide_ligand_efficiency_sa>
-0.821841147087607

> <r_i_glide_ligand_efficiency_ln>
-1.63664571726587

> <r_i_glide_gscore>
-6.83799390794525

> <r_i_glide_lipo>
-2.914893620408

> <r_i_glide_hbond>
-0.32

> <r_i_glide_metal>
0

> <r_i_glide_rewards>
-1.88756261239924

> <r_i_glide_evdw>
-38.2217636108398

> <r_i_glide_ecoul>
-1.60023367404938

> <r_i_glide_erotb>
0.481693526222459

> <r_i_glide_esite>
-0.0461079697110769

> <r_i_glide_emodel>
-55.884403867038

> <r_i_glide_energy>
-39.8219972848892

> <r_i_glide_einternal>
1.0691043138504

> <i_i_glide_confnum>
13

> <i_i_glide_posenum>
177

> <r_i_glide_eff_state_penalty>
0

> <s_user_duplicate_titles>
CHEMBL2695_lig1936

> <s_m_subgroup_title>
dock_pv

> <s_m_subgroupid>
dock_pv

> <b_m_subgroup_collapsed>
1

$$$$
CHEMBL2695_lig232
                    3D
 Schrodinger Suite 2021-1.
 57 60  0  0  1  0            999 V2000
   12.1047    0.7630    3.6814 C   0  0  0  0  0  0
   10.7222    0.7281    3.9093 C   0  0  0  0  0  0
    9.9348   -0.1069    3.1112 C   0  0  0  0  0  0
   10.5014   -0.8651    2.0882 C   0  0  0  0  0  0
   10.0680    1.4920    4.8905 N   0  0  0  0  0  0
   10.4527    2.5840    5.6744 C   0  0  0  0  0  0
    9.4679    3.1217    6.4211 N   0  0  0  0  0  0
    9.7644    4.2270    7.1555 C   0  0  0  0  0  0
   11.0398    4.8262    7.1086 C   0  0  0  0  0  0
   11.9901    4.1856    6.3093 C   0  0  0  0  0  0
   11.7189    3.0546    5.6221 N   0  0  0  0  0  0
    8.7572    4.7586    7.9775 N   0  0  0  0  0  0
   11.4463    6.0595    7.9167 C   0  0  0  0  0  0
   11.1228    7.1493    7.2240 F   0  0  0  0  0  0
   10.8483    6.0993    9.1091 F   0  0  0  0  0  0
   12.7626    6.0832    8.1324 F   0  0  0  0  0  0
   12.6907   -0.0517    2.7112 C   0  0  0  0  0  0
   11.8789   -0.8374    1.8845 C   0  0  0  0  0  0
   12.5843   -1.5577    0.9197 N   0  0  0  0  0  0
   14.2361   -1.7851    1.4437 S   0  0  0  0  0  0
   14.1685   -0.2172    2.4548 C   0  0  0  0  0  0
   14.3222   -2.9623    2.3088 O   0  0  0  0  0  0
   15.1524   -1.6308    0.3115 O   0  0  0  0  0  0
    7.4562    4.1124    8.1938 C   0  0  0  0  0  0
    6.4325    4.2139    7.0387 C   0  0  0  0  0  0
    6.8438    4.7630    5.8091 C   0  0  0  0  0  0
    6.0032    4.8217    4.7122 C   0  0  0  0  0  0
    4.7219    4.3152    4.8150 C   0  0  0  0  0  0
    4.2681    3.8027    6.0206 C   0  0  0  0  0  0
    5.0932    3.7340    7.1525 C   0  0  0  0  0  0
    4.4937    3.2101    8.3293 N   0  0  0  0  0  0
    3.5463    1.6829    8.3361 S   0  0  0  0  0  0
    4.8604    3.7092    9.6450 C   0  0  0  0  0  0
    4.7044    0.4905    7.4768 C   0  0  0  0  0  0
    3.3747    1.2576    9.7277 O   0  0  0  0  0  0
    2.3678    1.8638    7.4827 O   0  0  0  0  0  0
   12.7587    1.3526    4.3000 H   0  0  0  0  0  0
    8.8636   -0.1445    3.2572 H   0  0  0  0  0  0
    9.8593   -1.4774    1.4722 H   0  0  0  0  0  0
    9.0837    1.2870    4.9909 H   0  0  0  0  0  0
   13.0026    4.5567    6.2261 H   0  0  0  0  0  0
    9.0334    5.4783    8.6300 H   0  0  0  0  0  0
   12.1204   -2.4115    0.6548 H   0  0  0  0  0  0
   14.6045    0.6109    1.9090 H   0  0  0  0  0  0
   14.7296   -0.3763    3.3723 H   0  0  0  0  0  0
    7.0802    4.6055    9.0832 H   0  0  0  0  0  0
    7.6027    3.0614    8.4459 H   0  0  0  0  0  0
    7.8349    5.1602    5.6671 H   0  0  0  0  0  0
    6.3509    5.2626    3.7911 H   0  0  0  0  0  0
    4.0551    4.3588    3.9681 H   0  0  0  0  0  0
    3.2385    3.4890    6.0533 H   0  0  0  0  0  0
    5.1238    4.7628    9.6072 H   0  0  0  0  0  0
    4.0021    3.6345   10.3102 H   0  0  0  0  0  0
    5.6769    3.1327   10.0799 H   0  0  0  0  0  0
    4.3234   -0.5219    7.5921 H   0  0  0  0  0  0
    4.7218    0.7644    6.4238 H   0  0  0  0  0  0
    5.7011    0.5745    7.9072 H   0  0  0  0  0  0
  1  2  2  0  0  0
  1 17  1  0  0  0
  1 37  1  0  0  0
  2  5  1  0  0  0
  2  3  1  0  0  0
  3  4  2  0  0  0
  3 38  1  0  0  0
  4 18  1  0  0  0
  4 39  1  0  0  0
  5  6  1  0  0  0
  5 40  1  0  0  0
  6 11  1  0  0  0
  6  7  2  0  0  0
  7  8  1  0  0  0
  8  9  2  0  0  0
  8 12  1  0  0  0
  9 10  1  0  0  0
  9 13  1  0  0  0
 10 11  2  0  0  0
 10 41  1  0  0  0
 12 24  1  0  0  0
 12 42  1  0  0  0
 13 14  1  0  0  0
 13 15  1  0  0  0
 13 16  1  0  0  0
 17 21  1  0  0  0
 17 18  2  0  0  0
 18 19  1  0  0  0
 19 20  1  0  0  0
 19 43  1  0  0  0
 20 21  1  0  0  0
 20 22  2  0  0  0
 20 23  2  0  0  0
 21 44  1  0  0  0
 21 45  1  0  0  0
 24 25  1  0  0  0
 24 46  1  0  0  0
 24 47  1  0  0  0
 25 26  2  0  0  0
 25 30  1  0  0  0
 26 27  1  0  0  0
 26 48  1  0  0  0
 27 28  2  0  0  0
 27 49  1  0  0  0
 28 29  1  0  0  0
 28 50  1  0  0  0
 29 30  2  0  0  0
 29 51  1  0  0  0
 30 31  1  0  0  0
 31 32  1  0  0  0
 31 33  1  0  0  0
 32 34  1  0  0  0
 32 35  2  0  0  0
 32 36  2  0  0  0
 33 52  1  0  0  0
 33 53  1  0  0  0
 33 54  1  0  0  0
 34 55  1  0  0  0
 34 56  1  0  0  0
 34 57  1  0  0  0
M  END
> <s_m_entry_id>
47797

> <s_m_entry_name>
dock_pv.330

> <s_m_Source_Path>
/home/csk/Desktop/cluster/DUD-E-result/fak1

> <s_m_Source_File>
dock_pv.maegz

> <i_m_Source_File_Index>
330

> <chembl_id>
CHEMBL452341

> <chembl_pref_name>
None

> <i_lp_mmshare_version>
53161

> <i_f3d_flags>
0

> <r_lp_tautomer_probability>
0.999999624730965

> <s_lp_Force_Field>
OPLS_2005

> <r_lp_Energy>
16.944923

> <b_lp_Chiralities_Consistent>
1

> <s_lp_Variant>
CHEMBL2695_lig232-1

> <s_i_glide_gridfile>
glide-grid_3bz3

> <i_i_glide_lignum>
265

> <i_i_glide_rotatable_bonds>
8

> <r_i_docking_score>
-6.8303644531497

> <r_i_glide_ligand_efficiency>
-0.189732345920825

> <r_i_glide_ligand_efficiency_sa>
-0.626482402244336

> <r_i_glide_ligand_efficiency_ln>
-1.4902009885554

> <r_i_glide_gscore>
-6.8303644531497

> <r_i_glide_lipo>
-2.91628612277414

> <r_i_glide_hbond>
0

> <r_i_glide_metal>
0

> <r_i_glide_rewards>
-1.56108034718899

> <r_i_glide_evdw>
-40.8633918762207

> <r_i_glide_ecoul>
-3.56337738037109

> <r_i_glide_erotb>
0.421658751010227

> <r_i_glide_esite>
-0.196980533330086

> <r_i_glide_emodel>
-57.1161574437101

> <r_i_glide_energy>
-44.4267692565918

> <r_i_glide_einternal>
9.13186931610107

> <i_i_glide_confnum>
3

> <i_i_glide_posenum>
252

> <r_i_glide_eff_state_penalty>
0

> <s_user_duplicate_titles>
CHEMBL2695_lig232,453150

> <s_m_subgroup_title>
dock_pv

> <s_m_subgroupid>
dock_pv

> <b_m_subgroup_collapsed>
1

$$$$
CHEMBL2695_lig105
                    3D
 Schrodinger Suite 2021-1.
 36 39  0  0  1  0            999 V2000
   12.9508    3.3543    6.0524 N   0  0  0  0  0  0
   11.9607    4.2591    6.3091 C   0  0  0  0  0  0
   10.6368    4.1059    6.0235 N   0  0  0  0  0  0
   12.5932    2.1643    5.5093 C   0  0  0  0  0  0
   11.2519    1.8793    5.2196 C   0  0  0  0  0  0
   10.3132    2.9150    5.5082 C   0  0  0  0  0  0
    9.0406    2.4414    5.2056 N   0  0  0  0  0  0
    9.1978    1.1632    4.7089 C   0  0  0  0  0  0
   10.5242    0.7850    4.6747 C   0  0  0  0  0  0
   12.2745    5.3542    7.1093 N   0  0  0  0  0  0
    7.7900    3.0759    5.3940 C   0  0  0  0  0  0
    6.7358    2.3631    5.9820 C   0  0  0  0  0  0
    5.4957    2.9879    6.1239 C   0  0  0  0  0  0
    5.3349    4.2994    5.6780 C   0  0  0  0  0  0
    6.4306    4.9477    5.1091 C   0  0  0  0  0  0
    7.6517    4.3630    4.9676 N   0  0  0  0  0  0
   13.5776    5.5331    7.7726 C   0  0  0  0  0  0
   13.4596    6.3414    9.0743 C   0  0  0  0  0  0
   12.8310    7.5833    8.8245 O   0  0  0  0  0  0
   11.5221    7.4134    8.3097 C   0  0  0  0  0  0
   11.5677    6.6432    6.9973 C   0  0  0  0  0  0
   13.3822    1.4504    5.3169 H   0  0  0  0  0  0
    8.3219    0.6143    4.3885 H   0  0  0  0  0  0
   10.8994   -0.1622    4.3171 H   0  0  0  0  0  0
    6.8628    1.3403    6.3096 H   0  0  0  0  0  0
    4.6684    2.4547    6.5671 H   0  0  0  0  0  0
    4.3814    4.8004    5.7656 H   0  0  0  0  0  0
    6.3217    5.9602    4.7511 H   0  0  0  0  0  0
   13.9871    4.5602    8.0436 H   0  0  0  0  0  0
   14.3039    5.9907    7.1070 H   0  0  0  0  0  0
   14.4456    6.5259    9.5006 H   0  0  0  0  0  0
   12.8933    5.7700    9.8126 H   0  0  0  0  0  0
   11.0854    8.4003    8.1559 H   0  0  0  0  0  0
   10.8916    6.8961    9.0360 H   0  0  0  0  0  0
   12.0900    7.2815    6.3009 H   0  0  0  0  0  0
   10.5477    6.5188    6.6349 H   0  0  0  0  0  0
  1  2  2  0  0  0
  1  4  1  0  0  0
  2 10  1  0  0  0
  2  3  1  0  0  0
  3  6  2  0  0  0
  4  5  2  0  0  0
  4 22  1  0  0  0
  5  6  1  0  0  0
  5  9  1  0  0  0
  6  7  1  0  0  0
  7 11  1  0  0  0
  7  8  1  0  0  0
  8  9  2  0  0  0
  8 23  1  0  0  0
  9 24  1  0  0  0
 10 17  1  0  0  0
 10 21  1  0  0  0
 11 12  2  0  0  0
 11 16  1  0  0  0
 12 13  1  0  0  0
 12 25  1  0  0  0
 13 14  2  0  0  0
 13 26  1  0  0  0
 14 15  1  0  0  0
 14 27  1  0  0  0
 15 16  2  0  0  0
 15 28  1  0  0  0
 17 18  1  0  0  0
 17 29  1  0  0  0
 17 30  1  0  0  0
 18 19  1  0  0  0
 18 31  1  0  0  0
 18 32  1  0  0  0
 19 20  1  0  0  0
 20 21  1  0  0  0
 20 33  1  0  0  0
 20 34  1  0  0  0
 21 35  1  0  0  0
 21 36  1  0  0  0
M  END
> <s_m_entry_id>
47798

> <s_m_entry_name>
dock_pv.331

> <s_m_Source_Path>
/home/csk/Desktop/cluster/DUD-E-result/fak1

> <s_m_Source_File>
dock_pv.maegz

> <i_m_Source_File_Index>
331

> <chembl_id>
CHEMBL206506

> <chembl_pref_name>
None

> <i_lp_mmshare_version>
53161

> <i_f3d_flags>
0

> <r_lp_tautomer_probability>
1

> <s_lp_Force_Field>
OPLS_2005

> <r_lp_Energy>
22.040399

> <b_lp_Chiralities_Consistent>
1

> <s_lp_Variant>
CHEMBL2695_lig105-1

> <s_i_glide_gridfile>
glide-grid_3bz3

> <i_i_glide_lignum>
127

> <i_i_glide_rotatable_bonds>
2

> <r_i_docking_score>
-6.82894579273811

> <r_i_glide_ligand_efficiency>
-0.325187894892291

> <r_i_glide_ligand_efficiency_sa>
-0.89716874417434

> <r_i_glide_ligand_efficiency_ln>
-1.68844304807021

> <r_i_glide_gscore>
-6.82894579273811

> <r_i_glide_lipo>
-2.39021749431222

> <r_i_glide_hbond>
0

> <r_i_glide_metal>
0

> <r_i_glide_rewards>
-2.70345444998639

> <r_i_glide_evdw>
-35.2172164916992

> <r_i_glide_ecoul>
-2.84071969985962

> <r_i_glide_erotb>
0.456799907620375

> <r_i_glide_esite>
-0.00510497649596701

> <r_i_glide_emodel>
-51.1382193520216

> <r_i_glide_energy>
-38.0579361915588

> <r_i_glide_einternal>
2.32576584815979

> <i_i_glide_confnum>
16

> <i_i_glide_posenum>
168

> <r_i_glide_eff_state_penalty>
0

> <s_user_duplicate_titles>
CHEMBL2695_lig105

> <s_m_subgroup_title>
dock_pv

> <s_m_subgroupid>
dock_pv

> <b_m_subgroup_collapsed>
1

$$$$
CHEMBL2695_lig1782
                    3D
 Schrodinger Suite 2021-1.
 35 38  0  0  1  0            999 V2000
   11.9745    3.7896    6.2251 C   0  0  0  0  0  0
   13.1187    3.1036    5.9090 N   0  0  0  0  0  0
   13.1070    1.9630    5.1981 N   0  0  0  0  0  0
   10.6917    3.2875    5.8707 C   0  0  0  0  0  0
   10.6921    2.0872    5.1255 C   0  0  0  0  0  0
   11.9247    1.5042    4.7928 C   0  0  0  0  0  0
   11.6425    0.4806    3.9091 N   0  0  0  0  0  0
   10.3214    0.2707    3.8177 N   0  0  0  0  0  0
    9.7418    1.1861    4.5519 C   0  0  0  0  0  0
    8.3931    1.2740    4.7109 N   0  0  0  0  0  0
   12.2233    5.0785    6.9564 C   0  0  0  0  0  0
   13.2673    5.1941    7.8910 C   0  0  0  0  0  0
   13.4651    6.3709    8.6052 C   0  0  0  0  0  0
   12.6333    7.4584    8.3744 C   0  0  0  0  0  0
   11.6307    7.3910    7.4141 C   0  0  0  0  0  0
   11.4367    6.2070    6.7093 C   0  0  0  0  0  0
    9.3683    3.9066    6.1880 C   0  0  0  0  0  0
    8.5267    4.3236    5.1458 C   0  0  0  0  0  0
    7.2067    4.6898    5.4006 C   0  0  0  0  0  0
    6.7216    4.6563    6.7065 C   0  0  0  0  0  0
    7.5677    4.3122    7.7608 C   0  0  0  0  0  0
    8.8890    3.9480    7.5010 C   0  0  0  0  0  0
   12.2920   -0.1129    3.4149 H   0  0  0  0  0  0
    7.9732    2.0805    5.1492 H   0  0  0  0  0  0
    7.7501    0.5670    4.3707 H   0  0  0  0  0  0
   13.9231    4.3611    8.0949 H   0  0  0  0  0  0
   14.2621    6.4380    9.3326 H   0  0  0  0  0  0
   12.7754    8.3622    8.9443 H   0  0  0  0  0  0
   11.0033    8.2492    7.2214 H   0  0  0  0  0  0
   10.6693    6.1617    5.9581 H   0  0  0  0  0  0
    8.8773    4.2954    4.1233 H   0  0  0  0  0  0
    6.5568    4.9737    4.5859 H   0  0  0  0  0  0
    5.6941    4.9253    6.9060 H   0  0  0  0  0  0
    7.1928    4.3035    8.7740 H   0  0  0  0  0  0
    9.5212    3.6274    8.3131 H   0  0  0  0  0  0
  1  2  2  0  0  0
  1 11  1  0  0  0
  1  4  1  0  0  0
  2  3  1  0  0  0
  3  6  2  0  0  0
  4  5  2  0  0  0
  4 17  1  0  0  0
  5  6  1  0  0  0
  5  9  1  0  0  0
  6  7  1  0  0  0
  7  8  1  0  0  0
  7 23  1  0  0  0
  8  9  2  0  0  0
  9 10  1  0  0  0
 10 24  1  0  0  0
 10 25  1  0  0  0
 11 12  2  0  0  0
 11 16  1  0  0  0
 12 13  1  0  0  0
 12 26  1  0  0  0
 13 14  2  0  0  0
 13 27  1  0  0  0
 14 15  1  0  0  0
 14 28  1  0  0  0
 15 16  2  0  0  0
 15 29  1  0  0  0
 16 30  1  0  0  0
 17 18  2  0  0  0
 17 22  1  0  0  0
 18 19  1  0  0  0
 18 31  1  0  0  0
 19 20  2  0  0  0
 19 32  1  0  0  0
 20 21  1  0  0  0
 20 33  1  0  0  0
 21 22  2  0  0  0
 21 34  1  0  0  0
 22 35  1  0  0  0
M  END
> <s_m_entry_id>
47799

> <s_m_entry_name>
dock_pv.332

> <s_m_Source_Path>
/home/csk/Desktop/cluster/DUD-E-result/fak1

> <s_m_Source_File>
dock_pv.maegz

> <i_m_Source_File_Index>
332

> <chembl_id>
CHEMBL260135

> <chembl_pref_name>
None

> <i_lp_mmshare_version>
53161

> <i_f3d_flags>
0

> <r_lp_tautomer_probability>
1

> <s_lp_Force_Field>
OPLS_2005

> <r_lp_Energy>
34.465984

> <b_lp_Chiralities_Consistent>
1

> <s_lp_Variant>
CHEMBL2695_lig1782-1

> <s_i_glide_gridfile>
glide-grid_3bz3

> <i_i_glide_lignum>
2037

> <i_i_glide_rotatable_bonds>
2

> <r_i_docking_score>
-6.82746571681169

> <r_i_glide_ligand_efficiency>
-0.310339350764168

> <r_i_glide_ligand_efficiency_sa>
-0.869583065795283

> <r_i_glide_ligand_efficiency_ln>
-1.66888165905173

> <r_i_glide_gscore>
-6.82746571681169

> <r_i_glide_lipo>
-3.65853646276123

> <r_i_glide_hbond>
-0.101351880721925

> <r_i_glide_metal>
0

> <r_i_glide_rewards>
-1.92600978559784

> <r_i_glide_evdw>
-29.6076202392578

> <r_i_glide_ecoul>
-0.25912019610405

> <r_i_glide_erotb>
0.440315458030332

> <r_i_glide_esite>
-0.062634004382525

> <r_i_glide_emodel>
-34.9320514229068

> <r_i_glide_energy>
-29.8667404353619

> <r_i_glide_einternal>
0.281109839677811

> <i_i_glide_confnum>
16

> <i_i_glide_posenum>
140

> <r_i_glide_eff_state_penalty>
0

> <s_user_duplicate_titles>
CHEMBL2695_lig1782

> <s_m_subgroup_title>
dock_pv

> <s_m_subgroupid>
dock_pv

> <b_m_subgroup_collapsed>
1

$$$$
CHEMBL2695_lig71
                    3D
 Schrodinger Suite 2021-1.
 44 47  0  0  1  0            999 V2000
   10.0213    1.3412    4.8365 N   0  0  0  0  0  0
    9.4507    2.4427    5.3741 C   0  0  0  0  0  0
   10.0917    3.5039    5.9495 N   0  0  0  0  0  0
   11.3628    1.2286    4.9179 C   0  0  0  0  0  0
   12.1384    2.2289    5.5091 C   0  0  0  0  0  0
   11.4309    3.3746    5.9799 C   0  0  0  0  0  0
   12.3828    4.2812    6.4522 N   0  0  0  0  0  0
   13.6271    3.6924    6.3090 C   0  0  0  0  0  0
   13.5217    2.4375    5.7488 C   0  0  0  0  0  0
    8.0616    2.4142    5.2860 N   0  0  0  0  0  0
    7.0442    2.9227    6.0982 C   0  0  0  0  0  0
    7.2620    3.3830    7.3973 C   0  0  0  0  0  0
    6.1840    3.7554    8.2170 C   0  0  0  0  0  0
    4.8736    3.6409    7.7104 C   0  0  0  0  0  0
    4.6535    3.2251    6.3902 C   0  0  0  0  0  0
    5.7481    2.8605    5.5983 C   0  0  0  0  0  0
    3.3423    3.1843    5.9479 O   0  0  0  0  0  0
    3.0701    2.8653    4.5878 C   0  0  0  0  0  0
    3.7604    3.9634    8.4570 O   0  0  0  0  0  0
    3.6119    3.3216    9.7166 C   0  0  0  0  0  0
    6.3449    4.2274    9.5101 O   0  0  0  0  0  0
    7.6517    4.3902   10.0508 C   0  0  0  0  0  0
   12.2306    5.5332    7.0017 C   0  0  0  0  0  0
   11.4806    6.4652    6.4769 N   0  0  0  0  0  0
   11.5222    7.5828    7.1727 C   0  0  0  0  0  0
   12.3211    7.5633    8.3092 C   0  0  0  0  0  0
   13.0619    6.0047    8.4573 S   0  0  0  0  0  0
   11.8099    0.3637    4.4611 H   0  0  0  0  0  0
   14.5063    4.2397    6.6218 H   0  0  0  0  0  0
   14.3220    1.7587    5.5095 H   0  0  0  0  0  0
    7.7542    1.6172    4.7454 H   0  0  0  0  0  0
    8.2707    3.4145    7.7736 H   0  0  0  0  0  0
    5.5987    2.4916    4.5949 H   0  0  0  0  0  0
    1.9975    2.9438    4.4070 H   0  0  0  0  0  0
    3.5657    3.5611    3.9079 H   0  0  0  0  0  0
    3.3735    1.8442    4.3498 H   0  0  0  0  0  0
    2.5527    3.1793    9.9256 H   0  0  0  0  0  0
    4.0955    2.3431    9.7650 H   0  0  0  0  0  0
    4.0124    3.9628   10.5032 H   0  0  0  0  0  0
    7.5791    4.7956   11.0613 H   0  0  0  0  0  0
    8.2460    5.0871    9.4565 H   0  0  0  0  0  0
    8.1768    3.4360   10.1144 H   0  0  0  0  0  0
   10.9512    8.4327    6.8311 H   0  0  0  0  0  0
   12.5192    8.3494    9.0244 H   0  0  0  0  0  0
  1  2  2  0  0  0
  1  4  1  0  0  0
  2 10  1  0  0  0
  2  3  1  0  0  0
  3  6  2  0  0  0
  4  5  2  0  0  0
  4 28  1  0  0  0
  5  9  1  0  0  0
  5  6  1  0  0  0
  6  7  1  0  0  0
  7  8  1  0  0  0
  7 23  1  0  0  0
  8  9  2  0  0  0
  8 29  1  0  0  0
  9 30  1  0  0  0
 10 11  1  0  0  0
 10 31  1  0  0  0
 11 16  2  0  0  0
 11 12  1  0  0  0
 12 13  2  0  0  0
 12 32  1  0  0  0
 13 14  1  0  0  0
 13 21  1  0  0  0
 14 15  2  0  0  0
 14 19  1  0  0  0
 15 16  1  0  0  0
 15 17  1  0  0  0
 16 33  1  0  0  0
 17 18  1  0  0  0
 18 34  1  0  0  0
 18 35  1  0  0  0
 18 36  1  0  0  0
 19 20  1  0  0  0
 20 37  1  0  0  0
 20 38  1  0  0  0
 20 39  1  0  0  0
 21 22  1  0  0  0
 22 40  1  0  0  0
 22 41  1  0  0  0
 22 42  1  0  0  0
 23 24  2  0  0  0
 23 27  1  0  0  0
 24 25  1  0  0  0
 25 26  2  0  0  0
 25 43  1  0  0  0
 26 27  1  0  0  0
 26 44  1  0  0  0
M  END
> <s_m_entry_id>
47800

> <s_m_entry_name>
dock_pv.333

> <s_m_Source_Path>
/home/csk/Desktop/cluster/DUD-E-result/fak1

> <s_m_Source_File>
dock_pv.maegz

> <i_m_Source_File_Index>
333

> <chembl_id>
CHEMBL205588

> <chembl_pref_name>
None

> <i_lp_mmshare_version>
53161

> <i_f3d_flags>
0

> <r_lp_tautomer_probability>
1

> <s_lp_Force_Field>
OPLS_2005

> <r_lp_Energy>
21.270624

> <b_lp_Chiralities_Consistent>
1

> <s_lp_Variant>
CHEMBL2695_lig71-1

> <s_i_glide_gridfile>
glide-grid_3bz3

> <i_i_glide_lignum>
93

> <i_i_glide_rotatable_bonds>
6

> <r_i_docking_score>
-6.82678790846042

> <r_i_glide_ligand_efficiency>
-0.252843996609645

> <r_i_glide_ligand_efficiency_sa>
-0.758531988995603

> <r_i_glide_ligand_efficiency_ln>
-1.58916367669478

> <r_i_glide_gscore>
-6.82678790846042

> <r_i_glide_lipo>
-2.85155464278442

> <r_i_glide_hbond>
0

> <r_i_glide_metal>
0

> <r_i_glide_rewards>
-2.27546128894159

> <r_i_glide_evdw>
-45.9826736450195

> <r_i_glide_ecoul>
1.62901258468628

> <r_i_glide_erotb>
0.396531084905105

> <r_i_glide_esite>
-0.0415212670914711

> <r_i_glide_emodel>
-56.4949153621181

> <r_i_glide_energy>
-44.3536610603333

> <r_i_glide_einternal>
10.9763832092285

> <i_i_glide_confnum>
6

> <i_i_glide_posenum>
390

> <r_i_glide_eff_state_penalty>
0

> <s_user_duplicate_titles>
CHEMBL2695_lig71,345079

> <s_m_subgroup_title>
dock_pv

> <s_m_subgroupid>
dock_pv

> <b_m_subgroup_collapsed>
1

$$$$
CHEMBL2695_lig2043
                    3D
 Schrodinger Suite 2021-1.
 32 34  0  0  1  0            999 V2000
   11.5225    7.4814    7.3705 I   0  0  0  0  0  0
    7.8340    3.6774    4.9497 O   0  0  0  0  0  0
    8.0714    3.4518    8.2227 O   0  0  0  0  0  0
    5.6535    1.5630    6.7092 O   0  0  0  0  0  0
    4.2338    3.9630    4.7090 O   0  0  0  0  0  0
    9.8864    3.7950    6.0546 N   0  0  0  0  0  0
    9.8108    5.0846    6.4656 N   0  0  0  0  0  0
   11.7150    2.1809    5.6715 N   0  0  0  0  0  0
   13.9097    3.0559    6.3042 N   0  0  0  0  0  0
   14.1364    5.1630    7.2967 N   0  0  0  0  0  0
    8.6803    3.0089    5.8356 C   0  0  1  0  0  0
   11.2109    3.3777    6.0138 C   0  0  0  0  0  0
   11.9727    4.4680    6.4925 C   0  0  0  0  0  0
    7.8457    2.6348    7.0798 C   0  0  2  0  0  0
   11.0234    5.5043    6.7090 C   0  0  0  0  0  0
    6.4114    2.7504    6.5573 C   0  0  1  0  0  0
    6.4866    3.2548    5.1089 C   0  0  1  0  0  0
   13.3443    4.2350    6.6541 C   0  0  0  0  0  0
   13.0666    2.1016    5.8262 C   0  0  0  0  0  0
    5.5549    4.4515    4.8380 C   0  0  0  0  0  0
    7.5457    3.1094    8.9507 H   0  0  0  0  0  0
    5.9226    0.8930    6.0592 H   0  0  0  0  0  0
    3.6241    4.7078    4.6107 H   0  0  0  0  0  0
   13.7119    6.0297    7.5902 H   0  0  0  0  0  0
   15.1201    5.0062    7.4664 H   0  0  0  0  0  0
    9.0037    2.1010    5.3214 H   0  0  0  0  0  0
    8.0785    1.5964    7.3246 H   0  0  0  0  0  0
    5.8965    3.5034    7.1577 H   0  0  0  0  0  0
    6.3237    2.4671    4.3690 H   0  0  0  0  0  0
   13.5221    1.1632    5.5513 H   0  0  0  0  0  0
    5.8270    4.9526    3.9095 H   0  0  0  0  0  0
    5.6217    5.2080    5.6211 H   0  0  0  0  0  0
  1 15  1  0  0  0
  2 11  1  0  0  0
  2 17  1  0  0  0
  3 14  1  0  0  0
  3 21  1  0  0  0
  4 16  1  0  0  0
  4 22  1  0  0  0
  5 20  1  0  0  0
  5 23  1  0  0  0
  6  7  1  0  0  0
  6 11  1  0  0  0
  6 12  1  0  0  0
  7 15  2  0  0  0
  8 12  1  0  0  0
  8 19  2  0  0  0
  9 18  2  0  0  0
  9 19  1  0  0  0
 10 18  1  0  0  0
 10 24  1  0  0  0
 10 25  1  0  0  0
 11 14  1  0  0  0
 11 26  1  0  0  0
 12 13  2  0  0  0
 13 15  1  0  0  0
 13 18  1  0  0  0
 14 16  1  0  0  0
 14 27  1  0  0  0
 16 17  1  0  0  0
 16 28  1  0  0  0
 17 20  1  0  0  0
 17 29  1  0  0  0
 19 30  1  0  0  0
 20 31  1  0  0  0
 20 32  1  0  0  0
M  END
> <s_m_entry_id>
47801

> <s_m_entry_name>
dock_pv.334

> <s_m_Source_Path>
/home/csk/Desktop/cluster/DUD-E-result/fak1

> <s_m_Source_File>
dock_pv.maegz

> <i_m_Source_File_Index>
334

> <chembl_id>
CHEMBL2001288

> <chembl_pref_name>
None

> <i_lp_mmshare_version>
53161

> <i_f3d_flags>
0

> <r_lp_tautomer_probability>
1

> <s_lp_Force_Field>
OPLS_2005

> <r_lp_Energy>
35.644649

> <b_lp_Chiralities_Consistent>
1

> <s_lp_Variant>
CHEMBL2695_lig2043-14

> <s_i_glide_gridfile>
glide-grid_3bz3

> <i_i_glide_lignum>
2437

> <i_i_glide_rotatable_bonds>
5

> <r_i_docking_score>
-6.82522391135544

> <r_i_glide_ligand_efficiency>
-0.341261195567772

> <r_i_glide_ligand_efficiency_sa>
-0.926325400184392

> <r_i_glide_ligand_efficiency_ln>
-1.70812843406167

> <r_i_glide_gscore>
-6.82522391135544

> <r_i_glide_lipo>
-1.35891519313558

> <r_i_glide_hbond>
-0.287469359166871

> <r_i_glide_metal>
0

> <r_i_glide_rewards>
-2.42880957215025

> <r_i_glide_evdw>
-27.6354904174805

> <r_i_glide_ecoul>
-10.7731857299805

> <r_i_glide_erotb>
0.252745181338646

> <r_i_glide_esite>
-0.00502258787029323

> <r_i_glide_emodel>
-52.3604811282759

> <r_i_glide_energy>
-38.4086761474609

> <r_i_glide_einternal>
4.62317371368408

> <i_i_glide_confnum>
5

> <i_i_glide_posenum>
311

> <r_i_glide_eff_state_penalty>
0

> <s_user_duplicate_titles>
CHEMBL2695_lig2043

> <s_m_subgroup_title>
dock_pv

> <s_m_subgroupid>
dock_pv

> <b_m_subgroup_collapsed>
1

$$$$
CHEMBL2695_lig2094
                    3D
 Schrodinger Suite 2021-1.
 39 41  0  0  1  0            999 V2000
   11.1521    3.4058    5.7412 C   0  0  0  0  0  0
   12.4084    2.7786    5.7647 C   0  0  0  0  0  0
   12.5879    1.5630    5.1102 C   0  0  0  0  0  0
   11.5197    0.9447    4.4583 C   0  0  0  0  0  0
   10.2674    1.5474    4.4626 C   0  0  0  0  0  0
   10.0830    2.7853    5.0746 C   0  0  0  0  0  0
   10.9995    4.7601    6.3705 C   0  0  0  0  0  0
   10.1613    4.8591    7.5092 N   0  0  0  0  0  0
    9.0044    4.2138    7.6455 N   0  0  0  0  0  0
    8.5774    4.5583    8.8375 C   0  0  0  0  0  0
    9.3815    5.3630    9.5090 N   0  0  0  0  0  0
   10.3669    5.5669    8.6697 C   0  0  0  0  0  0
    7.3716    4.1651    9.3704 N   0  0  0  0  0  0
    6.3663    3.3390    8.8260 C   0  0  0  0  0  0
    5.1314    3.3272    9.4765 C   0  0  0  0  0  0
    4.0996    2.5011    9.0381 C   0  0  0  0  0  0
    4.2968    1.7023    7.9125 C   0  0  0  0  0  0
    5.5009    1.7520    7.2190 C   0  0  0  0  0  0
    6.5403    2.5400    7.6876 C   0  0  0  0  0  0
    3.0494    0.5672    7.3432 S   0  0  0  0  0  0
    2.0955    0.3629    8.4392 O   0  0  0  0  0  0
    3.9214   -0.9283    7.1095 N   0  0  0  0  0  0
    2.6060    1.0292    6.0252 O   0  0  0  0  0  0
   11.6538    5.7230    5.9718 O   0  0  0  0  0  0
   11.4574    6.3624    8.9120 N   0  0  0  0  0  0
   13.4926    3.3791    6.3090 F   0  0  0  0  0  0
    8.8743    3.3851    4.9629 F   0  0  0  0  0  0
   13.5861    1.1628    5.0687 H   0  0  0  0  0  0
   11.6507    0.0227    3.9089 H   0  0  0  0  0  0
    9.4478    1.0743    3.9459 H   0  0  0  0  0  0
    7.0754    4.5947   10.2326 H   0  0  0  0  0  0
    4.9650    3.9620   10.3303 H   0  0  0  0  0  0
    3.1626    2.4814    9.5746 H   0  0  0  0  0  0
    5.6403    1.1633    6.3273 H   0  0  0  0  0  0
    7.4647    2.4878    7.1406 H   0  0  0  0  0  0
    4.5929   -0.8704    6.3293 H   0  0  0  0  0  0
    4.3743   -1.2510    7.9655 H   0  0  0  0  0  0
   11.5692    6.8892    9.7635 H   0  0  0  0  0  0
   12.1449    6.5271    8.1866 H   0  0  0  0  0  0
  1  2  2  0  0  0
  1  7  1  0  0  0
  1  6  1  0  0  0
  2  3  1  0  0  0
  2 26  1  0  0  0
  3  4  2  0  0  0
  3 28  1  0  0  0
  4  5  1  0  0  0
  4 29  1  0  0  0
  5  6  2  0  0  0
  5 30  1  0  0  0
  6 27  1  0  0  0
  7  8  1  0  0  0
  7 24  2  0  0  0
  8  9  1  0  0  0
  8 12  1  0  0  0
  9 10  2  0  0  0
 10 13  1  0  0  0
 10 11  1  0  0  0
 11 12  2  0  0  0
 12 25  1  0  0  0
 13 14  1  0  0  0
 13 31  1  0  0  0
 14 15  2  0  0  0
 14 19  1  0  0  0
 15 16  1  0  0  0
 15 32  1  0  0  0
 16 17  2  0  0  0
 16 33  1  0  0  0
 17 18  1  0  0  0
 17 20  1  0  0  0
 18 19  2  0  0  0
 18 34  1  0  0  0
 19 35  1  0  0  0
 20 21  2  0  0  0
 20 22  1  0  0  0
 20 23  2  0  0  0
 22 36  1  0  0  0
 22 37  1  0  0  0
 25 38  1  0  0  0
 25 39  1  0  0  0
M  END
> <s_m_entry_id>
47802

> <s_m_entry_name>
dock_pv.335

> <s_m_Source_Path>
/home/csk/Desktop/cluster/DUD-E-result/fak1

> <s_m_Source_File>
dock_pv.maegz

> <i_m_Source_File_Index>
335

> <chembl_id>
CHEMBL191003

> <chembl_pref_name>
JNJ-7706621

> <i_lp_mmshare_version>
53161

> <i_f3d_flags>
0

> <r_lp_tautomer_probability>
1

> <s_lp_Force_Field>
OPLS_2005

> <r_lp_Energy>
31.898483

> <b_lp_Chiralities_Consistent>
1

> <s_lp_Variant>
CHEMBL2695_lig2094-1

> <s_i_glide_gridfile>
glide-grid_3bz3

> <i_i_glide_lignum>
2519

> <i_i_glide_rotatable_bonds>
5

> <r_i_docking_score>
-6.82245460368164

> <r_i_glide_ligand_efficiency>
-0.252683503840061

> <r_i_glide_ligand_efficiency_sa>
-0.758050510687379

> <r_i_glide_ligand_efficiency_ln>
-1.58815495478239

> <r_i_glide_gscore>
-6.82245460368164

> <r_i_glide_lipo>
-1.45072086070365

> <r_i_glide_hbond>
-0.415421090052837

> <r_i_glide_metal>
0

> <r_i_glide_rewards>
-2.57040713486137

> <r_i_glide_evdw>
-33.0694313049316

> <r_i_glide_ecoul>
-7.22197723388672

> <r_i_glide_erotb>
0.502684924801126

> <r_i_glide_esite>
-0.151822292535318

> <r_i_glide_emodel>
-53.2144647499291

> <r_i_glide_energy>
-40.2914085388184

> <r_i_glide_einternal>
5.05675268173218

> <i_i_glide_confnum>
1

> <i_i_glide_posenum>
233

> <r_i_glide_eff_state_penalty>
0

> <s_user_duplicate_titles>
CHEMBL2695_lig2094

> <s_m_subgroup_title>
dock_pv

> <s_m_subgroupid>
dock_pv

> <b_m_subgroup_collapsed>
1

$$$$
CHEMBL2695_lig1242
                    3D
 Schrodinger Suite 2021-1.
 50 54  0  0  1  0            999 V2000
    0.7317    6.1008    7.1562 C   0  0  0  0  0  0
    1.4404    5.1460    6.3114 N   0  0  0  0  0  0
    2.1291    4.0919    6.7759 C   0  0  0  0  0  0
    2.2222    3.8258    7.9763 O   0  0  0  0  0  0
    2.8349    3.2500    5.7301 C   0  0  0  0  0  0
    2.1744    2.9654    4.5208 C   0  0  0  0  0  0
    2.7837    2.1874    3.5379 C   0  0  0  0  0  0
    4.0611    1.6787    3.7477 C   0  0  0  0  0  0
    4.7348    1.9646    4.9304 C   0  0  0  0  0  0
    4.1490    2.7572    5.9271 C   0  0  0  0  0  0
    4.8551    3.0759    7.1022 N   0  0  0  0  0  0
    6.2112    3.2520    7.3979 C   0  0  0  0  0  0
    7.1522    3.0945    6.4277 N   0  0  0  0  0  0
    8.4368    3.3817    6.7565 C   0  0  0  0  0  0
    9.3993    3.0228    5.8089 N   0  0  0  0  0  0
   10.7957    3.1476    5.8900 C   0  0  0  0  0  0
   11.6018    2.0703    5.5090 C   0  0  0  0  0  0
   12.9931    2.1234    5.6135 C   0  0  0  0  0  0
   13.6382    3.2613    6.1059 C   0  0  0  0  0  0
   12.8645    4.3630    6.5033 C   0  0  0  0  0  0
   13.1245    5.6270    7.1091 C   0  0  0  0  0  0
   11.8971    6.2621    7.2159 C   0  0  0  0  0  0
   10.8843    5.4766    6.7592 O   0  0  0  0  0  0
   11.4582    4.2983    6.3620 C   0  0  0  0  0  0
    8.8482    3.8539    7.9617 N   0  0  0  0  0  0
    7.8918    3.9709    8.9026 C   0  0  0  0  0  0
    8.1027    4.4235   10.1998 N   0  0  0  0  0  0
    6.8690    4.3194   10.9683 C   0  0  0  0  0  0
    5.7955    3.9290    9.9400 C   0  0  0  0  0  0
    6.5684    3.6632    8.6833 C   0  0  0  0  0  0
    0.0539    6.6993    6.5492 H   0  0  0  0  0  0
    1.4403    6.7735    7.6421 H   0  0  0  0  0  0
    0.1480    5.5938    7.9271 H   0  0  0  0  0  0
    1.6000    5.4184    5.3460 H   0  0  0  0  0  0
    1.1774    3.3362    4.3329 H   0  0  0  0  0  0
    2.2594    1.9716    2.6184 H   0  0  0  0  0  0
    4.5402    1.0657    3.0011 H   0  0  0  0  0  0
    5.7280    1.5631    5.0639 H   0  0  0  0  0  0
    4.2475    3.3816    7.8510 H   0  0  0  0  0  0
    9.0383    2.4013    5.1005 H   0  0  0  0  0  0
   11.1405    1.1659    5.1405 H   0  0  0  0  0  0
   13.5803    1.2657    5.3148 H   0  0  0  0  0  0
   14.7119    3.2833    6.1964 H   0  0  0  0  0  0
   14.0778    6.0339    7.4182 H   0  0  0  0  0  0
   11.5976    7.2307    7.5918 H   0  0  0  0  0  0
    8.9385    4.6655   10.7051 H   0  0  0  0  0  0
    6.9757    3.5632   11.7468 H   0  0  0  0  0  0
    6.6368    5.2699   11.4502 H   0  0  0  0  0  0
    5.1220    4.7628    9.7934 H   0  0  0  0  0  0
    5.2311    3.0638   10.2899 H   0  0  0  0  0  0
  1  2  1  0  0  0
  1 31  1  0  0  0
  1 32  1  0  0  0
  1 33  1  0  0  0
  2  3  1  0  0  0
  2 34  1  0  0  0
  3  4  2  0  0  0
  3  5  1  0  0  0
  5  6  2  0  0  0
  5 10  1  0  0  0
  6  7  1  0  0  0
  6 35  1  0  0  0
  7  8  2  0  0  0
  7 36  1  0  0  0
  8  9  1  0  0  0
  8 37  1  0  0  0
  9 10  2  0  0  0
  9 38  1  0  0  0
 10 11  1  0  0  0
 11 12  1  0  0  0
 11 39  1  0  0  0
 12 13  2  0  0  0
 12 30  1  0  0  0
 13 14  1  0  0  0
 14 15  1  0  0  0
 14 25  2  0  0  0
 15 16  1  0  0  0
 15 40  1  0  0  0
 16 17  2  0  0  0
 16 24  1  0  0  0
 17 18  1  0  0  0
 17 41  1  0  0  0
 18 19  2  0  0  0
 18 42  1  0  0  0
 19 20  1  0  0  0
 19 43  1  0  0  0
 20 21  1  0  0  0
 20 24  2  0  0  0
 21 22  2  0  0  0
 21 44  1  0  0  0
 22 23  1  0  0  0
 22 45  1  0  0  0
 23 24  1  0  0  0
 25 26  1  0  0  0
 26 27  1  0  0  0
 26 30  2  0  0  0
 27 28  1  0  0  0
 27 46  1  0  0  0
 28 29  1  0  0  0
 28 47  1  0  0  0
 28 48  1  0  0  0
 29 30  1  0  0  0
 29 49  1  0  0  0
 29 50  1  0  0  0
M  END
> <s_m_entry_id>
47803

> <s_m_entry_name>
dock_pv.336

> <s_m_Source_Path>
/home/csk/Desktop/cluster/DUD-E-result/fak1

> <s_m_Source_File>
dock_pv.maegz

> <i_m_Source_File_Index>
336

> <chembl_id>
CHEMBL3966923

> <chembl_pref_name>
None

> <i_lp_mmshare_version>
53161

> <i_f3d_flags>
0

> <r_lp_tautomer_probability>
1

> <s_lp_Force_Field>
OPLS_2005

> <r_lp_Energy>
34.185038

> <b_lp_Chiralities_Consistent>
1

> <s_lp_Variant>
CHEMBL2695_lig1242-1

> <s_i_glide_gridfile>
glide-grid_3bz3

> <i_i_glide_lignum>
1346

> <i_i_glide_rotatable_bonds>
6

> <r_i_docking_score>
-6.8203699650677

> <r_i_glide_ligand_efficiency>
-0.227345665502257

> <r_i_glide_ligand_efficiency_sa>
-0.706415841135439

> <r_i_glide_ligand_efficiency_ln>
-1.54966236994623

> <r_i_glide_gscore>
-6.8203699650677

> <r_i_glide_lipo>
-3.41721618795061

> <r_i_glide_hbond>
-0.32

> <r_i_glide_metal>
0

> <r_i_glide_rewards>
-0.998700037308758

> <r_i_glide_evdw>
-42.1371574401855

> <r_i_glide_ecoul>
-3.6495680809021

> <r_i_glide_erotb>
0.61130774308872

> <r_i_glide_esite>
-0.041468398752463

> <r_i_glide_emodel>
-63.4314112301174

> <r_i_glide_energy>
-45.7867255210876

> <r_i_glide_einternal>
5.24473476409912

> <i_i_glide_confnum>
67

> <i_i_glide_posenum>
234

> <r_i_glide_eff_state_penalty>
0

> <s_user_duplicate_titles>
CHEMBL2695_lig1242

> <s_m_subgroup_title>
dock_pv

> <s_m_subgroupid>
dock_pv

> <b_m_subgroup_collapsed>
1

$$$$
CHEMBL2695_lig2082
                    3D
 Schrodinger Suite 2021-1.
 49 52  0  0  1  0            999 V2000
    3.4640   -0.7042    6.7615 N   0  0  0  0  0  0
    5.6783    5.2461    5.1083 N   0  0  0  0  0  0
    3.1219    2.6595    9.9090 N   0  0  0  0  0  0
   13.9477    3.1591    6.3080 N   0  0  0  0  0  0
    3.6126    1.5510    7.0269 C   0  0  0  0  0  0
    2.9498    1.2654    5.7803 C   0  0  0  0  0  0
    2.8770   -0.1544    5.6357 C   0  0  0  0  0  0
    3.9292    2.9374    7.5745 C   0  0  2  0  0  0
    3.8996    0.3131    7.5772 C   0  0  0  0  0  0
    5.0324    3.5846    6.7437 C   0  0  0  0  0  0
    2.4117    2.0740    4.7621 C   0  0  0  0  0  0
    2.2976   -0.7573    4.5100 C   0  0  0  0  0  0
    6.3503    3.1045    6.7788 C   0  0  0  0  0  0
    4.2792    2.9602    9.0815 C   0  0  0  0  0  0
    4.7500    4.6683    5.9078 C   0  0  0  0  0  0
    1.8340    1.4712    3.6457 C   0  0  0  0  0  0
    7.3362    3.7141    5.9947 C   0  0  0  0  0  0
    1.7813    0.0869    3.5262 C   0  0  0  0  0  0
    3.6529   -2.1221    7.0163 C   0  0  0  0  0  0
    6.9440    4.7633    5.1565 C   0  0  0  0  0  0
    8.7422    3.2938    6.0985 C   0  0  0  0  0  0
    9.7901    4.1411    6.0327 C   0  0  0  0  0  0
   11.2163    3.7832    6.1052 C   0  0  0  0  0  0
   12.1461    4.7603    6.4936 C   0  0  0  0  0  0
   11.6792    2.4891    5.8195 C   0  0  0  0  0  0
   13.4927    4.4047    6.5947 C   0  0  0  0  0  0
   13.0478    2.2281    5.9088 C   0  0  0  0  0  0
    3.4515    2.6822   10.8741 H   0  0  0  0  0  0
    2.4669    3.4248    9.8201 H   0  0  0  0  0  0
    3.0325    3.5516    7.4612 H   0  0  0  0  0  0
    4.4133    0.0774    8.4994 H   0  0  0  0  0  0
    2.4509    3.1484    4.8358 H   0  0  0  0  0  0
    2.2588   -1.8301    4.3959 H   0  0  0  0  0  0
    6.6057    2.2744    7.4222 H   0  0  0  0  0  0
    5.0792    2.2567    9.3099 H   0  0  0  0  0  0
    4.6420    3.9501    9.3657 H   0  0  0  0  0  0
    3.7544    5.0837    5.8501 H   0  0  0  0  0  0
    1.4275    2.0874    2.8569 H   0  0  0  0  0  0
    1.3339   -0.3441    2.6413 H   0  0  0  0  0  0
    2.6915   -2.6333    6.9426 H   0  0  0  0  0  0
    4.3332   -2.5286    6.2658 H   0  0  0  0  0  0
    4.0721   -2.2798    8.0099 H   0  0  0  0  0  0
    7.6572    5.2499    4.5117 H   0  0  0  0  0  0
    8.9091    2.2321    6.2216 H   0  0  0  0  0  0
    9.5861    5.1943    5.9067 H   0  0  0  0  0  0
   11.8293    5.7671    6.7279 H   0  0  0  0  0  0
   11.0022    1.7070    5.5086 H   0  0  0  0  0  0
   14.2326    5.1287    6.9091 H   0  0  0  0  0  0
   13.4418    1.2468    5.6828 H   0  0  0  0  0  0
  1  7  1  0  0  0
  1  9  1  0  0  0
  1 19  1  0  0  0
  2 15  1  0  0  0
  2 20  2  0  0  0
  3 14  1  0  0  0
  3 28  1  0  0  0
  3 29  1  0  0  0
  4 26  2  0  0  0
  4 27  1  0  0  0
  5  6  1  0  0  0
  5  8  1  0  0  0
  5  9  2  0  0  0
  6  7  1  0  0  0
  6 11  2  0  0  0
  7 12  2  0  0  0
  8 10  1  0  0  0
  8 14  1  0  0  0
  8 30  1  0  0  0
  9 31  1  0  0  0
 10 13  1  0  0  0
 10 15  2  0  0  0
 11 16  1  0  0  0
 11 32  1  0  0  0
 12 18  1  0  0  0
 12 33  1  0  0  0
 13 17  2  0  0  0
 13 34  1  0  0  0
 14 35  1  0  0  0
 14 36  1  0  0  0
 15 37  1  0  0  0
 16 18  2  0  0  0
 16 38  1  0  0  0
 17 20  1  0  0  0
 17 21  1  0  0  0
 18 39  1  0  0  0
 19 40  1  0  0  0
 19 41  1  0  0  0
 19 42  1  0  0  0
 20 43  1  0  0  0
 21 22  2  3  0  0
 21 44  1  0  0  0
 22 23  1  0  0  0
 22 45  1  0  0  0
 23 24  2  0  0  0
 23 25  1  0  0  0
 24 26  1  0  0  0
 24 46  1  0  0  0
 25 27  2  0  0  0
 25 47  1  0  0  0
 26 48  1  0  0  0
 27 49  1  0  0  0
M  END
> <s_m_entry_id>
47804

> <s_m_entry_name>
dock_pv.337

> <s_m_Source_Path>
/home/csk/Desktop/cluster/DUD-E-result/fak1

> <s_m_Source_File>
dock_pv.maegz

> <i_m_Source_File_Index>
337

> <chembl_id>
CHEMBL1979357

> <chembl_pref_name>
None

> <i_lp_mmshare_version>
53161

> <i_f3d_flags>
0

> <r_lp_tautomer_probability>
1

> <s_lp_Force_Field>
OPLS_2005

> <r_lp_Energy>
16.461406

> <b_lp_Chiralities_Consistent>
1

> <s_lp_Variant>
CHEMBL2695_lig2082-1

> <s_i_glide_gridfile>
glide-grid_3bz3

> <i_i_glide_lignum>
2502

> <i_i_glide_rotatable_bonds>
5

> <r_i_docking_score>
-6.81937687121402

> <r_i_glide_ligand_efficiency>
-0.252569513748667

> <r_i_glide_ligand_efficiency_sa>
-0.757708540413574

> <r_i_glide_ligand_efficiency_ln>
-1.58743850940432

> <r_i_glide_gscore>
-6.81937687121402

> <r_i_glide_lipo>
-2.56260071942284

> <r_i_glide_hbond>
-0.482318607723489

> <r_i_glide_metal>
0

> <r_i_glide_rewards>
-1.65870821795744

> <r_i_glide_evdw>
-33.8700485229492

> <r_i_glide_ecoul>
-6.37278127670288

> <r_i_glide_erotb>
0.608401484509282

> <r_i_glide_esite>
-0.0747311929666425

> <r_i_glide_emodel>
-54.7520319561657

> <r_i_glide_energy>
-40.2428297996521

> <r_i_glide_einternal>
3.2913134098053

> <i_i_glide_confnum>
12

> <i_i_glide_posenum>
145

> <r_i_glide_eff_state_penalty>
0

> <s_user_duplicate_titles>
CHEMBL2695_lig2082

> <s_m_subgroup_title>
dock_pv

> <s_m_subgroupid>
dock_pv

> <b_m_subgroup_collapsed>
1

$$$$
CHEMBL2695_lig1842
                    3D
 Schrodinger Suite 2021-1.
 31 33  0  0  1  0            999 V2000
   10.4093    2.3433    5.5821 Cl  0  0  0  0  0  0
    5.1271    4.2346    7.8618 O   0  0  0  0  0  0
    5.2166    5.0855    5.6327 N   0  0  0  0  0  0
    6.0796    5.1630    4.6218 N   0  0  0  0  0  0
    5.1237    3.5630    9.9090 N   0  0  0  0  0  0
    8.5319    2.3630   10.7090 N   0  0  0  0  0  0
    7.0597    4.0682    6.3449 C   0  0  0  0  0  0
    7.9928    3.3932    7.3541 C   0  0  2  0  0  0
    5.7779    4.4366    6.6834 C   0  0  0  0  0  0
    7.2095    3.2703    8.6845 C   0  0  0  0  0  0
    9.3619    4.0938    7.4411 C   0  0  0  0  0  0
    7.1695    4.5292    5.0276 C   0  0  0  0  0  0
    5.9060    3.6444    8.8060 C   0  0  0  0  0  0
   10.4511    3.7285    6.6216 C   0  0  0  0  0  0
    7.9116    2.7468    9.8116 C   0  0  0  0  0  0
    9.5305    5.1630    8.3322 C   0  0  0  0  0  0
    8.3220    4.3392    4.0854 C   0  0  0  0  0  0
   11.6297    4.4792    6.6432 C   0  0  0  0  0  0
   10.7220    5.8931    8.3673 C   0  0  0  0  0  0
   11.7656    5.5630    7.5081 C   0  0  0  0  0  0
    4.2791    5.4637    5.5943 H   0  0  0  0  0  0
    5.3878    3.0332   10.7310 H   0  0  0  0  0  0
    4.3426    4.1978   10.0098 H   0  0  0  0  0  0
    8.1930    2.3590    7.0729 H   0  0  0  0  0  0
    8.7192    5.4652    8.9792 H   0  0  0  0  0  0
    8.4926    3.2788    3.9090 H   0  0  0  0  0  0
    8.1208    4.7630    3.1090 H   0  0  0  0  0  0
    9.2537    4.7629    4.4483 H   0  0  0  0  0  0
   12.4531    4.2056    5.9997 H   0  0  0  0  0  0
   10.8277    6.7266    9.0461 H   0  0  0  0  0  0
   12.6840    6.1317    7.5251 H   0  0  0  0  0  0
  1 14  1  0  0  0
  2  9  1  0  0  0
  2 13  1  0  0  0
  3  4  1  0  0  0
  3  9  1  0  0  0
  3 21  1  0  0  0
  4 12  2  0  0  0
  5 13  1  0  0  0
  5 22  1  0  0  0
  5 23  1  0  0  0
  6 15  3  0  0  0
  7  8  1  0  0  0
  7  9  2  0  0  0
  7 12  1  0  0  0
  8 10  1  0  0  0
  8 11  1  0  0  0
  8 24  1  0  0  0
 10 13  2  0  0  0
 10 15  1  0  0  0
 11 14  1  0  0  0
 11 16  2  0  0  0
 12 17  1  0  0  0
 14 18  2  0  0  0
 16 19  1  0  0  0
 16 25  1  0  0  0
 17 26  1  0  0  0
 17 27  1  0  0  0
 17 28  1  0  0  0
 18 20  1  0  0  0
 18 29  1  0  0  0
 19 20  2  0  0  0
 19 30  1  0  0  0
 20 31  1  0  0  0
M  END
> <s_m_entry_id>
47806

> <s_m_entry_name>
dock_pv.339

> <s_m_Source_Path>
/home/csk/Desktop/cluster/DUD-E-result/fak1

> <s_m_Source_File>
dock_pv.maegz

> <i_m_Source_File_Index>
339

> <chembl_id>
CHEMBL1970189

> <chembl_pref_name>
None

> <i_lp_mmshare_version>
53161

> <i_f3d_flags>
0

> <r_lp_tautomer_probability>
1

> <s_lp_Force_Field>
OPLS_2005

> <r_lp_Energy>
21.914529

> <b_lp_Chiralities_Consistent>
1

> <s_lp_Variant>
CHEMBL2695_lig1842-1

> <s_i_glide_gridfile>
glide-grid_3bz3

> <i_i_glide_lignum>
2123

> <i_i_glide_rotatable_bonds>
1

> <r_i_docking_score>
-6.81192549849509

> <r_i_glide_ligand_efficiency>
-0.340596274924754

> <r_i_glide_ligand_efficiency_sa>
-0.92452052787915

> <r_i_glide_ligand_efficiency_ln>
-1.70480027993373

> <r_i_glide_gscore>
-6.81192549849509

> <r_i_glide_lipo>
-2.6299008362015

> <r_i_glide_hbond>
-0.466068613875717

> <r_i_glide_metal>
0

> <r_i_glide_rewards>
-1.8768159937152

> <r_i_glide_evdw>
-24.1089992523193

> <r_i_glide_ecoul>
-5.69769525527954

> <r_i_glide_erotb>
0.220964196205222

> <r_i_glide_esite>
0

> <r_i_glide_emodel>
-39.007628866894

> <r_i_glide_energy>
-29.8066945075989

> <r_i_glide_einternal>
2.95918202400208

> <i_i_glide_confnum>
1

> <i_i_glide_posenum>
138

> <r_i_glide_eff_state_penalty>
0

> <s_user_duplicate_titles>
CHEMBL2695_lig1842

> <s_m_subgroup_title>
dock_pv

> <s_m_subgroupid>
dock_pv

> <b_m_subgroup_collapsed>
1

$$$$
CHEMBL2695_lig230
                    3D
 Schrodinger Suite 2021-1.
 63 67  0  0  1  0            999 V2000
    6.2683    2.3615    8.0596 C   0  0  0  0  0  0
    6.3219    3.2228    9.1588 C   0  0  0  0  0  0
    5.1382    3.5731    9.8121 C   0  0  0  0  0  0
    3.8938    3.1639    9.3307 C   0  0  0  0  0  0
    7.5078    3.8041    9.6268 N   0  0  0  0  0  0
    8.6017    4.3671    8.9591 C   0  0  0  0  0  0
    8.8294    4.1490    7.6362 N   0  0  0  0  0  0
    9.9227    4.7629    7.0890 C   0  0  0  0  0  0
   10.7557    5.6082    7.8370 C   0  0  0  0  0  0
   10.4200    5.7737    9.1718 C   0  0  0  0  0  0
    9.3574    5.1630    9.7473 N   0  0  0  0  0  0
   10.2584    4.5724    5.7435 N   0  0  0  0  0  0
   11.9559    6.3503    7.2516 C   0  0  0  0  0  0
   12.8008    5.4742    6.7090 F   0  0  0  0  0  0
   11.5219    7.1965    6.3170 F   0  0  0  0  0  0
   12.6231    7.0533    8.1684 F   0  0  0  0  0  0
    8.1654    3.9013    4.5348 C   0  0  0  0  0  0
    9.6349    3.6052    4.8544 C   0  0  2  0  0  0
    9.8001    2.1278    5.2797 C   0  0  1  0  0  0
    8.4687    1.4715    4.8623 C   0  0  0  0  0  0
    7.4261    2.5853    4.7164 C   0  0  0  0  0  0
   11.0385    1.5568    4.7087 N   0  0  0  0  0  0
   11.0610    0.1093    4.5159 C   0  0  0  0  0  0
   12.2433    1.9624    5.4382 C   0  0  0  0  0  0
    3.8975   -0.1081    6.7105 C   0  0  0  0  0  0
    2.5894    0.3633    7.3878 C   0  0  0  0  0  0
    2.6922    1.9031    7.3125 C   0  0  2  0  0  0
    4.5849    1.2168    6.3112 C   0  0  1  0  0  0
    3.4018    2.0156    6.0484 N   0  0  0  0  0  0
    3.8442    2.3844    8.1820 C   0  0  0  0  0  0
    5.0213    1.9716    7.5588 C   0  0  0  0  0  0
    3.1025    2.7189    4.9327 C   0  0  0  0  0  0
    1.7827    3.4861    4.8973 C   0  0  0  0  0  0
    3.8453    2.7629    3.9511 O   0  0  0  0  0  0
    7.1861    2.0505    7.5874 H   0  0  0  0  0  0
    5.1670    4.2212   10.6772 H   0  0  0  0  0  0
    2.9959    3.5003    9.8273 H   0  0  0  0  0  0
    7.4637    4.0938   10.5906 H   0  0  0  0  0  0
   11.0187    6.4065    9.8099 H   0  0  0  0  0  0
   11.2146    4.8037    5.5236 H   0  0  0  0  0  0
    7.7348    4.6840    5.1629 H   0  0  0  0  0  0
    8.0724    4.2549    3.5091 H   0  0  0  0  0  0
   10.1525    3.7044    3.9091 H   0  0  0  0  0  0
    9.8492    2.0321    6.3639 H   0  0  0  0  0  0
    8.5323    0.9594    3.9090 H   0  0  0  0  0  0
    8.1290    0.7635    5.6165 H   0  0  0  0  0  0
    6.8155    2.6811    5.6001 H   0  0  0  0  0  0
    6.7322    2.3618    3.9091 H   0  0  0  0  0  0
   10.2067   -0.2567    3.9513 H   0  0  0  0  0  0
   11.9227   -0.1652    3.9086 H   0  0  0  0  0  0
   11.1081   -0.4218    5.4668 H   0  0  0  0  0  0
   12.3309    3.0453    5.5096 H   0  0  0  0  0  0
   12.2634    1.5632    6.4510 H   0  0  0  0  0  0
   13.1409    1.6092    4.9284 H   0  0  0  0  0  0
    4.5272   -0.7033    7.3723 H   0  0  0  0  0  0
    3.6892   -0.7107    5.8254 H   0  0  0  0  0  0
    2.5011    0.0087    8.4145 H   0  0  0  0  0  0
    1.7195    0.0068    6.8344 H   0  0  0  0  0  0
    1.7538    2.4517    7.3983 H   0  0  0  0  0  0
    5.2885    1.1632    5.4826 H   0  0  0  0  0  0
    0.9533    2.8523    5.2085 H   0  0  0  0  0  0
    1.5715    3.8435    3.8886 H   0  0  0  0  0  0
    1.8342    4.3530    5.5557 H   0  0  0  0  0  0
  1  2  2  0  0  0
  1 31  1  0  0  0
  1 35  1  0  0  0
  2  5  1  0  0  0
  2  3  1  0  0  0
  3  4  2  0  0  0
  3 36  1  0  0  0
  4 30  1  0  0  0
  4 37  1  0  0  0
  5  6  1  0  0  0
  5 38  1  0  0  0
  6  7  2  0  0  0
  6 11  1  0  0  0
  7  8  1  0  0  0
  8  9  2  0  0  0
  8 12  1  0  0  0
  9 10  1  0  0  0
  9 13  1  0  0  0
 10 11  2  0  0  0
 10 39  1  0  0  0
 12 18  1  0  0  0
 12 40  1  0  0  0
 13 16  1  0  0  0
 13 14  1  0  0  0
 13 15  1  0  0  0
 17 18  1  0  0  0
 17 21  1  0  0  0
 17 41  1  0  0  0
 17 42  1  0  0  0
 18 19  1  0  0  0
 18 43  1  0  0  0
 19 20  1  0  0  0
 19 22  1  0  0  0
 19 44  1  0  0  0
 20 21  1  0  0  0
 20 45  1  0  0  0
 20 46  1  0  0  0
 21 47  1  0  0  0
 21 48  1  0  0  0
 22 23  1  0  0  0
 22 24  1  0  0  0
 23 49  1  0  0  0
 23 50  1  0  0  0
 23 51  1  0  0  0
 24 52  1  0  0  0
 24 53  1  0  0  0
 24 54  1  0  0  0
 25 26  1  0  0  0
 25 28  1  0  0  0
 25 55  1  0  0  0
 25 56  1  0  0  0
 26 27  1  0  0  0
 26 57  1  0  0  0
 26 58  1  0  0  0
 27 29  1  0  0  0
 27 30  1  0  0  0
 27 59  1  0  0  0
 28 29  1  0  0  0
 28 31  1  0  0  0
 28 60  1  0  0  0
 29 32  1  0  0  0
 30 31  2  0  0  0
 32 33  1  0  0  0
 32 34  2  0  0  0
 33 61  1  0  0  0
 33 62  1  0  0  0
 33 63  1  0  0  0
M  END
> <s_m_entry_id>
47807

> <s_m_entry_name>
dock_pv.340

> <s_m_Source_Path>
/home/csk/Desktop/cluster/DUD-E-result/fak1

> <s_m_Source_File>
dock_pv.maegz

> <i_m_Source_File_Index>
340

> <chembl_id>
CHEMBL455680

> <chembl_pref_name>
None

> <i_lp_mmshare_version>
53161

> <i_f3d_flags>
0

> <r_lp_tautomer_probability>
0.999999624730965

> <s_lp_Force_Field>
OPLS_2005

> <r_lp_Energy>
91.243087

> <b_lp_Chiralities_Consistent>
1

> <s_lp_Variant>
CHEMBL2695_lig230-2

> <s_i_glide_gridfile>
glide-grid_3bz3

> <i_i_glide_lignum>
263

> <i_i_glide_rotatable_bonds>
7

> <r_i_docking_score>
-6.81024950910398

> <r_i_glide_ligand_efficiency>
-0.200301456150117

> <r_i_glide_ligand_efficiency_sa>
-0.648898960394233

> <r_i_glide_ligand_efficiency_ln>
-1.50457513758949

> <r_i_glide_gscore>
-6.81024950910398

> <r_i_glide_lipo>
-2.20426047992093

> <r_i_glide_hbond>
-0.438685521822588

> <r_i_glide_metal>
0

> <r_i_glide_rewards>
-2.36186698794928

> <r_i_glide_evdw>
-36.2647857666016

> <r_i_glide_ecoul>
-2.29064297676086

> <r_i_glide_erotb>
0.359470519067837

> <r_i_glide_esite>
-0.00807130363481322

> <r_i_glide_emodel>
-43.8963042775266

> <r_i_glide_energy>
-38.5554287433624

> <r_i_glide_einternal>
15.1506414413452

> <i_i_glide_confnum>
20

> <i_i_glide_posenum>
44

> <r_i_glide_eff_state_penalty>
0

> <s_user_duplicate_titles>
CHEMBL2695_lig230,453087

> <s_m_subgroup_title>
dock_pv

> <s_m_subgroupid>
dock_pv

> <b_m_subgroup_collapsed>
1

$$$$
CHEMBL2695_lig1716
                    3D
 Schrodinger Suite 2021-1.
 40 43  0  0  1  0            999 V2000
    5.5244    4.7499    5.1094 S   0  0  0  0  0  0
   11.8929    1.3280    5.1106 O   0  0  0  0  0  0
   13.3582    2.9296    5.7645 O   0  0  0  0  0  0
    1.1115    2.1358    9.0387 O   0  0  0  0  0  0
    6.2205    3.4301    9.3850 N   0  0  0  0  0  0
    8.5075    3.5631    9.0505 N   0  0  0  0  0  0
    1.9216    3.9611   10.1125 N   0  0  0  0  0  0
    6.9976    3.9900    7.1576 C   0  0  0  0  0  0
    7.9063    4.1479    6.0481 C   0  0  0  0  0  0
    5.6277    4.2098    6.7848 C   0  0  0  0  0  0
    9.3667    3.8748    6.0344 C   0  0  0  0  0  0
    7.2254    3.6558    8.5128 C   0  0  0  0  0  0
    4.5605    4.0030    7.6968 C   0  0  0  0  0  0
    7.2401    4.5666    4.9196 C   0  0  0  0  0  0
   11.2022    2.4233    5.5233 C   0  0  0  0  0  0
    9.8270    2.6348    5.5576 C   0  0  0  0  0  0
   12.0882    3.3916    5.9090 C   0  0  0  0  0  0
   10.2842    4.8718    6.4143 C   0  0  0  0  0  0
    4.9441    3.5629    8.9695 C   0  0  0  0  0  0
   11.6654    4.6408    6.3495 C   0  0  0  0  0  0
    3.1510    4.2311    7.2577 C   0  0  0  0  0  0
   13.2276    1.5629    5.4788 C   0  0  0  0  0  0
    1.9408    3.9124    7.7783 C   0  0  0  0  0  0
    1.6536    3.2403    9.0141 C   0  0  0  0  0  0
    1.6648    3.4787   11.4600 C   0  0  0  0  0  0
    9.3045    3.6079    8.4302 H   0  0  0  0  0  0
    8.6046    3.2470   10.0041 H   0  0  0  0  0  0
    2.3990    4.8529   10.0146 H   0  0  0  0  0  0
    7.6821    4.7635    3.9533 H   0  0  0  0  0  0
    9.1314    1.8730    5.2332 H   0  0  0  0  0  0
    9.9246    5.8341    6.7496 H   0  0  0  0  0  0
    4.2380    3.3357    9.7471 H   0  0  0  0  0  0
   12.3687    5.4075    6.6379 H   0  0  0  0  0  0
    3.0671    4.7613    6.3197 H   0  0  0  0  0  0
   13.9123    1.2663    4.6822 H   0  0  0  0  0  0
   13.4580    0.9850    6.3762 H   0  0  0  0  0  0
    1.0483    4.1855    7.2357 H   0  0  0  0  0  0
    2.3224    3.9632   12.1740 H   0  0  0  0  0  0
    1.8574    2.4081   11.5226 H   0  0  0  0  0  0
    0.6333    3.6785   11.7485 H   0  0  0  0  0  0
  1 10  1  0  0  0
  1 14  1  0  0  0
  2 15  1  0  0  0
  2 22  1  0  0  0
  3 17  1  0  0  0
  3 22  1  0  0  0
  4 24  2  0  0  0
  5 12  2  0  0  0
  5 19  1  0  0  0
  6 12  1  0  0  0
  6 26  1  0  0  0
  6 27  1  0  0  0
  7 24  1  0  0  0
  7 25  1  0  0  0
  7 28  1  0  0  0
  8  9  1  0  0  0
  8 10  2  0  0  0
  8 12  1  0  0  0
  9 11  1  0  0  0
  9 14  2  0  0  0
 10 13  1  0  0  0
 11 16  1  0  0  0
 11 18  2  0  0  0
 13 19  2  0  0  0
 13 21  1  0  0  0
 14 29  1  0  0  0
 15 16  2  0  0  0
 15 17  1  0  0  0
 16 30  1  0  0  0
 17 20  2  0  0  0
 18 20  1  0  0  0
 18 31  1  0  0  0
 19 32  1  0  0  0
 20 33  1  0  0  0
 21 23  2  3  0  0
 21 34  1  0  0  0
 22 35  1  0  0  0
 22 36  1  0  0  0
 23 24  1  0  0  0
 23 37  1  0  0  0
 25 38  1  0  0  0
 25 39  1  0  0  0
 25 40  1  0  0  0
M  END
> <s_m_entry_id>
47808

> <s_m_entry_name>
dock_pv.341

> <s_m_Source_Path>
/home/csk/Desktop/cluster/DUD-E-result/fak1

> <s_m_Source_File>
dock_pv.maegz

> <i_m_Source_File_Index>
341

> <chembl_id>
CHEMBL1993243

> <chembl_pref_name>
None

> <i_lp_mmshare_version>
53161

> <i_f3d_flags>
0

> <r_lp_tautomer_probability>
1

> <s_lp_Force_Field>
OPLS_2005

> <r_lp_Energy>
37.137365

> <b_lp_Chiralities_Consistent>
1

> <s_lp_Variant>
CHEMBL2695_lig1716-2

> <s_i_glide_gridfile>
glide-grid_3bz3

> <i_i_glide_lignum>
1945

> <i_i_glide_rotatable_bonds>
4

> <r_i_docking_score>
-6.80539285206231

> <r_i_glide_ligand_efficiency>
-0.272215714082492

> <r_i_glide_ligand_efficiency_sa>
-0.795963575743453

> <r_i_glide_ligand_efficiency_ln>
-1.6130820471055

> <r_i_glide_gscore>
-6.80539285206231

> <r_i_glide_lipo>
-2.79347892246196

> <r_i_glide_hbond>
-0.32

> <r_i_glide_metal>
0

> <r_i_glide_rewards>
-1.472063243656

> <r_i_glide_evdw>
-40.6787452697754

> <r_i_glide_ecoul>
-3.83547782897949

> <r_i_glide_erotb>
0.458720369289522

> <r_i_glide_esite>
-0.0693121173981805

> <r_i_glide_emodel>
-58.2990354321169

> <r_i_glide_energy>
-44.5142230987549

> <r_i_glide_einternal>
5.30419588088989

> <i_i_glide_confnum>
12

> <i_i_glide_posenum>
247

> <r_i_glide_eff_state_penalty>
0

> <s_user_duplicate_titles>
CHEMBL2695_lig1716

> <s_m_subgroup_title>
dock_pv

> <s_m_subgroupid>
dock_pv

> <b_m_subgroup_collapsed>
1

$$$$
CHEMBL2695_lig1766
                    3D
 Schrodinger Suite 2021-1.
 53 56  0  0  1  0            999 V2000
    0.1359   -2.8836    5.2886 F   0  0  0  0  0  0
    1.8746   -3.8904    6.1958 F   0  0  0  0  0  0
   -0.0862   -4.0970    7.0512 F   0  0  0  0  0  0
    4.5890    4.0265    8.0462 O   0  0  0  0  0  0
    0.9152   -2.1405    7.3136 O   0  0  0  0  0  0
   13.1313    2.3558    5.8931 N   0  0  0  0  0  0
   13.7571    3.4700    6.3085 N   0  0  0  0  0  0
    6.0061    5.1637    4.9016 N   0  0  0  0  0  0
    2.7220    3.5629   10.3090 N   0  0  0  0  0  0
   11.5268    3.8415    6.3085 C   0  0  0  0  0  0
   11.7597    2.5145    5.8716 C   0  0  0  0  0  0
    9.1494    3.4530    6.0446 C   0  0  0  0  0  0
   12.8369    4.3631    6.5830 C   0  0  0  0  0  0
   10.2028    4.3088    6.3934 C   0  0  0  0  0  0
    7.7496    3.9407    6.0614 C   0  0  0  0  0  0
   10.7208    1.6522    5.5082 C   0  0  0  0  0  0
    9.4210    2.1519    5.6123 C   0  0  0  0  0  0
    6.8579    3.6751    7.1146 C   0  0  0  0  0  0
    5.5454    4.1822    7.0661 C   0  0  0  0  0  0
    7.2691    4.6831    4.9799 C   0  0  0  0  0  0
   13.2323    5.6941    7.1830 C   0  0  0  0  0  0
    5.1776    4.9268    5.9460 C   0  0  0  0  0  0
    1.6333   -1.0399    6.8879 C   0  0  0  0  0  0
    2.2177    1.2773    7.3381 C   0  0  0  0  0  0
    1.5386    0.1054    7.6793 C   0  0  0  0  0  0
    0.7282   -3.2455    6.4317 C   0  0  0  0  0  0
    3.1494    2.5650    9.3439 C   0  0  1  0  0  0
    2.0933    2.5097    8.2179 C   0  0  0  0  0  0
    4.5970    2.8523    8.8575 C   0  0  0  0  0  0
    2.4402   -0.9999    5.7385 C   0  0  0  0  0  0
    3.0094    1.3044    6.1890 C   0  0  0  0  0  0
    3.1220    0.1671    5.3936 C   0  0  0  0  0  0
   13.6677    1.5388    5.6364 H   0  0  0  0  0  0
    3.3175    3.4726   11.1303 H   0  0  0  0  0  0
    2.9260    4.4908    9.9408 H   0  0  0  0  0  0
    9.9989    5.3185    6.7182 H   0  0  0  0  0  0
   10.9009    0.6441    5.1662 H   0  0  0  0  0  0
    8.5961    1.5099    5.3305 H   0  0  0  0  0  0
    7.1889    3.1000    7.9650 H   0  0  0  0  0  0
    7.9082    4.8931    4.1343 H   0  0  0  0  0  0
   12.7189    6.5280    6.7090 H   0  0  0  0  0  0
   12.9764    5.7368    8.2420 H   0  0  0  0  0  0
   14.3080    5.8881    7.1112 H   0  0  0  0  0  0
    4.1796    5.3358    5.8651 H   0  0  0  0  0  0
    0.9236    0.0821    8.5650 H   0  0  0  0  0  0
    3.1490    1.6059    9.8659 H   0  0  0  0  0  0
    2.1304    3.4092    7.6003 H   0  0  0  0  0  0
    1.0869    2.5104    8.6430 H   0  0  0  0  0  0
    5.2754    2.9914    9.7018 H   0  0  0  0  0  0
    4.9590    1.9895    8.2955 H   0  0  0  0  0  0
    2.5624   -1.8582    5.0963 H   0  0  0  0  0  0
    3.5501    2.1997    5.9189 H   0  0  0  0  0  0
    3.7577    0.1828    4.5196 H   0  0  0  0  0  0
  1 26  1  0  0  0
  2 26  1  0  0  0
  3 26  1  0  0  0
  4 19  1  0  0  0
  4 29  1  0  0  0
  5 23  1  0  0  0
  5 26  1  0  0  0
  6  7  1  0  0  0
  6 11  1  0  0  0
  6 33  1  0  0  0
  7 13  2  0  0  0
  8 20  1  0  0  0
  8 22  2  0  0  0
  9 27  1  0  0  0
  9 34  1  0  0  0
  9 35  1  0  0  0
 10 11  1  0  0  0
 10 13  1  0  0  0
 10 14  2  0  0  0
 11 16  2  0  0  0
 12 14  1  0  0  0
 12 15  1  0  0  0
 12 17  2  0  0  0
 13 21  1  0  0  0
 14 36  1  0  0  0
 15 18  1  0  0  0
 15 20  2  0  0  0
 16 17  1  0  0  0
 16 37  1  0  0  0
 17 38  1  0  0  0
 18 19  2  0  0  0
 18 39  1  0  0  0
 19 22  1  0  0  0
 20 40  1  0  0  0
 21 41  1  0  0  0
 21 42  1  0  0  0
 21 43  1  0  0  0
 22 44  1  0  0  0
 23 25  2  0  0  0
 23 30  1  0  0  0
 24 25  1  0  0  0
 24 28  1  0  0  0
 24 31  2  0  0  0
 25 45  1  0  0  0
 27 28  1  0  0  0
 27 29  1  0  0  0
 27 46  1  0  0  0
 28 47  1  0  0  0
 28 48  1  0  0  0
 29 49  1  0  0  0
 29 50  1  0  0  0
 30 32  2  0  0  0
 30 51  1  0  0  0
 31 32  1  0  0  0
 31 52  1  0  0  0
 32 53  1  0  0  0
M  END
> <s_m_entry_id>
47809

> <s_m_entry_name>
dock_pv.342

> <s_m_Source_Path>
/home/csk/Desktop/cluster/DUD-E-result/fak1

> <s_m_Source_File>
dock_pv.maegz

> <i_m_Source_File_Index>
342

> <chembl_id>
CHEMBL1965836

> <chembl_pref_name>
None

> <i_lp_mmshare_version>
53161

> <i_f3d_flags>
0

> <r_lp_tautomer_probability>
0.980392156862745

> <s_lp_Force_Field>
OPLS_2005

> <r_lp_Energy>
23.752304

> <b_lp_Chiralities_Consistent>
1

> <s_lp_Variant>
CHEMBL2695_lig1766-2

> <s_i_glide_gridfile>
glide-grid_3bz3

> <i_i_glide_lignum>
2015

> <i_i_glide_rotatable_bonds>
8

> <r_i_docking_score>
-6.80371752707012

> <r_i_glide_ligand_efficiency>
-0.212616172720941

> <r_i_glide_ligand_efficiency_sa>
-0.675014271705542

> <r_i_glide_ligand_efficiency_ln>
-1.52353781664622

> <r_i_glide_gscore>
-6.80371752707012

> <r_i_glide_lipo>
-2.58813732726636

> <r_i_glide_hbond>
-0.602231049503878

> <r_i_glide_metal>
0

> <r_i_glide_rewards>
-1.0025662367249

> <r_i_glide_evdw>
-37.7891883850098

> <r_i_glide_ecoul>
-8.42527961730957

> <r_i_glide_erotb>
0.714610432946625

> <r_i_glide_esite>
-0.172141984674688

> <r_i_glide_emodel>
-57.4286390454512

> <r_i_glide_energy>
-46.2144680023193

> <r_i_glide_einternal>
14.2378940582275

> <i_i_glide_confnum>
3

> <i_i_glide_posenum>
175

> <r_i_glide_eff_state_penalty>
0

> <s_user_duplicate_titles>
CHEMBL2695_lig1766

> <s_m_subgroup_title>
dock_pv

> <s_m_subgroupid>
dock_pv

> <b_m_subgroup_collapsed>
1

$$$$
CHEMBL2695_lig1975
                    3D
 Schrodinger Suite 2021-1.
 50 53  0  0  1  0            999 V2000
    8.5317    2.6851    6.3034 O   0  0  0  0  0  0
    3.5255    5.2380    6.4994 N   0  0  0  0  0  0
   10.8347    0.6489    4.2058 N   0  0  0  0  0  0
    5.2813    1.1629    7.1102 N   0  0  0  0  0  0
   11.7404    7.4305    7.9452 N   0  0  0  0  0  0
    3.6330    3.8692    8.2761 C   0  0  0  0  0  0
    4.9494    3.9626    7.6949 C   0  0  0  0  0  0
    2.7612    4.7001    7.5088 C   0  0  0  0  0  0
    4.8239    4.8145    6.6146 C   0  0  0  0  0  0
    3.0968    3.1640    9.3679 C   0  0  0  0  0  0
    6.1903    3.2206    8.1617 C   0  0  0  0  0  0
    1.4044    4.8518    7.8158 C   0  0  0  0  0  0
    6.4960    1.9169    7.3810 C   0  0  2  0  0  0
    1.7474    3.3211    9.6814 C   0  0  0  0  0  0
    0.9241    4.1496    8.9225 C   0  0  0  0  0  0
    9.6570    2.1699    5.6897 C   0  0  0  0  0  0
   12.0867    2.2207    5.5713 C   0  0  0  0  0  0
    7.2431    2.1282    6.0484 C   0  0  0  0  0  0
   10.8818    2.6917    6.1049 C   0  0  0  0  0  0
    9.6874    1.1642    4.7090 C   0  0  0  0  0  0
   12.0039    1.1630    4.6533 C   0  0  0  0  0  0
   13.4144    2.7866    5.9090 C   0  0  0  0  0  0
   13.0207    5.1160    6.9899 C   0  0  0  0  0  0
   13.7823    3.9496    6.5035 C   0  0  0  0  0  0
   11.9233    5.6562    6.3092 C   0  0  0  0  0  0
   13.4592    5.7494    8.1603 C   0  0  0  0  0  0
   11.3196    6.8068    6.8168 C   0  0  0  0  0  0
   12.7959    6.8935    8.6046 C   0  0  0  0  0  0
    3.2052    5.8277    5.7371 H   0  0  0  0  0  0
    4.6369    1.7611    6.6140 H   0  0  0  0  0  0
    5.5189    0.4053    6.4651 H   0  0  0  0  0  0
    5.5600    5.1397    5.8930 H   0  0  0  0  0  0
    3.7291    2.5252    9.9678 H   0  0  0  0  0  0
    6.0777    2.9701    9.2174 H   0  0  0  0  0  0
    7.0619    3.8758    8.1334 H   0  0  0  0  0  0
    0.7556    5.4870    7.2309 H   0  0  0  0  0  0
    7.1310    1.2914    8.0115 H   0  0  0  0  0  0
    1.3358    2.7981   10.5311 H   0  0  0  0  0  0
   -0.1155    4.2515    9.1990 H   0  0  0  0  0  0
    6.6892    2.7904    5.3816 H   0  0  0  0  0  0
    7.2881    1.1638    5.5548 H   0  0  0  0  0  0
   10.8738    3.4408    6.8785 H   0  0  0  0  0  0
    8.7969    0.7332    4.2800 H   0  0  0  0  0  0
   12.8966    0.7630    4.1958 H   0  0  0  0  0  0
   14.2365    2.1307    5.6537 H   0  0  0  0  0  0
   14.8413    4.0716    6.6433 H   0  0  0  0  0  0
   11.5672    5.2194    5.3875 H   0  0  0  0  0  0
   14.3143    5.3775    8.7077 H   0  0  0  0  0  0
   10.4795    7.2563    6.3104 H   0  0  0  0  0  0
   13.1199    7.4074    9.4987 H   0  0  0  0  0  0
  1 16  1  0  0  0
  1 18  1  0  0  0
  2  8  1  0  0  0
  2  9  1  0  0  0
  2 29  1  0  0  0
  3 20  1  0  0  0
  3 21  2  0  0  0
  4 13  1  0  0  0
  4 30  1  0  0  0
  4 31  1  0  0  0
  5 27  2  0  0  0
  5 28  1  0  0  0
  6  7  1  0  0  0
  6  8  1  0  0  0
  6 10  2  0  0  0
  7  9  2  0  0  0
  7 11  1  0  0  0
  8 12  2  0  0  0
  9 32  1  0  0  0
 10 14  1  0  0  0
 10 33  1  0  0  0
 11 13  1  0  0  0
 11 34  1  0  0  0
 11 35  1  0  0  0
 12 15  1  0  0  0
 12 36  1  0  0  0
 13 18  1  0  0  0
 13 37  1  0  0  0
 14 15  2  0  0  0
 14 38  1  0  0  0
 15 39  1  0  0  0
 16 19  1  0  0  0
 16 20  2  0  0  0
 17 19  2  0  0  0
 17 21  1  0  0  0
 17 22  1  0  0  0
 18 40  1  0  0  0
 18 41  1  0  0  0
 19 42  1  0  0  0
 20 43  1  0  0  0
 21 44  1  0  0  0
 22 24  2  3  0  0
 22 45  1  0  0  0
 23 24  1  0  0  0
 23 25  2  0  0  0
 23 26  1  0  0  0
 24 46  1  0  0  0
 25 27  1  0  0  0
 25 47  1  0  0  0
 26 28  2  0  0  0
 26 48  1  0  0  0
 27 49  1  0  0  0
 28 50  1  0  0  0
M  END
> <s_m_entry_id>
47810

> <s_m_entry_name>
dock_pv.343

> <s_m_Source_Path>
/home/csk/Desktop/cluster/DUD-E-result/fak1

> <s_m_Source_File>
dock_pv.maegz

> <i_m_Source_File_Index>
343

> <chembl_id>
CHEMBL1974935

> <chembl_pref_name>
None

> <i_lp_mmshare_version>
53161

> <i_f3d_flags>
0

> <r_lp_tautomer_probability>
1

> <s_lp_Force_Field>
OPLS_2005

> <r_lp_Energy>
25.130295

> <b_lp_Chiralities_Consistent>
1

> <s_lp_Variant>
CHEMBL2695_lig1975-2

> <s_i_glide_gridfile>
glide-grid_3bz3

> <i_i_glide_lignum>
2309

> <i_i_glide_rotatable_bonds>
7

> <r_i_docking_score>
-6.80350799914448

> <r_i_glide_ligand_efficiency>
-0.242982428540874

> <r_i_glide_ligand_efficiency_sa>
-0.737837762047243

> <r_i_glide_ligand_efficiency_ln>
-1.5704494058775

> <r_i_glide_gscore>
-6.80350799914448

> <r_i_glide_lipo>
-3.27369232633419

> <r_i_glide_hbond>
-0.456

> <r_i_glide_metal>
0

> <r_i_glide_rewards>
-1.12076582242992

> <r_i_glide_evdw>
-39.2603797912598

> <r_i_glide_ecoul>
-5.55681419372559

> <r_i_glide_erotb>
0.843491268241451

> <r_i_glide_esite>
0

> <r_i_glide_emodel>
-63.2997050911027

> <r_i_glide_energy>
-44.8171939849854

> <r_i_glide_einternal>
3.21971535682678

> <i_i_glide_confnum>
13

> <i_i_glide_posenum>
375

> <r_i_glide_eff_state_penalty>
0

> <s_user_duplicate_titles>
CHEMBL2695_lig1975

> <s_m_subgroup_title>
dock_pv

> <s_m_subgroupid>
dock_pv

> <b_m_subgroup_collapsed>
1

$$$$
CHEMBL2695_lig2043
                    3D
 Schrodinger Suite 2021-1.
 32 34  0  0  1  0            999 V2000
   11.5220    7.4418    7.2261 I   0  0  0  0  0  0
    7.8286    3.4463    4.9433 O   0  0  0  0  0  0
    7.5830    3.9169    7.9211 O   0  0  0  0  0  0
    5.3594    2.3542    7.3022 O   0  0  0  0  0  0
    4.2748    3.9632    4.7648 O   0  0  0  0  0  0
    9.8684    3.7097    6.0652 N   0  0  0  0  0  0
    9.7960    5.0133    6.4252 N   0  0  0  0  0  0
   11.7040    2.1307    5.5690 N   0  0  0  0  0  0
   13.9080    3.0414    6.1223 N   0  0  0  0  0  0
   14.1281    5.1629    7.1094 N   0  0  0  0  0  0
    8.6652    2.9057    5.9176 C   0  0  1  0  0  0
   11.1959    3.3220    5.9236 C   0  0  0  0  0  0
   11.9616    4.4250    6.3663 C   0  0  0  0  0  0
    7.7788    2.7327    7.1597 C   0  0  2  0  0  0
   11.0115    5.4512    6.6126 C   0  0  0  0  0  0
    6.5100    2.2402    6.4736 C   0  0  2  0  0  0
    6.4781    3.0122    5.1343 C   0  0  1  0  0  0
   13.3382    4.2135    6.4881 C   0  0  0  0  0  0
   13.0629    2.0794    5.6656 C   0  0  0  0  0  0
    5.6112    4.2904    5.0949 C   0  0  0  0  0  0
    6.6841    3.8902    8.2643 H   0  0  0  0  0  0
    5.3945    1.6642    7.9710 H   0  0  0  0  0  0
    3.7492    4.7742    4.7059 H   0  0  0  0  0  0
   13.6920    6.0149    7.4270 H   0  0  0  0  0  0
   15.1132    5.0133    7.2701 H   0  0  0  0  0  0
    8.9986    1.9301    5.5531 H   0  0  0  0  0  0
    8.1919    1.9501    7.7890 H   0  0  0  0  0  0
    6.6474    1.1832    6.2455 H   0  0  0  0  0  0
    6.2307    2.3587    4.2970 H   0  0  0  0  0  0
   13.5276    1.1629    5.3478 H   0  0  0  0  0  0
    5.9627    4.9491    4.3005 H   0  0  0  0  0  0
    5.6763    4.8614    6.0217 H   0  0  0  0  0  0
  1 15  1  0  0  0
  2 11  1  0  0  0
  2 17  1  0  0  0
  3 14  1  0  0  0
  3 21  1  0  0  0
  4 16  1  0  0  0
  4 22  1  0  0  0
  5 20  1  0  0  0
  5 23  1  0  0  0
  6  7  1  0  0  0
  6 11  1  0  0  0
  6 12  1  0  0  0
  7 15  2  0  0  0
  8 12  1  0  0  0
  8 19  2  0  0  0
  9 18  2  0  0  0
  9 19  1  0  0  0
 10 18  1  0  0  0
 10 24  1  0  0  0
 10 25  1  0  0  0
 11 14  1  0  0  0
 11 26  1  0  0  0
 12 13  2  0  0  0
 13 15  1  0  0  0
 13 18  1  0  0  0
 14 16  1  0  0  0
 14 27  1  0  0  0
 16 17  1  0  0  0
 16 28  1  0  0  0
 17 20  1  0  0  0
 17 29  1  0  0  0
 19 30  1  0  0  0
 20 31  1  0  0  0
 20 32  1  0  0  0
M  END
> <s_m_entry_id>
47811

> <s_m_entry_name>
dock_pv.344

> <s_m_Source_Path>
/home/csk/Desktop/cluster/DUD-E-result/fak1

> <s_m_Source_File>
dock_pv.maegz

> <i_m_Source_File_Index>
344

> <chembl_id>
CHEMBL2001288

> <chembl_pref_name>
None

> <i_lp_mmshare_version>
53161

> <i_f3d_flags>
0

> <r_lp_tautomer_probability>
1

> <s_lp_Force_Field>
OPLS_2005

> <r_lp_Energy>
37.55565

> <b_lp_Chiralities_Consistent>
1

> <s_lp_Variant>
CHEMBL2695_lig2043-10

> <s_i_glide_gridfile>
glide-grid_3bz3

> <i_i_glide_lignum>
2433

> <i_i_glide_rotatable_bonds>
5

> <r_i_docking_score>
-6.80347807187628

> <r_i_glide_ligand_efficiency>
-0.340173903593814

> <r_i_glide_ligand_efficiency_sa>
-0.923374035698846

> <r_i_glide_ligand_efficiency_ln>
-1.70268616766582

> <r_i_glide_gscore>
-6.80347807187628

> <r_i_glide_lipo>
-1.45163665128569

> <r_i_glide_hbond>
-0.253817159646545

> <r_i_glide_metal>
0

> <r_i_glide_rewards>
-2.71607462760069

> <r_i_glide_evdw>
-28.458797454834

> <r_i_glide_ecoul>
-8.07836627960205

> <r_i_glide_erotb>
0.252745181338646

> <r_i_glide_esite>
0

> <r_i_glide_emodel>
-50.1099487883737

> <r_i_glide_energy>
-36.537163734436

> <r_i_glide_einternal>
3.98174977302551

> <i_i_glide_confnum>
6

> <i_i_glide_posenum>
208

> <r_i_glide_eff_state_penalty>
0

> <s_user_duplicate_titles>
CHEMBL2695_lig2043

> <s_m_subgroup_title>
dock_pv

> <s_m_subgroupid>
dock_pv

> <b_m_subgroup_collapsed>
1

$$$$
CHEMBL2695_lig2130
                    3D
 Schrodinger Suite 2021-1.
 48 52  0  0  1  0            999 V2000
    3.9205   -3.9974    7.5153 F   0  0  0  0  0  0
    3.1383   -2.4847    2.2872 F   0  0  0  0  0  0
    2.2414   -1.5066    7.9104 O   0  0  0  0  0  0
    3.5588    2.2042    9.4902 N   0  0  0  0  0  0
    3.0619    1.1633    8.7933 N   0  0  0  0  0  0
    3.8957   -0.2132    6.9717 N   0  0  0  0  0  0
   10.3327    3.8524    6.0456 N   0  0  0  0  0  0
    8.8611    2.2591    5.9103 N   0  0  0  0  0  0
   10.0748    2.7044    5.4186 N   0  0  0  0  0  0
    5.0569    1.7503    7.9139 C   0  0  0  0  0  0
    4.7790    2.6142    9.0004 C   0  0  0  0  0  0
    3.9494    0.8463    7.8740 C   0  0  0  0  0  0
    7.1324    2.9374    7.5610 C   0  0  0  0  0  0
    6.2445    1.9215    7.1888 C   0  0  0  0  0  0
    8.4093    3.1276    6.8073 C   0  0  0  0  0  0
    5.6551    3.6290    9.3937 C   0  0  0  0  0  0
    6.8295    3.7645    8.6511 C   0  0  0  0  0  0
    3.0820   -1.2895    7.0365 C   0  0  0  0  0  0
    3.2828   -2.2966    5.9398 C   0  0  0  0  0  0
    9.3165    4.1723    6.9051 C   0  0  0  0  0  0
    3.6956   -3.6073    6.2376 C   0  0  0  0  0  0
    3.1218   -1.9218    4.5975 C   0  0  0  0  0  0
    3.3170   -2.8498    3.5761 C   0  0  0  0  0  0
   11.5025    4.6282    5.6676 C   0  0  0  0  0  0
    3.8939   -4.5314    5.2117 C   0  0  0  0  0  0
    3.6961   -4.1560    3.8827 C   0  0  0  0  0  0
   11.9962    5.6074    6.7239 C   0  0  0  0  0  0
   11.3328    6.8209    6.9136 C   0  0  0  0  0  0
   13.1073    5.2879    7.5087 C   0  0  0  0  0  0
   11.7477    7.6952    7.9086 C   0  0  0  0  0  0
   13.5221    6.1638    8.5056 C   0  0  0  0  0  0
   12.8325    7.3555    8.7090 C   0  0  0  0  0  0
    3.0613    2.5904   10.2772 H   0  0  0  0  0  0
    4.6282   -0.2498    6.2695 H   0  0  0  0  0  0
    6.4672    1.2654    6.3578 H   0  0  0  0  0  0
    5.4367    4.2794   10.2283 H   0  0  0  0  0  0
    7.5218    4.5393    8.9413 H   0  0  0  0  0  0
    9.3299    5.0771    7.4926 H   0  0  0  0  0  0
    2.8397   -0.9116    4.3343 H   0  0  0  0  0  0
   12.3101    3.9404    5.4040 H   0  0  0  0  0  0
   11.2340    5.1637    4.7578 H   0  0  0  0  0  0
    4.2206   -5.5344    5.4421 H   0  0  0  0  0  0
    3.8569   -4.8670    3.0881 H   0  0  0  0  0  0
   10.4750    7.0785    6.3124 H   0  0  0  0  0  0
   13.6407    4.3625    7.3581 H   0  0  0  0  0  0
   11.2211    8.6251    8.0714 H   0  0  0  0  0  0
   14.3814    5.9234    9.1110 H   0  0  0  0  0  0
   13.1479    8.0264    9.4939 H   0  0  0  0  0  0
  1 21  1  0  0  0
  2 23  1  0  0  0
  3 18  2  0  0  0
  4  5  1  0  0  0
  4 11  1  0  0  0
  4 33  1  0  0  0
  5 12  2  0  0  0
  6 12  1  0  0  0
  6 18  1  0  0  0
  6 34  1  0  0  0
  7  9  1  0  0  0
  7 20  1  0  0  0
  7 24  1  0  0  0
  8  9  2  0  0  0
  8 15  1  0  0  0
 10 11  1  0  0  0
 10 12  1  0  0  0
 10 14  2  0  0  0
 11 16  2  0  0  0
 13 14  1  0  0  0
 13 15  1  0  0  0
 13 17  2  0  0  0
 14 35  1  0  0  0
 15 20  2  0  0  0
 16 17  1  0  0  0
 16 36  1  0  0  0
 17 37  1  0  0  0
 18 19  1  0  0  0
 19 21  1  0  0  0
 19 22  2  0  0  0
 20 38  1  0  0  0
 21 25  2  0  0  0
 22 23  1  0  0  0
 22 39  1  0  0  0
 23 26  2  0  0  0
 24 27  1  0  0  0
 24 40  1  0  0  0
 24 41  1  0  0  0
 25 26  1  0  0  0
 25 42  1  0  0  0
 26 43  1  0  0  0
 27 28  2  0  0  0
 27 29  1  0  0  0
 28 30  1  0  0  0
 28 44  1  0  0  0
 29 31  2  0  0  0
 29 45  1  0  0  0
 30 32  2  0  0  0
 30 46  1  0  0  0
 31 32  1  0  0  0
 31 47  1  0  0  0
 32 48  1  0  0  0
M  END
> <s_m_entry_id>
47812

> <s_m_entry_name>
dock_pv.345

> <s_m_Source_Path>
/home/csk/Desktop/cluster/DUD-E-result/fak1

> <s_m_Source_File>
dock_pv.maegz

> <i_m_Source_File_Index>
345

> <chembl_id>
CHEMBL1995811

> <chembl_pref_name>
None

> <i_lp_mmshare_version>
53161

> <i_f3d_flags>
0

> <r_lp_tautomer_probability>
0.980392156862745

> <s_lp_Force_Field>
OPLS_2005

> <r_lp_Energy>
21.501508

> <b_lp_Chiralities_Consistent>
1

> <s_lp_Variant>
CHEMBL2695_lig2130-1

> <s_i_glide_gridfile>
glide-grid_3bz3

> <i_i_glide_lignum>
2577

> <i_i_glide_rotatable_bonds>
6

> <r_i_docking_score>
-6.80000256739365

> <r_i_glide_ligand_efficiency>
-0.212500080231052

> <r_i_glide_ligand_efficiency_sa>
-0.674645701024815

> <r_i_glide_ligand_efficiency_ln>
-1.52270593590868

> <r_i_glide_gscore>
-6.80000256739365

> <r_i_glide_lipo>
-2.92855151010766

> <r_i_glide_hbond>
-0.16

> <r_i_glide_metal>
0

> <r_i_glide_rewards>
-1.04306630565744

> <r_i_glide_evdw>
-43.5061874389648

> <r_i_glide_ecoul>
-5.86739158630371

> <r_i_glide_erotb>
0.643908425990143

> <r_i_glide_esite>
-0.256875067724897

> <r_i_glide_emodel>
-68.7352837255774

> <r_i_glide_energy>
-49.3735790252686

> <r_i_glide_einternal>
4.40952062606812

> <i_i_glide_confnum>
2

> <i_i_glide_posenum>
65

> <r_i_glide_eff_state_penalty>
0

> <s_user_duplicate_titles>
CHEMBL2695_lig2130

> <s_m_subgroup_title>
dock_pv

> <s_m_subgroupid>
dock_pv

> <b_m_subgroup_collapsed>
1

$$$$
345111
                    3D
 Schrodinger Suite 2021-1.
 52 55  0  0  1  0            999 V2000
   13.4416    3.4405    5.9968 C   0  0  0  0  0  0
   13.4387    2.0568    5.6680 O   0  0  0  0  0  0
   12.3109    1.5630    5.0463 C   0  0  0  0  0  0
   11.0192    1.8527    5.4983 C   0  0  0  0  0  0
    9.8971    1.3247    4.8499 C   0  0  0  0  0  0
   10.0928    0.4483    3.7852 C   0  0  0  0  0  0
   11.3734    0.1567    3.2977 C   0  0  0  0  0  0
   12.4785    0.7630    3.9090 C   0  0  0  0  0  0
   13.7580    0.4402    3.5090 O   0  0  0  0  0  0
   14.2143    1.0708    2.3334 C   0  0  0  0  0  0
   11.6135   -0.6970    2.2354 O   0  0  0  0  0  0
   10.5120   -1.2966    1.5606 C   0  0  0  0  0  0
    8.5687    1.5630    5.2463 N   0  0  0  0  0  0
    8.0503    2.1718    6.3878 C   0  0  0  0  0  0
    6.9807    1.5630    6.9368 N   0  0  0  0  0  0
    6.6404    1.9458    8.1851 C   0  0  0  0  0  0
    7.3207    2.9472    8.8762 C   0  0  0  0  0  0
    8.3220    3.6539    8.1603 C   0  0  0  0  0  0
    8.6896    3.2285    6.9252 N   0  0  0  0  0  0
    8.9860    4.7630    8.7311 N   0  0  0  0  0  0
    8.5439    5.1630   10.0838 C   0  0  0  0  0  0
    7.1287    4.7292   10.5067 C   0  0  0  0  0  0
    7.0240    3.2375   10.3297 C   0  0  0  0  0  0
   10.1155    5.4291    8.2119 C   0  0  0  0  0  0
   10.3907    5.5630    6.8409 C   0  0  0  0  0  0
   11.5220    6.2624    6.4357 C   0  0  0  0  0  0
   12.3676    6.8234    7.3888 C   0  0  0  0  0  0
   12.0698    6.6437    8.7277 C   0  0  0  0  0  0
   10.9763    5.9630    9.1321 N   0  0  0  0  0  0
   14.3972    3.7039    6.4482 H   0  0  0  0  0  0
   13.3145    4.0599    5.1090 H   0  0  0  0  0  0
   12.6640    3.7032    6.7090 H   0  0  0  0  0  0
   10.9099    2.4677    6.3727 H   0  0  0  0  0  0
    9.2201    0.0123    3.3215 H   0  0  0  0  0  0
   15.3028    1.0217    2.3088 H   0  0  0  0  0  0
   13.8306    0.5650    1.4481 H   0  0  0  0  0  0
   13.9220    2.1169    2.3090 H   0  0  0  0  0  0
   10.8839   -1.9224    0.7496 H   0  0  0  0  0  0
    9.9310   -1.9344    2.2289 H   0  0  0  0  0  0
    9.8547   -0.5438    1.1213 H   0  0  0  0  0  0
    7.9179    0.8700    4.8969 H   0  0  0  0  0  0
    5.8457    1.3843    8.6562 H   0  0  0  0  0  0
    9.2497    4.6437   10.7090 H   0  0  0  0  0  0
    8.7217    6.2223   10.2689 H   0  0  0  0  0  0
    6.9286    5.0258   11.5328 H   0  0  0  0  0  0
    6.3386    5.1630    9.9090 H   0  0  0  0  0  0
    6.0440    2.8661   10.6358 H   0  0  0  0  0  0
    7.7850    2.7630   10.9487 H   0  0  0  0  0  0
    9.7311    5.1910    6.0745 H   0  0  0  0  0  0
   11.7370    6.3630    5.3853 H   0  0  0  0  0  0
   13.2417    7.3831    7.1090 H   0  0  0  0  0  0
   12.7056    7.0539    9.4991 H   0  0  0  0  0  0
  1  2  1  0  0  0
  1 30  1  0  0  0
  1 31  1  0  0  0
  1 32  1  0  0  0
  2  3  1  0  0  0
  3  8  1  0  0  0
  3  4  2  0  0  0
  4  5  1  0  0  0
  4 33  1  0  0  0
  5  6  2  0  0  0
  5 13  1  0  0  0
  6  7  1  0  0  0
  6 34  1  0  0  0
  7  8  2  0  0  0
  7 11  1  0  0  0
  8  9  1  0  0  0
  9 10  1  0  0  0
 10 35  1  0  0  0
 10 36  1  0  0  0
 10 37  1  0  0  0
 11 12  1  0  0  0
 12 38  1  0  0  0
 12 39  1  0  0  0
 12 40  1  0  0  0
 13 14  1  0  0  0
 13 41  1  0  0  0
 14 19  1  0  0  0
 14 15  2  0  0  0
 15 16  1  0  0  0
 16 17  2  0  0  0
 16 42  1  0  0  0
 17 23  1  0  0  0
 17 18  1  0  0  0
 18 19  2  0  0  0
 18 20  1  0  0  0
 20 21  1  0  0  0
 20 24  1  0  0  0
 21 22  1  0  0  0
 21 43  1  0  0  0
 21 44  1  0  0  0
 22 23  1  0  0  0
 22 45  1  0  0  0
 22 46  1  0  0  0
 23 47  1  0  0  0
 23 48  1  0  0  0
 24 29  1  0  0  0
 24 25  2  0  0  0
 25 26  1  0  0  0
 25 49  1  0  0  0
 26 27  2  0  0  0
 26 50  1  0  0  0
 27 28  1  0  0  0
 27 51  1  0  0  0
 28 29  2  0  0  0
 28 52  1  0  0  0
M  END
> <s_m_entry_id>
49333

> <s_m_entry_name>
ligand_docking-pose.17

> <s_m_Source_Path>
/home/csk/Desktop/cluster/DUD-E-result/fak1

> <s_m_Source_File>
ligand_docking-pose.sdf

> <i_m_Source_File_Index>
17

> <i_lp_mmshare_version>
53161

> <r_lp_tautomer_probability>
0.999999648617923

> <s_lp_Force_Field>
OPLS_2005

> <r_lp_Energy>
31.5521

> <b_lp_Chiralities_Consistent>
1

> <s_lp_Variant>
345111-1

> <s_i_glide_gridfile>
glide-grid_3bz3

> <i_i_glide_lignum>
102

> <i_i_glide_rotatable_bonds>
6

> <r_i_docking_score>
-7.33074237472177

> <r_i_glide_ligand_efficiency>
-0.252784219817992

> <r_i_glide_ligand_efficiency_sa>
-0.776633210942969

> <r_i_glide_ligand_efficiency_ln>
-1.67855411222383

> <r_i_glide_gscore>
-7.33074237472177

> <r_i_glide_lipo>
-3.61527543205412

> <r_i_glide_hbond>
-0.3056405542289

> <r_i_glide_metal>
0

> <r_i_glide_rewards>
-1.91275155753974

> <r_i_glide_evdw>
-31.8192005157471

> <r_i_glide_ecoul>
-1.38958466053009

> <r_i_glide_erotb>
0.378596347632043

> <r_i_glide_esite>
-0.0762734536641957

> <r_i_glide_emodel>
-42.6967729540236

> <r_i_glide_energy>
-33.2087851762772

> <r_i_glide_einternal>
10.8573684692383

> <i_i_glide_confnum>
3

> <i_i_glide_posenum>
28

> <r_i_glide_eff_state_penalty>
0

> <i_f3d_flags>
0

> <s_user_duplicate_titles>
345111

> <s_m_subgroup_title>
dock_pv

> <s_m_subgroupid>
dock_pv1

> <b_m_subgroup_collapsed>
0

$$$$
