CHEMBL280_lig1246
                    3D
 Schrodinger Suite 2021-1.
 44 46  0  0  1  0            999 V2000
   -2.1485   26.3432   56.5127 N   0  3  0  0  0  0
   -1.6061   26.2582   57.7468 C   0  0  0  0  0  0
   -1.7990   27.2900   58.6625 C   0  0  0  0  0  0
   -2.5855   28.3785   58.2922 C   0  0  0  0  0  0
   -3.1718   28.4340   57.0267 C   0  0  0  0  0  0
   -2.8948   27.4069   56.1113 C   0  0  0  0  0  0
   -1.9391   25.3903   55.7099 O   0  5  0  0  0  0
   -3.3389   27.4293   54.8055 O   0  0  0  0  0  0
   -4.1326   29.5758   56.7247 C   0  0  0  0  0  0
   -5.9237   29.0948   57.0999 S   0  0  0  0  0  0
   -6.4249   28.1752   55.6508 C   0  0  0  0  0  0
   -5.9392   28.1643   58.2352 O   0  0  0  0  0  0
   -6.7418   30.3126   57.1265 O   0  0  0  0  0  0
   -6.3357   26.7815   55.6194 C   0  0  0  0  0  0
   -6.8089   26.0883   54.5076 C   0  0  0  0  0  0
   -7.3957   26.7690   53.4393 C   0  0  0  0  0  0
   -7.4595   28.1669   53.4794 C   0  0  0  0  0  0
   -6.9649   28.8691   54.5701 C   0  0  0  0  0  0
   -7.9295   26.0125   52.4105 O   0  0  0  0  0  0
   -8.3134   26.5689   51.2080 C   0  0  0  0  0  0
   -9.5797   26.2766   50.7096 C   0  0  0  0  0  0
  -10.0002   26.8260   49.5003 C   0  0  0  0  0  0
   -9.1547   27.6557   48.7651 C   0  0  0  0  0  0
   -7.8674   27.9176   49.2521 C   0  0  0  0  0  0
   -7.4487   27.3700   50.4597 C   0  0  0  0  0  0
   -9.6590   28.1688   47.5864 O   0  0  0  0  0  0
   -8.8519   29.0533   46.8138 C   0  0  0  0  0  0
   -1.0344   25.3708   57.9690 H   0  0  0  0  0  0
   -1.3648   27.2399   59.6512 H   0  0  0  0  0  0
   -2.7622   29.1797   58.9918 H   0  0  0  0  0  0
   -3.9368   28.1682   54.6504 H   0  0  0  0  0  0
   -3.9168   30.4232   57.3758 H   0  0  0  0  0  0
   -4.0730   29.9494   55.7099 H   0  0  0  0  0  0
   -5.9130   26.2320   56.4500 H   0  0  0  0  0  0
   -6.7395   25.0098   54.4872 H   0  0  0  0  0  0
   -7.9118   28.7170   52.6726 H   0  0  0  0  0  0
   -7.0351   29.9473   54.5884 H   0  0  0  0  0  0
  -10.2421   25.6348   51.2709 H   0  0  0  0  0  0
  -10.9910   26.6143   49.1267 H   0  0  0  0  0  0
   -7.1737   28.5441   48.7114 H   0  0  0  0  0  0
   -6.4512   27.5794   50.8181 H   0  0  0  0  0  0
   -9.4070   29.3709   45.9314 H   0  0  0  0  0  0
   -8.5891   29.9502   47.3772 H   0  0  0  0  0  0
   -7.9382   28.5683   46.4689 H   0  0  0  0  0  0
  1  6  2  0  0  0
  1  7  1  0  0  0
  1  2  1  0  0  0
  2 28  1  0  0  0
  2  3  2  0  0  0
  3 29  1  0  0  0
  3  4  1  0  0  0
  4 30  1  0  0  0
  4  5  2  0  0  0
  5  6  1  0  0  0
  5  9  1  0  0  0
  6  8  1  0  0  0
  8 31  1  0  0  0
  9 10  1  0  0  0
  9 32  1  0  0  0
  9 33  1  0  0  0
 10 11  1  0  0  0
 10 12  2  0  0  0
 10 13  2  0  0  0
 11 14  2  0  0  0
 11 18  1  0  0  0
 14 15  1  0  0  0
 14 34  1  0  0  0
 15 16  2  0  0  0
 15 35  1  0  0  0
 16 17  1  0  0  0
 16 19  1  0  0  0
 17 18  2  0  0  0
 17 36  1  0  0  0
 18 37  1  0  0  0
 19 20  1  0  0  0
 20 21  2  0  0  0
 20 25  1  0  0  0
 21 22  1  0  0  0
 21 38  1  0  0  0
 22 23  2  0  0  0
 22 39  1  0  0  0
 23 24  1  0  0  0
 23 26  1  0  0  0
 24 25  2  0  0  0
 24 40  1  0  0  0
 25 41  1  0  0  0
 26 27  1  0  0  0
 27 42  1  0  0  0
 27 43  1  0  0  0
 27 44  1  0  0  0
M  CHG  2   1   1   7  -1
M  END
> <s_m_entry_id>
64052

> <s_m_entry_name>
dock_pv.2

> <s_m_Source_Path>
/home/csk/Desktop/cluster/DUD-E-result/mmp13

> <s_m_Source_File>
dock_pv.maegz

> <i_m_Source_File_Index>
2

> <chembl_id>
CHEMBL271867

> <chembl_pref_name>
None

> <i_lp_mmshare_version>
53161

> <i_f3d_flags>
0

> <r_lp_tautomer_probability>
0.0303878448620552

> <s_lp_Force_Field>
OPLS_2005

> <r_lp_Energy>
17.347988

> <b_lp_Chiralities_Consistent>
1

> <s_lp_Variant>
CHEMBL280_lig1246-2

> <s_i_glide_gridfile>
glide-grid_830c

> <i_i_glide_lignum>
1962

> <i_i_glide_rotatable_bonds>
7

> <r_i_docking_score>
-12.5222824870799

> <r_i_glide_ligand_efficiency>
-0.463788240262218

> <r_i_glide_ligand_efficiency_sa>
-1.39136471925808

> <r_i_glide_ligand_efficiency_ln>
-2.91498091703077

> <r_i_glide_gscore>
-12.5222824870799

> <r_i_glide_lipo>
-3.4145320104513

> <r_i_glide_hbond>
-0.0114648823509036

> <r_i_glide_metal>
-2.875

> <r_i_glide_rewards>
-1.06767501783463

> <r_i_glide_evdw>
-47.9998092651367

> <r_i_glide_ecoul>
-21.9213428497314

> <r_i_glide_erotb>
0.648748099136803

> <r_i_glide_esite>
-0.114166784863304

> <r_i_glide_emodel>
-123.640859637097

> <r_i_glide_energy>
-69.9211521148682

> <r_i_glide_einternal>
8.35605907440186

> <i_i_glide_confnum>
2

> <i_i_glide_posenum>
170

> <r_i_glide_eff_state_penalty>
0

> <s_user_duplicate_titles>
CHEMBL280_lig1246,CHEMBL280_lig1246,438305

> <s_m_subgroup_title>
dock_pv

> <s_m_subgroupid>
dock_pv

> <b_m_subgroup_collapsed>
1

$$$$
CHEMBL280_lig1328
                    3D
 Schrodinger Suite 2021-1.
 45 48  0  0  1  0            999 V2000
   -6.6445   28.8535   55.0334 N   0  3  0  0  0  0
   -4.0465   27.8092   54.9638 N   0  3  0  0  0  0
   -6.2759   28.1463   53.9583 C   0  0  0  0  0  0
   -4.8325   27.7696   53.9052 C   0  0  0  0  0  0
   -5.6627   29.3398   56.1078 C   0  0  2  0  0  0
   -4.5226   28.2689   56.3184 C   0  0  2  0  0  0
   -7.6930   29.5425   54.9104 O   0  5  0  0  0  0
   -3.0022   27.0848   54.9100 O   0  5  0  0  0  0
   -7.1474   27.7431   52.8459 C   0  0  0  0  0  0
   -9.5454   26.5778   49.6032 O   0  0  0  0  0  0
   -8.2993   26.9729   53.0329 C   0  0  0  0  0  0
   -6.7390   28.0096   51.5410 C   0  0  0  0  0  0
   -8.6782   26.9143   50.6273 C   0  0  0  0  0  0
   -6.2627   29.7594   57.4582 C   0  0  0  0  0  0
   -7.4676   27.5789   50.4432 C   0  0  0  0  0  0
   -9.0298   26.5343   51.9209 C   0  0  0  0  0  0
   -9.6406   27.2443   48.3891 C   0  0  0  0  0  0
   -3.3965   28.8743   57.1802 C   0  0  0  0  0  0
  -10.3228   26.5701   47.3746 C   0  0  0  0  0  0
   -9.1235   28.5234   48.1193 C   0  0  0  0  0  0
   -5.1462   30.3682   58.3347 C   0  0  0  0  0  0
   -3.9485   29.4132   58.5099 C   0  0  0  0  0  0
  -10.4032   27.1061   46.0916 C   0  0  0  0  0  0
   -9.1511   29.0366   46.8261 C   0  0  0  0  0  0
   -9.7951   28.3274   45.8171 C   0  0  0  0  0  0
   -4.3920   27.3701   53.0137 H   0  0  0  0  0  0
   -5.2053   30.2434   55.7097 H   0  0  0  0  0  0
   -4.9351   27.3930   56.8225 H   0  0  0  0  0  0
   -8.6168   26.6948   54.0278 H   0  0  0  0  0  0
   -5.8448   28.5724   51.3619 H   0  0  0  0  0  0
   -6.7114   28.8962   57.9492 H   0  0  0  0  0  0
   -7.0618   30.4891   57.3165 H   0  0  0  0  0  0
   -7.0812   27.7968   49.4592 H   0  0  0  0  0  0
   -9.9131   25.9282   52.0650 H   0  0  0  0  0  0
   -2.9077   29.6835   56.6341 H   0  0  0  0  0  0
   -2.6257   28.1274   57.3754 H   0  0  0  0  0  0
  -10.7394   25.5963   47.5789 H   0  0  0  0  0  0
   -8.6724   29.1323   48.8868 H   0  0  0  0  0  0
   -5.5389   30.6442   59.3104 H   0  0  0  0  0  0
   -4.8011   31.3007   57.8846 H   0  0  0  0  0  0
   -4.2580   28.5711   59.1306 H   0  0  0  0  0  0
   -3.1531   29.9243   59.0530 H   0  0  0  0  0  0
  -10.9121   26.5701   45.3053 H   0  0  0  0  0  0
   -8.7053   29.9984   46.6146 H   0  0  0  0  0  0
   -9.8319   28.7348   44.8170 H   0  0  0  0  0  0
  1  3  2  0  0  0
  1  5  1  0  0  0
  1  7  1  0  0  0
  2  6  1  0  0  0
  2  8  1  0  0  0
  2  4  2  0  0  0
  3  4  1  0  0  0
  3  9  1  0  0  0
  4 26  1  0  0  0
  5  6  1  0  0  0
  5 14  1  0  0  0
  5 27  1  0  0  0
  6 18  1  0  0  0
  6 28  1  0  0  0
  9 11  2  0  0  0
  9 12  1  0  0  0
 10 13  1  0  0  0
 10 17  1  0  0  0
 11 16  1  0  0  0
 11 29  1  0  0  0
 12 15  2  0  0  0
 12 30  1  0  0  0
 13 15  1  0  0  0
 13 16  2  0  0  0
 14 21  1  0  0  0
 14 31  1  0  0  0
 14 32  1  0  0  0
 15 33  1  0  0  0
 16 34  1  0  0  0
 17 19  1  0  0  0
 17 20  2  0  0  0
 18 22  1  0  0  0
 18 35  1  0  0  0
 18 36  1  0  0  0
 19 23  2  0  0  0
 19 37  1  0  0  0
 20 24  1  0  0  0
 20 38  1  0  0  0
 21 22  1  0  0  0
 21 39  1  0  0  0
 21 40  1  0  0  0
 22 41  1  0  0  0
 22 42  1  0  0  0
 23 25  1  0  0  0
 23 43  1  0  0  0
 24 25  2  0  0  0
 24 44  1  0  0  0
 25 45  1  0  0  0
M  CHG  4   1   1   2   1   7  -1   8  -1
M  END
> <s_m_entry_id>
64053

> <s_m_entry_name>
dock_pv.3

> <s_m_Source_Path>
/home/csk/Desktop/cluster/DUD-E-result/mmp13

> <s_m_Source_File>
dock_pv.maegz

> <i_m_Source_File_Index>
3

> <chembl_id>
CHEMBL607299

> <chembl_pref_name>
None

> <i_lp_mmshare_version>
53161

> <i_f3d_flags>
0

> <r_lp_tautomer_probability>
1

> <s_lp_Force_Field>
OPLS_2005

> <r_lp_Energy>
32.808097

> <b_lp_Chiralities_Consistent>
1

> <s_lp_Variant>
CHEMBL280_lig1328-1

> <s_i_glide_gridfile>
glide-grid_830c

> <i_i_glide_lignum>
2051

> <i_i_glide_rotatable_bonds>
3

> <r_i_docking_score>
-12.1788984256791

> <r_i_glide_ligand_efficiency>
-0.487155937027166

> <r_i_glide_ligand_efficiency_sa>
-1.42445259961476

> <r_i_glide_ligand_efficiency_ln>
-2.88676389902033

> <r_i_glide_gscore>
-12.1788984256791

> <r_i_glide_lipo>
-3.44300035657292

> <r_i_glide_hbond>
0

> <r_i_glide_metal>
-2.21533439682912

> <r_i_glide_rewards>
-1.41556090909091

> <r_i_glide_evdw>
-32.894588470459

> <r_i_glide_ecoul>
-25.4929046630859

> <r_i_glide_erotb>
0.500705400023441

> <r_i_glide_esite>
-0.137043040223793

> <r_i_glide_emodel>
-99.9478441474924

> <r_i_glide_energy>
-58.3874931335449

> <r_i_glide_einternal>
3.45200395584106

> <i_i_glide_confnum>
5

> <i_i_glide_posenum>
99

> <r_i_glide_eff_state_penalty>
0

> <s_user_duplicate_titles>
CHEMBL280_lig1328

> <s_m_subgroup_title>
dock_pv

> <s_m_subgroupid>
dock_pv

> <b_m_subgroup_collapsed>
1

$$$$
CHEMBL280_lig1328
                    3D
 Schrodinger Suite 2021-1.
 45 48  0  0  1  0            999 V2000
   -3.5765   27.6542   55.7564 N   0  3  0  0  0  0
   -4.4294   29.3999   57.7214 N   0  3  0  0  0  0
   -4.8564   28.0742   55.7137 C   0  0  0  0  0  0
   -5.2487   29.1140   56.7234 C   0  0  0  0  0  0
   -2.4910   28.2532   56.6556 C   0  0  1  0  0  0
   -3.1594   28.6468   58.0150 C   0  0  2  0  0  0
   -3.1383   26.9700   54.7884 O   0  5  0  0  0  0
   -4.8587   30.1503   58.6350 O   0  5  0  0  0  0
   -5.8379   27.5907   54.7476 C   0  0  0  0  0  0
   -8.5655   26.1701   51.9249 O   0  0  0  0  0  0
   -6.1218   26.2264   54.6413 C   0  0  0  0  0  0
   -6.5300   28.4997   53.9461 C   0  0  0  0  0  0
   -7.6852   26.6709   52.8592 C   0  0  0  0  0  0
   -1.2403   27.3551   56.9079 C   0  0  0  0  0  0
   -7.4411   28.0376   53.0066 C   0  0  0  0  0  0
   -7.0523   25.7709   53.7098 C   0  0  0  0  0  0
   -8.7216   26.7358   50.6744 C   0  0  0  0  0  0
   -3.4409   27.3809   58.8491 C   0  0  0  0  0  0
   -7.7014   27.4191   49.9974 C   0  0  0  0  0  0
   -9.9579   26.5693   50.0573 C   0  0  0  0  0  0
   -1.4771   26.1741   57.8686 C   0  0  0  0  0  0
   -2.1369   26.6373   59.1748 C   0  0  0  0  0  0
   -7.9393   27.9653   48.7388 C   0  0  0  0  0  0
  -10.1930   27.0929   48.7892 C   0  0  0  0  0  0
   -9.1843   27.7994   48.1388 C   0  0  0  0  0  0
   -6.1890   29.6453   56.7210 H   0  0  0  0  0  0
   -2.1632   29.1619   56.1479 H   0  0  0  0  0  0
   -2.4987   29.3121   58.5733 H   0  0  0  0  0  0
   -5.6242   25.5125   55.2770 H   0  0  0  0  0  0
   -6.3414   29.5614   54.0193 H   0  0  0  0  0  0
   -0.4458   27.9785   57.3230 H   0  0  0  0  0  0
   -0.8486   26.9643   55.9739 H   0  0  0  0  0  0
   -7.9384   28.7440   52.3685 H   0  0  0  0  0  0
   -7.2484   24.7125   53.6248 H   0  0  0  0  0  0
   -4.1048   26.7186   58.2913 H   0  0  0  0  0  0
   -4.0028   27.6331   59.7362 H   0  0  0  0  0  0
   -6.7229   27.5358   50.4387 H   0  0  0  0  0  0
  -10.7359   26.0274   50.5726 H   0  0  0  0  0  0
   -0.5324   25.6760   58.0895 H   0  0  0  0  0  0
   -2.1156   25.4308   57.3866 H   0  0  0  0  0  0
   -1.4608   27.2853   59.7352 H   0  0  0  0  0  0
   -2.3394   25.7822   59.8179 H   0  0  0  0  0  0
   -7.1531   28.5023   48.2272 H   0  0  0  0  0  0
  -11.1558   26.9613   48.3172 H   0  0  0  0  0  0
   -9.3642   28.2164   47.1585 H   0  0  0  0  0  0
  1  3  2  0  0  0
  1  5  1  0  0  0
  1  7  1  0  0  0
  2  6  1  0  0  0
  2  8  1  0  0  0
  2  4  2  0  0  0
  3  4  1  0  0  0
  3  9  1  0  0  0
  4 26  1  0  0  0
  5  6  1  0  0  0
  5 14  1  0  0  0
  5 27  1  0  0  0
  6 18  1  0  0  0
  6 28  1  0  0  0
  9 11  2  0  0  0
  9 12  1  0  0  0
 10 13  1  0  0  0
 10 17  1  0  0  0
 11 16  1  0  0  0
 11 29  1  0  0  0
 12 15  2  0  0  0
 12 30  1  0  0  0
 13 15  1  0  0  0
 13 16  2  0  0  0
 14 21  1  0  0  0
 14 31  1  0  0  0
 14 32  1  0  0  0
 15 33  1  0  0  0
 16 34  1  0  0  0
 17 19  1  0  0  0
 17 20  2  0  0  0
 18 22  1  0  0  0
 18 35  1  0  0  0
 18 36  1  0  0  0
 19 23  2  0  0  0
 19 37  1  0  0  0
 20 24  1  0  0  0
 20 38  1  0  0  0
 21 22  1  0  0  0
 21 39  1  0  0  0
 21 40  1  0  0  0
 22 41  1  0  0  0
 22 42  1  0  0  0
 23 25  1  0  0  0
 23 43  1  0  0  0
 24 25  2  0  0  0
 24 44  1  0  0  0
 25 45  1  0  0  0
M  CHG  4   1   1   2   1   7  -1   8  -1
M  END
> <s_m_entry_id>
64054

> <s_m_entry_name>
dock_pv.4

> <s_m_Source_Path>
/home/csk/Desktop/cluster/DUD-E-result/mmp13

> <s_m_Source_File>
dock_pv.maegz

> <i_m_Source_File_Index>
4

> <chembl_id>
CHEMBL607299

> <chembl_pref_name>
None

> <i_lp_mmshare_version>
53161

> <i_f3d_flags>
0

> <r_lp_tautomer_probability>
1

> <s_lp_Force_Field>
OPLS_2005

> <r_lp_Energy>
33.237798

> <b_lp_Chiralities_Consistent>
1

> <s_lp_Variant>
CHEMBL280_lig1328-2

> <s_i_glide_gridfile>
glide-grid_830c

> <i_i_glide_lignum>
2052

> <i_i_glide_rotatable_bonds>
3

> <r_i_docking_score>
-11.0787558648826

> <r_i_glide_ligand_efficiency>
-0.443150234595306

> <r_i_glide_ligand_efficiency_sa>
-1.29577914525955

> <r_i_glide_ligand_efficiency_ln>
-2.62599714349942

> <r_i_glide_gscore>
-11.0787558648826

> <r_i_glide_lipo>
-3.36641400169647

> <r_i_glide_hbond>
0

> <r_i_glide_metal>
-2.3

> <r_i_glide_rewards>
-1.41556090909091

> <r_i_glide_evdw>
-38.2291526794434

> <r_i_glide_ecoul>
-16.6706218719482

> <r_i_glide_erotb>
0.500705400023441

> <r_i_glide_esite>
-0.0854354393543001

> <r_i_glide_emodel>
-90.8654962828791

> <r_i_glide_energy>
-54.8997745513916

> <r_i_glide_einternal>
7.84217643737793

> <i_i_glide_confnum>
31

> <i_i_glide_posenum>
240

> <r_i_glide_eff_state_penalty>
0

> <s_user_duplicate_titles>
CHEMBL280_lig1328

> <s_m_subgroup_title>
dock_pv

> <s_m_subgroupid>
dock_pv

> <b_m_subgroup_collapsed>
1

$$$$
CHEMBL280_lig1328
                    3D
 Schrodinger Suite 2021-1.
 45 48  0  0  1  0            999 V2000
   -6.3363   28.7164   54.8868 N   0  3  0  0  0  0
   -4.4529   26.8119   55.6170 N   0  3  0  0  0  0
   -6.3531   27.5525   54.2207 C   0  0  0  0  0  0
   -5.3146   26.5687   54.6422 C   0  0  0  0  0  0
   -5.1245   29.1854   55.7093 C   0  0  2  0  0  0
   -4.5803   28.0029   56.5541 C   0  0  1  0  0  0
   -7.1450   29.6185   54.5286 O   0  5  0  0  0  0
   -3.2747   26.3927   55.3685 O   0  5  0  0  0  0
   -7.1414   27.2995   53.0097 C   0  0  0  0  0  0
   -8.9175   26.4994   49.2932 O   0  0  0  0  0  0
   -7.9384   26.1654   52.8061 C   0  0  0  0  0  0
   -6.9379   28.1706   51.9450 C   0  0  0  0  0  0
   -8.3238   26.8283   50.4955 C   0  0  0  0  0  0
   -5.3356   30.4885   56.5096 C   0  0  0  0  0  0
   -7.5215   27.9409   50.7109 C   0  0  0  0  0  0
   -8.5189   25.9399   51.5488 C   0  0  0  0  0  0
   -9.1332   27.3684   48.2389 C   0  0  0  0  0  0
   -5.5372   27.7673   57.7437 C   0  0  0  0  0  0
  -10.3908   27.3075   47.6407 C   0  0  0  0  0  0
   -8.1457   28.1799   47.6597 C   0  0  0  0  0  0
   -6.2986   30.2493   57.6598 C   0  0  0  0  0  0
   -5.7918   29.0858   58.5112 C   0  0  0  0  0  0
  -10.6854   28.0744   46.5150 C   0  0  0  0  0  0
   -8.4401   28.9672   46.5500 C   0  0  0  0  0  0
   -9.7073   28.9072   45.9787 C   0  0  0  0  0  0
   -5.1395   25.6537   54.1127 H   0  0  0  0  0  0
   -4.3320   29.3684   54.9902 H   0  0  0  0  0  0
   -3.5893   28.2518   56.9377 H   0  0  0  0  0  0
   -8.0835   25.4504   53.6008 H   0  0  0  0  0  0
   -6.2908   29.0275   52.0457 H   0  0  0  0  0  0
   -5.7117   31.2808   55.8602 H   0  0  0  0  0  0
   -4.3776   30.8452   56.8917 H   0  0  0  0  0  0
   -7.3022   28.6554   49.9463 H   0  0  0  0  0  0
   -9.1073   25.0596   51.3187 H   0  0  0  0  0  0
   -5.1211   27.0098   58.4092 H   0  0  0  0  0  0
   -6.4881   27.3724   57.3807 H   0  0  0  0  0  0
  -11.1472   26.6592   48.0585 H   0  0  0  0  0  0
   -7.1258   28.1684   48.0124 H   0  0  0  0  0  0
   -7.2984   30.0315   57.2781 H   0  0  0  0  0  0
   -6.3936   31.1482   58.2697 H   0  0  0  0  0  0
   -6.5253   28.9675   59.3019 H   0  0  0  0  0  0
   -4.8657   29.3895   59.0037 H   0  0  0  0  0  0
  -11.6643   28.0253   46.0630 H   0  0  0  0  0  0
   -7.6755   29.5972   46.1147 H   0  0  0  0  0  0
   -9.9282   29.5072   45.1079 H   0  0  0  0  0  0
  1  3  2  0  0  0
  1  5  1  0  0  0
  1  7  1  0  0  0
  2  6  1  0  0  0
  2  8  1  0  0  0
  2  4  2  0  0  0
  3  4  1  0  0  0
  3  9  1  0  0  0
  4 26  1  0  0  0
  5  6  1  0  0  0
  5 14  1  0  0  0
  5 27  1  0  0  0
  6 18  1  0  0  0
  6 28  1  0  0  0
  9 11  2  0  0  0
  9 12  1  0  0  0
 10 13  1  0  0  0
 10 17  1  0  0  0
 11 16  1  0  0  0
 11 29  1  0  0  0
 12 15  2  0  0  0
 12 30  1  0  0  0
 13 15  1  0  0  0
 13 16  2  0  0  0
 14 21  1  0  0  0
 14 31  1  0  0  0
 14 32  1  0  0  0
 15 33  1  0  0  0
 16 34  1  0  0  0
 17 19  1  0  0  0
 17 20  2  0  0  0
 18 22  1  0  0  0
 18 35  1  0  0  0
 18 36  1  0  0  0
 19 23  2  0  0  0
 19 37  1  0  0  0
 20 24  1  0  0  0
 20 38  1  0  0  0
 21 22  1  0  0  0
 21 39  1  0  0  0
 21 40  1  0  0  0
 22 41  1  0  0  0
 22 42  1  0  0  0
 23 25  1  0  0  0
 23 43  1  0  0  0
 24 25  2  0  0  0
 24 44  1  0  0  0
 25 45  1  0  0  0
M  CHG  4   1   1   2   1   7  -1   8  -1
M  END
> <s_m_entry_id>
64055

> <s_m_entry_name>
dock_pv.5

> <s_m_Source_Path>
/home/csk/Desktop/cluster/DUD-E-result/mmp13

> <s_m_Source_File>
dock_pv.maegz

> <i_m_Source_File_Index>
5

> <chembl_id>
CHEMBL607299

> <chembl_pref_name>
None

> <i_lp_mmshare_version>
53161

> <i_f3d_flags>
0

> <r_lp_tautomer_probability>
1

> <s_lp_Force_Field>
OPLS_2005

> <r_lp_Energy>
33.216269

> <b_lp_Chiralities_Consistent>
1

> <s_lp_Variant>
CHEMBL280_lig1328-3

> <s_i_glide_gridfile>
glide-grid_830c

> <i_i_glide_lignum>
2053

> <i_i_glide_rotatable_bonds>
3

> <r_i_docking_score>
-10.4616019896757

> <r_i_glide_ligand_efficiency>
-0.418464079587026

> <r_i_glide_ligand_efficiency_sa>
-1.22359639020452

> <r_i_glide_ligand_efficiency_ln>
-2.47971318046614

> <r_i_glide_gscore>
-10.4616019896757

> <r_i_glide_lipo>
-3.3497191612042

> <r_i_glide_hbond>
0

> <r_i_glide_metal>
-1.39637145179873

> <r_i_glide_rewards>
-1.41556090909091

> <r_i_glide_evdw>
-29.1913509368896

> <r_i_glide_ecoul>
-21.6895446777344

> <r_i_glide_erotb>
0.500705400023441

> <r_i_glide_esite>
-0.0876566191006251

> <r_i_glide_emodel>
-75.0659693303307

> <r_i_glide_energy>
-50.880895614624

> <r_i_glide_einternal>
2.85645890235901

> <i_i_glide_confnum>
33

> <i_i_glide_posenum>
78

> <r_i_glide_eff_state_penalty>
0

> <s_user_duplicate_titles>
CHEMBL280_lig1328

> <s_m_subgroup_title>
dock_pv

> <s_m_subgroupid>
dock_pv

> <b_m_subgroup_collapsed>
1

$$$$
CHEMBL280_lig2322
                    3D
 Schrodinger Suite 2021-1.
 42 45  0  0  1  0            999 V2000
   -4.8621   28.8325   57.0265 C   0  0  0  0  0  0
   -3.4487   29.2758   56.4991 C   0  0  0  0  0  0
   -4.8339   27.3737   57.5915 C   0  0  0  0  0  0
   -2.7298   28.2508   55.9934 N   0  0  0  0  0  0
   -3.9783   26.5700   56.9148 N   0  0  0  0  0  0
   -5.9014   28.9676   55.9701 N   0  0  0  0  0  0
   -2.9072   26.9160   56.1603 C   0  0  0  0  0  0
   -6.6390   30.1142   56.0749 C   0  0  0  0  0  0
   -5.3470   29.8301   58.1061 C   0  0  0  0  0  0
   -6.2076   28.0304   54.9589 C   0  0  0  0  0  0
   -5.5390   26.9700   58.5100 O   0  0  0  0  0  0
   -3.0064   30.4221   56.5100 O   0  0  0  0  0  0
   -6.1893   30.8291   57.3425 C   0  0  0  0  0  0
   -2.1171   26.0911   55.7100 O   0  0  0  0  0  0
   -7.5390   30.5160   55.3333 O   0  0  0  0  0  0
   -7.7972   27.3700   49.7946 C   0  0  0  0  0  0
   -8.5175   26.5980   50.7178 C   0  0  0  0  0  0
   -7.9390   25.9534   51.7865 O   0  0  0  0  0  0
   -5.6824   28.1700   53.6835 C   0  0  0  0  0  0
   -7.1675   27.0547   55.1887 C   0  0  0  0  0  0
   -7.3370   26.6524   52.8089 C   0  0  0  0  0  0
   -8.4380   27.9652   48.7106 C   0  0  0  0  0  0
   -6.2564   27.5107   52.6090 C   0  0  0  0  0  0
   -7.7685   26.4143   54.1100 C   0  0  0  0  0  0
   -7.5390   28.9373   47.6061 Cl  0  0  0  0  0  0
  -10.5158   26.9700   49.4110 C   0  0  0  0  0  0
   -9.8791   26.3926   50.5066 C   0  0  0  0  0  0
   -9.8016   27.7661   48.5184 C   0  0  0  0  0  0
   -1.8577   28.5329   55.5751 H   0  0  0  0  0  0
   -4.0337   25.5885   57.1640 H   0  0  0  0  0  0
   -5.9856   29.3706   58.8645 H   0  0  0  0  0  0
   -4.5445   30.3193   58.6637 H   0  0  0  0  0  0
   -7.0334   31.1990   57.9266 H   0  0  0  0  0  0
   -5.5916   31.6888   57.0364 H   0  0  0  0  0  0
   -6.7330   27.4983   49.8673 H   0  0  0  0  0  0
   -4.8938   28.8712   53.5094 H   0  0  0  0  0  0
   -7.5390   26.8913   56.1851 H   0  0  0  0  0  0
   -5.8343   27.6871   51.6377 H   0  0  0  0  0  0
   -8.6082   25.7700   54.2814 H   0  0  0  0  0  0
  -11.5718   26.8237   49.2547 H   0  0  0  0  0  0
  -10.4382   25.7701   51.1902 H   0  0  0  0  0  0
  -10.3049   28.2221   47.6783 H   0  0  0  0  0  0
  1  2  1  0  0  0
  1  3  1  0  0  0
  1  6  1  0  0  0
  1  9  1  0  0  0
  2  4  1  0  0  0
  2 12  2  0  0  0
  3  5  1  0  0  0
  3 11  2  0  0  0
  4  7  1  0  0  0
  4 29  1  0  0  0
  5  7  1  0  0  0
  5 30  1  0  0  0
  6  8  1  0  0  0
  6 10  1  0  0  0
  7 14  2  0  0  0
  8 15  2  0  0  0
  8 13  1  0  0  0
  9 13  1  0  0  0
  9 31  1  0  0  0
  9 32  1  0  0  0
 10 19  2  0  0  0
 10 20  1  0  0  0
 13 33  1  0  0  0
 13 34  1  0  0  0
 16 17  1  0  0  0
 16 22  2  0  0  0
 16 35  1  0  0  0
 17 18  1  0  0  0
 17 27  2  0  0  0
 18 21  1  0  0  0
 19 23  1  0  0  0
 19 36  1  0  0  0
 20 24  2  0  0  0
 20 37  1  0  0  0
 21 24  1  0  0  0
 21 23  2  0  0  0
 22 25  1  0  0  0
 22 28  1  0  0  0
 23 38  1  0  0  0
 24 39  1  0  0  0
 26 27  1  0  0  0
 26 28  2  0  0  0
 26 40  1  0  0  0
 27 41  1  0  0  0
 28 42  1  0  0  0
M  END
> <s_m_entry_id>
64056

> <s_m_entry_name>
dock_pv.6

> <s_m_Source_Path>
/home/csk/Desktop/cluster/DUD-E-result/mmp13

> <s_m_Source_File>
dock_pv.maegz

> <i_m_Source_File_Index>
6

> <chembl_id>
CHEMBL425341

> <chembl_pref_name>
None

> <i_lp_mmshare_version>
53161

> <i_f3d_flags>
0

> <r_lp_tautomer_probability>
0.999999998612168

> <s_lp_Force_Field>
OPLS_2005

> <r_lp_Energy>
40.461661

> <b_lp_Chiralities_Consistent>
1

> <s_lp_Variant>
CHEMBL280_lig2322-1

> <s_i_glide_gridfile>
glide-grid_830c

> <i_i_glide_lignum>
3318

> <i_i_glide_rotatable_bonds>
3

> <r_i_docking_score>
-9.79763445166292

> <r_i_glide_ligand_efficiency>
-0.349915516130819

> <r_i_glide_ligand_efficiency_sa>
-1.06254959619081

> <r_i_glide_ligand_efficiency_ln>
-2.26158170249139

> <r_i_glide_gscore>
-9.79763445166292

> <r_i_glide_lipo>
-3.90839064421743

> <r_i_glide_hbond>
-0.818598550517879

> <r_i_glide_metal>
0

> <r_i_glide_rewards>
-0.683289136363636

> <r_i_glide_evdw>
-46.833610534668

> <r_i_glide_ecoul>
-14.2759656906128

> <r_i_glide_erotb>
0.36785704104393

> <r_i_glide_esite>
-0.272137781282585

> <r_i_glide_emodel>
-84.7952366962723

> <r_i_glide_energy>
-61.1095762252808

> <r_i_glide_einternal>
2.7819619178772

> <i_i_glide_confnum>
4

> <i_i_glide_posenum>
177

> <r_i_glide_eff_state_penalty>
0

> <s_user_duplicate_titles>
CHEMBL280_lig2322,300855

> <s_m_subgroup_title>
dock_pv

> <s_m_subgroupid>
dock_pv

> <b_m_subgroup_collapsed>
1

$$$$
CHEMBL280_lig2318
                    3D
 Schrodinger Suite 2021-1.
 42 45  0  0  1  0            999 V2000
   -4.6527   29.1017   57.2027 C   0  0  0  0  0  0
   -4.5258   27.7071   57.9030 C   0  0  0  0  0  0
   -3.3768   29.4419   56.3442 C   0  0  0  0  0  0
   -3.7195   26.8413   57.2489 N   0  0  0  0  0  0
   -2.7709   28.3528   55.8295 N   0  0  0  0  0  0
   -5.9175   29.2217   56.3968 N   0  0  0  0  0  0
   -2.8639   27.0597   56.2220 C   0  0  0  0  0  0
   -6.6069   30.3721   56.6963 C   0  0  0  0  0  0
   -4.8102   30.1851   58.3003 C   0  0  0  0  0  0
   -6.3462   28.3729   55.3199 C   0  0  0  0  0  0
   -2.9284   30.5666   56.1351 O   0  0  0  0  0  0
   -5.1390   27.3700   58.9100 O   0  0  0  0  0  0
   -5.8259   31.1453   57.7445 C   0  0  0  0  0  0
   -2.1878   26.1699   55.7100 O   0  0  0  0  0  0
   -7.6696   30.7752   56.2193 O   0  0  0  0  0  0
   -7.8959   26.0173   52.1765 O   0  0  0  0  0  0
   -6.7390   28.9570   54.1099 C   0  0  0  0  0  0
   -6.4502   26.9748   55.4313 C   0  0  0  0  0  0
   -7.3491   26.8092   53.1755 C   0  0  0  0  0  0
   -6.9300   26.2065   54.3638 C   0  0  0  0  0  0
   -7.2290   28.1921   53.0643 C   0  0  0  0  0  0
   -8.3701   26.5520   50.9913 C   0  0  0  0  0  0
   -7.5388   27.2573   50.1145 C   0  0  0  0  0  0
   -9.7091   26.3581   50.6546 C   0  0  0  0  0  0
   -8.0522   27.8139   48.9470 C   0  0  0  0  0  0
  -10.2316   26.9255   49.4936 C   0  0  0  0  0  0
   -9.4013   27.6535   48.6457 C   0  0  0  0  0  0
   -3.7234   25.9020   57.6311 H   0  0  0  0  0  0
   -2.0213   28.5700   55.1930 H   0  0  0  0  0  0
   -5.2110   29.8057   59.2432 H   0  0  0  0  0  0
   -3.8841   30.6960   58.5761 H   0  0  0  0  0  0
   -6.4803   31.5637   58.5099 H   0  0  0  0  0  0
   -5.3354   31.9753   57.2340 H   0  0  0  0  0  0
   -6.6828   30.0257   53.9738 H   0  0  0  0  0  0
   -6.2106   26.4538   56.3435 H   0  0  0  0  0  0
   -7.0000   25.1344   54.4689 H   0  0  0  0  0  0
   -7.5390   28.7120   52.1746 H   0  0  0  0  0  0
   -6.4931   27.3910   50.3491 H   0  0  0  0  0  0
  -10.3474   25.7835   51.3097 H   0  0  0  0  0  0
   -7.4043   28.3698   48.2839 H   0  0  0  0  0  0
  -11.2753   26.8039   49.2459 H   0  0  0  0  0  0
   -9.8036   28.0909   47.7435 H   0  0  0  0  0  0
  1  2  1  0  0  0
  1  3  1  0  0  0
  1  6  1  0  0  0
  1  9  1  0  0  0
  2  4  1  0  0  0
  2 12  2  0  0  0
  3  5  1  0  0  0
  3 11  2  0  0  0
  4  7  1  0  0  0
  4 28  1  0  0  0
  5  7  1  0  0  0
  5 29  1  0  0  0
  6  8  1  0  0  0
  6 10  1  0  0  0
  7 14  2  0  0  0
  8 15  2  0  0  0
  8 13  1  0  0  0
  9 13  1  0  0  0
  9 30  1  0  0  0
  9 31  1  0  0  0
 10 17  2  0  0  0
 10 18  1  0  0  0
 13 32  1  0  0  0
 13 33  1  0  0  0
 16 19  1  0  0  0
 16 22  1  0  0  0
 17 21  1  0  0  0
 17 34  1  0  0  0
 18 20  2  0  0  0
 18 35  1  0  0  0
 19 20  1  0  0  0
 19 21  2  0  0  0
 20 36  1  0  0  0
 21 37  1  0  0  0
 22 23  2  0  0  0
 22 24  1  0  0  0
 23 25  1  0  0  0
 23 38  1  0  0  0
 24 26  2  0  0  0
 24 39  1  0  0  0
 25 27  2  0  0  0
 25 40  1  0  0  0
 26 27  1  0  0  0
 26 41  1  0  0  0
 27 42  1  0  0  0
M  END
> <s_m_entry_id>
64057

> <s_m_entry_name>
dock_pv.7

> <s_m_Source_Path>
/home/csk/Desktop/cluster/DUD-E-result/mmp13

> <s_m_Source_File>
dock_pv.maegz

> <i_m_Source_File_Index>
7

> <chembl_id>
CHEMBL178509

> <chembl_pref_name>
None

> <i_lp_mmshare_version>
53161

> <i_f3d_flags>
0

> <r_lp_tautomer_probability>
0.999999998612168

> <s_lp_Force_Field>
OPLS_2005

> <r_lp_Energy>
40.243359

> <b_lp_Chiralities_Consistent>
1

> <s_lp_Variant>
CHEMBL280_lig2318-1

> <s_i_glide_gridfile>
glide-grid_830c

> <i_i_glide_lignum>
3314

> <i_i_glide_rotatable_bonds>
3

> <r_i_docking_score>
-9.45610105966843

> <r_i_glide_ligand_efficiency>
-0.350225965172905

> <r_i_glide_ligand_efficiency_sa>
-1.05067789436443

> <r_i_glide_ligand_efficiency_ln>
-2.20122443068091

> <r_i_glide_gscore>
-9.45610105966843

> <r_i_glide_lipo>
-3.46812921771966

> <r_i_glide_hbond>
-0.737806512867452

> <r_i_glide_metal>
0

> <r_i_glide_rewards>
-0.968671418708016

> <r_i_glide_evdw>
-49.1900024414062

> <r_i_glide_ecoul>
-13.3027276992798

> <r_i_glide_erotb>
0.432335392783967

> <r_i_glide_esite>
-0.258920026194987

> <r_i_glide_emodel>
-93.2866873488476

> <r_i_glide_energy>
-62.492730140686

> <r_i_glide_einternal>
3.54600143432617

> <i_i_glide_confnum>
51

> <i_i_glide_posenum>
315

> <r_i_glide_eff_state_penalty>
0

> <s_user_duplicate_titles>
CHEMBL280_lig2318,300941

> <s_m_subgroup_title>
dock_pv

> <s_m_subgroupid>
dock_pv

> <b_m_subgroup_collapsed>
1

$$$$
CHEMBL280_lig2323
                    3D
 Schrodinger Suite 2021-1.
 46 49  0  0  1  0            999 V2000
   -4.6446   29.1090   57.2173 C   0  0  0  0  0  0
   -4.5147   27.7140   57.9138 C   0  0  0  0  0  0
   -3.3697   29.4515   56.3571 C   0  0  0  0  0  0
   -3.7074   26.8497   57.2596 N   0  0  0  0  0  0
   -2.7632   28.3617   55.8397 N   0  0  0  0  0  0
   -5.9138   29.2281   56.4166 N   0  0  0  0  0  0
   -2.8583   27.0665   56.2279 C   0  0  0  0  0  0
   -6.6045   30.3760   56.7221 C   0  0  0  0  0  0
   -4.8025   30.1888   58.3195 C   0  0  0  0  0  0
   -6.3387   28.3825   55.3354 C   0  0  0  0  0  0
   -2.9238   30.5786   56.1524 O   0  0  0  0  0  0
   -5.1390   27.3700   58.9100 O   0  0  0  0  0  0
   -5.8176   31.1505   57.7649 C   0  0  0  0  0  0
   -2.1939   26.1700   55.7100 O   0  0  0  0  0  0
   -7.6692   30.7789   56.2496 O   0  0  0  0  0  0
   -7.5399   27.3222   50.0687 C   0  0  0  0  0  0
   -8.2817   26.5700   50.9889 C   0  0  0  0  0  0
   -7.7087   26.0228   52.1205 O   0  0  0  0  0  0
   -6.4046   26.9809   55.4295 C   0  0  0  0  0  0
   -6.7389   28.9700   54.1291 C   0  0  0  0  0  0
   -7.2431   26.8181   53.1536 C   0  0  0  0  0  0
   -8.1522   27.9230   48.9648 C   0  0  0  0  0  0
   -6.8344   26.2111   54.3432 C   0  0  0  0  0  0
   -7.1772   28.2057   53.0630 C   0  0  0  0  0  0
   -7.3460   28.6744   48.1328 O   0  0  0  0  0  0
  -10.2694   26.9700   49.6714 C   0  0  0  0  0  0
   -9.6404   26.3702   50.7611 C   0  0  0  0  0  0
   -9.5319   27.7431   48.7778 C   0  0  0  0  0  0
   -7.9389   29.4151   47.0713 C   0  0  0  0  0  0
   -3.7140   25.9091   57.6383 H   0  0  0  0  0  0
   -2.0188   28.5755   55.1962 H   0  0  0  0  0  0
   -3.8762   30.6988   58.5960 H   0  0  0  0  0  0
   -5.2034   29.8070   59.2613 H   0  0  0  0  0  0
   -5.3256   31.9760   57.2485 H   0  0  0  0  0  0
   -6.4686   31.5775   58.5272 H   0  0  0  0  0  0
   -6.4819   27.4705   50.2257 H   0  0  0  0  0  0
   -6.1633   26.4544   56.3376 H   0  0  0  0  0  0
   -6.7120   30.0416   54.0056 H   0  0  0  0  0  0
   -6.8657   25.1349   54.4325 H   0  0  0  0  0  0
   -7.4813   28.7270   52.1717 H   0  0  0  0  0  0
  -11.3307   26.8447   49.5170 H   0  0  0  0  0  0
  -10.2151   25.7700   51.4509 H   0  0  0  0  0  0
  -10.0476   28.1920   47.9427 H   0  0  0  0  0  0
   -7.1775   30.0231   46.5827 H   0  0  0  0  0  0
   -8.7091   30.0960   47.4373 H   0  0  0  0  0  0
   -8.3689   28.7541   46.3176 H   0  0  0  0  0  0
  1  2  1  0  0  0
  1  3  1  0  0  0
  1  6  1  0  0  0
  1  9  1  0  0  0
  2  4  1  0  0  0
  2 12  2  0  0  0
  3  5  1  0  0  0
  3 11  2  0  0  0
  4  7  1  0  0  0
  4 30  1  0  0  0
  5  7  1  0  0  0
  5 31  1  0  0  0
  6  8  1  0  0  0
  6 10  1  0  0  0
  7 14  2  0  0  0
  8 15  2  0  0  0
  8 13  1  0  0  0
  9 13  1  0  0  0
  9 32  1  0  0  0
  9 33  1  0  0  0
 10 19  2  0  0  0
 10 20  1  0  0  0
 13 34  1  0  0  0
 13 35  1  0  0  0
 16 17  1  0  0  0
 16 22  2  0  0  0
 16 36  1  0  0  0
 17 18  1  0  0  0
 17 27  2  0  0  0
 18 21  1  0  0  0
 19 23  1  0  0  0
 19 37  1  0  0  0
 20 24  2  0  0  0
 20 38  1  0  0  0
 21 24  1  0  0  0
 21 23  2  0  0  0
 22 25  1  0  0  0
 22 28  1  0  0  0
 23 39  1  0  0  0
 24 40  1  0  0  0
 25 29  1  0  0  0
 26 27  1  0  0  0
 26 28  2  0  0  0
 26 41  1  0  0  0
 27 42  1  0  0  0
 28 43  1  0  0  0
 29 44  1  0  0  0
 29 45  1  0  0  0
 29 46  1  0  0  0
M  END
> <s_m_entry_id>
64058

> <s_m_entry_name>
dock_pv.8

> <s_m_Source_Path>
/home/csk/Desktop/cluster/DUD-E-result/mmp13

> <s_m_Source_File>
dock_pv.maegz

> <i_m_Source_File_Index>
8

> <chembl_id>
CHEMBL181562

> <chembl_pref_name>
None

> <i_lp_mmshare_version>
53161

> <i_f3d_flags>
0

> <r_lp_tautomer_probability>
0.999999998612168

> <s_lp_Force_Field>
OPLS_2005

> <r_lp_Energy>
44.473494

> <b_lp_Chiralities_Consistent>
1

> <s_lp_Variant>
CHEMBL280_lig2323-1

> <s_i_glide_gridfile>
glide-grid_830c

> <i_i_glide_lignum>
3319

> <i_i_glide_rotatable_bonds>
4

> <r_i_docking_score>
-9.39440494291202

> <r_i_glide_ligand_efficiency>
-0.323944998031449

> <r_i_glide_ligand_efficiency_sa>
-0.995261666931676

> <r_i_glide_ligand_efficiency_ln>
-2.15108051037182

> <r_i_glide_gscore>
-9.39440494291202

> <r_i_glide_lipo>
-3.58114206101027

> <r_i_glide_hbond>
-0.737807250816078

> <r_i_glide_metal>
0

> <r_i_glide_rewards>
-0.761795073688018

> <r_i_glide_evdw>
-52.0356559753418

> <r_i_glide_ecoul>
-12.2036199569702

> <r_i_glide_erotb>
0.375286422473746

> <r_i_glide_esite>
-0.256621187558779

> <r_i_glide_emodel>
-91.4437840628259

> <r_i_glide_energy>
-64.239275932312

> <r_i_glide_einternal>
13.2217931747437

> <i_i_glide_confnum>
3

> <i_i_glide_posenum>
345

> <r_i_glide_eff_state_penalty>
0

> <s_user_duplicate_titles>
CHEMBL280_lig2323,300862

> <s_m_subgroup_title>
dock_pv

> <s_m_subgroupid>
dock_pv

> <b_m_subgroup_collapsed>
1

$$$$
CHEMBL280_lig1230
                    3D
 Schrodinger Suite 2021-1.
 42 45  0  0  1  0            999 V2000
   -4.7737   28.8390   57.0990 C   0  0  0  0  0  0
   -4.7458   27.3873   57.6716 C   0  0  0  0  0  0
   -3.8458   26.5779   57.0612 N   0  0  0  0  0  0
   -2.8460   26.8874   56.2012 C   0  0  0  0  0  0
   -2.7151   28.2064   55.9314 N   0  0  0  0  0  0
   -3.4306   29.2536   56.3857 C   0  0  0  0  0  0
   -7.6125   27.2568   49.8823 C   0  0  0  0  0  0
   -8.4370   26.5698   50.7817 C   0  0  0  0  0  0
   -9.7968   26.4333   50.5073 C   0  0  0  0  0  0
  -10.3379   27.0070   49.3591 C   0  0  0  0  0  0
   -9.5123   27.6929   48.4725 C   0  0  0  0  0  0
   -8.1516   27.8211   48.7298 C   0  0  0  0  0  0
   -7.9384   26.0142   51.9425 O   0  0  0  0  0  0
   -7.3943   26.8021   52.9395 C   0  0  0  0  0  0
   -7.0210   26.1365   54.0610 N   0  0  0  0  0  0
   -6.5257   26.8539   55.1075 C   0  0  0  0  0  0
   -6.3860   28.2563   55.1059 C   0  0  0  0  0  0
   -6.7647   28.8997   53.9281 C   0  0  0  0  0  0
   -7.2518   28.1841   52.8433 C   0  0  0  0  0  0
   -5.9447   29.0307   56.2046 N   0  0  0  0  0  0
   -6.4468   30.3929   56.4532 C   0  0  0  0  0  0
   -5.7590   31.0001   57.6694 C   0  0  0  0  0  0
   -5.0338   29.8182   58.2820 C   0  0  0  0  0  0
   -3.0230   30.4005   56.2159 O   0  0  0  0  0  0
   -2.0859   26.0564   55.7101 O   0  0  0  0  0  0
   -5.5389   26.9699   58.5103 O   0  0  0  0  0  0
  -10.0372   28.2397   47.3538 F   0  0  0  0  0  0
   -3.9028   25.6103   57.3640 H   0  0  0  0  0  0
   -1.8975   28.4744   55.4083 H   0  0  0  0  0  0
   -6.5572   27.3699   50.0835 H   0  0  0  0  0  0
  -10.4306   25.8913   51.1933 H   0  0  0  0  0  0
  -11.3957   26.9418   49.1535 H   0  0  0  0  0  0
   -7.5150   28.3559   48.0395 H   0  0  0  0  0  0
   -6.3188   26.2508   55.9753 H   0  0  0  0  0  0
   -6.6938   29.9691   53.8347 H   0  0  0  0  0  0
   -7.5378   28.7239   51.9576 H   0  0  0  0  0  0
   -7.5302   30.3874   56.5774 H   0  0  0  0  0  0
   -6.2341   31.0317   55.5971 H   0  0  0  0  0  0
   -6.4685   31.4433   58.3697 H   0  0  0  0  0  0
   -5.0491   31.7713   57.3669 H   0  0  0  0  0  0
   -5.7073   29.3967   59.0295 H   0  0  0  0  0  0
   -4.1316   30.1230   58.8172 H   0  0  0  0  0  0
  1  2  1  0  0  0
  1  6  1  0  0  0
  1 23  1  0  0  0
  1 20  1  0  0  0
  2  3  1  0  0  0
  2 26  2  0  0  0
  3  4  1  0  0  0
  3 28  1  0  0  0
  4  5  1  0  0  0
  4 25  2  0  0  0
  5  6  1  0  0  0
  5 29  1  0  0  0
  6 24  2  0  0  0
  7  8  2  0  0  0
  7 12  1  0  0  0
  7 30  1  0  0  0
  8  9  1  0  0  0
  8 13  1  0  0  0
  9 10  2  0  0  0
  9 31  1  0  0  0
 10 11  1  0  0  0
 10 32  1  0  0  0
 11 12  2  0  0  0
 11 27  1  0  0  0
 12 33  1  0  0  0
 13 14  1  0  0  0
 14 15  2  0  0  0
 14 19  1  0  0  0
 15 16  1  0  0  0
 16 17  2  0  0  0
 16 34  1  0  0  0
 17 18  1  0  0  0
 17 20  1  0  0  0
 18 19  2  0  0  0
 18 35  1  0  0  0
 19 36  1  0  0  0
 20 21  1  0  0  0
 21 22  1  0  0  0
 21 37  1  0  0  0
 21 38  1  0  0  0
 22 23  1  0  0  0
 22 39  1  0  0  0
 22 40  1  0  0  0
 23 41  1  0  0  0
 23 42  1  0  0  0
M  END
> <s_m_entry_id>
64059

> <s_m_entry_name>
dock_pv.9

> <s_m_Source_Path>
/home/csk/Desktop/cluster/DUD-E-result/mmp13

> <s_m_Source_File>
dock_pv.maegz

> <i_m_Source_File_Index>
9

> <chembl_id>
CHEMBL398966

> <chembl_pref_name>
None

> <i_lp_mmshare_version>
53161

> <i_f3d_flags>
0

> <r_lp_tautomer_probability>
0.999999998612168

> <s_lp_Force_Field>
OPLS_2005

> <r_lp_Energy>
45.883167

> <b_lp_Chiralities_Consistent>
1

> <s_lp_Variant>
CHEMBL280_lig1230-1

> <s_i_glide_gridfile>
glide-grid_830c

> <i_i_glide_lignum>
1937

> <i_i_glide_rotatable_bonds>
3

> <r_i_docking_score>
-9.32516091046254

> <r_i_glide_ligand_efficiency>
-0.345376330017131

> <r_i_glide_ligand_efficiency_sa>
-1.03612898891309

> <r_i_glide_ligand_efficiency_ln>
-2.17074372266285

> <r_i_glide_gscore>
-9.32516091046254

> <r_i_glide_lipo>
-3.50121254306713

> <r_i_glide_hbond>
-0.818795143337713

> <r_i_glide_metal>
0

> <r_i_glide_rewards>
-0.931026538535052

> <r_i_glide_evdw>
-46.4413642883301

> <r_i_glide_ecoul>
-12.5939073562622

> <r_i_glide_erotb>
0.421974613536633

> <r_i_glide_esite>
-0.284946981203444

> <r_i_glide_emodel>
-84.9816337323079

> <r_i_glide_energy>
-59.0352716445923

> <r_i_glide_einternal>
9.1952657699585

> <i_i_glide_confnum>
19

> <i_i_glide_posenum>
191

> <r_i_glide_eff_state_penalty>
0

> <s_user_duplicate_titles>
CHEMBL280_lig1230,417689

> <s_m_subgroup_title>
dock_pv

> <s_m_subgroupid>
dock_pv

> <b_m_subgroup_collapsed>
1

$$$$
CHEMBL280_lig2581
                    3D
 Schrodinger Suite 2021-1.
 68 70  0  0  1  0            999 V2000
   -1.3895   31.3799   56.1095 C   0  0  0  0  0  0
   -1.3594   29.8459   56.0152 C   0  0  2  0  0  0
   -2.6807   29.3343   56.3733 N   0  0  0  0  0  0
   -3.1902   28.1212   56.0961 C   0  0  0  0  0  0
   -2.6862   27.3013   55.3102 O   0  0  0  0  0  0
   -4.4714   27.8197   56.8905 C   0  0  0  0  0  0
   -5.3365   26.6572   56.3728 C   0  0  0  0  0  0
   -6.0507   26.8437   55.0366 C   0  0  0  0  0  0
   -6.0466   28.0454   54.3232 C   0  0  0  0  0  0
   -6.6884   28.1196   53.0919 C   0  0  0  0  0  0
   -7.3667   27.0154   52.5619 C   0  0  0  0  0  0
   -7.4121   25.8399   53.3100 C   0  0  0  0  0  0
   -6.7392   25.7500   54.5223 C   0  0  0  0  0  0
   -7.9827   27.0886   51.2088 C   0  0  0  0  0  0
   -9.2130   26.5036   50.9095 C   0  0  0  0  0  0
   -9.7849   26.6686   49.6483 C   0  0  0  0  0  0
   -9.1481   27.4062   48.6332 C   0  0  0  0  0  0
   -7.8910   27.9402   48.9410 C   0  0  0  0  0  0
   -7.3210   27.7699   50.1953 C   0  0  0  0  0  0
   -9.7647   27.6069   47.2685 C   0  0  0  0  0  0
   -9.1636   28.4364   46.3010 C   0  0  0  0  0  0
   -9.7242   28.6071   45.0384 C   0  0  0  0  0  0
  -10.9116   27.9604   44.7178 C   0  0  0  0  0  0
  -11.5367   27.1439   45.6522 C   0  0  0  0  0  0
  -10.9651   26.9702   46.9092 C   0  0  0  0  0  0
   -0.2393   29.2800   56.9103 C   0  0  0  0  0  0
    0.9263   29.3925   56.5331 O   0  0  0  0  0  0
   -0.6049   28.6413   58.0374 N   0  0  0  0  0  0
    0.2687   27.7560   58.8119 C   0  0  1  0  0  0
   -0.4129   27.4395   60.1661 C   0  0  0  0  0  0
    0.3717   26.4650   61.0714 C   0  0  0  0  0  0
   -0.3221   26.2518   62.4142 C   0  0  0  0  0  0
   -1.1486   25.3700   62.6251 O   0  0  0  0  0  0
    0.0642   27.1598   63.3517 O   0  0  0  0  0  0
    0.5681   26.4861   57.9874 C   0  0  0  0  0  0
   -0.3546   25.7701   57.6013 O   0  0  0  0  0  0
    1.8437   26.2242   57.7100 N   0  0  0  0  0  0
   -0.4543   31.8130   55.7515 H   0  0  0  0  0  0
   -2.1946   31.7998   55.5051 H   0  0  0  0  0  0
   -1.5368   31.7184   57.1361 H   0  0  0  0  0  0
   -1.1467   29.5621   54.9831 H   0  0  0  0  0  0
   -3.2193   29.9491   56.9660 H   0  0  0  0  0  0
   -4.1621   27.5800   57.9089 H   0  0  0  0  0  0
   -5.0860   28.7190   56.9617 H   0  0  0  0  0  0
   -4.7096   25.7700   56.3207 H   0  0  0  0  0  0
   -6.1006   26.4294   57.1168 H   0  0  0  0  0  0
   -5.5378   28.9234   54.6908 H   0  0  0  0  0  0
   -6.6439   29.0447   52.5395 H   0  0  0  0  0  0
   -7.9143   24.9702   52.9255 H   0  0  0  0  0  0
   -6.7388   24.8139   55.0617 H   0  0  0  0  0  0
   -9.7473   25.9402   51.6602 H   0  0  0  0  0  0
  -10.7391   26.2063   49.4915 H   0  0  0  0  0  0
   -7.3022   28.4861   48.2225 H   0  0  0  0  0  0
   -6.3413   28.1705   50.3908 H   0  0  0  0  0  0
   -8.2460   28.9695   46.4914 H   0  0  0  0  0  0
   -9.2342   29.2396   44.3112 H   0  0  0  0  0  0
  -11.3482   28.0915   43.7382 H   0  0  0  0  0  0
  -12.4589   26.6413   45.4017 H   0  0  0  0  0  0
  -11.4878   26.3302   47.5993 H   0  0  0  0  0  0
   -1.5864   28.5903   58.2595 H   0  0  0  0  0  0
    1.1979   28.2929   59.0168 H   0  0  0  0  0  0
   -1.4084   27.0272   59.9870 H   0  0  0  0  0  0
   -0.5644   28.3752   60.7059 H   0  0  0  0  0  0
    1.3851   26.8300   61.2440 H   0  0  0  0  0  0
    0.4675   25.4891   60.5943 H   0  0  0  0  0  0
   -0.3881   27.0175   64.1868 H   0  0  0  0  0  0
    2.0601   25.4525   57.0867 H   0  0  0  0  0  0
    2.5797   26.8416   58.0169 H   0  0  0  0  0  0
  1  2  1  0  0  0
  1 38  1  0  0  0
  1 39  1  0  0  0
  1 40  1  0  0  0
  2  3  1  0  0  0
  2 26  1  0  0  0
  2 41  1  0  0  0
  3  4  1  0  0  0
  3 42  1  0  0  0
  4  5  2  0  0  0
  4  6  1  0  0  0
  6  7  1  0  0  0
  6 43  1  0  0  0
  6 44  1  0  0  0
  7  8  1  0  0  0
  7 45  1  0  0  0
  7 46  1  0  0  0
  8  9  2  0  0  0
  8 13  1  0  0  0
  9 10  1  0  0  0
  9 47  1  0  0  0
 10 11  2  0  0  0
 10 48  1  0  0  0
 11 12  1  0  0  0
 11 14  1  0  0  0
 12 13  2  0  0  0
 12 49  1  0  0  0
 13 50  1  0  0  0
 14 15  2  0  0  0
 14 19  1  0  0  0
 15 16  1  0  0  0
 15 51  1  0  0  0
 16 17  2  0  0  0
 16 52  1  0  0  0
 17 18  1  0  0  0
 17 20  1  0  0  0
 18 19  2  0  0  0
 18 53  1  0  0  0
 19 54  1  0  0  0
 20 21  2  0  0  0
 20 25  1  0  0  0
 21 22  1  0  0  0
 21 55  1  0  0  0
 22 23  2  0  0  0
 22 56  1  0  0  0
 23 24  1  0  0  0
 23 57  1  0  0  0
 24 25  2  0  0  0
 24 58  1  0  0  0
 25 59  1  0  0  0
 26 27  2  0  0  0
 26 28  1  0  0  0
 28 29  1  0  0  0
 28 60  1  0  0  0
 29 30  1  0  0  0
 29 35  1  0  0  0
 29 61  1  0  0  0
 30 31  1  0  0  0
 30 62  1  0  0  0
 30 63  1  0  0  0
 31 32  1  0  0  0
 31 64  1  0  0  0
 31 65  1  0  0  0
 32 33  2  0  0  0
 32 34  1  0  0  0
 34 66  1  0  0  0
 35 36  2  0  0  0
 35 37  1  0  0  0
 37 67  1  0  0  0
 37 68  1  0  0  0
M  END
> <s_m_entry_id>
64060

> <s_m_entry_name>
dock_pv.10

> <s_m_Source_Path>
/home/csk/Desktop/cluster/DUD-E-result/mmp13

> <s_m_Source_File>
dock_pv.maegz

> <i_m_Source_File_Index>
10

> <chembl_id>
CHEMBL3675577

> <chembl_pref_name>
None

> <i_lp_mmshare_version>
53161

> <i_f3d_flags>
0

> <r_lp_tautomer_probability>
1

> <s_lp_Force_Field>
OPLS_2005

> <r_lp_Energy>
18.417368

> <b_lp_Chiralities_Consistent>
1

> <s_lp_Variant>
CHEMBL280_lig2581-1

> <s_i_glide_gridfile>
glide-grid_830c

> <i_i_glide_lignum>
3701

> <i_i_glide_rotatable_bonds>
15

> <r_i_docking_score>
-9.25691039458535

> <r_i_glide_ligand_efficiency>
-0.250186767421226

> <r_i_glide_ligand_efficiency_sa>
-0.833677812390225

> <r_i_glide_ligand_efficiency_ln>
-2.00760685181593

> <r_i_glide_gscore>
-9.25691039458535

> <r_i_glide_lipo>
-4.40012478059864

> <r_i_glide_hbond>
-0.617663006887335

> <r_i_glide_metal>
0

> <r_i_glide_rewards>
-0.179377280105986

> <r_i_glide_evdw>
-56.6257705688477

> <r_i_glide_ecoul>
-14.5365238189697

> <r_i_glide_erotb>
1.05556770194263

> <r_i_glide_esite>
-0.103545927648176

> <r_i_glide_emodel>
-108.888397463461

> <r_i_glide_energy>
-71.1622943878174

> <r_i_glide_einternal>
7.39153146743774

> <i_i_glide_confnum>
1

> <i_i_glide_posenum>
52

> <r_i_glide_eff_state_penalty>
0

> <s_user_duplicate_titles>
CHEMBL280_lig2581

> <s_m_subgroup_title>
dock_pv

> <s_m_subgroupid>
dock_pv

> <b_m_subgroup_collapsed>
1

$$$$
CHEMBL280_lig2614
                    3D
 Schrodinger Suite 2021-1.
 59 60  0  0  1  0            999 V2000
   -8.8318   31.7704   57.6207 N   0  0  0  0  0  0
   -7.9398   31.3801   56.7102 C   0  0  0  0  0  0
   -8.2277   31.2494   55.5193 O   0  0  0  0  0  0
   -6.5106   31.1145   57.2242 C   0  0  2  0  0  0
   -5.5867   32.3466   57.0757 C   0  0  0  0  0  0
   -5.5160   32.8388   55.7468 O   0  0  0  0  0  0
   -5.8892   30.0033   56.5109 N   0  0  0  0  0  0
   -5.4220   28.8690   57.0585 C   0  0  0  0  0  0
   -5.5363   28.5566   58.2441 O   0  0  0  0  0  0
   -4.6588   27.9358   56.1017 C   0  0  2  0  0  0
   -3.1727   28.3651   56.0245 C   0  0  0  0  0  0
   -2.2908   27.7550   57.1336 C   0  0  0  0  0  0
   -1.8031   26.3408   56.8077 C   0  0  0  0  0  0
   -1.9389   25.7951   55.7101 O   0  0  0  0  0  0
   -1.1414   25.7701   57.8517 O   0  0  0  0  0  0
   -5.2239   27.9860   54.7533 N   0  0  0  0  0  0
   -6.3216   27.3205   54.3591 C   0  0  0  0  0  0
   -6.9692   26.5790   55.0963 O   0  0  0  0  0  0
   -6.7203   27.5505   52.9028 C   0  0  0  0  0  0
   -7.8817   26.6708   52.3800 C   0  0  0  0  0  0
   -8.2995   26.9553   50.9371 C   0  0  0  0  0  0
   -9.4665   26.3816   50.4379 C   0  0  0  0  0  0
   -9.8763   26.6514   49.1342 C   0  0  0  0  0  0
   -9.1412   27.5040   48.2953 C   0  0  0  0  0  0
   -7.9515   28.0409   48.8020 C   0  0  0  0  0  0
   -7.5388   27.7700   50.0987 C   0  0  0  0  0  0
   -9.6076   27.8406   46.9075 C   0  0  0  0  0  0
  -10.5392   27.0340   46.2341 C   0  0  0  0  0  0
  -10.9999   27.3715   44.9643 C   0  0  0  0  0  0
  -10.5172   28.5145   44.3381 C   0  0  0  0  0  0
   -9.5789   29.3205   44.9711 C   0  0  0  0  0  0
   -9.1349   28.9879   46.2461 C   0  0  0  0  0  0
   -8.5748   31.8370   58.5956 H   0  0  0  0  0  0
   -9.7809   31.9552   57.3348 H   0  0  0  0  0  0
   -6.5697   30.8676   58.2874 H   0  0  0  0  0  0
   -5.9473   33.1554   57.7136 H   0  0  0  0  0  0
   -4.5789   32.1108   57.4222 H   0  0  0  0  0  0
   -5.0225   32.2179   55.1987 H   0  0  0  0  0  0
   -5.7943   30.1432   55.5150 H   0  0  0  0  0  0
   -4.7320   26.9067   56.4658 H   0  0  0  0  0  0
   -2.7548   28.1371   55.0441 H   0  0  0  0  0  0
   -3.0965   29.4527   56.0874 H   0  0  0  0  0  0
   -1.4084   28.3804   57.2728 H   0  0  0  0  0  0
   -2.8230   27.7520   58.0857 H   0  0  0  0  0  0
   -1.1218   26.3226   58.6367 H   0  0  0  0  0  0
   -4.7816   28.6334   54.1132 H   0  0  0  0  0  0
   -6.9879   28.6027   52.7945 H   0  0  0  0  0  0
   -5.8369   27.3744   52.2889 H   0  0  0  0  0  0
   -7.6062   25.6171   52.4461 H   0  0  0  0  0  0
   -8.7557   26.8140   53.0170 H   0  0  0  0  0  0
  -10.0622   25.7298   51.0597 H   0  0  0  0  0  0
  -10.7775   26.1831   48.7872 H   0  0  0  0  0  0
   -7.3158   28.6759   48.2045 H   0  0  0  0  0  0
   -6.6265   28.2271   50.4371 H   0  0  0  0  0  0
  -10.9184   26.1321   46.6841 H   0  0  0  0  0  0
  -11.7236   26.7466   44.4618 H   0  0  0  0  0  0
  -10.8702   28.7802   43.3544 H   0  0  0  0  0  0
   -9.1989   30.2048   44.4794 H   0  0  0  0  0  0
   -8.4275   29.6572   46.7118 H   0  0  0  0  0  0
  1  2  1  0  0  0
  1 33  1  0  0  0
  1 34  1  0  0  0
  2  3  2  0  0  0
  2  4  1  0  0  0
  4  5  1  0  0  0
  4  7  1  0  0  0
  4 35  1  0  0  0
  5  6  1  0  0  0
  5 36  1  0  0  0
  5 37  1  0  0  0
  6 38  1  0  0  0
  7  8  1  0  0  0
  7 39  1  0  0  0
  8  9  2  0  0  0
  8 10  1  0  0  0
 10 11  1  0  0  0
 10 16  1  0  0  0
 10 40  1  0  0  0
 11 12  1  0  0  0
 11 41  1  0  0  0
 11 42  1  0  0  0
 12 13  1  0  0  0
 12 43  1  0  0  0
 12 44  1  0  0  0
 13 14  2  0  0  0
 13 15  1  0  0  0
 15 45  1  0  0  0
 16 17  1  0  0  0
 16 46  1  0  0  0
 17 18  2  0  0  0
 17 19  1  0  0  0
 19 20  1  0  0  0
 19 47  1  0  0  0
 19 48  1  0  0  0
 20 21  1  0  0  0
 20 49  1  0  0  0
 20 50  1  0  0  0
 21 22  2  0  0  0
 21 26  1  0  0  0
 22 23  1  0  0  0
 22 51  1  0  0  0
 23 24  2  0  0  0
 23 52  1  0  0  0
 24 25  1  0  0  0
 24 27  1  0  0  0
 25 26  2  0  0  0
 25 53  1  0  0  0
 26 54  1  0  0  0
 27 28  2  0  0  0
 27 32  1  0  0  0
 28 29  1  0  0  0
 28 55  1  0  0  0
 29 30  2  0  0  0
 29 56  1  0  0  0
 30 31  1  0  0  0
 30 57  1  0  0  0
 31 32  2  0  0  0
 31 58  1  0  0  0
 32 59  1  0  0  0
M  END
> <s_m_entry_id>
64061

> <s_m_entry_name>
dock_pv.11

> <s_m_Source_Path>
/home/csk/Desktop/cluster/DUD-E-result/mmp13

> <s_m_Source_File>
dock_pv.maegz

> <i_m_Source_File_Index>
11

> <chembl_id>
CHEMBL3675551

> <chembl_pref_name>
None

> <i_lp_mmshare_version>
53161

> <i_f3d_flags>
0

> <r_lp_tautomer_probability>
1

> <s_lp_Force_Field>
OPLS_2005

> <r_lp_Energy>
9.263843

> <b_lp_Chiralities_Consistent>
1

> <s_lp_Variant>
CHEMBL280_lig2614-1

> <s_i_glide_gridfile>
glide-grid_830c

> <i_i_glide_lignum>
3736

> <i_i_glide_rotatable_bonds>
16

> <r_i_docking_score>
-9.14924425713856

> <r_i_glide_ligand_efficiency>
-0.28591388303558

> <r_i_glide_ligand_efficiency_sa>
-0.907719996357346

> <r_i_glide_ligand_efficiency_ln>
-2.04876518815243

> <r_i_glide_gscore>
-9.14924425713856

> <r_i_glide_lipo>
-3.46207353698311

> <r_i_glide_hbond>
-0.590263949343213

> <r_i_glide_metal>
0

> <r_i_glide_rewards>
-0.445459075027674

> <r_i_glide_evdw>
-59.7759094238281

> <r_i_glide_ecoul>
-19.2607173919678

> <r_i_glide_erotb>
1.3323593549682

> <r_i_glide_esite>
-0.105903970766188

> <r_i_glide_emodel>
-118.303329936151

> <r_i_glide_energy>
-79.0366268157959

> <r_i_glide_einternal>
14.4819040298462

> <i_i_glide_confnum>
15

> <i_i_glide_posenum>
108

> <r_i_glide_eff_state_penalty>
0

> <s_user_duplicate_titles>
CHEMBL280_lig2614

> <s_m_subgroup_title>
dock_pv

> <s_m_subgroupid>
dock_pv

> <b_m_subgroup_collapsed>
1

$$$$
CHEMBL280_lig119
                    3D
 Schrodinger Suite 2021-1.
 55 59  0  0  1  0            999 V2000
    1.1069   27.6352   57.9086 C   0  0  0  0  0  0
   -1.1508   27.7391   58.5080 N   0  0  0  0  0  0
   -0.1591   26.9379   57.9840 C   0  0  0  0  0  0
    1.3341   28.8678   58.4990 C   0  0  0  0  0  0
   -0.9741   29.1087   58.9409 N   0  0  1  0  0  0
    0.3896   29.5986   59.1694 N   0  0  0  0  0  0
   -4.1866   27.0253   56.7010 C   0  0  2  0  0  0
    2.6366   29.1739   58.2306 N   0  0  0  0  0  0
   -5.4075   27.7890   56.1699 C   0  0  1  0  0  0
   -3.5592   27.9574   57.7452 C   0  0  2  0  0  0
    2.2067   27.1835   57.3172 N   0  0  0  0  0  0
   -2.5313   27.2547   58.6776 C   0  0  0  0  0  0
   -3.1567   26.6770   55.6362 C   0  0  0  0  0  0
    3.1156   28.1132   57.5081 C   0  0  0  0  0  0
   -6.6459   26.6651   55.4367 S   0  0  0  0  0  0
   -0.3667   25.7714   57.6366 O   0  0  0  0  0  0
   -5.9352   28.5066   57.4268 C   0  0  0  0  0  0
   -4.7837   28.5450   58.4490 C   0  0  0  0  0  0
   -8.4283   27.6094   49.6790 C   0  0  0  0  0  0
   -7.8795   27.3632   51.0622 C   0  0  0  0  0  0
   -2.7392   27.5011   54.8320 O   0  0  0  0  0  0
   -7.0400   26.9799   53.7340 C   0  0  0  0  0  0
   -9.7027   27.1402   49.3123 C   0  0  0  0  0  0
   -7.7074   28.3284   48.7162 C   0  0  0  0  0  0
   -6.8841   28.1700   51.6453 C   0  0  0  0  0  0
   -8.3849   26.3175   51.8385 C   0  0  0  0  0  0
   -2.7381   25.3704   55.6592 O   0  0  0  0  0  0
   -9.4751   28.0758   47.1065 C   0  0  0  0  0  0
   -6.4673   27.9927   52.9691 C   0  0  0  0  0  0
   -7.9873   26.1518   53.1559 C   0  0  0  0  0  0
  -10.2163   27.3593   48.0375 C   0  0  0  0  0  0
   -8.2199   28.5682   47.4442 C   0  0  0  0  0  0
  -10.1173   28.3546   45.5303 Cl  0  0  0  0  0  0
   -1.4018   29.7311   58.2681 H   0  0  0  0  0  0
    0.4358   29.7873   60.1620 H   0  0  0  0  0  0
   -4.5269   26.1063   57.1757 H   0  0  0  0  0  0
    3.1316   30.0105   58.5062 H   0  0  0  0  0  0
   -5.1544   28.5403   55.4217 H   0  0  0  0  0  0
   -3.0798   28.7944   57.2292 H   0  0  0  0  0  0
   -2.5977   26.1722   58.5600 H   0  0  0  0  0  0
   -2.8068   27.3925   59.7171 H   0  0  0  0  0  0
    4.1403   28.0986   57.1643 H   0  0  0  0  0  0
   -6.7498   27.9509   57.8762 H   0  0  0  0  0  0
   -6.3060   29.5080   57.1954 H   0  0  0  0  0  0
   -5.0375   27.9319   59.3097 H   0  0  0  0  0  0
   -4.6006   29.5607   58.8042 H   0  0  0  0  0  0
  -10.3261   26.6065   50.0113 H   0  0  0  0  0  0
   -6.7381   28.7293   48.9472 H   0  0  0  0  0  0
   -6.4319   28.9708   51.0856 H   0  0  0  0  0  0
   -9.1143   25.6311   51.4376 H   0  0  0  0  0  0
   -3.3806   24.7818   56.1088 H   0  0  0  0  0  0
   -5.7201   28.6523   53.3780 H   0  0  0  0  0  0
   -8.4402   25.3690   53.7330 H   0  0  0  0  0  0
  -11.1972   26.9886   47.7798 H   0  0  0  0  0  0
   -7.6398   29.1305   46.7274 H   0  0  0  0  0  0
  1  3  1  0  0  0
  1  4  2  0  0  0
  1 11  1  0  0  0
  2  3  1  0  0  0
  2 12  1  0  0  0
  2  5  1  0  0  0
  3 16  2  0  0  0
  4  6  1  0  0  0
  4  8  1  0  0  0
  5  6  1  0  0  0
  5 34  1  0  0  0
  6 35  1  0  0  0
  7 10  1  0  0  0
  7  9  1  0  0  0
  7 13  1  0  0  0
  7 36  1  0  0  0
  8 14  1  0  0  0
  8 37  1  0  0  0
  9 15  1  0  0  0
  9 17  1  0  0  0
  9 38  1  0  0  0
 10 12  1  0  0  0
 10 18  1  0  0  0
 10 39  1  0  0  0
 11 14  2  0  0  0
 12 40  1  0  0  0
 12 41  1  0  0  0
 13 21  2  0  0  0
 13 27  1  0  0  0
 14 42  1  0  0  0
 15 22  1  0  0  0
 17 18  1  0  0  0
 17 43  1  0  0  0
 17 44  1  0  0  0
 18 45  1  0  0  0
 18 46  1  0  0  0
 19 20  1  0  0  0
 19 23  2  0  0  0
 19 24  1  0  0  0
 20 26  2  0  0  0
 20 25  1  0  0  0
 22 29  1  0  0  0
 22 30  2  0  0  0
 23 31  1  0  0  0
 23 47  1  0  0  0
 24 32  2  0  0  0
 24 48  1  0  0  0
 25 29  2  0  0  0
 25 49  1  0  0  0
 26 30  1  0  0  0
 26 50  1  0  0  0
 27 51  1  0  0  0
 28 32  1  0  0  0
 28 33  1  0  0  0
 28 31  2  0  0  0
 29 52  1  0  0  0
 30 53  1  0  0  0
 31 54  1  0  0  0
 32 55  1  0  0  0
M  END
> <s_m_entry_id>
64062

> <s_m_entry_name>
dock_pv.12

> <s_m_Source_Path>
/home/csk/Desktop/cluster/DUD-E-result/mmp13

> <s_m_Source_File>
dock_pv.maegz

> <i_m_Source_File_Index>
12

> <chembl_id>
CHEMBL340345

> <chembl_pref_name>
None

> <i_lp_mmshare_version>
53161

> <i_f3d_flags>
0

> <r_lp_tautomer_probability>
1

> <s_lp_Force_Field>
OPLS_2005

> <r_lp_Energy>
54.443613

> <b_lp_Chiralities_Consistent>
1

> <s_lp_Variant>
CHEMBL280_lig119-1

> <s_i_glide_gridfile>
glide-grid_830c

> <i_i_glide_lignum>
143

> <i_i_glide_rotatable_bonds>
7

> <r_i_docking_score>
-9.0654791512526

> <r_i_glide_ligand_efficiency>
-0.274711489431897

> <r_i_glide_ligand_efficiency_sa>
-0.881146532170117

> <r_i_glide_ligand_efficiency_ln>
-2.01611562469963

> <r_i_glide_gscore>
-9.0654791512526

> <r_i_glide_lipo>
-4.26655071011918

> <r_i_glide_hbond>
-0.307107487545925

> <r_i_glide_metal>
0

> <r_i_glide_rewards>
-0.189651322920215

> <r_i_glide_evdw>
-46.9767799377441

> <r_i_glide_ecoul>
-15.7518005371094

> <r_i_glide_erotb>
0.520123432166315

> <r_i_glide_esite>
-0.110683985379978

> <r_i_glide_emodel>
-97.4793977966465

> <r_i_glide_energy>
-62.7285804748535

> <r_i_glide_einternal>
9.29551124572754

> <i_i_glide_confnum>
13

> <i_i_glide_posenum>
118

> <r_i_glide_eff_state_penalty>
0

> <s_user_duplicate_titles>
CHEMBL280_lig119,208171

> <s_m_subgroup_title>
dock_pv

> <s_m_subgroupid>
dock_pv

> <b_m_subgroup_collapsed>
1

$$$$
CHEMBL280_lig1507
                    3D
 Schrodinger Suite 2021-1.
 43 44  0  0  1  0            999 V2000
   -8.3643   28.3473   47.5207 C   0  0  0  0  0  0
   -9.6222   27.8207   47.2003 C   0  0  0  0  0  0
  -10.3388   27.1393   48.1902 C   0  0  0  0  0  0
   -9.8039   26.9784   49.4647 C   0  0  0  0  0  0
   -8.5326   27.4759   49.7872 C   0  0  0  0  0  0
   -7.8309   28.1700   48.7936 C   0  0  0  0  0  0
   -7.9386   27.2602   51.1493 C   0  0  0  0  0  0
   -6.9541   28.1090   51.6809 C   0  0  0  0  0  0
   -6.3819   27.8673   52.9280 C   0  0  0  0  0  0
   -6.7881   26.7624   53.6754 C   0  0  0  0  0  0
   -7.7673   25.9203   53.1668 C   0  0  0  0  0  0
   -8.3390   26.1700   51.9257 C   0  0  0  0  0  0
   -6.1053   26.3982   54.9844 C   0  0  0  0  0  0
   -6.1014   27.5152   56.0504 C   0  0  0  0  0  0
   -5.1839   27.2168   57.2626 C   0  0  1  0  0  0
   -3.6968   27.5988   57.0709 C   0  0  0  0  0  0
   -5.6333   27.9880   58.3564 O   0  0  0  0  0  0
   -2.9283   26.6964   56.1100 C   0  0  0  0  0  0
   -2.4967   25.5545   56.7094 O   0  0  0  0  0  0
   -2.7390   26.9701   54.9238 O   0  0  0  0  0  0
  -10.2167   27.9672   45.8317 C   0  0  0  0  0  0
   -9.3831   28.6582   44.7519 C   0  0  0  0  0  0
  -11.3341   27.5461   45.5259 O   0  0  0  0  0  0
   -7.7698   28.8821   46.7935 H   0  0  0  0  0  0
  -11.3221   26.7368   47.9863 H   0  0  0  0  0  0
  -10.4009   26.4589   50.1979 H   0  0  0  0  0  0
   -6.8439   28.5640   48.9865 H   0  0  0  0  0  0
   -6.6113   28.9691   51.1273 H   0  0  0  0  0  0
   -5.6053   28.5248   53.2908 H   0  0  0  0  0  0
   -8.0468   25.0353   53.7100 H   0  0  0  0  0  0
   -9.0624   25.4624   51.5506 H   0  0  0  0  0  0
   -6.5622   25.5045   55.4147 H   0  0  0  0  0  0
   -5.1036   26.0894   54.7085 H   0  0  0  0  0  0
   -5.8292   28.4781   55.6165 H   0  0  0  0  0  0
   -7.1348   27.6264   56.3873 H   0  0  0  0  0  0
   -5.2859   26.1702   57.5565 H   0  0  0  0  0  0
   -3.6199   28.6229   56.7030 H   0  0  0  0  0  0
   -3.1711   27.5896   58.0281 H   0  0  0  0  0  0
   -5.6041   28.9168   58.1088 H   0  0  0  0  0  0
   -2.9554   25.3877   57.5429 H   0  0  0  0  0  0
   -9.1649   29.6860   45.0421 H   0  0  0  0  0  0
   -9.9087   28.6682   43.7957 H   0  0  0  0  0  0
   -8.4314   28.1416   44.6172 H   0  0  0  0  0  0
  1  6  1  0  0  0
  1  2  2  0  0  0
  1 24  1  0  0  0
  2  3  1  0  0  0
  2 21  1  0  0  0
  3  4  2  0  0  0
  3 25  1  0  0  0
  4  5  1  0  0  0
  4 26  1  0  0  0
  5  7  1  0  0  0
  5  6  2  0  0  0
  6 27  1  0  0  0
  7 12  1  0  0  0
  7  8  2  0  0  0
  8  9  1  0  0  0
  8 28  1  0  0  0
  9 10  2  0  0  0
  9 29  1  0  0  0
 10 13  1  0  0  0
 10 11  1  0  0  0
 11 12  2  0  0  0
 11 30  1  0  0  0
 12 31  1  0  0  0
 13 14  1  0  0  0
 13 32  1  0  0  0
 13 33  1  0  0  0
 14 15  1  0  0  0
 14 34  1  0  0  0
 14 35  1  0  0  0
 15 16  1  0  0  0
 15 17  1  0  0  0
 15 36  1  0  0  0
 16 18  1  0  0  0
 16 37  1  0  0  0
 16 38  1  0  0  0
 17 39  1  0  0  0
 18 19  1  0  0  0
 18 20  2  0  0  0
 19 40  1  0  0  0
 21 22  1  0  0  0
 21 23  2  0  0  0
 22 41  1  0  0  0
 22 42  1  0  0  0
 22 43  1  0  0  0
M  END
> <s_m_entry_id>
64063

> <s_m_entry_name>
dock_pv.13

> <s_m_Source_Path>
/home/csk/Desktop/cluster/DUD-E-result/mmp13

> <s_m_Source_File>
dock_pv.maegz

> <i_m_Source_File_Index>
13

> <chembl_id>
CHEMBL584559

> <chembl_pref_name>
None

> <i_lp_mmshare_version>
53161

> <i_f3d_flags>
0

> <r_lp_tautomer_probability>
0.99995

> <s_lp_Force_Field>
OPLS_2005

> <r_lp_Energy>
21.02938

> <b_lp_Chiralities_Consistent>
1

> <s_lp_Variant>
CHEMBL280_lig1507-2

> <s_i_glide_gridfile>
glide-grid_830c

> <i_i_glide_lignum>
2242

> <i_i_glide_rotatable_bonds>
9

> <r_i_docking_score>
-9.01843237946078

> <r_i_glide_ligand_efficiency>
-0.392105755628729

> <r_i_glide_ligand_efficiency_sa>
-1.11509660987683

> <r_i_glide_ligand_efficiency_ln>
-2.18073872397729

> <r_i_glide_gscore>
-9.01843237946078

> <r_i_glide_lipo>
-3.81711991499581

> <r_i_glide_hbond>
-0.303151772707238

> <r_i_glide_metal>
0

> <r_i_glide_rewards>
-1.36176280808746

> <r_i_glide_evdw>
-40.0351181030273

> <r_i_glide_ecoul>
-17.1727066040039

> <r_i_glide_erotb>
1.14126401208169

> <r_i_glide_esite>
-0.1

> <r_i_glide_emodel>
-94.5550988381179

> <r_i_glide_energy>
-57.2078247070312

> <r_i_glide_einternal>
5.91466522216797

> <i_i_glide_confnum>
4

> <i_i_glide_posenum>
63

> <r_i_glide_eff_state_penalty>
0

> <s_user_duplicate_titles>
CHEMBL280_lig1507,571835

> <s_m_subgroup_title>
dock_pv

> <s_m_subgroupid>
dock_pv

> <b_m_subgroup_collapsed>
1

$$$$
CHEMBL280_lig2321
                    3D
 Schrodinger Suite 2021-1.
 42 45  0  0  1  0            999 V2000
   -4.3348   29.1216   57.3710 C   0  0  0  0  0  0
   -4.1660   27.7231   58.0560 C   0  0  0  0  0  0
   -3.1514   29.4532   56.3852 C   0  0  0  0  0  0
   -3.4007   26.8599   57.3508 N   0  0  0  0  0  0
   -2.5771   28.3583   55.8444 N   0  0  0  0  0  0
   -5.6770   29.2546   56.7054 N   0  0  0  0  0  0
   -2.6277   27.0695   56.2603 C   0  0  0  0  0  0
   -6.3390   30.3885   57.1070 C   0  0  0  0  0  0
   -4.3586   30.2041   58.4798 C   0  0  0  0  0  0
   -6.2043   28.4247   55.6579 C   0  0  0  0  0  0
   -2.7422   30.5792   56.1100 O   0  0  0  0  0  0
   -4.7390   27.3700   59.0833 O   0  0  0  0  0  0
   -5.4439   31.1577   58.0647 C   0  0  0  0  0  0
   -1.9936   26.1700   55.7100 O   0  0  0  0  0  0
   -7.4564   30.7822   56.7681 O   0  0  0  0  0  0
   -7.8300   26.0664   52.5648 O   0  0  0  0  0  0
   -6.2342   27.0209   55.7346 C   0  0  0  0  0  0
   -6.7389   29.0241   54.5094 C   0  0  0  0  0  0
   -7.2794   26.8694   53.5497 C   0  0  0  0  0  0
   -8.2488   26.5700   51.3475 C   0  0  0  0  0  0
   -9.1550   27.5360   48.8947 C   0  0  0  0  0  0
   -7.2755   28.2630   53.4836 C   0  0  0  0  0  0
   -6.7444   26.2563   54.6832 C   0  0  0  0  0  0
   -9.7148   28.1333   47.3765 Cl  0  0  0  0  0  0
   -7.4052   27.3348   50.5333 C   0  0  0  0  0  0
   -9.5390   26.2707   50.9100 C   0  0  0  0  0  0
   -7.8578   27.8166   49.3100 C   0  0  0  0  0  0
   -9.9997   26.7702   49.6933 C   0  0  0  0  0  0
   -3.3941   25.9201   57.7298 H   0  0  0  0  0  0
   -1.8872   28.5700   55.1419 H   0  0  0  0  0  0
   -4.6289   29.8201   59.4635 H   0  0  0  0  0  0
   -3.4097   30.7234   58.6369 H   0  0  0  0  0  0
   -5.9992   31.5645   58.9100 H   0  0  0  0  0  0
   -5.0266   31.9978   57.5078 H   0  0  0  0  0  0
   -5.8989   26.4815   56.6037 H   0  0  0  0  0  0
   -6.7390   30.0986   54.3977 H   0  0  0  0  0  0
   -7.6918   28.7821   52.6375 H   0  0  0  0  0  0
   -6.7390   25.1781   54.7604 H   0  0  0  0  0  0
   -6.3951   27.5547   50.8475 H   0  0  0  0  0  0
  -10.1882   25.6660   51.5251 H   0  0  0  0  0  0
   -7.1987   28.4070   48.6890 H   0  0  0  0  0  0
  -11.0087   26.5700   49.3655 H   0  0  0  0  0  0
  1  2  1  0  0  0
  1  3  1  0  0  0
  1  6  1  0  0  0
  1  9  1  0  0  0
  2  4  1  0  0  0
  2 12  2  0  0  0
  3  5  1  0  0  0
  3 11  2  0  0  0
  4  7  1  0  0  0
  4 29  1  0  0  0
  5  7  1  0  0  0
  5 30  1  0  0  0
  6  8  1  0  0  0
  6 10  1  0  0  0
  7 14  2  0  0  0
  8 15  2  0  0  0
  8 13  1  0  0  0
  9 13  1  0  0  0
  9 31  1  0  0  0
  9 32  1  0  0  0
 10 17  2  0  0  0
 10 18  1  0  0  0
 13 33  1  0  0  0
 13 34  1  0  0  0
 16 19  1  0  0  0
 16 20  1  0  0  0
 17 23  1  0  0  0
 17 35  1  0  0  0
 18 22  2  0  0  0
 18 36  1  0  0  0
 19 22  1  0  0  0
 19 23  2  0  0  0
 20 25  1  0  0  0
 20 26  2  0  0  0
 21 28  2  0  0  0
 21 24  1  0  0  0
 21 27  1  0  0  0
 22 37  1  0  0  0
 23 38  1  0  0  0
 25 27  2  0  0  0
 25 39  1  0  0  0
 26 28  1  0  0  0
 26 40  1  0  0  0
 27 41  1  0  0  0
 28 42  1  0  0  0
M  END
> <s_m_entry_id>
64064

> <s_m_entry_name>
dock_pv.14

> <s_m_Source_Path>
/home/csk/Desktop/cluster/DUD-E-result/mmp13

> <s_m_Source_File>
dock_pv.maegz

> <i_m_Source_File_Index>
14

> <chembl_id>
CHEMBL180616

> <chembl_pref_name>
None

> <i_lp_mmshare_version>
53161

> <i_f3d_flags>
0

> <r_lp_tautomer_probability>
0.999999998612168

> <s_lp_Force_Field>
OPLS_2005

> <r_lp_Energy>
40.511053

> <b_lp_Chiralities_Consistent>
1

> <s_lp_Variant>
CHEMBL280_lig2321-1

> <s_i_glide_gridfile>
glide-grid_830c

> <i_i_glide_lignum>
3317

> <i_i_glide_rotatable_bonds>
3

> <r_i_docking_score>
-8.95939661246519

> <r_i_glide_ligand_efficiency>
-0.319978450445185

> <r_i_glide_ligand_efficiency_sa>
-0.971643032780475

> <r_i_glide_ligand_efficiency_ln>
-2.06809179747215

> <r_i_glide_gscore>
-8.95939661246519

> <r_i_glide_lipo>
-3.43159689231419

> <r_i_glide_hbond>
-0.580657170200636

> <r_i_glide_metal>
0

> <r_i_glide_rewards>
-0.748509220011862

> <r_i_glide_evdw>
-53.1290245056152

> <r_i_glide_ecoul>
-11.0149965286255

> <r_i_glide_erotb>
0.36785704104393

> <r_i_glide_esite>
-0.257789666407846

> <r_i_glide_emodel>
-94.4214941207176

> <r_i_glide_energy>
-64.1440210342407

> <r_i_glide_einternal>
3.48743081092834

> <i_i_glide_confnum>
7

> <i_i_glide_posenum>
392

> <r_i_glide_eff_state_penalty>
0

> <s_user_duplicate_titles>
CHEMBL280_lig2321,300980

> <s_m_subgroup_title>
dock_pv

> <s_m_subgroupid>
dock_pv

> <b_m_subgroup_collapsed>
1

$$$$
CHEMBL280_lig1231
                    3D
 Schrodinger Suite 2021-1.
 42 45  0  0  1  0            999 V2000
   -4.5996   29.1540   57.2722 C   0  0  0  0  0  0
   -4.4557   27.7607   57.9668 C   0  0  0  0  0  0
   -3.5858   26.9366   57.3366 N   0  0  0  0  0  0
   -2.7631   27.1669   56.2837 C   0  0  0  0  0  0
   -2.6817   28.4688   55.9184 N   0  0  0  0  0  0
   -3.3214   29.5414   56.4319 C   0  0  0  0  0  0
   -7.5245   27.4583   50.3959 C   0  0  0  0  0  0
   -8.3364   26.5788   51.1208 C   0  0  0  0  0  0
   -9.5552   26.1701   50.5816 C   0  0  0  0  0  0
   -9.9708   26.6542   49.3422 C   0  0  0  0  0  0
   -9.1592   27.5350   48.6342 C   0  0  0  0  0  0
   -7.9374   27.9414   49.1581 C   0  0  0  0  0  0
   -7.9394   26.0512   52.3355 O   0  0  0  0  0  0
   -7.4170   26.8184   53.3632 C   0  0  0  0  0  0
   -7.5373   28.1699   53.3092 N   0  0  0  0  0  0
   -7.0113   28.9089   54.3168 C   0  0  0  0  0  0
   -6.3388   28.3770   55.4278 C   0  0  0  0  0  0
   -6.2608   26.9701   55.4636 C   0  0  0  0  0  0
   -6.7887   26.1873   54.4334 C   0  0  0  0  0  0
   -5.8391   29.2378   56.4428 N   0  0  0  0  0  0
   -6.2995   30.6304   56.5712 C   0  0  0  0  0  0
   -5.6265   31.3211   57.7523 C   0  0  0  0  0  0
   -4.8042   30.2178   58.3926 C   0  0  0  0  0  0
   -2.9157   30.6816   56.2133 O   0  0  0  0  0  0
   -2.1299   26.2780   55.7100 O   0  0  0  0  0  0
   -5.1389   27.3699   58.9100 O   0  0  0  0  0  0
   -9.7159   28.1694   46.9296 Br  0  0  0  0  0  0
   -3.5832   25.9897   57.6984 H   0  0  0  0  0  0
   -1.9503   28.7019   55.2666 H   0  0  0  0  0  0
   -6.5662   27.7670   50.7878 H   0  0  0  0  0  0
  -10.1760   25.4761   51.1280 H   0  0  0  0  0  0
  -10.9157   26.3508   48.9187 H   0  0  0  0  0  0
   -7.3032   28.6212   48.6069 H   0  0  0  0  0  0
   -7.1283   29.9725   54.1912 H   0  0  0  0  0  0
   -5.8391   26.4291   56.2894 H   0  0  0  0  0  0
   -6.7166   25.1094   54.4711 H   0  0  0  0  0  0
   -7.3865   30.6647   56.6620 H   0  0  0  0  0  0
   -6.0613   31.1795   55.6592 H   0  0  0  0  0  0
   -6.3499   31.7363   58.4566 H   0  0  0  0  0  0
   -4.9752   32.1254   57.4063 H   0  0  0  0  0  0
   -5.3823   29.8373   59.2377 H   0  0  0  0  0  0
   -3.8725   30.5992   58.8166 H   0  0  0  0  0  0
  1  2  1  0  0  0
  1  6  1  0  0  0
  1 23  1  0  0  0
  1 20  1  0  0  0
  2  3  1  0  0  0
  2 26  2  0  0  0
  3  4  1  0  0  0
  3 28  1  0  0  0
  4  5  1  0  0  0
  4 25  2  0  0  0
  5  6  1  0  0  0
  5 29  1  0  0  0
  6 24  2  0  0  0
  7  8  2  0  0  0
  7 12  1  0  0  0
  7 30  1  0  0  0
  8  9  1  0  0  0
  8 13  1  0  0  0
  9 10  2  0  0  0
  9 31  1  0  0  0
 10 11  1  0  0  0
 10 32  1  0  0  0
 11 12  2  0  0  0
 11 27  1  0  0  0
 12 33  1  0  0  0
 13 14  1  0  0  0
 14 15  2  0  0  0
 14 19  1  0  0  0
 15 16  1  0  0  0
 16 17  2  0  0  0
 16 34  1  0  0  0
 17 18  1  0  0  0
 17 20  1  0  0  0
 18 19  2  0  0  0
 18 35  1  0  0  0
 19 36  1  0  0  0
 20 21  1  0  0  0
 21 22  1  0  0  0
 21 37  1  0  0  0
 21 38  1  0  0  0
 22 23  1  0  0  0
 22 39  1  0  0  0
 22 40  1  0  0  0
 23 41  1  0  0  0
 23 42  1  0  0  0
M  END
> <s_m_entry_id>
64065

> <s_m_entry_name>
dock_pv.15

> <s_m_Source_Path>
/home/csk/Desktop/cluster/DUD-E-result/mmp13

> <s_m_Source_File>
dock_pv.maegz

> <i_m_Source_File_Index>
15

> <chembl_id>
CHEMBL401414

> <chembl_pref_name>
None

> <i_lp_mmshare_version>
53161

> <i_f3d_flags>
0

> <r_lp_tautomer_probability>
0.999999998612168

> <s_lp_Force_Field>
OPLS_2005

> <r_lp_Energy>
45.566215

> <b_lp_Chiralities_Consistent>
1

> <s_lp_Variant>
CHEMBL280_lig1231-1

> <s_i_glide_gridfile>
glide-grid_830c

> <i_i_glide_lignum>
1938

> <i_i_glide_rotatable_bonds>
3

> <r_i_docking_score>
-8.92523183224734

> <r_i_glide_ligand_efficiency>
-0.330564141935087

> <r_i_glide_ligand_efficiency_sa>
-0.991692424715774

> <r_i_glide_ligand_efficiency_ln>
-2.0776468266005

> <r_i_glide_gscore>
-8.92523183224734

> <r_i_glide_lipo>
-3.3820854651647

> <r_i_glide_hbond>
-0.737820556949193

> <r_i_glide_metal>
0

> <r_i_glide_rewards>
-0.4688175

> <r_i_glide_evdw>
-54.1870574951172

> <r_i_glide_ecoul>
-11.4091320037842

> <r_i_glide_erotb>
0.320831758160405

> <r_i_glide_esite>
-0.236617392970362

> <r_i_glide_emodel>
-93.7867979152772

> <r_i_glide_energy>
-65.5961894989014

> <r_i_glide_einternal>
5.5288724899292

> <i_i_glide_confnum>
17

> <i_i_glide_posenum>
377

> <r_i_glide_eff_state_penalty>
0

> <s_user_duplicate_titles>
CHEMBL280_lig1231,417693

> <s_m_subgroup_title>
dock_pv

> <s_m_subgroupid>
dock_pv

> <b_m_subgroup_collapsed>
1

$$$$
CHEMBL280_lig1508
                    3D
 Schrodinger Suite 2021-1.
 42 43  0  0  1  0            999 V2000
  -10.3390   26.9860   48.2491 C   0  0  0  0  0  0
   -9.6489   27.6763   47.2576 C   0  0  0  0  0  0
   -8.3996   28.2292   47.5371 C   0  0  0  0  0  0
   -7.8445   28.0789   48.8038 C   0  0  0  0  0  0
   -8.5211   27.3850   49.8173 C   0  0  0  0  0  0
   -9.7856   26.8536   49.5184 C   0  0  0  0  0  0
   -7.9353   27.2498   51.1923 C   0  0  0  0  0  0
   -8.3388   26.2192   52.0444 C   0  0  0  0  0  0
   -7.8744   26.1585   53.3521 C   0  0  0  0  0  0
   -6.9817   27.1025   53.8499 C   0  0  0  0  0  0
   -6.5373   28.1146   52.9982 C   0  0  0  0  0  0
   -7.0005   28.1700   51.6868 C   0  0  0  0  0  0
   -6.5625   26.9748   55.3176 C   0  0  0  0  0  0
   -5.6017   28.0476   55.9082 C   0  0  0  0  0  0
   -4.0864   27.7285   55.8298 C   0  0  1  0  0  0
   -3.6817   26.6170   56.8246 C   0  0  0  0  0  0
   -3.7459   27.3704   54.5098 O   0  0  0  0  0  0
   -2.2596   26.0630   56.7049 C   0  0  0  0  0  0
   -1.9316   25.3699   57.8237 O   0  0  0  0  0  0
   -1.5395   26.1691   55.7101 O   0  0  0  0  0  0
  -10.3962   27.8286   45.6585 S   0  0  0  0  0  0
   -9.2456   28.7041   44.5597 C   0  0  0  0  0  0
  -11.3147   26.5695   48.0452 H   0  0  0  0  0  0
   -7.8379   28.7638   46.7864 H   0  0  0  0  0  0
   -6.8651   28.5004   48.9755 H   0  0  0  0  0  0
  -10.3642   26.3356   50.2674 H   0  0  0  0  0  0
   -9.0258   25.4602   51.7043 H   0  0  0  0  0  0
   -8.2217   25.3701   53.9909 H   0  0  0  0  0  0
   -5.8582   28.8826   53.3295 H   0  0  0  0  0  0
   -6.6460   28.9698   51.0614 H   0  0  0  0  0  0
   -6.1489   25.9757   55.4595 H   0  0  0  0  0  0
   -7.4833   26.9726   55.9007 H   0  0  0  0  0  0
   -5.8503   28.1725   56.9633 H   0  0  0  0  0  0
   -5.8096   29.0307   55.4856 H   0  0  0  0  0  0
   -3.5296   28.6368   56.0709 H   0  0  0  0  0  0
   -4.3561   25.7698   56.7288 H   0  0  0  0  0  0
   -3.8218   26.9987   57.8370 H   0  0  0  0  0  0
   -4.3403   27.8519   53.9254 H   0  0  0  0  0  0
   -2.7077   25.2307   58.3837 H   0  0  0  0  0  0
   -9.6977   28.8384   43.5781 H   0  0  0  0  0  0
   -8.9985   29.6885   44.9573 H   0  0  0  0  0  0
   -8.3265   28.1330   44.4348 H   0  0  0  0  0  0
  1  6  1  0  0  0
  1  2  2  0  0  0
  1 23  1  0  0  0
  2  3  1  0  0  0
  2 21  1  0  0  0
  3  4  2  0  0  0
  3 24  1  0  0  0
  4  5  1  0  0  0
  4 25  1  0  0  0
  5  6  2  0  0  0
  5  7  1  0  0  0
  6 26  1  0  0  0
  7 12  1  0  0  0
  7  8  2  0  0  0
  8  9  1  0  0  0
  8 27  1  0  0  0
  9 10  2  0  0  0
  9 28  1  0  0  0
 10 13  1  0  0  0
 10 11  1  0  0  0
 11 12  2  0  0  0
 11 29  1  0  0  0
 12 30  1  0  0  0
 13 14  1  0  0  0
 13 31  1  0  0  0
 13 32  1  0  0  0
 14 15  1  0  0  0
 14 33  1  0  0  0
 14 34  1  0  0  0
 15 16  1  0  0  0
 15 17  1  0  0  0
 15 35  1  0  0  0
 16 18  1  0  0  0
 16 36  1  0  0  0
 16 37  1  0  0  0
 17 38  1  0  0  0
 18 19  1  0  0  0
 18 20  2  0  0  0
 19 39  1  0  0  0
 21 22  1  0  0  0
 22 40  1  0  0  0
 22 41  1  0  0  0
 22 42  1  0  0  0
M  END
> <s_m_entry_id>
64066

> <s_m_entry_name>
dock_pv.16

> <s_m_Source_Path>
/home/csk/Desktop/cluster/DUD-E-result/mmp13

> <s_m_Source_File>
dock_pv.maegz

> <i_m_Source_File_Index>
16

> <chembl_id>
CHEMBL575320

> <chembl_pref_name>
None

> <i_lp_mmshare_version>
53161

> <i_f3d_flags>
0

> <r_lp_tautomer_probability>
1

> <s_lp_Force_Field>
OPLS_2005

> <r_lp_Energy>
15.701983

> <b_lp_Chiralities_Consistent>
1

> <s_lp_Variant>
CHEMBL280_lig1508-2

> <s_i_glide_gridfile>
glide-grid_830c

> <i_i_glide_lignum>
2244

> <i_i_glide_rotatable_bonds>
9

> <r_i_docking_score>
-8.89962298250299

> <r_i_glide_ligand_efficiency>
-0.4045283173865

> <r_i_glide_ligand_efficiency_sa>
-1.13350425451291

> <r_i_glide_ligand_efficiency_ln>
-2.17539247855943

> <r_i_glide_gscore>
-8.89962298250299

> <r_i_glide_lipo>
-4.01760127024489

> <r_i_glide_hbond>
0

> <r_i_glide_metal>
0

> <r_i_glide_rewards>
-1.34577589023569

> <r_i_glide_evdw>
-41.2037734985352

> <r_i_glide_ecoul>
-16.611457824707

> <r_i_glide_erotb>
1.1156615266104

> <r_i_glide_esite>
-0.1

> <r_i_glide_emodel>
-94.3103644867436

> <r_i_glide_energy>
-57.8152313232422

> <r_i_glide_einternal>
9.32187080383301

> <i_i_glide_confnum>
6

> <i_i_glide_posenum>
400

> <r_i_glide_eff_state_penalty>
0

> <s_user_duplicate_titles>
CHEMBL280_lig1508

> <s_m_subgroup_title>
dock_pv

> <s_m_subgroupid>
dock_pv

> <b_m_subgroup_collapsed>
1

$$$$
CHEMBL280_lig1289
                    3D
 Schrodinger Suite 2021-1.
 51 54  0  0  1  0            999 V2000
   -6.7390   26.0400   55.2960 S   0  0  0  0  0  0
   -6.2589   27.6626   54.9914 C   0  0  0  0  0  0
   -6.6089   28.0658   53.6953 C   0  0  0  0  0  0
   -7.2862   27.0618   52.9572 C   0  0  0  0  0  0
   -7.3896   25.9040   53.7100 C   0  0  0  0  0  0
   -7.8275   27.1531   51.5656 C   0  0  0  0  0  0
   -8.9532   26.4300   51.1638 C   0  0  0  0  0  0
   -9.4633   26.5718   49.8745 C   0  0  0  0  0  0
   -8.8700   27.4385   48.9393 C   0  0  0  0  0  0
   -7.7114   28.1151   49.3494 C   0  0  0  0  0  0
   -7.2028   27.9706   50.6364 C   0  0  0  0  0  0
   -9.4509   27.6469   47.5610 C   0  0  0  0  0  0
   -8.8657   28.5308   46.6301 C   0  0  0  0  0  0
   -9.4272   28.6870   45.3618 C   0  0  0  0  0  0
  -10.5430   28.0307   44.9643 N   0  0  0  0  0  0
  -11.1186   27.1880   45.8528 C   0  0  0  0  0  0
  -10.6104   26.9700   47.1341 C   0  0  0  0  0  0
   -5.6031   28.3419   56.0696 C   0  0  0  0  0  0
   -5.9390   28.1603   57.2439 O   0  0  0  0  0  0
   -4.4679   28.9700   55.7183 N   0  0  0  0  0  0
   -3.3610   29.2727   56.6486 C   0  0  2  0  0  0
   -2.8293   27.9951   57.3958 C   0  0  0  0  0  0
   -2.4954   26.7688   56.5286 C   0  0  0  0  0  0
   -2.3390   26.8052   55.3100 O   0  0  0  0  0  0
   -2.3390   25.6399   57.2711 O   0  0  0  0  0  0
   -3.5868   30.4588   57.6134 C   0  0  0  0  0  0
   -4.8061   31.1522   57.6815 C   0  0  0  0  0  0
   -4.9760   32.2037   58.5774 C   0  0  0  0  0  0
   -3.9218   32.5869   59.4004 C   0  0  0  0  0  0
   -2.6959   31.9330   59.3261 C   0  0  0  0  0  0
   -2.5293   30.8779   58.4334 C   0  0  0  0  0  0
   -6.4028   29.0520   53.3055 H   0  0  0  0  0  0
   -7.8252   24.9700   53.4002 H   0  0  0  0  0  0
   -9.4588   25.7700   51.8525 H   0  0  0  0  0  0
  -10.3390   25.9945   49.6348 H   0  0  0  0  0  0
   -7.1792   28.7913   48.7007 H   0  0  0  0  0  0
   -6.3390   28.5460   50.9196 H   0  0  0  0  0  0
   -7.9735   29.0958   46.8460 H   0  0  0  0  0  0
   -8.9731   29.3495   44.6379 H   0  0  0  0  0  0
  -12.0077   26.6753   45.5176 H   0  0  0  0  0  0
  -11.1390   26.2796   47.7692 H   0  0  0  0  0  0
   -4.4544   29.4783   54.8391 H   0  0  0  0  0  0
   -2.5611   29.6149   55.9880 H   0  0  0  0  0  0
   -1.9279   28.2348   57.9576 H   0  0  0  0  0  0
   -3.5582   27.7017   58.1520 H   0  0  0  0  0  0
   -2.8333   25.6481   58.1000 H   0  0  0  0  0  0
   -5.6423   30.8833   57.0556 H   0  0  0  0  0  0
   -5.9250   32.7164   58.6359 H   0  0  0  0  0  0
   -4.0544   33.4018   60.0969 H   0  0  0  0  0  0
   -1.8779   32.2420   59.9603 H   0  0  0  0  0  0
   -1.5672   30.3904   58.3872 H   0  0  0  0  0  0
  1  2  1  0  0  0
  1  5  1  0  0  0
  2  3  2  0  0  0
  2 18  1  0  0  0
  3  4  1  0  0  0
  3 32  1  0  0  0
  4  5  2  0  0  0
  4  6  1  0  0  0
  5 33  1  0  0  0
  6  7  2  0  0  0
  6 11  1  0  0  0
  7  8  1  0  0  0
  7 34  1  0  0  0
  8  9  2  0  0  0
  8 35  1  0  0  0
  9 10  1  0  0  0
  9 12  1  0  0  0
 10 11  2  0  0  0
 10 36  1  0  0  0
 11 37  1  0  0  0
 12 13  2  0  0  0
 12 17  1  0  0  0
 13 14  1  0  0  0
 13 38  1  0  0  0
 14 15  2  0  0  0
 14 39  1  0  0  0
 15 16  1  0  0  0
 16 17  2  0  0  0
 16 40  1  0  0  0
 17 41  1  0  0  0
 18 19  2  0  0  0
 18 20  1  0  0  0
 20 21  1  0  0  0
 20 42  1  0  0  0
 21 22  1  0  0  0
 21 26  1  0  0  0
 21 43  1  0  0  0
 22 23  1  0  0  0
 22 44  1  0  0  0
 22 45  1  0  0  0
 23 24  2  0  0  0
 23 25  1  0  0  0
 25 46  1  0  0  0
 26 27  2  0  0  0
 26 31  1  0  0  0
 27 28  1  0  0  0
 27 47  1  0  0  0
 28 29  2  0  0  0
 28 48  1  0  0  0
 29 30  1  0  0  0
 29 49  1  0  0  0
 30 31  2  0  0  0
 30 50  1  0  0  0
 31 51  1  0  0  0
M  END
> <s_m_entry_id>
64067

> <s_m_entry_name>
dock_pv.17

> <s_m_Source_Path>
/home/csk/Desktop/cluster/DUD-E-result/mmp13

> <s_m_Source_File>
dock_pv.maegz

> <i_m_Source_File_Index>
17

> <chembl_id>
CHEMBL508461

> <chembl_pref_name>
None

> <i_lp_mmshare_version>
53161

> <i_f3d_flags>
0

> <r_lp_tautomer_probability>
1

> <s_lp_Force_Field>
OPLS_2005

> <r_lp_Energy>
21.723755

> <b_lp_Chiralities_Consistent>
1

> <s_lp_Variant>
CHEMBL280_lig1289-1

> <s_i_glide_gridfile>
glide-grid_830c

> <i_i_glide_lignum>
2009

> <i_i_glide_rotatable_bonds>
9

> <r_i_docking_score>
-8.88106825403162

> <r_i_glide_ligand_efficiency>
-0.286486072710697

> <r_i_glide_ligand_efficiency_sa>
-0.899961804962826

> <r_i_glide_ligand_efficiency_ln>
-2.00295306333949

> <r_i_glide_gscore>
-8.88106825403162

> <r_i_glide_lipo>
-3.97556550367498

> <r_i_glide_hbond>
-0.305496029277257

> <r_i_glide_metal>
0

> <r_i_glide_rewards>
-0.533296568413244

> <r_i_glide_evdw>
-50.1446533203125

> <r_i_glide_ecoul>
-14.4533023834229

> <r_i_glide_erotb>
0.757288128869152

> <r_i_glide_esite>
-0.148770258006235

> <r_i_glide_emodel>
-95.009483904982

> <r_i_glide_energy>
-64.5979557037354

> <r_i_glide_einternal>
14.1199550628662

> <i_i_glide_confnum>
4

> <i_i_glide_posenum>
12

> <r_i_glide_eff_state_penalty>
0

> <s_user_duplicate_titles>
CHEMBL280_lig1289,493079

> <s_m_subgroup_title>
dock_pv

> <s_m_subgroupid>
dock_pv

> <b_m_subgroup_collapsed>
1

$$$$
CHEMBL280_lig1507
                    3D
 Schrodinger Suite 2021-1.
 43 44  0  0  1  0            999 V2000
  -10.3390   26.9700   48.3970 C   0  0  0  0  0  0
   -9.6575   27.6300   47.3704 C   0  0  0  0  0  0
   -8.3966   28.1700   47.6452 C   0  0  0  0  0  0
   -7.8339   28.0359   48.9100 C   0  0  0  0  0  0
   -8.5014   27.3700   49.9500 C   0  0  0  0  0  0
   -9.7735   26.8487   49.6631 C   0  0  0  0  0  0
   -7.8948   27.2551   51.3267 C   0  0  0  0  0  0
   -6.7854   28.0244   51.7100 C   0  0  0  0  0  0
   -6.2576   27.9655   52.9969 C   0  0  0  0  0  0
   -6.8603   27.1634   53.9637 C   0  0  0  0  0  0
   -7.9401   26.3747   53.5941 C   0  0  0  0  0  0
   -8.4378   26.4024   52.2959 C   0  0  0  0  0  0
   -6.4201   27.1303   55.4275 C   0  0  0  0  0  0
   -5.4458   28.2395   55.8931 C   0  0  0  0  0  0
   -3.9707   27.8200   55.7542 C   0  0  2  0  0  0
   -3.5377   26.9143   56.9365 C   0  0  0  0  0  0
   -3.1523   28.9709   55.7100 O   0  0  0  0  0  0
   -2.2324   26.1453   56.7401 C   0  0  0  0  0  0
   -1.9390   25.3700   57.8163 O   0  0  0  0  0  0
   -1.5675   26.1700   55.7100 O   0  0  0  0  0  0
  -10.2888   27.7372   46.0144 C   0  0  0  0  0  0
   -9.5003   28.4325   44.9045 C   0  0  0  0  0  0
  -11.4030   27.2854   45.7417 O   0  0  0  0  0  0
  -11.3258   26.5612   48.2281 H   0  0  0  0  0  0
   -7.8212   28.6869   46.8895 H   0  0  0  0  0  0
   -6.8490   28.4536   49.0473 H   0  0  0  0  0  0
  -10.3623   26.3478   50.4140 H   0  0  0  0  0  0
   -6.3390   28.7217   51.0247 H   0  0  0  0  0  0
   -5.3989   28.5700   53.2331 H   0  0  0  0  0  0
   -8.4268   25.7700   54.3374 H   0  0  0  0  0  0
   -9.2819   25.7700   52.0772 H   0  0  0  0  0  0
   -7.3183   27.2023   56.0351 H   0  0  0  0  0  0
   -6.0222   26.1367   55.6408 H   0  0  0  0  0  0
   -5.6579   29.1672   55.3591 H   0  0  0  0  0  0
   -5.6440   28.4863   56.9377 H   0  0  0  0  0  0
   -3.8522   27.3020   54.8008 H   0  0  0  0  0  0
   -3.4671   27.5081   57.8490 H   0  0  0  0  0  0
   -4.3112   26.1700   57.1197 H   0  0  0  0  0  0
   -3.5562   29.6225   55.1226 H   0  0  0  0  0  0
   -2.6898   25.3044   58.4212 H   0  0  0  0  0  0
   -8.5463   27.9301   44.7439 H   0  0  0  0  0  0
   -9.2893   29.4654   45.1810 H   0  0  0  0  0  0
  -10.0564   28.4281   43.9670 H   0  0  0  0  0  0
  1  6  1  0  0  0
  1  2  2  0  0  0
  1 24  1  0  0  0
  2  3  1  0  0  0
  2 21  1  0  0  0
  3  4  2  0  0  0
  3 25  1  0  0  0
  4  5  1  0  0  0
  4 26  1  0  0  0
  5  7  1  0  0  0
  5  6  2  0  0  0
  6 27  1  0  0  0
  7 12  1  0  0  0
  7  8  2  0  0  0
  8  9  1  0  0  0
  8 28  1  0  0  0
  9 10  2  0  0  0
  9 29  1  0  0  0
 10 13  1  0  0  0
 10 11  1  0  0  0
 11 12  2  0  0  0
 11 30  1  0  0  0
 12 31  1  0  0  0
 13 14  1  0  0  0
 13 32  1  0  0  0
 13 33  1  0  0  0
 14 15  1  0  0  0
 14 34  1  0  0  0
 14 35  1  0  0  0
 15 16  1  0  0  0
 15 17  1  0  0  0
 15 36  1  0  0  0
 16 18  1  0  0  0
 16 37  1  0  0  0
 16 38  1  0  0  0
 17 39  1  0  0  0
 18 19  1  0  0  0
 18 20  2  0  0  0
 19 40  1  0  0  0
 21 22  1  0  0  0
 21 23  2  0  0  0
 22 41  1  0  0  0
 22 42  1  0  0  0
 22 43  1  0  0  0
M  END
> <s_m_entry_id>
64068

> <s_m_entry_name>
dock_pv.18

> <s_m_Source_Path>
/home/csk/Desktop/cluster/DUD-E-result/mmp13

> <s_m_Source_File>
dock_pv.maegz

> <i_m_Source_File_Index>
18

> <chembl_id>
CHEMBL584559

> <chembl_pref_name>
None

> <i_lp_mmshare_version>
53161

> <i_f3d_flags>
0

> <r_lp_tautomer_probability>
0.99995

> <s_lp_Force_Field>
OPLS_2005

> <r_lp_Energy>
21.250511

> <b_lp_Chiralities_Consistent>
1

> <s_lp_Variant>
CHEMBL280_lig1507-1

> <s_i_glide_gridfile>
glide-grid_830c

> <i_i_glide_lignum>
2241

> <i_i_glide_rotatable_bonds>
9

> <r_i_docking_score>
-8.87170687245929

> <r_i_glide_ligand_efficiency>
-0.3857263857591

> <r_i_glide_ligand_efficiency_sa>
-1.09695453057129

> <r_i_glide_ligand_efficiency_ln>
-2.14525916595099

> <r_i_glide_gscore>
-8.87170687245929

> <r_i_glide_lipo>
-3.90243140972664

> <r_i_glide_hbond>
0

> <r_i_glide_metal>
0

> <r_i_glide_rewards>
-1.37954658541005

> <r_i_glide_evdw>
-42.7165908813477

> <r_i_glide_ecoul>
-16.6344223022461

> <r_i_glide_erotb>
1.14126401208169

> <r_i_glide_esite>
-0.1

> <r_i_glide_emodel>
-95.9501251503855

> <r_i_glide_energy>
-59.3510131835938

> <r_i_glide_einternal>
6.13424777984619

> <i_i_glide_confnum>
19

> <i_i_glide_posenum>
137

> <r_i_glide_eff_state_penalty>
0

> <s_user_duplicate_titles>
CHEMBL280_lig1507

> <s_m_subgroup_title>
dock_pv

> <s_m_subgroupid>
dock_pv

> <b_m_subgroup_collapsed>
1

$$$$
CHEMBL280_lig1540
                    3D
 Schrodinger Suite 2021-1.
 58 61  0  0  1  0            999 V2000
   -3.9208   28.2702   56.7802 C   0  0  0  0  0  0
   -3.5446   29.5330   55.9843 C   0  0  0  0  0  0
   -4.1008   30.8522   56.5463 C   0  0  0  0  0  0
   -3.6450   30.9893   57.8818 O   0  0  0  0  0  0
   -4.0776   29.9360   58.7295 C   0  0  0  0  0  0
   -3.5233   28.5638   58.2563 C   0  0  0  0  0  0
   -6.2897   27.4323   55.1057 C   0  0  0  0  0  0
   -6.7912   26.1780   54.7480 C   0  0  0  0  0  0
   -7.3711   26.0001   53.4880 C   0  0  0  0  0  0
   -7.3803   27.0479   52.5599 C   0  0  0  0  0  0
   -6.7871   28.2565   52.9125 C   0  0  0  0  0  0
   -6.2978   28.4707   54.1864 C   0  0  0  0  0  0
   -7.9327   26.9415   51.2919 N   0  0  0  0  0  0
   -7.1877   27.3490   50.1089 C   0  0  0  0  0  0
   -8.0184   28.0253   49.0121 C   0  0  0  0  0  0
   -9.1951   27.2716   48.5630 N   0  0  0  0  0  0
   -9.9400   26.8348   49.7636 C   0  0  0  0  0  0
   -9.1037   26.1653   50.8920 C   0  0  0  0  0  0
   -9.7933   27.5048   47.3111 C   0  0  0  0  0  0
   -9.1390   28.2378   46.3025 C   0  0  0  0  0  0
   -9.7081   28.4252   45.0458 C   0  0  0  0  0  0
  -10.9550   27.8807   44.7670 C   0  0  0  0  0  0
  -11.6300   27.1520   45.7389 C   0  0  0  0  0  0
  -11.0520   26.9710   46.9942 C   0  0  0  0  0  0
   -5.7943   27.8061   56.7799 S   0  0  0  0  0  0
   -3.1542   27.1004   56.1239 C   0  0  0  0  0  0
   -2.8891   26.0544   56.8976 N   0  0  0  0  0  0
   -2.8613   27.1058   54.9134 O   0  0  0  0  0  0
   -2.3390   24.9697   56.2505 O   0  0  0  0  0  0
   -5.9388   26.5704   57.5568 O   0  0  0  0  0  0
   -6.5945   28.9799   57.1410 O   0  0  0  0  0  0
   -3.8087   29.3700   54.9434 H   0  0  0  0  0  0
   -2.4578   29.6472   55.9583 H   0  0  0  0  0  0
   -5.1877   30.9145   56.4840 H   0  0  0  0  0  0
   -3.7169   31.6974   55.9747 H   0  0  0  0  0  0
   -5.1614   29.9433   58.8313 H   0  0  0  0  0  0
   -3.7037   30.1701   59.7127 H   0  0  0  0  0  0
   -2.4372   28.5706   58.3647 H   0  0  0  0  0  0
   -3.8868   27.7773   58.9198 H   0  0  0  0  0  0
   -6.7633   25.3606   55.4552 H   0  0  0  0  0  0
   -7.7863   25.0396   53.2280 H   0  0  0  0  0  0
   -6.7493   29.0629   52.2024 H   0  0  0  0  0  0
   -5.9459   29.4513   54.4616 H   0  0  0  0  0  0
   -6.3409   27.9732   50.3738 H   0  0  0  0  0  0
   -6.7404   26.4424   49.7110 H   0  0  0  0  0  0
   -7.3272   28.2460   48.2021 H   0  0  0  0  0  0
   -8.3735   28.9713   49.4058 H   0  0  0  0  0  0
  -10.7269   26.1402   49.5027 H   0  0  0  0  0  0
  -10.4291   27.7134   50.1897 H   0  0  0  0  0  0
   -8.7546   25.1915   50.5472 H   0  0  0  0  0  0
   -9.7349   25.9667   51.7569 H   0  0  0  0  0  0
   -8.1651   28.6752   46.4497 H   0  0  0  0  0  0
   -9.1784   28.9907   44.2896 H   0  0  0  0  0  0
  -11.4004   28.0268   43.7928 H   0  0  0  0  0  0
  -12.5977   26.7262   45.5204 H   0  0  0  0  0  0
  -11.6150   26.4100   47.7186 H   0  0  0  0  0  0
   -3.2486   25.8391   57.8235 H   0  0  0  0  0  0
   -3.0942   24.3589   56.1548 H   0  0  0  0  0  0
  1 25  1  0  0  0
  1 26  1  0  0  0
  1  2  1  0  0  0
  1  6  1  0  0  0
  2  3  1  0  0  0
  2 32  1  0  0  0
  2 33  1  0  0  0
  3  4  1  0  0  0
  3 34  1  0  0  0
  3 35  1  0  0  0
  4  5  1  0  0  0
  5  6  1  0  0  0
  5 36  1  0  0  0
  5 37  1  0  0  0
  6 38  1  0  0  0
  6 39  1  0  0  0
  7 12  1  0  0  0
  7 25  1  0  0  0
  7  8  2  0  0  0
  8  9  1  0  0  0
  8 40  1  0  0  0
  9 10  2  0  0  0
  9 41  1  0  0  0
 10 13  1  0  0  0
 10 11  1  0  0  0
 11 12  2  0  0  0
 11 42  1  0  0  0
 12 43  1  0  0  0
 13 18  1  0  0  0
 13 14  1  0  0  0
 14 15  1  0  0  0
 14 44  1  0  0  0
 14 45  1  0  0  0
 15 16  1  0  0  0
 15 46  1  0  0  0
 15 47  1  0  0  0
 16 17  1  0  0  0
 16 19  1  0  0  0
 17 18  1  0  0  0
 17 48  1  0  0  0
 17 49  1  0  0  0
 18 50  1  0  0  0
 18 51  1  0  0  0
 19 20  2  0  0  0
 19 24  1  0  0  0
 20 21  1  0  0  0
 20 52  1  0  0  0
 21 22  2  0  0  0
 21 53  1  0  0  0
 22 23  1  0  0  0
 22 54  1  0  0  0
 23 24  2  0  0  0
 23 55  1  0  0  0
 24 56  1  0  0  0
 25 30  2  0  0  0
 25 31  2  0  0  0
 26 27  1  0  0  0
 26 28  2  0  0  0
 27 29  1  0  0  0
 27 57  1  0  0  0
 29 58  1  0  0  0
M  END
> <s_m_entry_id>
64069

> <s_m_entry_name>
dock_pv.19

> <s_m_Source_Path>
/home/csk/Desktop/cluster/DUD-E-result/mmp13

> <s_m_Source_File>
dock_pv.maegz

> <i_m_Source_File_Index>
19

> <chembl_id>
CHEMBL1085602

> <chembl_pref_name>
None

> <i_lp_mmshare_version>
53161

> <i_f3d_flags>
0

> <r_lp_tautomer_probability>
1

> <s_lp_Force_Field>
OPLS_2005

> <r_lp_Energy>
43.443176

> <b_lp_Chiralities_Consistent>
1

> <s_lp_Variant>
CHEMBL280_lig1540-1

> <s_i_glide_gridfile>
glide-grid_830c

> <i_i_glide_lignum>
2281

> <i_i_glide_rotatable_bonds>
7

> <r_i_docking_score>
-8.83703878344904

> <r_i_glide_ligand_efficiency>
-0.285065767208034

> <r_i_glide_ligand_efficiency_sa>
-0.89550008474138

> <r_i_glide_ligand_efficiency_ln>
-1.99302306838189

> <r_i_glide_gscore>
-8.83703878344904

> <r_i_glide_lipo>
-3.74766651953015

> <r_i_glide_hbond>
-0.281846116217202

> <r_i_glide_metal>
0

> <r_i_glide_rewards>
-0.371317282214436

> <r_i_glide_evdw>
-42.0974578857422

> <r_i_glide_ecoul>
-17.933349609375

> <r_i_glide_erotb>
0.60480676928771

> <r_i_glide_esite>
-0.246140299081598

> <r_i_glide_emodel>
-85.8389865044477

> <r_i_glide_energy>
-60.0308074951172

> <r_i_glide_einternal>
2.95881605148315

> <i_i_glide_confnum>
3

> <i_i_glide_posenum>
10

> <r_i_glide_eff_state_penalty>
0

> <s_user_duplicate_titles>
CHEMBL280_lig1540,633131

> <s_m_subgroup_title>
dock_pv

> <s_m_subgroupid>
dock_pv

> <b_m_subgroup_collapsed>
1

$$$$
CHEMBL280_lig1508
                    3D
 Schrodinger Suite 2021-1.
 42 43  0  0  1  0            999 V2000
  -10.3390   27.0170   47.9345 C   0  0  0  0  0  0
   -9.6635   27.7835   46.9864 C   0  0  0  0  0  0
   -8.4432   28.3677   47.3070 C   0  0  0  0  0  0
   -7.8901   28.1699   48.5658 C   0  0  0  0  0  0
   -8.5510   27.4009   49.5376 C   0  0  0  0  0  0
   -9.7919   26.8408   49.2008 C   0  0  0  0  0  0
   -7.9769   27.2241   50.9116 C   0  0  0  0  0  0
   -8.3779   26.1770   51.7485 C   0  0  0  0  0  0
   -7.9390   26.1180   53.0680 C   0  0  0  0  0  0
   -7.0565   27.0665   53.5751 C   0  0  0  0  0  0
   -6.6037   28.0799   52.7338 C   0  0  0  0  0  0
   -7.0633   28.1474   51.4264 C   0  0  0  0  0  0
   -6.6880   26.9956   55.0539 C   0  0  0  0  0  0
   -5.4509   27.7859   55.5225 C   0  0  0  0  0  0
   -4.1320   26.9999   55.3567 C   0  0  2  0  0  0
   -3.5041   26.7219   56.7367 C   0  0  0  0  0  0
   -3.2356   27.6980   54.5100 O   0  0  0  0  0  0
   -2.2167   25.9104   56.7144 C   0  0  0  0  0  0
   -1.9390   25.3700   57.9286 O   0  0  0  0  0  0
   -1.5280   25.7700   55.7100 O   0  0  0  0  0  0
  -10.3177   28.0348   45.3615 S   0  0  0  0  0  0
  -11.9390   27.2345   45.2575 C   0  0  0  0  0  0
  -11.2958   26.5700   47.7174 H   0  0  0  0  0  0
   -7.9097   28.9583   46.5752 H   0  0  0  0  0  0
   -6.9265   28.6156   48.7615 H   0  0  0  0  0  0
  -10.3560   26.2652   49.9176 H   0  0  0  0  0  0
   -9.0590   25.4165   51.3975 H   0  0  0  0  0  0
   -8.3099   25.3403   53.7100 H   0  0  0  0  0  0
   -5.9359   28.8535   53.0723 H   0  0  0  0  0  0
   -6.7297   28.9700   50.8234 H   0  0  0  0  0  0
   -6.5927   25.9503   55.3569 H   0  0  0  0  0  0
   -7.5390   27.3700   55.6054 H   0  0  0  0  0  0
   -5.6110   28.0009   56.5808 H   0  0  0  0  0  0
   -5.4044   28.7858   55.0930 H   0  0  0  0  0  0
   -4.3383   26.0414   54.8746 H   0  0  0  0  0  0
   -4.2460   26.1700   57.3100 H   0  0  0  0  0  0
   -3.3107   27.6538   57.2693 H   0  0  0  0  0  0
   -3.2793   28.6342   54.7373 H   0  0  0  0  0  0
   -2.7456   25.3395   58.4675 H   0  0  0  0  0  0
  -12.3390   27.3531   44.2512 H   0  0  0  0  0  0
  -11.8575   26.1700   45.4665 H   0  0  0  0  0  0
  -12.6318   27.6814   45.9710 H   0  0  0  0  0  0
  1  6  1  0  0  0
  1  2  2  0  0  0
  1 23  1  0  0  0
  2  3  1  0  0  0
  2 21  1  0  0  0
  3  4  2  0  0  0
  3 24  1  0  0  0
  4  5  1  0  0  0
  4 25  1  0  0  0
  5  6  2  0  0  0
  5  7  1  0  0  0
  6 26  1  0  0  0
  7 12  1  0  0  0
  7  8  2  0  0  0
  8  9  1  0  0  0
  8 27  1  0  0  0
  9 10  2  0  0  0
  9 28  1  0  0  0
 10 13  1  0  0  0
 10 11  1  0  0  0
 11 12  2  0  0  0
 11 29  1  0  0  0
 12 30  1  0  0  0
 13 14  1  0  0  0
 13 31  1  0  0  0
 13 32  1  0  0  0
 14 15  1  0  0  0
 14 33  1  0  0  0
 14 34  1  0  0  0
 15 16  1  0  0  0
 15 17  1  0  0  0
 15 35  1  0  0  0
 16 18  1  0  0  0
 16 36  1  0  0  0
 16 37  1  0  0  0
 17 38  1  0  0  0
 18 19  1  0  0  0
 18 20  2  0  0  0
 19 39  1  0  0  0
 21 22  1  0  0  0
 22 40  1  0  0  0
 22 41  1  0  0  0
 22 42  1  0  0  0
M  END
> <s_m_entry_id>
64070

> <s_m_entry_name>
dock_pv.20

> <s_m_Source_Path>
/home/csk/Desktop/cluster/DUD-E-result/mmp13

> <s_m_Source_File>
dock_pv.maegz

> <i_m_Source_File_Index>
20

> <chembl_id>
CHEMBL575320

> <chembl_pref_name>
None

> <i_lp_mmshare_version>
53161

> <i_f3d_flags>
0

> <r_lp_tautomer_probability>
1

> <s_lp_Force_Field>
OPLS_2005

> <r_lp_Energy>
14.768855

> <b_lp_Chiralities_Consistent>
1

> <s_lp_Variant>
CHEMBL280_lig1508-1

> <s_i_glide_gridfile>
glide-grid_830c

> <i_i_glide_lignum>
2243

> <i_i_glide_rotatable_bonds>
9

> <r_i_docking_score>
-8.78483502092997

> <r_i_glide_ligand_efficiency>
-0.399310682769544

> <r_i_glide_ligand_efficiency_sa>
-1.11888423711828

> <r_i_glide_ligand_efficiency_ln>
-2.14733411375835

> <r_i_glide_gscore>
-8.78483502092997

> <r_i_glide_lipo>
-4.01340752041161

> <r_i_glide_hbond>
-0.0431799580769047

> <r_i_glide_metal>
0

> <r_i_glide_rewards>
-1.29833860014926

> <r_i_glide_evdw>
-40.4280166625977

> <r_i_glide_ecoul>
-16.1611309051514

> <r_i_glide_erotb>
1.1156615266104

> <r_i_glide_esite>
-0.1

> <r_i_glide_emodel>
-90.9544240724612

> <r_i_glide_energy>
-56.589147567749

> <r_i_glide_einternal>
10.4926671981812

> <i_i_glide_confnum>
25

> <i_i_glide_posenum>
186

> <r_i_glide_eff_state_penalty>
0

> <s_user_duplicate_titles>
CHEMBL280_lig1508

> <s_m_subgroup_title>
dock_pv

> <s_m_subgroupid>
dock_pv

> <b_m_subgroup_collapsed>
1

$$$$
CHEMBL280_lig246
                    3D
 Schrodinger Suite 2021-1.
 44 46  0  0  1  0            999 V2000
   -4.5382   27.9259   58.0049 C   0  0  0  0  0  0
   -4.9784   28.1978   56.7563 N   0  0  0  0  0  0
   -3.3527   28.5590   58.0905 N   0  0  0  0  0  0
   -2.7812   28.8199   56.7810 C   0  0  1  0  0  0
   -1.9667   27.5934   56.2941 C   0  0  0  0  0  0
   -4.0650   29.0570   56.0232 C   0  0  0  0  0  0
   -6.4005   28.0993   56.4361 C   0  0  0  0  0  0
   -5.1391   27.3700   58.9101 O   0  0  0  0  0  0
   -2.3324   26.9325   55.3103 O   0  0  0  0  0  0
   -0.8879   27.3025   57.0428 N   0  0  0  0  0  0
   -7.7835   26.6202   51.1189 O   0  0  0  0  0  0
   -6.6849   27.6664   55.0125 C   0  0  0  0  0  0
   -7.3444   26.9765   52.3830 C   0  0  0  0  0  0
   -7.5759   27.5487   50.0484 C   0  0  0  0  0  0
   -0.1496   26.1607   56.7326 O   0  0  0  0  0  0
   -6.4762   28.5695   53.9837 C   0  0  0  0  0  0
   -7.1953   26.4017   54.7339 C   0  0  0  0  0  0
   -6.7422   28.2068   52.6764 C   0  0  0  0  0  0
   -7.5361   26.0657   53.4231 C   0  0  0  0  0  0
   -8.5657   27.3965   48.9087 C   0  0  0  0  0  0
   -8.3430   28.1326   47.7400 C   0  0  0  0  0  0
   -9.7177   26.6179   49.0403 C   0  0  0  0  0  0
  -10.6363   26.5720   47.9970 C   0  0  0  0  0  0
   -9.2622   28.0808   46.6970 C   0  0  0  0  0  0
  -10.4057   27.2977   46.8297 C   0  0  0  0  0  0
   -2.7280   28.3240   58.8473 H   0  0  0  0  0  0
   -2.1370   29.7007   56.7652 H   0  0  0  0  0  0
   -4.3885   30.0969   56.1016 H   0  0  0  0  0  0
   -3.9945   28.7953   54.9668 H   0  0  0  0  0  0
   -6.8847   27.3986   57.1113 H   0  0  0  0  0  0
   -6.8694   29.0688   56.6103 H   0  0  0  0  0  0
   -0.5418   27.7935   57.8565 H   0  0  0  0  0  0
   -7.7564   28.5700   50.3630 H   0  0  0  0  0  0
   -6.5464   27.4659   49.7028 H   0  0  0  0  0  0
    0.7147   26.4845   56.4545 H   0  0  0  0  0  0
   -6.0995   29.5538   54.2015 H   0  0  0  0  0  0
   -7.3417   25.6968   55.5373 H   0  0  0  0  0  0
   -6.5080   28.9382   51.9208 H   0  0  0  0  0  0
   -7.9390   25.0895   53.2130 H   0  0  0  0  0  0
   -7.4592   28.7478   47.6398 H   0  0  0  0  0  0
   -9.9113   26.0627   49.9470 H   0  0  0  0  0  0
  -11.5392   26.0005   48.1099 H   0  0  0  0  0  0
   -9.0865   28.6470   45.7934 H   0  0  0  0  0  0
  -11.1262   27.2632   46.0261 H   0  0  0  0  0  0
  1  2  1  0  0  0
  1  3  1  0  0  0
  1  8  2  0  0  0
  2  6  1  0  0  0
  2  7  1  0  0  0
  3  4  1  0  0  0
  3 26  1  0  0  0
  4  5  1  0  0  0
  4  6  1  0  0  0
  4 27  1  0  0  0
  5  9  2  0  0  0
  5 10  1  0  0  0
  6 28  1  0  0  0
  6 29  1  0  0  0
  7 12  1  0  0  0
  7 30  1  0  0  0
  7 31  1  0  0  0
 10 15  1  0  0  0
 10 32  1  0  0  0
 11 13  1  0  0  0
 11 14  1  0  0  0
 12 16  1  0  0  0
 12 17  2  0  0  0
 13 19  2  0  0  0
 13 18  1  0  0  0
 14 20  1  0  0  0
 14 33  1  0  0  0
 14 34  1  0  0  0
 15 35  1  0  0  0
 16 18  2  0  0  0
 16 36  1  0  0  0
 17 19  1  0  0  0
 17 37  1  0  0  0
 18 38  1  0  0  0
 19 39  1  0  0  0
 20 21  2  0  0  0
 20 22  1  0  0  0
 21 24  1  0  0  0
 21 40  1  0  0  0
 22 23  2  0  0  0
 22 41  1  0  0  0
 23 25  1  0  0  0
 23 42  1  0  0  0
 24 25  2  0  0  0
 24 43  1  0  0  0
 25 44  1  0  0  0
M  END
> <s_m_entry_id>
64071

> <s_m_entry_name>
dock_pv.21

> <s_m_Source_Path>
/home/csk/Desktop/cluster/DUD-E-result/mmp13

> <s_m_Source_File>
dock_pv.maegz

> <i_m_Source_File_Index>
21

> <chembl_id>
CHEMBL19583

> <chembl_pref_name>
None

> <i_lp_mmshare_version>
53161

> <i_f3d_flags>
0

> <r_lp_tautomer_probability>
1

> <s_lp_Force_Field>
OPLS_2005

> <r_lp_Energy>
52.825231

> <b_lp_Chiralities_Consistent>
1

> <s_lp_Variant>
CHEMBL280_lig246-1

> <s_i_glide_gridfile>
glide-grid_830c

> <i_i_glide_lignum>
343

> <i_i_glide_rotatable_bonds>
8

> <r_i_docking_score>
-8.72452739008146

> <r_i_glide_ligand_efficiency>
-0.348981095603258

> <r_i_glide_ligand_efficiency_sa>
-1.02042691275001

> <r_i_glide_ligand_efficiency_ln>
-2.06797444443723

> <r_i_glide_gscore>
-8.72452739008146

> <r_i_glide_lipo>
-4.16797207769442

> <r_i_glide_hbond>
-0.445415363562701

> <r_i_glide_metal>
0

> <r_i_glide_rewards>
-1.08161438103068

> <r_i_glide_evdw>
-40.4443588256836

> <r_i_glide_ecoul>
-13.484450340271

> <r_i_glide_erotb>
1.13829782584043

> <r_i_glide_esite>
-0.122937901309252

> <r_i_glide_emodel>
-83.1458598734178

> <r_i_glide_energy>
-53.9288091659546

> <r_i_glide_einternal>
8.36277198791504

> <i_i_glide_confnum>
50

> <i_i_glide_posenum>
337

> <r_i_glide_eff_state_penalty>
0

> <s_user_duplicate_titles>
CHEMBL280_lig246,23131

> <s_m_subgroup_title>
dock_pv

> <s_m_subgroupid>
dock_pv

> <b_m_subgroup_collapsed>
1

$$$$
CHEMBL280_lig233
                    3D
 Schrodinger Suite 2021-1.
 44 45  0  0  1  0            999 V2000
   -6.0708   28.7460   56.5492 S   0  0  0  0  0  0
   -4.2757   29.2855   56.3700 C   0  0  0  0  0  0
   -3.2599   28.3222   57.0261 C   0  0  1  0  0  0
   -2.8470   27.1896   56.0651 C   0  0  0  0  0  0
   -2.1021   29.0247   57.5966 N   0  0  0  0  0  0
   -6.5029   27.9191   55.0074 C   0  0  0  0  0  0
   -1.1589   29.7130   56.9309 C   0  0  0  0  0  0
   -6.1574   27.7644   57.6355 O   0  0  0  0  0  0
   -6.8866   29.9637   56.5936 O   0  0  0  0  0  0
   -2.7391   27.3914   54.8510 O   0  0  0  0  0  0
   -8.7320   26.1700   51.4456 S   0  0  0  0  0  0
   -2.6301   25.9912   56.6087 N   0  0  0  0  0  0
   -1.1393   29.8389   55.7100 O   0  0  0  0  0  0
   -6.7391   28.7142   53.8898 C   0  0  0  0  0  0
   -6.7298   26.5409   54.9318 C   0  0  0  0  0  0
   -7.6663   26.8315   52.7110 C   0  0  0  0  0  0
   -8.7167   27.2107   50.0155 C   0  0  0  0  0  0
   -7.3050   28.1700   52.7429 C   0  0  0  0  0  0
   -7.3065   26.0037   53.7749 C   0  0  0  0  0  0
   -2.3390   24.9700   55.7100 O   0  0  0  0  0  0
   -0.0627   30.3601   57.7690 C   0  0  0  0  0  0
   -7.5345   27.7740   49.5467 C   0  0  0  0  0  0
   -9.9018   27.3702   49.2953 C   0  0  0  0  0  0
   -9.9011   28.1090   48.1137 C   0  0  0  0  0  0
   -7.5390   28.5378   48.3812 C   0  0  0  0  0  0
   -8.7217   28.6990   47.6666 C   0  0  0  0  0  0
   -4.2198   30.2767   56.8192 H   0  0  0  0  0  0
   -4.0848   29.4266   55.3100 H   0  0  0  0  0  0
   -3.7135   27.8727   57.9104 H   0  0  0  0  0  0
   -2.0322   28.9779   58.6027 H   0  0  0  0  0  0
   -2.8461   25.6681   57.5470 H   0  0  0  0  0  0
   -6.5516   29.7756   53.9343 H   0  0  0  0  0  0
   -6.5306   25.9003   55.7801 H   0  0  0  0  0  0
   -7.5389   28.8279   51.9244 H   0  0  0  0  0  0
   -7.5387   24.9509   53.7143 H   0  0  0  0  0  0
   -3.1666   24.4346   55.7129 H   0  0  0  0  0  0
   -0.0357   31.4332   57.5802 H   0  0  0  0  0  0
    0.9078   29.9426   57.5007 H   0  0  0  0  0  0
   -0.2191   30.2051   58.8368 H   0  0  0  0  0  0
   -6.6032   27.6212   50.0711 H   0  0  0  0  0  0
  -10.8179   26.9101   49.6367 H   0  0  0  0  0  0
  -10.8097   28.2242   47.5432 H   0  0  0  0  0  0
   -6.6195   28.9734   48.0202 H   0  0  0  0  0  0
   -8.7173   29.2755   46.7527 H   0  0  0  0  0  0
  1  2  1  0  0  0
  1  6  1  0  0  0
  1  8  2  0  0  0
  1  9  2  0  0  0
  2  3  1  0  0  0
  2 27  1  0  0  0
  2 28  1  0  0  0
  3  4  1  0  0  0
  3  5  1  0  0  0
  3 29  1  0  0  0
  4 10  2  0  0  0
  4 12  1  0  0  0
  5  7  1  0  0  0
  5 30  1  0  0  0
  6 14  2  0  0  0
  6 15  1  0  0  0
  7 13  2  0  0  0
  7 21  1  0  0  0
 11 16  1  0  0  0
 11 17  1  0  0  0
 12 20  1  0  0  0
 12 31  1  0  0  0
 14 18  1  0  0  0
 14 32  1  0  0  0
 15 19  2  0  0  0
 15 33  1  0  0  0
 16 19  1  0  0  0
 16 18  2  0  0  0
 17 22  1  0  0  0
 17 23  2  0  0  0
 18 34  1  0  0  0
 19 35  1  0  0  0
 20 36  1  0  0  0
 21 37  1  0  0  0
 21 38  1  0  0  0
 21 39  1  0  0  0
 22 25  2  0  0  0
 22 40  1  0  0  0
 23 24  1  0  0  0
 23 41  1  0  0  0
 24 26  2  0  0  0
 24 42  1  0  0  0
 25 26  1  0  0  0
 25 43  1  0  0  0
 26 44  1  0  0  0
M  END
> <s_m_entry_id>
64072

> <s_m_entry_name>
dock_pv.22

> <s_m_Source_Path>
/home/csk/Desktop/cluster/DUD-E-result/mmp13

> <s_m_Source_File>
dock_pv.maegz

> <i_m_Source_File_Index>
22

> <chembl_id>
CHEMBL93074

> <chembl_pref_name>
None

> <i_lp_mmshare_version>
53161

> <i_f3d_flags>
0

> <r_lp_tautomer_probability>
1

> <s_lp_Force_Field>
OPLS_2005

> <r_lp_Energy>
14.704244

> <b_lp_Chiralities_Consistent>
1

> <s_lp_Variant>
CHEMBL280_lig233-2

> <s_i_glide_gridfile>
glide-grid_830c

> <i_i_glide_lignum>
328

> <i_i_glide_rotatable_bonds>
10

> <r_i_docking_score>
-8.68139582106706

> <r_i_glide_ligand_efficiency>
-0.33389983927181

> <r_i_glide_ligand_efficiency_sa>
-0.989176960010312

> <r_i_glide_ligand_efficiency_ln>
-2.03879732259449

> <r_i_glide_gscore>
-8.68139582106706

> <r_i_glide_lipo>
-3.67588901171741

> <r_i_glide_hbond>
-0.188558239624707

> <r_i_glide_metal>
0

> <r_i_glide_rewards>
-0.776725430873181

> <r_i_glide_evdw>
-42.9980735778809

> <r_i_glide_ecoul>
-17.9412670135498

> <r_i_glide_erotb>
1.00486482926015

> <r_i_glide_esite>
-0.203994237185397

> <r_i_glide_emodel>
-88.4945051947879

> <r_i_glide_energy>
-60.9393405914307

> <r_i_glide_einternal>
10.7636747360229

> <i_i_glide_confnum>
147

> <i_i_glide_posenum>
224

> <r_i_glide_eff_state_penalty>
0

> <s_user_duplicate_titles>
CHEMBL280_lig233

> <s_m_subgroup_title>
dock_pv

> <s_m_subgroupid>
dock_pv

> <b_m_subgroup_collapsed>
1

$$$$
CHEMBL280_lig1132
                    3D
 Schrodinger Suite 2021-1.
 51 52  0  0  1  0            999 V2000
   -3.5467   27.3857   57.9013 N   0  0  3  0  0  0
   -2.1503   27.7669   57.6041 C   0  0  1  0  0  0
   -1.4626   28.4504   58.8343 C   0  0  0  0  0  0
   -0.2078   29.2335   58.4052 C   0  0  0  0  0  0
   -1.1348   27.5163   60.0205 C   0  0  0  0  0  0
   -1.3894   26.1709   57.0973 P   0  0  0  0  0  0
   -1.3112   25.0944   58.1100 O   0  0  0  0  0  0
   -2.2477   25.7667   55.7668 O   0  0  0  0  0  0
    0.0608   26.5698   56.5100 O   0  0  0  0  0  0
   -4.8914   28.4102   57.4481 S   0  0  0  0  0  0
   -5.5055   27.8038   55.8639 C   0  0  0  0  0  0
   -5.9385   28.1693   58.4444 O   0  0  0  0  0  0
   -4.3685   29.7612   57.2203 O   0  0  0  0  0  0
   -4.9053   28.1697   54.6638 C   0  0  0  0  0  0
   -5.5359   27.8724   53.4513 C   0  0  0  0  0  0
   -6.7827   27.2318   53.4007 C   0  0  0  0  0  0
   -7.3098   26.7821   54.6204 C   0  0  0  0  0  0
   -6.6733   27.0530   55.8252 C   0  0  0  0  0  0
   -7.5481   27.0807   52.1074 C   0  0  0  0  0  0
   -8.6971   26.2841   52.0369 C   0  0  0  0  0  0
   -9.4466   26.1714   50.8727 C   0  0  0  0  0  0
   -9.0894   26.8776   49.7319 C   0  0  0  0  0  0
   -7.9387   27.6756   49.7673 C   0  0  0  0  0  0
   -7.1866   27.7706   50.9389 C   0  0  0  0  0  0
   -9.9341   26.7457   48.6474 O   0  0  0  0  0  0
   -9.7267   27.5577   47.4979 C   0  0  0  0  0  0
  -10.8084   27.2175   46.4684 C   0  0  0  0  0  0
   -3.7104   26.6659   58.6138 H   0  0  0  0  0  0
   -2.1532   28.4419   56.7476 H   0  0  0  0  0  0
   -2.1508   29.1935   59.2480 H   0  0  0  0  0  0
    0.5775   28.5724   58.0391 H   0  0  0  0  0  0
    0.2074   29.8015   59.2395 H   0  0  0  0  0  0
   -0.4371   29.9482   57.6141 H   0  0  0  0  0  0
   -0.3582   26.7943   59.7702 H   0  0  0  0  0  0
   -0.7553   28.0830   60.8724 H   0  0  0  0  0  0
   -2.0135   26.9636   60.3549 H   0  0  0  0  0  0
   -3.0111   25.1882   56.0138 H   0  0  0  0  0  0
    0.6777   25.8313   56.3018 H   0  0  0  0  0  0
   -3.9963   28.7541   54.6700 H   0  0  0  0  0  0
   -5.0628   28.2129   52.5465 H   0  0  0  0  0  0
   -8.2520   26.2653   54.6850 H   0  0  0  0  0  0
   -7.1377   26.7430   56.7374 H   0  0  0  0  0  0
   -9.0605   25.7699   52.9024 H   0  0  0  0  0  0
  -10.3350   25.5584   50.8643 H   0  0  0  0  0  0
   -7.6218   28.2463   48.9072 H   0  0  0  0  0  0
   -6.3393   28.4336   50.9200 H   0  0  0  0  0  0
   -9.7838   28.6144   47.7624 H   0  0  0  0  0  0
   -8.7463   27.3682   47.0630 H   0  0  0  0  0  0
  -10.6986   27.8267   45.5712 H   0  0  0  0  0  0
  -10.7451   26.1709   46.1706 H   0  0  0  0  0  0
  -11.8063   27.3909   46.8733 H   0  0  0  0  0  0
  1 10  1  0  0  0
  1  2  1  0  0  0
  1 28  1  0  0  0
  2  3  1  0  0  0
  2  6  1  0  0  0
  2 29  1  0  0  0
  3  4  1  0  0  0
  3  5  1  0  0  0
  3 30  1  0  0  0
  4 31  1  0  0  0
  4 32  1  0  0  0
  4 33  1  0  0  0
  5 34  1  0  0  0
  5 35  1  0  0  0
  5 36  1  0  0  0
  6  8  1  0  0  0
  6  9  1  0  0  0
  6  7  2  0  0  0
  8 37  1  0  0  0
  9 38  1  0  0  0
 10 11  1  0  0  0
 10 12  2  0  0  0
 10 13  2  0  0  0
 11 14  2  0  0  0
 11 18  1  0  0  0
 14 15  1  0  0  0
 14 39  1  0  0  0
 15 16  2  0  0  0
 15 40  1  0  0  0
 16 17  1  0  0  0
 16 19  1  0  0  0
 17 18  2  0  0  0
 17 41  1  0  0  0
 18 42  1  0  0  0
 19 20  2  0  0  0
 19 24  1  0  0  0
 20 21  1  0  0  0
 20 43  1  0  0  0
 21 22  2  0  0  0
 21 44  1  0  0  0
 22 23  1  0  0  0
 22 25  1  0  0  0
 23 24  2  0  0  0
 23 45  1  0  0  0
 24 46  1  0  0  0
 25 26  1  0  0  0
 26 27  1  0  0  0
 26 47  1  0  0  0
 26 48  1  0  0  0
 27 49  1  0  0  0
 27 50  1  0  0  0
 27 51  1  0  0  0
M  END
> <s_m_entry_id>
64073

> <s_m_entry_name>
dock_pv.23

> <s_m_Source_Path>
/home/csk/Desktop/cluster/DUD-E-result/mmp13

> <s_m_Source_File>
dock_pv.maegz

> <i_m_Source_File_Index>
23

> <chembl_id>
CHEMBL227824

> <chembl_pref_name>
None

> <i_lp_mmshare_version>
53161

> <i_f3d_flags>
0

> <r_lp_tautomer_probability>
1

> <s_lp_Force_Field>
OPLS_2005

> <r_lp_Energy>
5.667267

> <b_lp_Chiralities_Consistent>
1

> <s_lp_Variant>
CHEMBL280_lig1132-1

> <s_i_glide_gridfile>
glide-grid_830c

> <i_i_glide_lignum>
1817

> <i_i_glide_rotatable_bonds>
10

> <r_i_docking_score>
-8.63701986757432

> <r_i_glide_ligand_efficiency>
-0.319889624724975

> <r_i_glide_ligand_efficiency_sa>
-0.959668873120621

> <r_i_glide_ligand_efficiency_ln>
-2.01055583277021

> <r_i_glide_gscore>
-8.63701986757432

> <r_i_glide_lipo>
-3.50932892788801

> <r_i_glide_hbond>
-0.484967970868617

> <r_i_glide_metal>
0

> <r_i_glide_rewards>
-0.683664191313088

> <r_i_glide_evdw>
-35.4629974365234

> <r_i_glide_ecoul>
-18.3779602050781

> <r_i_glide_erotb>
0.692534882845282

> <r_i_glide_esite>
-0.121749757761997

> <r_i_glide_emodel>
-68.8036503081426

> <r_i_glide_energy>
-53.8409576416016

> <r_i_glide_einternal>
7.95648241043091

> <i_i_glide_confnum>
20

> <i_i_glide_posenum>
264

> <r_i_glide_eff_state_penalty>
0

> <s_user_duplicate_titles>
CHEMBL280_lig1132,376931

> <s_m_subgroup_title>
dock_pv

> <s_m_subgroupid>
dock_pv

> <b_m_subgroup_collapsed>
1

$$$$
CHEMBL280_lig1124
                    3D
 Schrodinger Suite 2021-1.
 50 51  0  0  1  0            999 V2000
   -4.0032   27.3102   57.4723 N   0  0  2  0  0  0
   -2.6639   27.6515   56.9597 C   0  0  1  0  0  0
   -1.8783   28.5338   57.9759 C   0  0  0  0  0  0
   -0.6701   29.2354   57.3268 C   0  0  0  0  0  0
   -1.4627   27.8034   59.2706 C   0  0  0  0  0  0
   -1.7948   26.0811   56.5108 P   0  0  0  0  0  0
   -0.3783   26.1699   56.1102 O   0  0  0  0  0  0
   -1.9391   25.1345   57.8117 O   0  0  0  0  0  0
   -2.7391   25.3708   55.3690 O   0  0  0  0  0  0
   -5.3235   28.4270   57.2072 S   0  0  0  0  0  0
   -6.0639   27.9127   55.6808 C   0  0  0  0  0  0
   -6.3365   28.1676   58.2269 O   0  0  0  0  0  0
   -4.7695   29.7724   57.0214 O   0  0  0  0  0  0
   -6.3320   26.5623   55.4350 C   0  0  0  0  0  0
   -7.0508   26.2030   54.2962 C   0  0  0  0  0  0
   -7.5074   27.1987   53.4305 C   0  0  0  0  0  0
   -7.1416   28.5253   53.6380 C   0  0  0  0  0  0
   -6.4447   28.8924   54.7735 C   0  0  0  0  0  0
   -8.4894   26.8871   52.3167 C   0  0  0  0  0  0
   -7.8498   26.4550   50.9949 C   0  0  0  0  0  0
   -8.5305   27.0236   49.7593 C   0  0  0  0  0  0
   -9.7396   26.4823   49.3199 C   0  0  0  0  0  0
  -10.3392   26.9702   48.1627 C   0  0  0  0  0  0
   -9.7350   28.0084   47.4563 C   0  0  0  0  0  0
   -8.5354   28.5628   47.8965 C   0  0  0  0  0  0
   -7.9332   28.0689   49.0499 C   0  0  0  0  0  0
   -4.0550   26.7421   58.3230 H   0  0  0  0  0  0
   -2.8015   28.2194   56.0383 H   0  0  0  0  0  0
   -2.5464   29.3406   58.2837 H   0  0  0  0  0  0
    0.1146   28.5317   57.0502 H   0  0  0  0  0  0
   -0.2253   29.9598   58.0101 H   0  0  0  0  0  0
   -0.9610   29.7804   56.4281 H   0  0  0  0  0  0
   -0.6979   27.0491   59.0841 H   0  0  0  0  0  0
   -1.0473   28.5012   59.9984 H   0  0  0  0  0  0
   -2.3104   27.3070   59.7416 H   0  0  0  0  0  0
   -2.8563   24.9698   58.1427 H   0  0  0  0  0  0
   -3.4490   24.7558   55.7101 H   0  0  0  0  0  0
   -6.0245   25.7975   56.1351 H   0  0  0  0  0  0
   -7.2826   25.1653   54.1108 H   0  0  0  0  0  0
   -7.4499   29.2838   52.9446 H   0  0  0  0  0  0
   -6.2351   29.9368   54.9593 H   0  0  0  0  0  0
   -9.1685   26.1114   52.6600 H   0  0  0  0  0  0
   -9.1114   27.7680   52.1802 H   0  0  0  0  0  0
   -6.7866   26.6991   50.9669 H   0  0  0  0  0  0
   -7.9403   25.3725   50.9418 H   0  0  0  0  0  0
  -10.2041   25.6748   49.8660 H   0  0  0  0  0  0
  -11.2746   26.5549   47.8183 H   0  0  0  0  0  0
  -10.2014   28.3906   46.5603 H   0  0  0  0  0  0
   -8.0701   29.3684   47.3463 H   0  0  0  0  0  0
   -6.9989   28.4969   49.3851 H   0  0  0  0  0  0
  1 10  1  0  0  0
  1  2  1  0  0  0
  1 27  1  0  0  0
  2  3  1  0  0  0
  2  6  1  0  0  0
  2 28  1  0  0  0
  3  4  1  0  0  0
  3  5  1  0  0  0
  3 29  1  0  0  0
  4 30  1  0  0  0
  4 31  1  0  0  0
  4 32  1  0  0  0
  5 33  1  0  0  0
  5 34  1  0  0  0
  5 35  1  0  0  0
  6  7  2  0  0  0
  6  8  1  0  0  0
  6  9  1  0  0  0
  8 36  1  0  0  0
  9 37  1  0  0  0
 10 11  1  0  0  0
 10 12  2  0  0  0
 10 13  2  0  0  0
 11 14  2  0  0  0
 11 18  1  0  0  0
 14 15  1  0  0  0
 14 38  1  0  0  0
 15 16  2  0  0  0
 15 39  1  0  0  0
 16 17  1  0  0  0
 16 19  1  0  0  0
 17 18  2  0  0  0
 17 40  1  0  0  0
 18 41  1  0  0  0
 19 20  1  0  0  0
 19 42  1  0  0  0
 19 43  1  0  0  0
 20 21  1  0  0  0
 20 44  1  0  0  0
 20 45  1  0  0  0
 21 22  2  0  0  0
 21 26  1  0  0  0
 22 23  1  0  0  0
 22 46  1  0  0  0
 23 24  2  0  0  0
 23 47  1  0  0  0
 24 25  1  0  0  0
 24 48  1  0  0  0
 25 26  2  0  0  0
 25 49  1  0  0  0
 26 50  1  0  0  0
M  END
> <s_m_entry_id>
64074

> <s_m_entry_name>
dock_pv.24

> <s_m_Source_Path>
/home/csk/Desktop/cluster/DUD-E-result/mmp13

> <s_m_Source_File>
dock_pv.maegz

> <i_m_Source_File_Index>
24

> <chembl_id>
CHEMBL227553

> <chembl_pref_name>
None

> <i_lp_mmshare_version>
53161

> <i_f3d_flags>
0

> <r_lp_tautomer_probability>
1

> <s_lp_Force_Field>
OPLS_2005

> <r_lp_Energy>
-2.159031

> <b_lp_Chiralities_Consistent>
1

> <s_lp_Variant>
CHEMBL280_lig1124-1

> <s_i_glide_gridfile>
glide-grid_830c

> <i_i_glide_lignum>
1809

> <i_i_glide_rotatable_bonds>
10

> <r_i_docking_score>
-8.61361919075808

> <r_i_glide_ligand_efficiency>
-0.331293045798388

> <r_i_glide_ligand_efficiency_sa>
-0.981454344602536

> <r_i_glide_ligand_efficiency_ln>
-2.02288020335969

> <r_i_glide_gscore>
-8.61361919075808

> <r_i_glide_lipo>
-3.81748987575265

> <r_i_glide_hbond>
-0.268359458894177

> <r_i_glide_metal>
0

> <r_i_glide_rewards>
-0.186643679489552

> <r_i_glide_evdw>
-29.6415042877197

> <r_i_glide_ecoul>
-24.0340023040771

> <r_i_glide_erotb>
0.867517307871135

> <r_i_glide_esite>
-0.121467924495275

> <r_i_glide_emodel>
-78.3718007340387

> <r_i_glide_energy>
-53.6755065917969

> <r_i_glide_einternal>
8.61275959014893

> <i_i_glide_confnum>
110

> <i_i_glide_posenum>
50

> <r_i_glide_eff_state_penalty>
0

> <s_user_duplicate_titles>
CHEMBL280_lig1124,376969

> <s_m_subgroup_title>
dock_pv

> <s_m_subgroupid>
dock_pv

> <b_m_subgroup_collapsed>
1

$$$$
CHEMBL280_lig249
                    3D
 Schrodinger Suite 2021-1.
 42 44  0  0  1  0            999 V2000
   -4.5448   28.0363   58.2810 C   0  0  0  0  0  0
   -3.2079   27.9839   58.3643 N   0  0  0  0  0  0
   -2.5303   28.4226   57.1425 C   0  0  1  0  0  0
   -4.8603   29.0558   57.1854 C   0  0  1  0  0  0
   -2.3938   27.2599   56.1222 C   0  0  0  0  0  0
   -3.4994   29.4980   56.6569 C   0  0  0  0  0  0
   -5.8128   28.5284   56.1072 C   0  0  0  0  0  0
   -5.3471   27.3701   58.9100 O   0  0  0  0  0  0
   -2.3440   27.4806   54.9100 O   0  0  0  0  0  0
   -2.3316   26.0158   56.6174 N   0  0  0  0  0  0
   -6.6988   29.4419   55.5460 C   0  0  0  0  0  0
   -5.7818   27.2096   55.6197 C   0  0  0  0  0  0
   -8.3224   27.5020   52.9334 O   0  0  0  0  0  0
   -7.4760   27.7622   53.9901 C   0  0  0  0  0  0
   -7.9144   26.5537   51.9569 C   0  0  0  0  0  0
   -6.6029   26.8283   54.5591 C   0  0  0  0  0  0
   -7.5255   29.0476   54.5103 C   0  0  0  0  0  0
   -2.3390   24.9701   55.7081 O   0  0  0  0  0  0
   -8.4855   26.9672   50.6097 C   0  0  0  0  0  0
   -7.7279   27.7699   49.7509 C   0  0  0  0  0  0
   -9.7713   26.5667   50.2391 C   0  0  0  0  0  0
  -10.2965   26.9690   49.0138 C   0  0  0  0  0  0
   -8.2537   28.1688   48.5250 C   0  0  0  0  0  0
   -9.5375   27.7685   48.1623 C   0  0  0  0  0  0
   -2.7364   27.4646   59.0907 H   0  0  0  0  0  0
   -1.5358   28.8132   57.3623 H   0  0  0  0  0  0
   -5.3487   29.8941   57.6847 H   0  0  0  0  0  0
   -3.2161   30.4552   57.0987 H   0  0  0  0  0  0
   -3.4678   29.6826   55.5829 H   0  0  0  0  0  0
   -2.4541   25.7194   57.5782 H   0  0  0  0  0  0
   -6.7432   30.4621   55.8978 H   0  0  0  0  0  0
   -5.1221   26.4721   56.0498 H   0  0  0  0  0  0
   -6.8268   26.4960   51.8668 H   0  0  0  0  0  0
   -8.2663   25.5583   52.2302 H   0  0  0  0  0  0
   -6.5606   25.8116   54.1941 H   0  0  0  0  0  0
   -8.2070   29.7698   54.1102 H   0  0  0  0  0  0
   -3.2047   24.5291   55.8477 H   0  0  0  0  0  0
   -6.7393   28.0998   50.0331 H   0  0  0  0  0  0
  -10.3609   25.9483   50.8989 H   0  0  0  0  0  0
  -11.2916   26.6677   48.7210 H   0  0  0  0  0  0
   -7.6679   28.7939   47.8645 H   0  0  0  0  0  0
   -9.9479   28.0836   47.2131 H   0  0  0  0  0  0
  1  2  1  0  0  0
  1  4  1  0  0  0
  1  8  2  0  0  0
  2  3  1  0  0  0
  2 25  1  0  0  0
  3  5  1  0  0  0
  3  6  1  0  0  0
  3 26  1  0  0  0
  4  6  1  0  0  0
  4  7  1  0  0  0
  4 27  1  0  0  0
  5  9  2  0  0  0
  5 10  1  0  0  0
  6 28  1  0  0  0
  6 29  1  0  0  0
  7 11  2  0  0  0
  7 12  1  0  0  0
 10 18  1  0  0  0
 10 30  1  0  0  0
 11 17  1  0  0  0
 11 31  1  0  0  0
 12 16  2  0  0  0
 12 32  1  0  0  0
 13 14  1  0  0  0
 13 15  1  0  0  0
 14 16  1  0  0  0
 14 17  2  0  0  0
 15 19  1  0  0  0
 15 33  1  0  0  0
 15 34  1  0  0  0
 16 35  1  0  0  0
 17 36  1  0  0  0
 18 37  1  0  0  0
 19 20  2  0  0  0
 19 21  1  0  0  0
 20 23  1  0  0  0
 20 38  1  0  0  0
 21 22  2  0  0  0
 21 39  1  0  0  0
 22 24  1  0  0  0
 22 40  1  0  0  0
 23 24  2  0  0  0
 23 41  1  0  0  0
 24 42  1  0  0  0
M  END
> <s_m_entry_id>
64075

> <s_m_entry_name>
dock_pv.25

> <s_m_Source_Path>
/home/csk/Desktop/cluster/DUD-E-result/mmp13

> <s_m_Source_File>
dock_pv.maegz

> <i_m_Source_File_Index>
25

> <chembl_id>
CHEMBL19179

> <chembl_pref_name>
None

> <i_lp_mmshare_version>
53161

> <i_f3d_flags>
0

> <r_lp_tautomer_probability>
1

> <s_lp_Force_Field>
OPLS_2005

> <r_lp_Energy>
43.478621

> <b_lp_Chiralities_Consistent>
1

> <s_lp_Variant>
CHEMBL280_lig249-1

> <s_i_glide_gridfile>
glide-grid_830c

> <i_i_glide_lignum>
346

> <i_i_glide_rotatable_bonds>
7

> <r_i_docking_score>
-8.60399644520615

> <r_i_glide_ligand_efficiency>
-0.35849985188359

> <r_i_glide_ligand_efficiency_sa>
-1.03409251357329

> <r_i_glide_ligand_efficiency_ln>
-2.05933116100843

> <r_i_glide_gscore>
-8.60399644520615

> <r_i_glide_lipo>
-3.48894321756483

> <r_i_glide_hbond>
-0.505019973102378

> <r_i_glide_metal>
0

> <r_i_glide_rewards>
-1.03010616097616

> <r_i_glide_evdw>
-32.7487487792969

> <r_i_glide_ecoul>
-18.6600303649902

> <r_i_glide_erotb>
1.05651490015059

> <r_i_glide_esite>
-0.2

> <r_i_glide_emodel>
-82.9573447641315

> <r_i_glide_energy>
-51.4087791442871

> <r_i_glide_einternal>
5.99606418609619

> <i_i_glide_confnum>
12

> <i_i_glide_posenum>
327

> <r_i_glide_eff_state_penalty>
0

> <s_user_duplicate_titles>
CHEMBL280_lig249,23735

> <s_m_subgroup_title>
dock_pv

> <s_m_subgroupid>
dock_pv

> <b_m_subgroup_collapsed>
1

$$$$
CHEMBL280_lig2571
                    3D
 Schrodinger Suite 2021-1.
 39 40  0  0  1  0            999 V2000
   -4.5534   28.2724   57.6899 S   0  0  0  0  0  0
   -5.6571   27.7700   58.5100 O   0  0  0  0  0  0
   -3.8417   29.4995   58.0589 O   0  0  0  0  0  0
   -1.1984   26.3512   56.6519 C   0  0  0  0  0  0
   -1.9284   27.2374   57.6684 C   0  0  0  0  0  0
   -1.7393   25.7700   55.7100 O   0  0  0  0  0  0
   -3.3863   26.9700   57.5955 N   0  0  1  0  0  0
   -5.1653   28.4420   55.9102 C   0  0  0  0  0  0
   -6.0285   27.2224   55.5004 C   0  0  0  0  0  0
   -6.6435   27.2818   54.0993 C   0  0  0  0  0  0
   -6.1687   28.1501   53.1209 C   0  0  0  0  0  0
   -6.7390   28.1699   51.8539 C   0  0  0  0  0  0
   -7.8037   27.3220   51.5116 C   0  0  0  0  0  0
   -8.2699   26.4510   52.5069 C   0  0  0  0  0  0
   -7.7030   26.4361   53.7802 C   0  0  0  0  0  0
   -8.4423   27.3776   50.1466 C   0  0  0  0  0  0
   -9.7281   26.8576   49.9157 C   0  0  0  0  0  0
  -10.3390   26.9698   48.6688 C   0  0  0  0  0  0
   -9.6767   27.6108   47.6282 C   0  0  0  0  0  0
   -8.4034   28.1308   47.8241 C   0  0  0  0  0  0
   -7.7944   28.0055   49.0687 C   0  0  0  0  0  0
    0.1389   26.3029   56.9100 O   0  0  0  0  0  0
   -1.5830   27.0362   58.6831 H   0  0  0  0  0  0
   -1.7254   28.2889   57.4637 H   0  0  0  0  0  0
   -3.6916   26.0959   58.0503 H   0  0  0  0  0  0
   -5.7389   29.3679   55.8667 H   0  0  0  0  0  0
   -4.2765   28.5514   55.2910 H   0  0  0  0  0  0
   -5.4357   26.3077   55.5636 H   0  0  0  0  0  0
   -6.8453   27.1167   56.2160 H   0  0  0  0  0  0
   -5.3579   28.8228   53.3304 H   0  0  0  0  0  0
   -6.3393   28.8848   51.1539 H   0  0  0  0  0  0
   -9.0812   25.7701   52.3107 H   0  0  0  0  0  0
   -8.0953   25.7700   54.5282 H   0  0  0  0  0  0
  -10.2900   26.3775   50.7008 H   0  0  0  0  0  0
  -11.3305   26.5710   48.5101 H   0  0  0  0  0  0
  -10.1520   27.7040   46.6628 H   0  0  0  0  0  0
   -7.8814   28.6206   47.0140 H   0  0  0  0  0  0
   -6.7990   28.4095   49.1696 H   0  0  0  0  0  0
    0.6569   25.7700   56.2894 H   0  0  0  0  0  0
  1  2  2  0  0  0
  1  3  2  0  0  0
  1  7  1  0  0  0
  1  8  1  0  0  0
  4  5  1  0  0  0
  4  6  2  0  0  0
  4 22  1  0  0  0
  5  7  1  0  0  0
  5 23  1  0  0  0
  5 24  1  0  0  0
  7 25  1  0  0  0
  8  9  1  0  0  0
  8 26  1  0  0  0
  8 27  1  0  0  0
  9 10  1  0  0  0
  9 28  1  0  0  0
  9 29  1  0  0  0
 10 11  2  0  0  0
 10 15  1  0  0  0
 11 12  1  0  0  0
 11 30  1  0  0  0
 12 13  2  0  0  0
 12 31  1  0  0  0
 13 14  1  0  0  0
 13 16  1  0  0  0
 14 15  2  0  0  0
 14 32  1  0  0  0
 15 33  1  0  0  0
 16 17  2  0  0  0
 16 21  1  0  0  0
 17 18  1  0  0  0
 17 34  1  0  0  0
 18 19  2  0  0  0
 18 35  1  0  0  0
 19 20  1  0  0  0
 19 36  1  0  0  0
 20 21  2  0  0  0
 20 37  1  0  0  0
 21 38  1  0  0  0
 22 39  1  0  0  0
M  END
> <s_m_entry_id>
64076

> <s_m_entry_name>
dock_pv.26

> <s_m_Source_Path>
/home/csk/Desktop/cluster/DUD-E-result/mmp13

> <s_m_Source_File>
dock_pv.maegz

> <i_m_Source_File_Index>
26

> <chembl_id>
CHEMBL2385486

> <chembl_pref_name>
None

> <i_lp_mmshare_version>
53161

> <i_f3d_flags>
0

> <r_lp_tautomer_probability>
1

> <s_lp_Force_Field>
OPLS_2005

> <r_lp_Energy>
5.625885

> <b_lp_Chiralities_Consistent>
1

> <s_lp_Variant>
CHEMBL280_lig2571-1

> <s_i_glide_gridfile>
glide-grid_830c

> <i_i_glide_lignum>
3690

> <i_i_glide_rotatable_bonds>
8

> <r_i_docking_score>
-8.58776592875624

> <r_i_glide_ligand_efficiency>
-0.390352996761647

> <r_i_glide_ligand_efficiency_sa>
-1.09378444863835

> <r_i_glide_ligand_efficiency_ln>
-2.0991632393613

> <r_i_glide_gscore>
-8.58776592875624

> <r_i_glide_lipo>
-3.52529697689659

> <r_i_glide_hbond>
-0.316538153162492

> <r_i_glide_metal>
0

> <r_i_glide_rewards>
-1.31485733333333

> <r_i_glide_evdw>
-38.1066818237305

> <r_i_glide_ecoul>
-17.3562259674072

> <r_i_glide_erotb>
1.28043378340996

> <r_i_glide_esite>
-0.202739262476182

> <r_i_glide_emodel>
-84.8473593519817

> <r_i_glide_energy>
-55.4629077911377

> <r_i_glide_einternal>
6.05316352844238

> <i_i_glide_confnum>
132

> <i_i_glide_posenum>
39

> <r_i_glide_eff_state_penalty>
0

> <s_user_duplicate_titles>
CHEMBL280_lig2571

> <s_m_subgroup_title>
dock_pv

> <s_m_subgroupid>
dock_pv

> <b_m_subgroup_collapsed>
1

$$$$
CHEMBL280_lig2320
                    3D
 Schrodinger Suite 2021-1.
 45 48  0  0  1  0            999 V2000
   -4.9239   28.8748   57.0617 C   0  0  0  0  0  0
   -3.5640   29.3312   56.4075 C   0  0  0  0  0  0
   -4.8364   27.4138   57.6122 C   0  0  0  0  0  0
   -2.8403   28.3148   55.8921 N   0  0  0  0  0  0
   -3.9604   26.6286   56.9447 N   0  0  0  0  0  0
   -6.1026   29.0791   56.1503 N   0  0  0  0  0  0
   -2.9387   26.9859   56.1369 C   0  0  0  0  0  0
   -6.7769   30.2418   56.4391 C   0  0  0  0  0  0
   -5.2345   29.8301   58.2386 C   0  0  0  0  0  0
   -6.4867   28.2698   55.0306 C   0  0  0  0  0  0
   -5.5390   26.9700   58.5100 O   0  0  0  0  0  0
   -3.1393   30.4838   56.3688 O   0  0  0  0  0  0
   -6.1118   30.8957   57.6391 C   0  0  0  0  0  0
   -2.1266   26.1700   55.7100 O   0  0  0  0  0  0
   -7.7619   30.7192   55.8705 O   0  0  0  0  0  0
   -6.7377   28.8921   53.8044 C   0  0  0  0  0  0
   -6.6711   26.8778   55.1077 C   0  0  0  0  0  0
   -7.7044   26.0916   51.6643 O   0  0  0  0  0  0
   -7.3165   26.8009   52.7752 C   0  0  0  0  0  0
   -8.9433   26.4518   51.0499 C   0  0  0  0  0  0
   -7.0579   26.1493   53.9800 C   0  0  0  0  0  0
   -7.1389   28.1701   52.6937 C   0  0  0  0  0  0
   -8.8022   27.1930   49.7204 C   0  0  0  0  0  0
   -7.5970   27.7711   49.3102 C   0  0  0  0  0  0
   -9.9392   27.3391   48.9210 C   0  0  0  0  0  0
   -7.5397   28.5166   48.1329 C   0  0  0  0  0  0
   -9.8774   28.0596   47.7310 C   0  0  0  0  0  0
   -8.6782   28.6517   47.3446 C   0  0  0  0  0  0
   -2.0082   28.6129   55.4091 H   0  0  0  0  0  0
   -3.9756   25.6531   57.2214 H   0  0  0  0  0  0
   -4.3560   30.2530   58.7327 H   0  0  0  0  0  0
   -5.8186   29.3622   59.0322 H   0  0  0  0  0  0
   -5.5162   31.7316   57.2692 H   0  0  0  0  0  0
   -6.8393   31.2935   58.3480 H   0  0  0  0  0  0
   -6.6152   29.9577   53.7100 H   0  0  0  0  0  0
   -6.5492   26.3298   56.0272 H   0  0  0  0  0  0
   -9.5390   27.0743   51.7097 H   0  0  0  0  0  0
   -9.5039   25.5304   50.8865 H   0  0  0  0  0  0
   -7.1617   25.0764   54.0426 H   0  0  0  0  0  0
   -7.3157   28.6905   51.7682 H   0  0  0  0  0  0
   -6.6996   27.6622   49.8995 H   0  0  0  0  0  0
  -10.8824   26.9073   49.2245 H   0  0  0  0  0  0
   -6.6087   28.9698   47.8260 H   0  0  0  0  0  0
  -10.7607   28.1717   47.1199 H   0  0  0  0  0  0
   -8.6256   29.2194   46.4266 H   0  0  0  0  0  0
  1  2  1  0  0  0
  1  3  1  0  0  0
  1  6  1  0  0  0
  1  9  1  0  0  0
  2  4  1  0  0  0
  2 12  2  0  0  0
  3  5  1  0  0  0
  3 11  2  0  0  0
  4  7  1  0  0  0
  4 29  1  0  0  0
  5  7  1  0  0  0
  5 30  1  0  0  0
  6  8  1  0  0  0
  6 10  1  0  0  0
  7 14  2  0  0  0
  8 15  2  0  0  0
  8 13  1  0  0  0
  9 13  1  0  0  0
  9 31  1  0  0  0
  9 32  1  0  0  0
 10 16  2  0  0  0
 10 17  1  0  0  0
 13 33  1  0  0  0
 13 34  1  0  0  0
 16 22  1  0  0  0
 16 35  1  0  0  0
 17 21  2  0  0  0
 17 36  1  0  0  0
 18 19  1  0  0  0
 18 20  1  0  0  0
 19 21  1  0  0  0
 19 22  2  0  0  0
 20 23  1  0  0  0
 20 37  1  0  0  0
 20 38  1  0  0  0
 21 39  1  0  0  0
 22 40  1  0  0  0
 23 24  2  0  0  0
 23 25  1  0  0  0
 24 26  1  0  0  0
 24 41  1  0  0  0
 25 27  2  0  0  0
 25 42  1  0  0  0
 26 28  2  0  0  0
 26 43  1  0  0  0
 27 28  1  0  0  0
 27 44  1  0  0  0
 28 45  1  0  0  0
M  END
> <s_m_entry_id>
64077

> <s_m_entry_name>
dock_pv.27

> <s_m_Source_Path>
/home/csk/Desktop/cluster/DUD-E-result/mmp13

> <s_m_Source_File>
dock_pv.maegz

> <i_m_Source_File_Index>
27

> <chembl_id>
CHEMBL181391

> <chembl_pref_name>
None

> <i_lp_mmshare_version>
53161

> <i_f3d_flags>
0

> <r_lp_tautomer_probability>
0.999999998612168

> <s_lp_Force_Field>
OPLS_2005

> <r_lp_Energy>
42.981722

> <b_lp_Chiralities_Consistent>
1

> <s_lp_Variant>
CHEMBL280_lig2320-1

> <s_i_glide_gridfile>
glide-grid_830c

> <i_i_glide_lignum>
3316

> <i_i_glide_rotatable_bonds>
4

> <r_i_docking_score>
-8.58165996413381

> <r_i_glide_ligand_efficiency>
-0.306487855861922

> <r_i_glide_ligand_efficiency_sa>
-0.930677642090394

> <r_i_glide_ligand_efficiency_ln>
-1.98089908820735

> <r_i_glide_gscore>
-8.58165996413381

> <r_i_glide_lipo>
-3.74185916278283

> <r_i_glide_hbond>
-0.804842383690434

> <r_i_glide_metal>
0

> <r_i_glide_rewards>
0.211555246851617

> <r_i_glide_evdw>
-49.2286224365234

> <r_i_glide_ecoul>
-13.6817302703857

> <r_i_glide_erotb>
0.538890191100143

> <r_i_glide_esite>
-0.271713193228277

> <r_i_glide_emodel>
-86.3407578632551

> <r_i_glide_energy>
-62.9103527069092

> <r_i_glide_einternal>
8.5887508392334

> <i_i_glide_confnum>
20

> <i_i_glide_posenum>
254

> <r_i_glide_eff_state_penalty>
0

> <s_user_duplicate_titles>
CHEMBL280_lig2320

> <s_m_subgroup_title>
dock_pv

> <s_m_subgroupid>
dock_pv

> <b_m_subgroup_collapsed>
1

$$$$
CHEMBL280_lig245
                    3D
 Schrodinger Suite 2021-1.
 39 41  0  0  1  0            999 V2000
   -4.9480   27.9581   57.5756 C   0  0  0  0  0  0
   -3.6757   27.6697   57.8755 N   0  0  0  0  0  0
   -2.6637   28.1345   56.9341 C   0  0  1  0  0  0
   -4.9377   28.5835   56.1761 C   0  0  1  0  0  0
   -1.6884   26.9808   56.6098 C   0  0  0  0  0  0
   -3.4743   28.6313   55.7314 C   0  0  0  0  0  0
   -5.8803   27.8924   55.1825 C   0  0  0  0  0  0
   -5.9310   27.7612   58.2788 O   0  0  0  0  0  0
   -1.9390   26.1658   55.7101 O   0  0  0  0  0  0
   -0.6357   26.8745   57.4416 N   0  0  0  0  0  0
   -8.1783   26.0327   52.2224 O   0  0  0  0  0  0
   -5.9535   26.4975   55.0898 C   0  0  0  0  0  0
   -6.6164   28.6737   54.2920 C   0  0  0  0  0  0
   -7.4409   26.6805   53.1939 C   0  0  0  0  0  0
   -8.4922   26.6202   51.0135 C   0  0  0  0  0  0
   -9.2274   27.7328   48.5668 C   0  0  0  0  0  0
   -7.3936   28.0724   53.3105 C   0  0  0  0  0  0
   -6.7396   25.8985   54.1099 C   0  0  0  0  0  0
   -9.5911   28.2798   47.3858 F   0  0  0  0  0  0
    0.2140   25.7710   57.3107 O   0  0  0  0  0  0
   -9.7727   26.4098   50.5043 C   0  0  0  0  0  0
   -7.5674   27.3697   50.2737 C   0  0  0  0  0  0
   -7.9392   27.9305   49.0542 C   0  0  0  0  0  0
  -10.1447   26.9714   49.2856 C   0  0  0  0  0  0
   -3.4344   27.2308   58.7527 H   0  0  0  0  0  0
   -2.1072   28.9509   57.4007 H   0  0  0  0  0  0
   -5.2959   29.6048   56.3208 H   0  0  0  0  0  0
   -3.1926   29.6539   55.4726 H   0  0  0  0  0  0
   -3.3483   28.0292   54.8304 H   0  0  0  0  0  0
   -0.3931   27.4717   58.2213 H   0  0  0  0  0  0
   -5.3893   25.8656   55.7620 H   0  0  0  0  0  0
   -6.5629   29.7519   54.3381 H   0  0  0  0  0  0
   -7.9387   28.6918   52.6205 H   0  0  0  0  0  0
   -6.7716   24.8206   54.0407 H   0  0  0  0  0  0
    0.9804   26.0986   56.8248 H   0  0  0  0  0  0
  -10.4785   25.8112   51.0609 H   0  0  0  0  0  0
   -6.5633   27.5222   50.6416 H   0  0  0  0  0  0
   -7.2275   28.5146   48.4883 H   0  0  0  0  0  0
  -11.1401   26.8236   48.8949 H   0  0  0  0  0  0
  1  2  1  0  0  0
  1  4  1  0  0  0
  1  8  2  0  0  0
  2  3  1  0  0  0
  2 25  1  0  0  0
  3  5  1  0  0  0
  3  6  1  0  0  0
  3 26  1  0  0  0
  4  6  1  0  0  0
  4  7  1  0  0  0
  4 27  1  0  0  0
  5  9  2  0  0  0
  5 10  1  0  0  0
  6 28  1  0  0  0
  6 29  1  0  0  0
  7 12  1  0  0  0
  7 13  2  0  0  0
 10 20  1  0  0  0
 10 30  1  0  0  0
 11 14  1  0  0  0
 11 15  1  0  0  0
 12 18  2  0  0  0
 12 31  1  0  0  0
 13 17  1  0  0  0
 13 32  1  0  0  0
 14 17  2  0  0  0
 14 18  1  0  0  0
 15 21  1  0  0  0
 15 22  2  0  0  0
 16 23  2  0  0  0
 16 19  1  0  0  0
 16 24  1  0  0  0
 17 33  1  0  0  0
 18 34  1  0  0  0
 20 35  1  0  0  0
 21 24  2  0  0  0
 21 36  1  0  0  0
 22 23  1  0  0  0
 22 37  1  0  0  0
 23 38  1  0  0  0
 24 39  1  0  0  0
M  END
> <s_m_entry_id>
64078

> <s_m_entry_name>
dock_pv.28

> <s_m_Source_Path>
/home/csk/Desktop/cluster/DUD-E-result/mmp13

> <s_m_Source_File>
dock_pv.maegz

> <i_m_Source_File_Index>
28

> <chembl_id>
CHEMBL279482

> <chembl_pref_name>
None

> <i_lp_mmshare_version>
53161

> <i_f3d_flags>
0

> <r_lp_tautomer_probability>
1

> <s_lp_Force_Field>
OPLS_2005

> <r_lp_Energy>
39.8068

> <b_lp_Chiralities_Consistent>
1

> <s_lp_Variant>
CHEMBL280_lig245-1

> <s_i_glide_gridfile>
glide-grid_830c

> <i_i_glide_lignum>
342

> <i_i_glide_rotatable_bonds>
6

> <r_i_docking_score>
-8.52737666488625

> <r_i_glide_ligand_efficiency>
-0.355307361036927

> <r_i_glide_ligand_efficiency_sa>
-1.02488377647942

> <r_i_glide_ligand_efficiency_ln>
-2.04099253172525

> <r_i_glide_gscore>
-8.52737666488625

> <r_i_glide_lipo>
-3.17375760501007

> <r_i_glide_hbond>
-0.301320139302346

> <r_i_glide_metal>
0

> <r_i_glide_rewards>
-1.35590211280242

> <r_i_glide_evdw>
-43.5257873535156

> <r_i_glide_ecoul>
-15.0684242248535

> <r_i_glide_erotb>
0.861850605992243

> <r_i_glide_esite>
-0.121694412359844

> <r_i_glide_emodel>
-89.1141266307052

> <r_i_glide_energy>
-58.5942115783691

> <r_i_glide_einternal>
7.4926700592041

> <i_i_glide_confnum>
31

> <i_i_glide_posenum>
359

> <r_i_glide_eff_state_penalty>
0

> <s_user_duplicate_titles>
CHEMBL280_lig245,23946

> <s_m_subgroup_title>
dock_pv

> <s_m_subgroupid>
dock_pv

> <b_m_subgroup_collapsed>
1

$$$$
CHEMBL280_lig412
                    3D
 Schrodinger Suite 2021-1.
 58 60  0  0  1  0            999 V2000
   -4.5725   28.0044   57.9734 S   0  0  0  0  0  0
   -3.1555   26.9740   57.9437 N   0  0  3  0  0  0
   -7.9338   26.7990   52.0167 C   0  0  0  0  0  0
   -1.8524   27.4720   57.4527 C   0  0  2  0  0  0
   -1.2662   26.3609   56.5526 C   0  0  0  0  0  0
   -5.3253   27.9040   56.3534 C   0  0  0  0  0  0
   -7.1726   27.7591   52.5831 N   0  0  0  0  0  0
   -0.2885   27.0851   59.5228 C   0  0  0  0  0  0
    0.3987   26.3080   60.1688 C   0  0  0  0  0  0
   -5.5318   27.3700   58.8769 O   0  0  0  0  0  0
   -4.1343   29.3873   58.1895 O   0  0  0  0  0  0
    1.5404   24.1703   60.0699 N   0  0  0  0  0  0
   -8.4439   27.0755   50.6202 C   0  0  0  0  0  0
   -8.2666   25.7703   52.6018 O   0  0  0  0  0  0
   -1.9391   25.7693   55.7102 O   0  0  0  0  0  0
   -5.7876   29.0588   55.7285 C   0  0  0  0  0  0
   -5.5167   26.6607   55.7526 C   0  0  0  0  0  0
    3.0958   22.0142   58.9889 O   0  0  0  0  0  0
   -9.6919   26.5769   50.2184 C   0  0  0  0  0  0
   -7.7041   27.8516   49.7184 C   0  0  0  0  0  0
   -6.5876   27.7381   53.8648 C   0  0  0  0  0  0
   -0.9835   28.0336   58.6240 C   0  0  0  0  0  0
    1.3135   25.3818   60.8671 C   0  0  0  0  0  0
    0.0735   26.1700   56.7086 O   0  0  0  0  0  0
   -9.4741   27.7035   48.0977 C   0  0  0  0  0  0
   -6.1446   26.5719   54.5098 C   0  0  0  0  0  0
   -6.4133   28.9700   54.4895 C   0  0  0  0  0  0
   -8.2162   28.1697   48.4641 C   0  0  0  0  0  0
  -10.2110   26.9072   48.9679 C   0  0  0  0  0  0
  -10.1975   28.1584   46.3979 Br  0  0  0  0  0  0
    2.4161   24.3561   58.8992 C   0  0  0  0  0  0
    2.0177   23.0578   60.9039 C   0  0  0  0  0  0
    2.2163   21.7641   60.0807 C   0  0  0  0  0  0
    2.5998   23.0307   58.1221 C   0  0  0  0  0  0
   -3.2886   25.9735   58.1441 H   0  0  0  0  0  0
   -2.0693   28.2937   56.7695 H   0  0  0  0  0  0
   -7.0883   28.6226   52.0686 H   0  0  0  0  0  0
   -5.6589   30.0272   56.1913 H   0  0  0  0  0  0
   -5.1757   25.7700   56.2547 H   0  0  0  0  0  0
  -10.2803   25.9582   50.8825 H   0  0  0  0  0  0
   -6.7389   28.2475   49.9873 H   0  0  0  0  0  0
   -1.5821   28.6933   59.2534 H   0  0  0  0  0  0
   -0.1994   28.6642   58.2046 H   0  0  0  0  0  0
    0.8455   25.1359   61.8216 H   0  0  0  0  0  0
    2.2518   25.8940   61.0856 H   0  0  0  0  0  0
    0.5239   25.5587   56.1082 H   0  0  0  0  0  0
   -6.2621   25.5973   54.0586 H   0  0  0  0  0  0
   -6.7420   29.8788   54.0099 H   0  0  0  0  0  0
   -7.6414   28.7846   47.7863 H   0  0  0  0  0  0
  -11.1920   26.5684   48.6719 H   0  0  0  0  0  0
    3.3850   24.7428   59.2197 H   0  0  0  0  0  0
    1.9978   25.1127   58.2355 H   0  0  0  0  0  0
    1.3072   22.8699   61.7101 H   0  0  0  0  0  0
    2.9585   23.3413   61.3750 H   0  0  0  0  0  0
    1.2628   21.3700   59.7222 H   0  0  0  0  0  0
    2.6533   20.9873   60.7092 H   0  0  0  0  0  0
    1.6614   22.7116   57.6649 H   0  0  0  0  0  0
    3.3104   23.1711   57.3080 H   0  0  0  0  0  0
  1  2  1  0  0  0
  1  6  1  0  0  0
  1 10  2  0  0  0
  1 11  2  0  0  0
  2  4  1  0  0  0
  2 35  1  0  0  0
  3  7  1  0  0  0
  3 13  1  0  0  0
  3 14  2  0  0  0
  4  5  1  0  0  0
  4 22  1  0  0  0
  4 36  1  0  0  0
  5 15  2  0  0  0
  5 24  1  0  0  0
  6 16  2  0  0  0
  6 17  1  0  0  0
  7 21  1  0  0  0
  7 37  1  0  0  0
  8 22  1  0  0  0
  8  9  3  0  0  0
  9 23  1  0  0  0
 12 23  1  0  0  0
 12 31  1  0  0  0
 12 32  1  0  0  0
 13 19  1  0  0  0
 13 20  2  0  0  0
 16 27  1  0  0  0
 16 38  1  0  0  0
 17 26  2  0  0  0
 17 39  1  0  0  0
 18 33  1  0  0  0
 18 34  1  0  0  0
 19 29  2  0  0  0
 19 40  1  0  0  0
 20 28  1  0  0  0
 20 41  1  0  0  0
 21 26  1  0  0  0
 21 27  2  0  0  0
 22 42  1  0  0  0
 22 43  1  0  0  0
 23 44  1  0  0  0
 23 45  1  0  0  0
 24 46  1  0  0  0
 25 28  2  0  0  0
 25 30  1  0  0  0
 25 29  1  0  0  0
 26 47  1  0  0  0
 27 48  1  0  0  0
 28 49  1  0  0  0
 29 50  1  0  0  0
 31 34  1  0  0  0
 31 51  1  0  0  0
 31 52  1  0  0  0
 32 33  1  0  0  0
 32 53  1  0  0  0
 32 54  1  0  0  0
 33 55  1  0  0  0
 33 56  1  0  0  0
 34 57  1  0  0  0
 34 58  1  0  0  0
M  END
> <s_m_entry_id>
64079

> <s_m_entry_name>
dock_pv.29

> <s_m_Source_Path>
/home/csk/Desktop/cluster/DUD-E-result/mmp13

> <s_m_Source_File>
dock_pv.maegz

> <i_m_Source_File_Index>
29

> <chembl_id>
CHEMBL10296

> <chembl_pref_name>
None

> <i_lp_mmshare_version>
53161

> <i_f3d_flags>
0

> <r_lp_tautomer_probability>
1

> <s_lp_Force_Field>
OPLS_2005

> <r_lp_Energy>
33.067405

> <b_lp_Chiralities_Consistent>
1

> <s_lp_Variant>
CHEMBL280_lig412-1

> <s_i_glide_gridfile>
glide-grid_830c

> <i_i_glide_lignum>
591

> <i_i_glide_rotatable_bonds>
12

> <r_i_docking_score>
-8.47342979787144

> <r_i_glide_ligand_efficiency>
-0.249218523466807

> <r_i_glide_ligand_efficiency_sa>
-0.80737126877099

> <r_i_glide_ligand_efficiency_ln>
-1.87201831400515

> <r_i_glide_gscore>
-8.47342979787144

> <r_i_glide_lipo>
-3.13697467782332

> <r_i_glide_hbond>
-0.293636868406868

> <r_i_glide_metal>
0

> <r_i_glide_rewards>
0.509945347649781

> <r_i_glide_evdw>
-50.73193359375

> <r_i_glide_ecoul>
-22.6479015350342

> <r_i_glide_erotb>
0.615328901602534

> <r_i_glide_esite>
-0.234310590950939

> <r_i_glide_emodel>
-105.273648518975

> <r_i_glide_energy>
-73.3798351287842

> <r_i_glide_einternal>
9.62319946289062

> <i_i_glide_confnum>
34

> <i_i_glide_posenum>
169

> <r_i_glide_eff_state_penalty>
0

> <s_user_duplicate_titles>
CHEMBL280_lig412,7829

> <s_m_subgroup_title>
dock_pv

> <s_m_subgroupid>
dock_pv

> <b_m_subgroup_collapsed>
1

$$$$
CHEMBL280_lig447
                    3D
 Schrodinger Suite 2021-1.
 49 51  0  0  1  0            999 V2000
   -6.2673   28.0359   53.8879 S   0  0  0  0  0  0
   -5.0628   27.2636   56.3747 C   0  0  1  0  0  0
   -6.1233   26.8057   55.3019 C   0  0  0  0  0  0
   -3.6008   26.7609   56.0322 C   0  0  0  0  0  0
   -7.2219   27.3485   52.5540 C   0  0  0  0  0  0
   -7.0310   29.2030   54.3396 O   0  0  0  0  0  0
   -4.9212   28.1700   53.3363 O   0  0  0  0  0  0
   -5.0909   28.7879   56.7147 C   0  0  0  0  0  0
   -3.1249   26.9557   54.9100 O   0  0  0  0  0  0
   -5.5390   26.5700   57.5665 N   0  0  0  0  0  0
   -2.8532   26.1698   56.9851 N   0  0  0  0  0  0
   -8.3588   26.5697   52.7288 C   0  0  0  0  0  0
   -6.8292   27.7261   51.2795 C   0  0  0  0  0  0
   -9.7131   26.5150   49.3153 O   0  0  0  0  0  0
   -8.8007   26.7224   50.3372 C   0  0  0  0  0  0
   -9.1389   26.2536   51.6103 C   0  0  0  0  0  0
   -7.5743   27.3706   50.1696 C   0  0  0  0  0  0
   -9.7294   27.2145   48.1160 C   0  0  0  0  0  0
   -1.5390   25.7815   56.6769 O   0  0  0  0  0  0
   -3.9850   29.6464   56.5515 C   0  0  0  0  0  0
   -6.2758   29.3447   57.2136 C   0  0  0  0  0  0
  -10.3292   26.5700   47.0327 C   0  0  0  0  0  0
   -9.2127   28.5085   47.9313 C   0  0  0  0  0  0
   -4.0609   30.9906   56.9099 C   0  0  0  0  0  0
   -6.3599   30.6858   57.5714 C   0  0  0  0  0  0
   -9.1652   29.0726   46.6594 C   0  0  0  0  0  0
  -10.3276   27.1511   45.7674 C   0  0  0  0  0  0
   -5.2471   31.5048   57.4219 C   0  0  0  0  0  0
   -9.7255   28.3924   45.5823 C   0  0  0  0  0  0
   -5.8844   25.8365   54.8645 H   0  0  0  0  0  0
   -7.1325   26.7302   55.7074 H   0  0  0  0  0  0
   -5.4722   25.5693   57.4043 H   0  0  0  0  0  0
   -4.9242   26.7841   58.3379 H   0  0  0  0  0  0
   -3.1441   25.9008   57.9191 H   0  0  0  0  0  0
   -8.6719   26.2679   53.7170 H   0  0  0  0  0  0
   -5.9390   28.3106   51.1596 H   0  0  0  0  0  0
  -10.0598   25.7045   51.7344 H   0  0  0  0  0  0
   -7.2052   27.6633   49.1990 H   0  0  0  0  0  0
   -0.9984   26.3982   57.1842 H   0  0  0  0  0  0
   -3.0478   29.3014   56.1441 H   0  0  0  0  0  0
   -7.1388   28.7124   57.3098 H   0  0  0  0  0  0
  -10.7391   25.5820   47.1697 H   0  0  0  0  0  0
   -8.8161   29.0833   48.7546 H   0  0  0  0  0  0
   -3.2041   31.6346   56.7780 H   0  0  0  0  0  0
   -7.2839   31.0855   57.9634 H   0  0  0  0  0  0
   -8.7207   30.0472   46.5151 H   0  0  0  0  0  0
  -10.7669   26.6317   44.9290 H   0  0  0  0  0  0
   -5.3077   32.5478   57.6959 H   0  0  0  0  0  0
   -9.6992   28.8369   44.5975 H   0  0  0  0  0  0
  1  3  1  0  0  0
  1  5  1  0  0  0
  1  6  2  0  0  0
  1  7  2  0  0  0
  2  3  1  0  0  0
  2  4  1  0  0  0
  2  8  1  0  0  0
  2 10  1  0  0  0
  3 30  1  0  0  0
  3 31  1  0  0  0
  4  9  2  0  0  0
  4 11  1  0  0  0
  5 12  1  0  0  0
  5 13  2  0  0  0
  8 20  1  0  0  0
  8 21  2  0  0  0
 10 32  1  0  0  0
 10 33  1  0  0  0
 11 19  1  0  0  0
 11 34  1  0  0  0
 12 16  2  0  0  0
 12 35  1  0  0  0
 13 17  1  0  0  0
 13 36  1  0  0  0
 14 15  1  0  0  0
 14 18  1  0  0  0
 15 17  2  0  0  0
 15 16  1  0  0  0
 16 37  1  0  0  0
 17 38  1  0  0  0
 18 22  2  0  0  0
 18 23  1  0  0  0
 19 39  1  0  0  0
 20 24  2  0  0  0
 20 40  1  0  0  0
 21 25  1  0  0  0
 21 41  1  0  0  0
 22 27  1  0  0  0
 22 42  1  0  0  0
 23 26  2  0  0  0
 23 43  1  0  0  0
 24 28  1  0  0  0
 24 44  1  0  0  0
 25 28  2  0  0  0
 25 45  1  0  0  0
 26 29  1  0  0  0
 26 46  1  0  0  0
 27 29  2  0  0  0
 27 47  1  0  0  0
 28 48  1  0  0  0
 29 49  1  0  0  0
M  END
> <s_m_entry_id>
64080

> <s_m_entry_name>
dock_pv.30

> <s_m_Source_Path>
/home/csk/Desktop/cluster/DUD-E-result/mmp13

> <s_m_Source_File>
dock_pv.maegz

> <i_m_Source_File_Index>
30

> <chembl_id>
CHEMBL93231

> <chembl_pref_name>
None

> <i_lp_mmshare_version>
53161

> <i_f3d_flags>
0

> <r_lp_tautomer_probability>
1

> <s_lp_Force_Field>
OPLS_2005

> <r_lp_Energy>
28.467939

> <b_lp_Chiralities_Consistent>
1

> <s_lp_Variant>
CHEMBL280_lig447-2

> <s_i_glide_gridfile>
glide-grid_830c

> <i_i_glide_lignum>
636

> <i_i_glide_rotatable_bonds>
9

> <r_i_docking_score>
-8.43956703725683

> <r_i_glide_ligand_efficiency>
-0.291019553008856

> <r_i_glide_ligand_efficiency_sa>
-0.894104268309112

> <r_i_glide_ligand_efficiency_ln>
-1.93244684257695

> <r_i_glide_gscore>
-8.43956703725683

> <r_i_glide_lipo>
-3.62063914851003

> <r_i_glide_hbond>
-0.453787431374737

> <r_i_glide_metal>
0

> <r_i_glide_rewards>
-0.596864317660433

> <r_i_glide_evdw>
-46.8481216430664

> <r_i_glide_ecoul>
-13.4341249465942

> <r_i_glide_erotb>
0.811376648910086

> <r_i_glide_esite>
-0.222127964479261

> <r_i_glide_emodel>
-82.3864701624131

> <r_i_glide_energy>
-60.2822465896606

> <r_i_glide_einternal>
13.0643663406372

> <i_i_glide_confnum>
27

> <i_i_glide_posenum>
366

> <r_i_glide_eff_state_penalty>
0

> <s_user_duplicate_titles>
CHEMBL280_lig447,148995

> <s_m_subgroup_title>
dock_pv

> <s_m_subgroupid>
dock_pv

> <b_m_subgroup_collapsed>
1

$$$$
CHEMBL280_lig2629
                    3D
 Schrodinger Suite 2021-1.
 58 59  0  0  1  0            999 V2000
   -6.5817   33.0594   56.4854 C   0  0  0  0  0  0
   -7.3422   32.0110   57.3199 C   0  0  2  0  0  0
   -7.0030   30.6771   56.8454 N   0  0  0  0  0  0
   -5.9922   29.9270   57.2971 C   0  0  0  0  0  0
   -5.1889   30.2957   58.1553 O   0  0  0  0  0  0
   -5.8636   28.5230   56.6799 C   0  0  2  0  0  0
   -4.4324   27.9718   56.8203 C   0  0  0  0  0  0
   -4.2646   26.5150   56.3679 C   0  0  0  0  0  0
   -2.7918   26.1716   56.2702 C   0  0  0  0  0  0
   -2.1022   26.5700   55.3323 O   0  0  0  0  0  0
   -2.3391   25.3718   57.2778 O   0  0  0  0  0  0
   -6.2760   28.5397   55.2697 N   0  0  0  0  0  0
   -7.0322   27.6058   54.6685 C   0  0  0  0  0  0
   -7.3929   26.5700   55.2290 O   0  0  0  0  0  0
   -7.4457   27.8999   53.2246 C   0  0  0  0  0  0
   -7.7470   26.6395   52.3759 C   0  0  0  0  0  0
   -8.2586   26.9699   50.9802 C   0  0  0  0  0  0
   -7.4815   27.7672   50.1438 C   0  0  0  0  0  0
   -7.9211   28.0864   48.8678 C   0  0  0  0  0  0
   -9.1514   27.6226   48.3899 C   0  0  0  0  0  0
   -9.9349   26.8389   49.2503 C   0  0  0  0  0  0
   -9.4937   26.5051   50.5293 C   0  0  0  0  0  0
   -9.6017   27.9370   46.9950 C   0  0  0  0  0  0
   -9.1399   29.0828   46.3277 C   0  0  0  0  0  0
   -9.5626   29.3761   45.0350 C   0  0  0  0  0  0
  -10.4585   28.5269   44.3929 C   0  0  0  0  0  0
  -10.9182   27.3793   45.0273 C   0  0  0  0  0  0
  -10.4872   27.0844   46.3177 C   0  0  0  0  0  0
   -8.8670   32.1640   57.2187 C   0  0  0  0  0  0
   -9.4166   32.2350   56.1222 O   0  0  0  0  0  0
   -9.5454   32.1620   58.3663 N   0  0  0  0  0  0
   -6.8331   34.0719   56.8031 H   0  0  0  0  0  0
   -5.5025   32.9420   56.5915 H   0  0  0  0  0  0
   -6.8190   32.9802   55.4227 H   0  0  0  0  0  0
   -7.0373   32.1114   58.3647 H   0  0  0  0  0  0
   -7.6369   30.2905   56.1613 H   0  0  0  0  0  0
   -6.5361   27.8853   57.2581 H   0  0  0  0  0  0
   -3.7482   28.6231   56.2706 H   0  0  0  0  0  0
   -4.1230   28.0304   57.8669 H   0  0  0  0  0  0
   -4.8013   25.8219   57.0158 H   0  0  0  0  0  0
   -4.6771   26.3595   55.3734 H   0  0  0  0  0  0
   -3.0471   25.1036   57.8871 H   0  0  0  0  0  0
   -5.9670   29.3469   54.7443 H   0  0  0  0  0  0
   -8.3377   28.5230   53.2692 H   0  0  0  0  0  0
   -6.6750   28.5010   52.7420 H   0  0  0  0  0  0
   -6.8301   26.0592   52.2703 H   0  0  0  0  0  0
   -8.4702   25.9979   52.8848 H   0  0  0  0  0  0
   -6.5258   28.1382   50.4807 H   0  0  0  0  0  0
   -7.2667   28.6799   48.2459 H   0  0  0  0  0  0
  -10.8979   26.4822   48.9287 H   0  0  0  0  0  0
  -10.1157   25.8852   51.1605 H   0  0  0  0  0  0
   -8.4605   29.7710   46.8058 H   0  0  0  0  0  0
   -9.2039   30.2643   44.5361 H   0  0  0  0  0  0
  -10.7953   28.7635   43.3955 H   0  0  0  0  0  0
  -11.6072   26.7208   44.5198 H   0  0  0  0  0  0
  -10.8468   26.1781   46.7790 H   0  0  0  0  0  0
  -10.5533   32.2225   58.3338 H   0  0  0  0  0  0
   -9.0664   32.0302   59.2460 H   0  0  0  0  0  0
  1  2  1  0  0  0
  1 32  1  0  0  0
  1 33  1  0  0  0
  1 34  1  0  0  0
  2  3  1  0  0  0
  2 29  1  0  0  0
  2 35  1  0  0  0
  3  4  1  0  0  0
  3 36  1  0  0  0
  4  5  2  0  0  0
  4  6  1  0  0  0
  6  7  1  0  0  0
  6 12  1  0  0  0
  6 37  1  0  0  0
  7  8  1  0  0  0
  7 38  1  0  0  0
  7 39  1  0  0  0
  8  9  1  0  0  0
  8 40  1  0  0  0
  8 41  1  0  0  0
  9 10  2  0  0  0
  9 11  1  0  0  0
 11 42  1  0  0  0
 12 13  1  0  0  0
 12 43  1  0  0  0
 13 14  2  0  0  0
 13 15  1  0  0  0
 15 16  1  0  0  0
 15 44  1  0  0  0
 15 45  1  0  0  0
 16 17  1  0  0  0
 16 46  1  0  0  0
 16 47  1  0  0  0
 17 18  2  0  0  0
 17 22  1  0  0  0
 18 19  1  0  0  0
 18 48  1  0  0  0
 19 20  2  0  0  0
 19 49  1  0  0  0
 20 21  1  0  0  0
 20 23  1  0  0  0
 21 22  2  0  0  0
 21 50  1  0  0  0
 22 51  1  0  0  0
 23 24  2  0  0  0
 23 28  1  0  0  0
 24 25  1  0  0  0
 24 52  1  0  0  0
 25 26  2  0  0  0
 25 53  1  0  0  0
 26 27  1  0  0  0
 26 54  1  0  0  0
 27 28  2  0  0  0
 27 55  1  0  0  0
 28 56  1  0  0  0
 29 30  2  0  0  0
 29 31  1  0  0  0
 31 57  1  0  0  0
 31 58  1  0  0  0
M  END
> <s_m_entry_id>
64081

> <s_m_entry_name>
dock_pv.31

> <s_m_Source_Path>
/home/csk/Desktop/cluster/DUD-E-result/mmp13

> <s_m_Source_File>
dock_pv.maegz

> <i_m_Source_File_Index>
31

> <chembl_id>
CHEMBL3675549

> <chembl_pref_name>
None

> <i_lp_mmshare_version>
53161

> <i_f3d_flags>
0

> <r_lp_tautomer_probability>
1

> <s_lp_Force_Field>
OPLS_2005

> <r_lp_Energy>
9.611702

> <b_lp_Chiralities_Consistent>
1

> <s_lp_Variant>
CHEMBL280_lig2629-1

> <s_i_glide_gridfile>
glide-grid_830c

> <i_i_glide_lignum>
3754

> <i_i_glide_rotatable_bonds>
14

> <r_i_docking_score>
-8.41384275023421

> <r_i_glide_ligand_efficiency>
-0.27141428226562

> <r_i_glide_ligand_efficiency_sa>
-0.852615574115957

> <r_i_glide_ligand_efficiency_ln>
-1.8975793934911

> <r_i_glide_gscore>
-8.41384275023421

> <r_i_glide_lipo>
-3.70898868011526

> <r_i_glide_hbond>
-0.171982257292373

> <r_i_glide_metal>
0

> <r_i_glide_rewards>
-0.577022195803428

> <r_i_glide_evdw>
-50.9576568603516

> <r_i_glide_ecoul>
-17.4862575531006

> <r_i_glide_erotb>
1.31497185895952

> <r_i_glide_esite>
-0.1

> <r_i_glide_emodel>
-104.350442660923

> <r_i_glide_energy>
-68.4439144134521

> <r_i_glide_einternal>
8.12819576263428

> <i_i_glide_confnum>
20

> <i_i_glide_posenum>
126

> <r_i_glide_eff_state_penalty>
0

> <s_user_duplicate_titles>
CHEMBL280_lig2629

> <s_m_subgroup_title>
dock_pv

> <s_m_subgroupid>
dock_pv

> <b_m_subgroup_collapsed>
1

$$$$
CHEMBL280_lig397
                    3D
 Schrodinger Suite 2021-1.
 44 45  0  0  1  0            999 V2000
   -4.6626   27.8986   57.4111 S   0  0  0  0  0  0
   -3.2302   26.9100   57.5365 N   0  0  1  0  0  0
   -1.8579   27.4636   57.4340 C   0  0  2  0  0  0
   -1.0305   26.4422   56.6073 C   0  0  0  0  0  0
   -5.4163   27.4899   55.8290 C   0  0  0  0  0  0
   -5.5616   27.4390   58.4740 O   0  0  0  0  0  0
   -4.2376   29.3021   57.3316 O   0  0  0  0  0  0
   -6.7877   27.1558   53.3691 C   0  0  0  0  0  0
   -7.5685   27.0601   52.0716 C   0  0  0  0  0  0
   -1.5396   25.7719   55.7100 O   0  0  0  0  0  0
   -4.9970   28.1694   54.6923 C   0  0  0  0  0  0
   -6.4636   26.5738   55.7286 C   0  0  0  0  0  0
   -1.3057   27.7828   58.8610 C   0  0  0  0  0  0
   -7.1498   26.4334   54.5189 C   0  0  0  0  0  0
   -5.6677   27.9954   53.4860 C   0  0  0  0  0  0
   -7.1786   27.7703   50.9280 C   0  0  0  0  0  0
   -8.7390   26.2975   51.9525 C   0  0  0  0  0  0
  -10.7390   26.2160   48.1100 O   0  0  0  0  0  0
   -9.8060   26.9701   48.3723 C   0  0  0  0  0  0
    0.2992   26.4021   56.9100 O   0  0  0  0  0  0
   -9.0553   26.9766   49.6538 C   0  0  0  0  0  0
   -9.4642   26.2330   50.7608 C   0  0  0  0  0  0
   -7.8994   27.7425   49.7412 C   0  0  0  0  0  0
   -0.0523   28.6800   58.8779 C   0  0  0  0  0  0
   -1.1453   26.5717   59.8037 C   0  0  0  0  0  0
   -3.3538   26.0220   58.0425 H   0  0  0  0  0  0
   -1.9125   28.3998   56.8780 H   0  0  0  0  0  0
   -4.1829   28.8790   54.7551 H   0  0  0  0  0  0
   -6.7731   26.0059   56.5926 H   0  0  0  0  0  0
   -2.0772   28.4091   59.3096 H   0  0  0  0  0  0
   -7.9932   25.7699   54.5095 H   0  0  0  0  0  0
   -5.3050   28.5697   52.6530 H   0  0  0  0  0  0
   -6.3389   28.4342   50.9260 H   0  0  0  0  0  0
   -9.1373   25.7700   52.7969 H   0  0  0  0  0  0
   -9.4627   27.7015   47.6394 H   0  0  0  0  0  0
    0.8094   25.8063   56.3416 H   0  0  0  0  0  0
  -10.3602   25.6316   50.7196 H   0  0  0  0  0  0
   -7.5439   28.3356   48.9082 H   0  0  0  0  0  0
    0.8462   28.1581   58.5549 H   0  0  0  0  0  0
    0.1436   29.0488   59.8847 H   0  0  0  0  0  0
   -0.1833   29.5497   58.2362 H   0  0  0  0  0  0
   -0.4094   25.8573   59.4361 H   0  0  0  0  0  0
   -0.8250   26.8890   60.7964 H   0  0  0  0  0  0
   -2.0927   26.0467   59.9267 H   0  0  0  0  0  0
  1  2  1  0  0  0
  1  5  1  0  0  0
  1  6  2  0  0  0
  1  7  2  0  0  0
  2  3  1  0  0  0
  2 26  1  0  0  0
  3  4  1  0  0  0
  3 13  1  0  0  0
  3 27  1  0  0  0
  4 10  2  0  0  0
  4 20  1  0  0  0
  5 11  1  0  0  0
  5 12  2  0  0  0
  8 14  2  0  0  0
  8  9  1  0  0  0
  8 15  1  0  0  0
  9 16  2  0  0  0
  9 17  1  0  0  0
 11 15  2  0  0  0
 11 28  1  0  0  0
 12 14  1  0  0  0
 12 29  1  0  0  0
 13 24  1  0  0  0
 13 25  1  0  0  0
 13 30  1  0  0  0
 14 31  1  0  0  0
 15 32  1  0  0  0
 16 23  1  0  0  0
 16 33  1  0  0  0
 17 22  2  0  0  0
 17 34  1  0  0  0
 18 19  2  0  0  0
 19 21  1  0  0  0
 19 35  1  0  0  0
 20 36  1  0  0  0
 21 22  1  0  0  0
 21 23  2  0  0  0
 22 37  1  0  0  0
 23 38  1  0  0  0
 24 39  1  0  0  0
 24 40  1  0  0  0
 24 41  1  0  0  0
 25 42  1  0  0  0
 25 43  1  0  0  0
 25 44  1  0  0  0
M  END
> <s_m_entry_id>
64082

> <s_m_entry_name>
dock_pv.32

> <s_m_Source_Path>
/home/csk/Desktop/cluster/DUD-E-result/mmp13

> <s_m_Source_File>
dock_pv.maegz

> <i_m_Source_File_Index>
32

> <chembl_id>
CHEMBL46830

> <chembl_pref_name>
None

> <i_lp_mmshare_version>
53161

> <i_f3d_flags>
0

> <r_lp_tautomer_probability>
1

> <s_lp_Force_Field>
OPLS_2005

> <r_lp_Energy>
16.894101

> <b_lp_Chiralities_Consistent>
1

> <s_lp_Variant>
CHEMBL280_lig397-1

> <s_i_glide_gridfile>
glide-grid_830c

> <i_i_glide_lignum>
569

> <i_i_glide_rotatable_bonds>
8

> <r_i_docking_score>
-8.40642129723117

> <r_i_glide_ligand_efficiency>
-0.336256851889247

> <r_i_glide_ligand_efficiency_sa>
-0.983220998464818

> <r_i_glide_ligand_efficiency_ln>
-1.99257376756136

> <r_i_glide_gscore>
-8.40642129723117

> <r_i_glide_lipo>
-3.02485727785128

> <r_i_glide_hbond>
-0.341346052061492

> <r_i_glide_metal>
0

> <r_i_glide_rewards>
-1.0591198719513

> <r_i_glide_evdw>
-39.8706550598145

> <r_i_glide_ecoul>
-16.6983795166016

> <r_i_glide_erotb>
0.734585158217891

> <r_i_glide_esite>
-0.21739357310403

> <r_i_glide_emodel>
-82.0169040112234

> <r_i_glide_energy>
-56.569034576416

> <r_i_glide_einternal>
10.1410226821899

> <i_i_glide_confnum>
111

> <i_i_glide_posenum>
292

> <r_i_glide_eff_state_penalty>
0

> <s_user_duplicate_titles>
CHEMBL280_lig397,66141

> <s_m_subgroup_title>
dock_pv

> <s_m_subgroupid>
dock_pv

> <b_m_subgroup_collapsed>
1

$$$$
CHEMBL280_lig931
                    3D
 Schrodinger Suite 2021-1.
 52 54  0  0  1  0            999 V2000
   -4.0513   26.9761   55.9154 S   0  0  0  0  0  0
   -3.3564   28.7733   56.0859 C   0  0  1  0  0  0
   -4.2277   29.7766   56.9275 C   0  0  2  0  0  0
   -5.7634   29.6181   56.6641 C   0  0  0  0  0  0
   -5.3646   27.0078   54.6753 C   0  0  0  0  0  0
   -2.9775   26.1700   55.3100 O   0  0  0  0  0  0
   -4.6532   26.5702   57.1851 O   0  0  0  0  0  0
   -6.3993   28.7847   57.3100 O   0  0  0  0  0  0
   -6.3390   30.3772   55.7100 N   0  0  0  0  0  0
   -3.8424   31.0884   56.5100 O   0  0  0  0  0  0
   -1.9029   28.7041   56.6246 C   0  0  0  0  0  0
   -8.6768   27.4471   49.0848 C   0  0  0  0  0  0
   -3.9540   29.6289   58.4566 C   0  0  0  0  0  0
   -2.5521   29.6330   58.7328 O   0  0  0  0  0  0
   -7.6923   27.5171   50.2471 C   0  0  0  0  0  0
   -5.1964   27.8211   53.5687 C   0  0  0  0  0  0
   -6.4970   26.1860   54.7442 C   0  0  0  0  0  0
   -8.4334   28.1946   47.9103 C   0  0  0  0  0  0
   -8.0932   26.8625   51.4670 O   0  0  0  0  0  0
   -7.2197   26.9700   52.5468 C   0  0  0  0  0  0
   -7.4170   26.1719   53.6813 C   0  0  0  0  0  0
   -6.1124   27.8256   52.5361 C   0  0  0  0  0  0
   -7.6858   30.1700   55.3845 O   0  0  0  0  0  0
   -1.8549   28.5388   58.1503 C   0  0  0  0  0  0
   -9.8129   26.6372   49.1538 C   0  0  0  0  0  0
   -7.2113   29.0890   47.7533 C   0  0  0  0  0  0
   -9.3259   28.1222   46.8379 C   0  0  0  0  0  0
  -10.6842   26.5700   48.0678 C   0  0  0  0  0  0
  -10.4477   27.3070   46.9127 C   0  0  0  0  0  0
   -3.2870   29.0992   55.0555 H   0  0  0  0  0  0
   -5.8653   31.0073   55.0747 H   0  0  0  0  0  0
   -3.9390   31.1530   55.5520 H   0  0  0  0  0  0
   -1.3929   29.6381   56.3814 H   0  0  0  0  0  0
   -1.3257   27.9195   56.1374 H   0  0  0  0  0  0
   -4.3801   28.7085   58.8620 H   0  0  0  0  0  0
   -4.4173   30.4454   59.0136 H   0  0  0  0  0  0
   -7.5670   28.5700   50.4552 H   0  0  0  0  0  0
   -6.7390   27.1171   49.9040 H   0  0  0  0  0  0
   -4.3390   28.4531   53.4564 H   0  0  0  0  0  0
   -6.6345   25.5277   55.5916 H   0  0  0  0  0  0
   -8.2655   25.5058   53.7100 H   0  0  0  0  0  0
   -5.8932   28.4814   51.7100 H   0  0  0  0  0  0
   -7.6457   29.6031   54.6088 H   0  0  0  0  0  0
   -0.8230   28.5537   58.5027 H   0  0  0  0  0  0
   -2.2817   27.5842   58.4654 H   0  0  0  0  0  0
  -10.0141   26.0458   50.0356 H   0  0  0  0  0  0
   -7.1889   29.5958   46.7893 H   0  0  0  0  0  0
   -7.1997   29.8648   48.5100 H   0  0  0  0  0  0
   -6.2899   28.5217   47.8583 H   0  0  0  0  0  0
   -9.1454   28.6896   45.9359 H   0  0  0  0  0  0
  -11.5457   25.9355   48.1100 H   0  0  0  0  0  0
  -11.1310   27.2465   46.0786 H   0  0  0  0  0  0
  1  2  1  0  0  0
  1  5  1  0  0  0
  1  6  2  0  0  0
  1  7  2  0  0  0
  2  3  1  0  0  0
  2 11  1  0  0  0
  2 30  1  0  0  0
  3  4  1  0  0  0
  3 10  1  0  0  0
  3 13  1  0  0  0
  4  8  2  0  0  0
  4  9  1  0  0  0
  5 16  2  0  0  0
  5 17  1  0  0  0
  9 23  1  0  0  0
  9 31  1  0  0  0
 10 32  1  0  0  0
 11 24  1  0  0  0
 11 33  1  0  0  0
 11 34  1  0  0  0
 12 15  1  0  0  0
 12 18  2  0  0  0
 12 25  1  0  0  0
 13 14  1  0  0  0
 13 35  1  0  0  0
 13 36  1  0  0  0
 14 24  1  0  0  0
 15 19  1  0  0  0
 15 37  1  0  0  0
 15 38  1  0  0  0
 16 22  1  0  0  0
 16 39  1  0  0  0
 17 21  2  0  0  0
 17 40  1  0  0  0
 18 26  1  0  0  0
 18 27  1  0  0  0
 19 20  1  0  0  0
 20 21  1  0  0  0
 20 22  2  0  0  0
 21 41  1  0  0  0
 22 42  1  0  0  0
 23 43  1  0  0  0
 24 44  1  0  0  0
 24 45  1  0  0  0
 25 28  2  0  0  0
 25 46  1  0  0  0
 26 47  1  0  0  0
 26 48  1  0  0  0
 26 49  1  0  0  0
 27 29  2  0  0  0
 27 50  1  0  0  0
 28 29  1  0  0  0
 28 51  1  0  0  0
 29 52  1  0  0  0
M  END
> <s_m_entry_id>
64083

> <s_m_entry_name>
dock_pv.33

> <s_m_Source_Path>
/home/csk/Desktop/cluster/DUD-E-result/mmp13

> <s_m_Source_File>
dock_pv.maegz

> <i_m_Source_File_Index>
33

> <chembl_id>
CHEMBL183935

> <chembl_pref_name>
None

> <i_lp_mmshare_version>
53161

> <i_f3d_flags>
0

> <r_lp_tautomer_probability>
1

> <s_lp_Force_Field>
OPLS_2005

> <r_lp_Energy>
36.227766

> <b_lp_Chiralities_Consistent>
1

> <s_lp_Variant>
CHEMBL280_lig931-1

> <s_i_glide_gridfile>
glide-grid_830c

> <i_i_glide_lignum>
1578

> <i_i_glide_rotatable_bonds>
9

> <r_i_docking_score>
-8.36071819398873

> <r_i_glide_ligand_efficiency>
-0.288300627378922

> <r_i_glide_ligand_efficiency_sa>
-0.885750867357852

> <r_i_glide_ligand_efficiency_ln>
-1.9143924569027

> <r_i_glide_gscore>
-8.36071819398873

> <r_i_glide_lipo>
-3.69699113234204

> <r_i_glide_hbond>
-0.227877762221723

> <r_i_glide_metal>
0

> <r_i_glide_rewards>
-0.533044461218763

> <r_i_glide_evdw>
-43.9944000244141

> <r_i_glide_ecoul>
-14.7850208282471

> <r_i_glide_erotb>
0.780328054856676

> <r_i_glide_esite>
-0.265659767605114

> <r_i_glide_emodel>
-85.0010159708221

> <r_i_glide_energy>
-58.7794208526611

> <r_i_glide_einternal>
14.4653701782227

> <i_i_glide_confnum>
83

> <i_i_glide_posenum>
378

> <r_i_glide_eff_state_penalty>
0

> <s_user_duplicate_titles>
CHEMBL280_lig931,308192

> <s_m_subgroup_title>
dock_pv

> <s_m_subgroupid>
dock_pv

> <b_m_subgroup_collapsed>
1

$$$$
CHEMBL280_lig596
                    3D
 Schrodinger Suite 2021-1.
 43 45  0  0  1  0            999 V2000
   -4.0180   27.3399   55.4249 S   0  0  0  0  0  0
   -4.7089   27.4161   57.2009 C   0  0  2  0  0  0
   -5.4838   27.1146   54.3764 C   0  0  0  0  0  0
   -3.1396   26.1664   55.3099 O   0  0  0  0  0  0
   -3.4265   28.6208   55.0512 O   0  0  0  0  0  0
   -5.8921   28.4088   57.3084 C   0  0  0  0  0  0
   -8.8052   26.1872   51.3474 S   0  0  0  0  0  0
   -6.3066   26.0004   54.5166 C   0  0  0  0  0  0
   -5.8094   28.0661   53.4079 C   0  0  0  0  0  0
   -7.5709   26.6581   52.5537 C   0  0  0  0  0  0
   -5.4637   29.8864   57.2129 C   0  0  1  0  0  0
   -6.8722   31.0233   57.3129 S   0  0  0  0  0  0
   -8.7314   27.2283   49.9043 C   0  0  0  0  0  0
   -6.8496   27.8503   52.5066 C   0  0  0  0  0  0
   -7.3319   25.7709   53.6027 C   0  0  0  0  0  0
   -3.5773   27.7710   58.1920 C   0  0  0  0  0  0
   -3.1462   29.2534   58.1159 C   0  0  0  0  0  0
   -4.3459   30.2193   58.2231 C   0  0  0  0  0  0
   -9.9149   27.4186   49.1890 C   0  0  0  0  0  0
   -7.5389   27.7706   49.4211 C   0  0  0  0  0  0
   -7.5390   28.5484   48.2644 C   0  0  0  0  0  0
   -9.9109   28.1691   48.0153 C   0  0  0  0  0  0
   -8.7256   28.7448   47.5658 C   0  0  0  0  0  0
   -5.0474   26.3885   57.3405 H   0  0  0  0  0  0
   -6.6618   28.1852   56.5696 H   0  0  0  0  0  0
   -6.3652   28.2633   58.2780 H   0  0  0  0  0  0
   -6.1200   25.2911   55.3049 H   0  0  0  0  0  0
   -5.2369   28.9693   53.3314 H   0  0  0  0  0  0
   -5.1328   30.1164   56.1989 H   0  0  0  0  0  0
   -7.1337   30.8287   58.6144 H   0  0  0  0  0  0
   -7.0607   28.6074   51.7705 H   0  0  0  0  0  0
   -7.9272   24.8795   53.6877 H   0  0  0  0  0  0
   -3.9259   27.5638   59.2052 H   0  0  0  0  0  0
   -2.7190   27.1159   58.0364 H   0  0  0  0  0  0
   -2.4306   29.4679   58.9092 H   0  0  0  0  0  0
   -2.6009   29.4450   57.1933 H   0  0  0  0  0  0
   -4.0063   31.2460   58.0773 H   0  0  0  0  0  0
   -4.7519   30.1773   59.2361 H   0  0  0  0  0  0
  -10.8387   26.9729   49.5306 H   0  0  0  0  0  0
   -6.5975   27.5755   49.9082 H   0  0  0  0  0  0
   -6.6148   28.9689   47.8971 H   0  0  0  0  0  0
  -10.8230   28.3055   47.4548 H   0  0  0  0  0  0
   -8.7192   29.3335   46.6597 H   0  0  0  0  0  0
  1  2  1  0  0  0
  1  3  1  0  0  0
  1  4  2  0  0  0
  1  5  2  0  0  0
  2  6  1  0  0  0
  2 16  1  0  0  0
  2 24  1  0  0  0
  3  8  2  0  0  0
  3  9  1  0  0  0
  6 11  1  0  0  0
  6 25  1  0  0  0
  6 26  1  0  0  0
  7 10  1  0  0  0
  7 13  1  0  0  0
  8 15  1  0  0  0
  8 27  1  0  0  0
  9 14  2  0  0  0
  9 28  1  0  0  0
 10 14  1  0  0  0
 10 15  2  0  0  0
 11 12  1  0  0  0
 11 18  1  0  0  0
 11 29  1  0  0  0
 12 30  1  0  0  0
 13 19  2  0  0  0
 13 20  1  0  0  0
 14 31  1  0  0  0
 15 32  1  0  0  0
 16 17  1  0  0  0
 16 33  1  0  0  0
 16 34  1  0  0  0
 17 18  1  0  0  0
 17 35  1  0  0  0
 17 36  1  0  0  0
 18 37  1  0  0  0
 18 38  1  0  0  0
 19 22  1  0  0  0
 19 39  1  0  0  0
 20 21  2  0  0  0
 20 40  1  0  0  0
 21 23  1  0  0  0
 21 41  1  0  0  0
 22 23  2  0  0  0
 22 42  1  0  0  0
 23 43  1  0  0  0
M  END
> <s_m_entry_id>
64085

> <s_m_entry_name>
dock_pv.35

> <s_m_Source_Path>
/home/csk/Desktop/cluster/DUD-E-result/mmp13

> <s_m_Source_File>
dock_pv.maegz

> <i_m_Source_File_Index>
35

> <chembl_id>
CHEMBL300697

> <chembl_pref_name>
None

> <i_lp_mmshare_version>
53161

> <i_f3d_flags>
0

> <r_lp_tautomer_probability>
1

> <s_lp_Force_Field>
OPLS_2005

> <r_lp_Energy>
9.627463

> <b_lp_Chiralities_Consistent>
1

> <s_lp_Variant>
CHEMBL280_lig596-3

> <s_i_glide_gridfile>
glide-grid_830c

> <i_i_glide_lignum>
859

> <i_i_glide_rotatable_bonds>
5

> <r_i_docking_score>
-8.3122527410765

> <r_i_glide_ligand_efficiency>
-0.361402293090282

> <r_i_glide_ligand_efficiency_sa>
-1.02778004668789

> <r_i_glide_ligand_efficiency_ln>
-2.00997808413303

> <r_i_glide_gscore>
-8.3122527410765

> <r_i_glide_lipo>
-3.84088219640455

> <r_i_glide_hbond>
-0.317011050155452

> <r_i_glide_metal>
0

> <r_i_glide_rewards>
-0.969305215099206

> <r_i_glide_evdw>
-46.0775947570801

> <r_i_glide_ecoul>
-7.76847314834595

> <r_i_glide_erotb>
0.578682482464492

> <r_i_glide_esite>
-0.294586051775886

> <r_i_glide_emodel>
-76.7634968625497

> <r_i_glide_energy>
-53.846067905426

> <r_i_glide_einternal>
2.14835667610168

> <i_i_glide_confnum>
32

> <i_i_glide_posenum>
189

> <r_i_glide_eff_state_penalty>
0

> <s_user_duplicate_titles>
CHEMBL280_lig596,75739

> <s_m_subgroup_title>
dock_pv

> <s_m_subgroupid>
dock_pv

> <b_m_subgroup_collapsed>
1

$$$$
CHEMBL280_lig2551
                    3D
 Schrodinger Suite 2021-1.
 45 46  0  0  1  0            999 V2000
   -2.6155   26.5701   55.3100 O   0  0  0  0  0  0
   -2.9199   27.7703   56.1097 S   0  0  0  0  0  0
   -2.3966   29.0601   55.6524 O   0  0  0  0  0  0
   -4.8254   27.9130   56.3110 C   0  0  2  0  0  0
   -5.2553   26.6399   57.0877 C   0  0  0  0  0  0
   -8.7205   26.2063   51.4568 C   0  0  0  0  0  0
   -8.2293   27.1060   50.4966 C   0  0  0  0  0  0
   -7.1401   27.9011   50.8649 C   0  0  0  0  0  0
   -6.6063   27.8753   52.1415 C   0  0  0  0  0  0
   -7.1382   27.0205   53.1035 C   0  0  0  0  0  0
   -8.1826   26.1711   52.7447 C   0  0  0  0  0  0
   -6.6200   26.9899   54.5398 C   0  0  0  0  0  0
   -5.4089   27.9110   54.8430 C   0  0  0  0  0  0
   -5.2664   29.1911   57.0803 C   0  0  0  0  0  0
   -4.9943   30.3818   56.5101 N   0  0  0  0  0  0
   -5.8260   29.0891   58.1758 O   0  0  0  0  0  0
   -2.2505   27.4655   57.8409 C   0  0  0  0  0  0
   -8.8622   27.2746   49.1414 C   0  0  0  0  0  0
   -8.2100   27.9756   48.1096 C   0  0  0  0  0  0
   -8.8110   28.1748   46.8716 C   0  0  0  0  0  0
  -10.0749   27.6544   46.6295 C   0  0  0  0  0  0
  -10.7391   26.9502   47.6258 C   0  0  0  0  0  0
  -10.1437   26.7726   48.8718 C   0  0  0  0  0  0
   -5.3785   31.5536   57.1803 O   0  0  0  0  0  0
   -6.3377   26.5128   57.1372 H   0  0  0  0  0  0
   -4.8582   25.7693   56.5840 H   0  0  0  0  0  0
   -4.8846   26.6228   58.1115 H   0  0  0  0  0  0
   -9.5346   25.5352   51.2307 H   0  0  0  0  0  0
   -6.7391   28.6313   50.1867 H   0  0  0  0  0  0
   -5.7972   28.5556   52.3539 H   0  0  0  0  0  0
   -8.5836   25.4914   53.4795 H   0  0  0  0  0  0
   -6.3558   25.9535   54.7547 H   0  0  0  0  0  0
   -7.4491   27.2516   55.1975 H   0  0  0  0  0  0
   -5.6743   28.9215   54.5294 H   0  0  0  0  0  0
   -4.6310   27.6195   54.1383 H   0  0  0  0  0  0
   -4.5473   30.5621   55.6140 H   0  0  0  0  0  0
   -1.1633   27.5001   57.8013 H   0  0  0  0  0  0
   -2.6243   28.2452   58.5031 H   0  0  0  0  0  0
   -2.5809   26.4854   58.1835 H   0  0  0  0  0  0
   -7.2140   28.3717   48.2287 H   0  0  0  0  0  0
   -8.2852   28.7158   46.0972 H   0  0  0  0  0  0
  -10.5427   27.8028   45.6673 H   0  0  0  0  0  0
  -11.7328   26.5701   47.4458 H   0  0  0  0  0  0
  -10.7097   26.2537   49.6275 H   0  0  0  0  0  0
   -4.5525   31.9028   57.5249 H   0  0  0  0  0  0
  1  2  2  0  0  0
  2 17  1  0  0  0
  2  3  2  0  0  0
  2  4  1  0  0  0
  4 13  1  0  0  0
  4  5  1  0  0  0
  4 14  1  0  0  0
  5 25  1  0  0  0
  5 26  1  0  0  0
  5 27  1  0  0  0
  6  7  2  0  0  0
  6 11  1  0  0  0
  6 28  1  0  0  0
  7  8  1  0  0  0
  7 18  1  0  0  0
  8  9  2  0  0  0
  8 29  1  0  0  0
  9 10  1  0  0  0
  9 30  1  0  0  0
 10 11  2  0  0  0
 10 12  1  0  0  0
 11 31  1  0  0  0
 12 13  1  0  0  0
 12 32  1  0  0  0
 12 33  1  0  0  0
 13 34  1  0  0  0
 13 35  1  0  0  0
 14 15  1  0  0  0
 14 16  2  0  0  0
 15 24  1  0  0  0
 15 36  1  0  0  0
 17 37  1  0  0  0
 17 38  1  0  0  0
 17 39  1  0  0  0
 18 19  2  0  0  0
 18 23  1  0  0  0
 19 20  1  0  0  0
 19 40  1  0  0  0
 20 21  2  0  0  0
 20 41  1  0  0  0
 21 22  1  0  0  0
 21 42  1  0  0  0
 22 23  2  0  0  0
 22 43  1  0  0  0
 23 44  1  0  0  0
 24 45  1  0  0  0
M  END
> <s_m_entry_id>
64086

> <s_m_entry_name>
dock_pv.36

> <s_m_Source_Path>
/home/csk/Desktop/cluster/DUD-E-result/mmp13

> <s_m_Source_File>
dock_pv.maegz

> <i_m_Source_File_Index>
36

> <chembl_id>
CHEMBL1956115

> <chembl_pref_name>
None

> <i_lp_mmshare_version>
53161

> <i_f3d_flags>
0

> <r_lp_tautomer_probability>
1

> <s_lp_Force_Field>
OPLS_2005

> <r_lp_Energy>
21.046691

> <b_lp_Chiralities_Consistent>
1

> <s_lp_Variant>
CHEMBL280_lig2551-1

> <s_i_glide_gridfile>
glide-grid_830c

> <i_i_glide_lignum>
3669

> <i_i_glide_rotatable_bonds>
8

> <r_i_docking_score>
-8.29783283087278

> <r_i_glide_ligand_efficiency>
-0.345743034619699

> <r_i_glide_ligand_efficiency_sa>
-0.997295485177595

> <r_i_glide_ligand_efficiency_ln>
-1.98605215916563

> <r_i_glide_gscore>
-8.29783283087278

> <r_i_glide_lipo>
-3.7515910521452

> <r_i_glide_hbond>
-0.32

> <r_i_glide_metal>
0

> <r_i_glide_rewards>
-1.08469119790623

> <r_i_glide_evdw>
-41.9007911682129

> <r_i_glide_ecoul>
-11.6569929122925

> <r_i_glide_erotb>
0.945639746393244

> <r_i_glide_esite>
-0.24360183196008

> <r_i_glide_emodel>
-82.0945872600384

> <r_i_glide_energy>
-53.5577840805054

> <r_i_glide_einternal>
8.40354061126709

> <i_i_glide_confnum>
67

> <i_i_glide_posenum>
303

> <r_i_glide_eff_state_penalty>
0

> <s_user_duplicate_titles>
CHEMBL280_lig2551

> <s_m_subgroup_title>
dock_pv

> <s_m_subgroupid>
dock_pv

> <b_m_subgroup_collapsed>
1

$$$$
CHEMBL280_lig112
                    3D
 Schrodinger Suite 2021-1.
 55 59  0  0  1  0            999 V2000
   -6.3055   31.9980   57.5173 C   0  0  0  0  0  0
   -5.1255   30.0959   58.1805 N   0  0  0  0  0  0
   -6.1134   30.5745   57.3489 C   0  0  0  0  0  0
   -4.2133   30.9295   58.9124 N   0  0  2  0  0  0
   -5.6339   32.7968   58.4439 C   0  0  0  0  0  0
   -3.6756   26.7953   56.8382 C   0  0  2  0  0  0
   -4.6708   32.2742   59.2760 N   0  0  0  0  0  0
   -4.3226   26.9977   55.4364 C   0  0  1  0  0  0
   -3.5132   28.2202   57.4370 C   0  0  2  0  0  0
   -4.7832   28.6622   58.2365 C   0  0  0  0  0  0
   -7.4587   32.9183   56.5905 S   0  0  0  0  0  0
   -2.3035   26.0802   56.7323 C   0  0  0  0  0  0
   -6.1314   26.7127   55.4591 S   0  0  0  0  0  0
   -6.0516   34.1303   58.4044 C   0  0  0  0  0  0
   -7.0356   34.3610   57.4506 C   0  0  0  0  0  0
   -6.7433   29.8416   56.5857 O   0  0  0  0  0  0
   -3.9559   28.4386   55.0506 C   0  0  0  0  0  0
   -3.1524   29.0578   56.1946 C   0  0  0  0  0  0
   -8.6683   27.2342   49.9199 C   0  0  0  0  0  0
   -8.0452   27.1238   51.2875 C   0  0  0  0  0  0
   -1.6205   26.0782   55.7112 O   0  0  0  0  0  0
   -6.8409   26.9048   53.8387 C   0  0  0  0  0  0
   -9.7349   26.4054   49.5449 C   0  0  0  0  0  0
   -8.2176   28.1698   48.9707 C   0  0  0  0  0  0
   -6.8425   27.7697   51.5901 C   0  0  0  0  0  0
   -8.6521   26.3965   52.3213 C   0  0  0  0  0  0
   -1.9385   25.4475   57.8807 O   0  0  0  0  0  0
   -9.8942   27.4794   47.3933 C   0  0  0  0  0  0
   -6.2374   27.6570   52.8355 C   0  0  0  0  0  0
   -8.0621   26.2981   53.5805 C   0  0  0  0  0  0
  -10.3464   26.5348   48.3039 C   0  0  0  0  0  0
   -8.8203   28.2955   47.7221 C   0  0  0  0  0  0
  -10.6590   27.6237   45.8531 Cl  0  0  0  0  0  0
   -3.3505   31.0297   58.3936 H   0  0  0  0  0  0
   -4.3059   26.1698   57.4586 H   0  0  0  0  0  0
   -4.7448   32.2708   60.2851 H   0  0  0  0  0  0
   -3.9761   26.2826   54.6933 H   0  0  0  0  0  0
   -2.6835   28.2647   58.1484 H   0  0  0  0  0  0
   -4.6602   28.3655   59.2817 H   0  0  0  0  0  0
   -5.6455   28.0724   57.9208 H   0  0  0  0  0  0
   -5.6424   34.8976   59.0447 H   0  0  0  0  0  0
   -7.5230   35.2937   57.2126 H   0  0  0  0  0  0
   -4.8777   28.9922   54.9074 H   0  0  0  0  0  0
   -3.4123   28.4957   54.1118 H   0  0  0  0  0  0
   -3.3521   30.1249   56.2861 H   0  0  0  0  0  0
   -2.0853   28.9670   55.9900 H   0  0  0  0  0  0
  -10.1132   25.6380   50.1988 H   0  0  0  0  0  0
   -7.4073   28.8521   49.1769 H   0  0  0  0  0  0
   -6.3473   28.3653   50.8508 H   0  0  0  0  0  0
   -9.5916   25.8926   52.1744 H   0  0  0  0  0  0
   -2.6811   25.3685   58.4940 H   0  0  0  0  0  0
   -5.3023   28.1635   52.9704 H   0  0  0  0  0  0
   -8.5681   25.7712   54.3730 H   0  0  0  0  0  0
  -11.1611   25.8821   48.0529 H   0  0  0  0  0  0
   -8.4533   29.0282   47.0176 H   0  0  0  0  0  0
  1  3  1  0  0  0
  1  5  2  0  0  0
  1 11  1  0  0  0
  2  3  1  0  0  0
  2 10  1  0  0  0
  2  4  1  0  0  0
  3 16  2  0  0  0
  4  7  1  0  0  0
  4 34  1  0  0  0
  5  7  1  0  0  0
  5 14  1  0  0  0
  6  9  1  0  0  0
  6  8  1  0  0  0
  6 12  1  0  0  0
  6 35  1  0  0  0
  7 36  1  0  0  0
  8 13  1  0  0  0
  8 17  1  0  0  0
  8 37  1  0  0  0
  9 10  1  0  0  0
  9 18  1  0  0  0
  9 38  1  0  0  0
 10 39  1  0  0  0
 10 40  1  0  0  0
 11 15  1  0  0  0
 12 21  2  0  0  0
 12 27  1  0  0  0
 13 22  1  0  0  0
 14 15  2  0  0  0
 14 41  1  0  0  0
 15 42  1  0  0  0
 17 18  1  0  0  0
 17 43  1  0  0  0
 17 44  1  0  0  0
 18 45  1  0  0  0
 18 46  1  0  0  0
 19 20  1  0  0  0
 19 23  2  0  0  0
 19 24  1  0  0  0
 20 26  2  0  0  0
 20 25  1  0  0  0
 22 29  1  0  0  0
 22 30  2  0  0  0
 23 31  1  0  0  0
 23 47  1  0  0  0
 24 32  2  0  0  0
 24 48  1  0  0  0
 25 29  2  0  0  0
 25 49  1  0  0  0
 26 30  1  0  0  0
 26 50  1  0  0  0
 27 51  1  0  0  0
 28 32  1  0  0  0
 28 33  1  0  0  0
 28 31  2  0  0  0
 29 52  1  0  0  0
 30 53  1  0  0  0
 31 54  1  0  0  0
 32 55  1  0  0  0
M  END
> <s_m_entry_id>
64087

> <s_m_entry_name>
dock_pv.37

> <s_m_Source_Path>
/home/csk/Desktop/cluster/DUD-E-result/mmp13

> <s_m_Source_File>
dock_pv.maegz

> <i_m_Source_File_Index>
37

> <chembl_id>
CHEMBL127035

> <chembl_pref_name>
None

> <i_lp_mmshare_version>
53161

> <i_f3d_flags>
0

> <r_lp_tautomer_probability>
1

> <s_lp_Force_Field>
OPLS_2005

> <r_lp_Energy>
46.082045

> <b_lp_Chiralities_Consistent>
1

> <s_lp_Variant>
CHEMBL280_lig112-1

> <s_i_glide_gridfile>
glide-grid_830c

> <i_i_glide_lignum>
136

> <i_i_glide_rotatable_bonds>
7

> <r_i_docking_score>
-8.29332828529192

> <r_i_glide_ligand_efficiency>
-0.251312978342179

> <r_i_glide_ligand_efficiency_sa>
-0.806095004666532

> <r_i_glide_ligand_efficiency_ln>
-1.84439327009319

> <r_i_glide_gscore>
-8.29332828529192

> <r_i_glide_lipo>
-4.22187449364151

> <r_i_glide_hbond>
0

> <r_i_glide_metal>
0

> <r_i_glide_rewards>
-0.0452608765648663

> <r_i_glide_evdw>
-54.6165504455566

> <r_i_glide_ecoul>
-11.2353563308716

> <r_i_glide_erotb>
0.489938056823026

> <r_i_glide_esite>
-0.1

> <r_i_glide_emodel>
-93.7582648115305

> <r_i_glide_energy>
-65.8519067764282

> <r_i_glide_einternal>
8.04952335357666

> <i_i_glide_confnum>
23

> <i_i_glide_posenum>
120

> <r_i_glide_eff_state_penalty>
0

> <s_user_duplicate_titles>
CHEMBL280_lig112,208090

> <s_m_subgroup_title>
dock_pv

> <s_m_subgroupid>
dock_pv

> <b_m_subgroup_collapsed>
1

$$$$
CHEMBL280_lig206
                    3D
 Schrodinger Suite 2021-1.
 44 45  0  0  1  0            999 V2000
   -7.4997   27.4502   53.7943 S   0  0  0  0  0  0
   -5.7290   26.8945   54.0007 C   0  0  0  0  0  0
   -5.1226   27.1169   55.4137 C   0  0  1  0  0  0
   -3.5933   26.9916   55.3096 C   0  0  0  0  0  0
   -5.4494   28.4288   55.9799 N   0  0  0  0  0  0
   -7.8854   27.1442   52.0666 C   0  0  0  0  0  0
   -5.8047   28.6534   57.2561 C   0  0  0  0  0  0
   -8.3393   26.5697   54.6037 O   0  0  0  0  0  0
   -7.5385   28.9016   53.9962 O   0  0  0  0  0  0
   -2.9900   27.7145   54.5116 O   0  0  0  0  0  0
   -2.9967   25.9886   55.9673 N   0  0  0  0  0  0
   -5.9104   27.7689   58.1063 O   0  0  0  0  0  0
   -8.9823   26.3629   51.7074 C   0  0  0  0  0  0
   -7.1391   27.7730   51.0743 C   0  0  0  0  0  0
   -9.3451   27.1327   48.1562 O   0  0  0  0  0  0
   -8.7665   27.1047   49.4128 C   0  0  0  0  0  0
   -9.4314   26.3633   50.3891 C   0  0  0  0  0  0
   -7.5620   27.7359   49.7488 C   0  0  0  0  0  0
   -9.1369   28.1197   47.2071 C   0  0  0  0  0  0
   -1.6318   25.7735   55.7163 O   0  0  0  0  0  0
   -6.0883   30.1016   57.6351 C   0  0  0  0  0  0
   -8.7382   29.4330   47.4983 C   0  0  0  0  0  0
   -9.3953   27.7703   45.8796 C   0  0  0  0  0  0
   -9.1834   28.6837   44.8496 C   0  0  0  0  0  0
   -8.5207   30.3487   46.4715 C   0  0  0  0  0  0
   -8.7390   29.9682   45.1508 C   0  0  0  0  0  0
   -5.1740   27.4223   53.2252 H   0  0  0  0  0  0
   -5.7179   25.8376   53.7465 H   0  0  0  0  0  0
   -5.5200   26.3369   56.0690 H   0  0  0  0  0  0
   -5.3891   29.2095   55.3380 H   0  0  0  0  0  0
   -3.4406   25.2580   56.5240 H   0  0  0  0  0  0
   -9.5390   25.8230   52.4571 H   0  0  0  0  0  0
   -6.2700   28.3624   51.3263 H   0  0  0  0  0  0
  -10.3262   25.8177   50.1297 H   0  0  0  0  0  0
   -6.9682   28.2440   49.0031 H   0  0  0  0  0  0
   -1.2070   26.1253   56.5102 H   0  0  0  0  0  0
   -5.1585   30.6157   57.8806 H   0  0  0  0  0  0
   -6.7402   30.1505   58.5086 H   0  0  0  0  0  0
   -6.5749   30.6326   56.8157 H   0  0  0  0  0  0
   -8.5935   29.7661   48.5130 H   0  0  0  0  0  0
   -9.7256   26.7690   45.6455 H   0  0  0  0  0  0
   -9.3479   28.3964   43.8212 H   0  0  0  0  0  0
   -8.1922   31.3529   46.6987 H   0  0  0  0  0  0
   -8.5589   30.6762   44.3543 H   0  0  0  0  0  0
  1  2  1  0  0  0
  1  6  1  0  0  0
  1  8  2  0  0  0
  1  9  2  0  0  0
  2  3  1  0  0  0
  2 27  1  0  0  0
  2 28  1  0  0  0
  3  4  1  0  0  0
  3  5  1  0  0  0
  3 29  1  0  0  0
  4 10  2  0  0  0
  4 11  1  0  0  0
  5  7  1  0  0  0
  5 30  1  0  0  0
  6 13  2  0  0  0
  6 14  1  0  0  0
  7 12  2  0  0  0
  7 21  1  0  0  0
 11 20  1  0  0  0
 11 31  1  0  0  0
 13 17  1  0  0  0
 13 32  1  0  0  0
 14 18  2  0  0  0
 14 33  1  0  0  0
 15 16  1  0  0  0
 15 19  1  0  0  0
 16 18  1  0  0  0
 16 17  2  0  0  0
 17 34  1  0  0  0
 18 35  1  0  0  0
 19 22  1  0  0  0
 19 23  2  0  0  0
 20 36  1  0  0  0
 21 37  1  0  0  0
 21 38  1  0  0  0
 21 39  1  0  0  0
 22 25  2  0  0  0
 22 40  1  0  0  0
 23 24  1  0  0  0
 23 41  1  0  0  0
 24 26  2  0  0  0
 24 42  1  0  0  0
 25 26  1  0  0  0
 25 43  1  0  0  0
 26 44  1  0  0  0
M  END
> <s_m_entry_id>
64088

> <s_m_entry_name>
dock_pv.38

> <s_m_Source_Path>
/home/csk/Desktop/cluster/DUD-E-result/mmp13

> <s_m_Source_File>
dock_pv.maegz

> <i_m_Source_File_Index>
38

> <chembl_id>
CHEMBL91668

> <chembl_pref_name>
None

> <i_lp_mmshare_version>
53161

> <i_f3d_flags>
0

> <r_lp_tautomer_probability>
1

> <s_lp_Force_Field>
OPLS_2005

> <r_lp_Energy>
16.564534

> <b_lp_Chiralities_Consistent>
1

> <s_lp_Variant>
CHEMBL280_lig206-2

> <s_i_glide_gridfile>
glide-grid_830c

> <i_i_glide_lignum>
276

> <i_i_glide_rotatable_bonds>
10

> <r_i_docking_score>
-8.26184480973807

> <r_i_glide_ligand_efficiency>
-0.317763261913003

> <r_i_glide_ligand_efficiency_sa>
-0.941372413079211

> <r_i_glide_ligand_efficiency_ln>
-1.94026714424303

> <r_i_glide_gscore>
-8.26184480973807

> <r_i_glide_lipo>
-2.96435256039764

> <r_i_glide_hbond>
-0.368021006663247

> <r_i_glide_metal>
0

> <r_i_glide_rewards>
-0.829086565319369

> <r_i_glide_evdw>
-48.4718017578125

> <r_i_glide_ecoul>
-17.0633697509766

> <r_i_glide_erotb>
1.0827108731793

> <r_i_glide_esite>
-0.2

> <r_i_glide_emodel>
-99.3488461066815

> <r_i_glide_energy>
-65.5351715087891

> <r_i_glide_einternal>
9.45692539215088

> <i_i_glide_confnum>
7

> <i_i_glide_posenum>
212

> <r_i_glide_eff_state_penalty>
0

> <s_user_duplicate_titles>
CHEMBL280_lig206

> <s_m_subgroup_title>
dock_pv

> <s_m_subgroupid>
dock_pv

> <b_m_subgroup_collapsed>
1

$$$$
CHEMBL280_lig2103
                    3D
 Schrodinger Suite 2021-1.
 51 52  0  0  1  0            999 V2000
   -5.9358   26.9741   58.5095 O   0  0  0  0  0  0
   -5.1087   27.8462   57.6853 S   0  0  0  0  0  0
   -5.0025   29.2752   57.9985 O   0  0  0  0  0  0
   -2.1818   27.7683   57.6362 C   0  0  2  0  0  0
   -6.7255   26.1914   54.3602 C   0  0  0  0  0  0
   -6.9923   27.2913   53.5413 C   0  0  0  0  0  0
   -6.6637   28.5702   54.0036 C   0  0  0  0  0  0
   -6.0776   28.7575   55.2515 C   0  0  0  0  0  0
   -5.8003   27.6522   56.0490 C   0  0  0  0  0  0
   -6.1307   26.3691   55.6072 C   0  0  0  0  0  0
   -3.5132   27.0916   57.6534 N   0  0  3  0  0  0
   -2.1189   29.0888   56.8120 C   0  0  0  0  0  0
   -2.4572   28.9367   55.3210 C   0  0  0  0  0  0
   -0.8036   29.8681   57.0035 C   0  0  0  0  0  0
   -1.1014   26.4169   56.9720 P   0  0  0  0  0  0
   -7.6214   27.1237   52.2052 C   0  0  0  0  0  0
   -8.7331   26.3005   52.0260 C   0  0  0  0  0  0
   -9.3636   26.2100   50.7877 C   0  0  0  0  0  0
   -8.9088   26.9620   49.7069 C   0  0  0  0  0  0
   -7.7788   27.7699   49.8741 C   0  0  0  0  0  0
   -7.1388   27.8319   51.1066 C   0  0  0  0  0  0
   -9.6400   26.8644   48.5387 O   0  0  0  0  0  0
   -9.3341   27.7219   47.4394 C   0  0  0  0  0  0
  -10.0724   27.2220   46.1906 C   0  0  0  0  0  0
  -11.4002   27.3109   46.2721 F   0  0  0  0  0  0
   -1.5413   25.7703   55.7099 O   0  0  0  0  0  0
    0.4054   26.9977   56.9116 O   0  0  0  0  0  0
   -0.9947   25.3748   58.2047 O   0  0  0  0  0  0
   -1.8968   27.9757   58.6693 H   0  0  0  0  0  0
   -6.9638   25.1907   54.0308 H   0  0  0  0  0  0
   -6.8647   29.4315   53.3868 H   0  0  0  0  0  0
   -5.8352   29.7587   55.5853 H   0  0  0  0  0  0
   -5.9383   25.5066   56.2329 H   0  0  0  0  0  0
   -3.5140   26.1066   57.9509 H   0  0  0  0  0  0
   -2.8647   29.7621   57.2240 H   0  0  0  0  0  0
   -1.6028   28.5709   54.7584 H   0  0  0  0  0  0
   -2.7376   29.9029   54.9096 H   0  0  0  0  0  0
   -3.2892   28.2581   55.1452 H   0  0  0  0  0  0
    0.0401   29.3905   56.5064 H   0  0  0  0  0  0
   -0.8855   30.8721   56.5847 H   0  0  0  0  0  0
   -0.5565   29.9827   58.0603 H   0  0  0  0  0  0
   -9.1379   25.7702   52.8698 H   0  0  0  0  0  0
  -10.2318   25.5827   50.6750 H   0  0  0  0  0  0
   -7.3860   28.3806   49.0745 H   0  0  0  0  0  0
   -6.2984   28.4938   51.2227 H   0  0  0  0  0  0
   -9.6366   28.7429   47.6771 H   0  0  0  0  0  0
   -8.2656   27.7312   47.2235 H   0  0  0  0  0  0
   -9.7773   27.8013   45.3151 H   0  0  0  0  0  0
   -9.8339   26.1776   45.9921 H   0  0  0  0  0  0
    1.0780   26.3623   56.5862 H   0  0  0  0  0  0
   -0.5765   25.7363   59.0102 H   0  0  0  0  0  0
  1  2  2  0  0  0
  2  3  2  0  0  0
  2  9  1  0  0  0
  2 11  1  0  0  0
  4 11  1  0  0  0
  4 12  1  0  0  0
  4 15  1  0  0  0
  4 29  1  0  0  0
  5  6  2  0  0  0
  5 10  1  0  0  0
  5 30  1  0  0  0
  6  7  1  0  0  0
  6 16  1  0  0  0
  7  8  2  0  0  0
  7 31  1  0  0  0
  8  9  1  0  0  0
  8 32  1  0  0  0
  9 10  2  0  0  0
 10 33  1  0  0  0
 11 34  1  0  0  0
 12 13  1  0  0  0
 12 14  1  0  0  0
 12 35  1  0  0  0
 13 36  1  0  0  0
 13 37  1  0  0  0
 13 38  1  0  0  0
 14 39  1  0  0  0
 14 40  1  0  0  0
 14 41  1  0  0  0
 15 26  2  0  0  0
 15 27  1  0  0  0
 15 28  1  0  0  0
 16 17  2  0  0  0
 16 21  1  0  0  0
 17 18  1  0  0  0
 17 42  1  0  0  0
 18 19  2  0  0  0
 18 43  1  0  0  0
 19 20  1  0  0  0
 19 22  1  0  0  0
 20 21  2  0  0  0
 20 44  1  0  0  0
 21 45  1  0  0  0
 22 23  1  0  0  0
 23 24  1  0  0  0
 23 46  1  0  0  0
 23 47  1  0  0  0
 24 25  1  0  0  0
 24 48  1  0  0  0
 24 49  1  0  0  0
 27 50  1  0  0  0
 28 51  1  0  0  0
M  END
> <s_m_entry_id>
64089

> <s_m_entry_name>
dock_pv.39

> <s_m_Source_Path>
/home/csk/Desktop/cluster/DUD-E-result/mmp13

> <s_m_Source_File>
dock_pv.maegz

> <i_m_Source_File_Index>
39

> <chembl_id>
CHEMBL3754243

> <chembl_pref_name>
None

> <i_lp_mmshare_version>
53161

> <i_f3d_flags>
0

> <r_lp_tautomer_probability>
1

> <s_lp_Force_Field>
OPLS_2005

> <r_lp_Energy>
4.784747

> <b_lp_Chiralities_Consistent>
1

> <s_lp_Variant>
CHEMBL280_lig2103-1

> <s_i_glide_gridfile>
glide-grid_830c

> <i_i_glide_lignum>
2910

> <i_i_glide_rotatable_bonds>
11

> <r_i_docking_score>
-8.25839218174315

> <r_i_glide_ligand_efficiency>
-0.294942577919398

> <r_i_glide_ligand_efficiency_sa>
-0.895619378451828

> <r_i_glide_ligand_efficiency_ln>
-1.90627939247706

> <r_i_glide_gscore>
-8.25839218174315

> <r_i_glide_lipo>
-3.30135197866339

> <r_i_glide_hbond>
-0.333454771082996

> <r_i_glide_metal>
0

> <r_i_glide_rewards>
-0.0530023102708347

> <r_i_glide_evdw>
-39.6497459411621

> <r_i_glide_ecoul>
-21.1029014587402

> <r_i_glide_erotb>
0.748053000894809

> <r_i_glide_esite>
-0.170713606751606

> <r_i_glide_emodel>
-87.4884813935015

> <r_i_glide_energy>
-60.7526473999023

> <r_i_glide_einternal>
6.95371866226196

> <i_i_glide_confnum>
20

> <i_i_glide_posenum>
142

> <r_i_glide_eff_state_penalty>
0

> <s_user_duplicate_titles>
CHEMBL280_lig2103

> <s_m_subgroup_title>
dock_pv

> <s_m_subgroupid>
dock_pv

> <b_m_subgroup_collapsed>
1

$$$$
CHEMBL280_lig1541
                    3D
 Schrodinger Suite 2021-1.
 58 61  0  0  1  0            999 V2000
   -4.0185   28.2263   56.8665 C   0  0  0  0  0  0
   -3.7869   29.5447   56.1100 C   0  0  0  0  0  0
   -4.4223   30.8093   56.7088 C   0  0  0  0  0  0
   -3.9322   30.9524   58.0266 O   0  0  0  0  0  0
   -4.2720   29.8579   58.8621 C   0  0  0  0  0  0
   -3.6252   28.5200   58.3500 C   0  0  0  0  0  0
   -6.3681   27.3943   55.1697 C   0  0  0  0  0  0
   -6.5366   28.5142   54.3716 C   0  0  0  0  0  0
   -7.0425   28.3709   53.0975 C   0  0  0  0  0  0
   -7.4585   27.1362   52.6052 C   0  0  0  0  0  0
   -7.2898   26.0083   53.4175 C   0  0  0  0  0  0
   -6.7336   26.1321   54.6943 C   0  0  0  0  0  0
   -8.0201   27.0789   51.3344 N   0  0  0  0  0  0
   -7.4111   27.7606   50.1967 C   0  0  0  0  0  0
   -8.4431   28.3163   49.2046 C   0  0  0  0  0  0
   -9.2413   27.2723   48.5655 N   0  0  0  0  0  0
   -9.8670   26.4662   49.6373 C   0  0  0  0  0  0
   -9.0053   26.0922   50.8831 C   0  0  0  0  0  0
   -9.8603   27.4891   47.3235 C   0  0  0  0  0  0
  -11.1389   26.9701   47.0627 C   0  0  0  0  0  0
  -11.7562   27.1171   45.8215 C   0  0  0  0  0  0
  -11.1062   27.7920   44.7954 C   0  0  0  0  0  0
   -9.8388   28.3181   45.0189 C   0  0  0  0  0  0
   -9.2223   28.1701   46.2625 C   0  0  0  0  0  0
   -5.8585   27.6651   56.8568 S   0  0  0  0  0  0
   -3.1915   27.1276   56.1213 C   0  0  0  0  0  0
   -2.8573   26.0173   56.7851 N   0  0  0  0  0  0
   -2.9231   27.2356   54.9101 O   0  0  0  0  0  0
   -2.3390   24.9700   56.0096 O   0  0  0  0  0  0
   -5.9390   26.3753   57.5432 O   0  0  0  0  0  0
   -6.7026   28.7717   57.3100 O   0  0  0  0  0  0
   -7.9902   28.6993   46.3997 F   0  0  0  0  0  0
   -4.1183   29.3700   55.0937 H   0  0  0  0  0  0
   -2.7161   29.7442   56.0168 H   0  0  0  0  0  0
   -5.5107   30.7988   56.6836 H   0  0  0  0  0  0
   -4.1198   31.6832   56.1302 H   0  0  0  0  0  0
   -5.3513   29.7831   58.9764 H   0  0  0  0  0  0
   -3.9353   30.1700   59.8402 H   0  0  0  0  0  0
   -2.5405   28.5959   58.4439 H   0  0  0  0  0  0
   -3.9216   27.6937   58.9978 H   0  0  0  0  0  0
   -6.3046   29.5042   54.7346 H   0  0  0  0  0  0
   -7.1387   29.2589   52.5100 H   0  0  0  0  0  0
   -7.5733   25.0298   53.0618 H   0  0  0  0  0  0
   -6.6189   25.2561   55.3180 H   0  0  0  0  0  0
   -6.7474   28.5651   50.5104 H   0  0  0  0  0  0
   -6.7604   27.0439   49.6985 H   0  0  0  0  0  0
   -9.1335   28.9873   49.7100 H   0  0  0  0  0  0
   -7.9060   28.9619   48.5203 H   0  0  0  0  0  0
  -10.2039   25.5254   49.2014 H   0  0  0  0  0  0
  -10.7383   27.0099   50.0074 H   0  0  0  0  0  0
   -8.4596   25.1890   50.6247 H   0  0  0  0  0  0
   -9.6651   25.8296   51.7105 H   0  0  0  0  0  0
  -11.6897   26.4598   47.8360 H   0  0  0  0  0  0
  -12.7391   26.7039   45.6591 H   0  0  0  0  0  0
  -11.5809   27.9090   43.8314 H   0  0  0  0  0  0
   -9.3234   28.8413   44.2252 H   0  0  0  0  0  0
   -3.1641   25.7248   57.7098 H   0  0  0  0  0  0
   -3.0809   24.3332   55.9910 H   0  0  0  0  0  0
  1 25  1  0  0  0
  1 26  1  0  0  0
  1  2  1  0  0  0
  1  6  1  0  0  0
  2  3  1  0  0  0
  2 33  1  0  0  0
  2 34  1  0  0  0
  3  4  1  0  0  0
  3 35  1  0  0  0
  3 36  1  0  0  0
  4  5  1  0  0  0
  5  6  1  0  0  0
  5 37  1  0  0  0
  5 38  1  0  0  0
  6 39  1  0  0  0
  6 40  1  0  0  0
  7 12  1  0  0  0
  7 25  1  0  0  0
  7  8  2  0  0  0
  8  9  1  0  0  0
  8 41  1  0  0  0
  9 10  2  0  0  0
  9 42  1  0  0  0
 10 13  1  0  0  0
 10 11  1  0  0  0
 11 12  2  0  0  0
 11 43  1  0  0  0
 12 44  1  0  0  0
 13 18  1  0  0  0
 13 14  1  0  0  0
 14 15  1  0  0  0
 14 45  1  0  0  0
 14 46  1  0  0  0
 15 16  1  0  0  0
 15 47  1  0  0  0
 15 48  1  0  0  0
 16 17  1  0  0  0
 16 19  1  0  0  0
 17 18  1  0  0  0
 17 49  1  0  0  0
 17 50  1  0  0  0
 18 51  1  0  0  0
 18 52  1  0  0  0
 19 20  2  0  0  0
 19 24  1  0  0  0
 20 21  1  0  0  0
 20 53  1  0  0  0
 21 22  2  0  0  0
 21 54  1  0  0  0
 22 23  1  0  0  0
 22 55  1  0  0  0
 23 24  2  0  0  0
 23 56  1  0  0  0
 24 32  1  0  0  0
 25 30  2  0  0  0
 25 31  2  0  0  0
 26 27  1  0  0  0
 26 28  2  0  0  0
 27 29  1  0  0  0
 27 57  1  0  0  0
 29 58  1  0  0  0
M  END
> <s_m_entry_id>
64090

> <s_m_entry_name>
dock_pv.40

> <s_m_Source_Path>
/home/csk/Desktop/cluster/DUD-E-result/mmp13

> <s_m_Source_File>
dock_pv.maegz

> <i_m_Source_File_Index>
40

> <chembl_id>
CHEMBL1082966

> <chembl_pref_name>
None

> <i_lp_mmshare_version>
53161

> <i_f3d_flags>
0

> <r_lp_tautomer_probability>
1

> <s_lp_Force_Field>
OPLS_2005

> <r_lp_Energy>
50.181573

> <b_lp_Chiralities_Consistent>
1

> <s_lp_Variant>
CHEMBL280_lig1541-1

> <s_i_glide_gridfile>
glide-grid_830c

> <i_i_glide_lignum>
2282

> <i_i_glide_rotatable_bonds>
7

> <r_i_docking_score>
-8.24938862358896

> <r_i_glide_ligand_efficiency>
-0.257793394487155

> <r_i_glide_ligand_efficiency_sa>
-0.818443010253224

> <r_i_glide_ligand_efficiency_ln>
-1.84726298266253

> <r_i_glide_gscore>
-8.24938862358896

> <r_i_glide_lipo>
-3.68363360678066

> <r_i_glide_hbond>
-0.303689190092045

> <r_i_glide_metal>
0

> <r_i_glide_rewards>
-0.247825043694879

> <r_i_glide_evdw>
-40.4486312866211

> <r_i_glide_ecoul>
-15.3493642807007

> <r_i_glide_erotb>
0.562773726667542

> <r_i_glide_esite>
-0.252178303252769

> <r_i_glide_emodel>
-70.3067874928921

> <r_i_glide_energy>
-55.7979955673218

> <r_i_glide_einternal>
10.7100658416748

> <i_i_glide_confnum>
37

> <i_i_glide_posenum>
200

> <r_i_glide_eff_state_penalty>
0

> <s_user_duplicate_titles>
CHEMBL280_lig1541,633209

> <s_m_subgroup_title>
dock_pv

> <s_m_subgroupid>
dock_pv

> <b_m_subgroup_collapsed>
1

$$$$
CHEMBL280_lig2369
                    3D
 Schrodinger Suite 2021-1.
 40 42  0  0  1  0            999 V2000
   -4.2702   27.7210   58.1096 C   0  0  0  0  0  0
   -3.0173   29.4017   56.5218 C   0  0  0  0  0  0
   -4.3784   28.9687   57.1761 C   0  0  0  0  0  0
   -3.1737   26.9698   57.8624 N   0  0  0  0  0  0
   -2.1366   28.3853   56.4108 N   0  0  0  0  0  0
   -2.1656   27.1549   56.9736 C   0  0  0  0  0  0
   -5.3496   28.5802   56.0192 C   0  0  0  0  0  0
   -5.1376   27.3702   58.9099 O   0  0  0  0  0  0
   -2.7384   30.5250   56.1101 O   0  0  0  0  0  0
   -1.3625   26.2796   56.6648 O   0  0  0  0  0  0
   -5.2367   27.3586   55.3208 C   0  0  0  0  0  0
   -6.3423   29.4739   55.6080 C   0  0  0  0  0  0
   -7.9387   27.7695   52.8126 O   0  0  0  0  0  0
   -4.8733   30.1473   58.0781 C   0  0  0  0  0  0
   -7.0614   27.9572   53.8605 C   0  0  0  0  0  0
   -7.7892   26.6459   51.9512 C   0  0  0  0  0  0
   -7.1804   29.1568   54.5492 C   0  0  0  0  0  0
   -6.0831   27.0445   54.2636 C   0  0  0  0  0  0
   -8.4289   26.9743   50.6139 C   0  0  0  0  0  0
   -7.7288   27.7705   49.7057 C   0  0  0  0  0  0
   -9.7171   26.5318   50.3051 C   0  0  0  0  0  0
  -10.3034   26.8978   49.0950 C   0  0  0  0  0  0
   -8.3129   28.1342   48.4960 C   0  0  0  0  0  0
   -9.5995   27.6963   48.1964 C   0  0  0  0  0  0
   -3.1771   26.0801   58.3486 H   0  0  0  0  0  0
   -1.3006   28.6103   55.8967 H   0  0  0  0  0  0
   -4.5034   26.6175   55.5925 H   0  0  0  0  0  0
   -6.4749   30.4319   56.0847 H   0  0  0  0  0  0
   -4.2171   30.3138   58.9354 H   0  0  0  0  0  0
   -4.9177   31.0958   57.5399 H   0  0  0  0  0  0
   -5.8742   29.9655   58.4761 H   0  0  0  0  0  0
   -8.2479   25.7658   52.4015 H   0  0  0  0  0  0
   -6.7406   26.4150   51.7600 H   0  0  0  0  0  0
   -7.9384   29.8570   54.2566 H   0  0  0  0  0  0
   -5.9616   26.0894   53.7766 H   0  0  0  0  0  0
   -6.7393   28.1326   49.9435 H   0  0  0  0  0  0
  -10.2683   25.9163   51.0016 H   0  0  0  0  0  0
  -11.3029   26.5700   48.8515 H   0  0  0  0  0  0
   -7.7696   28.7576   47.8000 H   0  0  0  0  0  0
  -10.0574   27.9818   47.2608 H   0  0  0  0  0  0
  1  3  1  0  0  0
  1  4  1  0  0  0
  1  8  2  0  0  0
  2  3  1  0  0  0
  2  9  2  0  0  0
  2  5  1  0  0  0
  3  7  1  0  0  0
  3 14  1  0  0  0
  4  6  1  0  0  0
  4 25  1  0  0  0
  5  6  1  0  0  0
  5 26  1  0  0  0
  6 10  2  0  0  0
  7 11  2  0  0  0
  7 12  1  0  0  0
 11 18  1  0  0  0
 11 27  1  0  0  0
 12 17  2  0  0  0
 12 28  1  0  0  0
 13 15  1  0  0  0
 13 16  1  0  0  0
 14 29  1  0  0  0
 14 30  1  0  0  0
 14 31  1  0  0  0
 15 17  1  0  0  0
 15 18  2  0  0  0
 16 19  1  0  0  0
 16 32  1  0  0  0
 16 33  1  0  0  0
 17 34  1  0  0  0
 18 35  1  0  0  0
 19 20  2  0  0  0
 19 21  1  0  0  0
 20 23  1  0  0  0
 20 36  1  0  0  0
 21 22  2  0  0  0
 21 37  1  0  0  0
 22 24  1  0  0  0
 22 38  1  0  0  0
 23 24  2  0  0  0
 23 39  1  0  0  0
 24 40  1  0  0  0
M  END
> <s_m_entry_id>
64091

> <s_m_entry_name>
dock_pv.41

> <s_m_Source_Path>
/home/csk/Desktop/cluster/DUD-E-result/mmp13

> <s_m_Source_File>
dock_pv.maegz

> <i_m_Source_File_Index>
41

> <chembl_id>
CHEMBL373311

> <chembl_pref_name>
None

> <i_lp_mmshare_version>
53161

> <i_f3d_flags>
0

> <r_lp_tautomer_probability>
0.999999998612168

> <s_lp_Force_Field>
OPLS_2005

> <r_lp_Energy>
27.47517

> <b_lp_Chiralities_Consistent>
1

> <s_lp_Variant>
CHEMBL280_lig2369-1

> <s_i_glide_gridfile>
glide-grid_830c

> <i_i_glide_lignum>
3428

> <i_i_glide_rotatable_bonds>
4

> <r_i_docking_score>
-8.24331000950699

> <r_i_glide_ligand_efficiency>
-0.343471250396125

> <r_i_glide_ligand_efficiency_sa>
-0.990742525543974

> <r_i_glide_ligand_efficiency_ln>
-1.97300234612355

> <r_i_glide_gscore>
-8.24331000950699

> <r_i_glide_lipo>
-3.26166723063339

> <r_i_glide_hbond>
-0.796495634513917

> <r_i_glide_metal>
0

> <r_i_glide_rewards>
-1.19716861102923

> <r_i_glide_evdw>
-44.4278221130371

> <r_i_glide_ecoul>
-8.80907535552979

> <r_i_glide_erotb>
0.712088060831588

> <r_i_glide_esite>
-0.157314185180717

> <r_i_glide_emodel>
-80.7425847324314

> <r_i_glide_energy>
-53.2368974685669

> <r_i_glide_einternal>
1.93042969703674

> <i_i_glide_confnum>
63

> <i_i_glide_posenum>
396

> <r_i_glide_eff_state_penalty>
0

> <s_user_duplicate_titles>
CHEMBL280_lig2369

> <s_m_subgroup_title>
dock_pv

> <s_m_subgroupid>
dock_pv

> <b_m_subgroup_collapsed>
1

$$$$
CHEMBL280_lig454
                    3D
 Schrodinger Suite 2021-1.
 61 64  0  0  1  0            999 V2000
   -7.4973   26.7393   53.3680 S   0  0  0  0  0  0
   -5.3701   27.6770   55.1597 C   0  0  1  0  0  0
   -5.8901   27.6977   53.6680 C   0  0  0  0  0  0
   -3.8468   27.3047   55.1459 C   0  0  0  0  0  0
   -5.4200   29.0404   55.7157 N   0  0  2  0  0  0
   -7.9392   26.9325   51.6493 C   0  0  0  0  0  0
   -7.1983   25.3190   53.5532 O   0  0  0  0  0  0
   -8.5887   27.3696   54.1096 O   0  0  0  0  0  0
   -3.0552   28.0045   54.5100 O   0  0  0  0  0  0
   -7.8146   32.5696   58.0806 C   0  0  0  0  0  0
   -3.4272   26.1704   55.7464 N   0  0  0  0  0  0
   -7.7852   31.3753   57.3197 C   0  0  0  0  0  0
   -9.1382   26.3675   51.2184 C   0  0  0  0  0  0
   -7.1389   27.6415   50.7561 C   0  0  0  0  0  0
   -9.2513   27.3915   47.7257 O   0  0  0  0  0  0
   -6.6819   33.4375   58.0507 C   0  0  0  0  0  0
   -5.5689   33.0842   57.2501 C   0  0  0  0  0  0
   -6.6765   31.0411   56.5382 C   0  0  0  0  0  0
   -6.7072   29.7475   55.7207 C   0  0  0  0  0  0
   -8.7765   27.2832   49.0154 C   0  0  0  0  0  0
   -6.1577   26.7474   56.1378 C   0  0  0  0  0  0
   -7.5395   27.7840   49.4332 C   0  0  0  0  0  0
   -9.5641   26.5660   49.9099 C   0  0  0  0  0  0
   -5.5778   31.9048   56.5099 C   0  0  0  0  0  0
   -9.0039   28.4700   46.9025 C   0  0  0  0  0  0
   -2.0581   25.8459   55.7101 O   0  0  0  0  0  0
   -8.9359   32.9216   58.8739 C   0  0  0  0  0  0
   -6.7051   34.6255   58.8221 C   0  0  0  0  0  0
   -9.1441   28.2472   45.5331 C   0  0  0  0  0  0
   -8.7008   29.7594   47.3659 C   0  0  0  0  0  0
   -8.9280   34.0989   59.6187 C   0  0  0  0  0  0
   -7.8208   34.9410   59.5945 C   0  0  0  0  0  0
   -8.5252   30.8037   46.4618 C   0  0  0  0  0  0
   -8.9922   29.2938   44.6299 C   0  0  0  0  0  0
   -8.6891   30.5668   45.0992 C   0  0  0  0  0  0
   -6.0524   28.7051   53.2889 H   0  0  0  0  0  0
   -5.1830   27.2439   52.9755 H   0  0  0  0  0  0
   -4.7831   29.6064   55.1559 H   0  0  0  0  0  0
   -3.9938   25.4748   56.2281 H   0  0  0  0  0  0
   -8.6426   30.7248   57.3565 H   0  0  0  0  0  0
   -9.7506   25.7952   51.9008 H   0  0  0  0  0  0
   -6.2031   28.0757   51.0637 H   0  0  0  0  0  0
   -4.7083   33.7375   57.2175 H   0  0  0  0  0  0
   -7.5123   29.1158   56.0835 H   0  0  0  0  0  0
   -6.9701   30.0384   54.7038 H   0  0  0  0  0  0
   -6.0874   25.6995   55.8496 H   0  0  0  0  0  0
   -5.7822   26.8228   57.1602 H   0  0  0  0  0  0
   -7.2188   26.9716   56.1853 H   0  0  0  0  0  0
   -6.8900   28.2974   48.7398 H   0  0  0  0  0  0
  -10.5076   26.1650   49.5772 H   0  0  0  0  0  0
   -4.7123   31.6661   55.9088 H   0  0  0  0  0  0
   -1.7726   26.0182   56.6155 H   0  0  0  0  0  0
   -9.7955   32.2665   58.9005 H   0  0  0  0  0  0
   -5.8510   35.2874   58.8064 H   0  0  0  0  0  0
   -9.3858   27.2587   45.1719 H   0  0  0  0  0  0
   -8.6286   29.9705   48.4222 H   0  0  0  0  0  0
   -9.7879   34.3607   60.2173 H   0  0  0  0  0  0
   -7.8268   35.8496   60.1788 H   0  0  0  0  0  0
   -8.2952   31.7991   46.8156 H   0  0  0  0  0  0
   -9.1018   29.1170   43.5712 H   0  0  0  0  0  0
   -8.5745   31.3764   44.3962 H   0  0  0  0  0  0
  1  3  1  0  0  0
  1  6  1  0  0  0
  1  7  2  0  0  0
  1  8  2  0  0  0
  2  3  1  0  0  0
  2  4  1  0  0  0
  2  5  1  0  0  0
  2 21  1  0  0  0
  3 36  1  0  0  0
  3 37  1  0  0  0
  4  9  2  0  0  0
  4 11  1  0  0  0
  5 19  1  0  0  0
  5 38  1  0  0  0
  6 13  1  0  0  0
  6 14  2  0  0  0
 10 12  1  0  0  0
 10 27  2  0  0  0
 10 16  1  0  0  0
 11 26  1  0  0  0
 11 39  1  0  0  0
 12 18  2  0  0  0
 12 40  1  0  0  0
 13 23  2  0  0  0
 13 41  1  0  0  0
 14 22  1  0  0  0
 14 42  1  0  0  0
 15 20  1  0  0  0
 15 25  1  0  0  0
 16 17  1  0  0  0
 16 28  2  0  0  0
 17 24  2  0  0  0
 17 43  1  0  0  0
 18 19  1  0  0  0
 18 24  1  0  0  0
 19 44  1  0  0  0
 19 45  1  0  0  0
 20 22  2  0  0  0
 20 23  1  0  0  0
 21 46  1  0  0  0
 21 47  1  0  0  0
 21 48  1  0  0  0
 22 49  1  0  0  0
 23 50  1  0  0  0
 24 51  1  0  0  0
 25 29  2  0  0  0
 25 30  1  0  0  0
 26 52  1  0  0  0
 27 31  1  0  0  0
 27 53  1  0  0  0
 28 32  1  0  0  0
 28 54  1  0  0  0
 29 34  1  0  0  0
 29 55  1  0  0  0
 30 33  2  0  0  0
 30 56  1  0  0  0
 31 32  2  0  0  0
 31 57  1  0  0  0
 32 58  1  0  0  0
 33 35  1  0  0  0
 33 59  1  0  0  0
 34 35  2  0  0  0
 34 60  1  0  0  0
 35 61  1  0  0  0
M  END
> <s_m_entry_id>
64092

> <s_m_entry_name>
dock_pv.42

> <s_m_Source_Path>
/home/csk/Desktop/cluster/DUD-E-result/mmp13

> <s_m_Source_File>
dock_pv.maegz

> <i_m_Source_File_Index>
42

> <chembl_id>
CHEMBL92778

> <chembl_pref_name>
None

> <i_lp_mmshare_version>
53161

> <i_f3d_flags>
0

> <r_lp_tautomer_probability>
1

> <s_lp_Force_Field>
OPLS_2005

> <r_lp_Energy>
35.031449

> <b_lp_Chiralities_Consistent>
1

> <s_lp_Variant>
CHEMBL280_lig454-1

> <s_i_glide_gridfile>
glide-grid_830c

> <i_i_glide_lignum>
649

> <i_i_glide_rotatable_bonds>
11

> <r_i_docking_score>
-8.21692220917378

> <r_i_glide_ligand_efficiency>
-0.234769205976394

> <r_i_glide_ligand_efficiency_sa>
-0.767945639429002

> <r_i_glide_ligand_efficiency_ln>
-1.80379678967652

> <r_i_glide_gscore>
-8.21692220917378

> <r_i_glide_lipo>
-3.42440574382032

> <r_i_glide_hbond>
-0.406507048223958

> <r_i_glide_metal>
0

> <r_i_glide_rewards>
-0.118246290890827

> <r_i_glide_evdw>
-55.9511604309082

> <r_i_glide_ecoul>
-13.5419368743896

> <r_i_glide_erotb>
0.761085426465189

> <r_i_glide_esite>
-0.2

> <r_i_glide_emodel>
-101.951761058695

> <r_i_glide_energy>
-69.4930973052979

> <r_i_glide_einternal>
12.1782073974609

> <i_i_glide_confnum>
1

> <i_i_glide_posenum>
7

> <r_i_glide_eff_state_penalty>
0

> <s_user_duplicate_titles>
CHEMBL280_lig454,148983

> <s_m_subgroup_title>
dock_pv

> <s_m_subgroupid>
dock_pv

> <b_m_subgroup_collapsed>
1

$$$$
CHEMBL280_lig1129
                    3D
 Schrodinger Suite 2021-1.
 44 45  0  0  1  0            999 V2000
   -3.8133   28.0094   57.6719 N   0  0  1  0  0  0
   -3.0190   29.0307   56.9942 C   0  0  1  0  0  0
   -1.8215   29.5087   57.8634 C   0  0  0  0  0  0
   -1.0292   28.3708   58.5443 C   0  0  0  0  0  0
   -2.2973   30.5639   58.8787 C   0  0  0  0  0  0
   -2.5334   28.2704   55.4024 P   0  0  0  0  0  0
   -2.0923   26.8470   55.3100 O   0  0  0  0  0  0
   -3.7850   28.5700   54.4388 O   0  0  0  0  0  0
   -1.4661   29.3700   54.9100 O   0  0  0  0  0  0
   -5.5390   28.1127   57.7070 S   0  0  0  0  0  0
   -6.1340   27.7955   56.0541 C   0  0  0  0  0  0
   -5.9390   26.9700   58.5100 O   0  0  0  0  0  0
   -5.9132   29.4804   58.0796 O   0  0  0  0  0  0
   -6.2669   26.4849   55.5871 C   0  0  0  0  0  0
   -6.7530   26.2525   54.3003 C   0  0  0  0  0  0
   -7.0798   27.3262   53.4639 C   0  0  0  0  0  0
   -6.9142   28.6254   53.9446 C   0  0  0  0  0  0
   -6.4780   28.8689   55.2388 C   0  0  0  0  0  0
   -7.6428   27.1248   52.1013 C   0  0  0  0  0  0
   -7.1540   27.8426   51.0092 C   0  0  0  0  0  0
   -7.7715   27.7700   49.7644 C   0  0  0  0  0  0
   -8.8940   26.9656   49.6028 C   0  0  0  0  0  0
   -9.3672   26.2008   50.6664 C   0  0  0  0  0  0
   -8.7389   26.2870   51.9075 C   0  0  0  0  0  0
   -9.7301   26.9636   48.0933 Cl  0  0  0  0  0  0
   -3.4054   27.0751   57.7718 H   0  0  0  0  0  0
   -3.6570   29.8837   56.7573 H   0  0  0  0  0  0
   -1.1116   30.0310   57.2213 H   0  0  0  0  0  0
   -1.6299   27.8461   59.2883 H   0  0  0  0  0  0
   -0.1479   28.7586   59.0566 H   0  0  0  0  0  0
   -0.6817   27.6362   57.8172 H   0  0  0  0  0  0
   -3.1794   30.2233   59.4185 H   0  0  0  0  0  0
   -1.5230   30.8132   59.6054 H   0  0  0  0  0  0
   -2.5800   31.4894   58.3757 H   0  0  0  0  0  0
   -4.0147   29.5196   54.2776 H   0  0  0  0  0  0
   -1.7685   30.2974   54.9368 H   0  0  0  0  0  0
   -6.0006   25.6453   56.2157 H   0  0  0  0  0  0
   -6.8613   25.2350   53.9522 H   0  0  0  0  0  0
   -7.1390   29.4628   53.3100 H   0  0  0  0  0  0
   -6.3771   29.8870   55.5870 H   0  0  0  0  0  0
   -6.3389   28.5321   51.1386 H   0  0  0  0  0  0
   -7.4005   28.3697   48.9451 H   0  0  0  0  0  0
  -10.2410   25.5792   50.5429 H   0  0  0  0  0  0
   -9.1390   25.7700   52.7587 H   0  0  0  0  0  0
  1 10  1  0  0  0
  1  2  1  0  0  0
  1 26  1  0  0  0
  2  3  1  0  0  0
  2  6  1  0  0  0
  2 27  1  0  0  0
  3  4  1  0  0  0
  3  5  1  0  0  0
  3 28  1  0  0  0
  4 29  1  0  0  0
  4 30  1  0  0  0
  4 31  1  0  0  0
  5 32  1  0  0  0
  5 33  1  0  0  0
  5 34  1  0  0  0
  6  7  2  0  0  0
  6  8  1  0  0  0
  6  9  1  0  0  0
  8 35  1  0  0  0
  9 36  1  0  0  0
 10 13  2  0  0  0
 10 11  1  0  0  0
 10 12  2  0  0  0
 11 14  2  0  0  0
 11 18  1  0  0  0
 14 15  1  0  0  0
 14 37  1  0  0  0
 15 16  2  0  0  0
 15 38  1  0  0  0
 16 17  1  0  0  0
 16 19  1  0  0  0
 17 18  2  0  0  0
 17 39  1  0  0  0
 18 40  1  0  0  0
 19 20  2  0  0  0
 19 24  1  0  0  0
 20 21  1  0  0  0
 20 41  1  0  0  0
 21 22  2  0  0  0
 21 42  1  0  0  0
 22 23  1  0  0  0
 22 25  1  0  0  0
 23 24  2  0  0  0
 23 43  1  0  0  0
 24 44  1  0  0  0
M  END
> <s_m_entry_id>
64093

> <s_m_entry_name>
dock_pv.43

> <s_m_Source_Path>
/home/csk/Desktop/cluster/DUD-E-result/mmp13

> <s_m_Source_File>
dock_pv.maegz

> <i_m_Source_File_Index>
43

> <chembl_id>
CHEMBL376557

> <chembl_pref_name>
None

> <i_lp_mmshare_version>
53161

> <i_f3d_flags>
0

> <r_lp_tautomer_probability>
1

> <s_lp_Force_Field>
OPLS_2005

> <r_lp_Energy>
1.094134

> <b_lp_Chiralities_Consistent>
1

> <s_lp_Variant>
CHEMBL280_lig1129-1

> <s_i_glide_gridfile>
glide-grid_830c

> <i_i_glide_lignum>
1814

> <i_i_glide_rotatable_bonds>
8

> <r_i_docking_score>
-8.19076843901323

> <r_i_glide_ligand_efficiency>
-0.327630737560529

> <r_i_glide_ligand_efficiency_sa>
-0.95799808718286

> <r_i_glide_ligand_efficiency_ln>
-1.94145757756905

> <r_i_glide_gscore>
-8.19076843901323

> <r_i_glide_lipo>
-3.29007170818432

> <r_i_glide_hbond>
0

> <r_i_glide_metal>
0

> <r_i_glide_rewards>
-0.646473650559594

> <r_i_glide_evdw>
-28.162561416626

> <r_i_glide_ecoul>
-21.8935680389404

> <r_i_glide_erotb>
0.602110650557518

> <r_i_glide_esite>
-0.164170454154475

> <r_i_glide_emodel>
-67.2525483594628

> <r_i_glide_energy>
-50.0561294555664

> <r_i_glide_einternal>
11.2129678726196

> <i_i_glide_confnum>
3

> <i_i_glide_posenum>
303

> <r_i_glide_eff_state_penalty>
0

> <s_user_duplicate_titles>
CHEMBL280_lig1129,376946

> <s_m_subgroup_title>
dock_pv

> <s_m_subgroupid>
dock_pv

> <b_m_subgroup_collapsed>
1

$$$$
CHEMBL280_lig2316
                    3D
 Schrodinger Suite 2021-1.
 31 33  0  0  1  0            999 V2000
   -4.9934   28.8397   56.9787 C   0  0  0  0  0  0
   -4.8761   27.3964   57.5744 C   0  0  0  0  0  0
   -3.5983   29.3191   56.4223 C   0  0  0  0  0  0
   -3.9944   26.6113   56.9117 N   0  0  0  0  0  0
   -2.8556   28.3149   55.9048 N   0  0  0  0  0  0
   -6.0903   28.9747   55.9553 N   0  0  0  0  0  0
   -2.9579   26.9799   56.1257 C   0  0  0  0  0  0
   -6.8018   30.1377   56.1146 C   0  0  0  0  0  0
   -5.4471   29.8178   58.0897 C   0  0  0  0  0  0
   -3.1735   30.4721   56.4499 O   0  0  0  0  0  0
   -5.5390   26.9700   58.5100 O   0  0  0  0  0  0
   -6.3969   28.0793   54.8822 C   0  0  0  0  0  0
   -6.2886   30.8385   57.3643 C   0  0  0  0  0  0
   -2.1332   26.1700   55.7100 O   0  0  0  0  0  0
   -7.7280   30.5711   55.4249 O   0  0  0  0  0  0
   -6.6666   26.7198   55.1024 C   0  0  0  0  0  0
   -6.5061   28.5701   53.5733 C   0  0  0  0  0  0
   -6.9984   25.8879   54.0377 C   0  0  0  0  0  0
   -6.8834   27.7559   52.5160 C   0  0  0  0  0  0
   -7.1391   26.4157   52.7602 C   0  0  0  0  0  0
   -3.9943   25.6394   57.2013 H   0  0  0  0  0  0
   -2.0018   28.6219   55.4672 H   0  0  0  0  0  0
   -4.6313   30.2853   58.6468 H   0  0  0  0  0  0
   -6.0831   29.3527   58.8470 H   0  0  0  0  0  0
   -5.6825   31.6856   57.0398 H   0  0  0  0  0  0
   -7.1007   31.2262   57.9813 H   0  0  0  0  0  0
   -6.6499   26.2794   56.0857 H   0  0  0  0  0  0
   -6.3390   29.6163   53.3717 H   0  0  0  0  0  0
   -7.1390   24.8305   54.1922 H   0  0  0  0  0  0
   -6.9756   28.1623   51.5182 H   0  0  0  0  0  0
   -7.4216   25.7700   51.9419 H   0  0  0  0  0  0
  1  2  1  0  0  0
  1  3  1  0  0  0
  1  6  1  0  0  0
  1  9  1  0  0  0
  2  4  1  0  0  0
  2 11  2  0  0  0
  3  5  1  0  0  0
  3 10  2  0  0  0
  4  7  1  0  0  0
  4 21  1  0  0  0
  5  7  1  0  0  0
  5 22  1  0  0  0
  6  8  1  0  0  0
  6 12  1  0  0  0
  7 14  2  0  0  0
  8 15  2  0  0  0
  8 13  1  0  0  0
  9 13  1  0  0  0
  9 23  1  0  0  0
  9 24  1  0  0  0
 12 16  2  0  0  0
 12 17  1  0  0  0
 13 25  1  0  0  0
 13 26  1  0  0  0
 16 18  1  0  0  0
 16 27  1  0  0  0
 17 19  2  0  0  0
 17 28  1  0  0  0
 18 20  2  0  0  0
 18 29  1  0  0  0
 19 20  1  0  0  0
 19 30  1  0  0  0
 20 31  1  0  0  0
M  END
> <s_m_entry_id>
64094

> <s_m_entry_name>
dock_pv.44

> <s_m_Source_Path>
/home/csk/Desktop/cluster/DUD-E-result/mmp13

> <s_m_Source_File>
dock_pv.maegz

> <i_m_Source_File_Index>
44

> <chembl_id>
CHEMBL178651

> <chembl_pref_name>
None

> <i_lp_mmshare_version>
53161

> <i_f3d_flags>
0

> <r_lp_tautomer_probability>
0.999999998612168

> <s_lp_Force_Field>
OPLS_2005

> <r_lp_Energy>
33.375364

> <b_lp_Chiralities_Consistent>
1

> <s_lp_Variant>
CHEMBL280_lig2316-1

> <s_i_glide_gridfile>
glide-grid_830c

> <i_i_glide_lignum>
3312

> <i_i_glide_rotatable_bonds>
1

> <r_i_docking_score>
-8.17536162786859

> <r_i_glide_ligand_efficiency>
-0.40876808139343

> <r_i_glide_ligand_efficiency_sa>
-1.10956728012804

> <r_i_glide_ligand_efficiency_ln>
-2.04602337398272

> <r_i_glide_gscore>
-8.17536162786859

> <r_i_glide_lipo>
-1.99480323070561

> <r_i_glide_hbond>
-0.848025353576312

> <r_i_glide_metal>
0

> <r_i_glide_rewards>
-1.54606268181818

> <r_i_glide_evdw>
-33.450023651123

> <r_i_glide_ecoul>
-13.888744354248

> <r_i_glide_erotb>
0.240227227790815

> <r_i_glide_esite>
-0.270884753865949

> <r_i_glide_emodel>
-66.314029477098

> <r_i_glide_energy>
-47.3387680053711

> <r_i_glide_einternal>
4.69501924514771

> <i_i_glide_confnum>
2

> <i_i_glide_posenum>
186

> <r_i_glide_eff_state_penalty>
0

> <s_user_duplicate_titles>
CHEMBL280_lig2316

> <s_m_subgroup_title>
dock_pv

> <s_m_subgroupid>
dock_pv

> <b_m_subgroup_collapsed>
1

$$$$
CHEMBL280_lig883
                    3D
 Schrodinger Suite 2021-1.
 59 62  0  0  1  0            999 V2000
   -3.5734   28.4479   56.8446 C   0  0  1  0  0  0
   -3.8150   27.8054   58.2295 C   0  0  0  0  0  0
   -2.6565   27.5194   55.9673 C   0  0  0  0  0  0
   -1.7129   26.8227   56.6437 N   0  0  0  0  0  0
   -1.5554   26.5702   57.9576 C   0  0  0  0  0  0
   -2.4930   27.3693   58.9117 C   0  0  2  0  0  0
   -9.5519   27.9634   45.4394 N   0  0  0  0  0  0
   -8.6295   29.1393   47.0443 N   0  0  0  0  0  0
   -4.8144   28.8008   56.1856 O   0  0  0  0  0  0
   -9.5757   28.2993   47.7462 C   0  0  1  0  0  0
   -9.8804   27.3717   46.6666 N   0  0  2  0  0  0
   -8.8227   28.9542   45.7045 C   0  0  0  0  0  0
   -4.9377   27.6503   58.7186 O   0  0  0  0  0  0
   -2.7390   27.3700   54.7499 O   0  0  0  0  0  0
   -0.6850   25.7733   58.3038 O   0  0  0  0  0  0
   -9.0868   27.6048   49.0180 C   0  0  0  0  0  0
   -2.9810   29.9056   56.9794 C   0  0  0  0  0  0
   -2.7388   26.5700   60.1098 N   0  0  0  0  0  0
   -8.0054   25.9133   52.6907 O   0  0  0  0  0  0
   -7.8091   27.8365   49.5352 C   0  0  0  0  0  0
   -9.9572   26.7577   49.7079 C   0  0  0  0  0  0
   -5.6543   27.9891   55.4476 C   0  0  0  0  0  0
   -8.3220   26.4627   51.4614 C   0  0  0  0  0  0
   -7.2820   26.6184   53.6322 C   0  0  0  0  0  0
   -7.4332   27.2753   50.7494 C   0  0  0  0  0  0
   -9.5665   26.1719   50.9101 C   0  0  0  0  0  0
   -6.5538   28.6831   54.6428 C   0  0  0  0  0  0
   -5.6501   26.5896   55.4254 C   0  0  0  0  0  0
   -7.3681   28.0082   53.7461 C   0  0  0  0  0  0
   -6.4582   25.9129   54.5100 C   0  0  0  0  0  0
   -0.8846   30.0324   55.7593 O   0  0  0  0  0  0
   -1.4572   30.1584   57.0565 C   0  0  0  0  0  0
    0.4268   30.5705   55.6177 C   0  0  0  0  0  0
    0.4189   32.1029   55.5128 C   0  0  0  0  0  0
   -1.0638   26.2939   56.0879 H   0  0  0  0  0  0
   -1.9491   28.2575   59.2278 H   0  0  0  0  0  0
   -8.4186   29.9835   47.5569 H   0  0  0  0  0  0
  -10.4708   28.8762   47.9882 H   0  0  0  0  0  0
   -9.2160   26.6182   46.7644 H   0  0  0  0  0  0
   -8.3559   29.6154   44.9790 H   0  0  0  0  0  0
   -3.4389   30.3934   57.8431 H   0  0  0  0  0  0
   -3.3213   30.5193   56.1398 H   0  0  0  0  0  0
   -3.1178   27.1327   60.8587 H   0  0  0  0  0  0
   -3.4340   25.8588   59.8799 H   0  0  0  0  0  0
   -7.1070   28.4787   49.0223 H   0  0  0  0  0  0
  -10.9481   26.5717   49.3192 H   0  0  0  0  0  0
   -6.4476   27.4835   51.1399 H   0  0  0  0  0  0
  -10.2487   25.5245   51.4395 H   0  0  0  0  0  0
   -6.5771   29.7629   54.6762 H   0  0  0  0  0  0
   -5.0052   26.0197   56.0771 H   0  0  0  0  0  0
   -8.0273   28.5704   53.1044 H   0  0  0  0  0  0
   -6.4162   24.8341   54.4595 H   0  0  0  0  0  0
   -1.3133   31.1711   57.4363 H   0  0  0  0  0  0
   -0.9498   29.4943   57.7537 H   0  0  0  0  0  0
    0.8401   30.1715   54.6923 H   0  0  0  0  0  0
    1.0829   30.2264   56.4185 H   0  0  0  0  0  0
    1.4111   32.4766   55.2565 H   0  0  0  0  0  0
   -0.2705   32.4424   54.7387 H   0  0  0  0  0  0
    0.1278   32.5769   56.4491 H   0  0  0  0  0  0
  1  2  1  0  0  0
  1  3  1  0  0  0
  1  9  1  0  0  0
  1 17  1  0  0  0
  2  6  1  0  0  0
  2 13  2  0  0  0
  3  4  1  0  0  0
  3 14  2  0  0  0
  4  5  1  0  0  0
  4 35  1  0  0  0
  5 15  2  0  0  0
  5  6  1  0  0  0
  6 18  1  0  0  0
  6 36  1  0  0  0
  7 11  1  0  0  0
  7 12  2  0  0  0
  8 10  1  0  0  0
  8 12  1  0  0  0
  8 37  1  0  0  0
  9 22  1  0  0  0
 10 16  1  0  0  0
 10 11  1  0  0  0
 10 38  1  0  0  0
 11 39  1  0  0  0
 12 40  1  0  0  0
 16 21  1  0  0  0
 16 20  2  0  0  0
 17 32  1  0  0  0
 17 41  1  0  0  0
 17 42  1  0  0  0
 18 43  1  0  0  0
 18 44  1  0  0  0
 19 24  1  0  0  0
 19 23  1  0  0  0
 20 25  1  0  0  0
 20 45  1  0  0  0
 21 26  2  0  0  0
 21 46  1  0  0  0
 22 27  2  0  0  0
 22 28  1  0  0  0
 23 25  2  0  0  0
 23 26  1  0  0  0
 24 30  1  0  0  0
 24 29  2  0  0  0
 25 47  1  0  0  0
 26 48  1  0  0  0
 27 29  1  0  0  0
 27 49  1  0  0  0
 28 30  2  0  0  0
 28 50  1  0  0  0
 29 51  1  0  0  0
 30 52  1  0  0  0
 31 32  1  0  0  0
 31 33  1  0  0  0
 32 53  1  0  0  0
 32 54  1  0  0  0
 33 34  1  0  0  0
 33 55  1  0  0  0
 33 56  1  0  0  0
 34 57  1  0  0  0
 34 58  1  0  0  0
 34 59  1  0  0  0
M  END
> <s_m_entry_id>
64095

> <s_m_entry_name>
dock_pv.45

> <s_m_Source_Path>
/home/csk/Desktop/cluster/DUD-E-result/mmp13

> <s_m_Source_File>
dock_pv.maegz

> <i_m_Source_File_Index>
45

> <chembl_id>
CHEMBL427138

> <chembl_pref_name>
None

> <i_lp_mmshare_version>
53161

> <i_f3d_flags>
0

> <r_lp_tautomer_probability>
0.499999937000008

> <s_lp_Force_Field>
OPLS_2005

> <r_lp_Energy>
41.214156

> <b_lp_Chiralities_Consistent>
1

> <s_lp_Variant>
CHEMBL280_lig883-4

> <s_i_glide_gridfile>
glide-grid_830c

> <i_i_glide_lignum>
1422

> <i_i_glide_rotatable_bonds>
9

> <r_i_docking_score>
-8.16863999043747

> <r_i_glide_ligand_efficiency>
-0.240254117365808

> <r_i_glide_ligand_efficiency_sa>
-0.778330073008886

> <r_i_glide_ligand_efficiency_ln>
-1.80468169647847

> <r_i_glide_gscore>
-8.16863999043747

> <r_i_glide_lipo>
-2.78100299660116

> <r_i_glide_hbond>
-0.798917467604514

> <r_i_glide_metal>
0

> <r_i_glide_rewards>
-0.422396315644981

> <r_i_glide_evdw>
-57.915454864502

> <r_i_glide_ecoul>
-11.8339643478394

> <r_i_glide_erotb>
0.738842373358737

> <r_i_glide_esite>
-0.23429818854455

> <r_i_glide_emodel>
-96.104056567367

> <r_i_glide_energy>
-69.7494192123413

> <r_i_glide_einternal>
7.65118408203125

> <i_i_glide_confnum>
16

> <i_i_glide_posenum>
13

> <r_i_glide_eff_state_penalty>
0

> <s_user_duplicate_titles>
CHEMBL280_lig883,303944

> <s_m_subgroup_title>
dock_pv

> <s_m_subgroupid>
dock_pv

> <b_m_subgroup_collapsed>
1

$$$$
CHEMBL280_lig596
                    3D
 Schrodinger Suite 2021-1.
 43 45  0  0  1  0            999 V2000
   -4.3780   27.2727   55.6527 S   0  0  0  0  0  0
   -4.3722   29.0710   56.2328 C   0  0  1  0  0  0
   -5.7271   27.1382   54.4743 C   0  0  0  0  0  0
   -4.7548   26.4796   56.8237 O   0  0  0  0  0  0
   -3.1391   26.9699   54.9103 O   0  0  0  0  0  0
   -5.7670   29.4426   56.8025 C   0  0  0  0  0  0
   -8.9175   26.2859   51.3052 S   0  0  0  0  0  0
   -6.5572   26.0276   54.5506 C   0  0  0  0  0  0
   -5.9354   28.0857   53.4681 C   0  0  0  0  0  0
   -7.6990   26.7275   52.5327 C   0  0  0  0  0  0
   -5.8010   30.8485   57.4348 C   0  0  2  0  0  0
   -5.9452   32.1737   56.1993 S   0  0  0  0  0  0
   -8.7732   27.3137   49.8615 C   0  0  0  0  0  0
   -6.9227   27.8873   52.5012 C   0  0  0  0  0  0
   -7.5365   25.8378   53.5889 C   0  0  0  0  0  0
   -3.2339   29.2878   57.2518 C   0  0  0  0  0  0
   -3.2688   30.7071   57.8507 C   0  0  0  0  0  0
   -4.6502   31.0502   58.4448 C   0  0  0  0  0  0
   -9.9386   27.5847   49.1424 C   0  0  0  0  0  0
   -7.5453   27.7738   49.3851 C   0  0  0  0  0  0
   -7.4955   28.5695   48.2404 C   0  0  0  0  0  0
   -9.8812   28.3455   47.9769 C   0  0  0  0  0  0
   -8.6615   28.8497   47.5382 C   0  0  0  0  0  0
   -4.1483   29.5913   55.3109 H   0  0  0  0  0  0
   -6.5318   29.3686   56.0284 H   0  0  0  0  0  0
   -6.0460   28.7189   57.5697 H   0  0  0  0  0  0
   -6.4194   25.2879   55.3277 H   0  0  0  0  0  0
   -5.3280   28.9697   53.4186 H   0  0  0  0  0  0
   -6.7549   30.9989   57.9434 H   0  0  0  0  0  0
   -4.8997   31.7941   55.4537 H   0  0  0  0  0  0
   -7.0599   28.6347   51.7381 H   0  0  0  0  0  0
   -8.1547   24.9700   53.6599 H   0  0  0  0  0  0
   -3.3243   28.5606   58.0611 H   0  0  0  0  0  0
   -2.2663   29.1080   56.7811 H   0  0  0  0  0  0
   -2.5022   30.8030   58.6213 H   0  0  0  0  0  0
   -3.0135   31.4349   57.0786 H   0  0  0  0  0  0
   -4.6528   32.0744   58.8180 H   0  0  0  0  0  0
   -4.8297   30.4189   59.3160 H   0  0  0  0  0  0
  -10.8910   27.2008   49.4797 H   0  0  0  0  0  0
   -6.6226   27.5188   49.8818 H   0  0  0  0  0  0
   -6.5450   28.9368   47.8826 H   0  0  0  0  0  0
  -10.7796   28.5540   47.4164 H   0  0  0  0  0  0
   -8.6136   29.4485   46.6402 H   0  0  0  0  0  0
  1  2  1  0  0  0
  1  3  1  0  0  0
  1  4  2  0  0  0
  1  5  2  0  0  0
  2  6  1  0  0  0
  2 16  1  0  0  0
  2 24  1  0  0  0
  3  8  2  0  0  0
  3  9  1  0  0  0
  6 11  1  0  0  0
  6 25  1  0  0  0
  6 26  1  0  0  0
  7 10  1  0  0  0
  7 13  1  0  0  0
  8 15  1  0  0  0
  8 27  1  0  0  0
  9 14  2  0  0  0
  9 28  1  0  0  0
 10 14  1  0  0  0
 10 15  2  0  0  0
 11 12  1  0  0  0
 11 18  1  0  0  0
 11 29  1  0  0  0
 12 30  1  0  0  0
 13 19  2  0  0  0
 13 20  1  0  0  0
 14 31  1  0  0  0
 15 32  1  0  0  0
 16 17  1  0  0  0
 16 33  1  0  0  0
 16 34  1  0  0  0
 17 18  1  0  0  0
 17 35  1  0  0  0
 17 36  1  0  0  0
 18 37  1  0  0  0
 18 38  1  0  0  0
 19 22  1  0  0  0
 19 39  1  0  0  0
 20 21  2  0  0  0
 20 40  1  0  0  0
 21 23  1  0  0  0
 21 41  1  0  0  0
 22 23  2  0  0  0
 22 42  1  0  0  0
 23 43  1  0  0  0
M  END
> <s_m_entry_id>
64096

> <s_m_entry_name>
dock_pv.46

> <s_m_Source_Path>
/home/csk/Desktop/cluster/DUD-E-result/mmp13

> <s_m_Source_File>
dock_pv.maegz

> <i_m_Source_File_Index>
46

> <chembl_id>
CHEMBL300697

> <chembl_pref_name>
None

> <i_lp_mmshare_version>
53161

> <i_f3d_flags>
0

> <r_lp_tautomer_probability>
1

> <s_lp_Force_Field>
OPLS_2005

> <r_lp_Energy>
11.345811

> <b_lp_Chiralities_Consistent>
1

> <s_lp_Variant>
CHEMBL280_lig596-2

> <s_i_glide_gridfile>
glide-grid_830c

> <i_i_glide_lignum>
858

> <i_i_glide_rotatable_bonds>
5

> <r_i_docking_score>
-8.16355607156951

> <r_i_glide_ligand_efficiency>
-0.354937220503022

> <r_i_glide_ligand_efficiency_sa>
-1.00939424025386

> <r_i_glide_ligand_efficiency_ln>
-1.97402188113939

> <r_i_glide_gscore>
-8.16355607156951

> <r_i_glide_lipo>
-3.60846964285783

> <r_i_glide_hbond>
-0.273950943172018

> <r_i_glide_metal>
0

> <r_i_glide_rewards>
-1.14700116601634

> <r_i_glide_evdw>
-41.7136611938477

> <r_i_glide_ecoul>
-9.26743793487549

> <r_i_glide_erotb>
0.578682482464492

> <r_i_glide_esite>
-0.237018052064111

> <r_i_glide_emodel>
-59.0197376415362

> <r_i_glide_energy>
-50.9810991287231

> <r_i_glide_einternal>
4.14276552200317

> <i_i_glide_confnum>
57

> <i_i_glide_posenum>
100

> <r_i_glide_eff_state_penalty>
0

> <s_user_duplicate_titles>
CHEMBL280_lig596

> <s_m_subgroup_title>
dock_pv

> <s_m_subgroupid>
dock_pv

> <b_m_subgroup_collapsed>
1

$$$$
CHEMBL280_lig215
                    3D
 Schrodinger Suite 2021-1.
 42 43  0  0  1  0            999 V2000
   -5.4759   28.2862   57.4114 S   0  0  0  0  0  0
   -3.6237   28.0672   57.0887 C   0  0  0  0  0  0
   -3.2465   26.7390   56.3647 C   0  0  2  0  0  0
   -1.8396   26.1698   56.6570 C   0  0  0  0  0  0
   -6.3004   27.7159   55.9098 C   0  0  0  0  0  0
   -5.8234   27.3698   58.5024 O   0  0  0  0  0  0
   -5.7472   29.7203   57.5410 O   0  0  0  0  0  0
   -1.1391   25.7832   55.7101 O   0  0  0  0  0  0
   -1.4974   26.0694   57.9546 N   0  0  0  0  0  0
   -3.5420   26.6692   54.9100 N   0  0  2  0  0  0
   -6.7036   28.6214   54.9197 C   0  0  0  0  0  0
   -6.4788   26.3474   55.7088 C   0  0  0  0  0  0
   -8.0036   26.1917   52.4078 O   0  0  0  0  0  0
   -7.4082   26.7761   53.5107 C   0  0  0  0  0  0
   -7.2672   28.1538   53.7286 C   0  0  0  0  0  0
   -6.9860   25.8916   54.4975 C   0  0  0  0  0  0
   -8.2494   26.8312   51.2121 C   0  0  0  0  0  0
   -0.2533   25.5079   58.2752 O   0  0  0  0  0  0
   -3.3590   27.9115   54.1652 C   0  0  0  0  0  0
   -9.4657   26.5692   50.5787 C   0  0  0  0  0  0
   -7.2948   27.6245   50.5694 C   0  0  0  0  0  0
   -7.5643   28.1632   49.3121 C   0  0  0  0  0  0
   -9.7469   27.1216   49.3316 C   0  0  0  0  0  0
   -8.7921   27.9171   48.7030 C   0  0  0  0  0  0
   -3.1255   28.1844   58.0495 H   0  0  0  0  0  0
   -3.2951   28.9447   56.5362 H   0  0  0  0  0  0
   -3.8684   25.9762   56.8394 H   0  0  0  0  0  0
   -2.0562   26.3017   58.7656 H   0  0  0  0  0  0
   -4.5159   26.3812   54.8104 H   0  0  0  0  0  0
   -6.5679   29.6842   55.0655 H   0  0  0  0  0  0
   -6.1739   25.6300   56.4601 H   0  0  0  0  0  0
   -7.5892   28.8637   52.9828 H   0  0  0  0  0  0
   -7.0669   24.8311   54.3168 H   0  0  0  0  0  0
    0.2865   26.2624   58.5311 H   0  0  0  0  0  0
   -3.6429   27.7700   53.1272 H   0  0  0  0  0  0
   -4.0153   28.6966   54.5341 H   0  0  0  0  0  0
   -2.3370   28.2825   54.2137 H   0  0  0  0  0  0
  -10.1899   25.9242   51.0550 H   0  0  0  0  0  0
   -6.3347   27.8049   51.0275 H   0  0  0  0  0  0
   -6.8204   28.7705   48.8157 H   0  0  0  0  0  0
  -10.6935   26.9243   48.8489 H   0  0  0  0  0  0
   -8.9989   28.3407   47.7308 H   0  0  0  0  0  0
  1  2  1  0  0  0
  1  5  1  0  0  0
  1  6  2  0  0  0
  1  7  2  0  0  0
  2  3  1  0  0  0
  2 25  1  0  0  0
  2 26  1  0  0  0
  3  4  1  0  0  0
  3 10  1  0  0  0
  3 27  1  0  0  0
  4  8  2  0  0  0
  4  9  1  0  0  0
  5 11  2  0  0  0
  5 12  1  0  0  0
  9 18  1  0  0  0
  9 28  1  0  0  0
 10 19  1  0  0  0
 10 29  1  0  0  0
 11 15  1  0  0  0
 11 30  1  0  0  0
 12 16  2  0  0  0
 12 31  1  0  0  0
 13 14  1  0  0  0
 13 17  1  0  0  0
 14 16  1  0  0  0
 14 15  2  0  0  0
 15 32  1  0  0  0
 16 33  1  0  0  0
 17 20  1  0  0  0
 17 21  2  0  0  0
 18 34  1  0  0  0
 19 35  1  0  0  0
 19 36  1  0  0  0
 19 37  1  0  0  0
 20 23  2  0  0  0
 20 38  1  0  0  0
 21 22  1  0  0  0
 21 39  1  0  0  0
 22 24  2  0  0  0
 22 40  1  0  0  0
 23 24  1  0  0  0
 23 41  1  0  0  0
 24 42  1  0  0  0
M  END
> <s_m_entry_id>
64097

> <s_m_entry_name>
dock_pv.47

> <s_m_Source_Path>
/home/csk/Desktop/cluster/DUD-E-result/mmp13

> <s_m_Source_File>
dock_pv.maegz

> <i_m_Source_File_Index>
47

> <chembl_id>
CHEMBL93993

> <chembl_pref_name>
None

> <i_lp_mmshare_version>
53161

> <i_f3d_flags>
0

> <r_lp_tautomer_probability>
1

> <s_lp_Force_Field>
OPLS_2005

> <r_lp_Energy>
21.087139

> <b_lp_Chiralities_Consistent>
1

> <s_lp_Variant>
CHEMBL280_lig215-1

> <s_i_glide_gridfile>
glide-grid_830c

> <i_i_glide_lignum>
293

> <i_i_glide_rotatable_bonds>
9

> <r_i_docking_score>
-8.15220252148987

> <r_i_glide_ligand_efficiency>
-0.339675105062078

> <r_i_glide_ligand_efficiency_sa>
-0.979792547601867

> <r_i_glide_ligand_efficiency_ln>
-1.95119614359084

> <r_i_glide_gscore>
-8.15220252148987

> <r_i_glide_lipo>
-2.8745853707032

> <r_i_glide_hbond>
-0.0799580829604312

> <r_i_glide_metal>
0

> <r_i_glide_rewards>
-1.07344709304323

> <r_i_glide_evdw>
-37.7865104675293

> <r_i_glide_ecoul>
-20.7052955627441

> <r_i_glide_erotb>
1.08673220152057

> <r_i_glide_esite>
-0.215824318515488

> <r_i_glide_emodel>
-85.4952892630327

> <r_i_glide_energy>
-58.4918060302734

> <r_i_glide_einternal>
18.4760551452637

> <i_i_glide_confnum>
85

> <i_i_glide_posenum>
106

> <r_i_glide_eff_state_penalty>
0

> <s_user_duplicate_titles>
CHEMBL280_lig215,148352

> <s_m_subgroup_title>
dock_pv

> <s_m_subgroupid>
dock_pv

> <b_m_subgroup_collapsed>
1

$$$$
CHEMBL280_lig1233
                    3D
 Schrodinger Suite 2021-1.
 40 43  0  0  1  0            999 V2000
   -3.6311   28.5466   57.4738 C   0  0  0  0  0  0
   -4.9276   28.7123   58.3293 C   0  0  0  0  0  0
   -5.3206   29.9920   58.5097 N   0  0  0  0  0  0
   -4.8323   31.1350   57.9777 C   0  0  0  0  0  0
   -3.7915   30.9759   57.1305 N   0  0  0  0  0  0
   -3.1556   29.8540   56.7362 C   0  0  0  0  0  0
   -7.4499   27.8105   50.7970 C   0  0  0  0  0  0
   -8.1265   26.9014   51.6196 C   0  0  0  0  0  0
   -9.1742   26.1703   51.0528 C   0  0  0  0  0  0
   -9.5207   26.3205   49.7120 C   0  0  0  0  0  0
   -8.8142   27.2069   48.9118 C   0  0  0  0  0  0
   -7.7733   27.9457   49.4495 C   0  0  0  0  0  0
   -7.9344   26.7044   52.9802 O   0  0  0  0  0  0
   -6.8099   26.9485   53.7591 C   0  0  0  0  0  0
   -6.9529   26.4403   55.0150 N   0  0  0  0  0  0
   -5.9353   26.5681   55.9082 C   0  0  0  0  0  0
   -4.7453   27.2331   55.6008 C   0  0  0  0  0  0
   -4.6077   27.7699   54.3274 C   0  0  0  0  0  0
   -5.6311   27.6216   53.3932 C   0  0  0  0  0  0
   -3.7133   27.4025   56.5428 N   0  0  0  0  0  0
   -2.5729   26.6515   56.5122 C   0  0  0  0  0  0
   -1.7848   27.1651   57.4707 N   0  0  0  0  0  0
   -2.5106   28.0265   58.3752 C   0  0  0  0  0  0
   -2.2596   25.7710   55.7100 O   0  0  0  0  0  0
   -2.2800   29.8827   55.8752 O   0  0  0  0  0  0
   -5.3097   32.2350   58.2301 O   0  0  0  0  0  0
   -5.5379   27.7693   58.8228 O   0  0  0  0  0  0
   -9.1568   27.3698   47.6142 F   0  0  0  0  0  0
   -6.1270   30.1268   59.1067 H   0  0  0  0  0  0
   -3.4750   31.8229   56.6847 H   0  0  0  0  0  0
   -6.7397   28.5246   51.1587 H   0  0  0  0  0  0
   -9.7623   25.5116   51.6667 H   0  0  0  0  0  0
  -10.3390   25.7690   49.2829 H   0  0  0  0  0  0
   -7.2432   28.6565   48.8326 H   0  0  0  0  0  0
   -6.0844   26.1125   56.8779 H   0  0  0  0  0  0
   -3.7092   28.3160   54.0854 H   0  0  0  0  0  0
   -5.4264   28.0155   52.4232 H   0  0  0  0  0  0
   -1.0360   26.6138   57.8634 H   0  0  0  0  0  0
   -1.8590   28.7955   58.7975 H   0  0  0  0  0  0
   -2.8566   27.4202   59.2192 H   0  0  0  0  0  0
  1  2  1  0  0  0
  1  6  1  0  0  0
  1 23  1  0  0  0
  1 20  1  0  0  0
  2  3  1  0  0  0
  2 27  2  0  0  0
  3  4  1  0  0  0
  3 29  1  0  0  0
  4  5  1  0  0  0
  4 26  2  0  0  0
  5  6  1  0  0  0
  5 30  1  0  0  0
  6 25  2  0  0  0
  7  8  2  0  0  0
  7 12  1  0  0  0
  7 31  1  0  0  0
  8  9  1  0  0  0
  8 13  1  0  0  0
  9 10  2  0  0  0
  9 32  1  0  0  0
 10 11  1  0  0  0
 10 33  1  0  0  0
 11 12  2  0  0  0
 11 28  1  0  0  0
 12 34  1  0  0  0
 13 14  1  0  0  0
 14 15  2  0  0  0
 14 19  1  0  0  0
 15 16  1  0  0  0
 16 17  2  0  0  0
 16 35  1  0  0  0
 17 18  1  0  0  0
 17 20  1  0  0  0
 18 19  2  0  0  0
 18 36  1  0  0  0
 19 37  1  0  0  0
 20 21  1  0  0  0
 21 22  1  0  0  0
 21 24  2  0  0  0
 22 23  1  0  0  0
 22 38  1  0  0  0
 23 39  1  0  0  0
 23 40  1  0  0  0
M  END
> <s_m_entry_id>
64098

> <s_m_entry_name>
dock_pv.48

> <s_m_Source_Path>
/home/csk/Desktop/cluster/DUD-E-result/mmp13

> <s_m_Source_File>
dock_pv.maegz

> <i_m_Source_File_Index>
48

> <chembl_id>
CHEMBL248918

> <chembl_pref_name>
None

> <i_lp_mmshare_version>
53161

> <i_f3d_flags>
0

> <r_lp_tautomer_probability>
0.999999998612168

> <s_lp_Force_Field>
OPLS_2005

> <r_lp_Energy>
49.078823

> <b_lp_Chiralities_Consistent>
1

> <s_lp_Variant>
CHEMBL280_lig1233-1

> <s_i_glide_gridfile>
glide-grid_830c

> <i_i_glide_lignum>
1940

> <i_i_glide_rotatable_bonds>
3

> <r_i_docking_score>
-8.14804758876

> <r_i_glide_ligand_efficiency>
-0.291001699598571

> <r_i_glide_ligand_efficiency_sa>
-0.883652550816592

> <r_i_glide_ligand_efficiency_ln>
-1.88080862055851

> <r_i_glide_gscore>
-8.14804758876

> <r_i_glide_lipo>
-2.15465892656417

> <r_i_glide_hbond>
-0.608

> <r_i_glide_metal>
0

> <r_i_glide_rewards>
-1.32662810968999

> <r_i_glide_evdw>
-44.3719367980957

> <r_i_glide_ecoul>
-13.5706720352173

> <r_i_glide_erotb>
0.393066234829466

> <r_i_glide_esite>
-0.197629142147924

> <r_i_glide_emodel>
-83.1127614701386

> <r_i_glide_energy>
-57.942608833313

> <r_i_glide_einternal>
2.93438649177551

> <i_i_glide_confnum>
3

> <i_i_glide_posenum>
28

> <r_i_glide_eff_state_penalty>
0

> <s_user_duplicate_titles>
CHEMBL280_lig1233,417682

> <s_m_subgroup_title>
dock_pv

> <s_m_subgroupid>
dock_pv

> <b_m_subgroup_collapsed>
1

$$$$
CHEMBL280_lig2422
                    3D
 Schrodinger Suite 2021-1.
 61 64  0  0  1  0            999 V2000
   -4.8713   27.7687   56.3430 C   0  0  0  0  0  0
   -3.9016   28.9874   56.3423 C   0  0  0  0  0  0
   -4.6384   30.3377   56.5112 C   0  0  0  0  0  0
   -5.3933   30.3544   57.7625 N   0  0  2  0  0  0
   -6.3044   29.2220   57.9160 C   0  0  0  0  0  0
   -5.5464   27.8890   57.7375 C   0  0  0  0  0  0
   -0.7384   25.7702   57.6130 O   0  0  0  0  0  0
   -2.1291   25.8927   57.4866 N   0  0  0  0  0  0
   -2.6463   26.2994   56.3175 C   0  0  0  0  0  0
   -4.1666   26.3632   56.2148 C   0  0  0  0  0  0
   -1.9858   26.5707   55.3121 O   0  0  0  0  0  0
   -5.8031   27.8766   55.1982 N   0  0  0  0  0  0
   -6.7820   27.0085   54.8587 C   0  0  0  0  0  0
   -7.2661   27.0384   53.4244 C   0  0  0  0  0  0
   -7.2158   26.1707   55.6488 O   0  0  0  0  0  0
   -8.2849   26.1729   53.0064 C   0  0  0  0  0  0
   -8.7392   26.1690   51.6878 C   0  0  0  0  0  0
   -8.1773   27.0206   50.7449 C   0  0  0  0  0  0
   -7.1391   27.8660   51.1601 C   0  0  0  0  0  0
   -6.6904   27.8850   52.4741 C   0  0  0  0  0  0
   -8.7027   27.0112   49.4592 O   0  0  0  0  0  0
   -8.2544   28.0468   48.5817 C   0  0  0  0  0  0
   -9.1070   28.2588   47.3350 C   0  0  0  0  0  0
  -10.7196   28.7878   45.0753 N   0  0  0  0  0  0
  -10.8259   27.6412   45.7775 C   0  0  0  0  0  0
  -10.0390   27.3221   46.8860 C   0  0  0  0  0  0
   -9.8453   29.7230   45.5124 C   0  0  0  0  0  0
   -9.0038   29.5103   46.6503 C   0  0  0  0  0  0
   -8.1923   30.5914   47.0953 C   0  0  0  0  0  0
   -8.3075   31.8424   46.5100 C   0  0  0  0  0  0
   -9.1392   32.0359   45.4110 C   0  0  0  0  0  0
   -9.8740   30.9841   44.8812 C   0  0  0  0  0  0
  -11.9470   26.7538   45.3183 C   0  0  0  0  0  0
   -3.3453   29.0168   55.4051 H   0  0  0  0  0  0
   -3.1453   28.9113   57.1260 H   0  0  0  0  0  0
   -5.3555   30.5064   55.7105 H   0  0  0  0  0  0
   -3.9310   31.1688   56.5017 H   0  0  0  0  0  0
   -5.8939   31.2268   57.8766 H   0  0  0  0  0  0
   -7.1185   29.3092   57.1961 H   0  0  0  0  0  0
   -6.7368   29.2854   58.9103 H   0  0  0  0  0  0
   -4.8309   27.7498   58.5499 H   0  0  0  0  0  0
   -6.2670   27.0799   57.8605 H   0  0  0  0  0  0
   -0.4864   26.5290   58.1493 H   0  0  0  0  0  0
   -2.6463   25.5962   58.3106 H   0  0  0  0  0  0
   -4.6181   25.6595   56.9100 H   0  0  0  0  0  0
   -4.3742   25.8987   55.2494 H   0  0  0  0  0  0
   -5.6402   28.6609   54.5876 H   0  0  0  0  0  0
   -8.7389   25.4927   53.7086 H   0  0  0  0  0  0
   -9.5336   25.5005   51.3888 H   0  0  0  0  0  0
   -6.6931   28.5688   50.4786 H   0  0  0  0  0  0
   -5.8926   28.5686   52.7220 H   0  0  0  0  0  0
   -8.3446   28.9700   49.1495 H   0  0  0  0  0  0
   -7.2123   27.9039   48.2948 H   0  0  0  0  0  0
  -10.1778   26.3905   47.4143 H   0  0  0  0  0  0
   -7.5285   30.4834   47.9366 H   0  0  0  0  0  0
   -7.7223   32.6690   46.8858 H   0  0  0  0  0  0
   -9.1847   33.0096   44.9492 H   0  0  0  0  0  0
  -10.5176   31.1462   44.0281 H   0  0  0  0  0  0
  -11.7878   25.7689   45.7097 H   0  0  0  0  0  0
  -12.8964   27.1183   45.7107 H   0  0  0  0  0  0
  -12.0053   26.6905   44.2300 H   0  0  0  0  0  0
  1  6  1  0  0  0
  1 10  1  0  0  0
  1 12  1  0  0  0
  1  2  1  0  0  0
  2  3  1  0  0  0
  2 34  1  0  0  0
  2 35  1  0  0  0
  3  4  1  0  0  0
  3 36  1  0  0  0
  3 37  1  0  0  0
  4  5  1  0  0  0
  4 38  1  0  0  0
  5  6  1  0  0  0
  5 39  1  0  0  0
  5 40  1  0  0  0
  6 41  1  0  0  0
  6 42  1  0  0  0
  7  8  1  0  0  0
  7 43  1  0  0  0
  8  9  1  0  0  0
  8 44  1  0  0  0
  9 10  1  0  0  0
  9 11  2  0  0  0
 10 45  1  0  0  0
 10 46  1  0  0  0
 12 13  1  0  0  0
 12 47  1  0  0  0
 13 14  1  0  0  0
 13 15  2  0  0  0
 14 20  1  0  0  0
 14 16  2  0  0  0
 16 17  1  0  0  0
 16 48  1  0  0  0
 17 18  2  0  0  0
 17 49  1  0  0  0
 18 19  1  0  0  0
 18 21  1  0  0  0
 19 20  2  0  0  0
 19 50  1  0  0  0
 20 51  1  0  0  0
 21 22  1  0  0  0
 22 23  1  0  0  0
 22 52  1  0  0  0
 22 53  1  0  0  0
 23 26  1  0  0  0
 23 28  2  0  0  0
 24 27  2  0  0  0
 24 25  1  0  0  0
 25 26  2  0  0  0
 25 33  1  0  0  0
 26 54  1  0  0  0
 27 28  1  0  0  0
 27 32  1  0  0  0
 28 29  1  0  0  0
 29 30  2  0  0  0
 29 55  1  0  0  0
 30 31  1  0  0  0
 30 56  1  0  0  0
 31 32  2  0  0  0
 31 57  1  0  0  0
 32 58  1  0  0  0
 33 59  1  0  0  0
 33 60  1  0  0  0
 33 61  1  0  0  0
M  END
> <s_m_entry_id>
64099

> <s_m_entry_name>
dock_pv.49

> <s_m_Source_Path>
/home/csk/Desktop/cluster/DUD-E-result/mmp13

> <s_m_Source_File>
dock_pv.maegz

> <i_m_Source_File_Index>
49

> <chembl_id>
CHEMBL208009

> <chembl_pref_name>
None

> <i_lp_mmshare_version>
53161

> <i_f3d_flags>
0

> <r_lp_tautomer_probability>
1

> <s_lp_Force_Field>
OPLS_2005

> <r_lp_Energy>
38.40762

> <b_lp_Chiralities_Consistent>
1

> <s_lp_Variant>
CHEMBL280_lig2422-1

> <s_i_glide_gridfile>
glide-grid_830c

> <i_i_glide_lignum>
3489

> <i_i_glide_rotatable_bonds>
10

> <r_i_docking_score>
-8.12972207927769

> <r_i_glide_ligand_efficiency>
-0.246355214523566

> <r_i_glide_ligand_efficiency_sa>
-0.790192807036853

> <r_i_glide_ligand_efficiency_ln>
-1.80800809698322

> <r_i_glide_gscore>
-8.12972207927769

> <r_i_glide_lipo>
-3.78797150809658

> <r_i_glide_hbond>
-0.269074571095672

> <r_i_glide_metal>
0

> <r_i_glide_rewards>
-0.310680051764404

> <r_i_glide_evdw>
-43.645637512207

> <r_i_glide_ecoul>
-15.1733045578003

> <r_i_glide_erotb>
0.896281610959371

> <r_i_glide_esite>
-0.2

> <r_i_glide_emodel>
-81.8374134425807

> <r_i_glide_energy>
-58.8189420700073

> <r_i_glide_einternal>
13.0456781387329

> <i_i_glide_confnum>
93

> <i_i_glide_posenum>
347

> <r_i_glide_eff_state_penalty>
0

> <s_user_duplicate_titles>
CHEMBL280_lig2422

> <s_m_subgroup_title>
dock_pv

> <s_m_subgroupid>
dock_pv

> <b_m_subgroup_collapsed>
1

$$$$
CHEMBL280_lig949
                    3D
 Schrodinger Suite 2021-1.
 48 50  0  0  1  0            999 V2000
   -5.4445   28.3839   57.7101 S   0  0  0  0  0  0
   -3.6929   29.1416   57.6396 C   0  0  1  0  0  0
   -2.5236   28.1219   57.6994 C   0  0  2  0  0  0
   -2.4964   27.1406   56.4786 C   0  0  0  0  0  0
   -5.9412   27.9380   56.0465 C   0  0  0  0  0  0
   -5.4107   27.1539   58.5095 O   0  0  0  0  0  0
   -6.3378   29.4743   58.1054 O   0  0  0  0  0  0
   -7.5646   27.1286   52.1572 C   0  0  0  0  0  0
   -6.9398   27.3653   53.4898 C   0  0  0  0  0  0
   -2.5351   27.5557   55.3121 O   0  0  0  0  0  0
   -2.3867   25.8289   56.7322 N   0  0  0  0  0  0
   -7.1592   27.8439   51.0226 C   0  0  0  0  0  0
   -2.6130   27.3707   58.9105 O   0  0  0  0  0  0
   -3.5382   30.2190   56.5452 C   0  0  0  0  0  0
   -6.0456   26.6079   55.6222 C   0  0  0  0  0  0
   -6.3320   28.9685   55.2004 C   0  0  0  0  0  0
   -1.1879   28.9221   57.6804 C   0  0  0  0  0  0
   -1.1273   29.8220   56.5672 O   0  0  0  0  0  0
   -6.5584   26.3259   54.3509 C   0  0  0  0  0  0
   -6.8006   28.6786   53.9322 C   0  0  0  0  0  0
   -7.8650   27.7660   49.8142 C   0  0  0  0  0  0
   -2.3392   24.9700   55.6451 O   0  0  0  0  0  0
   -2.1281   30.8412   56.5847 C   0  0  0  0  0  0
   -8.6667   26.2831   52.0348 C   0  0  0  0  0  0
   -9.3610   26.1725   50.8301 C   0  0  0  0  0  0
   -8.9614   26.9109   49.7199 C   0  0  0  0  0  0
   -7.5045   28.6591   48.6375 C   0  0  0  0  0  0
   -3.7131   29.6615   58.5995 H   0  0  0  0  0  0
   -2.4226   25.3635   57.6324 H   0  0  0  0  0  0
   -6.3391   28.5385   51.1048 H   0  0  0  0  0  0
   -3.4599   26.9023   58.9205 H   0  0  0  0  0  0
   -4.2912   31.0001   56.6587 H   0  0  0  0  0  0
   -3.6943   29.7686   55.5687 H   0  0  0  0  0  0
   -5.7669   25.7938   56.2780 H   0  0  0  0  0  0
   -6.2779   29.9992   55.5208 H   0  0  0  0  0  0
   -0.3250   28.2546   57.6375 H   0  0  0  0  0  0
   -1.0711   29.4905   58.6058 H   0  0  0  0  0  0
   -6.6626   25.2961   54.0395 H   0  0  0  0  0  0
   -7.1046   29.4963   53.3069 H   0  0  0  0  0  0
   -3.1859   24.4734   55.7124 H   0  0  0  0  0  0
   -2.0063   31.4699   57.4688 H   0  0  0  0  0  0
   -1.9830   31.4905   55.7201 H   0  0  0  0  0  0
   -9.0274   25.7699   52.9085 H   0  0  0  0  0  0
  -10.2283   25.5342   50.7646 H   0  0  0  0  0  0
   -9.5205   26.8401   48.7982 H   0  0  0  0  0  0
   -8.3818   29.2257   48.3242 H   0  0  0  0  0  0
   -6.7390   29.3802   48.9064 H   0  0  0  0  0  0
   -7.1530   28.1094   47.7682 H   0  0  0  0  0  0
  1  2  1  0  0  0
  1  5  1  0  0  0
  1  6  2  0  0  0
  1  7  2  0  0  0
  2  3  1  0  0  0
  2 14  1  0  0  0
  2 28  1  0  0  0
  3  4  1  0  0  0
  3 13  1  0  0  0
  3 17  1  0  0  0
  4 10  2  0  0  0
  4 11  1  0  0  0
  5 15  1  0  0  0
  5 16  2  0  0  0
  8  9  1  0  0  0
  8 12  1  0  0  0
  8 24  2  0  0  0
  9 20  2  0  0  0
  9 19  1  0  0  0
 11 22  1  0  0  0
 11 29  1  0  0  0
 12 21  2  0  0  0
 12 30  1  0  0  0
 13 31  1  0  0  0
 14 23  1  0  0  0
 14 32  1  0  0  0
 14 33  1  0  0  0
 15 19  2  0  0  0
 15 34  1  0  0  0
 16 20  1  0  0  0
 16 35  1  0  0  0
 17 18  1  0  0  0
 17 36  1  0  0  0
 17 37  1  0  0  0
 18 23  1  0  0  0
 19 38  1  0  0  0
 20 39  1  0  0  0
 21 27  1  0  0  0
 21 26  1  0  0  0
 22 40  1  0  0  0
 23 41  1  0  0  0
 23 42  1  0  0  0
 24 25  1  0  0  0
 24 43  1  0  0  0
 25 26  2  0  0  0
 25 44  1  0  0  0
 26 45  1  0  0  0
 27 46  1  0  0  0
 27 47  1  0  0  0
 27 48  1  0  0  0
M  END
> <s_m_entry_id>
64100

> <s_m_entry_name>
dock_pv.50

> <s_m_Source_Path>
/home/csk/Desktop/cluster/DUD-E-result/mmp13

> <s_m_Source_File>
dock_pv.maegz

> <i_m_Source_File_Index>
50

> <chembl_id>
CHEMBL275053

> <chembl_pref_name>
None

> <i_lp_mmshare_version>
53161

> <i_f3d_flags>
0

> <r_lp_tautomer_probability>
1

> <s_lp_Force_Field>
OPLS_2005

> <r_lp_Energy>
22.760954

> <b_lp_Chiralities_Consistent>
1

> <s_lp_Variant>
CHEMBL280_lig949-1

> <s_i_glide_gridfile>
glide-grid_830c

> <i_i_glide_lignum>
1596

> <i_i_glide_rotatable_bonds>
7

> <r_i_docking_score>
-8.12188932733573

> <r_i_glide_ligand_efficiency>
-0.300810715827249

> <r_i_glide_ligand_efficiency_sa>
-0.902432146490325

> <r_i_glide_ligand_efficiency_ln>
-1.89064193559336

> <r_i_glide_gscore>
-8.12188932733573

> <r_i_glide_lipo>
-3.16884666139187

> <r_i_glide_hbond>
-0.0662110364183372

> <r_i_glide_metal>
0

> <r_i_glide_rewards>
-0.740187369377788

> <r_i_glide_evdw>
-39.1639175415039

> <r_i_glide_ecoul>
-16.9719085693359

> <r_i_glide_erotb>
0.636798596852059

> <r_i_glide_esite>
-0.279460694524209

> <r_i_glide_emodel>
-77.8873411256963

> <r_i_glide_energy>
-56.1358261108398

> <r_i_glide_einternal>
11.9788761138916

> <i_i_glide_confnum>
152

> <i_i_glide_posenum>
80

> <r_i_glide_eff_state_penalty>
0

> <s_user_duplicate_titles>
CHEMBL280_lig949,308242

> <s_m_subgroup_title>
dock_pv

> <s_m_subgroupid>
dock_pv

> <b_m_subgroup_collapsed>
1

$$$$
CHEMBL280_lig891
                    3D
 Schrodinger Suite 2021-1.
 51 53  0  0  1  0            999 V2000
   -4.0027   28.4720   56.6570 C   0  0  2  0  0  0
   -3.0152   27.7300   55.7124 C   0  0  0  0  0  0
   -4.2739   27.6553   57.9532 C   0  0  0  0  0  0
   -3.1772   27.0645   58.4736 N   0  0  0  0  0  0
   -2.0109   26.6893   57.9123 C   0  0  0  0  0  0
   -1.8253   27.0297   56.4086 C   0  0  1  0  0  0
   -5.2695   28.8302   56.0617 O   0  0  0  0  0  0
   -3.1390   27.6986   54.4870 O   0  0  0  0  0  0
   -5.3672   27.5654   58.5100 O   0  0  0  0  0  0
   -1.1654   26.0826   58.5671 O   0  0  0  0  0  0
   -3.4066   29.8809   57.0120 C   0  0  0  0  0  0
   -1.5390   25.7700   55.7100 N   0  0  0  0  0  0
   -7.6488   27.3700   50.2252 C   0  0  0  0  0  0
   -8.4729   26.5468   51.0069 C   0  0  0  0  0  0
   -8.0597   25.9724   52.1947 O   0  0  0  0  0  0
   -6.0023   28.0403   55.1956 C   0  0  0  0  0  0
   -7.4106   26.6850   53.1864 C   0  0  0  0  0  0
   -8.1323   27.9255   49.0384 C   0  0  0  0  0  0
   -7.1390   28.9700   48.0967 Cl  0  0  0  0  0  0
   -6.0294   26.6390   55.1821 C   0  0  0  0  0  0
   -6.7390   28.7470   54.2541 C   0  0  0  0  0  0
   -6.7390   25.9705   54.1811 C   0  0  0  0  0  0
   -7.4257   28.0796   53.2531 C   0  0  0  0  0  0
   -5.4979   30.8005   58.0193 O   0  0  0  0  0  0
  -10.2397   26.8039   49.3643 C   0  0  0  0  0  0
   -9.7585   26.2508   50.5509 C   0  0  0  0  0  0
   -4.0861   30.6944   58.1482 C   0  0  0  0  0  0
   -9.4279   27.6464   48.6107 C   0  0  0  0  0  0
   -5.9626   31.6859   57.0099 C   0  0  0  0  0  0
   -7.4870   31.5647   56.9456 C   0  0  0  0  0  0
   -3.3207   26.6689   59.3903 H   0  0  0  0  0  0
   -0.9722   27.7047   56.3392 H   0  0  0  0  0  0
   -3.4084   30.4969   56.1101 H   0  0  0  0  0  0
   -2.3517   29.7942   57.2789 H   0  0  0  0  0  0
   -0.5623   25.5259   55.8812 H   0  0  0  0  0  0
   -2.1042   25.0386   56.1418 H   0  0  0  0  0  0
   -6.6403   27.5918   50.5426 H   0  0  0  0  0  0
   -5.4938   26.0611   55.9204 H   0  0  0  0  0  0
   -6.7284   29.8264   54.2675 H   0  0  0  0  0  0
   -6.7381   24.8900   54.1591 H   0  0  0  0  0  0
   -7.9390   28.6590   52.5090 H   0  0  0  0  0  0
  -11.2399   26.5816   49.0240 H   0  0  0  0  0  0
  -10.3900   25.5979   51.1343 H   0  0  0  0  0  0
   -3.8901   30.2105   59.1055 H   0  0  0  0  0  0
   -3.6388   31.6866   58.2315 H   0  0  0  0  0  0
   -9.8005   28.0783   47.6932 H   0  0  0  0  0  0
   -5.5391   31.4415   56.0355 H   0  0  0  0  0  0
   -5.6752   32.7111   57.2484 H   0  0  0  0  0  0
   -7.9033   32.2329   56.1921 H   0  0  0  0  0  0
   -7.7852   30.5461   56.6953 H   0  0  0  0  0  0
   -7.9388   31.8147   57.9062 H   0  0  0  0  0  0
  1  2  1  0  0  0
  1  3  1  0  0  0
  1  7  1  0  0  0
  1 11  1  0  0  0
  2  6  1  0  0  0
  2  8  2  0  0  0
  3  4  1  0  0  0
  3  9  2  0  0  0
  4  5  1  0  0  0
  4 31  1  0  0  0
  5 10  2  0  0  0
  5  6  1  0  0  0
  6 12  1  0  0  0
  6 32  1  0  0  0
  7 16  1  0  0  0
 11 27  1  0  0  0
 11 33  1  0  0  0
 11 34  1  0  0  0
 12 35  1  0  0  0
 12 36  1  0  0  0
 13 14  1  0  0  0
 13 18  2  0  0  0
 13 37  1  0  0  0
 14 15  1  0  0  0
 14 26  2  0  0  0
 15 17  1  0  0  0
 16 20  1  0  0  0
 16 21  2  0  0  0
 17 23  2  0  0  0
 17 22  1  0  0  0
 18 19  1  0  0  0
 18 28  1  0  0  0
 20 22  2  0  0  0
 20 38  1  0  0  0
 21 23  1  0  0  0
 21 39  1  0  0  0
 22 40  1  0  0  0
 23 41  1  0  0  0
 24 27  1  0  0  0
 24 29  1  0  0  0
 25 26  1  0  0  0
 25 28  2  0  0  0
 25 42  1  0  0  0
 26 43  1  0  0  0
 27 44  1  0  0  0
 27 45  1  0  0  0
 28 46  1  0  0  0
 29 30  1  0  0  0
 29 47  1  0  0  0
 29 48  1  0  0  0
 30 49  1  0  0  0
 30 50  1  0  0  0
 30 51  1  0  0  0
M  END
> <s_m_entry_id>
64101

> <s_m_entry_name>
dock_pv.51

> <s_m_Source_Path>
/home/csk/Desktop/cluster/DUD-E-result/mmp13

> <s_m_Source_File>
dock_pv.maegz

> <i_m_Source_File_Index>
51

> <chembl_id>
CHEMBL182344

> <chembl_pref_name>
None

> <i_lp_mmshare_version>
53161

> <i_f3d_flags>
0

> <r_lp_tautomer_probability>
1

> <s_lp_Force_Field>
OPLS_2005

> <r_lp_Energy>
31.888414

> <b_lp_Chiralities_Consistent>
1

> <s_lp_Variant>
CHEMBL280_lig891-1

> <s_i_glide_gridfile>
glide-grid_830c

> <i_i_glide_lignum>
1453

> <i_i_glide_rotatable_bonds>
8

> <r_i_docking_score>
-8.11855698119173

> <r_i_glide_ligand_efficiency>
-0.270618566039724

> <r_i_glide_ligand_efficiency_sa>
-0.840874804159926

> <r_i_glide_ligand_efficiency_ln>
-1.84462460489006

> <r_i_glide_gscore>
-8.11855698119173

> <r_i_glide_lipo>
-3.48814716851779

> <r_i_glide_hbond>
-0.397124195982738

> <r_i_glide_metal>
0

> <r_i_glide_rewards>
-0.524749770028495

> <r_i_glide_evdw>
-51.9457168579102

> <r_i_glide_ecoul>
-11.3394241333008

> <r_i_glide_erotb>
0.743557516223693

> <r_i_glide_esite>
-0.153893899995778

> <r_i_glide_emodel>
-82.8393437497932

> <r_i_glide_energy>
-63.2851409912109

> <r_i_glide_einternal>
12.0339002609253

> <i_i_glide_confnum>
3

> <i_i_glide_posenum>
159

> <r_i_glide_eff_state_penalty>
0

> <s_user_duplicate_titles>
CHEMBL280_lig891

> <s_m_subgroup_title>
dock_pv

> <s_m_subgroupid>
dock_pv

> <b_m_subgroup_collapsed>
1

$$$$
CHEMBL280_lig71
                    3D
 Schrodinger Suite 2021-1.
 49 51  0  0  1  0            999 V2000
   -3.3604   28.5428   56.8038 C   0  0  0  0  0  0
   -3.0750   29.6206   55.7370 C   0  0  0  0  0  0
   -3.2228   31.0775   56.2221 C   0  0  0  0  0  0
   -2.4225   31.3078   57.4308 N   0  0  2  0  0  0
   -2.5635   28.9096   58.0885 C   0  0  0  0  0  0
   -5.2395   28.4446   57.2406 S   0  0  0  0  0  0
   -2.9019   27.1824   56.2164 C   0  0  0  0  0  0
   -2.7449   30.3809   58.5220 C   0  0  0  0  0  0
   -6.0377   27.7940   55.7722 C   0  0  0  0  0  0
   -6.1401   26.4169   55.6189 C   0  0  0  0  0  0
   -6.7206   25.8837   54.4743 C   0  0  0  0  0  0
   -7.2464   26.7178   53.4901 C   0  0  0  0  0  0
   -7.1486   28.1055   53.6558 C   0  0  0  0  0  0
   -6.5438   28.6449   54.7903 C   0  0  0  0  0  0
   -5.4218   27.4410   58.2990 O   0  0  0  0  0  0
   -5.7768   29.7946   57.4367 O   0  0  0  0  0  0
   -7.8863   26.0926   52.4358 O   0  0  0  0  0  0
   -8.2630   26.7197   51.2665 C   0  0  0  0  0  0
   -7.4008   27.5465   50.5389 C   0  0  0  0  0  0
   -7.8072   28.0813   49.3173 C   0  0  0  0  0  0
   -9.0772   27.7961   48.8258 C   0  0  0  0  0  0
   -9.9390   26.9700   49.5401 C   0  0  0  0  0  0
   -9.5258   26.4248   50.7529 C   0  0  0  0  0  0
   -9.5872   28.4693   47.3218 Cl  0  0  0  0  0  0
   -2.7376   26.1815   57.0826 N   0  0  0  0  0  0
   -2.7390   27.0171   54.9937 O   0  0  0  0  0  0
   -2.3390   24.9700   56.5525 O   0  0  0  0  0  0
   -2.5457   32.6934   57.8733 C   0  0  0  0  0  0
   -3.7316   29.3700   54.9100 H   0  0  0  0  0  0
   -2.0737   29.5299   55.3094 H   0  0  0  0  0  0
   -4.2656   31.3476   56.3877 H   0  0  0  0  0  0
   -2.8657   31.7531   55.4425 H   0  0  0  0  0  0
   -1.4959   28.7051   57.9832 H   0  0  0  0  0  0
   -2.8833   28.2693   58.9100 H   0  0  0  0  0  0
   -3.7578   30.5651   58.8856 H   0  0  0  0  0  0
   -2.0800   30.5872   59.3626 H   0  0  0  0  0  0
   -5.7496   25.7700   56.3875 H   0  0  0  0  0  0
   -6.7390   24.8122   54.3445 H   0  0  0  0  0  0
   -7.5390   28.7697   52.9096 H   0  0  0  0  0  0
   -6.4715   29.7170   54.9087 H   0  0  0  0  0  0
   -6.4123   27.7700   50.9111 H   0  0  0  0  0  0
   -7.1390   28.7170   48.7550 H   0  0  0  0  0  0
  -10.9199   26.7514   49.1472 H   0  0  0  0  0  0
  -10.1857   25.7700   51.3002 H   0  0  0  0  0  0
   -2.9931   26.1303   58.0631 H   0  0  0  0  0  0
   -3.1646   24.4511   56.5243 H   0  0  0  0  0  0
   -2.2447   33.3810   57.0817 H   0  0  0  0  0  0
   -3.5717   32.9327   58.1593 H   0  0  0  0  0  0
   -1.9006   32.8846   58.7320 H   0  0  0  0  0  0
  1  7  1  0  0  0
  1  5  1  0  0  0
  1  2  1  0  0  0
  1  6  1  0  0  0
  2  3  1  0  0  0
  2 29  1  0  0  0
  2 30  1  0  0  0
  3  4  1  0  0  0
  3 31  1  0  0  0
  3 32  1  0  0  0
  4  8  1  0  0  0
  4 28  1  0  0  0
  5  8  1  0  0  0
  5 33  1  0  0  0
  5 34  1  0  0  0
  6 15  2  0  0  0
  6 16  2  0  0  0
  6  9  1  0  0  0
  7 25  1  0  0  0
  7 26  2  0  0  0
  8 35  1  0  0  0
  8 36  1  0  0  0
  9 14  1  0  0  0
  9 10  2  0  0  0
 10 11  1  0  0  0
 10 37  1  0  0  0
 11 12  2  0  0  0
 11 38  1  0  0  0
 12 17  1  0  0  0
 12 13  1  0  0  0
 13 14  2  0  0  0
 13 39  1  0  0  0
 14 40  1  0  0  0
 17 18  1  0  0  0
 18 19  2  0  0  0
 18 23  1  0  0  0
 19 20  1  0  0  0
 19 41  1  0  0  0
 20 21  2  0  0  0
 20 42  1  0  0  0
 21 22  1  0  0  0
 21 24  1  0  0  0
 22 23  2  0  0  0
 22 43  1  0  0  0
 23 44  1  0  0  0
 25 27  1  0  0  0
 25 45  1  0  0  0
 27 46  1  0  0  0
 28 47  1  0  0  0
 28 48  1  0  0  0
 28 49  1  0  0  0
M  END
> <s_m_entry_id>
64102

> <s_m_entry_name>
dock_pv.52

> <s_m_Source_Path>
/home/csk/Desktop/cluster/DUD-E-result/mmp13

> <s_m_Source_File>
dock_pv.maegz

> <i_m_Source_File_Index>
52

> <chembl_id>
CHEMBL78337

> <chembl_pref_name>
None

> <i_lp_mmshare_version>
53161

> <i_f3d_flags>
0

> <r_lp_tautomer_probability>
1

> <s_lp_Force_Field>
OPLS_2005

> <r_lp_Energy>
34.749429

> <b_lp_Chiralities_Consistent>
1

> <s_lp_Variant>
CHEMBL280_lig71-1

> <s_i_glide_gridfile>
glide-grid_830c

> <i_i_glide_lignum>
93

> <i_i_glide_rotatable_bonds>
7

> <r_i_docking_score>
-8.09943348479674

> <r_i_glide_ligand_efficiency>
-0.289265481599884

> <r_i_glide_ligand_efficiency_sa>
-0.878380370394861

> <r_i_glide_ligand_efficiency_ln>
-1.86958705799168

> <r_i_glide_gscore>
-8.09943348479674

> <r_i_glide_lipo>
-3.17391810798288

> <r_i_glide_hbond>
-0.121839042327894

> <r_i_glide_metal>
0

> <r_i_glide_rewards>
-0.561965775105382

> <r_i_glide_evdw>
-38.8036804199219

> <r_i_glide_ecoul>
-18.198278427124

> <r_i_glide_erotb>
0.659106540757407

> <r_i_glide_esite>
-0.230891315073298

> <r_i_glide_emodel>
-86.9565138593407

> <r_i_glide_energy>
-57.0019588470459

> <r_i_glide_einternal>
6.53776454925537

> <i_i_glide_confnum>
15

> <i_i_glide_posenum>
291

> <r_i_glide_eff_state_penalty>
0

> <s_user_duplicate_titles>
CHEMBL280_lig71,126441

> <s_m_subgroup_title>
dock_pv

> <s_m_subgroupid>
dock_pv

> <b_m_subgroup_collapsed>
1

$$$$
CHEMBL280_lig1735
                    3D
 Schrodinger Suite 2021-1.
 62 65  0  0  1  0            999 V2000
   -3.4414   28.5118   56.8019 C   0  0  0  0  0  0
   -3.1385   29.6247   55.7804 C   0  0  0  0  0  0
   -3.3761   31.0632   56.2907 C   0  0  0  0  0  0
   -2.6977   31.3166   57.5716 N   0  0  2  0  0  0
   -2.9974   30.3084   58.6009 C   0  0  0  0  0  0
   -2.7030   28.8737   58.1192 C   0  0  0  0  0  0
   -5.3327   28.3675   57.1789 S   0  0  0  0  0  0
   -5.5187   27.3699   58.2409 O   0  0  0  0  0  0
   -5.9127   29.7022   57.3562 O   0  0  0  0  0  0
   -6.0874   27.6922   55.6991 C   0  0  0  0  0  0
   -6.1512   26.3107   55.5421 C   0  0  0  0  0  0
   -6.7390   25.7700   54.4066 C   0  0  0  0  0  0
   -7.3087   26.5939   53.4390 C   0  0  0  0  0  0
   -7.2552   27.9851   53.6081 C   0  0  0  0  0  0
   -6.6318   28.5349   54.7273 C   0  0  0  0  0  0
   -7.9393   25.9597   52.3854 O   0  0  0  0  0  0
   -2.9263   27.1766   56.2035 C   0  0  0  0  0  0
   -2.7391   27.0310   54.9811 O   0  0  0  0  0  0
   -2.7389   26.1731   57.0625 N   0  0  0  0  0  0
   -2.3390   24.9700   56.5207 O   0  0  0  0  0  0
   -8.2695   26.5991   51.2109 C   0  0  0  0  0  0
   -7.3449   27.3774   50.5136 C   0  0  0  0  0  0
   -7.6991   27.9766   49.3100 C   0  0  0  0  0  0
   -8.9836   27.7938   48.7785 C   0  0  0  0  0  0
   -9.8971   26.9973   49.4694 C   0  0  0  0  0  0
   -9.5385   26.3947   50.6735 C   0  0  0  0  0  0
   -3.0087   32.6763   58.0372 C   0  0  0  0  0  0
   -2.1942   33.1076   59.2531 C   0  0  0  0  0  0
   -9.4179   28.3544   47.5934 O   0  0  0  0  0  0
   -8.5225   29.1799   46.8517 C   0  0  0  0  0  0
   -2.7852   33.1903   60.5190 C   0  0  0  0  0  0
   -1.9882   33.5572   61.6052 C   0  0  0  0  0  0
   -0.6344   33.8329   61.4018 C   0  0  0  0  0  0
   -0.1201   33.7304   60.1077 C   0  0  0  0  0  0
   -0.8770   33.3721   59.0388 N   0  0  0  0  0  0
   -3.7371   29.3700   54.9103 H   0  0  0  0  0  0
   -2.1121   29.5808   55.4087 H   0  0  0  0  0  0
   -4.4412   31.2793   56.3674 H   0  0  0  0  0  0
   -2.9938   31.7741   55.5565 H   0  0  0  0  0  0
   -2.3931   30.5119   59.4862 H   0  0  0  0  0  0
   -4.0364   30.4038   58.9214 H   0  0  0  0  0  0
   -1.6220   28.7443   58.0348 H   0  0  0  0  0  0
   -2.9993   28.1841   58.9099 H   0  0  0  0  0  0
   -5.7381   25.6532   56.2938 H   0  0  0  0  0  0
   -6.7476   24.6964   54.2825 H   0  0  0  0  0  0
   -7.7006   28.6431   52.8790 H   0  0  0  0  0  0
   -6.5877   29.6087   54.8455 H   0  0  0  0  0  0
   -3.0126   26.1062   58.0374 H   0  0  0  0  0  0
   -3.1599   24.4425   56.5100 H   0  0  0  0  0  0
   -6.3470   27.5205   50.9019 H   0  0  0  0  0  0
   -6.9578   28.5787   48.8065 H   0  0  0  0  0  0
  -10.8874   26.8475   49.0642 H   0  0  0  0  0  0
  -10.2479   25.7700   51.1956 H   0  0  0  0  0  0
   -4.0743   32.7615   58.2608 H   0  0  0  0  0  0
   -2.8092   33.3932   57.2384 H   0  0  0  0  0  0
   -9.0112   29.5170   45.9375 H   0  0  0  0  0  0
   -8.2370   30.0673   47.4193 H   0  0  0  0  0  0
   -7.6200   28.6383   46.5619 H   0  0  0  0  0  0
   -3.8322   32.9638   60.6611 H   0  0  0  0  0  0
   -2.4152   33.6236   62.5953 H   0  0  0  0  0  0
    0.0004   34.1175   62.2279 H   0  0  0  0  0  0
    0.9217   33.9346   59.9099 H   0  0  0  0  0  0
  1 17  1  0  0  0
  1  6  1  0  0  0
  1  7  1  0  0  0
  1  2  1  0  0  0
  2  3  1  0  0  0
  2 36  1  0  0  0
  2 37  1  0  0  0
  3  4  1  0  0  0
  3 38  1  0  0  0
  3 39  1  0  0  0
  4  5  1  0  0  0
  4 27  1  0  0  0
  5  6  1  0  0  0
  5 40  1  0  0  0
  5 41  1  0  0  0
  6 42  1  0  0  0
  6 43  1  0  0  0
  7  8  2  0  0  0
  7  9  2  0  0  0
  7 10  1  0  0  0
 10 11  2  0  0  0
 10 15  1  0  0  0
 11 12  1  0  0  0
 11 44  1  0  0  0
 12 13  2  0  0  0
 12 45  1  0  0  0
 13 14  1  0  0  0
 13 16  1  0  0  0
 14 15  2  0  0  0
 14 46  1  0  0  0
 15 47  1  0  0  0
 16 21  1  0  0  0
 17 18  2  0  0  0
 17 19  1  0  0  0
 19 20  1  0  0  0
 19 48  1  0  0  0
 20 49  1  0  0  0
 21 22  2  0  0  0
 21 26  1  0  0  0
 22 23  1  0  0  0
 22 50  1  0  0  0
 23 24  2  0  0  0
 23 51  1  0  0  0
 24 25  1  0  0  0
 24 29  1  0  0  0
 25 26  2  0  0  0
 25 52  1  0  0  0
 26 53  1  0  0  0
 27 28  1  0  0  0
 27 54  1  0  0  0
 27 55  1  0  0  0
 28 31  2  0  0  0
 28 35  1  0  0  0
 29 30  1  0  0  0
 30 56  1  0  0  0
 30 57  1  0  0  0
 30 58  1  0  0  0
 31 32  1  0  0  0
 31 59  1  0  0  0
 32 33  2  0  0  0
 32 60  1  0  0  0
 33 34  1  0  0  0
 33 61  1  0  0  0
 34 35  2  0  0  0
 34 62  1  0  0  0
M  END
> <s_m_entry_id>
64103

> <s_m_entry_name>
dock_pv.53

> <s_m_Source_Path>
/home/csk/Desktop/cluster/DUD-E-result/mmp13

> <s_m_Source_File>
dock_pv.maegz

> <i_m_Source_File_Index>
53

> <chembl_id>
CHEMBL1801057

> <chembl_pref_name>
None

> <i_lp_mmshare_version>
53161

> <i_f3d_flags>
0

> <r_lp_tautomer_probability>
1

> <s_lp_Force_Field>
OPLS_2005

> <r_lp_Energy>
37.517826

> <b_lp_Chiralities_Consistent>
1

> <s_lp_Variant>
CHEMBL280_lig1735-1

> <s_i_glide_gridfile>
glide-grid_830c

> <i_i_glide_lignum>
2486

> <i_i_glide_rotatable_bonds>
10

> <r_i_docking_score>
-8.07903834891251

> <r_i_glide_ligand_efficiency>
-0.230829667111786

> <r_i_glide_ligand_efficiency_sa>
-0.755059146586578

> <r_i_glide_ligand_efficiency_ln>
-1.77352822218177

> <r_i_glide_gscore>
-8.07903834891251

> <r_i_glide_lipo>
-3.19293341846502

> <r_i_glide_hbond>
-0.140147206844751

> <r_i_glide_metal>
0

> <r_i_glide_rewards>
-0.0166064681291357

> <r_i_glide_evdw>
-42.4940376281738

> <r_i_glide_ecoul>
-20.1867332458496

> <r_i_glide_erotb>
0.659207420249393

> <r_i_glide_esite>
-0.235846807436868

> <r_i_glide_emodel>
-92.0204246862658

> <r_i_glide_energy>
-62.6807708740234

> <r_i_glide_einternal>
8.98776912689209

> <i_i_glide_confnum>
6

> <i_i_glide_posenum>
59

> <r_i_glide_eff_state_penalty>
0

> <s_user_duplicate_titles>
CHEMBL280_lig1735

> <s_m_subgroup_title>
dock_pv

> <s_m_subgroupid>
dock_pv

> <b_m_subgroup_collapsed>
1

$$$$
CHEMBL280_lig1774
                    3D
 Schrodinger Suite 2021-1.
 44 46  0  0  1  0            999 V2000
   -6.6732   30.3396   57.0044 O   0  0  0  0  0  0
   -5.8732   29.1106   56.9950 S   0  0  0  0  0  0
   -5.8830   28.1954   58.1438 O   0  0  0  0  0  0
   -7.4642   27.4118   50.3691 C   0  0  0  0  0  0
   -7.9384   27.9663   49.1834 C   0  0  0  0  0  0
   -9.2262   27.6659   48.7463 C   0  0  0  0  0  0
  -10.0337   26.8007   49.4803 C   0  0  0  0  0  0
   -9.5521   26.2417   50.6631 C   0  0  0  0  0  0
   -8.2816   26.5695   51.1296 C   0  0  0  0  0  0
   -7.8524   26.0068   52.3143 O   0  0  0  0  0  0
   -7.3482   26.7637   53.3556 C   0  0  0  0  0  0
   -6.7388   26.0855   54.4153 C   0  0  0  0  0  0
   -6.2685   26.7810   55.5284 C   0  0  0  0  0  0
   -6.3917   28.1711   55.5700 C   0  0  0  0  0  0
   -6.9714   28.8595   54.5070 C   0  0  0  0  0  0
   -7.4597   28.1570   53.4136 C   0  0  0  0  0  0
   -4.2087   29.5764   56.6516 N   0  0  3  0  0  0
   -3.0740   28.7103   57.0461 C   0  0  2  0  0  0
   -1.8220   29.5520   57.3664 C   0  0  0  0  0  0
   -0.6240   28.7820   57.9109 C   0  0  0  0  0  0
   -2.8393   27.6101   55.9820 C   0  0  0  0  0  0
   -0.5322   27.4505   58.1139 C   0  0  0  0  0  0
   -2.2424   26.5083   56.4989 N   0  0  0  0  0  0
   -1.5917   26.3881   57.8199 C   0  0  0  0  0  0
   -3.1435   27.7152   54.7870 O   0  0  0  0  0  0
   -2.3390   25.3664   55.7100 O   0  0  0  0  0  0
   -9.8263   28.3666   47.2898 Cl  0  0  0  0  0  0
   -6.4645   27.6514   50.7027 H   0  0  0  0  0  0
   -7.3087   28.6337   48.6108 H   0  0  0  0  0  0
  -11.0295   26.5709   49.1310 H   0  0  0  0  0  0
  -10.1746   25.5668   51.2336 H   0  0  0  0  0  0
   -6.6432   25.0090   54.3829 H   0  0  0  0  0  0
   -5.8197   26.2381   56.3475 H   0  0  0  0  0  0
   -7.0629   29.9359   54.5345 H   0  0  0  0  0  0
   -7.9381   28.7015   52.6185 H   0  0  0  0  0  0
   -4.0488   30.3215   55.9654 H   0  0  0  0  0  0
   -3.3907   28.2389   57.9764 H   0  0  0  0  0  0
   -2.0774   30.3161   58.1026 H   0  0  0  0  0  0
   -1.4965   30.0930   56.4772 H   0  0  0  0  0  0
    0.2329   29.3809   58.1875 H   0  0  0  0  0  0
    0.3886   27.0904   58.5483 H   0  0  0  0  0  0
   -2.3319   26.3577   58.6223 H   0  0  0  0  0  0
   -1.0870   25.4241   57.8763 H   0  0  0  0  0  0
   -3.0805   24.8779   56.1091 H   0  0  0  0  0  0
  1  2  2  0  0  0
  2 14  1  0  0  0
  2 17  1  0  0  0
  2  3  2  0  0  0
  4  5  2  0  0  0
  4  9  1  0  0  0
  4 28  1  0  0  0
  5  6  1  0  0  0
  5 29  1  0  0  0
  6  7  2  0  0  0
  6 27  1  0  0  0
  7  8  1  0  0  0
  7 30  1  0  0  0
  8  9  2  0  0  0
  8 31  1  0  0  0
  9 10  1  0  0  0
 10 11  1  0  0  0
 11 16  1  0  0  0
 11 12  2  0  0  0
 12 13  1  0  0  0
 12 32  1  0  0  0
 13 14  2  0  0  0
 13 33  1  0  0  0
 14 15  1  0  0  0
 15 16  2  0  0  0
 15 34  1  0  0  0
 16 35  1  0  0  0
 17 18  1  0  0  0
 17 36  1  0  0  0
 18 19  1  0  0  0
 18 21  1  0  0  0
 18 37  1  0  0  0
 19 20  1  0  0  0
 19 38  1  0  0  0
 19 39  1  0  0  0
 20 22  2  0  0  0
 20 40  1  0  0  0
 21 23  1  0  0  0
 21 25  2  0  0  0
 22 24  1  0  0  0
 22 41  1  0  0  0
 23 24  1  0  0  0
 23 26  1  0  0  0
 24 42  1  0  0  0
 24 43  1  0  0  0
 26 44  1  0  0  0
M  END
> <s_m_entry_id>
64104

> <s_m_entry_name>
dock_pv.54

> <s_m_Source_Path>
/home/csk/Desktop/cluster/DUD-E-result/mmp13

> <s_m_Source_File>
dock_pv.maegz

> <i_m_Source_File_Index>
54

> <chembl_id>
CHEMBL1916050

> <chembl_pref_name>
None

> <i_lp_mmshare_version>
53161

> <i_f3d_flags>
0

> <r_lp_tautomer_probability>
1

> <s_lp_Force_Field>
OPLS_2005

> <r_lp_Energy>
27.009762

> <b_lp_Chiralities_Consistent>
1

> <s_lp_Variant>
CHEMBL280_lig1774-1

> <s_i_glide_gridfile>
glide-grid_830c

> <i_i_glide_lignum>
2526

> <i_i_glide_rotatable_bonds>
6

> <r_i_docking_score>
-8.07774806056113

> <r_i_glide_ligand_efficiency>
-0.299175854094857

> <r_i_glide_ligand_efficiency_sa>
-0.897527561298535

> <r_i_glide_ligand_efficiency_ln>
-1.88036657641389

> <r_i_glide_gscore>
-8.07774806056113

> <r_i_glide_lipo>
-3.32638624804057

> <r_i_glide_hbond>
-0.0985743433762221

> <r_i_glide_metal>
0

> <r_i_glide_rewards>
-0.665275851881445

> <r_i_glide_evdw>
-51.9233627319336

> <r_i_glide_ecoul>
-11.7530832290649

> <r_i_glide_erotb>
0.588802317731496

> <r_i_glide_esite>
-0.217183314037968

> <r_i_glide_emodel>
-97.4830618456867

> <r_i_glide_energy>
-63.6764459609985

> <r_i_glide_einternal>
4.4510440826416

> <i_i_glide_confnum>
22

> <i_i_glide_posenum>
98

> <r_i_glide_eff_state_penalty>
0

> <s_user_duplicate_titles>
CHEMBL280_lig1774

> <s_m_subgroup_title>
dock_pv

> <s_m_subgroupid>
dock_pv

> <b_m_subgroup_collapsed>
1

$$$$
CHEMBL280_lig238
                    3D
 Schrodinger Suite 2021-1.
 40 42  0  0  1  0            999 V2000
   -5.4007   27.8814   56.9884 C   0  0  0  0  0  0
   -5.4474   27.3930   55.7252 N   0  0  0  0  0  0
   -4.1213   27.7210   57.3623 N   0  0  0  0  0  0
   -3.2105   27.5377   56.2484 C   0  0  1  0  0  0
   -2.0592   26.5599   56.5797 C   0  0  0  0  0  0
   -4.1621   26.9700   55.2136 C   0  0  0  0  0  0
   -6.6715   26.7769   55.2059 C   0  0  0  0  0  0
   -6.3390   28.1700   57.7241 O   0  0  0  0  0  0
   -1.6807   25.7700   55.7100 O   0  0  0  0  0  0
   -7.8558   27.3369   51.0550 C   0  0  0  0  0  0
   -8.4081   27.5674   49.6724 C   0  0  0  0  0  0
   -1.4924   26.6363   57.7995 N   0  0  0  0  0  0
   -8.3492   26.2961   51.8463 C   0  0  0  0  0  0
   -6.8718   28.1644   51.6256 C   0  0  0  0  0  0
   -7.7068   28.3171   48.7159 C   0  0  0  0  0  0
   -9.6712   27.0681   49.3055 C   0  0  0  0  0  0
   -7.0102   27.0005   53.7338 C   0  0  0  0  0  0
   -9.4859   28.0562   47.1187 C   0  0  0  0  0  0
   -6.4573   28.0119   52.9496 C   0  0  0  0  0  0
   -7.9390   26.1458   53.1622 C   0  0  0  0  0  0
  -10.2015   27.3018   48.0397 C   0  0  0  0  0  0
   -8.2396   28.5700   47.4544 C   0  0  0  0  0  0
  -10.0080   28.2925   45.8944 F   0  0  0  0  0  0
   -0.4282   25.7700   58.0997 O   0  0  0  0  0  0
   -3.7867   28.2492   58.1534 H   0  0  0  0  0  0
   -2.7690   28.4880   55.9397 H   0  0  0  0  0  0
   -3.9850   27.3778   54.2184 H   0  0  0  0  0  0
   -4.1573   25.8780   55.1654 H   0  0  0  0  0  0
   -6.5743   25.7009   55.3660 H   0  0  0  0  0  0
   -7.5390   27.0853   55.7885 H   0  0  0  0  0  0
   -1.7244   27.2612   58.5585 H   0  0  0  0  0  0
   -9.0754   25.5963   51.4633 H   0  0  0  0  0  0
   -6.4400   28.9700   51.0589 H   0  0  0  0  0  0
   -6.7390   28.7302   48.9400 H   0  0  0  0  0  0
  -10.2779   26.5075   49.9989 H   0  0  0  0  0  0
   -5.7336   28.6977   53.3627 H   0  0  0  0  0  0
   -8.3793   25.3700   53.7529 H   0  0  0  0  0  0
  -11.1767   26.9181   47.7791 H   0  0  0  0  0  0
   -7.6816   29.1535   46.7358 H   0  0  0  0  0  0
    0.3482   26.3388   58.0903 H   0  0  0  0  0  0
  1  2  1  0  0  0
  1  3  1  0  0  0
  1  8  2  0  0  0
  2  6  1  0  0  0
  2  7  1  0  0  0
  3  4  1  0  0  0
  3 25  1  0  0  0
  4  5  1  0  0  0
  4  6  1  0  0  0
  4 26  1  0  0  0
  5  9  2  0  0  0
  5 12  1  0  0  0
  6 27  1  0  0  0
  6 28  1  0  0  0
  7 17  1  0  0  0
  7 29  1  0  0  0
  7 30  1  0  0  0
 10 13  1  0  0  0
 10 11  1  0  0  0
 10 14  2  0  0  0
 11 15  2  0  0  0
 11 16  1  0  0  0
 12 24  1  0  0  0
 12 31  1  0  0  0
 13 20  2  0  0  0
 13 32  1  0  0  0
 14 19  1  0  0  0
 14 33  1  0  0  0
 15 22  1  0  0  0
 15 34  1  0  0  0
 16 21  2  0  0  0
 16 35  1  0  0  0
 17 19  2  0  0  0
 17 20  1  0  0  0
 18 21  1  0  0  0
 18 23  1  0  0  0
 18 22  2  0  0  0
 19 36  1  0  0  0
 20 37  1  0  0  0
 21 38  1  0  0  0
 22 39  1  0  0  0
 24 40  1  0  0  0
M  END
> <s_m_entry_id>
64105

> <s_m_entry_name>
dock_pv.55

> <s_m_Source_Path>
/home/csk/Desktop/cluster/DUD-E-result/mmp13

> <s_m_Source_File>
dock_pv.maegz

> <i_m_Source_File_Index>
55

> <chembl_id>
CHEMBL279176

> <chembl_pref_name>
None

> <i_lp_mmshare_version>
53161

> <i_f3d_flags>
0

> <r_lp_tautomer_probability>
1

> <s_lp_Force_Field>
OPLS_2005

> <r_lp_Energy>
51.038243

> <b_lp_Chiralities_Consistent>
1

> <s_lp_Variant>
CHEMBL280_lig238-1

> <s_i_glide_gridfile>
glide-grid_830c

> <i_i_glide_lignum>
334

> <i_i_glide_rotatable_bonds>
6

> <r_i_docking_score>
-8.07060469419121

> <r_i_glide_ligand_efficiency>
-0.336275195591301

> <r_i_glide_ligand_efficiency_sa>
-0.96998551166563

> <r_i_glide_ligand_efficiency_ln>
-1.93166603923796

> <r_i_glide_gscore>
-8.07060469419121

> <r_i_glide_lipo>
-3.60871818743475

> <r_i_glide_hbond>
-0.163151036902284

> <r_i_glide_metal>
0

> <r_i_glide_rewards>
-1.21814984868243

> <r_i_glide_evdw>
-44.2027435302734

> <r_i_glide_ecoul>
-10.7261610031128

> <r_i_glide_erotb>
0.866410508716883

> <r_i_glide_esite>
-0.127934802908042

> <r_i_glide_emodel>
-81.4219973715853

> <r_i_glide_energy>
-54.9289045333862

> <r_i_glide_einternal>
4.18128538131714

> <i_i_glide_confnum>
150

> <i_i_glide_posenum>
274

> <r_i_glide_eff_state_penalty>
0

> <s_user_duplicate_titles>
CHEMBL280_lig238,23164

> <s_m_subgroup_title>
dock_pv

> <s_m_subgroupid>
dock_pv

> <b_m_subgroup_collapsed>
1

$$$$
CHEMBL280_lig440
                    3D
 Schrodinger Suite 2021-1.
 42 43  0  0  1  0            999 V2000
   -7.5054   26.7578   53.3646 S   0  0  0  0  0  0
   -5.3487   27.6389   55.1421 C   0  0  1  0  0  0
   -5.9131   27.7388   53.6769 C   0  0  0  0  0  0
   -3.8200   27.3076   55.1205 C   0  0  0  0  0  0
   -7.9467   26.9521   51.6439 C   0  0  0  0  0  0
   -7.1944   25.3389   53.5349 O   0  0  0  0  0  0
   -8.6076   27.3691   54.1099 O   0  0  0  0  0  0
   -3.0422   28.0430   54.5100 O   0  0  0  0  0  0
   -3.3838   26.1723   55.7062 N   0  0  0  0  0  0
   -5.4876   28.9713   55.7127 N   0  0  0  0  0  0
   -9.1385   26.3698   51.2124 C   0  0  0  0  0  0
   -7.1500   27.6608   50.7468 C   0  0  0  0  0  0
   -9.2644   27.3727   47.7144 O   0  0  0  0  0  0
   -8.7805   27.2726   49.0015 C   0  0  0  0  0  0
   -6.1373   26.7306   56.1232 C   0  0  0  0  0  0
   -7.5462   27.7832   49.4183 C   0  0  0  0  0  0
   -9.5592   26.5522   49.9001 C   0  0  0  0  0  0
   -9.0431   28.4510   46.8818 C   0  0  0  0  0  0
   -2.0050   25.8917   55.7116 O   0  0  0  0  0  0
   -9.2364   28.2267   45.5186 C   0  0  0  0  0  0
   -8.7088   29.7387   47.3265 C   0  0  0  0  0  0
   -8.5313   30.7719   46.4096 C   0  0  0  0  0  0
   -9.0828   29.2627   44.6026 C   0  0  0  0  0  0
   -8.7310   30.5326   45.0528 C   0  0  0  0  0  0
   -6.1373   28.7642   53.3784 H   0  0  0  0  0  0
   -5.2063   27.3591   52.9415 H   0  0  0  0  0  0
   -3.9432   25.4580   56.1726 H   0  0  0  0  0  0
   -5.1149   29.0206   56.6493 H   0  0  0  0  0  0
   -5.0018   29.6596   55.1402 H   0  0  0  0  0  0
   -9.7460   25.7900   51.8942 H   0  0  0  0  0  0
   -6.2205   28.1090   51.0520 H   0  0  0  0  0  0
   -6.1451   25.6897   55.8035 H   0  0  0  0  0  0
   -5.7180   26.7435   57.1308 H   0  0  0  0  0  0
   -7.1738   27.0419   56.2234 H   0  0  0  0  0  0
   -6.8988   28.2990   48.7238 H   0  0  0  0  0  0
  -10.4947   26.1322   49.5676 H   0  0  0  0  0  0
   -1.7505   26.0643   56.6272 H   0  0  0  0  0  0
   -9.5082   27.2403   45.1732 H   0  0  0  0  0  0
   -8.5998   29.9567   48.3778 H   0  0  0  0  0  0
   -8.2652   31.7629   46.7498 H   0  0  0  0  0  0
   -9.2236   29.0799   43.5478 H   0  0  0  0  0  0
   -8.6017   31.3380   44.3443 H   0  0  0  0  0  0
  1  3  1  0  0  0
  1  5  1  0  0  0
  1  6  2  0  0  0
  1  7  2  0  0  0
  2  3  1  0  0  0
  2  4  1  0  0  0
  2 10  1  0  0  0
  2 15  1  0  0  0
  3 25  1  0  0  0
  3 26  1  0  0  0
  4  8  2  0  0  0
  4  9  1  0  0  0
  5 11  1  0  0  0
  5 12  2  0  0  0
  9 19  1  0  0  0
  9 27  1  0  0  0
 10 28  1  0  0  0
 10 29  1  0  0  0
 11 17  2  0  0  0
 11 30  1  0  0  0
 12 16  1  0  0  0
 12 31  1  0  0  0
 13 14  1  0  0  0
 13 18  1  0  0  0
 14 16  2  0  0  0
 14 17  1  0  0  0
 15 32  1  0  0  0
 15 33  1  0  0  0
 15 34  1  0  0  0
 16 35  1  0  0  0
 17 36  1  0  0  0
 18 20  1  0  0  0
 18 21  2  0  0  0
 19 37  1  0  0  0
 20 23  2  0  0  0
 20 38  1  0  0  0
 21 22  1  0  0  0
 21 39  1  0  0  0
 22 24  2  0  0  0
 22 40  1  0  0  0
 23 24  1  0  0  0
 23 41  1  0  0  0
 24 42  1  0  0  0
M  END
> <s_m_entry_id>
64106

> <s_m_entry_name>
dock_pv.56

> <s_m_Source_Path>
/home/csk/Desktop/cluster/DUD-E-result/mmp13

> <s_m_Source_File>
dock_pv.maegz

> <i_m_Source_File_Index>
56

> <chembl_id>
CHEMBL91434

> <chembl_pref_name>
None

> <i_lp_mmshare_version>
53161

> <i_f3d_flags>
0

> <r_lp_tautomer_probability>
1

> <s_lp_Force_Field>
OPLS_2005

> <r_lp_Energy>
31.918532

> <b_lp_Chiralities_Consistent>
1

> <s_lp_Variant>
CHEMBL280_lig440-1

> <s_i_glide_gridfile>
glide-grid_830c

> <i_i_glide_lignum>
621

> <i_i_glide_rotatable_bonds>
8

> <r_i_docking_score>
-8.05693402281293

> <r_i_glide_ligand_efficiency>
-0.335705584283872

> <r_i_glide_ligand_efficiency_sa>
-0.968342468340609

> <r_i_glide_ligand_efficiency_ln>
-1.92839402027091

> <r_i_glide_gscore>
-8.05693402281293

> <r_i_glide_lipo>
-3.00499924883609

> <r_i_glide_hbond>
-0.417556560845961

> <r_i_glide_metal>
0

> <r_i_glide_rewards>
-1.07411000647884

> <r_i_glide_evdw>
-48.8797988891602

> <r_i_glide_ecoul>
-13.3534030914307

> <r_i_glide_erotb>
1.08673220152057

> <r_i_glide_esite>
-0.2

> <r_i_glide_emodel>
-92.4767152132479

> <r_i_glide_energy>
-62.2332019805908

> <r_i_glide_einternal>
10.015435218811

> <i_i_glide_confnum>
83

> <i_i_glide_posenum>
70

> <r_i_glide_eff_state_penalty>
0

> <s_user_duplicate_titles>
CHEMBL280_lig440,149049

> <s_m_subgroup_title>
dock_pv

> <s_m_subgroupid>
dock_pv

> <b_m_subgroup_collapsed>
1

$$$$
CHEMBL280_lig239
                    3D
 Schrodinger Suite 2021-1.
 41 43  0  0  1  0            999 V2000
   -6.0602   26.7024   56.0483 C   0  0  0  0  0  0
   -5.7062   27.8394   55.3967 N   0  0  0  0  0  0
   -5.1493   26.5700   57.0275 N   0  0  0  0  0  0
   -4.0707   27.5325   57.0110 C   0  0  1  0  0  0
   -2.7646   26.8823   56.5008 C   0  0  0  0  0  0
   -4.6495   28.5722   56.0734 C   0  0  0  0  0  0
   -6.6722   28.5935   54.5907 C   0  0  0  0  0  0
   -7.0668   26.0167   55.9001 O   0  0  0  0  0  0
   -2.6363   26.5700   55.3100 O   0  0  0  0  0  0
   -1.8088   26.6852   57.4253 N   0  0  0  0  0  0
   -8.6227   26.3360   49.7510 O   0  0  0  0  0  0
   -7.1359   27.9109   53.3111 C   0  0  0  0  0  0
   -8.1137   26.8764   50.9082 C   0  0  0  0  0  0
   -9.1489   27.1134   48.7358 C   0  0  0  0  0  0
  -10.1764   28.3954   46.4773 C   0  0  0  0  0  0
  -10.6707   29.0066   45.3775 F   0  0  0  0  0  0
   -0.5728   26.1700   57.0102 O   0  0  0  0  0  0
   -6.4627   28.1602   52.1172 C   0  0  0  0  0  0
   -8.2797   27.1126   53.3067 C   0  0  0  0  0  0
   -8.6073   28.3354   48.3054 C   0  0  0  0  0  0
   -8.7390   26.5700   52.1102 C   0  0  0  0  0  0
  -10.2311   26.5700   48.0412 C   0  0  0  0  0  0
   -6.9497   27.6378   50.9240 C   0  0  0  0  0  0
   -9.1179   28.9696   47.1753 C   0  0  0  0  0  0
  -10.7390   27.2001   46.9099 C   0  0  0  0  0  0
   -4.9715   25.6602   57.4410 H   0  0  0  0  0  0
   -3.9091   27.9572   58.0038 H   0  0  0  0  0  0
   -5.0742   29.4120   56.6265 H   0  0  0  0  0  0
   -3.9253   28.9699   55.3599 H   0  0  0  0  0  0
   -7.5390   28.8269   55.2086 H   0  0  0  0  0  0
   -6.2488   29.5617   54.3258 H   0  0  0  0  0  0
   -1.8423   26.9083   58.4113 H   0  0  0  0  0  0
    0.0380   26.9054   57.1220 H   0  0  0  0  0  0
   -5.5613   28.7511   52.1065 H   0  0  0  0  0  0
   -8.8070   26.9114   54.2274 H   0  0  0  0  0  0
   -7.7753   28.8041   48.8027 H   0  0  0  0  0  0
   -9.6068   25.9286   52.1054 H   0  0  0  0  0  0
  -10.6441   25.6243   48.3558 H   0  0  0  0  0  0
   -6.3906   27.7788   50.0127 H   0  0  0  0  0  0
   -8.6877   29.9003   46.8345 H   0  0  0  0  0  0
  -11.5624   26.7639   46.3656 H   0  0  0  0  0  0
  1  2  1  0  0  0
  1  3  1  0  0  0
  1  8  2  0  0  0
  2  6  1  0  0  0
  2  7  1  0  0  0
  3  4  1  0  0  0
  3 26  1  0  0  0
  4  5  1  0  0  0
  4  6  1  0  0  0
  4 27  1  0  0  0
  5  9  2  0  0  0
  5 10  1  0  0  0
  6 28  1  0  0  0
  6 29  1  0  0  0
  7 12  1  0  0  0
  7 30  1  0  0  0
  7 31  1  0  0  0
 10 17  1  0  0  0
 10 32  1  0  0  0
 11 13  1  0  0  0
 11 14  1  0  0  0
 12 18  2  0  0  0
 12 19  1  0  0  0
 13 21  1  0  0  0
 13 23  2  0  0  0
 14 20  2  0  0  0
 14 22  1  0  0  0
 15 25  1  0  0  0
 15 16  1  0  0  0
 15 24  2  0  0  0
 17 33  1  0  0  0
 18 23  1  0  0  0
 18 34  1  0  0  0
 19 21  2  0  0  0
 19 35  1  0  0  0
 20 24  1  0  0  0
 20 36  1  0  0  0
 21 37  1  0  0  0
 22 25  2  0  0  0
 22 38  1  0  0  0
 23 39  1  0  0  0
 24 40  1  0  0  0
 25 41  1  0  0  0
M  END
> <s_m_entry_id>
64107

> <s_m_entry_name>
dock_pv.57

> <s_m_Source_Path>
/home/csk/Desktop/cluster/DUD-E-result/mmp13

> <s_m_Source_File>
dock_pv.maegz

> <i_m_Source_File_Index>
57

> <chembl_id>
CHEMBL283580

> <chembl_pref_name>
None

> <i_lp_mmshare_version>
53161

> <i_f3d_flags>
0

> <r_lp_tautomer_probability>
1

> <s_lp_Force_Field>
OPLS_2005

> <r_lp_Energy>
44.984111

> <b_lp_Chiralities_Consistent>
1

> <s_lp_Variant>
CHEMBL280_lig239-1

> <s_i_glide_gridfile>
glide-grid_830c

> <i_i_glide_lignum>
335

> <i_i_glide_rotatable_bonds>
7

> <r_i_docking_score>
-8.0453460772941

> <r_i_glide_ligand_efficiency>
-0.321813843091764

> <r_i_glide_ligand_efficiency_sa>
-0.940989384593127

> <r_i_glide_ligand_efficiency_ln>
-1.9069881198851

> <r_i_glide_gscore>
-8.0453460772941

> <r_i_glide_lipo>
-3.47382880052458

> <r_i_glide_hbond>
-0.301694023408619

> <r_i_glide_metal>
0

> <r_i_glide_rewards>
-1.20450907866128

> <r_i_glide_evdw>
-42.2456398010254

> <r_i_glide_ecoul>
-11.2513465881348

> <r_i_glide_erotb>
0.955899295817082

> <r_i_glide_esite>
-0.221229492245214

> <r_i_glide_emodel>
-81.2689418054401

> <r_i_glide_energy>
-53.4969863891602

> <r_i_glide_einternal>
8.80890369415283

> <i_i_glide_confnum>
38

> <i_i_glide_posenum>
326

> <r_i_glide_eff_state_penalty>
0

> <s_user_duplicate_titles>
CHEMBL280_lig239,23831

> <s_m_subgroup_title>
dock_pv

> <s_m_subgroupid>
dock_pv

> <b_m_subgroup_collapsed>
1

$$$$
CHEMBL280_lig441
                    3D
 Schrodinger Suite 2021-1.
 42 43  0  0  1  0            999 V2000
   -4.9804   27.8500   55.8775 S   0  0  0  0  0  0
   -4.9695   30.5039   57.0940 C   0  0  2  0  0  0
   -5.7872   29.5364   56.2156 C   0  0  0  0  0  0
   -5.6954   31.8928   57.0955 C   0  0  0  0  0  0
   -5.9695   27.3007   54.5042 C   0  0  0  0  0  0
   -3.6144   28.0110   55.3583 O   0  0  0  0  0  0
   -5.2554   26.9728   57.0205 O   0  0  0  0  0  0
   -5.5733   32.6581   56.1301 O   0  0  0  0  0  0
   -8.8542   26.1701   51.1492 S   0  0  0  0  0  0
   -6.5218   32.1621   58.1261 N   0  0  0  0  0  0
   -3.6482   30.6804   56.5102 N   0  0  0  0  0  0
   -6.7391   26.1509   54.5883 C   0  0  0  0  0  0
   -6.0316   28.0996   53.3671 C   0  0  0  0  0  0
   -7.6942   26.6606   52.4095 C   0  0  0  0  0  0
   -8.7595   27.2386   49.7299 C   0  0  0  0  0  0
   -4.7369   29.9246   58.5088 C   0  0  0  0  0  0
   -6.9198   27.8156   52.3413 C   0  0  0  0  0  0
   -7.5865   25.8401   53.5336 C   0  0  0  0  0  0
   -7.2235   33.3784   58.1296 O   0  0  0  0  0  0
   -7.5587   27.7700   49.2532 C   0  0  0  0  0  0
   -9.9391   27.4542   49.0179 C   0  0  0  0  0  0
   -9.9273   28.2191   47.8551 C   0  0  0  0  0  0
   -7.5508   28.5676   48.1100 C   0  0  0  0  0  0
   -8.7352   28.7878   47.4140 C   0  0  0  0  0  0
   -6.7634   29.3250   56.6519 H   0  0  0  0  0  0
   -5.9724   29.9957   55.2478 H   0  0  0  0  0  0
   -6.7003   31.5974   58.9516 H   0  0  0  0  0  0
   -3.2139   29.7699   56.4272 H   0  0  0  0  0  0
   -3.7928   30.9706   55.5456 H   0  0  0  0  0  0
   -6.6979   25.5133   55.4614 H   0  0  0  0  0  0
   -5.4176   28.9700   53.2996 H   0  0  0  0  0  0
   -5.6814   29.6665   58.9884 H   0  0  0  0  0  0
   -4.1364   29.0139   58.4866 H   0  0  0  0  0  0
   -4.2180   30.6319   59.1587 H   0  0  0  0  0  0
   -6.9964   28.5279   51.5380 H   0  0  0  0  0  0
   -8.1976   24.9701   53.6277 H   0  0  0  0  0  0
   -6.7551   33.9110   58.7792 H   0  0  0  0  0  0
   -6.6165   27.5404   49.7238 H   0  0  0  0  0  0
  -10.8683   27.0160   49.3541 H   0  0  0  0  0  0
  -10.8417   28.3791   47.3034 H   0  0  0  0  0  0
   -6.6193   28.9701   47.7416 H   0  0  0  0  0  0
   -8.7211   29.3873   46.5150 H   0  0  0  0  0  0
  1  3  1  0  0  0
  1  5  1  0  0  0
  1  6  2  0  0  0
  1  7  2  0  0  0
  2  3  1  0  0  0
  2  4  1  0  0  0
  2 11  1  0  0  0
  2 16  1  0  0  0
  3 25  1  0  0  0
  3 26  1  0  0  0
  4  8  2  0  0  0
  4 10  1  0  0  0
  5 12  2  0  0  0
  5 13  1  0  0  0
  9 14  1  0  0  0
  9 15  1  0  0  0
 10 19  1  0  0  0
 10 27  1  0  0  0
 11 28  1  0  0  0
 11 29  1  0  0  0
 12 18  1  0  0  0
 12 30  1  0  0  0
 13 17  2  0  0  0
 13 31  1  0  0  0
 14 17  1  0  0  0
 14 18  2  0  0  0
 15 20  1  0  0  0
 15 21  2  0  0  0
 16 32  1  0  0  0
 16 33  1  0  0  0
 16 34  1  0  0  0
 17 35  1  0  0  0
 18 36  1  0  0  0
 19 37  1  0  0  0
 20 23  2  0  0  0
 20 38  1  0  0  0
 21 22  1  0  0  0
 21 39  1  0  0  0
 22 24  2  0  0  0
 22 40  1  0  0  0
 23 24  1  0  0  0
 23 41  1  0  0  0
 24 42  1  0  0  0
M  END
> <s_m_entry_id>
64108

> <s_m_entry_name>
dock_pv.58

> <s_m_Source_Path>
/home/csk/Desktop/cluster/DUD-E-result/mmp13

> <s_m_Source_File>
dock_pv.maegz

> <i_m_Source_File_Index>
58

> <chembl_id>
CHEMBL90762

> <chembl_pref_name>
None

> <i_lp_mmshare_version>
53161

> <i_f3d_flags>
0

> <r_lp_tautomer_probability>
1

> <s_lp_Force_Field>
OPLS_2005

> <r_lp_Energy>
24.175876

> <b_lp_Chiralities_Consistent>
1

> <s_lp_Variant>
CHEMBL280_lig441-2

> <s_i_glide_gridfile>
glide-grid_830c

> <i_i_glide_lignum>
624

> <i_i_glide_rotatable_bonds>
8

> <r_i_docking_score>
-8.02202912822131

> <r_i_glide_ligand_efficiency>
-0.334251213675888

> <r_i_glide_ligand_efficiency_sa>
-0.964147337576187

> <r_i_glide_ligand_efficiency_ln>
-1.92003967731388

> <r_i_glide_gscore>
-8.02202912822131

> <r_i_glide_lipo>
-3.56412124550031

> <r_i_glide_hbond>
-0.608

> <r_i_glide_metal>
0

> <r_i_glide_rewards>
-1.10965472693694

> <r_i_glide_evdw>
-45.5812225341797

> <r_i_glide_ecoul>
-8.90823554992676

> <r_i_glide_erotb>
1.00329635328434

> <r_i_glide_esite>
-0.12825304987041

> <r_i_glide_emodel>
-80.0353961221667

> <r_i_glide_energy>
-54.4894580841064

> <r_i_glide_einternal>
1.57444596290588

> <i_i_glide_confnum>
124

> <i_i_glide_posenum>
97

> <r_i_glide_eff_state_penalty>
0

> <s_user_duplicate_titles>
CHEMBL280_lig441,148917

> <s_m_subgroup_title>
dock_pv

> <s_m_subgroupid>
dock_pv

> <b_m_subgroup_collapsed>
1

$$$$
CHEMBL280_lig1738
                    3D
 Schrodinger Suite 2021-1.
 49 51  0  0  1  0            999 V2000
   -3.0597   28.5039   56.8971 C   0  0  0  0  0  0
   -2.6630   29.7790   56.0846 C   0  0  0  0  0  0
   -2.4577   31.0552   56.9220 C   0  0  0  0  0  0
   -1.5307   30.7802   57.9648 O   0  0  0  0  0  0
   -2.0197   29.8237   58.8951 C   0  0  0  0  0  0
   -2.1908   28.4513   58.2009 C   0  0  0  0  0  0
   -4.9474   28.5463   57.3472 S   0  0  0  0  0  0
   -5.1871   27.5989   58.4454 O   0  0  0  0  0  0
   -5.3708   29.9418   57.5026 O   0  0  0  0  0  0
   -5.8515   27.9020   55.9236 C   0  0  0  0  0  0
   -6.4114   28.7446   54.9589 C   0  0  0  0  0  0
   -7.0957   28.1996   53.8679 C   0  0  0  0  0  0
   -7.2177   26.8118   53.7245 C   0  0  0  0  0  0
   -6.6624   25.9896   54.6982 C   0  0  0  0  0  0
   -6.0044   26.5258   55.7990 C   0  0  0  0  0  0
   -7.9254   26.1743   52.7209 O   0  0  0  0  0  0
   -2.7732   27.2615   55.9972 C   0  0  0  0  0  0
   -2.7391   27.3703   54.7665 O   0  0  0  0  0  0
   -2.5909   26.0610   56.5693 N   0  0  0  0  0  0
   -2.3390   24.9718   55.7123 O   0  0  0  0  0  0
   -8.2154   26.7272   51.4900 C   0  0  0  0  0  0
   -9.4387   26.3961   50.9082 C   0  0  0  0  0  0
   -9.7803   26.8770   49.6462 C   0  0  0  0  0  0
   -8.8838   27.6824   48.9465 C   0  0  0  0  0  0
   -7.6453   27.9852   49.5042 C   0  0  0  0  0  0
   -7.3109   27.5142   50.7730 C   0  0  0  0  0  0
   -9.2977   28.4018   47.3784 S   0  0  0  0  0  0
  -10.3507   27.2925   46.3945 C   0  0  0  0  0  0
   -9.7053   26.1684   46.1020 F   0  0  0  0  0  0
  -11.4779   26.9816   47.0321 F   0  0  0  0  0  0
  -10.6835   27.8813   45.2480 F   0  0  0  0  0  0
   -3.4058   29.9532   55.3123 H   0  0  0  0  0  0
   -1.7245   29.6196   55.5478 H   0  0  0  0  0  0
   -3.3937   31.4429   57.3257 H   0  0  0  0  0  0
   -2.0517   31.8504   56.2950 H   0  0  0  0  0  0
   -2.9679   30.1727   59.3102 H   0  0  0  0  0  0
   -1.3142   29.7477   59.7225 H   0  0  0  0  0  0
   -1.1875   28.0836   57.9744 H   0  0  0  0  0  0
   -2.6081   27.7403   58.9149 H   0  0  0  0  0  0
   -6.3367   29.8172   55.0591 H   0  0  0  0  0  0
   -7.5355   28.8600   53.1421 H   0  0  0  0  0  0
   -6.7348   24.9189   54.5949 H   0  0  0  0  0  0
   -5.6068   25.8569   56.5481 H   0  0  0  0  0  0
   -2.7058   25.8014   57.5438 H   0  0  0  0  0  0
   -3.1674   24.4427   55.7711 H   0  0  0  0  0  0
  -10.1349   25.7702   51.4410 H   0  0  0  0  0  0
  -10.7410   26.6301   49.2319 H   0  0  0  0  0  0
   -6.9509   28.5984   48.9496 H   0  0  0  0  0  0
   -6.3496   27.7582   51.1950 H   0  0  0  0  0  0
  1  7  1  0  0  0
  1  2  1  0  0  0
  1 17  1  0  0  0
  1  6  1  0  0  0
  2  3  1  0  0  0
  2 32  1  0  0  0
  2 33  1  0  0  0
  3  4  1  0  0  0
  3 34  1  0  0  0
  3 35  1  0  0  0
  4  5  1  0  0  0
  5  6  1  0  0  0
  5 36  1  0  0  0
  5 37  1  0  0  0
  6 38  1  0  0  0
  6 39  1  0  0  0
  7 10  1  0  0  0
  7  8  2  0  0  0
  7  9  2  0  0  0
 10 11  2  0  0  0
 10 15  1  0  0  0
 11 12  1  0  0  0
 11 40  1  0  0  0
 12 13  2  0  0  0
 12 41  1  0  0  0
 13 16  1  0  0  0
 13 14  1  0  0  0
 14 15  2  0  0  0
 14 42  1  0  0  0
 15 43  1  0  0  0
 16 21  1  0  0  0
 17 18  2  0  0  0
 17 19  1  0  0  0
 19 20  1  0  0  0
 19 44  1  0  0  0
 20 45  1  0  0  0
 21 22  2  0  0  0
 21 26  1  0  0  0
 22 23  1  0  0  0
 22 46  1  0  0  0
 23 24  2  0  0  0
 23 47  1  0  0  0
 24 25  1  0  0  0
 24 27  1  0  0  0
 25 26  2  0  0  0
 25 48  1  0  0  0
 26 49  1  0  0  0
 27 28  1  0  0  0
 28 29  1  0  0  0
 28 30  1  0  0  0
 28 31  1  0  0  0
M  END
> <s_m_entry_id>
64109

> <s_m_entry_name>
dock_pv.59

> <s_m_Source_Path>
/home/csk/Desktop/cluster/DUD-E-result/mmp13

> <s_m_Source_File>
dock_pv.maegz

> <i_m_Source_File_Index>
59

> <chembl_id>
CHEMBL1801054

> <chembl_pref_name>
None

> <i_lp_mmshare_version>
53161

> <i_f3d_flags>
0

> <r_lp_tautomer_probability>
1

> <s_lp_Force_Field>
OPLS_2005

> <r_lp_Energy>
23.157688

> <b_lp_Chiralities_Consistent>
1

> <s_lp_Variant>
CHEMBL280_lig1738-1

> <s_i_glide_gridfile>
glide-grid_830c

> <i_i_glide_lignum>
2489

> <i_i_glide_rotatable_bonds>
9

> <r_i_docking_score>
-8.02190825459933

> <r_i_glide_ligand_efficiency>
-0.258771234019333

> <r_i_glide_ligand_efficiency_sa>
-0.812898947013284

> <r_i_glide_ligand_efficiency_ln>
-1.80918615337565

> <r_i_glide_gscore>
-8.02190825459933

> <r_i_glide_lipo>
-3.25168531204924

> <r_i_glide_hbond>
-0.057743095298737

> <r_i_glide_metal>
0

> <r_i_glide_rewards>
-0.207105373306495

> <r_i_glide_evdw>
-46.8702392578125

> <r_i_glide_ecoul>
-17.0115089416504

> <r_i_glide_erotb>
0.621981917416227

> <r_i_glide_esite>
-0.232118087222892

> <r_i_glide_emodel>
-93.1278212698376

> <r_i_glide_energy>
-63.8817481994629

> <r_i_glide_einternal>
12.1171970367432

> <i_i_glide_confnum>
2

> <i_i_glide_posenum>
345

> <r_i_glide_eff_state_penalty>
0

> <s_user_duplicate_titles>
CHEMBL280_lig1738

> <s_m_subgroup_title>
dock_pv

> <s_m_subgroupid>
dock_pv

> <b_m_subgroup_collapsed>
1

$$$$
CHEMBL280_lig2387
                    3D
 Schrodinger Suite 2021-1.
 55 58  0  0  1  0            999 V2000
   -6.5601   27.4722   54.6642 C   0  0  0  0  0  0
   -5.7536   27.8134   53.5754 C   0  0  0  0  0  0
   -6.2654   27.8062   52.2918 C   0  0  0  0  0  0
   -7.5663   27.3749   52.0423 C   0  0  0  0  0  0
   -8.3287   26.9117   53.1102 C   0  0  0  0  0  0
   -7.8281   26.9353   54.4131 C   0  0  0  0  0  0
   -8.1680   27.4199   50.8012 O   0  0  0  0  0  0
   -7.3673   27.4752   49.6164 C   0  0  0  0  0  0
   -8.0492   28.2732   48.5029 C   0  0  0  0  0  0
   -7.5409   29.4745   48.0159 C   0  0  0  0  0  0
   -8.1319   30.0820   46.9076 C   0  0  0  0  0  0
   -9.1242   29.5262   46.1957 N   0  0  0  0  0  0
   -9.1761   27.7369   47.8563 C   0  0  0  0  0  0
   -9.6424   28.3718   46.6602 C   0  0  0  0  0  0
  -10.6656   27.7893   45.9034 C   0  0  0  0  0  0
  -11.1843   26.5828   46.3195 C   0  0  0  0  0  0
  -10.7388   25.9861   47.5004 C   0  0  0  0  0  0
   -9.8158   26.5742   48.3127 C   0  0  0  0  0  0
   -7.7180   31.4297   46.3922 C   0  0  0  0  0  0
   -5.0535   28.9024   56.2490 C   0  0  1  0  0  0
   -5.6869   30.3693   57.2357 S   0  0  0  0  0  0
   -5.0965   29.6635   58.8591 C   0  0  0  0  0  0
   -3.9263   28.7089   58.5073 C   0  0  0  0  0  0
   -3.7155   28.6235   56.9777 C   0  0  1  0  0  0
   -4.8779   31.5437   56.9029 O   0  0  0  0  0  0
   -7.1477   30.4463   57.1946 O   0  0  0  0  0  0
   -2.8955   27.3777   56.5632 C   0  0  0  0  0  0
   -1.8076   27.1657   57.1031 O   0  0  0  0  0  0
   -3.3939   26.5760   55.6066 N   0  0  0  0  0  0
   -2.7382   25.3707   55.3459 O   0  0  0  0  0  0
   -6.1106   27.7452   56.1084 C   0  0  0  0  0  0
   -4.7406   28.1635   53.6841 H   0  0  0  0  0  0
   -5.6375   28.1945   51.5075 H   0  0  0  0  0  0
   -9.3211   26.5547   52.9087 H   0  0  0  0  0  0
   -8.4456   26.5590   55.2198 H   0  0  0  0  0  0
   -6.3438   27.7995   49.7050 H   0  0  0  0  0  0
   -7.2691   26.4384   49.3046 H   0  0  0  0  0  0
   -6.7191   29.9516   48.5103 H   0  0  0  0  0  0
  -11.0056   28.2625   44.9913 H   0  0  0  0  0  0
  -11.9473   26.1254   45.7042 H   0  0  0  0  0  0
  -11.1362   25.0512   47.8543 H   0  0  0  0  0  0
   -9.5136   26.0746   49.2220 H   0  0  0  0  0  0
   -6.8335   31.7836   46.9005 H   0  0  0  0  0  0
   -7.5236   31.3662   45.3177 H   0  0  0  0  0  0
   -8.5123   32.1620   46.5492 H   0  0  0  0  0  0
   -4.8398   29.3642   55.3033 H   0  0  0  0  0  0
   -4.9092   30.4644   59.5719 H   0  0  0  0  0  0
   -5.9328   29.0796   59.2313 H   0  0  0  0  0  0
   -4.0988   27.7270   58.9507 H   0  0  0  0  0  0
   -2.9962   29.0946   58.9150 H   0  0  0  0  0  0
   -3.0270   29.4305   56.7089 H   0  0  0  0  0  0
   -4.3226   26.6353   55.2032 H   0  0  0  0  0  0
   -3.3520   24.6989   55.7170 H   0  0  0  0  0  0
   -5.7668   26.8150   56.5612 H   0  0  0  0  0  0
   -6.9968   27.9974   56.6911 H   0  0  0  0  0  0
  1  6  1  0  0  0
  1  2  2  0  0  0
  1 31  1  0  0  0
  2  3  1  0  0  0
  2 32  1  0  0  0
  3  4  2  0  0  0
  3 33  1  0  0  0
  4  5  1  0  0  0
  4  7  1  0  0  0
  5  6  2  0  0  0
  5 34  1  0  0  0
  6 35  1  0  0  0
  7  8  1  0  0  0
  8  9  1  0  0  0
  8 36  1  0  0  0
  8 37  1  0  0  0
  9 10  2  0  0  0
  9 13  1  0  0  0
 10 11  1  0  0  0
 10 38  1  0  0  0
 11 19  1  0  0  0
 11 12  2  0  0  0
 12 14  1  0  0  0
 13 18  2  0  0  0
 13 14  1  0  0  0
 14 15  2  0  0  0
 15 16  1  0  0  0
 15 39  1  0  0  0
 16 17  2  0  0  0
 16 40  1  0  0  0
 17 18  1  0  0  0
 17 41  1  0  0  0
 18 42  1  0  0  0
 19 43  1  0  0  0
 19 44  1  0  0  0
 19 45  1  0  0  0
 20 21  1  0  0  0
 20 24  1  0  0  0
 20 31  1  0  0  0
 20 46  1  0  0  0
 21 22  1  0  0  0
 21 25  2  0  0  0
 21 26  2  0  0  0
 22 23  1  0  0  0
 22 47  1  0  0  0
 22 48  1  0  0  0
 23 24  1  0  0  0
 23 49  1  0  0  0
 23 50  1  0  0  0
 24 27  1  0  0  0
 24 51  1  0  0  0
 27 28  2  0  0  0
 27 29  1  0  0  0
 29 30  1  0  0  0
 29 52  1  0  0  0
 30 53  1  0  0  0
 31 54  1  0  0  0
 31 55  1  0  0  0
M  END
> <s_m_entry_id>
64110

> <s_m_entry_name>
dock_pv.60

> <s_m_Source_Path>
/home/csk/Desktop/cluster/DUD-E-result/mmp13

> <s_m_Source_File>
dock_pv.maegz

> <i_m_Source_File_Index>
60

> <chembl_id>
CHEMBL203972

> <chembl_pref_name>
None

> <i_lp_mmshare_version>
53161

> <i_f3d_flags>
0

> <r_lp_tautomer_probability>
1

> <s_lp_Force_Field>
OPLS_2005

> <r_lp_Energy>
37.169065

> <b_lp_Chiralities_Consistent>
1

> <s_lp_Variant>
CHEMBL280_lig2387-2

> <s_i_glide_gridfile>
glide-grid_830c

> <i_i_glide_lignum>
3448

> <i_i_glide_rotatable_bonds>
8

> <r_i_docking_score>
-8.01523221550854

> <r_i_glide_ligand_efficiency>
-0.25855587791963

> <r_i_glide_ligand_efficiency_sa>
-0.812222431529077

> <r_i_glide_ligand_efficiency_ln>
-1.80768050196465

> <r_i_glide_gscore>
-8.01523221550854

> <r_i_glide_lipo>
-4.72326156605551

> <r_i_glide_hbond>
0

> <r_i_glide_metal>
0

> <r_i_glide_rewards>
-0.43564016588883

> <r_i_glide_evdw>
-29.4953441619873

> <r_i_glide_ecoul>
-12.8833131790161

> <r_i_glide_erotb>
0.720276331339181

> <r_i_glide_esite>
-0.169342629951597

> <r_i_glide_emodel>
-52.9415536864001

> <r_i_glide_energy>
-42.3786573410034

> <r_i_glide_einternal>
11.1397247314453

> <i_i_glide_confnum>
108

> <i_i_glide_posenum>
203

> <r_i_glide_eff_state_penalty>
0

> <s_user_duplicate_titles>
CHEMBL280_lig2387

> <s_m_subgroup_title>
dock_pv

> <s_m_subgroupid>
dock_pv

> <b_m_subgroup_collapsed>
1

$$$$
CHEMBL280_lig1935
                    3D
 Schrodinger Suite 2021-1.
 35 36  0  0  1  0            999 V2000
   -7.9390   25.9948   52.0636 O   0  0  0  0  0  0
   -9.7047   26.3864   50.5100 C   0  0  0  0  0  0
   -7.0122   25.9208   54.1571 N   0  0  0  0  0  0
   -5.9276   27.6639   57.9824 O   0  0  0  0  0  0
   -8.0180   27.9571   48.9386 C   0  0  0  0  0  0
  -10.1884   26.9701   49.3416 C   0  0  0  0  0  0
   -6.7404   28.6945   54.3047 C   0  0  0  0  0  0
   -2.7892   27.2248   56.1100 C   0  0  0  0  0  0
   -3.1059   28.3498   57.1059 C   0  0  0  0  0  0
   -4.2291   29.1513   56.6458 N   0  0  3  0  0  0
   -6.6808   29.9140   57.0319 O   0  0  0  0  0  0
   -7.3838   26.7039   53.1118 C   0  0  0  0  0  0
   -8.3853   26.5998   50.9082 C   0  0  0  0  0  0
   -5.8976   28.6797   56.9222 S   0  0  0  0  0  0
   -9.3441   27.7588   48.5636 C   0  0  0  0  0  0
   -6.4047   27.8999   55.4004 C   0  0  0  0  0  0
   -6.5345   26.5139   55.2825 C   0  0  0  0  0  0
   -7.5390   27.3700   50.1066 C   0  0  0  0  0  0
   -7.2428   28.0976   53.1513 C   0  0  0  0  0  0
   -2.5571   26.0094   56.6205 N   0  0  0  0  0  0
   -2.3390   24.9700   55.7100 O   0  0  0  0  0  0
   -2.7390   27.4387   54.8957 O   0  0  0  0  0  0
  -10.3534   25.7700   51.1144 H   0  0  0  0  0  0
   -7.3596   28.5595   48.3285 H   0  0  0  0  0  0
  -11.2134   26.8181   49.0378 H   0  0  0  0  0  0
   -6.6461   29.7700   54.3565 H   0  0  0  0  0  0
   -3.3127   27.9382   58.0956 H   0  0  0  0  0  0
   -2.2174   28.9702   57.2242 H   0  0  0  0  0  0
   -4.0507   29.9043   55.9735 H   0  0  0  0  0  0
   -9.7176   28.2143   47.6579 H   0  0  0  0  0  0
   -6.2789   25.8503   56.0982 H   0  0  0  0  0  0
   -6.5071   27.5196   50.3893 H   0  0  0  0  0  0
   -7.5390   28.7178   52.3222 H   0  0  0  0  0  0
   -2.7041   25.6932   57.5736 H   0  0  0  0  0  0
   -3.1731   24.4488   55.7603 H   0  0  0  0  0  0
  1 13  1  0  0  0
  1 12  1  0  0  0
  2 13  1  0  0  0
  2  6  2  0  0  0
  2 23  1  0  0  0
  3 12  2  0  0  0
  3 17  1  0  0  0
  4 14  2  0  0  0
  5 18  1  0  0  0
  5 15  2  0  0  0
  5 24  1  0  0  0
  6 15  1  0  0  0
  6 25  1  0  0  0
  7 19  2  0  0  0
  7 16  1  0  0  0
  7 26  1  0  0  0
  8  9  1  0  0  0
  8 20  1  0  0  0
  8 22  2  0  0  0
  9 10  1  0  0  0
  9 27  1  0  0  0
  9 28  1  0  0  0
 10 14  1  0  0  0
 10 29  1  0  0  0
 11 14  2  0  0  0
 12 19  1  0  0  0
 13 18  2  0  0  0
 14 16  1  0  0  0
 15 30  1  0  0  0
 16 17  2  0  0  0
 17 31  1  0  0  0
 18 32  1  0  0  0
 19 33  1  0  0  0
 20 21  1  0  0  0
 20 34  1  0  0  0
 21 35  1  0  0  0
M  END
> <s_m_entry_id>
64111

> <s_m_entry_name>
dock_pv.61

> <s_m_Source_Path>
/home/csk/Desktop/cluster/DUD-E-result/mmp13

> <s_m_Source_File>
dock_pv.maegz

> <i_m_Source_File_Index>
61

> <chembl_id>
CHEMBL2337697

> <chembl_pref_name>
None

> <i_lp_mmshare_version>
53161

> <i_f3d_flags>
0

> <r_lp_tautomer_probability>
1

> <s_lp_Force_Field>
OPLS_2005

> <r_lp_Energy>
15.761775

> <b_lp_Chiralities_Consistent>
1

> <s_lp_Variant>
CHEMBL280_lig1935-1

> <s_i_glide_gridfile>
glide-grid_830c

> <i_i_glide_lignum>
2704

> <i_i_glide_rotatable_bonds>
8

> <r_i_docking_score>
-7.98777487519297

> <r_i_glide_ligand_efficiency>
-0.363080676145135

> <r_i_glide_ligand_efficiency_sa>
-1.01736633371138

> <r_i_glide_ligand_efficiency_ln>
-1.95250354066501

> <r_i_glide_gscore>
-7.98777487519297

> <r_i_glide_lipo>
-3.17420156220877

> <r_i_glide_hbond>
-0.113728467518501

> <r_i_glide_metal>
0

> <r_i_glide_rewards>
-1.15530284241618

> <r_i_glide_evdw>
-41.8096466064453

> <r_i_glide_ecoul>
-16.6778888702393

> <r_i_glide_erotb>
1.25299669668883

> <r_i_glide_esite>
-0.20537303888019

> <r_i_glide_emodel>
-89.3166957052097

> <r_i_glide_energy>
-58.4875354766846

> <r_i_glide_einternal>
6.67468404769897

> <i_i_glide_confnum>
107

> <i_i_glide_posenum>
330

> <r_i_glide_eff_state_penalty>
0

> <s_user_duplicate_titles>
CHEMBL280_lig1935

> <s_m_subgroup_title>
dock_pv

> <s_m_subgroupid>
dock_pv

> <b_m_subgroup_collapsed>
1

$$$$
CHEMBL280_lig1216
                    3D
 Schrodinger Suite 2021-1.
 48 50  0  0  1  0            999 V2000
   -9.7756   28.2939   47.4273 F   0  0  0  0  0  0
   -9.3123   27.7348   48.5678 C   0  0  0  0  0  0
   -7.9953   27.9495   48.9615 C   0  0  0  0  0  0
   -7.5272   27.3769   50.1416 C   0  0  0  0  0  0
  -10.1566   26.9448   49.3417 C   0  0  0  0  0  0
   -9.6799   26.3620   50.5147 C   0  0  0  0  0  0
   -8.3701   26.5922   50.9368 C   0  0  0  0  0  0
   -7.9371   26.0270   52.1252 O   0  0  0  0  0  0
   -7.3745   26.7832   53.1440 C   0  0  0  0  0  0
   -7.3718   28.1744   53.1350 C   0  0  0  0  0  0
   -6.8692   28.9137   54.2007 C   0  0  0  0  0  0
   -6.8387   26.1382   54.2592 C   0  0  0  0  0  0
   -6.3458   26.8722   55.3443 C   0  0  0  0  0  0
   -6.3398   28.2794   55.3167 C   0  0  0  0  0  0
   -6.0308   29.1253   56.3785 O   0  0  0  0  0  0
   -4.8224   29.1416   57.1873 C   0  0  0  0  0  0
   -5.1013   30.2277   58.2869 C   0  0  0  0  0  0
   -5.4264   31.6804   57.8454 C   0  0  0  0  0  0
   -6.5063   31.7902   56.9252 O   0  0  0  0  0  0
   -7.7989   31.5936   57.4808 C   0  0  0  0  0  0
   -8.8235   31.8169   56.3659 C   0  0  0  0  0  0
   -4.6897   27.7586   57.8934 C   0  0  0  0  0  0
   -5.3947   27.3708   58.8211 O   0  0  0  0  0  0
   -3.7766   26.9529   57.3090 N   0  0  0  0  0  0
   -2.9608   27.1629   56.2442 C   0  0  0  0  0  0
   -2.2901   26.2768   55.7099 O   0  0  0  0  0  0
   -2.9276   28.4460   55.8176 N   0  0  0  0  0  0
   -3.5662   29.5219   56.3182 C   0  0  0  0  0  0
   -3.1265   30.6494   56.1113 O   0  0  0  0  0  0
   -7.3379   28.5594   48.3576 H   0  0  0  0  0  0
   -6.5044   27.5529   50.4428 H   0  0  0  0  0  0
  -11.1776   26.7907   49.0277 H   0  0  0  0  0  0
  -10.3361   25.7499   51.1150 H   0  0  0  0  0  0
   -7.7840   28.7178   52.3046 H   0  0  0  0  0  0
   -6.9019   29.9931   54.1738 H   0  0  0  0  0  0
   -6.8403   25.0584   54.3024 H   0  0  0  0  0  0
   -6.0401   26.3097   56.2086 H   0  0  0  0  0  0
   -5.9338   29.8995   58.9075 H   0  0  0  0  0  0
   -4.2520   30.2767   58.9714 H   0  0  0  0  0  0
   -5.6310   32.2951   58.7239 H   0  0  0  0  0  0
   -4.5578   32.1489   57.3875 H   0  0  0  0  0  0
   -7.9037   30.5867   57.8872 H   0  0  0  0  0  0
   -7.9739   32.3016   58.2931 H   0  0  0  0  0  0
   -9.8404   31.7636   56.7551 H   0  0  0  0  0  0
   -8.6972   32.7978   55.9068 H   0  0  0  0  0  0
   -8.7221   31.0626   55.5853 H   0  0  0  0  0  0
   -3.7564   26.0154   57.6956 H   0  0  0  0  0  0
   -2.1925   28.6746   55.1685 H   0  0  0  0  0  0
  1  2  1  0  0  0
  2  3  2  0  0  0
  2  5  1  0  0  0
  3  4  1  0  0  0
  3 30  1  0  0  0
  4  7  2  0  0  0
  4 31  1  0  0  0
  5  6  2  0  0  0
  5 32  1  0  0  0
  6  7  1  0  0  0
  6 33  1  0  0  0
  7  8  1  0  0  0
  8  9  1  0  0  0
  9 10  2  0  0  0
  9 12  1  0  0  0
 10 11  1  0  0  0
 10 34  1  0  0  0
 11 14  2  0  0  0
 11 35  1  0  0  0
 12 13  2  0  0  0
 12 36  1  0  0  0
 13 14  1  0  0  0
 13 37  1  0  0  0
 14 15  1  0  0  0
 15 16  1  0  0  0
 16 17  1  0  0  0
 16 22  1  0  0  0
 16 28  1  0  0  0
 17 18  1  0  0  0
 17 38  1  0  0  0
 17 39  1  0  0  0
 18 19  1  0  0  0
 18 40  1  0  0  0
 18 41  1  0  0  0
 19 20  1  0  0  0
 20 21  1  0  0  0
 20 42  1  0  0  0
 20 43  1  0  0  0
 21 44  1  0  0  0
 21 45  1  0  0  0
 21 46  1  0  0  0
 22 23  2  0  0  0
 22 24  1  0  0  0
 24 25  1  0  0  0
 24 47  1  0  0  0
 25 26  2  0  0  0
 25 27  1  0  0  0
 27 28  1  0  0  0
 27 48  1  0  0  0
 28 29  2  0  0  0
M  END
> <s_m_entry_id>
64112

> <s_m_entry_name>
dock_pv.62

> <s_m_Source_Path>
/home/csk/Desktop/cluster/DUD-E-result/mmp13

> <s_m_Source_File>
dock_pv.maegz

> <i_m_Source_File_Index>
62

> <chembl_id>
CHEMBL222002

> <chembl_pref_name>
None

> <i_lp_mmshare_version>
53161

> <i_f3d_flags>
0

> <r_lp_tautomer_probability>
0.999999998612168

> <s_lp_Force_Field>
OPLS_2005

> <r_lp_Energy>
23.03973

> <b_lp_Chiralities_Consistent>
1

> <s_lp_Variant>
CHEMBL280_lig1216-1

> <s_i_glide_gridfile>
glide-grid_830c

> <i_i_glide_lignum>
1923

> <i_i_glide_rotatable_bonds>
8

> <r_i_docking_score>
-7.98210414969

> <r_i_glide_ligand_efficiency>
-0.275244970678966

> <r_i_glide_ligand_efficiency_sa>
-0.845639753653221

> <r_i_glide_ligand_efficiency_ln>
-1.82769944158207

> <r_i_glide_gscore>
-7.98210414969

> <r_i_glide_lipo>
-3.49199580056151

> <r_i_glide_hbond>
-0.795263647707685

> <r_i_glide_metal>
0

> <r_i_glide_rewards>
0.0344114123486489

> <r_i_glide_evdw>
-48.6448783874512

> <r_i_glide_ecoul>
-12.6928186416626

> <r_i_glide_erotb>
0.848416059611706

> <r_i_glide_esite>
-0.241505457759216

> <r_i_glide_emodel>
-80.1274103301684

> <r_i_glide_energy>
-61.3376970291138

> <r_i_glide_einternal>
11.5825548171997

> <i_i_glide_confnum>
11

> <i_i_glide_posenum>
357

> <r_i_glide_eff_state_penalty>
0

> <s_user_duplicate_titles>
CHEMBL280_lig1216,368685

> <s_m_subgroup_title>
dock_pv

> <s_m_subgroupid>
dock_pv

> <b_m_subgroup_collapsed>
1

$$$$
CHEMBL280_lig889
                    3D
 Schrodinger Suite 2021-1.
 51 53  0  0  1  0            999 V2000
   -4.6949   28.3291   56.4763 C   0  0  2  0  0  0
   -3.3850   28.4279   55.6286 C   0  0  0  0  0  0
   -4.3420   27.9119   57.9430 C   0  0  0  0  0  0
   -3.1125   28.2640   58.3850 N   0  0  0  0  0  0
   -2.1033   28.9426   57.7892 C   0  0  0  0  0  0
   -2.2734   29.2744   56.2761 C   0  0  2  0  0  0
   -5.5001   27.2268   56.0100 O   0  0  0  0  0  0
   -8.6422   27.2475   50.2417 C   0  0  0  0  0  0
   -3.1712   27.7727   54.5996 O   0  0  0  0  0  0
   -8.6467   26.5851   51.4574 O   0  0  0  0  0  0
   -5.1389   27.3701   58.7090 O   0  0  0  0  0  0
   -1.1005   29.2426   58.4323 O   0  0  0  0  0  0
   -5.5691   29.6514   56.5259 C   0  0  0  0  0  0
   -9.8531   27.3722   49.5460 C   0  0  0  0  0  0
   -2.5756   30.7005   56.1409 N   0  0  0  0  0  0
   -6.1831   27.1764   54.8028 C   0  0  0  0  0  0
   -7.7574   26.8217   52.4918 C   0  0  0  0  0  0
  -11.0096   26.9693   50.1098 F   0  0  0  0  0  0
   -7.1547   28.0555   52.7547 C   0  0  0  0  0  0
   -7.5211   25.7707   53.3715 C   0  0  0  0  0  0
   -6.3639   28.2273   53.8900 C   0  0  0  0  0  0
   -6.7458   25.9425   54.5103 C   0  0  0  0  0  0
   -6.3586   31.7320   57.5146 O   0  0  0  0  0  0
   -7.4846   27.7695   49.6549 C   0  0  0  0  0  0
   -5.5729   30.5732   57.7731 C   0  0  0  0  0  0
   -9.8962   27.9652   48.2828 C   0  0  0  0  0  0
   -5.6779   32.7971   56.8610 C   0  0  0  0  0  0
   -6.7038   33.8665   56.4835 C   0  0  0  0  0  0
   -7.5385   28.4000   48.4114 C   0  0  0  0  0  0
   -8.7390   28.4876   47.7162 C   0  0  0  0  0  0
   -2.9354   28.0256   59.3483 H   0  0  0  0  0  0
   -1.3300   29.0517   55.7753 H   0  0  0  0  0  0
   -6.6153   29.4018   56.3454 H   0  0  0  0  0  0
   -5.2814   30.2964   55.7099 H   0  0  0  0  0  0
   -1.7427   31.2238   55.9055 H   0  0  0  0  0  0
   -3.2457   30.8811   55.3969 H   0  0  0  0  0  0
   -7.3160   28.8934   52.0956 H   0  0  0  0  0  0
   -7.9388   24.8040   53.1903 H   0  0  0  0  0  0
   -5.9391   29.2001   54.0432 H   0  0  0  0  0  0
   -6.5954   25.1117   55.1855 H   0  0  0  0  0  0
   -6.5289   27.6820   50.1493 H   0  0  0  0  0  0
   -6.0426   30.0528   58.6081 H   0  0  0  0  0  0
   -4.5686   30.8464   58.1008 H   0  0  0  0  0  0
  -10.8295   28.0403   47.7462 H   0  0  0  0  0  0
   -5.1645   32.4637   55.9597 H   0  0  0  0  0  0
   -4.9265   33.2184   57.5311 H   0  0  0  0  0  0
   -6.2240   34.7125   55.9911 H   0  0  0  0  0  0
   -7.4539   33.4653   55.8024 H   0  0  0  0  0  0
   -7.2183   34.2423   57.3677 H   0  0  0  0  0  0
   -6.6336   28.7976   47.9745 H   0  0  0  0  0  0
   -8.7686   28.9601   46.7446 H   0  0  0  0  0  0
  1  2  1  0  0  0
  1  3  1  0  0  0
  1  7  1  0  0  0
  1 13  1  0  0  0
  2  6  1  0  0  0
  2  9  2  0  0  0
  3  4  1  0  0  0
  3 11  2  0  0  0
  4  5  1  0  0  0
  4 31  1  0  0  0
  5 12  2  0  0  0
  5  6  1  0  0  0
  6 15  1  0  0  0
  6 32  1  0  0  0
  7 16  1  0  0  0
  8 10  1  0  0  0
  8 14  1  0  0  0
  8 24  2  0  0  0
 10 17  1  0  0  0
 13 25  1  0  0  0
 13 33  1  0  0  0
 13 34  1  0  0  0
 14 18  1  0  0  0
 14 26  2  0  0  0
 15 35  1  0  0  0
 15 36  1  0  0  0
 16 21  1  0  0  0
 16 22  2  0  0  0
 17 20  2  0  0  0
 17 19  1  0  0  0
 19 21  2  0  0  0
 19 37  1  0  0  0
 20 22  1  0  0  0
 20 38  1  0  0  0
 21 39  1  0  0  0
 22 40  1  0  0  0
 23 25  1  0  0  0
 23 27  1  0  0  0
 24 29  1  0  0  0
 24 41  1  0  0  0
 25 42  1  0  0  0
 25 43  1  0  0  0
 26 30  1  0  0  0
 26 44  1  0  0  0
 27 28  1  0  0  0
 27 45  1  0  0  0
 27 46  1  0  0  0
 28 47  1  0  0  0
 28 48  1  0  0  0
 28 49  1  0  0  0
 29 30  2  0  0  0
 29 50  1  0  0  0
 30 51  1  0  0  0
M  END
> <s_m_entry_id>
64113

> <s_m_entry_name>
dock_pv.63

> <s_m_Source_Path>
/home/csk/Desktop/cluster/DUD-E-result/mmp13

> <s_m_Source_File>
dock_pv.maegz

> <i_m_Source_File_Index>
63

> <chembl_id>
CHEMBL183146

> <chembl_pref_name>
None

> <i_lp_mmshare_version>
53161

> <i_f3d_flags>
0

> <r_lp_tautomer_probability>
1

> <s_lp_Force_Field>
OPLS_2005

> <r_lp_Energy>
31.106055

> <b_lp_Chiralities_Consistent>
1

> <s_lp_Variant>
CHEMBL280_lig889-3

> <s_i_glide_gridfile>
glide-grid_830c

> <i_i_glide_lignum>
1447

> <i_i_glide_rotatable_bonds>
8

> <r_i_docking_score>
-7.94127819735728

> <r_i_glide_ligand_efficiency>
-0.264709273245243

> <r_i_glide_ligand_efficiency_sa>
-0.82251325752253

> <r_i_glide_ligand_efficiency_ln>
-1.80434493359582

> <r_i_glide_gscore>
-7.94127819735728

> <r_i_glide_lipo>
-3.45910221593185

> <r_i_glide_hbond>
-0.703978166296458

> <r_i_glide_metal>
0

> <r_i_glide_rewards>
-0.611441037876493

> <r_i_glide_evdw>
-48.2726173400879

> <r_i_glide_ecoul>
-9.89278602600098

> <r_i_glide_erotb>
0.797568223358255

> <r_i_glide_esite>
-0.0667762297061881

> <r_i_glide_emodel>
-77.8271055922626

> <r_i_glide_energy>
-58.1654033660889

> <r_i_glide_einternal>
10.0192584991455

> <i_i_glide_confnum>
15

> <i_i_glide_posenum>
79

> <r_i_glide_eff_state_penalty>
0

> <s_user_duplicate_titles>
CHEMBL280_lig889,303906

> <s_m_subgroup_title>
dock_pv

> <s_m_subgroupid>
dock_pv

> <b_m_subgroup_collapsed>
1

$$$$
CHEMBL280_lig516
                    3D
 Schrodinger Suite 2021-1.
 52 54  0  0  1  0            999 V2000
   -4.6717   27.5894   57.4593 S   0  0  0  0  0  0
   -3.2338   26.5700   57.2409 N   0  0  1  0  0  0
   -1.8723   27.1883   57.3228 C   0  0  2  0  0  0
   -0.8648   26.3126   56.5230 C   0  0  0  0  0  0
   -5.5648   27.4585   55.9084 C   0  0  0  0  0  0
   -5.5301   26.9729   58.4804 O   0  0  0  0  0  0
   -4.2271   28.9811   57.5941 O   0  0  0  0  0  0
   -6.8974   27.2096   53.4467 C   0  0  0  0  0  0
   -7.6072   27.0787   52.1390 C   0  0  0  0  0  0
    0.6875   27.3390   60.7307 N   0  0  2  0  0  0
   -1.1396   25.7700   55.4590 O   0  0  0  0  0  0
   -1.4691   27.5066   58.7902 C   0  0  0  0  0  0
   -5.7373   28.5699   55.0887 C   0  0  0  0  0  0
   -6.0908   26.2297   55.5198 C   0  0  0  0  0  0
   -6.7393   26.1040   54.2929 C   0  0  0  0  0  0
   -6.3980   28.4458   53.8691 C   0  0  0  0  0  0
   -8.7388   26.2740   52.0383 C   0  0  0  0  0  0
   -7.1940   27.7700   50.9966 C   0  0  0  0  0  0
    0.3963   26.2547   57.0379 O   0  0  0  0  0  0
   -9.0697   26.9013   49.7314 C   0  0  0  0  0  0
   -7.9158   27.6934   49.8057 C   0  0  0  0  0  0
   -9.4547   26.1718   50.8504 C   0  0  0  0  0  0
   -9.8893   26.8056   48.6247 O   0  0  0  0  0  0
   -0.5218   26.5855   61.0339 C   0  0  0  0  0  0
    0.2997   28.6817   60.3166 C   0  0  0  0  0  0
   -1.2994   26.2866   59.7399 C   0  0  0  0  0  0
   -0.4138   28.6386   58.9512 C   0  0  0  0  0  0
   -9.6431   27.6530   47.5086 C   0  0  0  0  0  0
   -3.3262   25.6835   57.7558 H   0  0  0  0  0  0
   -1.9255   28.1260   56.7687 H   0  0  0  0  0  0
    1.1298   26.8960   59.9371 H   0  0  0  0  0  0
   -2.3318   27.9926   59.2478 H   0  0  0  0  0  0
   -5.3536   29.5354   55.3851 H   0  0  0  0  0  0
   -5.9750   25.3700   56.1630 H   0  0  0  0  0  0
   -7.1078   25.1321   53.9973 H   0  0  0  0  0  0
   -6.5165   29.3229   53.2512 H   0  0  0  0  0  0
   -9.1087   25.7699   52.9098 H   0  0  0  0  0  0
   -6.3389   28.4225   51.0338 H   0  0  0  0  0  0
    0.9925   25.7700   56.4454 H   0  0  0  0  0  0
   -7.5732   28.2761   48.9635 H   0  0  0  0  0  0
  -10.3409   25.5584   50.8093 H   0  0  0  0  0  0
   -0.2488   25.6598   61.5428 H   0  0  0  0  0  0
   -1.1457   27.1591   61.7156 H   0  0  0  0  0  0
    1.2008   29.2924   60.2513 H   0  0  0  0  0  0
   -0.3384   29.1507   61.0635 H   0  0  0  0  0  0
   -0.7052   25.5197   59.2440 H   0  0  0  0  0  0
   -2.2575   25.8007   59.9369 H   0  0  0  0  0  0
   -0.8341   29.6083   58.6840 H   0  0  0  0  0  0
    0.3935   28.4944   58.2357 H   0  0  0  0  0  0
  -10.4076   27.4843   46.7513 H   0  0  0  0  0  0
   -9.6836   28.7070   47.7881 H   0  0  0  0  0  0
   -8.6776   27.4430   47.0509 H   0  0  0  0  0  0
  1  2  1  0  0  0
  1  5  1  0  0  0
  1  6  2  0  0  0
  1  7  2  0  0  0
  2  3  1  0  0  0
  2 29  1  0  0  0
  3  4  1  0  0  0
  3 12  1  0  0  0
  3 30  1  0  0  0
  4 11  2  0  0  0
  4 19  1  0  0  0
  5 13  1  0  0  0
  5 14  2  0  0  0
  8 15  2  0  0  0
  8  9  1  0  0  0
  8 16  1  0  0  0
  9 17  2  0  0  0
  9 18  1  0  0  0
 10 25  1  0  0  0
 10 24  1  0  0  0
 10 31  1  0  0  0
 12 26  1  0  0  0
 12 27  1  0  0  0
 12 32  1  0  0  0
 13 16  2  0  0  0
 13 33  1  0  0  0
 14 15  1  0  0  0
 14 34  1  0  0  0
 15 35  1  0  0  0
 16 36  1  0  0  0
 17 22  1  0  0  0
 17 37  1  0  0  0
 18 21  2  0  0  0
 18 38  1  0  0  0
 19 39  1  0  0  0
 20 21  1  0  0  0
 20 23  1  0  0  0
 20 22  2  0  0  0
 21 40  1  0  0  0
 22 41  1  0  0  0
 23 28  1  0  0  0
 24 26  1  0  0  0
 24 42  1  0  0  0
 24 43  1  0  0  0
 25 27  1  0  0  0
 25 44  1  0  0  0
 25 45  1  0  0  0
 26 46  1  0  0  0
 26 47  1  0  0  0
 27 48  1  0  0  0
 27 49  1  0  0  0
 28 50  1  0  0  0
 28 51  1  0  0  0
 28 52  1  0  0  0
M  END
> <s_m_entry_id>
64114

> <s_m_entry_name>
dock_pv.64

> <s_m_Source_Path>
/home/csk/Desktop/cluster/DUD-E-result/mmp13

> <s_m_Source_File>
dock_pv.maegz

> <i_m_Source_File_Index>
64

> <chembl_id>
CHEMBL79906

> <chembl_pref_name>
None

> <i_lp_mmshare_version>
53161

> <i_f3d_flags>
0

> <r_lp_tautomer_probability>
1

> <s_lp_Force_Field>
OPLS_2005

> <r_lp_Energy>
28.058434

> <b_lp_Chiralities_Consistent>
1

> <s_lp_Variant>
CHEMBL280_lig516-1

> <s_i_glide_gridfile>
glide-grid_830c

> <i_i_glide_lignum>
732

> <i_i_glide_rotatable_bonds>
8

> <r_i_docking_score>
-7.93179946933682

> <r_i_glide_ligand_efficiency>
-0.283278552476315

> <r_i_glide_ligand_efficiency_sa>
-0.860200527463025

> <r_i_glide_ligand_efficiency_ln>
-1.83089220527496

> <r_i_glide_gscore>
-7.93179946933682

> <r_i_glide_lipo>
-3.35464021510652

> <r_i_glide_hbond>
-0.325508021188346

> <r_i_glide_metal>
0

> <r_i_glide_rewards>
-0.0545760659776571

> <r_i_glide_evdw>
-32.4091186523438

> <r_i_glide_ecoul>
-19.2729816436768

> <r_i_glide_erotb>
0.600334394581538

> <r_i_glide_esite>
-0.286006382477129

> <r_i_glide_emodel>
-75.4922507411166

> <r_i_glide_energy>
-51.6821002960205

> <r_i_glide_einternal>
6.25200700759888

> <i_i_glide_confnum>
13

> <i_i_glide_posenum>
21

> <r_i_glide_eff_state_penalty>
0

> <s_user_duplicate_titles>
CHEMBL280_lig516,133458

> <s_m_subgroup_title>
dock_pv

> <s_m_subgroupid>
dock_pv

> <b_m_subgroup_collapsed>
1

$$$$
CHEMBL280_lig189
                    3D
 Schrodinger Suite 2021-1.
 55 58  0  0  1  0            999 V2000
   -5.8778   32.1933   58.1745 C   0  0  0  0  0  0
   -5.5729   31.2974   57.1616 N   0  0  0  0  0  0
   -6.4147   30.9235   56.1105 N   0  0  0  0  0  0
   -7.3328   32.6508   58.1105 C   0  0  0  0  0  0
   -3.5529   27.3589   55.5265 C   0  0  0  0  0  0
   -4.6362   28.3119   56.0598 C   0  0  2  0  0  0
   -7.6387   31.2873   56.1108 C   0  0  0  0  0  0
   -8.2045   32.1785   57.1115 C   0  0  0  0  0  0
   -5.0834   32.5698   59.0429 O   0  0  0  0  0  0
   -4.2362   30.6520   57.1811 C   0  0  0  0  0  0
   -7.7752   27.2410   51.3059 C   0  0  0  0  0  0
   -4.2412   29.1038   57.3474 C   0  0  0  0  0  0
   -3.1390   27.4946   54.3775 O   0  0  0  0  0  0
   -6.0352   27.6350   56.1040 C   0  0  0  0  0  0
   -3.1381   26.3583   56.3161 N   0  0  0  0  0  0
   -8.3837   27.4383   49.9506 C   0  0  0  0  0  0
   -8.1074   26.1235   52.0667 C   0  0  0  0  0  0
   -6.8546   28.1394   51.8582 C   0  0  0  0  0  0
   -6.2577   26.5712   55.1721 O   0  0  0  0  0  0
   -6.7140   26.8502   53.8982 C   0  0  0  0  0  0
   -7.5392   25.9015   53.3100 C   0  0  0  0  0  0
   -6.3657   27.9800   53.1526 C   0  0  0  0  0  0
   -2.3401   25.3700   55.7217 O   0  0  0  0  0  0
   -7.8153   33.5438   59.0767 C   0  0  0  0  0  0
   -9.5417   32.5793   57.0926 C   0  0  0  0  0  0
   -9.6474   26.9062   49.6436 C   0  0  0  0  0  0
   -7.7191   28.1701   48.9562 C   0  0  0  0  0  0
   -9.1534   33.9438   59.0544 C   0  0  0  0  0  0
  -10.0129   33.4589   58.0671 C   0  0  0  0  0  0
   -8.2933   28.3727   47.7064 C   0  0  0  0  0  0
  -10.2209   27.0929   48.3890 C   0  0  0  0  0  0
   -9.5413   27.8290   47.4248 C   0  0  0  0  0  0
   -4.7003   29.0719   55.2932 H   0  0  0  0  0  0
   -8.2523   30.8969   55.3052 H   0  0  0  0  0  0
   -3.7437   30.9074   56.2427 H   0  0  0  0  0  0
   -3.5671   31.0660   57.9381 H   0  0  0  0  0  0
   -3.2319   28.8219   57.6503 H   0  0  0  0  0  0
   -4.8669   28.8223   58.1956 H   0  0  0  0  0  0
   -6.1644   27.1774   57.0852 H   0  0  0  0  0  0
   -6.8392   28.3666   56.0312 H   0  0  0  0  0  0
   -3.4818   26.1004   57.2361 H   0  0  0  0  0  0
   -8.7690   25.3698   51.6756 H   0  0  0  0  0  0
   -6.5136   28.9847   51.2904 H   0  0  0  0  0  0
   -7.7367   24.9711   53.8033 H   0  0  0  0  0  0
   -5.6899   28.7253   53.5296 H   0  0  0  0  0  0
   -2.9424   24.6014   55.7325 H   0  0  0  0  0  0
   -7.1609   33.9205   59.8508 H   0  0  0  0  0  0
  -10.2245   32.2174   56.3363 H   0  0  0  0  0  0
  -10.2107   26.3535   50.3793 H   0  0  0  0  0  0
   -6.7416   28.5866   49.1404 H   0  0  0  0  0  0
   -9.5245   34.6295   59.8015 H   0  0  0  0  0  0
  -11.0493   33.7664   58.0562 H   0  0  0  0  0  0
   -7.7604   28.9378   46.9537 H   0  0  0  0  0  0
  -11.1969   26.6859   48.1731 H   0  0  0  0  0  0
   -9.9873   27.9837   46.4523 H   0  0  0  0  0  0
  1  2  1  0  0  0
  1  4  1  0  0  0
  1  9  2  0  0  0
  2  3  1  0  0  0
  2 10  1  0  0  0
  3  7  2  0  0  0
  4  8  2  0  0  0
  4 24  1  0  0  0
  5  6  1  0  0  0
  5 13  2  0  0  0
  5 15  1  0  0  0
  6 12  1  0  0  0
  6 14  1  0  0  0
  6 33  1  0  0  0
  7  8  1  0  0  0
  7 34  1  0  0  0
  8 25  1  0  0  0
 10 12  1  0  0  0
 10 35  1  0  0  0
 10 36  1  0  0  0
 11 18  2  0  0  0
 11 16  1  0  0  0
 11 17  1  0  0  0
 12 37  1  0  0  0
 12 38  1  0  0  0
 14 19  1  0  0  0
 14 39  1  0  0  0
 14 40  1  0  0  0
 15 23  1  0  0  0
 15 41  1  0  0  0
 16 26  2  0  0  0
 16 27  1  0  0  0
 17 21  2  0  0  0
 17 42  1  0  0  0
 18 22  1  0  0  0
 18 43  1  0  0  0
 19 20  1  0  0  0
 20 21  1  0  0  0
 20 22  2  0  0  0
 21 44  1  0  0  0
 22 45  1  0  0  0
 23 46  1  0  0  0
 24 28  2  0  0  0
 24 47  1  0  0  0
 25 29  2  0  0  0
 25 48  1  0  0  0
 26 31  1  0  0  0
 26 49  1  0  0  0
 27 30  2  0  0  0
 27 50  1  0  0  0
 28 29  1  0  0  0
 28 51  1  0  0  0
 29 52  1  0  0  0
 30 32  1  0  0  0
 30 53  1  0  0  0
 31 32  2  0  0  0
 31 54  1  0  0  0
 32 55  1  0  0  0
M  END
> <s_m_entry_id>
64115

> <s_m_entry_name>
dock_pv.65

> <s_m_Source_Path>
/home/csk/Desktop/cluster/DUD-E-result/mmp13

> <s_m_Source_File>
dock_pv.maegz

> <i_m_Source_File_Index>
65

> <chembl_id>
CHEMBL102459

> <chembl_pref_name>
None

> <i_lp_mmshare_version>
53161

> <i_f3d_flags>
0

> <r_lp_tautomer_probability>
1

> <s_lp_Force_Field>
OPLS_2005

> <r_lp_Energy>
41.194773

> <b_lp_Chiralities_Consistent>
1

> <s_lp_Variant>
CHEMBL280_lig189-1

> <s_i_glide_gridfile>
glide-grid_830c

> <i_i_glide_lignum>
244

> <i_i_glide_rotatable_bonds>
10

> <r_i_docking_score>
-7.92448560496051

> <r_i_glide_ligand_efficiency>
-0.247640175155016

> <r_i_glide_ligand_efficiency_sa>
-0.786208548193059

> <r_i_glide_ligand_efficiency_ln>
-1.77450834026982

> <r_i_glide_gscore>
-7.92448560496051

> <r_i_glide_lipo>
-4.12484286292916

> <r_i_glide_hbond>
-0.0734625283489618

> <r_i_glide_metal>
0

> <r_i_glide_rewards>
-0.367259011383447

> <r_i_glide_evdw>
-50.0180587768555

> <r_i_glide_ecoul>
-10.1331720352173

> <r_i_glide_erotb>
0.861957541826429

> <r_i_glide_esite>
-0.2

> <r_i_glide_emodel>
-88.5755085199069

> <r_i_glide_energy>
-60.1512308120728

> <r_i_glide_einternal>
14.6264514923096

> <i_i_glide_confnum>
2

> <i_i_glide_posenum>
74

> <r_i_glide_eff_state_penalty>
0

> <s_user_duplicate_titles>
CHEMBL280_lig189

> <s_m_subgroup_title>
dock_pv

> <s_m_subgroupid>
dock_pv

> <b_m_subgroup_collapsed>
1

$$$$
CHEMBL280_lig2100
                    3D
 Schrodinger Suite 2021-1.
 35 37  0  0  1  0            999 V2000
   -2.6597   26.9988   56.8061 C   0  0  0  0  0  0
   -3.4635   27.3559   57.8259 N   0  0  0  0  0  0
   -4.7698   27.5333   57.6102 C   0  0  0  0  0  0
   -5.0641   27.3728   56.2075 C   0  0  0  0  0  0
   -3.5667   27.0406   55.3194 S   0  0  0  0  0  0
   -1.0700   26.5700   56.9109 S   0  0  0  0  0  0
   -5.5650   27.7719   58.5101 O   0  0  0  0  0  0
   -6.3402   27.4485   55.7633 C   0  0  0  0  0  0
   -6.7904   27.3550   54.3696 C   0  0  0  0  0  0
   -6.1110   28.0034   53.3425 C   0  0  0  0  0  0
   -6.6005   27.9603   52.0451 C   0  0  0  0  0  0
   -7.7511   27.2226   51.7374 C   0  0  0  0  0  0
   -8.3955   26.5416   52.7598 C   0  0  0  0  0  0
   -7.9422   26.6301   54.0744 C   0  0  0  0  0  0
   -8.3334   27.1226   50.4877 O   0  0  0  0  0  0
   -7.8354   27.9250   49.4197 C   0  0  0  0  0  0
   -8.7300   27.8593   48.1850 C   0  0  0  0  0  0
   -9.9300   27.1355   48.1739 C   0  0  0  0  0  0
  -10.7251   27.1212   47.0295 C   0  0  0  0  0  0
  -10.3253   27.8342   45.9026 C   0  0  0  0  0  0
   -9.1393   28.5634   45.9068 C   0  0  0  0  0  0
   -8.3409   28.5746   47.0480 C   0  0  0  0  0  0
   -3.1045   27.3983   58.7666 H   0  0  0  0  0  0
   -7.1385   27.6243   56.4740 H   0  0  0  0  0  0
   -5.2174   28.5714   53.5495 H   0  0  0  0  0  0
   -6.0643   28.5240   51.3083 H   0  0  0  0  0  0
   -9.2792   25.9731   52.5133 H   0  0  0  0  0  0
   -8.4982   26.1575   54.8675 H   0  0  0  0  0  0
   -7.8074   28.9697   49.7105 H   0  0  0  0  0  0
   -6.8176   27.6306   49.1743 H   0  0  0  0  0  0
  -10.2488   26.5815   49.0445 H   0  0  0  0  0  0
  -11.6521   26.5705   47.0238 H   0  0  0  0  0  0
  -10.9412   27.8251   45.0156 H   0  0  0  0  0  0
   -8.8331   29.1132   45.0263 H   0  0  0  0  0  0
   -7.4177   29.1380   47.0417 H   0  0  0  0  0  0
  1  2  1  0  0  0
  1  6  2  0  0  0
  1  5  1  0  0  0
  2  3  1  0  0  0
  2 23  1  0  0  0
  3  7  2  0  0  0
  3  4  1  0  0  0
  4  8  2  0  0  0
  4  5  1  0  0  0
  8  9  1  0  0  0
  8 24  1  0  0  0
  9 14  1  0  0  0
  9 10  2  0  0  0
 10 11  1  0  0  0
 10 25  1  0  0  0
 11 12  2  0  0  0
 11 26  1  0  0  0
 12 13  1  0  0  0
 12 15  1  0  0  0
 13 14  2  0  0  0
 13 27  1  0  0  0
 14 28  1  0  0  0
 15 16  1  0  0  0
 16 17  1  0  0  0
 16 29  1  0  0  0
 16 30  1  0  0  0
 17 18  2  0  0  0
 17 22  1  0  0  0
 18 19  1  0  0  0
 18 31  1  0  0  0
 19 20  2  0  0  0
 19 32  1  0  0  0
 20 21  1  0  0  0
 20 33  1  0  0  0
 21 22  2  0  0  0
 21 34  1  0  0  0
 22 35  1  0  0  0
M  END
> <s_m_entry_id>
64116

> <s_m_entry_name>
dock_pv.66

> <s_m_Source_Path>
/home/csk/Desktop/cluster/DUD-E-result/mmp13

> <s_m_Source_File>
dock_pv.maegz

> <i_m_Source_File_Index>
66

> <chembl_id>
CHEMBL1645391

> <chembl_pref_name>
None

> <i_lp_mmshare_version>
53161

> <i_f3d_flags>
0

> <r_lp_tautomer_probability>
1

> <s_lp_Force_Field>
OPLS_2005

> <r_lp_Energy>
21.357163

> <b_lp_Chiralities_Consistent>
1

> <s_lp_Variant>
CHEMBL280_lig2100-1

> <s_i_glide_gridfile>
glide-grid_830c

> <i_i_glide_lignum>
2906

> <i_i_glide_rotatable_bonds>
4

> <r_i_docking_score>
-7.91027329699632

> <r_i_glide_ligand_efficiency>
-0.359557877136196

> <r_i_glide_ligand_efficiency_sa>
-1.00749531234451

> <r_i_glide_ligand_efficiency_ln>
-1.93355932801499

> <r_i_glide_gscore>
-7.91027329699632

> <r_i_glide_lipo>
-3.57051250831018

> <r_i_glide_hbond>
-0.32

> <r_i_glide_metal>
0

> <r_i_glide_rewards>
-1.1760911105459

> <r_i_glide_evdw>
-44.8452529907227

> <r_i_glide_ecoul>
-7.72468423843384

> <r_i_glide_erotb>
0.700260926786562

> <r_i_glide_esite>
-0.142965319625594

> <r_i_glide_emodel>
-75.114016575748

> <r_i_glide_energy>
-52.5699372291565

> <r_i_glide_einternal>
2.67552256584167

> <i_i_glide_confnum>
97

> <i_i_glide_posenum>
291

> <r_i_glide_eff_state_penalty>
0

> <s_user_duplicate_titles>
CHEMBL280_lig2100

> <s_m_subgroup_title>
dock_pv

> <s_m_subgroupid>
dock_pv

> <b_m_subgroup_collapsed>
1

$$$$
CHEMBL280_lig1107
                    3D
 Schrodinger Suite 2021-1.
 41 42  0  0  1  0            999 V2000
   -7.2261   27.6609   53.9883 C   0  0  0  0  0  0
   -6.8959   28.9426   54.4133 C   0  0  0  0  0  0
   -6.2321   29.1494   55.6150 C   0  0  0  0  0  0
   -5.8814   28.0530   56.3937 C   0  0  0  0  0  0
   -6.2286   26.7579   56.0047 C   0  0  0  0  0  0
   -6.8962   26.5606   54.7971 C   0  0  0  0  0  0
   -7.8669   27.5879   52.7681 O   0  0  0  0  0  0
   -8.1693   26.3135   52.2261 C   0  0  0  0  0  0
   -8.8616   26.4007   50.9331 C   0  0  0  0  0  0
   -9.4522   26.4460   49.8649 C   0  0  0  0  0  0
  -10.1750   26.4804   48.5858 C   0  0  0  0  0  0
   -4.9219   28.3409   57.9123 S   0  0  2  0  0  0
   -3.2149   28.3119   57.1389 C   0  0  2  0  0  0
   -2.8888   27.2031   56.1125 C   0  0  0  0  0  0
   -2.7391   25.9647   56.5946 N   0  0  0  0  0  0
   -2.7396   27.4586   54.9104 O   0  0  0  0  0  0
   -2.3390   24.9701   55.7100 O   0  0  0  0  0  0
   -5.1388   27.1160   58.8026 O   0  0  0  0  0  0
   -2.1146   28.3957   58.2155 C   0  0  0  0  0  0
   -1.2282   29.4792   58.2148 C   0  0  0  0  0  0
   -0.1744   29.5271   59.1263 C   0  0  0  0  0  0
    0.0027   28.4880   60.0363 C   0  0  0  0  0  0
   -0.8764   27.4082   60.0586 C   0  0  0  0  0  0
   -1.9392   27.3700   59.1604 C   0  0  0  0  0  0
   -7.1388   29.7719   53.7754 H   0  0  0  0  0  0
   -5.9596   30.1515   55.9142 H   0  0  0  0  0  0
   -5.9548   25.9069   56.6141 H   0  0  0  0  0  0
   -7.1378   25.5505   54.5037 H   0  0  0  0  0  0
   -8.8149   25.7701   52.9101 H   0  0  0  0  0  0
   -7.2542   25.7347   52.1053 H   0  0  0  0  0  0
  -10.3390   25.4634   48.2277 H   0  0  0  0  0  0
   -9.5923   27.0309   47.8462 H   0  0  0  0  0  0
  -11.1392   26.9684   48.7216 H   0  0  0  0  0  0
   -3.1859   29.2417   56.5678 H   0  0  0  0  0  0
   -2.9215   25.6334   57.5374 H   0  0  0  0  0  0
   -3.1028   24.3566   55.7108 H   0  0  0  0  0  0
   -1.3417   30.2805   57.4994 H   0  0  0  0  0  0
    0.5108   30.3618   59.1185 H   0  0  0  0  0  0
    0.8251   28.5236   60.7364 H   0  0  0  0  0  0
   -0.7429   26.6133   60.7776 H   0  0  0  0  0  0
   -2.6271   26.5392   59.2035 H   0  0  0  0  0  0
  1  6  1  0  0  0
  1  2  2  0  0  0
  1  7  1  0  0  0
  2  3  1  0  0  0
  2 25  1  0  0  0
  3  4  2  0  0  0
  3 26  1  0  0  0
  4 12  1  0  0  0
  4  5  1  0  0  0
  5  6  2  0  0  0
  5 27  1  0  0  0
  6 28  1  0  0  0
  7  8  1  0  0  0
  8  9  1  0  0  0
  8 29  1  0  0  0
  8 30  1  0  0  0
  9 10  3  0  0  0
 10 11  1  0  0  0
 11 31  1  0  0  0
 11 32  1  0  0  0
 11 33  1  0  0  0
 12 13  1  0  0  0
 12 18  2  0  0  0
 13 14  1  0  0  0
 13 19  1  0  0  0
 13 34  1  0  0  0
 14 15  1  0  0  0
 14 16  2  0  0  0
 15 17  1  0  0  0
 15 35  1  0  0  0
 17 36  1  0  0  0
 19 20  2  0  0  0
 19 24  1  0  0  0
 20 21  1  0  0  0
 20 37  1  0  0  0
 21 22  2  0  0  0
 21 38  1  0  0  0
 22 23  1  0  0  0
 22 39  1  0  0  0
 23 24  2  0  0  0
 23 40  1  0  0  0
 24 41  1  0  0  0
M  END
> <s_m_entry_id>
64117

> <s_m_entry_name>
dock_pv.67

> <s_m_Source_Path>
/home/csk/Desktop/cluster/DUD-E-result/mmp13

> <s_m_Source_File>
dock_pv.maegz

> <i_m_Source_File_Index>
67

> <chembl_id>
CHEMBL2096854

> <chembl_pref_name>
None

> <i_lp_mmshare_version>
53161

> <i_f3d_flags>
0

> <r_lp_tautomer_probability>
1

> <s_lp_Force_Field>
OPLS_2005

> <r_lp_Energy>
27.236634

> <b_lp_Chiralities_Consistent>
1

> <s_lp_Variant>
CHEMBL280_lig1107-2

> <s_i_glide_gridfile>
glide-grid_830c

> <i_i_glide_lignum>
1785

> <i_i_glide_rotatable_bonds>
9

> <r_i_docking_score>
-7.89791786350296

> <r_i_glide_ligand_efficiency>
-0.32907991097929

> <r_i_glide_ligand_efficiency_sa>
-0.949230719407794

> <r_i_glide_ligand_efficiency_ln>
-1.89033415657194

> <r_i_glide_gscore>
-7.89791786350296

> <r_i_glide_lipo>
-2.8220281612764

> <r_i_glide_hbond>
-0.861350597571275

> <r_i_glide_metal>
0

> <r_i_glide_rewards>
-1.06765963485868

> <r_i_glide_evdw>
-36.5582962036133

> <r_i_glide_ecoul>
-16.0414695739746

> <r_i_glide_erotb>
1.28725577648024

> <r_i_glide_esite>
-0.2

> <r_i_glide_emodel>
-84.9930503159568

> <r_i_glide_energy>
-52.5997657775879

> <r_i_glide_einternal>
2.58075022697449

> <i_i_glide_confnum>
143

> <i_i_glide_posenum>
126

> <r_i_glide_eff_state_penalty>
0

> <s_user_duplicate_titles>
CHEMBL280_lig1107

> <s_m_subgroup_title>
dock_pv

> <s_m_subgroupid>
dock_pv

> <b_m_subgroup_collapsed>
1

$$$$
CHEMBL280_lig960
                    3D
 Schrodinger Suite 2021-1.
 56 58  0  0  1  0            999 V2000
   -4.9388   28.6369   58.1035 S   0  0  0  0  0  0
   -3.2537   29.0275   57.7079 N   0  0  1  0  0  0
   -2.2319   27.9469   57.7601 C   0  0  2  0  0  0
   -0.7771   28.4760   58.0536 C   0  0  0  0  0  0
   -2.3200   27.0929   56.4738 C   0  0  0  0  0  0
   -2.9627   30.2501   56.9001 C   0  0  0  0  0  0
   -5.7671   28.3045   56.5513 C   0  0  0  0  0  0
   -4.9823   27.3850   58.8709 O   0  0  0  0  0  0
   -5.5398   29.8636   58.6258 O   0  0  0  0  0  0
   -0.4688   29.6426   57.0690 C   0  0  0  0  0  0
   -2.3612   27.5653   55.3288 O   0  0  0  0  0  0
   -1.5196   30.7748   57.1028 C   0  0  1  0  0  0
   -2.3333   25.7850   56.7122 N   0  0  0  0  0  0
   -5.8929   27.0043   56.0504 C   0  0  0  0  0  0
   -6.3287   29.3762   55.8632 C   0  0  0  0  0  0
   -7.8757   27.7770   53.0015 O   0  0  0  0  0  0
   -7.1529   27.8664   54.1685 C   0  0  0  0  0  0
   -9.1708   27.6462   48.2878 C   0  0  0  0  0  0
   -8.3338   26.9147   50.8372 C   0  0  0  0  0  0
   -0.7250   28.9844   59.5121 C   0  0  0  0  0  0
    0.3005   27.3723   57.8620 C   0  0  0  0  0  0
   -7.8755   26.5749   52.2460 C   0  0  0  0  0  0
   -7.0204   29.1524   54.6835 C   0  0  0  0  0  0
   -6.5841   26.7859   54.8552 C   0  0  0  0  0  0
   -9.7555   28.1483   46.5457 Br  0  0  0  0  0  0
   -2.3391   24.9664   55.6113 O   0  0  0  0  0  0
   -1.2102   31.7292   56.1094 O   0  0  0  0  0  0
   -7.9646   28.1322   48.7814 C   0  0  0  0  0  0
   -9.9577   26.7923   49.0583 C   0  0  0  0  0  0
   -7.5453   27.7661   50.0545 C   0  0  0  0  0  0
   -9.5434   26.4221   50.3325 C   0  0  0  0  0  0
   -2.5169   27.2849   58.5875 H   0  0  0  0  0  0
   -3.0328   29.9500   55.8523 H   0  0  0  0  0  0
   -3.7098   31.0181   57.1012 H   0  0  0  0  0  0
    0.5187   30.0567   57.2829 H   0  0  0  0  0  0
   -0.3941   29.2652   56.0510 H   0  0  0  0  0  0
   -1.4597   31.3008   58.0544 H   0  0  0  0  0  0
   -2.3884   25.2869   57.5933 H   0  0  0  0  0  0
   -5.4724   26.1600   56.5815 H   0  0  0  0  0  0
   -6.2374   30.3866   56.2409 H   0  0  0  0  0  0
    0.2412   29.4377   59.7469 H   0  0  0  0  0  0
   -1.4916   29.7287   59.7084 H   0  0  0  0  0  0
   -0.8647   28.1686   60.2213 H   0  0  0  0  0  0
    1.2885   27.7191   58.1580 H   0  0  0  0  0  0
    0.0761   26.4902   58.4598 H   0  0  0  0  0  0
    0.3871   27.0384   56.8245 H   0  0  0  0  0  0
   -6.8745   26.1508   52.1846 H   0  0  0  0  0  0
   -8.5323   25.8381   52.7111 H   0  0  0  0  0  0
   -7.4503   29.9871   54.1577 H   0  0  0  0  0  0
   -6.6814   25.7749   54.4856 H   0  0  0  0  0  0
   -3.1842   24.4635   55.7101 H   0  0  0  0  0  0
   -1.8047   32.4789   56.2076 H   0  0  0  0  0  0
   -7.3603   28.8030   48.1868 H   0  0  0  0  0  0
  -10.8940   26.4246   48.6627 H   0  0  0  0  0  0
   -6.6276   28.1650   50.4481 H   0  0  0  0  0  0
  -10.1574   25.7672   50.9290 H   0  0  0  0  0  0
  1  2  1  0  0  0
  1  7  1  0  0  0
  1  8  2  0  0  0
  1  9  2  0  0  0
  2  3  1  0  0  0
  2  6  1  0  0  0
  3  4  1  0  0  0
  3  5  1  0  0  0
  3 32  1  0  0  0
  4 20  1  0  0  0
  4 21  1  0  0  0
  4 10  1  0  0  0
  5 11  2  0  0  0
  5 13  1  0  0  0
  6 12  1  0  0  0
  6 33  1  0  0  0
  6 34  1  0  0  0
  7 14  2  0  0  0
  7 15  1  0  0  0
 10 12  1  0  0  0
 10 35  1  0  0  0
 10 36  1  0  0  0
 12 27  1  0  0  0
 12 37  1  0  0  0
 13 26  1  0  0  0
 13 38  1  0  0  0
 14 24  1  0  0  0
 14 39  1  0  0  0
 15 23  2  0  0  0
 15 40  1  0  0  0
 16 17  1  0  0  0
 16 22  1  0  0  0
 17 23  1  0  0  0
 17 24  2  0  0  0
 18 29  2  0  0  0
 18 25  1  0  0  0
 18 28  1  0  0  0
 19 22  1  0  0  0
 19 30  1  0  0  0
 19 31  2  0  0  0
 20 41  1  0  0  0
 20 42  1  0  0  0
 20 43  1  0  0  0
 21 44  1  0  0  0
 21 45  1  0  0  0
 21 46  1  0  0  0
 22 47  1  0  0  0
 22 48  1  0  0  0
 23 49  1  0  0  0
 24 50  1  0  0  0
 26 51  1  0  0  0
 27 52  1  0  0  0
 28 30  2  0  0  0
 28 53  1  0  0  0
 29 31  1  0  0  0
 29 54  1  0  0  0
 30 55  1  0  0  0
 31 56  1  0  0  0
M  END
> <s_m_entry_id>
64118

> <s_m_entry_name>
dock_pv.68

> <s_m_Source_Path>
/home/csk/Desktop/cluster/DUD-E-result/mmp13

> <s_m_Source_File>
dock_pv.maegz

> <i_m_Source_File_Index>
68

> <chembl_id>
CHEMBL370312

> <chembl_pref_name>
None

> <i_lp_mmshare_version>
53161

> <i_f3d_flags>
0

> <r_lp_tautomer_probability>
1

> <s_lp_Force_Field>
OPLS_2005

> <r_lp_Energy>
27.277249

> <b_lp_Chiralities_Consistent>
1

> <s_lp_Variant>
CHEMBL280_lig960-1

> <s_i_glide_gridfile>
glide-grid_830c

> <i_i_glide_lignum>
1607

> <i_i_glide_rotatable_bonds>
9

> <r_i_docking_score>
-7.8951141935501

> <r_i_glide_ligand_efficiency>
-0.254681103017745

> <r_i_glide_ligand_efficiency_sa>
-0.800050288633856

> <r_i_glide_ligand_efficiency_ln>
-1.78059020683774

> <r_i_glide_gscore>
-7.8951141935501

> <r_i_glide_lipo>
-3.48218347550915

> <r_i_glide_hbond>
-0.0551943278424198

> <r_i_glide_metal>
0

> <r_i_glide_rewards>
0.00965513256596488

> <r_i_glide_evdw>
-50.1308784484863

> <r_i_glide_ecoul>
-14.3523607254028

> <r_i_glide_erotb>
0.54457766645157

> <r_i_glide_esite>
-0.25257115798132

> <r_i_glide_emodel>
-94.9235916379779

> <r_i_glide_energy>
-64.4832391738892

> <r_i_glide_einternal>
10.6600646972656

> <i_i_glide_confnum>
13

> <i_i_glide_posenum>
234

> <r_i_glide_eff_state_penalty>
0

> <s_user_duplicate_titles>
CHEMBL280_lig960,320211

> <s_m_subgroup_title>
dock_pv

> <s_m_subgroupid>
dock_pv

> <b_m_subgroup_collapsed>
1

$$$$
CHEMBL280_lig2188
                    3D
 Schrodinger Suite 2021-1.
 54 57  0  0  1  0            999 V2000
  -11.6781   27.7900   45.7093 O   0  0  0  0  0  0
  -10.2377   28.0672   45.6486 S   0  0  0  0  0  0
   -9.3651   27.2958   44.7578 O   0  0  0  0  0  0
   -5.5458   28.9314   56.7602 N   0  0  0  0  0  0
   -4.3335   28.4095   56.4345 C   0  0  0  0  0  0
   -3.1413   28.8122   56.9436 N   0  0  0  0  0  0
   -5.5818   29.9231   57.6901 C   0  0  0  0  0  0
   -4.3992   30.3949   58.2709 C   0  0  0  0  0  0
   -3.2039   29.8007   57.8709 C   0  0  0  0  0  0
   -2.0302   30.3598   58.6368 C   0  0  0  0  0  0
   -2.6222   31.5641   59.3817 C   0  0  0  0  0  0
   -4.1511   31.4321   59.3444 C   0  0  0  0  0  0
   -4.2829   27.0463   55.3090 S   0  0  0  0  0  0
   -5.9978   26.4479   55.0630 C   0  0  0  0  0  0
   -6.6360   26.7675   53.7115 C   0  0  0  0  0  0
   -6.7390   30.5131   58.1092 O   0  0  0  0  0  0
   -7.6041   25.9030   53.1998 C   0  0  0  0  0  0
   -8.2278   26.1698   51.9851 C   0  0  0  0  0  0
   -7.8600   27.2722   51.2150 C   0  0  0  0  0  0
   -6.8676   28.1199   51.7268 C   0  0  0  0  0  0
   -6.2826   27.8934   52.9696 C   0  0  0  0  0  0
   -8.4815   27.5004   49.8709 C   0  0  0  0  0  0
   -7.7520   28.1267   48.8565 C   0  0  0  0  0  0
   -8.2817   28.2841   47.5847 C   0  0  0  0  0  0
   -9.5805   27.8672   47.3082 C   0  0  0  0  0  0
  -10.3386   27.2608   48.3108 C   0  0  0  0  0  0
   -9.7903   27.0785   49.5808 C   0  0  0  0  0  0
  -10.0598   29.7730   45.2330 N   0  0  3  0  0  0
   -8.7421   30.4177   45.0114 C   0  0  0  0  0  0
   -8.3609   31.3682   46.1657 C   0  0  0  0  0  0
   -9.1390   32.5456   46.1098 O   0  0  0  0  0  0
   -6.6614   30.9575   58.9630 H   0  0  0  0  0  0
   -1.6352   29.6220   59.3357 H   0  0  0  0  0  0
   -1.2106   30.6672   57.9860 H   0  0  0  0  0  0
   -2.2435   31.6438   60.4024 H   0  0  0  0  0  0
   -2.3289   32.4831   58.8704 H   0  0  0  0  0  0
   -4.6146   32.3943   59.1233 H   0  0  0  0  0  0
   -4.5266   31.0914   60.3092 H   0  0  0  0  0  0
   -6.6542   26.7959   55.8597 H   0  0  0  0  0  0
   -5.9503   25.3700   55.1764 H   0  0  0  0  0  0
   -7.8678   24.9927   53.7100 H   0  0  0  0  0  0
   -8.9556   25.4640   51.6133 H   0  0  0  0  0  0
   -6.5356   28.9700   51.1591 H   0  0  0  0  0  0
   -5.5370   28.5829   53.3354 H   0  0  0  0  0  0
   -6.7388   28.4526   49.0250 H   0  0  0  0  0  0
   -7.6536   28.7067   46.8166 H   0  0  0  0  0  0
  -11.3463   26.9260   48.1094 H   0  0  0  0  0  0
  -10.3969   26.6047   50.3382 H   0  0  0  0  0  0
  -10.8661   30.3866   45.3716 H   0  0  0  0  0  0
   -8.7430   30.9618   44.0661 H   0  0  0  0  0  0
   -7.9949   29.6305   44.9083 H   0  0  0  0  0  0
   -7.3067   31.6384   46.1101 H   0  0  0  0  0  0
   -8.4970   30.9033   47.1411 H   0  0  0  0  0  0
   -9.7470   32.5693   46.8639 H   0  0  0  0  0  0
  1  2  2  0  0  0
  2  3  2  0  0  0
  2 25  1  0  0  0
  2 28  1  0  0  0
  4  5  1  0  0  0
  4  7  2  0  0  0
  5 13  1  0  0  0
  5  6  2  0  0  0
  6  9  1  0  0  0
  7 16  1  0  0  0
  7  8  1  0  0  0
  8 12  1  0  0  0
  8  9  2  0  0  0
  9 10  1  0  0  0
 10 11  1  0  0  0
 10 33  1  0  0  0
 10 34  1  0  0  0
 11 12  1  0  0  0
 11 35  1  0  0  0
 11 36  1  0  0  0
 12 37  1  0  0  0
 12 38  1  0  0  0
 13 14  1  0  0  0
 14 15  1  0  0  0
 14 39  1  0  0  0
 14 40  1  0  0  0
 15 17  2  0  0  0
 15 21  1  0  0  0
 16 32  1  0  0  0
 17 18  1  0  0  0
 17 41  1  0  0  0
 18 19  2  0  0  0
 18 42  1  0  0  0
 19 20  1  0  0  0
 19 22  1  0  0  0
 20 21  2  0  0  0
 20 43  1  0  0  0
 21 44  1  0  0  0
 22 23  2  0  0  0
 22 27  1  0  0  0
 23 24  1  0  0  0
 23 45  1  0  0  0
 24 25  2  0  0  0
 24 46  1  0  0  0
 25 26  1  0  0  0
 26 27  2  0  0  0
 26 47  1  0  0  0
 27 48  1  0  0  0
 28 29  1  0  0  0
 28 49  1  0  0  0
 29 30  1  0  0  0
 29 50  1  0  0  0
 29 51  1  0  0  0
 30 31  1  0  0  0
 30 52  1  0  0  0
 30 53  1  0  0  0
 31 54  1  0  0  0
M  END
> <s_m_entry_id>
64119

> <s_m_entry_name>
dock_pv.69

> <s_m_Source_Path>
/home/csk/Desktop/cluster/DUD-E-result/mmp13

> <s_m_Source_File>
dock_pv.maegz

> <i_m_Source_File_Index>
69

> <chembl_id>
CHEMBL4100008

> <chembl_pref_name>
None

> <i_lp_mmshare_version>
53161

> <i_f3d_flags>
0

> <r_lp_tautomer_probability>
0.0660144953277732

> <s_lp_Force_Field>
OPLS_2005

> <r_lp_Energy>
23.659348

> <b_lp_Chiralities_Consistent>
1

> <s_lp_Variant>
CHEMBL280_lig2188-3

> <s_i_glide_gridfile>
glide-grid_830c

> <i_i_glide_lignum>
3075

> <i_i_glide_rotatable_bonds>
10

> <r_i_docking_score>
-7.89501305813245

> <r_i_glide_ligand_efficiency>
-0.254677840584918

> <r_i_glide_ligand_efficiency_sa>
-0.800040040090505

> <r_i_glide_ligand_efficiency_ln>
-1.78056739770163

> <r_i_glide_gscore>
-7.89501305813245

> <r_i_glide_lipo>
-4.07900128813966

> <r_i_glide_hbond>
-0.533530891343397

> <r_i_glide_metal>
0

> <r_i_glide_rewards>
0.48544300914731

> <r_i_glide_evdw>
-51.8498725891113

> <r_i_glide_ecoul>
-12.9578742980957

> <r_i_glide_erotb>
0.768250886373209

> <r_i_glide_esite>
0

> <r_i_glide_emodel>
-87.5331016594858

> <r_i_glide_energy>
-64.807746887207

> <r_i_glide_einternal>
12.1426362991333

> <i_i_glide_confnum>
10

> <i_i_glide_posenum>
156

> <r_i_glide_eff_state_penalty>
0

> <s_user_duplicate_titles>
CHEMBL280_lig2188

> <s_m_subgroup_title>
dock_pv

> <s_m_subgroupid>
dock_pv

> <b_m_subgroup_collapsed>
1

$$$$
CHEMBL280_lig324
                    3D
 Schrodinger Suite 2021-1.
 56 58  0  0  1  0            999 V2000
   -5.0605   27.8177   57.7105 S   0  0  0  0  0  0
   -3.5363   26.9702   57.6434 N   0  0  3  0  0  0
   -7.9884   26.8553   51.4685 C   0  0  0  0  0  0
   -2.2780   27.6332   57.2428 C   0  0  2  0  0  0
   -1.4515   26.5238   56.5519 C   0  0  0  0  0  0
   -5.7354   27.7772   56.0593 C   0  0  0  0  0  0
   -7.2814   27.7711   52.1602 N   0  0  0  0  0  0
   -0.9964   27.6044   59.5048 C   0  0  0  0  0  0
   -0.3552   26.8388   60.2071 C   0  0  0  0  0  0
   -5.9389   26.9717   58.5099 O   0  0  0  0  0  0
   -4.8081   29.2145   58.0790 O   0  0  0  0  0  0
   -8.4237   27.2647   50.0804 C   0  0  0  0  0  0
   -8.3392   25.7701   51.9254 O   0  0  0  0  0  0
   -1.9381   25.7702   55.7100 O   0  0  0  0  0  0
   -6.0139   26.5495   55.4588 C   0  0  0  0  0  0
   -6.0234   28.9636   55.3931 C   0  0  0  0  0  0
   -9.6061   26.7334   49.5468 C   0  0  0  0  0  0
   -7.6714   28.1635   49.3074 C   0  0  0  0  0  0
   -6.8069   27.6979   53.4828 C   0  0  0  0  0  0
   -1.6347   28.4086   58.4398 C   0  0  0  0  0  0
   -0.1389   26.4907   56.9116 O   0  0  0  0  0  0
   -9.2869   28.0095   47.5295 C   0  0  0  0  0  0
   -6.5448   26.5045   54.1709 C   0  0  0  0  0  0
   -6.5580   28.9152   54.1119 C   0  0  0  0  0  0
   -8.1036   28.5370   48.0379 C   0  0  0  0  0  0
  -10.0376   27.1076   48.2779 C   0  0  0  0  0  0
   -9.8803   28.5173   45.7947 Br  0  0  0  0  0  0
    0.5133   25.8272   60.8257 C   0  0  0  0  0  0
    1.8472   24.0327   59.8448 C   0  0  0  0  0  0
    1.4506   25.3542   59.8584 O   0  0  0  0  0  0
    2.4622   23.5811   58.6764 C   0  0  0  0  0  0
    1.6614   23.1409   60.9100 C   0  0  0  0  0  0
    2.0609   21.8120   60.7912 C   0  0  0  0  0  0
    2.8613   22.2528   58.5545 C   0  0  0  0  0  0
    2.6532   21.3720   59.6120 C   0  0  0  0  0  0
   -3.5399   25.9673   57.8734 H   0  0  0  0  0  0
   -2.5294   28.3465   56.4561 H   0  0  0  0  0  0
   -7.1489   28.6584   51.6981 H   0  0  0  0  0  0
   -5.8179   25.6283   55.9887 H   0  0  0  0  0  0
   -5.8211   29.9223   55.8495 H   0  0  0  0  0  0
  -10.2013   26.0308   50.1142 H   0  0  0  0  0  0
   -6.7398   28.5725   49.6705 H   0  0  0  0  0  0
   -2.3739   29.0570   58.9078 H   0  0  0  0  0  0
   -0.8647   29.0820   58.0614 H   0  0  0  0  0  0
    0.0487   27.0443   57.6753 H   0  0  0  0  0  0
   -6.7172   25.5387   53.7198 H   0  0  0  0  0  0
   -6.7393   29.8429   53.6006 H   0  0  0  0  0  0
   -7.5170   29.2266   47.4474 H   0  0  0  0  0  0
  -10.9560   26.7035   47.8775 H   0  0  0  0  0  0
   -0.1445   25.0510   61.2167 H   0  0  0  0  0  0
    1.0408   26.2721   61.6696 H   0  0  0  0  0  0
    2.6068   24.2616   57.8500 H   0  0  0  0  0  0
    1.2128   23.4602   61.8362 H   0  0  0  0  0  0
    1.9118   21.1250   61.6110 H   0  0  0  0  0  0
    3.3150   21.9025   57.6392 H   0  0  0  0  0  0
    2.9508   20.3384   59.5146 H   0  0  0  0  0  0
  1  2  1  0  0  0
  1  6  1  0  0  0
  1 10  2  0  0  0
  1 11  2  0  0  0
  2  4  1  0  0  0
  2 36  1  0  0  0
  3  7  1  0  0  0
  3 12  1  0  0  0
  3 13  2  0  0  0
  4  5  1  0  0  0
  4 20  1  0  0  0
  4 37  1  0  0  0
  5 14  2  0  0  0
  5 21  1  0  0  0
  6 15  2  0  0  0
  6 16  1  0  0  0
  7 19  1  0  0  0
  7 38  1  0  0  0
  8 20  1  0  0  0
  8  9  3  0  0  0
  9 28  1  0  0  0
 12 17  2  0  0  0
 12 18  1  0  0  0
 15 23  1  0  0  0
 15 39  1  0  0  0
 16 24  2  0  0  0
 16 40  1  0  0  0
 17 26  1  0  0  0
 17 41  1  0  0  0
 18 25  2  0  0  0
 18 42  1  0  0  0
 19 24  1  0  0  0
 19 23  2  0  0  0
 20 43  1  0  0  0
 20 44  1  0  0  0
 21 45  1  0  0  0
 22 25  1  0  0  0
 22 27  1  0  0  0
 22 26  2  0  0  0
 23 46  1  0  0  0
 24 47  1  0  0  0
 25 48  1  0  0  0
 26 49  1  0  0  0
 28 30  1  0  0  0
 28 50  1  0  0  0
 28 51  1  0  0  0
 29 30  1  0  0  0
 29 31  2  0  0  0
 29 32  1  0  0  0
 31 34  1  0  0  0
 31 52  1  0  0  0
 32 33  2  0  0  0
 32 53  1  0  0  0
 33 35  1  0  0  0
 33 54  1  0  0  0
 34 35  2  0  0  0
 34 55  1  0  0  0
 35 56  1  0  0  0
M  END
> <s_m_entry_id>
64120

> <s_m_entry_name>
dock_pv.70

> <s_m_Source_Path>
/home/csk/Desktop/cluster/DUD-E-result/mmp13

> <s_m_Source_File>
dock_pv.maegz

> <i_m_Source_File_Index>
70

> <chembl_id>
CHEMBL10908

> <chembl_pref_name>
None

> <i_lp_mmshare_version>
53161

> <i_f3d_flags>
0

> <r_lp_tautomer_probability>
1

> <s_lp_Force_Field>
OPLS_2005

> <r_lp_Energy>
25.312878

> <b_lp_Chiralities_Consistent>
1

> <s_lp_Variant>
CHEMBL280_lig324-1

> <s_i_glide_gridfile>
glide-grid_830c

> <i_i_glide_lignum>
457

> <i_i_glide_rotatable_bonds>
13

> <r_i_docking_score>
-7.88487218141926

> <r_i_glide_ligand_efficiency>
-0.225282062326264

> <r_i_glide_ligand_efficiency_sa>
-0.736912563491923

> <r_i_glide_ligand_efficiency_ln>
-1.7309044391311

> <r_i_glide_gscore>
-7.88487218141926

> <r_i_glide_lipo>
-3.32692557584438

> <r_i_glide_hbond>
-0.307852317757631

> <r_i_glide_metal>
0

> <r_i_glide_rewards>
0.574981016450952

> <r_i_glide_evdw>
-54.2800674438477

> <r_i_glide_ecoul>
-17.0798740386963

> <r_i_glide_erotb>
0.658659910712969

> <r_i_glide_esite>
-0.20775073698434

> <r_i_glide_emodel>
-98.5741739822882

> <r_i_glide_energy>
-71.3599414825439

> <r_i_glide_einternal>
13.1801023483276

> <i_i_glide_confnum>
25

> <i_i_glide_posenum>
178

> <r_i_glide_eff_state_penalty>
0

> <s_user_duplicate_titles>
CHEMBL280_lig324,7848

> <s_m_subgroup_title>
dock_pv

> <s_m_subgroupid>
dock_pv

> <b_m_subgroup_collapsed>
1

$$$$
CHEMBL280_lig199
                    3D
 Schrodinger Suite 2021-1.
 56 58  0  0  1  0            999 V2000
   -5.0497   28.6536   58.0395 S   0  0  0  0  0  0
   -3.3905   29.1332   57.6492 N   0  0  1  0  0  0
   -2.2853   28.1389   57.6845 C   0  0  2  0  0  0
   -0.7873   30.0501   56.9837 N   0  0  0  0  0  0
   -0.8637   28.8012   57.8002 C   0  0  1  0  0  0
   -2.3326   27.1701   56.4781 C   0  0  0  0  0  0
   -3.1922   30.2874   56.7469 C   0  0  0  0  0  0
    0.3726   30.3778   56.3510 C   0  0  0  0  0  0
   -1.8986   31.0206   57.1223 C   0  0  0  0  0  0
   -5.8360   28.2692   56.4830 C   0  0  0  0  0  0
   -5.0285   27.4374   58.8652 O   0  0  0  0  0  0
   -5.7240   29.8637   58.5108 O   0  0  0  0  0  0
   -2.3390   27.5754   55.3102 O   0  0  0  0  0  0
    1.3635   29.6468   56.3548 O   0  0  0  0  0  0
   -2.3390   25.8632   56.7729 N   0  0  0  0  0  0
   -6.4062   29.3342   55.7917 C   0  0  0  0  0  0
   -5.9253   26.9681   55.9783 C   0  0  0  0  0  0
   -7.9147   27.7349   52.9213 O   0  0  0  0  0  0
   -7.1980   27.8214   54.0944 C   0  0  0  0  0  0
   -9.2213   27.5343   48.1960 C   0  0  0  0  0  0
   -8.3511   26.8594   50.7512 C   0  0  0  0  0  0
   -0.4723   29.0247   59.2746 C   0  0  0  0  0  0
   -7.8765   26.5404   52.1591 C   0  0  0  0  0  0
   -7.0915   29.1032   54.6156 C   0  0  0  0  0  0
   -6.6037   26.7450   54.7761 C   0  0  0  0  0  0
   -9.6504   27.8637   46.9572 F   0  0  0  0  0  0
   -2.3390   24.9700   55.7060 O   0  0  0  0  0  0
   -8.0640   28.1151   48.7054 C   0  0  0  0  0  0
   -9.9404   26.6125   48.9524 C   0  0  0  0  0  0
   -7.6261   27.7702   49.9804 C   0  0  0  0  0  0
   -9.5083   26.2730   50.2333 C   0  0  0  0  0  0
    0.4740   31.6884   55.5667 C   0  0  0  0  0  0
   -2.4697   27.5024   58.5527 H   0  0  0  0  0  0
   -0.1221   28.0908   57.4244 H   0  0  0  0  0  0
   -4.0489   30.9600   56.7934 H   0  0  0  0  0  0
   -3.0961   29.9116   55.7273 H   0  0  0  0  0  0
   -1.9413   31.3003   58.1758 H   0  0  0  0  0  0
   -1.7927   31.9444   56.5553 H   0  0  0  0  0  0
   -2.4376   25.4198   57.6801 H   0  0  0  0  0  0
   -6.3428   30.3453   56.1673 H   0  0  0  0  0  0
   -5.4897   26.1347   56.5131 H   0  0  0  0  0  0
   -0.5409   28.0977   59.8443 H   0  0  0  0  0  0
    0.5548   29.3808   59.3637 H   0  0  0  0  0  0
   -1.1358   29.7401   59.7611 H   0  0  0  0  0  0
   -6.8551   26.1689   52.0922 H   0  0  0  0  0  0
   -8.4929   25.7713   52.6265 H   0  0  0  0  0  0
   -7.5386   29.9388   54.1102 H   0  0  0  0  0  0
   -6.6773   25.7349   54.4005 H   0  0  0  0  0  0
   -3.2027   24.5080   55.7861 H   0  0  0  0  0  0
   -7.5070   28.8304   48.1176 H   0  0  0  0  0  0
  -10.8331   26.1702   48.5374 H   0  0  0  0  0  0
   -6.7391   28.2391   50.3796 H   0  0  0  0  0  0
  -10.0743   25.5634   50.8187 H   0  0  0  0  0  0
   -0.3395   31.7783   54.8486 H   0  0  0  0  0  0
    0.4488   32.5425   56.2441 H   0  0  0  0  0  0
    1.4121   31.7288   55.0114 H   0  0  0  0  0  0
  1  2  1  0  0  0
  1 10  1  0  0  0
  1 11  2  0  0  0
  1 12  2  0  0  0
  2  3  1  0  0  0
  2  7  1  0  0  0
  3  5  1  0  0  0
  3  6  1  0  0  0
  3 33  1  0  0  0
  4  9  1  0  0  0
  4  8  1  0  0  0
  4  5  1  0  0  0
  5 22  1  0  0  0
  5 34  1  0  0  0
  6 13  2  0  0  0
  6 15  1  0  0  0
  7  9  1  0  0  0
  7 35  1  0  0  0
  7 36  1  0  0  0
  8 14  2  0  0  0
  8 32  1  0  0  0
  9 37  1  0  0  0
  9 38  1  0  0  0
 10 16  2  0  0  0
 10 17  1  0  0  0
 15 27  1  0  0  0
 15 39  1  0  0  0
 16 24  1  0  0  0
 16 40  1  0  0  0
 17 25  2  0  0  0
 17 41  1  0  0  0
 18 19  1  0  0  0
 18 23  1  0  0  0
 19 25  1  0  0  0
 19 24  2  0  0  0
 20 29  2  0  0  0
 20 26  1  0  0  0
 20 28  1  0  0  0
 21 23  1  0  0  0
 21 30  1  0  0  0
 21 31  2  0  0  0
 22 42  1  0  0  0
 22 43  1  0  0  0
 22 44  1  0  0  0
 23 45  1  0  0  0
 23 46  1  0  0  0
 24 47  1  0  0  0
 25 48  1  0  0  0
 27 49  1  0  0  0
 28 30  2  0  0  0
 28 50  1  0  0  0
 29 31  1  0  0  0
 29 51  1  0  0  0
 30 52  1  0  0  0
 31 53  1  0  0  0
 32 54  1  0  0  0
 32 55  1  0  0  0
 32 56  1  0  0  0
M  END
> <s_m_entry_id>
64121

> <s_m_entry_name>
dock_pv.71

> <s_m_Source_Path>
/home/csk/Desktop/cluster/DUD-E-result/mmp13

> <s_m_Source_File>
dock_pv.maegz

> <i_m_Source_File_Index>
71

> <chembl_id>
CHEMBL110591

> <chembl_pref_name>
None

> <i_lp_mmshare_version>
53161

> <i_f3d_flags>
0

> <r_lp_tautomer_probability>
1

> <s_lp_Force_Field>
OPLS_2005

> <r_lp_Energy>
40.011613

> <b_lp_Chiralities_Consistent>
1

> <s_lp_Variant>
CHEMBL280_lig199-1

> <s_i_glide_gridfile>
glide-grid_830c

> <i_i_glide_lignum>
265

> <i_i_glide_rotatable_bonds>
9

> <r_i_docking_score>
-7.83235072246252

> <r_i_glide_ligand_efficiency>
-0.244760960076954

> <r_i_glide_ligand_efficiency_sa>
-0.777067610116102

> <r_i_glide_ligand_efficiency_ln>
-1.75387682857648

> <r_i_glide_gscore>
-7.83235072246252

> <r_i_glide_lipo>
-3.27708505672925

> <r_i_glide_hbond>
-0.0827446660423455

> <r_i_glide_metal>
0

> <r_i_glide_rewards>
-0.196863340389505

> <r_i_glide_evdw>
-49.379280090332

> <r_i_glide_ecoul>
-14.7256679534912

> <r_i_glide_erotb>
0.651505905017331

> <r_i_glide_esite>
-0.249349366778461

> <r_i_glide_emodel>
-89.8621835681218

> <r_i_glide_energy>
-64.1049480438232

> <r_i_glide_einternal>
13.7477750778198

> <i_i_glide_confnum>
2

> <i_i_glide_posenum>
61

> <r_i_glide_eff_state_penalty>
0

> <s_user_duplicate_titles>
CHEMBL280_lig199

> <s_m_subgroup_title>
dock_pv

> <s_m_subgroupid>
dock_pv

> <b_m_subgroup_collapsed>
1

$$$$
CHEMBL280_lig449
                    3D
 Schrodinger Suite 2021-1.
 48 49  0  0  1  0            999 V2000
   -5.6825   28.4930   57.0546 S   0  0  0  0  0  0
   -2.6931   28.5293   56.9789 C   0  0  1  0  0  0
   -4.0101   29.3409   56.7214 C   0  0  0  0  0  0
   -2.6644   27.2628   56.0551 C   0  0  0  0  0  0
   -6.2071   27.7587   55.5045 C   0  0  0  0  0  0
   -1.5248   29.3643   56.5399 N   0  0  0  0  0  0
   -5.5387   27.4066   58.0318 O   0  0  0  0  0  0
   -6.6401   29.5731   57.3096 O   0  0  0  0  0  0
   -2.7554   27.3778   54.8273 O   0  0  0  0  0  0
   -2.4845   26.0488   56.5972 N   0  0  0  0  0  0
   -6.1898   26.3750   55.3416 C   0  0  0  0  0  0
   -6.7389   28.5714   54.5028 C   0  0  0  0  0  0
   -7.9389   25.9506   52.1576 O   0  0  0  0  0  0
   -7.3204   26.6031   53.2102 C   0  0  0  0  0  0
   -2.5290   28.2205   58.5013 C   0  0  0  0  0  0
   -7.3006   27.9949   53.3658 C   0  0  0  0  0  0
   -6.7391   25.8049   54.1960 C   0  0  0  0  0  0
   -8.3535   26.5915   51.0086 C   0  0  0  0  0  0
   -2.3390   24.9700   55.7100 O   0  0  0  0  0  0
   -1.5484   30.8005   56.8538 C   0  0  0  0  0  0
   -0.1905   28.8642   56.9101 C   0  0  0  0  0  0
   -9.6506   26.3621   50.5494 C   0  0  0  0  0  0
   -7.4946   27.4046   50.2646 C   0  0  0  0  0  0
   -7.9389   28.0109   49.0926 C   0  0  0  0  0  0
  -10.1023   26.9709   49.3807 C   0  0  0  0  0  0
   -9.2436   27.7949   48.6577 C   0  0  0  0  0  0
   -4.0398   30.2001   57.3888 H   0  0  0  0  0  0
   -4.0583   29.7375   55.7100 H   0  0  0  0  0  0
   -2.4886   25.7850   57.5759 H   0  0  0  0  0  0
   -5.7863   25.7373   56.1147 H   0  0  0  0  0  0
   -6.7601   29.6453   54.6247 H   0  0  0  0  0  0
   -3.3661   27.6745   58.9262 H   0  0  0  0  0  0
   -1.6478   27.6168   58.7185 H   0  0  0  0  0  0
   -2.4228   29.1429   59.0718 H   0  0  0  0  0  0
   -7.7496   28.6331   52.6230 H   0  0  0  0  0  0
   -6.7388   24.7293   54.0893 H   0  0  0  0  0  0
   -3.1774   24.4681   55.8183 H   0  0  0  0  0  0
   -0.6540   31.3013   56.4791 H   0  0  0  0  0  0
   -2.3873   31.3060   56.3760 H   0  0  0  0  0  0
   -1.6037   30.9795   57.9281 H   0  0  0  0  0  0
    0.5826   29.3694   56.3290 H   0  0  0  0  0  0
    0.0275   29.0395   57.9650 H   0  0  0  0  0  0
   -0.0855   27.7953   56.7281 H   0  0  0  0  0  0
  -10.3099   25.7162   51.1097 H   0  0  0  0  0  0
   -6.4787   27.5699   50.5935 H   0  0  0  0  0  0
   -7.2706   28.6454   48.5277 H   0  0  0  0  0  0
  -11.1125   26.8076   49.0339 H   0  0  0  0  0  0
   -9.5898   28.2674   47.7498 H   0  0  0  0  0  0
  1  3  1  0  0  0
  1  5  1  0  0  0
  1  7  2  0  0  0
  1  8  2  0  0  0
  2  3  1  0  0  0
  2  4  1  0  0  0
  2  6  1  0  0  0
  2 15  1  0  0  0
  3 27  1  0  0  0
  3 28  1  0  0  0
  4  9  2  0  0  0
  4 10  1  0  0  0
  5 11  1  0  0  0
  5 12  2  0  0  0
  6 20  1  0  0  0
  6 21  1  0  0  0
 10 19  1  0  0  0
 10 29  1  0  0  0
 11 17  2  0  0  0
 11 30  1  0  0  0
 12 16  1  0  0  0
 12 31  1  0  0  0
 13 14  1  0  0  0
 13 18  1  0  0  0
 14 16  2  0  0  0
 14 17  1  0  0  0
 15 32  1  0  0  0
 15 33  1  0  0  0
 15 34  1  0  0  0
 16 35  1  0  0  0
 17 36  1  0  0  0
 18 22  1  0  0  0
 18 23  2  0  0  0
 19 37  1  0  0  0
 20 38  1  0  0  0
 20 39  1  0  0  0
 20 40  1  0  0  0
 21 41  1  0  0  0
 21 42  1  0  0  0
 21 43  1  0  0  0
 22 25  2  0  0  0
 22 44  1  0  0  0
 23 24  1  0  0  0
 23 45  1  0  0  0
 24 26  2  0  0  0
 24 46  1  0  0  0
 25 26  1  0  0  0
 25 47  1  0  0  0
 26 48  1  0  0  0
M  END
> <s_m_entry_id>
64122

> <s_m_entry_name>
dock_pv.72

> <s_m_Source_Path>
/home/csk/Desktop/cluster/DUD-E-result/mmp13

> <s_m_Source_File>
dock_pv.maegz

> <i_m_Source_File_Index>
72

> <chembl_id>
CHEMBL328346

> <chembl_pref_name>
None

> <i_lp_mmshare_version>
53161

> <i_f3d_flags>
0

> <r_lp_tautomer_probability>
1

> <s_lp_Force_Field>
OPLS_2005

> <r_lp_Energy>
35.078434

> <b_lp_Chiralities_Consistent>
1

> <s_lp_Variant>
CHEMBL280_lig449-1

> <s_i_glide_gridfile>
glide-grid_830c

> <i_i_glide_lignum>
639

> <i_i_glide_rotatable_bonds>
9

> <r_i_docking_score>
-7.83132947593504

> <r_i_glide_ligand_efficiency>
-0.301204979843655

> <r_i_glide_ligand_efficiency_sa>
-0.892318567602463

> <r_i_glide_ligand_efficiency_ln>
-1.83916203073542

> <r_i_glide_gscore>
-7.83132947593504

> <r_i_glide_lipo>
-3.14564928811588

> <r_i_glide_hbond>
0

> <r_i_glide_metal>
0

> <r_i_glide_rewards>
-0.884213085676752

> <r_i_glide_evdw>
-42.7302093505859

> <r_i_glide_ecoul>
-16.080904006958

> <r_i_glide_erotb>
0.947178966430595

> <r_i_glide_esite>
-0.2

> <r_i_glide_emodel>
-87.7186227484564

> <r_i_glide_energy>
-58.8111133575439

> <r_i_glide_einternal>
10.7748184204102

> <i_i_glide_confnum>
36

> <i_i_glide_posenum>
188

> <r_i_glide_eff_state_penalty>
0

> <s_user_duplicate_titles>
CHEMBL280_lig449,149090

> <s_m_subgroup_title>
dock_pv

> <s_m_subgroupid>
dock_pv

> <b_m_subgroup_collapsed>
1

$$$$
CHEMBL280_lig897
                    3D
 Schrodinger Suite 2021-1.
 54 56  0  0  1  0            999 V2000
   -3.4194   28.5258   57.0360 C   0  0  1  0  0  0
   -3.6869   27.8420   58.3902 C   0  0  0  0  0  0
   -2.5781   27.5534   56.1172 C   0  0  0  0  0  0
   -1.6215   26.8427   56.7584 N   0  0  0  0  0  0
   -1.4498   26.5723   58.0671 C   0  0  0  0  0  0
   -2.3627   27.3682   59.0462 C   0  0  2  0  0  0
   -9.0349   27.9882   47.7693 C   0  0  0  0  0  0
   -4.6232   28.9829   56.3770 O   0  0  0  0  0  0
   -8.7242   27.4352   49.1557 C   0  0  0  0  0  0
   -4.8151   27.6901   58.8709 O   0  0  0  0  0  0
   -2.7390   27.3700   54.9099 O   0  0  0  0  0  0
   -0.5894   25.7634   58.4099 O   0  0  0  0  0  0
   -2.7014   29.9018   57.3060 C   0  0  0  0  0  0
   -2.6274   26.5565   60.2175 N   0  0  0  0  0  0
   -7.9651   28.5228   47.1770 F   0  0  0  0  0  0
   -9.5398   27.0431   46.9744 F   0  0  0  0  0  0
   -9.9385   28.9495   47.9167 F   0  0  0  0  0  0
   -8.0893   26.1694   53.0919 O   0  0  0  0  0  0
   -7.5387   27.7838   49.8018 C   0  0  0  0  0  0
   -9.6400   26.6016   49.8016 C   0  0  0  0  0  0
   -5.5499   28.2047   55.7056 C   0  0  0  0  0  0
   -8.2435   26.5838   51.7802 C   0  0  0  0  0  0
   -7.3039   26.8644   53.9898 C   0  0  0  0  0  0
   -7.3011   27.3684   51.1062 C   0  0  0  0  0  0
   -9.3922   26.1709   51.1023 C   0  0  0  0  0  0
   -6.4311   28.9220   54.9042 C   0  0  0  0  0  0
   -5.6312   26.8063   55.7379 C   0  0  0  0  0  0
   -7.3065   28.2596   54.0531 C   0  0  0  0  0  0
   -6.4976   26.1445   54.8702 C   0  0  0  0  0  0
   -0.8210   29.9650   55.6943 O   0  0  0  0  0  0
   -2.0277   30.6033   56.1151 C   0  0  0  0  0  0
    0.3239   30.0777   56.5369 C   0  0  0  0  0  0
    0.8692   31.5103   56.6205 C   0  0  0  0  0  0
   -1.0165   26.2975   56.1668 H   0  0  0  0  0  0
   -1.7856   28.2224   59.3919 H   0  0  0  0  0  0
   -1.9739   29.8691   58.1120 H   0  0  0  0  0  0
   -3.4531   30.5977   57.6884 H   0  0  0  0  0  0
   -3.2618   25.8067   59.9453 H   0  0  0  0  0  0
   -1.7643   26.1164   60.5123 H   0  0  0  0  0  0
   -6.8034   28.4084   49.3124 H   0  0  0  0  0  0
  -10.5529   26.3104   49.3049 H   0  0  0  0  0  0
   -6.3744   27.6601   51.5810 H   0  0  0  0  0  0
  -10.1114   25.5407   51.6016 H   0  0  0  0  0  0
   -6.3861   30.0005   54.8952 H   0  0  0  0  0  0
   -4.9992   26.2143   56.3813 H   0  0  0  0  0  0
   -7.9396   28.8375   53.3995 H   0  0  0  0  0  0
   -6.5104   25.0631   54.8535 H   0  0  0  0  0  0
   -2.7387   30.5945   55.2973 H   0  0  0  0  0  0
   -1.8500   31.6561   56.3319 H   0  0  0  0  0  0
    1.0937   29.4391   56.1050 H   0  0  0  0  0  0
    0.1362   29.6707   57.5307 H   0  0  0  0  0  0
    1.8188   31.5298   57.1522 H   0  0  0  0  0  0
    1.0373   31.9251   55.6263 H   0  0  0  0  0  0
    0.1899   32.1750   57.1546 H   0  0  0  0  0  0
  1  2  1  0  0  0
  1  3  1  0  0  0
  1  8  1  0  0  0
  1 13  1  0  0  0
  2  6  1  0  0  0
  2 10  2  0  0  0
  3  4  1  0  0  0
  3 11  2  0  0  0
  4  5  1  0  0  0
  4 34  1  0  0  0
  5 12  2  0  0  0
  5  6  1  0  0  0
  6 14  1  0  0  0
  6 35  1  0  0  0
  7  9  1  0  0  0
  7 15  1  0  0  0
  7 16  1  0  0  0
  7 17  1  0  0  0
  8 21  1  0  0  0
  9 20  1  0  0  0
  9 19  2  0  0  0
 13 31  1  0  0  0
 13 36  1  0  0  0
 13 37  1  0  0  0
 14 38  1  0  0  0
 14 39  1  0  0  0
 18 23  1  0  0  0
 18 22  1  0  0  0
 19 24  1  0  0  0
 19 40  1  0  0  0
 20 25  2  0  0  0
 20 41  1  0  0  0
 21 26  2  0  0  0
 21 27  1  0  0  0
 22 24  2  0  0  0
 22 25  1  0  0  0
 23 29  1  0  0  0
 23 28  2  0  0  0
 24 42  1  0  0  0
 25 43  1  0  0  0
 26 28  1  0  0  0
 26 44  1  0  0  0
 27 29  2  0  0  0
 27 45  1  0  0  0
 28 46  1  0  0  0
 29 47  1  0  0  0
 30 31  1  0  0  0
 30 32  1  0  0  0
 31 48  1  0  0  0
 31 49  1  0  0  0
 32 33  1  0  0  0
 32 50  1  0  0  0
 32 51  1  0  0  0
 33 52  1  0  0  0
 33 53  1  0  0  0
 33 54  1  0  0  0
M  END
> <s_m_entry_id>
64123

> <s_m_entry_name>
dock_pv.73

> <s_m_Source_Path>
/home/csk/Desktop/cluster/DUD-E-result/mmp13

> <s_m_Source_File>
dock_pv.maegz

> <i_m_Source_File_Index>
73

> <chembl_id>
CHEMBL369505

> <chembl_pref_name>
None

> <i_lp_mmshare_version>
53161

> <i_f3d_flags>
0

> <r_lp_tautomer_probability>
1

> <s_lp_Force_Field>
OPLS_2005

> <r_lp_Energy>
32.773817

> <b_lp_Chiralities_Consistent>
1

> <s_lp_Variant>
CHEMBL280_lig897-4

> <s_i_glide_gridfile>
glide-grid_830c

> <i_i_glide_lignum>
1480

> <i_i_glide_rotatable_bonds>
9

> <r_i_docking_score>
-7.81910862663511

> <r_i_glide_ligand_efficiency>
-0.236942685655609

> <r_i_glide_ligand_efficiency_sa>
-0.760001797595993

> <r_i_glide_ligand_efficiency_ln>
-1.7389292733859

> <r_i_glide_gscore>
-7.81910862663511

> <r_i_glide_lipo>
-2.96714602941795

> <r_i_glide_hbond>
-0.743087914376499

> <r_i_glide_metal>
0

> <r_i_glide_rewards>
-0.425653773297804

> <r_i_glide_evdw>
-49.8341293334961

> <r_i_glide_ecoul>
-11.0105724334717

> <r_i_glide_erotb>
0.649187575628363

> <r_i_glide_esite>
-0.189116153475667

> <r_i_glide_emodel>
-86.127748176746

> <r_i_glide_energy>
-60.8447017669678

> <r_i_glide_einternal>
3.3824360370636

> <i_i_glide_confnum>
5

> <i_i_glide_posenum>
1

> <r_i_glide_eff_state_penalty>
0

> <s_user_duplicate_titles>
CHEMBL280_lig897,304074

> <s_m_subgroup_title>
dock_pv

> <s_m_subgroupid>
dock_pv

> <b_m_subgroup_collapsed>
1

$$$$
CHEMBL280_lig256
                    3D
 Schrodinger Suite 2021-1.
 36 38  0  0  1  0            999 V2000
   -6.8031   28.5516   54.2939 C   0  0  0  0  0  0
   -6.9981   27.3003   53.8116 N   0  0  0  0  0  0
   -5.5135   28.5700   54.6427 N   0  0  0  0  0  0
   -4.8355   27.3125   54.4460 C   0  0  1  0  0  0
   -3.8639   26.9907   55.5988 C   0  0  0  0  0  0
   -6.0248   26.3785   54.3578 C   0  0  0  0  0  0
   -8.2382   26.8353   53.1838 C   0  0  0  0  0  0
   -7.6083   29.4432   54.5100 O   0  0  0  0  0  0
   -2.7390   26.5700   55.3100 O   0  0  0  0  0  0
   -8.1279   27.9097   49.4219 C   0  0  0  0  0  0
   -8.4343   26.9275   51.6601 C   0  0  0  0  0  0
   -7.7052   27.7549   50.7865 C   0  0  0  0  0  0
   -4.2834   27.2035   56.8603 N   0  0  0  0  0  0
   -9.2573   27.1832   48.9527 C   0  0  0  0  0  0
   -9.8939   26.3022   49.8281 C   0  0  0  0  0  0
   -9.4836   26.1700   51.1442 C   0  0  0  0  0  0
   -3.3869   26.9700   57.9136 O   0  0  0  0  0  0
   -7.5139   28.8029   48.5100 C   0  0  0  0  0  0
   -9.7366   27.3700   47.6309 C   0  0  0  0  0  0
   -8.0076   28.9894   47.2230 C   0  0  0  0  0  0
   -9.1124   28.2748   46.7824 C   0  0  0  0  0  0
   -5.0020   29.4480   54.5970 H   0  0  0  0  0  0
   -4.2797   27.3702   53.5107 H   0  0  0  0  0  0
   -5.8982   25.5170   53.7100 H   0  0  0  0  0  0
   -6.3568   26.0157   55.3335 H   0  0  0  0  0  0
   -8.3608   25.7891   53.4683 H   0  0  0  0  0  0
   -9.0748   27.3662   53.6420 H   0  0  0  0  0  0
   -6.8785   28.3505   51.1472 H   0  0  0  0  0  0
   -5.1851   27.5417   57.1650 H   0  0  0  0  0  0
  -10.7389   25.7700   49.4563 H   0  0  0  0  0  0
  -10.0499   25.5114   51.7848 H   0  0  0  0  0  0
   -3.6493   26.0977   58.2507 H   0  0  0  0  0  0
   -6.6909   29.4016   48.8504 H   0  0  0  0  0  0
  -10.5998   26.8165   47.2907 H   0  0  0  0  0  0
   -7.5326   29.6983   46.5601 H   0  0  0  0  0  0
   -9.4825   28.4250   45.7788 H   0  0  0  0  0  0
  1  2  1  0  0  0
  1  3  1  0  0  0
  1  8  2  0  0  0
  2  6  1  0  0  0
  2  7  1  0  0  0
  3  4  1  0  0  0
  3 22  1  0  0  0
  4  5  1  0  0  0
  4  6  1  0  0  0
  4 23  1  0  0  0
  5  9  2  0  0  0
  5 13  1  0  0  0
  6 24  1  0  0  0
  6 25  1  0  0  0
  7 11  1  0  0  0
  7 26  1  0  0  0
  7 27  1  0  0  0
 10 12  1  0  0  0
 10 18  2  0  0  0
 10 14  1  0  0  0
 11 12  2  0  0  0
 11 16  1  0  0  0
 12 28  1  0  0  0
 13 17  1  0  0  0
 13 29  1  0  0  0
 14 15  1  0  0  0
 14 19  2  0  0  0
 15 16  2  0  0  0
 15 30  1  0  0  0
 16 31  1  0  0  0
 17 32  1  0  0  0
 18 20  1  0  0  0
 18 33  1  0  0  0
 19 21  1  0  0  0
 19 34  1  0  0  0
 20 21  2  0  0  0
 20 35  1  0  0  0
 21 36  1  0  0  0
M  END
> <s_m_entry_id>
64124

> <s_m_entry_name>
dock_pv.74

> <s_m_Source_Path>
/home/csk/Desktop/cluster/DUD-E-result/mmp13

> <s_m_Source_File>
dock_pv.maegz

> <i_m_Source_File_Index>
74

> <chembl_id>
CHEMBL278366

> <chembl_pref_name>
None

> <i_lp_mmshare_version>
53161

> <i_f3d_flags>
0

> <r_lp_tautomer_probability>
1

> <s_lp_Force_Field>
OPLS_2005

> <r_lp_Energy>
41.919566

> <b_lp_Chiralities_Consistent>
1

> <s_lp_Variant>
CHEMBL280_lig256-1

> <s_i_glide_gridfile>
glide-grid_830c

> <i_i_glide_lignum>
354

> <i_i_glide_rotatable_bonds>
5

> <r_i_docking_score>
-7.81808728853652

> <r_i_glide_ligand_efficiency>
-0.372289870882691

> <r_i_glide_ligand_efficiency_sa>
-1.0271195243577

> <r_i_glide_ligand_efficiency_ln>
-1.93300628415778

> <r_i_glide_gscore>
-7.81808728853652

> <r_i_glide_lipo>
-2.82542182173147

> <r_i_glide_hbond>
-0.304058578991075

> <r_i_glide_metal>
0

> <r_i_glide_rewards>
-1.5200449965943

> <r_i_glide_evdw>
-32.1698265075684

> <r_i_glide_ecoul>
-15.30846118927

> <r_i_glide_erotb>
0.891519524503727

> <r_i_glide_esite>
-0.155320911954473

> <r_i_glide_emodel>
-71.8615204614605

> <r_i_glide_energy>
-47.4782876968384

> <r_i_glide_einternal>
3.03797578811646

> <i_i_glide_confnum>
6

> <i_i_glide_posenum>
95

> <r_i_glide_eff_state_penalty>
0

> <s_user_duplicate_titles>
CHEMBL280_lig256

> <s_m_subgroup_title>
dock_pv

> <s_m_subgroupid>
dock_pv

> <b_m_subgroup_collapsed>
1

$$$$
CHEMBL280_lig609
                    3D
 Schrodinger Suite 2021-1.
 47 49  0  0  1  0            999 V2000
   -5.7798   28.6489   56.9359 S   0  0  0  0  0  0
   -2.9209   28.7441   56.5490 C   0  0  0  0  0  0
   -4.2514   29.4213   56.5100 N   0  0  1  0  0  0
   -2.8901   27.3897   55.7748 C   0  0  0  0  0  0
   -6.3389   27.8240   55.4515 C   0  0  0  0  0  0
   -5.5390   27.6322   57.9677 O   0  0  0  0  0  0
   -6.7324   29.7387   57.1685 O   0  0  0  0  0  0
   -3.1390   27.3699   54.5603 O   0  0  0  0  0  0
   -2.5058   26.2851   56.4368 N   0  0  0  0  0  0
   -1.9230   29.6632   55.8036 C   0  0  0  0  0  0
   -2.4646   28.6634   58.0379 C   0  0  0  0  0  0
   -1.3239   30.8133   57.8338 O   0  0  0  0  0  0
   -6.3188   26.4331   55.3389 C   0  0  0  0  0  0
   -6.8447   28.6047   54.4143 C   0  0  0  0  0  0
   -7.9390   25.9278   52.0946 O   0  0  0  0  0  0
   -7.3752   26.6005   53.1631 C   0  0  0  0  0  0
   -7.3742   27.9944   53.2845 C   0  0  0  0  0  0
   -6.8224   25.8303   54.1879 C   0  0  0  0  0  0
   -8.3627   26.5700   50.9487 C   0  0  0  0  0  0
   -2.3390   25.1022   55.7100 O   0  0  0  0  0  0
   -2.2491   30.0773   58.6334 C   0  0  0  0  0  0
   -1.7542   31.0331   56.4924 C   0  0  0  0  0  0
   -9.6697   26.3603   50.5100 C   0  0  0  0  0  0
   -7.5012   27.3701   50.1929 C   0  0  0  0  0  0
   -7.9512   27.9813   49.0260 C   0  0  0  0  0  0
  -10.1247   26.9700   49.3433 C   0  0  0  0  0  0
   -9.2639   27.7808   48.6077 C   0  0  0  0  0  0
   -4.3389   30.1535   55.7978 H   0  0  0  0  0  0
   -2.3491   26.1793   57.4316 H   0  0  0  0  0  0
   -2.2409   29.7700   54.7695 H   0  0  0  0  0  0
   -0.9352   29.2012   55.7583 H   0  0  0  0  0  0
   -1.5190   28.1258   58.1224 H   0  0  0  0  0  0
   -3.1798   28.1153   58.6505 H   0  0  0  0  0  0
   -5.9214   25.8147   56.1323 H   0  0  0  0  0  0
   -6.8574   29.6825   54.4961 H   0  0  0  0  0  0
   -7.7984   28.6106   52.5102 H   0  0  0  0  0  0
   -6.8018   24.7532   54.1022 H   0  0  0  0  0  0
   -3.0985   24.5499   55.9807 H   0  0  0  0  0  0
   -3.1915   30.6208   58.7257 H   0  0  0  0  0  0
   -1.8388   30.0037   59.6405 H   0  0  0  0  0  0
   -2.6746   31.6195   56.4705 H   0  0  0  0  0  0
   -0.9982   31.6240   55.9744 H   0  0  0  0  0  0
  -10.3311   25.7259   51.0807 H   0  0  0  0  0  0
   -6.4800   27.5221   50.5110 H   0  0  0  0  0  0
   -7.2814   28.6055   48.4511 H   0  0  0  0  0  0
  -11.1395   26.8181   49.0071 H   0  0  0  0  0  0
   -9.6149   28.2552   47.7027 H   0  0  0  0  0  0
  1  3  1  0  0  0
  1  5  1  0  0  0
  1  6  2  0  0  0
  1  7  2  0  0  0
  2  3  1  0  0  0
  2  4  1  0  0  0
  2 10  1  0  0  0
  2 11  1  0  0  0
  3 28  1  0  0  0
  4  8  2  0  0  0
  4  9  1  0  0  0
  5 13  1  0  0  0
  5 14  2  0  0  0
  9 20  1  0  0  0
  9 29  1  0  0  0
 10 22  1  0  0  0
 10 30  1  0  0  0
 10 31  1  0  0  0
 11 21  1  0  0  0
 11 32  1  0  0  0
 11 33  1  0  0  0
 12 21  1  0  0  0
 12 22  1  0  0  0
 13 18  2  0  0  0
 13 34  1  0  0  0
 14 17  1  0  0  0
 14 35  1  0  0  0
 15 16  1  0  0  0
 15 19  1  0  0  0
 16 17  2  0  0  0
 16 18  1  0  0  0
 17 36  1  0  0  0
 18 37  1  0  0  0
 19 23  2  0  0  0
 19 24  1  0  0  0
 20 38  1  0  0  0
 21 39  1  0  0  0
 21 40  1  0  0  0
 22 41  1  0  0  0
 22 42  1  0  0  0
 23 26  1  0  0  0
 23 43  1  0  0  0
 24 25  2  0  0  0
 24 44  1  0  0  0
 25 27  1  0  0  0
 25 45  1  0  0  0
 26 27  2  0  0  0
 26 46  1  0  0  0
 27 47  1  0  0  0
M  END
> <s_m_entry_id>
64125

> <s_m_entry_name>
dock_pv.75

> <s_m_Source_Path>
/home/csk/Desktop/cluster/DUD-E-result/mmp13

> <s_m_Source_File>
dock_pv.maegz

> <i_m_Source_File_Index>
75

> <chembl_id>
CHEMBL114148

> <chembl_pref_name>
None

> <i_lp_mmshare_version>
53161

> <i_f3d_flags>
0

> <r_lp_tautomer_probability>
1

> <s_lp_Force_Field>
OPLS_2005

> <r_lp_Energy>
23.750028

> <b_lp_Chiralities_Consistent>
1

> <s_lp_Variant>
CHEMBL280_lig609-1

> <s_i_glide_gridfile>
glide-grid_830c

> <i_i_glide_lignum>
879

> <i_i_glide_rotatable_bonds>
8

> <r_i_docking_score>
-7.81074063305842

> <r_i_glide_ligand_efficiency>
-0.289286690113275

> <r_i_glide_ligand_efficiency_sa>
-0.867860069386382

> <r_i_glide_ligand_efficiency_ln>
-1.81821164925273

> <r_i_glide_gscore>
-7.81074063305842

> <r_i_glide_lipo>
-3.26208470976803

> <r_i_glide_hbond>
-0.219028453139479

> <r_i_glide_metal>
0

> <r_i_glide_rewards>
-0.551869645885874

> <r_i_glide_evdw>
-46.7952003479004

> <r_i_glide_ecoul>
-14.0370540618896

> <r_i_glide_erotb>
0.887489020344933

> <r_i_glide_esite>
-0.2199287179315

> <r_i_glide_emodel>
-84.6518436760379

> <r_i_glide_energy>
-60.83225440979

> <r_i_glide_einternal>
21.1013450622559

> <i_i_glide_confnum>
116

> <i_i_glide_posenum>
370

> <r_i_glide_eff_state_penalty>
0

> <s_user_duplicate_titles>
CHEMBL280_lig609

> <s_m_subgroup_title>
dock_pv

> <s_m_subgroupid>
dock_pv

> <b_m_subgroup_collapsed>
1

$$$$
CHEMBL280_lig666
                    3D
 Schrodinger Suite 2021-1.
 51 53  0  0  1  0            999 V2000
   -4.1516   27.3573   55.2472 S   0  0  0  0  0  0
   -4.7618   29.2831   57.2864 C   0  0  0  0  0  0
   -4.1359   28.9700   55.9723 N   0  0  2  0  0  0
   -4.3132   28.2410   58.3499 C   0  0  0  0  0  0
   -5.6936   27.1849   54.3901 C   0  0  0  0  0  0
   -3.1390   27.3701   54.1943 O   0  0  0  0  0  0
   -4.0724   26.3230   56.2764 O   0  0  0  0  0  0
   -5.1388   27.5160   58.9100 O   0  0  0  0  0  0
   -2.9836   28.0929   58.5100 N   0  0  0  0  0  0
   -4.2836   30.7033   57.7043 C   0  0  0  0  0  0
   -6.3029   29.3034   57.1180 C   0  0  0  0  0  0
   -6.3083   31.6980   56.7717 O   0  0  0  0  0  0
   -8.7666   26.4287   51.6913 O   0  0  0  0  0  0
   -6.5017   26.0659   54.5455 C   0  0  0  0  0  0
   -6.0026   28.1378   53.4356 C   0  0  0  0  0  0
   -7.8007   26.7724   52.6184 C   0  0  0  0  0  0
   -8.8402   26.9593   50.4136 C   0  0  0  0  0  0
   -9.1988   28.0680   47.8580 C   0  0  0  0  0  0
   -7.0786   27.9660   52.5859 C   0  0  0  0  0  0
   -7.5391   25.8633   53.6419 C   0  0  0  0  0  0
   -2.5349   26.9700   59.2174 O   0  0  0  0  0  0
  -10.0804   26.9010   49.7839 C   0  0  0  0  0  0
   -7.7521   27.4944   49.7088 C   0  0  0  0  0  0
   -7.9390   28.0930   48.4659 C   0  0  0  0  0  0
  -10.2448   27.4145   48.5010 C   0  0  0  0  0  0
   -9.4869   28.6492   46.6408 O   0  0  0  0  0  0
   -6.7816   30.4678   56.2286 C   0  0  0  0  0  0
   -4.8868   31.8138   56.8133 C   0  0  0  0  0  0
   -8.6468   29.7029   46.1788 C   0  0  0  0  0  0
   -4.0165   29.7581   55.3264 H   0  0  0  0  0  0
   -2.2864   28.4683   57.8836 H   0  0  0  0  0  0
   -3.1953   30.7799   57.6795 H   0  0  0  0  0  0
   -4.5750   30.9060   58.7374 H   0  0  0  0  0  0
   -6.7390   29.4419   58.1062 H   0  0  0  0  0  0
   -6.6843   28.3538   56.7415 H   0  0  0  0  0  0
   -6.2849   25.3209   55.2974 H   0  0  0  0  0  0
   -5.3521   28.9700   53.3090 H   0  0  0  0  0  0
   -7.2822   28.7309   51.8555 H   0  0  0  0  0  0
   -8.1227   24.9700   53.7100 H   0  0  0  0  0  0
   -3.2791   26.3539   59.1530 H   0  0  0  0  0  0
  -10.9204   26.4615   50.2991 H   0  0  0  0  0  0
   -6.7517   27.4805   50.1127 H   0  0  0  0  0  0
   -7.0864   28.5406   47.9780 H   0  0  0  0  0  0
  -11.2050   27.3678   48.0159 H   0  0  0  0  0  0
   -6.4478   30.3526   55.1969 H   0  0  0  0  0  0
   -7.8714   30.4948   56.2018 H   0  0  0  0  0  0
   -4.4752   31.7878   55.8043 H   0  0  0  0  0  0
   -4.6329   32.7940   57.2179 H   0  0  0  0  0  0
   -9.0354   30.0917   45.2376 H   0  0  0  0  0  0
   -8.6200   30.5283   46.8924 H   0  0  0  0  0  0
   -7.6287   29.3690   45.9976 H   0  0  0  0  0  0
  1  3  1  0  0  0
  1  5  1  0  0  0
  1  6  2  0  0  0
  1  7  2  0  0  0
  2  3  1  0  0  0
  2  4  1  0  0  0
  2 10  1  0  0  0
  2 11  1  0  0  0
  3 30  1  0  0  0
  4  8  2  0  0  0
  4  9  1  0  0  0
  5 14  1  0  0  0
  5 15  2  0  0  0
  9 21  1  0  0  0
  9 31  1  0  0  0
 10 28  1  0  0  0
 10 32  1  0  0  0
 10 33  1  0  0  0
 11 27  1  0  0  0
 11 34  1  0  0  0
 11 35  1  0  0  0
 12 27  1  0  0  0
 12 28  1  0  0  0
 13 16  1  0  0  0
 13 17  1  0  0  0
 14 20  2  0  0  0
 14 36  1  0  0  0
 15 19  1  0  0  0
 15 37  1  0  0  0
 16 19  2  0  0  0
 16 20  1  0  0  0
 17 22  2  0  0  0
 17 23  1  0  0  0
 18 24  1  0  0  0
 18 26  1  0  0  0
 18 25  2  0  0  0
 19 38  1  0  0  0
 20 39  1  0  0  0
 21 40  1  0  0  0
 22 25  1  0  0  0
 22 41  1  0  0  0
 23 24  2  0  0  0
 23 42  1  0  0  0
 24 43  1  0  0  0
 25 44  1  0  0  0
 26 29  1  0  0  0
 27 45  1  0  0  0
 27 46  1  0  0  0
 28 47  1  0  0  0
 28 48  1  0  0  0
 29 49  1  0  0  0
 29 50  1  0  0  0
 29 51  1  0  0  0
M  END
> <s_m_entry_id>
64126

> <s_m_entry_name>
dock_pv.76

> <s_m_Source_Path>
/home/csk/Desktop/cluster/DUD-E-result/mmp13

> <s_m_Source_File>
dock_pv.maegz

> <i_m_Source_File_Index>
76

> <chembl_id>
CHEMBL114906

> <chembl_pref_name>
None

> <i_lp_mmshare_version>
53161

> <i_f3d_flags>
0

> <r_lp_tautomer_probability>
1

> <s_lp_Force_Field>
OPLS_2005

> <r_lp_Energy>
28.147507

> <b_lp_Chiralities_Consistent>
1

> <s_lp_Variant>
CHEMBL280_lig666-1

> <s_i_glide_gridfile>
glide-grid_830c

> <i_i_glide_lignum>
1000

> <i_i_glide_rotatable_bonds>
9

> <r_i_docking_score>
-7.80431195068086

> <r_i_glide_ligand_efficiency>
-0.269114205195892

> <r_i_glide_ligand_efficiency_sa>
-0.826804099726381

> <r_i_glide_ligand_efficiency_ln>
-1.78698953643015

> <r_i_glide_gscore>
-7.80431195068086

> <r_i_glide_lipo>
-3.62091920727011

> <r_i_glide_hbond>
-0.621563169462149

> <r_i_glide_metal>
0

> <r_i_glide_rewards>
0.278628229688085

> <r_i_glide_evdw>
-41.5785140991211

> <r_i_glide_ecoul>
-14.6700077056885

> <r_i_glide_erotb>
0.777030674969213

> <r_i_glide_esite>
-0.338061617796579

> <r_i_glide_emodel>
-78.674627093729

> <r_i_glide_energy>
-56.2485218048096

> <r_i_glide_einternal>
10.6171913146973

> <i_i_glide_confnum>
8

> <i_i_glide_posenum>
95

> <r_i_glide_eff_state_penalty>
0

> <s_user_duplicate_titles>
CHEMBL280_lig666

> <s_m_subgroup_title>
dock_pv

> <s_m_subgroupid>
dock_pv

> <b_m_subgroup_collapsed>
1

$$$$
CHEMBL280_lig942
                    3D
 Schrodinger Suite 2021-1.
 55 57  0  0  1  0            999 V2000
   -5.8027   27.9910   56.5811 S   0  0  0  0  0  0
   -3.9690   28.3052   56.0675 C   0  0  1  0  0  0
   -3.0160   28.7843   57.2150 C   0  0  2  0  0  0
   -3.6384   29.9207   58.0941 C   0  0  0  0  0  0
   -6.5157   27.5030   55.0226 C   0  0  0  0  0  0
   -5.9038   26.8595   57.5076 O   0  0  0  0  0  0
   -6.4417   29.2726   56.8987 O   0  0  0  0  0  0
   -8.4626   28.1923   47.8017 C   0  0  0  0  0  0
   -8.6418   27.3829   48.9412 C   0  0  0  0  0  0
   -4.5100   29.6216   58.9095 O   0  0  0  0  0  0
   -3.2069   31.1938   57.9543 N   0  0  0  0  0  0
   -9.4076   28.1655   46.7721 C   0  0  0  0  0  0
   -1.8436   29.3072   56.5813 O   0  0  0  0  0  0
   -3.3782   27.0460   55.3812 C   0  0  0  0  0  0
   -2.6075   27.5841   58.1259 C   0  0  0  0  0  0
   -7.6454   27.4738   50.0892 C   0  0  0  0  0  0
   -2.0704   26.5072   57.3463 O   0  0  0  0  0  0
   -6.8819   26.1911   54.7151 C   0  0  0  0  0  0
   -6.6094   28.4969   54.0616 C   0  0  0  0  0  0
   -9.7731   26.5713   49.0329 C   0  0  0  0  0  0
   -7.8994   26.5630   51.1786 O   0  0  0  0  0  0
   -7.4268   26.8871   52.4425 C   0  0  0  0  0  0
  -10.5363   27.3556   46.8695 C   0  0  0  0  0  0
   -7.3613   25.8989   53.4324 C   0  0  0  0  0  0
   -7.0028   28.1716   52.7815 C   0  0  0  0  0  0
  -10.7140   26.5704   48.0071 C   0  0  0  0  0  0
   -3.7665   32.1881   58.7713 O   0  0  0  0  0  0
   -2.9946   25.9601   56.4095 C   0  0  0  0  0  0
   -7.2674   29.1268   47.6757 C   0  0  0  0  0  0
  -11.5875   27.3582   45.7741 C   0  0  0  0  0  0
   -4.1117   29.0983   55.3311 H   0  0  0  0  0  0
   -2.4831   31.5450   57.3454 H   0  0  0  0  0  0
   -9.2680   28.7886   45.8994 H   0  0  0  0  0  0
   -2.1028   30.0185   55.9903 H   0  0  0  0  0  0
   -2.4745   27.3687   54.8657 H   0  0  0  0  0  0
   -4.0530   26.6479   54.6252 H   0  0  0  0  0  0
   -3.4532   27.2090   58.7089 H   0  0  0  0  0  0
   -1.8496   27.8873   58.8504 H   0  0  0  0  0  0
   -7.7504   28.5179   50.3605 H   0  0  0  0  0  0
   -6.6341   27.3228   49.7115 H   0  0  0  0  0  0
   -6.7762   25.4047   55.4524 H   0  0  0  0  0  0
   -6.3376   29.5176   54.2891 H   0  0  0  0  0  0
   -9.9395   25.9544   49.9056 H   0  0  0  0  0  0
   -7.6293   24.8850   53.1939 H   0  0  0  0  0  0
   -6.9705   28.9701   52.0776 H   0  0  0  0  0  0
  -11.5934   25.9651   48.1099 H   0  0  0  0  0  0
   -4.4110   32.6231   58.2058 H   0  0  0  0  0  0
   -2.5207   25.1113   55.9173 H   0  0  0  0  0  0
   -3.8729   25.5555   56.9100 H   0  0  0  0  0  0
   -7.2979   29.7173   46.7587 H   0  0  0  0  0  0
   -7.2401   29.8193   48.5097 H   0  0  0  0  0  0
   -6.3308   28.5701   47.6991 H   0  0  0  0  0  0
  -12.5821   27.1988   46.1948 H   0  0  0  0  0  0
  -11.6123   28.3198   45.2597 H   0  0  0  0  0  0
  -11.3855   26.5724   45.0460 H   0  0  0  0  0  0
  1  2  1  0  0  0
  1  5  1  0  0  0
  1  6  2  0  0  0
  1  7  2  0  0  0
  2  3  1  0  0  0
  2 14  1  0  0  0
  2 31  1  0  0  0
  3  4  1  0  0  0
  3 13  1  0  0  0
  3 15  1  0  0  0
  4 10  2  0  0  0
  4 11  1  0  0  0
  5 18  2  0  0  0
  5 19  1  0  0  0
  8  9  2  0  0  0
  8 12  1  0  0  0
  8 29  1  0  0  0
  9 16  1  0  0  0
  9 20  1  0  0  0
 11 27  1  0  0  0
 11 32  1  0  0  0
 12 23  2  0  0  0
 12 33  1  0  0  0
 13 34  1  0  0  0
 14 28  1  0  0  0
 14 35  1  0  0  0
 14 36  1  0  0  0
 15 17  1  0  0  0
 15 37  1  0  0  0
 15 38  1  0  0  0
 16 21  1  0  0  0
 16 39  1  0  0  0
 16 40  1  0  0  0
 17 28  1  0  0  0
 18 24  1  0  0  0
 18 41  1  0  0  0
 19 25  2  0  0  0
 19 42  1  0  0  0
 20 26  2  0  0  0
 20 43  1  0  0  0
 21 22  1  0  0  0
 22 25  1  0  0  0
 22 24  2  0  0  0
 23 26  1  0  0  0
 23 30  1  0  0  0
 24 44  1  0  0  0
 25 45  1  0  0  0
 26 46  1  0  0  0
 27 47  1  0  0  0
 28 48  1  0  0  0
 28 49  1  0  0  0
 29 50  1  0  0  0
 29 51  1  0  0  0
 29 52  1  0  0  0
 30 53  1  0  0  0
 30 54  1  0  0  0
 30 55  1  0  0  0
M  END
> <s_m_entry_id>
64127

> <s_m_entry_name>
dock_pv.77

> <s_m_Source_Path>
/home/csk/Desktop/cluster/DUD-E-result/mmp13

> <s_m_Source_File>
dock_pv.maegz

> <i_m_Source_File_Index>
77

> <chembl_id>
CHEMBL184522

> <chembl_pref_name>
None

> <i_lp_mmshare_version>
53161

> <i_f3d_flags>
0

> <r_lp_tautomer_probability>
1

> <s_lp_Force_Field>
OPLS_2005

> <r_lp_Energy>
36.23413

> <b_lp_Chiralities_Consistent>
1

> <s_lp_Variant>
CHEMBL280_lig942-1

> <s_i_glide_gridfile>
glide-grid_830c

> <i_i_glide_lignum>
1589

> <i_i_glide_rotatable_bonds>
9

> <r_i_docking_score>
-7.79137062034182

> <r_i_glide_ligand_efficiency>
-0.259712354011394

> <r_i_glide_ligand_efficiency_sa>
-0.806986667667093

> <r_i_glide_ligand_efficiency_ln>
-1.77028429872403

> <r_i_glide_gscore>
-7.79137062034182

> <r_i_glide_lipo>
-4.40794398590946

> <r_i_glide_hbond>
0

> <r_i_glide_metal>
0

> <r_i_glide_rewards>
-0.428638223431725

> <r_i_glide_evdw>
-51.9793701171875

> <r_i_glide_ecoul>
-7.14856863021851

> <r_i_glide_erotb>
0.735413331386587

> <r_i_glide_esite>
-0.0189479419950712

> <r_i_glide_emodel>
-87.7605036641325

> <r_i_glide_energy>
-59.127938747406

> <r_i_glide_einternal>
7.70147657394409

> <i_i_glide_confnum>
45

> <i_i_glide_posenum>
328

> <r_i_glide_eff_state_penalty>
0

> <s_user_duplicate_titles>
CHEMBL280_lig942,308317

> <s_m_subgroup_title>
dock_pv

> <s_m_subgroupid>
dock_pv

> <b_m_subgroup_collapsed>
1

$$$$
CHEMBL280_lig2287
                    3D
 Schrodinger Suite 2021-1.
 45 47  0  0  1  0            999 V2000
   -6.0468   29.3923   56.4476 S   0  0  0  0  0  0
   -6.0290   28.0463   55.2479 N   0  0  1  0  0  0
   -5.0494   26.9317   55.4588 C   0  0  1  0  0  0
   -3.5750   27.3134   55.2347 C   0  0  0  0  0  0
   -7.2640   30.1937   56.2880 O   0  0  0  0  0  0
   -4.7655   30.0983   56.5144 O   0  0  0  0  0  0
   -7.3568   27.5899   54.7687 C   0  0  0  0  0  0
   -2.7226   26.4266   55.3100 O   0  0  0  0  0  0
   -8.1221   27.1592   50.5659 C   0  0  0  0  0  0
   -8.7154   27.3230   49.1917 C   0  0  0  0  0  0
   -6.1793   28.3199   57.9835 C   0  0  0  0  0  0
   -3.2705   28.5697   54.9089 N   0  0  0  0  0  0
   -8.1122   28.1226   48.2024 C   0  0  0  0  0  0
   -7.1410   28.0471   51.0233 C   0  0  0  0  0  0
   -8.6083   26.2062   51.4779 C   0  0  0  0  0  0
   -9.9538   26.7429   48.8841 C   0  0  0  0  0  0
   -7.4242   27.2889   53.2819 C   0  0  0  0  0  0
   -5.2358   26.2769   56.8458 C   0  0  0  0  0  0
   -9.9535   27.7371   46.6955 C   0  0  0  0  0  0
   -6.7881   28.1137   52.3637 C   0  0  0  0  0  0
   -8.2744   26.2872   52.8284 C   0  0  0  0  0  0
  -10.5659   26.9369   47.6503 C   0  0  0  0  0  0
   -8.7305   28.3363   46.9706 C   0  0  0  0  0  0
  -10.7177   27.9869   45.1690 Cl  0  0  0  0  0  0
   -1.9388   28.9705   54.9148 O   0  0  0  0  0  0
   -5.0678   27.2563   58.0277 C   0  0  0  0  0  0
   -5.2222   26.1822   54.6823 H   0  0  0  0  0  0
   -7.7113   26.7552   55.3743 H   0  0  0  0  0  0
   -8.0677   28.4014   54.9096 H   0  0  0  0  0  0
   -7.1375   27.8354   57.8849 H   0  0  0  0  0  0
   -6.1838   28.9804   58.8494 H   0  0  0  0  0  0
   -3.9151   29.3574   54.8567 H   0  0  0  0  0  0
   -7.1535   28.5913   48.3618 H   0  0  0  0  0  0
   -6.7392   28.8087   50.3772 H   0  0  0  0  0  0
   -9.3123   25.4436   51.1797 H   0  0  0  0  0  0
  -10.4871   26.1571   49.6113 H   0  0  0  0  0  0
   -6.2536   25.8905   56.9106 H   0  0  0  0  0  0
   -4.6366   25.3710   56.9095 H   0  0  0  0  0  0
   -6.1207   28.8959   52.6914 H   0  0  0  0  0  0
   -8.7356   25.6239   53.5397 H   0  0  0  0  0  0
  -11.5254   26.4858   47.4489 H   0  0  0  0  0  0
   -8.2454   28.9560   46.2290 H   0  0  0  0  0  0
   -1.8735   29.5181   55.7045 H   0  0  0  0  0  0
   -5.1188   26.7129   58.9713 H   0  0  0  0  0  0
   -4.0820   27.7248   58.0121 H   0  0  0  0  0  0
  1  2  1  0  0  0
  1  5  2  0  0  0
  1  6  2  0  0  0
  1 11  1  0  0  0
  2  3  1  0  0  0
  2  7  1  0  0  0
  3  4  1  0  0  0
  3 18  1  0  0  0
  3 27  1  0  0  0
  4  8  2  0  0  0
  4 12  1  0  0  0
  7 17  1  0  0  0
  7 28  1  0  0  0
  7 29  1  0  0  0
  9 15  2  0  0  0
  9 10  1  0  0  0
  9 14  1  0  0  0
 10 13  1  0  0  0
 10 16  2  0  0  0
 11 26  1  0  0  0
 11 30  1  0  0  0
 11 31  1  0  0  0
 12 25  1  0  0  0
 12 32  1  0  0  0
 13 23  2  0  0  0
 13 33  1  0  0  0
 14 20  2  0  0  0
 14 34  1  0  0  0
 15 21  1  0  0  0
 15 35  1  0  0  0
 16 22  1  0  0  0
 16 36  1  0  0  0
 17 20  1  0  0  0
 17 21  2  0  0  0
 18 26  1  0  0  0
 18 37  1  0  0  0
 18 38  1  0  0  0
 19 22  2  0  0  0
 19 24  1  0  0  0
 19 23  1  0  0  0
 20 39  1  0  0  0
 21 40  1  0  0  0
 22 41  1  0  0  0
 23 42  1  0  0  0
 25 43  1  0  0  0
 26 44  1  0  0  0
 26 45  1  0  0  0
M  END
> <s_m_entry_id>
64128

> <s_m_entry_name>
dock_pv.78

> <s_m_Source_Path>
/home/csk/Desktop/cluster/DUD-E-result/mmp13

> <s_m_Source_File>
dock_pv.maegz

> <i_m_Source_File_Index>
78

> <chembl_id>
CHEMBL101789

> <chembl_pref_name>
None

> <i_lp_mmshare_version>
53161

> <i_f3d_flags>
0

> <r_lp_tautomer_probability>
1

> <s_lp_Force_Field>
OPLS_2005

> <r_lp_Energy>
15.863321

> <b_lp_Chiralities_Consistent>
1

> <s_lp_Variant>
CHEMBL280_lig2287-1

> <s_i_glide_gridfile>
glide-grid_830c

> <i_i_glide_lignum>
3266

> <i_i_glide_rotatable_bonds>
6

> <r_i_docking_score>
-7.75688819868831

> <r_i_glide_ligand_efficiency>
-0.298341853795704

> <r_i_glide_ligand_efficiency_sa>
-0.883836567951266

> <r_i_glide_ligand_efficiency_ln>
-1.82167974103578

> <r_i_glide_gscore>
-7.75688819868831

> <r_i_glide_lipo>
-3.74236915628654

> <r_i_glide_hbond>
-0.266828478397526

> <r_i_glide_metal>
0

> <r_i_glide_rewards>
-0.744573803644946

> <r_i_glide_evdw>
-39.9863929748535

> <r_i_glide_ecoul>
-9.42664813995361

> <r_i_glide_erotb>
0.626880229736

> <r_i_glide_esite>
-0.216680120359584

> <r_i_glide_emodel>
-60.7413071432913

> <r_i_glide_energy>
-49.4130411148071

> <r_i_glide_einternal>
14.3885345458984

> <i_i_glide_confnum>
38

> <i_i_glide_posenum>
104

> <r_i_glide_eff_state_penalty>
0

> <s_user_duplicate_titles>
CHEMBL280_lig2287,165334

> <s_m_subgroup_title>
dock_pv

> <s_m_subgroupid>
dock_pv

> <b_m_subgroup_collapsed>
1

$$$$
CHEMBL280_lig106
                    3D
 Schrodinger Suite 2021-1.
 52 56  0  0  1  0            999 V2000
   -2.0396   28.0758   58.3508 N   0  0  0  0  0  0
   -1.9366   26.7100   58.5767 N   0  0  0  0  0  0
   -1.0077   28.9153   58.0040 C   0  0  0  0  0  0
   -0.7990   26.0947   58.4862 N   0  0  0  0  0  0
    0.3111   28.1876   57.9172 C   0  0  0  0  0  0
   -4.4368   27.5888   56.3286 C   0  0  2  0  0  0
   -5.6413   27.9882   55.4710 C   0  0  1  0  0  0
   -4.1332   28.8771   57.1400 C   0  0  2  0  0  0
   -8.9273   27.3211   49.2789 C   0  0  0  0  0  0
   -3.3926   28.6535   58.4796 C   0  0  0  0  0  0
   -9.9683   26.6346   48.8642 N   0  0  0  0  0  0
   -3.2533   27.1253   55.4612 C   0  0  0  0  0  0
    0.3546   26.8147   58.1670 C   0  0  0  0  0  0
   -6.5551   26.5690   54.8166 S   0  0  0  0  0  0
   -8.3392   28.4781   48.1095 S   0  0  0  0  0  0
   -8.3038   27.1557   50.6383 C   0  0  0  0  0  0
   -1.1380   30.1232   57.7850 O   0  0  0  0  0  0
  -10.3390   26.9704   47.6441 C   0  0  0  0  0  0
   -6.4980   28.8437   56.4049 C   0  0  0  0  0  0
   -5.5019   29.5731   57.3163 C   0  0  0  0  0  0
   -9.5877   27.9602   47.0222 C   0  0  0  0  0  0
   -2.4891   27.9056   54.9101 O   0  0  0  0  0  0
   -7.1736   27.8854   51.0224 C   0  0  0  0  0  0
   -8.8689   26.2770   51.5647 C   0  0  0  0  0  0
   -7.2133   26.8950   53.2101 C   0  0  0  0  0  0
   -3.1390   25.7700   55.3100 O   0  0  0  0  0  0
    1.4823   28.8826   57.5921 C   0  0  0  0  0  0
   -6.6262   27.7701   52.2999 C   0  0  0  0  0  0
   -8.3309   26.1700   52.8412 C   0  0  0  0  0  0
    1.5702   26.1322   58.1100 C   0  0  0  0  0  0
    2.6961   28.1960   57.5304 C   0  0  0  0  0  0
    2.7406   26.8251   57.7925 C   0  0  0  0  0  0
   -4.7049   26.7737   57.0052 H   0  0  0  0  0  0
   -5.3395   28.6024   54.6227 H   0  0  0  0  0  0
   -3.5438   29.5749   56.5372 H   0  0  0  0  0  0
   -4.0033   28.0178   59.1245 H   0  0  0  0  0  0
   -3.3382   29.6156   58.9943 H   0  0  0  0  0  0
  -11.1895   26.4733   47.2038 H   0  0  0  0  0  0
   -7.1390   28.2136   57.0219 H   0  0  0  0  0  0
   -7.1226   29.5508   55.8569 H   0  0  0  0  0  0
   -5.8490   29.5632   58.3519 H   0  0  0  0  0  0
   -5.4304   30.6235   57.0273 H   0  0  0  0  0  0
   -9.6960   28.3937   46.0383 H   0  0  0  0  0  0
   -6.7390   28.5824   50.3286 H   0  0  0  0  0  0
   -9.7323   25.6799   51.3089 H   0  0  0  0  0  0
   -3.8446   25.2223   55.7100 H   0  0  0  0  0  0
    1.4623   29.9458   57.3944 H   0  0  0  0  0  0
   -5.7439   28.3396   52.5432 H   0  0  0  0  0  0
   -8.7390   25.4749   53.5547 H   0  0  0  0  0  0
    1.6124   25.0696   58.3022 H   0  0  0  0  0  0
    3.6044   28.7263   57.2831 H   0  0  0  0  0  0
    3.6810   26.2961   57.7425 H   0  0  0  0  0  0
  1  2  1  0  0  0
  1  3  1  0  0  0
  1 10  1  0  0  0
  2  4  2  0  0  0
  3  5  1  0  0  0
  3 17  2  0  0  0
  4 13  1  0  0  0
  5 13  2  0  0  0
  5 27  1  0  0  0
  6  8  1  0  0  0
  6  7  1  0  0  0
  6 12  1  0  0  0
  6 33  1  0  0  0
  7 14  1  0  0  0
  7 19  1  0  0  0
  7 34  1  0  0  0
  8 10  1  0  0  0
  8 20  1  0  0  0
  8 35  1  0  0  0
  9 16  1  0  0  0
  9 11  2  0  0  0
  9 15  1  0  0  0
 10 36  1  0  0  0
 10 37  1  0  0  0
 11 18  1  0  0  0
 12 22  2  0  0  0
 12 26  1  0  0  0
 13 30  1  0  0  0
 14 25  1  0  0  0
 15 21  1  0  0  0
 16 24  2  0  0  0
 16 23  1  0  0  0
 18 21  2  0  0  0
 18 38  1  0  0  0
 19 20  1  0  0  0
 19 39  1  0  0  0
 19 40  1  0  0  0
 20 41  1  0  0  0
 20 42  1  0  0  0
 21 43  1  0  0  0
 23 28  2  0  0  0
 23 44  1  0  0  0
 24 29  1  0  0  0
 24 45  1  0  0  0
 25 28  1  0  0  0
 25 29  2  0  0  0
 26 46  1  0  0  0
 27 31  2  0  0  0
 27 47  1  0  0  0
 28 48  1  0  0  0
 29 49  1  0  0  0
 30 32  2  0  0  0
 30 50  1  0  0  0
 31 32  1  0  0  0
 31 51  1  0  0  0
 32 52  1  0  0  0
M  END
> <s_m_entry_id>
64129

> <s_m_entry_name>
dock_pv.79

> <s_m_Source_Path>
/home/csk/Desktop/cluster/DUD-E-result/mmp13

> <s_m_Source_File>
dock_pv.maegz

> <i_m_Source_File_Index>
79

> <chembl_id>
CHEMBL125302

> <chembl_pref_name>
None

> <i_lp_mmshare_version>
53161

> <i_f3d_flags>
0

> <r_lp_tautomer_probability>
1

> <s_lp_Force_Field>
OPLS_2005

> <r_lp_Energy>
45.824555

> <b_lp_Chiralities_Consistent>
1

> <s_lp_Variant>
CHEMBL280_lig106-1

> <s_i_glide_gridfile>
glide-grid_830c

> <i_i_glide_lignum>
130

> <i_i_glide_rotatable_bonds>
7

> <r_i_docking_score>
-7.75244141928299

> <r_i_glide_ligand_efficiency>
-0.242263794352594

> <r_i_glide_ligand_efficiency_sa>
-0.769139603129684

> <r_i_glide_ligand_efficiency_ln>
-1.73598295734925

> <r_i_glide_gscore>
-7.75244141928299

> <r_i_glide_lipo>
-3.82620106359483

> <r_i_glide_hbond>
0

> <r_i_glide_metal>
0

> <r_i_glide_rewards>
-0.286326362479609

> <r_i_glide_evdw>
-48.3204154968262

> <r_i_glide_ecoul>
-11.0599575042725

> <r_i_glide_erotb>
0.560482657918615

> <r_i_glide_esite>
-0.12538225064499

> <r_i_glide_emodel>
-87.5126047333986

> <r_i_glide_energy>
-59.3803730010986

> <r_i_glide_einternal>
7.10026836395264

> <i_i_glide_confnum>
2

> <i_i_glide_posenum>
207

> <r_i_glide_eff_state_penalty>
0

> <s_user_duplicate_titles>
CHEMBL280_lig106

> <s_m_subgroup_title>
dock_pv

> <s_m_subgroupid>
dock_pv

> <b_m_subgroup_collapsed>
1

$$$$
CHEMBL280_lig395
                    3D
 Schrodinger Suite 2021-1.
 46 47  0  0  1  0            999 V2000
   -4.7811   27.9563   57.4301 S   0  0  0  0  0  0
   -3.3836   26.9153   57.3209 N   0  0  1  0  0  0
   -2.0061   27.4693   57.3933 C   0  0  2  0  0  0
   -1.0961   26.4987   56.5956 C   0  0  0  0  0  0
   -5.6747   27.6909   55.9025 C   0  0  0  0  0  0
   -5.6037   27.4107   58.5100 O   0  0  0  0  0  0
   -4.3227   29.3498   57.4493 O   0  0  0  0  0  0
   -6.9439   27.2826   53.4367 C   0  0  0  0  0  0
   -7.6202   27.0942   52.1224 C   0  0  0  0  0  0
   -1.5390   25.7700   55.7100 O   0  0  0  0  0  0
   -6.0893   26.4099   55.5368 C   0  0  0  0  0  0
   -5.9390   28.7696   55.0659 C   0  0  0  0  0  0
   -1.5919   27.6911   58.8811 C   0  0  0  0  0  0
   -6.5618   28.5624   53.8417 C   0  0  0  0  0  0
   -6.7159   26.2078   54.3070 C   0  0  0  0  0  0
   -8.7390   26.2741   52.0314 C   0  0  0  0  0  0
   -7.2019   27.7700   50.9715 C   0  0  0  0  0  0
    0.2288   26.5700   56.9100 O   0  0  0  0  0  0
   -9.0815   26.8899   49.7213 C   0  0  0  0  0  0
   -7.9244   27.6788   49.7815 C   0  0  0  0  0  0
   -9.4616   26.1700   50.8485 C   0  0  0  0  0  0
   -9.9096   26.7825   48.6218 O   0  0  0  0  0  0
   -0.3979   28.6468   59.0700 C   0  0  0  0  0  0
   -1.4300   26.4127   59.7282 C   0  0  0  0  0  0
   -9.6785   27.6224   47.4971 C   0  0  0  0  0  0
   -3.5198   26.0139   57.7969 H   0  0  0  0  0  0
   -2.0069   28.4319   56.8803 H   0  0  0  0  0  0
   -5.9115   25.5666   56.1902 H   0  0  0  0  0  0
   -5.6349   29.7700   55.3393 H   0  0  0  0  0  0
   -2.4331   28.2291   59.3100 H   0  0  0  0  0  0
   -6.7390   29.4073   53.1979 H   0  0  0  0  0  0
   -7.0051   25.2053   54.0262 H   0  0  0  0  0  0
   -9.0976   25.7700   52.9100 H   0  0  0  0  0  0
   -6.3390   28.4154   51.0050 H   0  0  0  0  0  0
    0.7765   25.9725   56.3828 H   0  0  0  0  0  0
   -7.5820   28.2454   48.9284 H   0  0  0  0  0  0
  -10.3463   25.5539   50.8156 H   0  0  0  0  0  0
    0.5477   28.2073   58.7566 H   0  0  0  0  0  0
   -0.2879   28.9227   60.1192 H   0  0  0  0  0  0
   -0.5414   29.5700   58.5080 H   0  0  0  0  0  0
   -0.6051   25.7912   59.3802 H   0  0  0  0  0  0
   -1.2348   26.6598   60.7721 H   0  0  0  0  0  0
   -2.3390   25.8112   59.7059 H   0  0  0  0  0  0
  -10.4781   27.4765   46.7710 H   0  0  0  0  0  0
   -9.6753   28.6779   47.7743 H   0  0  0  0  0  0
   -8.7390   27.3775   47.0039 H   0  0  0  0  0  0
  1  2  1  0  0  0
  1  5  1  0  0  0
  1  6  2  0  0  0
  1  7  2  0  0  0
  2  3  1  0  0  0
  2 26  1  0  0  0
  3  4  1  0  0  0
  3 13  1  0  0  0
  3 27  1  0  0  0
  4 10  2  0  0  0
  4 18  1  0  0  0
  5 11  1  0  0  0
  5 12  2  0  0  0
  8 14  2  0  0  0
  8  9  1  0  0  0
  8 15  1  0  0  0
  9 16  2  0  0  0
  9 17  1  0  0  0
 11 15  2  0  0  0
 11 28  1  0  0  0
 12 14  1  0  0  0
 12 29  1  0  0  0
 13 23  1  0  0  0
 13 24  1  0  0  0
 13 30  1  0  0  0
 14 31  1  0  0  0
 15 32  1  0  0  0
 16 21  1  0  0  0
 16 33  1  0  0  0
 17 20  2  0  0  0
 17 34  1  0  0  0
 18 35  1  0  0  0
 19 20  1  0  0  0
 19 22  1  0  0  0
 19 21  2  0  0  0
 20 36  1  0  0  0
 21 37  1  0  0  0
 22 25  1  0  0  0
 23 38  1  0  0  0
 23 39  1  0  0  0
 23 40  1  0  0  0
 24 41  1  0  0  0
 24 42  1  0  0  0
 24 43  1  0  0  0
 25 44  1  0  0  0
 25 45  1  0  0  0
 25 46  1  0  0  0
M  END
> <s_m_entry_id>
64130

> <s_m_entry_name>
dock_pv.80

> <s_m_Source_Path>
/home/csk/Desktop/cluster/DUD-E-result/mmp13

> <s_m_Source_File>
dock_pv.maegz

> <i_m_Source_File_Index>
80

> <chembl_id>
CHEMBL44383

> <chembl_pref_name>
None

> <i_lp_mmshare_version>
53161

> <i_f3d_flags>
0

> <r_lp_tautomer_probability>
1

> <s_lp_Force_Field>
OPLS_2005

> <r_lp_Energy>
18.409323

> <b_lp_Chiralities_Consistent>
1

> <s_lp_Variant>
CHEMBL280_lig395-1

> <s_i_glide_gridfile>
glide-grid_830c

> <i_i_glide_lignum>
567

> <i_i_glide_rotatable_bonds>
8

> <r_i_docking_score>
-7.75050817217728

> <r_i_glide_ligand_efficiency>
-0.310020326887091

> <r_i_glide_ligand_efficiency_sa>
-0.906504934051763

> <r_i_glide_ligand_efficiency_ln>
-1.83710270079338

> <r_i_glide_gscore>
-7.75050817217728

> <r_i_glide_lipo>
-3.33319468676605

> <r_i_glide_hbond>
-0.343679924326776

> <r_i_glide_metal>
0

> <r_i_glide_rewards>
-0.0773822579299903

> <r_i_glide_evdw>
-40.0048522949219

> <r_i_glide_ecoul>
-16.6391220092773

> <r_i_glide_erotb>
0.727332873829891

> <r_i_glide_esite>
-0.227473260846649

> <r_i_glide_emodel>
-78.1799938217547

> <r_i_glide_energy>
-56.6439743041992

> <r_i_glide_einternal>
8.49523162841797

> <i_i_glide_confnum>
57

> <i_i_glide_posenum>
180

> <r_i_glide_eff_state_penalty>
0

> <s_user_duplicate_titles>
CHEMBL280_lig395,66191

> <s_m_subgroup_title>
dock_pv

> <s_m_subgroupid>
dock_pv

> <b_m_subgroup_collapsed>
1

$$$$
CHEMBL280_lig887
                    3D
 Schrodinger Suite 2021-1.
 51 53  0  0  1  0            999 V2000
   -4.7304   27.9087   56.5592 C   0  0  2  0  0  0
   -3.4603   27.2726   55.9191 C   0  0  0  0  0  0
   -4.7799   27.3704   58.0034 C   0  0  0  0  0  0
   -3.6178   27.3703   58.6947 N   0  0  0  0  0  0
   -2.3419   27.3945   58.2562 C   0  0  0  0  0  0
   -2.1515   27.5295   56.7112 C   0  0  1  0  0  0
   -6.0007   27.4334   56.0127 O   0  0  0  0  0  0
   -3.4832   26.5700   54.9101 O   0  0  0  0  0  0
   -5.8122   26.9702   58.5099 O   0  0  0  0  0  0
   -1.4126   27.3060   59.0560 O   0  0  0  0  0  0
   -4.6494   29.4776   56.6697 C   0  0  0  0  0  0
   -1.1396   26.5427   56.3170 N   0  0  0  0  0  0
   -7.1704   27.3059   50.5971 O   0  0  0  0  0  0
   -6.3443   27.4144   54.6757 C   0  0  0  0  0  0
   -7.0790   27.3498   51.9691 C   0  0  0  0  0  0
   -8.3102   27.3182   49.8317 C   0  0  0  0  0  0
  -10.3658   26.9704   47.9968 C   0  0  0  0  0  0
  -11.3120   26.6194   47.0979 F   0  0  0  0  0  0
   -7.4048   26.6061   54.2522 C   0  0  0  0  0  0
   -5.6720   28.1704   53.7347 C   0  0  0  0  0  0
   -9.5847   26.9715   50.2778 C   0  0  0  0  0  0
   -8.1171   27.6276   48.4844 C   0  0  0  0  0  0
   -7.7482   26.5356   52.8949 C   0  0  0  0  0  0
   -6.0614   28.1699   52.4144 C   0  0  0  0  0  0
  -10.6138   26.8380   49.3584 C   0  0  0  0  0  0
   -9.1369   27.4343   47.5582 C   0  0  0  0  0  0
   -6.8247   30.5185   56.3792 O   0  0  0  0  0  0
   -5.8227   30.2265   57.3390 C   0  0  0  0  0  0
   -7.8094   31.4182   56.8690 C   0  0  0  0  0  0
   -8.7401   31.7758   55.7157 C   0  0  0  0  0  0
   -3.7076   27.1412   59.6723 H   0  0  0  0  0  0
   -1.7993   28.5371   56.4855 H   0  0  0  0  0  0
   -4.4741   29.9423   55.7102 H   0  0  0  0  0  0
   -3.7577   29.7592   57.2313 H   0  0  0  0  0  0
   -0.2152   26.9143   56.5099 H   0  0  0  0  0  0
   -1.2442   25.7693   56.9597 H   0  0  0  0  0  0
   -7.9203   25.9975   54.9780 H   0  0  0  0  0  0
   -4.8393   28.7806   54.0156 H   0  0  0  0  0  0
   -9.7993   26.7784   51.3090 H   0  0  0  0  0  0
   -7.1398   27.9338   48.1420 H   0  0  0  0  0  0
   -8.4835   25.8134   52.5805 H   0  0  0  0  0  0
   -5.5314   28.7825   51.7098 H   0  0  0  0  0  0
  -11.6001   26.5742   49.6965 H   0  0  0  0  0  0
   -8.9566   27.5922   46.5055 H   0  0  0  0  0  0
   -6.2465   29.6787   58.1821 H   0  0  0  0  0  0
   -5.4316   31.1623   57.7442 H   0  0  0  0  0  0
   -7.3523   32.3310   57.2541 H   0  0  0  0  0  0
   -8.3725   30.9612   57.6842 H   0  0  0  0  0  0
   -9.5473   32.4288   56.0479 H   0  0  0  0  0  0
   -8.1962   32.2843   54.9215 H   0  0  0  0  0  0
   -9.1846   30.8708   55.3109 H   0  0  0  0  0  0
  1  2  1  0  0  0
  1  3  1  0  0  0
  1  7  1  0  0  0
  1 11  1  0  0  0
  2  6  1  0  0  0
  2  8  2  0  0  0
  3  4  1  0  0  0
  3  9  2  0  0  0
  4  5  1  0  0  0
  4 31  1  0  0  0
  5 10  2  0  0  0
  5  6  1  0  0  0
  6 12  1  0  0  0
  6 32  1  0  0  0
  7 14  1  0  0  0
 11 28  1  0  0  0
 11 33  1  0  0  0
 11 34  1  0  0  0
 12 35  1  0  0  0
 12 36  1  0  0  0
 13 15  1  0  0  0
 13 16  1  0  0  0
 14 19  2  0  0  0
 14 20  1  0  0  0
 15 24  1  0  0  0
 15 23  2  0  0  0
 16 21  1  0  0  0
 16 22  2  0  0  0
 17 26  2  0  0  0
 17 18  1  0  0  0
 17 25  1  0  0  0
 19 23  1  0  0  0
 19 37  1  0  0  0
 20 24  2  0  0  0
 20 38  1  0  0  0
 21 25  2  0  0  0
 21 39  1  0  0  0
 22 26  1  0  0  0
 22 40  1  0  0  0
 23 41  1  0  0  0
 24 42  1  0  0  0
 25 43  1  0  0  0
 26 44  1  0  0  0
 27 28  1  0  0  0
 27 29  1  0  0  0
 28 45  1  0  0  0
 28 46  1  0  0  0
 29 30  1  0  0  0
 29 47  1  0  0  0
 29 48  1  0  0  0
 30 49  1  0  0  0
 30 50  1  0  0  0
 30 51  1  0  0  0
M  END
> <s_m_entry_id>
64131

> <s_m_entry_name>
dock_pv.81

> <s_m_Source_Path>
/home/csk/Desktop/cluster/DUD-E-result/mmp13

> <s_m_Source_File>
dock_pv.maegz

> <i_m_Source_File_Index>
81

> <chembl_id>
CHEMBL360916

> <chembl_pref_name>
None

> <i_lp_mmshare_version>
53161

> <i_f3d_flags>
0

> <r_lp_tautomer_probability>
1

> <s_lp_Force_Field>
OPLS_2005

> <r_lp_Energy>
29.942916

> <b_lp_Chiralities_Consistent>
1

> <s_lp_Variant>
CHEMBL280_lig887-1

> <s_i_glide_gridfile>
glide-grid_830c

> <i_i_glide_lignum>
1437

> <i_i_glide_rotatable_bonds>
8

> <r_i_docking_score>
-7.74181403004274

> <r_i_glide_ligand_efficiency>
-0.258060467668091

> <r_i_glide_ligand_efficiency_sa>
-0.801853872730861

> <r_i_glide_ligand_efficiency_ln>
-1.75902450144578

> <r_i_glide_gscore>
-7.74181403004274

> <r_i_glide_lipo>
-3.63905084062333

> <r_i_glide_hbond>
-0.608

> <r_i_glide_metal>
0

> <r_i_glide_rewards>
-0.701113179669149

> <r_i_glide_evdw>
-39.2979507446289

> <r_i_glide_ecoul>
-10.1754713058472

> <r_i_glide_erotb>
0.797568223358255

> <r_i_glide_esite>
-0.1

> <r_i_glide_emodel>
-47.5098359216182

> <r_i_glide_energy>
-49.4734220504761

> <r_i_glide_einternal>
15.3815078735352

> <i_i_glide_confnum>
29

> <i_i_glide_posenum>
13

> <r_i_glide_eff_state_penalty>
0

> <s_user_duplicate_titles>
CHEMBL280_lig887

> <s_m_subgroup_title>
dock_pv

> <s_m_subgroupid>
dock_pv

> <b_m_subgroup_collapsed>
1

$$$$
CHEMBL280_lig955
                    3D
 Schrodinger Suite 2021-1.
 59 61  0  0  1  0            999 V2000
   -5.1669   28.2146   58.1878 S   0  0  0  0  0  0
   -3.3922   28.2897   58.0826 N   0  0  3  0  0  0
   -2.5730   27.0686   57.7330 C   0  0  2  0  0  0
   -1.2694   27.0015   58.6285 C   0  0  0  0  0  0
   -2.3587   26.9924   56.1975 C   0  0  0  0  0  0
   -2.7049   29.6187   58.0808 C   0  0  0  0  0  0
   -5.8614   28.0058   56.5593 C   0  0  0  0  0  0
   -5.5382   26.9939   58.9051 O   0  0  0  0  0  0
   -5.6324   29.5284   58.6359 O   0  0  0  0  0  0
   -0.5087   28.3509   58.4543 C   0  0  0  0  0  0
   -1.5719   26.1741   55.7099 O   0  0  0  0  0  0
   -1.3508   29.5956   58.8245 C   0  0  1  0  0  0
   -3.1363   27.8071   55.4566 N   0  0  0  0  0  0
   -6.1832   29.1394   55.8186 C   0  0  0  0  0  0
   -6.1595   26.7283   56.0719 C   0  0  0  0  0  0
   -7.9020   27.7580   52.9474 O   0  0  0  0  0  0
   -7.1831   27.7407   54.1207 C   0  0  0  0  0  0
   -9.5042   26.5651   50.0497 C   0  0  0  0  0  0
   -1.7002   26.7912   60.1040 C   0  0  0  0  0  0
   -0.3003   25.8499   58.2551 C   0  0  0  0  0  0
   -8.1585   26.5641   52.2199 C   0  0  0  0  0  0
   -8.3714   26.9628   50.7682 C   0  0  0  0  0  0
   -6.8249   26.5948   54.8502 C   0  0  0  0  0  0
   -6.8381   28.9966   54.6063 C   0  0  0  0  0  0
   -3.1401   27.7649   54.0745 O   0  0  0  0  0  0
   -0.6161   30.7682   58.5298 O   0  0  0  0  0  0
   -9.6719   26.9725   48.7193 C   0  0  0  0  0  0
   -7.5805   28.1700   48.8227 C   0  0  0  0  0  0
   -7.4185   27.7699   50.1464 C   0  0  0  0  0  0
   -8.7082   27.7774   48.1117 C   0  0  0  0  0  0
  -10.8976   26.5720   47.9368 C   0  0  0  0  0  0
   -3.1812   26.1782   57.8682 H   0  0  0  0  0  0
   -2.5044   29.8766   57.0415 H   0  0  0  0  0  0
   -3.3659   30.3852   58.4859 H   0  0  0  0  0  0
    0.3862   28.3429   59.0794 H   0  0  0  0  0  0
   -0.1340   28.4481   57.4326 H   0  0  0  0  0  0
   -1.5335   29.6076   59.8993 H   0  0  0  0  0  0
   -3.8322   28.4459   55.8236 H   0  0  0  0  0  0
   -5.9561   30.1299   56.1863 H   0  0  0  0  0  0
   -5.9130   25.8401   56.6385 H   0  0  0  0  0  0
  -10.2547   25.9455   50.5187 H   0  0  0  0  0  0
   -0.9030   27.0236   60.8128 H   0  0  0  0  0  0
   -2.5691   27.3700   60.3717 H   0  0  0  0  0  0
   -2.0146   25.7694   60.2842 H   0  0  0  0  0  0
    0.4194   25.6534   59.0544 H   0  0  0  0  0  0
   -0.8695   24.9343   58.1040 H   0  0  0  0  0  0
    0.2907   26.0450   57.3565 H   0  0  0  0  0  0
   -7.3230   25.8630   52.2591 H   0  0  0  0  0  0
   -9.0403   26.0710   52.6237 H   0  0  0  0  0  0
   -7.0816   25.6069   54.5004 H   0  0  0  0  0  0
   -7.0986   29.8789   54.0438 H   0  0  0  0  0  0
   -2.9122   28.6667   53.8213 H   0  0  0  0  0  0
   -1.0725   31.5253   58.9087 H   0  0  0  0  0  0
   -6.8321   28.7892   48.3501 H   0  0  0  0  0  0
   -6.5447   28.0946   50.6922 H   0  0  0  0  0  0
   -8.8236   28.1019   47.0875 H   0  0  0  0  0  0
  -11.1009   27.2692   47.1217 H   0  0  0  0  0  0
  -10.7378   25.5755   47.5225 H   0  0  0  0  0  0
  -11.7776   26.5684   48.5748 H   0  0  0  0  0  0
  1  2  1  0  0  0
  1  7  1  0  0  0
  1  8  2  0  0  0
  1  9  2  0  0  0
  2  3  1  0  0  0
  2  6  1  0  0  0
  3  4  1  0  0  0
  3  5  1  0  0  0
  3 32  1  0  0  0
  4 19  1  0  0  0
  4 20  1  0  0  0
  4 10  1  0  0  0
  5 11  2  0  0  0
  5 13  1  0  0  0
  6 12  1  0  0  0
  6 33  1  0  0  0
  6 34  1  0  0  0
  7 14  2  0  0  0
  7 15  1  0  0  0
 10 12  1  0  0  0
 10 35  1  0  0  0
 10 36  1  0  0  0
 12 26  1  0  0  0
 12 37  1  0  0  0
 13 25  1  0  0  0
 13 38  1  0  0  0
 14 24  1  0  0  0
 14 39  1  0  0  0
 15 23  2  0  0  0
 15 40  1  0  0  0
 16 17  1  0  0  0
 16 21  1  0  0  0
 17 23  1  0  0  0
 17 24  2  0  0  0
 18 22  1  0  0  0
 18 27  2  0  0  0
 18 41  1  0  0  0
 19 42  1  0  0  0
 19 43  1  0  0  0
 19 44  1  0  0  0
 20 45  1  0  0  0
 20 46  1  0  0  0
 20 47  1  0  0  0
 21 22  1  0  0  0
 21 48  1  0  0  0
 21 49  1  0  0  0
 22 29  2  0  0  0
 23 50  1  0  0  0
 24 51  1  0  0  0
 25 52  1  0  0  0
 26 53  1  0  0  0
 27 31  1  0  0  0
 27 30  1  0  0  0
 28 29  1  0  0  0
 28 30  2  0  0  0
 28 54  1  0  0  0
 29 55  1  0  0  0
 30 56  1  0  0  0
 31 57  1  0  0  0
 31 58  1  0  0  0
 31 59  1  0  0  0
M  END
> <s_m_entry_id>
64132

> <s_m_entry_name>
dock_pv.82

> <s_m_Source_Path>
/home/csk/Desktop/cluster/DUD-E-result/mmp13

> <s_m_Source_File>
dock_pv.maegz

> <i_m_Source_File_Index>
82

> <chembl_id>
CHEMBL192773

> <chembl_pref_name>
None

> <i_lp_mmshare_version>
53161

> <i_f3d_flags>
0

> <r_lp_tautomer_probability>
1

> <s_lp_Force_Field>
OPLS_2005

> <r_lp_Energy>
23.233626

> <b_lp_Chiralities_Consistent>
1

> <s_lp_Variant>
CHEMBL280_lig955-1

> <s_i_glide_gridfile>
glide-grid_830c

> <i_i_glide_lignum>
1602

> <i_i_glide_rotatable_bonds>
9

> <r_i_docking_score>
-7.73376154850365

> <r_i_glide_ligand_efficiency>
-0.249476178983989

> <r_i_glide_ligand_efficiency_sa>
-0.783699640995763

> <r_i_glide_ligand_efficiency_ln>
-1.74420024051505

> <r_i_glide_gscore>
-7.73376154850365

> <r_i_glide_lipo>
-3.63347075306867

> <r_i_glide_hbond>
0

> <r_i_glide_metal>
0

> <r_i_glide_rewards>
-0.374069573041696

> <r_i_glide_evdw>
-40.9199829101562

> <r_i_glide_ecoul>
-13.6283731460571

> <r_i_glide_erotb>
0.697053397205158

> <r_i_glide_esite>
-0.333019502182061

> <r_i_glide_emodel>
-83.5403341534902

> <r_i_glide_energy>
-54.5483560562134

> <r_i_glide_einternal>
12.5188570022583

> <i_i_glide_confnum>
40

> <i_i_glide_posenum>
163

> <r_i_glide_eff_state_penalty>
0

> <s_user_duplicate_titles>
CHEMBL280_lig955,318887

> <s_m_subgroup_title>
dock_pv

> <s_m_subgroupid>
dock_pv

> <b_m_subgroup_collapsed>
1

$$$$
CHEMBL280_lig448
                    3D
 Schrodinger Suite 2021-1.
 47 48  0  0  1  0            999 V2000
   -5.6092   28.2473   56.3932 S   0  0  0  0  0  0
   -2.8425   27.7517   57.0096 C   0  0  1  0  0  0
   -4.0566   27.2055   56.2199 C   0  0  0  0  0  0
   -1.6550   26.7498   56.7998 C   0  0  0  0  0  0
   -2.4863   29.0759   56.4534 N   0  0  0  0  0  0
   -6.4940   27.7227   54.9375 C   0  0  0  0  0  0
   -1.4296   29.8675   56.7239 C   0  0  0  0  0  0
   -6.3298   27.7700   57.5762 O   0  0  0  0  0  0
   -5.2748   29.6666   56.2384 O   0  0  0  0  0  0
   -1.5390   26.1685   55.7100 O   0  0  0  0  0  0
   -8.7812   26.1696   51.3181 S   0  0  0  0  0  0
   -0.7910   26.5838   57.8201 N   0  0  0  0  0  0
   -0.4882   29.5361   57.4413 O   0  0  0  0  0  0
   -6.7009   28.5895   53.8635 C   0  0  0  0  0  0
   -6.9022   26.3975   54.8576 C   0  0  0  0  0  0
   -7.8039   26.8177   52.6534 C   0  0  0  0  0  0
   -3.2152   27.9082   58.5101 C   0  0  0  0  0  0
   -8.7343   27.2460   49.9210 C   0  0  0  0  0  0
   -7.5411   25.9510   53.7113 C   0  0  0  0  0  0
   -7.3591   28.1388   52.7198 C   0  0  0  0  0  0
    0.3278   25.7674   57.6371 O   0  0  0  0  0  0
   -1.4529   31.2605   56.1111 C   0  0  0  0  0  0
   -9.9106   27.4170   49.1899 C   0  0  0  0  0  0
   -7.5395   27.8037   49.4732 C   0  0  0  0  0  0
   -7.5352   28.5697   48.3092 C   0  0  0  0  0  0
   -9.8971   28.1675   48.0171 C   0  0  0  0  0  0
   -8.7092   28.7488   47.5844 C   0  0  0  0  0  0
   -3.8527   27.1840   55.1512 H   0  0  0  0  0  0
   -4.3300   26.1911   56.5234 H   0  0  0  0  0  0
   -3.2895   29.5769   56.0871 H   0  0  0  0  0  0
   -0.7769   27.0917   58.6958 H   0  0  0  0  0  0
   -6.3512   29.6108   53.9140 H   0  0  0  0  0  0
   -6.7214   25.7091   55.6733 H   0  0  0  0  0  0
   -3.5645   26.9695   58.9421 H   0  0  0  0  0  0
   -2.3716   28.2545   59.1076 H   0  0  0  0  0  0
   -4.0049   28.6441   58.6590 H   0  0  0  0  0  0
   -7.8643   24.9260   53.6865 H   0  0  0  0  0  0
   -7.5385   28.8221   51.9078 H   0  0  0  0  0  0
    1.0566   26.3854   57.5228 H   0  0  0  0  0  0
   -1.2228   32.0071   56.8730 H   0  0  0  0  0  0
   -2.4303   31.4996   55.6892 H   0  0  0  0  0  0
   -0.7072   31.3333   55.3209 H   0  0  0  0  0  0
  -10.8316   26.9546   49.5156 H   0  0  0  0  0  0
   -6.6155   27.6378   50.0065 H   0  0  0  0  0  0
   -6.6083   28.9953   47.9557 H   0  0  0  0  0  0
  -10.8005   28.2955   47.4405 H   0  0  0  0  0  0
   -8.6912   29.3313   46.6747 H   0  0  0  0  0  0
  1  3  1  0  0  0
  1  6  1  0  0  0
  1  8  2  0  0  0
  1  9  2  0  0  0
  2  3  1  0  0  0
  2  4  1  0  0  0
  2  5  1  0  0  0
  2 17  1  0  0  0
  3 28  1  0  0  0
  3 29  1  0  0  0
  4 10  2  0  0  0
  4 12  1  0  0  0
  5  7  1  0  0  0
  5 30  1  0  0  0
  6 14  2  0  0  0
  6 15  1  0  0  0
  7 13  2  0  0  0
  7 22  1  0  0  0
 11 16  1  0  0  0
 11 18  1  0  0  0
 12 21  1  0  0  0
 12 31  1  0  0  0
 14 20  1  0  0  0
 14 32  1  0  0  0
 15 19  2  0  0  0
 15 33  1  0  0  0
 16 19  1  0  0  0
 16 20  2  0  0  0
 17 34  1  0  0  0
 17 35  1  0  0  0
 17 36  1  0  0  0
 18 23  2  0  0  0
 18 24  1  0  0  0
 19 37  1  0  0  0
 20 38  1  0  0  0
 21 39  1  0  0  0
 22 40  1  0  0  0
 22 41  1  0  0  0
 22 42  1  0  0  0
 23 26  1  0  0  0
 23 43  1  0  0  0
 24 25  2  0  0  0
 24 44  1  0  0  0
 25 27  1  0  0  0
 25 45  1  0  0  0
 26 27  2  0  0  0
 26 46  1  0  0  0
 27 47  1  0  0  0
M  END
> <s_m_entry_id>
64133

> <s_m_entry_name>
dock_pv.83

> <s_m_Source_Path>
/home/csk/Desktop/cluster/DUD-E-result/mmp13

> <s_m_Source_File>
dock_pv.maegz

> <i_m_Source_File_Index>
83

> <chembl_id>
CHEMBL329659

> <chembl_pref_name>
None

> <i_lp_mmshare_version>
53161

> <i_f3d_flags>
0

> <r_lp_tautomer_probability>
1

> <s_lp_Force_Field>
OPLS_2005

> <r_lp_Energy>
16.481653

> <b_lp_Chiralities_Consistent>
1

> <s_lp_Variant>
CHEMBL280_lig448-1

> <s_i_glide_gridfile>
glide-grid_830c

> <i_i_glide_lignum>
637

> <i_i_glide_rotatable_bonds>
10

> <r_i_docking_score>
-7.7335095191197

> <r_i_glide_ligand_efficiency>
-0.286426278485915

> <r_i_glide_ligand_efficiency_sa>
-0.85927883451373

> <r_i_glide_ligand_efficiency_ln>
-1.80023351918222

> <r_i_glide_gscore>
-7.7335095191197

> <r_i_glide_lipo>
-3.69943890901696

> <r_i_glide_hbond>
0

> <r_i_glide_metal>
0

> <r_i_glide_rewards>
-0.673625237000178

> <r_i_glide_evdw>
-49.2115211486816

> <r_i_glide_ecoul>
-11.3086309432983

> <r_i_glide_erotb>
0.94359349886787

> <r_i_glide_esite>
-0.1471681730416

> <r_i_glide_emodel>
-78.5070036213627

> <r_i_glide_energy>
-60.52015209198

> <r_i_glide_einternal>
6.32772302627563

> <i_i_glide_confnum>
93

> <i_i_glide_posenum>
250

> <r_i_glide_eff_state_penalty>
0

> <s_user_duplicate_titles>
CHEMBL280_lig448,149079

> <s_m_subgroup_title>
dock_pv

> <s_m_subgroupid>
dock_pv

> <b_m_subgroup_collapsed>
1

$$$$
CHEMBL280_lig1505
                    3D
 Schrodinger Suite 2021-1.
 45 47  0  0  1  0            999 V2000
   -2.8064   28.9458   56.3276 C   0  0  0  0  0  0
   -1.6667   29.7128   56.0464 C   0  0  0  0  0  0
   -1.6672   31.0937   56.2233 C   0  0  0  0  0  0
   -2.8125   31.7310   56.6851 C   0  0  0  0  0  0
   -3.9487   30.9844   56.9798 C   0  0  0  0  0  0
   -3.9669   29.5922   56.8154 C   0  0  0  0  0  0
   -5.4936   28.7368   57.2823 S   0  0  0  0  0  0
   -6.1433   27.9438   55.8107 C   0  0  0  0  0  0
   -5.1419   27.6899   58.2528 O   0  0  0  0  0  0
   -6.4675   29.7701   57.6471 O   0  0  0  0  0  0
   -6.1443   26.5535   55.7009 C   0  0  0  0  0  0
   -6.7287   25.9494   54.5911 C   0  0  0  0  0  0
   -7.3073   26.7149   53.5821 C   0  0  0  0  0  0
   -7.2934   28.1130   53.6948 C   0  0  0  0  0  0
   -6.7120   28.7240   54.8034 C   0  0  0  0  0  0
   -7.9032   26.0201   52.5461 O   0  0  0  0  0  0
   -8.2600   26.6118   51.3537 C   0  0  0  0  0  0
   -2.7152   27.4621   56.1065 C   0  0  0  0  0  0
   -2.7424   26.9794   54.9652 O   0  0  0  0  0  0
   -2.5018   26.7526   57.2227 N   0  0  0  0  0  0
   -2.3386   25.3701   57.0986 O   0  0  0  0  0  0
   -9.5391   26.3801   50.8557 C   0  0  0  0  0  0
   -9.9399   26.9547   49.6518 C   0  0  0  0  0  0
   -9.0545   27.7421   48.9149 C   0  0  0  0  0  0
   -7.7516   27.9361   49.3966 C   0  0  0  0  0  0
   -7.3581   27.3734   50.6069 C   0  0  0  0  0  0
   -9.5406   28.2882   47.7438 O   0  0  0  0  0  0
   -8.6910   29.1244   46.9647 C   0  0  0  0  0  0
   -0.7598   29.2486   55.6882 H   0  0  0  0  0  0
   -0.7826   31.6710   55.9977 H   0  0  0  0  0  0
   -2.8210   32.8032   56.8167 H   0  0  0  0  0  0
   -4.8181   31.5066   57.3492 H   0  0  0  0  0  0
   -5.7134   25.9312   56.4738 H   0  0  0  0  0  0
   -6.7339   24.8695   54.5152 H   0  0  0  0  0  0
   -7.7450   28.7297   52.9332 H   0  0  0  0  0  0
   -6.7131   29.8019   54.8878 H   0  0  0  0  0  0
   -2.5093   27.0778   58.1813 H   0  0  0  0  0  0
   -3.1509   25.0067   57.4865 H   0  0  0  0  0  0
  -10.2303   25.7659   51.4137 H   0  0  0  0  0  0
  -10.9429   26.7945   49.2850 H   0  0  0  0  0  0
   -7.0330   28.5341   48.8573 H   0  0  0  0  0  0
   -6.3534   27.5437   50.9661 H   0  0  0  0  0  0
   -9.2412   29.4875   46.0973 H   0  0  0  0  0  0
   -8.3580   29.9964   47.5279 H   0  0  0  0  0  0
   -7.8211   28.5790   46.5978 H   0  0  0  0  0  0
  1 18  1  0  0  0
  1  6  1  0  0  0
  1  2  2  0  0  0
  2  3  1  0  0  0
  2 29  1  0  0  0
  3  4  2  0  0  0
  3 30  1  0  0  0
  4  5  1  0  0  0
  4 31  1  0  0  0
  5  6  2  0  0  0
  5 32  1  0  0  0
  6  7  1  0  0  0
  7  8  1  0  0  0
  7  9  2  0  0  0
  7 10  2  0  0  0
  8 15  1  0  0  0
  8 11  2  0  0  0
 11 12  1  0  0  0
 11 33  1  0  0  0
 12 13  2  0  0  0
 12 34  1  0  0  0
 13 14  1  0  0  0
 13 16  1  0  0  0
 14 15  2  0  0  0
 14 35  1  0  0  0
 15 36  1  0  0  0
 16 17  1  0  0  0
 17 22  2  0  0  0
 17 26  1  0  0  0
 18 19  2  0  0  0
 18 20  1  0  0  0
 20 21  1  0  0  0
 20 37  1  0  0  0
 21 38  1  0  0  0
 22 23  1  0  0  0
 22 39  1  0  0  0
 23 24  2  0  0  0
 23 40  1  0  0  0
 24 25  1  0  0  0
 24 27  1  0  0  0
 25 26  2  0  0  0
 25 41  1  0  0  0
 26 42  1  0  0  0
 27 28  1  0  0  0
 28 43  1  0  0  0
 28 44  1  0  0  0
 28 45  1  0  0  0
M  END
> <s_m_entry_id>
64134

> <s_m_entry_name>
dock_pv.84

> <s_m_Source_Path>
/home/csk/Desktop/cluster/DUD-E-result/mmp13

> <s_m_Source_File>
dock_pv.maegz

> <i_m_Source_File_Index>
84

> <chembl_id>
CHEMBL584122

> <chembl_pref_name>
None

> <i_lp_mmshare_version>
53161

> <i_f3d_flags>
0

> <r_lp_tautomer_probability>
1

> <s_lp_Force_Field>
OPLS_2005

> <r_lp_Energy>
39.560279

> <b_lp_Chiralities_Consistent>
1

> <s_lp_Variant>
CHEMBL280_lig1505-1

> <s_i_glide_gridfile>
glide-grid_830c

> <i_i_glide_lignum>
2238

> <i_i_glide_rotatable_bonds>
8

> <r_i_docking_score>
-7.7302820678172

> <r_i_glide_ligand_efficiency>
-0.276081502422043

> <r_i_glide_ligand_efficiency_sa>
-0.838346044662459

> <r_i_glide_ligand_efficiency_ln>
-1.78437607219622

> <r_i_glide_gscore>
-7.7302820678172

> <r_i_glide_lipo>
-3.05660461114214

> <r_i_glide_hbond>
0

> <r_i_glide_metal>
0

> <r_i_glide_rewards>
-0.685777944742837

> <r_i_glide_evdw>
-47.9214668273926

> <r_i_glide_ecoul>
-14.3900117874146

> <r_i_glide_erotb>
0.736928502720603

> <r_i_glide_esite>
-0.170252905171012

> <r_i_glide_emodel>
-83.5135138367503

> <r_i_glide_energy>
-62.3114786148071

> <r_i_glide_einternal>
18.745626449585

> <i_i_glide_confnum>
9

> <i_i_glide_posenum>
223

> <r_i_glide_eff_state_penalty>
0

> <s_user_duplicate_titles>
CHEMBL280_lig1505

> <s_m_subgroup_title>
dock_pv

> <s_m_subgroupid>
dock_pv

> <b_m_subgroup_collapsed>
1

$$$$
CHEMBL280_lig1006
                    3D
 Schrodinger Suite 2021-1.
 53 56  0  0  1  0            999 V2000
    0.6247   32.4591   57.7336 C   0  0  0  0  0  0
    1.2816   31.5589   56.9018 C   0  0  0  0  0  0
    0.5827   30.4845   56.3584 C   0  0  0  0  0  0
   -0.7252   32.2746   58.0238 C   0  0  0  0  0  0
   -1.4388   31.1933   57.4939 C   0  0  0  0  0  0
   -0.7741   30.2880   56.6383 C   0  0  0  0  0  0
   -1.5375   29.1454   55.9767 C   0  0  0  0  0  0
   -2.9595   28.9772   56.3576 N   0  0  3  0  0  0
   -3.6681   30.2496   56.7176 C   0  0  2  0  0  0
   -2.9097   30.9834   57.8498 C   0  0  0  0  0  0
   -3.7579   27.4491   55.8852 S   0  0  0  0  0  0
   -4.8977   27.9123   54.4676 C   0  0  0  0  0  0
   -2.7360   26.5597   55.3102 O   0  0  0  0  0  0
   -4.5958   27.0018   57.0003 O   0  0  0  0  0  0
   -6.0594   26.9060   54.3376 C   0  0  0  0  0  0
   -6.8464   27.0083   53.0343 C   0  0  0  0  0  0
   -7.9387   26.1698   52.8255 C   0  0  0  0  0  0
   -8.6182   26.1857   51.6067 C   0  0  0  0  0  0
   -8.2337   27.0553   50.5715 C   0  0  0  0  0  0
   -7.1391   27.8851   50.8086 C   0  0  0  0  0  0
   -6.4703   27.8854   52.0197 C   0  0  0  0  0  0
   -8.9686   27.1328   49.2642 C   0  0  0  0  0  0
   -8.4247   27.7699   48.1316 C   0  0  0  0  0  0
   -9.1383   27.8512   46.9364 C   0  0  0  0  0  0
  -10.3944   27.2683   46.8427 C   0  0  0  0  0  0
  -10.9404   26.6231   47.9430 C   0  0  0  0  0  0
  -10.2491   26.5866   49.1457 C   0  0  0  0  0  0
  -11.2936   27.3709   45.3738 Cl  0  0  0  0  0  0
   -5.1566   30.0931   57.1025 C   0  0  0  0  0  0
   -5.9784   30.6790   56.1818 O   0  0  0  0  0  0
   -5.5392   29.5284   58.1245 O   0  0  0  0  0  0
    1.1600   33.2960   58.1569 H   0  0  0  0  0  0
    2.3288   31.6962   56.6739 H   0  0  0  0  0  0
    1.1015   29.8002   55.7035 H   0  0  0  0  0  0
   -1.2206   32.9763   58.6788 H   0  0  0  0  0  0
   -1.5276   29.3839   54.9131 H   0  0  0  0  0  0
   -1.0156   28.1990   56.1105 H   0  0  0  0  0  0
   -3.6913   30.8437   55.8045 H   0  0  0  0  0  0
   -2.9162   30.3687   58.7523 H   0  0  0  0  0  0
   -3.3784   31.9399   58.0915 H   0  0  0  0  0  0
   -5.2679   28.9193   54.6115 H   0  0  0  0  0  0
   -4.2560   27.9163   53.5907 H   0  0  0  0  0  0
   -5.6806   25.8856   54.4271 H   0  0  0  0  0  0
   -6.7551   27.0532   55.1658 H   0  0  0  0  0  0
   -8.2410   25.4789   53.5984 H   0  0  0  0  0  0
   -9.4367   25.4953   51.4806 H   0  0  0  0  0  0
   -6.7913   28.5811   50.0647 H   0  0  0  0  0  0
   -5.6445   28.5696   52.1165 H   0  0  0  0  0  0
   -7.4368   28.2039   48.1433 H   0  0  0  0  0  0
   -8.7034   28.3522   46.0829 H   0  0  0  0  0  0
  -11.9384   26.2235   47.8998 H   0  0  0  0  0  0
  -10.7392   26.1506   49.9979 H   0  0  0  0  0  0
   -5.4882   31.0105   55.4229 H   0  0  0  0  0  0
  1  4  1  0  0  0
  1  2  2  0  0  0
  1 32  1  0  0  0
  2  3  1  0  0  0
  2 33  1  0  0  0
  3  6  2  0  0  0
  3 34  1  0  0  0
  4  5  2  0  0  0
  4 35  1  0  0  0
  5 10  1  0  0  0
  5  6  1  0  0  0
  6  7  1  0  0  0
  7  8  1  0  0  0
  7 36  1  0  0  0
  7 37  1  0  0  0
  8  9  1  0  0  0
  8 11  1  0  0  0
  9 10  1  0  0  0
  9 29  1  0  0  0
  9 38  1  0  0  0
 10 39  1  0  0  0
 10 40  1  0  0  0
 11 12  1  0  0  0
 11 13  2  0  0  0
 11 14  2  0  0  0
 12 15  1  0  0  0
 12 41  1  0  0  0
 12 42  1  0  0  0
 15 16  1  0  0  0
 15 43  1  0  0  0
 15 44  1  0  0  0
 16 17  2  0  0  0
 16 21  1  0  0  0
 17 18  1  0  0  0
 17 45  1  0  0  0
 18 19  2  0  0  0
 18 46  1  0  0  0
 19 20  1  0  0  0
 19 22  1  0  0  0
 20 21  2  0  0  0
 20 47  1  0  0  0
 21 48  1  0  0  0
 22 23  2  0  0  0
 22 27  1  0  0  0
 23 24  1  0  0  0
 23 49  1  0  0  0
 24 25  2  0  0  0
 24 50  1  0  0  0
 25 26  1  0  0  0
 25 28  1  0  0  0
 26 27  2  0  0  0
 26 51  1  0  0  0
 27 52  1  0  0  0
 29 30  1  0  0  0
 29 31  2  0  0  0
 30 53  1  0  0  0
M  END
> <s_m_entry_id>
64135

> <s_m_entry_name>
dock_pv.85

> <s_m_Source_Path>
/home/csk/Desktop/cluster/DUD-E-result/mmp13

> <s_m_Source_File>
dock_pv.maegz

> <i_m_Source_File_Index>
85

> <chembl_id>
CHEMBL373261

> <chembl_pref_name>
None

> <i_lp_mmshare_version>
53161

> <i_f3d_flags>
0

> <r_lp_tautomer_probability>
1

> <s_lp_Force_Field>
OPLS_2005

> <r_lp_Energy>
23.21718

> <b_lp_Chiralities_Consistent>
1

> <s_lp_Variant>
CHEMBL280_lig1006-1

> <s_i_glide_gridfile>
glide-grid_830c

> <i_i_glide_lignum>
1665

> <i_i_glide_rotatable_bonds>
7

> <r_i_docking_score>
-7.72861123225282

> <r_i_glide_ligand_efficiency>
-0.249310039750091

> <r_i_glide_ligand_efficiency_sa>
-0.783177734421391

> <r_i_glide_ligand_efficiency_ln>
-1.74303868636225

> <r_i_glide_gscore>
-7.72861123225282

> <r_i_glide_lipo>
-3.74127866654273

> <r_i_glide_hbond>
0

> <r_i_glide_metal>
0

> <r_i_glide_rewards>
-0.300310363636363

> <r_i_glide_evdw>
-45.4730339050293

> <r_i_glide_ecoul>
-11.7911319732666

> <r_i_glide_erotb>
0.579904679519044

> <r_i_glide_esite>
-0.224605390351316

> <r_i_glide_emodel>
-85.619292080329

> <r_i_glide_energy>
-57.2641658782959

> <r_i_glide_einternal>
5.2708911895752

> <i_i_glide_confnum>
29

> <i_i_glide_posenum>
89

> <r_i_glide_eff_state_penalty>
0

> <s_user_duplicate_titles>
CHEMBL280_lig1006,335220

> <s_m_subgroup_title>
dock_pv

> <s_m_subgroupid>
dock_pv

> <b_m_subgroup_collapsed>
1

$$$$
CHEMBL280_lig2326
                    3D
 Schrodinger Suite 2021-1.
 45 48  0  0  1  0            999 V2000
   -5.1845   28.7027   56.8514 C   0  0  0  0  0  0
   -5.0877   27.1720   57.1361 C   0  0  0  0  0  0
   -3.7859   29.3465   56.4938 C   0  0  0  0  0  0
   -4.0024   26.5684   56.6207 N   0  0  0  0  0  0
   -2.8475   28.4583   56.0915 N   0  0  0  0  0  0
   -6.2676   28.9604   55.8450 N   0  0  0  0  0  0
   -2.8742   27.1023   56.1101 C   0  0  0  0  0  0
   -7.0211   30.0641   56.1404 C   0  0  0  0  0  0
   -5.7275   29.4418   58.0983 C   0  0  0  0  0  0
   -8.2079   27.2660   49.8762 C   0  0  0  0  0  0
   -6.4791   28.2443   54.6341 C   0  0  0  0  0  0
   -7.0428   27.3764   50.5928 O   0  0  0  0  0  0
   -3.5248   30.5453   56.5496 O   0  0  0  0  0  0
   -5.9393   26.5311   57.7201 O   0  0  0  0  0  0
   -6.6050   30.5375   57.5264 C   0  0  0  0  0  0
   -1.9537   26.3906   55.7099 O   0  0  0  0  0  0
   -8.3887   28.0542   48.7272 C   0  0  0  0  0  0
   -7.9141   30.5890   55.4707 O   0  0  0  0  0  0
  -10.3097   26.1701   49.4570 N   0  0  0  0  0  0
   -5.4319   28.1701   53.7382 C   0  0  0  0  0  0
   -7.7341   27.7605   54.2288 C   0  0  0  0  0  0
   -6.9583   27.5546   51.9596 C   0  0  0  0  0  0
   -9.1783   26.3130   50.1810 C   0  0  0  0  0  0
   -9.5407   27.8719   47.9465 C   0  0  0  0  0  0
   -7.9756   27.4006   52.9031 C   0  0  0  0  0  0
   -5.7071   27.9319   52.4123 C   0  0  0  0  0  0
   -7.4165   28.9703   48.3982 O   0  0  0  0  0  0
  -10.4745   26.9262   48.3500 C   0  0  0  0  0  0
   -7.8197   30.1164   47.6461 C   0  0  0  0  0  0
   -4.0080   25.5595   56.7219 H   0  0  0  0  0  0
   -1.9732   28.8777   55.8129 H   0  0  0  0  0  0
   -4.9568   29.8462   58.7597 H   0  0  0  0  0  0
   -6.3396   28.8113   58.7431 H   0  0  0  0  0  0
   -6.0418   31.4627   57.3981 H   0  0  0  0  0  0
   -7.4678   30.7634   58.1535 H   0  0  0  0  0  0
   -4.4546   28.5461   53.9856 H   0  0  0  0  0  0
   -8.5563   27.7196   54.9099 H   0  0  0  0  0  0
   -9.0498   25.6208   50.9997 H   0  0  0  0  0  0
   -9.7138   28.4408   47.0455 H   0  0  0  0  0  0
   -8.9693   27.0957   52.6255 H   0  0  0  0  0  0
   -4.9216   28.1284   51.7088 H   0  0  0  0  0  0
  -11.3858   26.7706   47.7895 H   0  0  0  0  0  0
   -7.1396   30.9418   47.8332 H   0  0  0  0  0  0
   -7.8176   29.9090   46.5750 H   0  0  0  0  0  0
   -8.8051   30.4822   47.9381 H   0  0  0  0  0  0
  1  2  1  0  0  0
  1  3  1  0  0  0
  1  6  1  0  0  0
  1  9  1  0  0  0
  2  4  1  0  0  0
  2 14  2  0  0  0
  3  5  1  0  0  0
  3 13  2  0  0  0
  4  7  1  0  0  0
  4 30  1  0  0  0
  5  7  1  0  0  0
  5 31  1  0  0  0
  6  8  1  0  0  0
  6 11  1  0  0  0
  7 16  2  0  0  0
  8 18  2  0  0  0
  8 15  1  0  0  0
  9 15  1  0  0  0
  9 32  1  0  0  0
  9 33  1  0  0  0
 10 12  1  0  0  0
 10 17  2  0  0  0
 10 23  1  0  0  0
 11 20  1  0  0  0
 11 21  2  0  0  0
 12 22  1  0  0  0
 15 34  1  0  0  0
 15 35  1  0  0  0
 17 24  1  0  0  0
 17 27  1  0  0  0
 19 23  2  0  0  0
 19 28  1  0  0  0
 20 26  2  0  0  0
 20 36  1  0  0  0
 21 25  1  0  0  0
 21 37  1  0  0  0
 22 25  2  0  0  0
 22 26  1  0  0  0
 23 38  1  0  0  0
 24 28  2  0  0  0
 24 39  1  0  0  0
 25 40  1  0  0  0
 26 41  1  0  0  0
 27 29  1  0  0  0
 28 42  1  0  0  0
 29 43  1  0  0  0
 29 44  1  0  0  0
 29 45  1  0  0  0
M  END
> <s_m_entry_id>
64136

> <s_m_entry_name>
dock_pv.86

> <s_m_Source_Path>
/home/csk/Desktop/cluster/DUD-E-result/mmp13

> <s_m_Source_File>
dock_pv.maegz

> <i_m_Source_File_Index>
86

> <chembl_id>
CHEMBL361533

> <chembl_pref_name>
None

> <i_lp_mmshare_version>
53161

> <i_f3d_flags>
0

> <r_lp_tautomer_probability>
0.999999998612168

> <s_lp_Force_Field>
OPLS_2005

> <r_lp_Energy>
40.79456

> <b_lp_Chiralities_Consistent>
1

> <s_lp_Variant>
CHEMBL280_lig2326-1

> <s_i_glide_gridfile>
glide-grid_830c

> <i_i_glide_lignum>
3322

> <i_i_glide_rotatable_bonds>
4

> <r_i_docking_score>
-7.72285343317577

> <r_i_glide_ligand_efficiency>
-0.266305290799164

> <r_i_glide_ligand_efficiency_sa>
-0.818174224773091

> <r_i_glide_ligand_efficiency_ln>
-1.76833760153126

> <r_i_glide_gscore>
-7.72285343317577

> <r_i_glide_lipo>
-3.38343113932533

> <r_i_glide_hbond>
-0.427730361048174

> <r_i_glide_metal>
0

> <r_i_glide_rewards>
-0.706680409090908

> <r_i_glide_evdw>
-41.2835464477539

> <r_i_glide_ecoul>
-8.37317657470703

> <r_i_glide_erotb>
0.37360568325046

> <r_i_glide_esite>
-0.258463398368071

> <r_i_glide_emodel>
-64.6607381802989

> <r_i_glide_energy>
-49.6567230224609

> <r_i_glide_einternal>
3.63511896133423

> <i_i_glide_confnum>
2

> <i_i_glide_posenum>
136

> <r_i_glide_eff_state_penalty>
0

> <s_user_duplicate_titles>
CHEMBL280_lig2326,300930

> <s_m_subgroup_title>
dock_pv

> <s_m_subgroupid>
dock_pv

> <b_m_subgroup_collapsed>
1

$$$$
CHEMBL280_lig900
                    3D
 Schrodinger Suite 2021-1.
 55 57  0  0  1  0            999 V2000
   -4.6426   29.0277   56.6709 C   0  0  1  0  0  0
   -5.4752   30.3480   56.7639 C   0  0  0  0  0  0
   -3.9804   28.8443   58.0718 C   0  0  0  0  0  0
   -3.3246   29.9423   58.5102 N   0  0  0  0  0  0
   -3.4849   31.2482   58.1993 C   0  0  0  0  0  0
   -4.6821   31.5836   57.2534 C   0  0  1  0  0  0
   -5.4707   27.8628   56.5008 O   0  0  0  0  0  0
   -6.6848   30.4172   56.5409 O   0  0  0  0  0  0
   -3.9864   27.8047   58.7299 O   0  0  0  0  0  0
   -2.7584   32.0961   58.7137 O   0  0  0  0  0  0
   -3.5161   29.0399   55.5522 C   0  0  0  0  0  0
   -4.1862   32.3538   56.1103 N   0  0  0  0  0  0
   -8.1702   26.0119   52.0033 O   0  0  0  0  0  0
   -6.1046   27.5241   55.3164 C   0  0  0  0  0  0
   -7.4554   26.5733   53.0432 C   0  0  0  0  0  0
   -8.4866   26.6754   50.8388 C   0  0  0  0  0  0
   -9.2294   27.8759   48.4186 C   0  0  0  0  0  0
   -6.5160   28.4104   54.3067 C   0  0  0  0  0  0
   -6.3595   26.1700   55.1614 C   0  0  0  0  0  0
   -7.2067   27.9411   53.1920 C   0  0  0  0  0  0
   -7.5538   27.4186   50.1104 C   0  0  0  0  0  0
   -9.7763   26.5132   50.3402 C   0  0  0  0  0  0
   -7.0001   25.6994   54.0250 C   0  0  0  0  0  0
  -10.1435   27.1078   49.1376 C   0  0  0  0  0  0
   -7.9285   28.0308   48.9168 C   0  0  0  0  0  0
   -9.6834   28.4338   47.2400 O   0  0  0  0  0  0
   -2.3628   26.7845   55.3101 O   0  0  0  0  0  0
   -2.2341   28.1691   55.6622 C   0  0  0  0  0  0
   -2.6703   25.8867   56.3768 C   0  0  0  0  0  0
   -8.7874   29.2119   46.4516 C   0  0  0  0  0  0
   -1.5808   25.8314   57.4617 C   0  0  0  0  0  0
   -2.6998   29.7831   59.2854 H   0  0  0  0  0  0
   -5.3650   32.2086   57.8322 H   0  0  0  0  0  0
   -3.1340   30.0552   55.4610 H   0  0  0  0  0  0
   -3.9442   28.8374   54.5743 H   0  0  0  0  0  0
   -4.3376   31.8677   55.2244 H   0  0  0  0  0  0
   -4.6562   33.2459   56.0417 H   0  0  0  0  0  0
   -6.3374   29.4699   54.3616 H   0  0  0  0  0  0
   -6.0399   25.4704   55.9212 H   0  0  0  0  0  0
   -7.5497   28.6475   52.4534 H   0  0  0  0  0  0
   -6.5401   27.5284   50.4664 H   0  0  0  0  0  0
  -10.4891   25.9114   50.8844 H   0  0  0  0  0  0
   -7.1392   24.6356   53.9058 H   0  0  0  0  0  0
  -11.1445   26.9709   48.7564 H   0  0  0  0  0  0
   -7.1859   28.6092   48.3881 H   0  0  0  0  0  0
   -1.5472   28.5701   54.9173 H   0  0  0  0  0  0
   -1.7034   28.3320   56.5991 H   0  0  0  0  0  0
   -2.7379   24.9010   55.9235 H   0  0  0  0  0  0
   -3.6514   26.0895   56.8021 H   0  0  0  0  0  0
   -9.3075   29.5772   45.5661 H   0  0  0  0  0  0
   -8.4201   30.0817   46.9994 H   0  0  0  0  0  0
   -7.9391   28.6168   46.1117 H   0  0  0  0  0  0
   -1.7347   24.9700   58.1105 H   0  0  0  0  0  0
   -0.5824   25.7702   57.0280 H   0  0  0  0  0  0
   -1.6056   26.7087   58.1069 H   0  0  0  0  0  0
  1  2  1  0  0  0
  1  3  1  0  0  0
  1  7  1  0  0  0
  1 11  1  0  0  0
  2  6  1  0  0  0
  2  8  2  0  0  0
  3  4  1  0  0  0
  3  9  2  0  0  0
  4  5  1  0  0  0
  4 32  1  0  0  0
  5 10  2  0  0  0
  5  6  1  0  0  0
  6 12  1  0  0  0
  6 33  1  0  0  0
  7 14  1  0  0  0
 11 28  1  0  0  0
 11 34  1  0  0  0
 11 35  1  0  0  0
 12 36  1  0  0  0
 12 37  1  0  0  0
 13 15  1  0  0  0
 13 16  1  0  0  0
 14 18  2  0  0  0
 14 19  1  0  0  0
 15 23  1  0  0  0
 15 20  2  0  0  0
 16 21  2  0  0  0
 16 22  1  0  0  0
 17 24  1  0  0  0
 17 26  1  0  0  0
 17 25  2  0  0  0
 18 20  1  0  0  0
 18 38  1  0  0  0
 19 23  2  0  0  0
 19 39  1  0  0  0
 20 40  1  0  0  0
 21 25  1  0  0  0
 21 41  1  0  0  0
 22 24  2  0  0  0
 22 42  1  0  0  0
 23 43  1  0  0  0
 24 44  1  0  0  0
 25 45  1  0  0  0
 26 30  1  0  0  0
 27 28  1  0  0  0
 27 29  1  0  0  0
 28 46  1  0  0  0
 28 47  1  0  0  0
 29 31  1  0  0  0
 29 48  1  0  0  0
 29 49  1  0  0  0
 30 50  1  0  0  0
 30 51  1  0  0  0
 30 52  1  0  0  0
 31 53  1  0  0  0
 31 54  1  0  0  0
 31 55  1  0  0  0
M  END
> <s_m_entry_id>
64137

> <s_m_entry_name>
dock_pv.87

> <s_m_Source_Path>
/home/csk/Desktop/cluster/DUD-E-result/mmp13

> <s_m_Source_File>
dock_pv.maegz

> <i_m_Source_File_Index>
87

> <chembl_id>
CHEMBL182841

> <chembl_pref_name>
None

> <i_lp_mmshare_version>
53161

> <i_f3d_flags>
0

> <r_lp_tautomer_probability>
1

> <s_lp_Force_Field>
OPLS_2005

> <r_lp_Energy>
34.9511

> <b_lp_Chiralities_Consistent>
1

> <s_lp_Variant>
CHEMBL280_lig900-2

> <s_i_glide_gridfile>
glide-grid_830c

> <i_i_glide_lignum>
1490

> <i_i_glide_rotatable_bonds>
9

> <r_i_docking_score>
-7.72107673021247

> <r_i_glide_ligand_efficiency>
-0.249066991297177

> <r_i_glide_ligand_efficiency_sa>
-0.782414226714686

> <r_i_glide_ligand_efficiency_ln>
-1.7413394252474

> <r_i_glide_gscore>
-7.72107673021247

> <r_i_glide_lipo>
-3.3017919118789

> <r_i_glide_hbond>
-0.32

> <r_i_glide_metal>
0

> <r_i_glide_rewards>
-0.401658488150324

> <r_i_glide_evdw>
-48.6828384399414

> <r_i_glide_ecoul>
-13.4732837677002

> <r_i_glide_erotb>
0.757508156968854

> <r_i_glide_esite>
0

> <r_i_glide_emodel>
-84.7697202518247

> <r_i_glide_energy>
-62.1561222076416

> <r_i_glide_einternal>
13.6086492538452

> <i_i_glide_confnum>
4

> <i_i_glide_posenum>
12

> <r_i_glide_eff_state_penalty>
0

> <s_user_duplicate_titles>
CHEMBL280_lig900

> <s_m_subgroup_title>
dock_pv

> <s_m_subgroupid>
dock_pv

> <b_m_subgroup_collapsed>
1

$$$$
CHEMBL280_lig945
                    3D
 Schrodinger Suite 2021-1.
 49 51  0  0  1  0            999 V2000
   -5.9807   26.7533   55.3133 S   0  0  0  0  0  0
   -6.1232   28.3267   56.3732 C   0  0  1  0  0  0
   -5.1417   28.3730   57.5933 C   0  0  2  0  0  0
   -3.6365   28.1209   57.2127 C   0  0  0  0  0  0
   -6.8676   27.0518   53.7737 C   0  0  0  0  0  0
   -4.5776   26.5680   54.9107 O   0  0  0  0  0  0
   -6.7246   25.7112   56.0267 O   0  0  0  0  0  0
   -8.6748   27.5535   48.8549 C   0  0  0  0  0  0
   -8.6866   26.7901   50.0153 O   0  0  0  0  0  0
   -3.0553   27.0950   57.5871 O   0  0  0  0  0  0
   -3.0207   29.0577   56.4625 N   0  0  0  0  0  0
   -5.5135   27.3589   58.5094 O   0  0  0  0  0  0
   -6.0442   29.5543   55.4787 C   0  0  0  0  0  0
   -5.2631   29.7636   58.2784 C   0  0  0  0  0  0
   -9.6484   27.2501   47.8840 C   0  0  0  0  0  0
   -5.0442   30.8156   57.3333 O   0  0  0  0  0  0
   -6.1944   27.5933   52.6789 C   0  0  0  0  0  0
   -8.1674   26.5842   53.6132 C   0  0  0  0  0  0
   -8.0546   27.0299   51.2245 C   0  0  0  0  0  0
   -8.7388   26.5691   52.3429 C   0  0  0  0  0  0
   -6.7699   27.5455   51.4101 C   0  0  0  0  0  0
   -1.6750   28.8715   56.1084 O   0  0  0  0  0  0
   -6.0156   30.8690   56.2910 C   0  0  0  0  0  0
   -7.7769   28.5871   48.5641 C   0  0  0  0  0  0
  -10.6513   26.1364   48.0978 C   0  0  0  0  0  0
   -9.7105   27.9534   46.6773 C   0  0  0  0  0  0
   -7.8470   29.2971   47.3664 C   0  0  0  0  0  0
   -8.8073   28.9762   46.4166 C   0  0  0  0  0  0
   -7.1390   28.2303   56.7441 H   0  0  0  0  0  0
   -3.4047   29.9469   56.1624 H   0  0  0  0  0  0
   -4.8989   26.6235   58.3629 H   0  0  0  0  0  0
   -6.8700   29.5898   54.7672 H   0  0  0  0  0  0
   -5.1395   29.3701   54.9099 H   0  0  0  0  0  0
   -4.5487   29.8714   59.0956 H   0  0  0  0  0  0
   -6.2491   29.8789   58.7300 H   0  0  0  0  0  0
   -5.1708   27.9246   52.7773 H   0  0  0  0  0  0
   -8.7013   26.1640   54.4522 H   0  0  0  0  0  0
   -9.7076   26.1236   52.1915 H   0  0  0  0  0  0
   -6.1389   27.7698   50.5735 H   0  0  0  0  0  0
   -1.2040   29.4749   56.6920 H   0  0  0  0  0  0
   -6.9991   31.0760   56.7184 H   0  0  0  0  0  0
   -5.7822   31.7127   55.6414 H   0  0  0  0  0  0
   -7.0305   28.9152   49.2582 H   0  0  0  0  0  0
  -10.7387   25.5466   47.1855 H   0  0  0  0  0  0
  -10.3388   25.4420   48.8782 H   0  0  0  0  0  0
  -11.6252   26.5683   48.3334 H   0  0  0  0  0  0
  -10.4587   27.7076   45.9373 H   0  0  0  0  0  0
   -7.1432   30.0927   47.1684 H   0  0  0  0  0  0
   -8.8479   29.5188   45.4829 H   0  0  0  0  0  0
  1  2  1  0  0  0
  1  5  1  0  0  0
  1  6  2  0  0  0
  1  7  2  0  0  0
  2  3  1  0  0  0
  2 13  1  0  0  0
  2 29  1  0  0  0
  3  4  1  0  0  0
  3 12  1  0  0  0
  3 14  1  0  0  0
  4 10  2  0  0  0
  4 11  1  0  0  0
  5 17  2  0  0  0
  5 18  1  0  0  0
  8  9  1  0  0  0
  8 15  1  0  0  0
  8 24  2  0  0  0
  9 19  1  0  0  0
 11 22  1  0  0  0
 11 30  1  0  0  0
 12 31  1  0  0  0
 13 23  1  0  0  0
 13 32  1  0  0  0
 13 33  1  0  0  0
 14 16  1  0  0  0
 14 34  1  0  0  0
 14 35  1  0  0  0
 15 25  1  0  0  0
 15 26  2  0  0  0
 16 23  1  0  0  0
 17 21  1  0  0  0
 17 36  1  0  0  0
 18 20  2  0  0  0
 18 37  1  0  0  0
 19 20  1  0  0  0
 19 21  2  0  0  0
 20 38  1  0  0  0
 21 39  1  0  0  0
 22 40  1  0  0  0
 23 41  1  0  0  0
 23 42  1  0  0  0
 24 27  1  0  0  0
 24 43  1  0  0  0
 25 44  1  0  0  0
 25 45  1  0  0  0
 25 46  1  0  0  0
 26 28  1  0  0  0
 26 47  1  0  0  0
 27 28  2  0  0  0
 27 48  1  0  0  0
 28 49  1  0  0  0
M  END
> <s_m_entry_id>
64138

> <s_m_entry_name>
dock_pv.88

> <s_m_Source_Path>
/home/csk/Desktop/cluster/DUD-E-result/mmp13

> <s_m_Source_File>
dock_pv.maegz

> <i_m_Source_File_Index>
88

> <chembl_id>
CHEMBL446694

> <chembl_pref_name>
None

> <i_lp_mmshare_version>
53161

> <i_f3d_flags>
0

> <r_lp_tautomer_probability>
1

> <s_lp_Force_Field>
OPLS_2005

> <r_lp_Energy>
29.766965

> <b_lp_Chiralities_Consistent>
1

> <s_lp_Variant>
CHEMBL280_lig945-1

> <s_i_glide_gridfile>
glide-grid_830c

> <i_i_glide_lignum>
1592

> <i_i_glide_rotatable_bonds>
8

> <r_i_docking_score>
-7.71767633027507

> <r_i_glide_ligand_efficiency>
-0.275631297509824

> <r_i_glide_ligand_efficiency_sa>
-0.836978957392449

> <r_i_glide_ligand_efficiency_ln>
-1.78146629785096

> <r_i_glide_gscore>
-7.71767633027507

> <r_i_glide_lipo>
-4.1284880435002

> <r_i_glide_hbond>
0

> <r_i_glide_metal>
0

> <r_i_glide_rewards>
-0.631100703304477

> <r_i_glide_evdw>
-44.1010246276855

> <r_i_glide_ecoul>
-8.52052879333496

> <r_i_glide_erotb>
0.711003566090222

> <r_i_glide_esite>
-0.185960599176093

> <r_i_glide_emodel>
-60.4418327089508

> <r_i_glide_energy>
-52.6215534210205

> <r_i_glide_einternal>
2.63882684707642

> <i_i_glide_confnum>
122

> <i_i_glide_posenum>
5

> <r_i_glide_eff_state_penalty>
0

> <s_user_duplicate_titles>
CHEMBL280_lig945,308450

> <s_m_subgroup_title>
dock_pv

> <s_m_subgroupid>
dock_pv

> <b_m_subgroup_collapsed>
1

$$$$
CHEMBL280_lig234
                    3D
 Schrodinger Suite 2021-1.
 55 57  0  0  1  0            999 V2000
   -7.4871   27.4390   53.8435 S   0  0  0  0  0  0
   -5.7179   26.8624   54.0413 C   0  0  0  0  0  0
   -5.0690   27.1160   55.4281 C   0  0  1  0  0  0
   -3.5390   26.9703   55.3100 C   0  0  0  0  0  0
   -5.3964   28.4406   55.9746 N   0  0  0  0  0  0
   -5.5599   28.6492   57.3450 C   0  0  0  0  0  0
   -7.8687   27.1260   52.1156 C   0  0  0  0  0  0
   -8.3390   26.5699   54.6540 O   0  0  0  0  0  0
   -7.5151   28.8921   54.0381 O   0  0  0  0  0  0
   -2.9415   27.6934   54.5101 O   0  0  0  0  0  0
   -5.5388   27.7695   58.2066 O   0  0  0  0  0  0
   -9.5390   27.1447   47.8815 S   0  0  0  0  0  0
   -2.9336   25.9694   55.9657 N   0  0  0  0  0  0
   -5.7552   29.9591   57.6845 O   0  0  0  0  0  0
   -8.9455   26.3097   51.7651 C   0  0  0  0  0  0
   -7.1390   27.7698   51.1160 C   0  0  0  0  0  0
   -8.7521   27.0221   49.4774 C   0  0  0  0  0  0
   -9.0280   28.6864   47.1776 C   0  0  0  0  0  0
   -5.7414   31.0842   56.7905 C   0  0  0  0  0  0
   -7.5532   27.6758   49.7894 C   0  0  0  0  0  0
   -9.4055   26.2827   50.4558 C   0  0  0  0  0  0
   -1.5631   25.7700   55.7163 O   0  0  0  0  0  0
   -7.0425   31.8835   56.8345 C   0  0  0  0  0  0
   -8.7390   29.7701   47.9994 C   0  0  0  0  0  0
   -8.9814   28.8324   45.7903 C   0  0  0  0  0  0
   -8.1461   31.4700   57.5898 C   0  0  0  0  0  0
   -7.1196   33.0670   56.0964 C   0  0  0  0  0  0
   -8.6457   30.0693   45.2413 C   0  0  0  0  0  0
   -9.3195   32.2186   57.5918 C   0  0  0  0  0  0
   -8.2879   33.8260   56.1094 C   0  0  0  0  0  0
   -8.3390   30.9819   47.4626 C   0  0  0  0  0  0
   -8.3346   31.1328   46.0891 C   0  0  0  0  0  0
   -9.3855   33.3947   56.8503 C   0  0  0  0  0  0
   -5.1717   27.3679   53.2445 H   0  0  0  0  0  0
   -5.7199   25.7994   53.8076 H   0  0  0  0  0  0
   -5.4702   26.3428   56.0915 H   0  0  0  0  0  0
   -5.5404   29.2063   55.3313 H   0  0  0  0  0  0
   -3.3651   25.2545   56.5515 H   0  0  0  0  0  0
   -9.5038   25.7703   52.5099 H   0  0  0  0  0  0
   -6.2871   28.3867   51.3601 H   0  0  0  0  0  0
   -5.5393   30.8219   55.7523 H   0  0  0  0  0  0
   -4.9307   31.7406   57.1079 H   0  0  0  0  0  0
   -6.9822   28.1913   49.0307 H   0  0  0  0  0  0
  -10.3055   25.7364   50.2159 H   0  0  0  0  0  0
   -1.1379   26.1250   56.5094 H   0  0  0  0  0  0
   -8.8638   29.6974   49.0633 H   0  0  0  0  0  0
   -9.2162   28.0018   45.1412 H   0  0  0  0  0  0
   -8.1036   30.5702   58.1811 H   0  0  0  0  0  0
   -6.2741   33.4022   55.5125 H   0  0  0  0  0  0
   -8.6179   30.2017   44.1692 H   0  0  0  0  0  0
  -10.1731   31.8884   58.1669 H   0  0  0  0  0  0
   -8.3468   34.7426   55.5407 H   0  0  0  0  0  0
   -8.1208   31.8183   48.1101 H   0  0  0  0  0  0
   -8.0937   32.1084   45.7100 H   0  0  0  0  0  0
  -10.2947   33.9784   56.8535 H   0  0  0  0  0  0
  1  2  1  0  0  0
  1  7  1  0  0  0
  1  8  2  0  0  0
  1  9  2  0  0  0
  2  3  1  0  0  0
  2 34  1  0  0  0
  2 35  1  0  0  0
  3  4  1  0  0  0
  3  5  1  0  0  0
  3 36  1  0  0  0
  4 10  2  0  0  0
  4 13  1  0  0  0
  5  6  1  0  0  0
  5 37  1  0  0  0
  6 11  2  0  0  0
  6 14  1  0  0  0
  7 15  1  0  0  0
  7 16  2  0  0  0
 12 17  1  0  0  0
 12 18  1  0  0  0
 13 22  1  0  0  0
 13 38  1  0  0  0
 14 19  1  0  0  0
 15 21  2  0  0  0
 15 39  1  0  0  0
 16 20  1  0  0  0
 16 40  1  0  0  0
 17 20  2  0  0  0
 17 21  1  0  0  0
 18 24  1  0  0  0
 18 25  2  0  0  0
 19 23  1  0  0  0
 19 41  1  0  0  0
 19 42  1  0  0  0
 20 43  1  0  0  0
 21 44  1  0  0  0
 22 45  1  0  0  0
 23 26  1  0  0  0
 23 27  2  0  0  0
 24 31  2  0  0  0
 24 46  1  0  0  0
 25 28  1  0  0  0
 25 47  1  0  0  0
 26 29  2  0  0  0
 26 48  1  0  0  0
 27 30  1  0  0  0
 27 49  1  0  0  0
 28 32  2  0  0  0
 28 50  1  0  0  0
 29 33  1  0  0  0
 29 51  1  0  0  0
 30 33  2  0  0  0
 30 52  1  0  0  0
 31 32  1  0  0  0
 31 53  1  0  0  0
 32 54  1  0  0  0
 33 55  1  0  0  0
M  END
> <s_m_entry_id>
64139

> <s_m_entry_name>
dock_pv.89

> <s_m_Source_Path>
/home/csk/Desktop/cluster/DUD-E-result/mmp13

> <s_m_Source_File>
dock_pv.maegz

> <i_m_Source_File_Index>
89

> <chembl_id>
CHEMBL91608

> <chembl_pref_name>
None

> <i_lp_mmshare_version>
53161

> <i_f3d_flags>
0

> <r_lp_tautomer_probability>
1

> <s_lp_Force_Field>
OPLS_2005

> <r_lp_Energy>
18.306073

> <b_lp_Chiralities_Consistent>
1

> <s_lp_Variant>
CHEMBL280_lig234-2

> <s_i_glide_gridfile>
glide-grid_830c

> <i_i_glide_lignum>
330

> <i_i_glide_rotatable_bonds>
13

> <r_i_docking_score>
-7.71093908982532

> <r_i_glide_ligand_efficiency>
-0.233664820903798

> <r_i_glide_ligand_efficiency_sa>
-0.749487933887727

> <r_i_glide_ligand_efficiency_ln>
-1.71487292847129

> <r_i_glide_gscore>
-7.71093908982532

> <r_i_glide_lipo>
-3.22935672052426

> <r_i_glide_hbond>
-0.354496546404213

> <r_i_glide_metal>
0

> <r_i_glide_rewards>
0.568669887577043

> <r_i_glide_evdw>
-53.0738372802734

> <r_i_glide_ecoul>
-18.5756969451904

> <r_i_glide_erotb>
0.944290695318343

> <r_i_glide_esite>
-0.2

> <r_i_glide_emodel>
-95.7482484440722

> <r_i_glide_energy>
-71.6495342254639

> <r_i_glide_einternal>
12.7452440261841

> <i_i_glide_confnum>
21

> <i_i_glide_posenum>
98

> <r_i_glide_eff_state_penalty>
0

> <s_user_duplicate_titles>
CHEMBL280_lig234

> <s_m_subgroup_title>
dock_pv

> <s_m_subgroupid>
dock_pv

> <b_m_subgroup_collapsed>
1

$$$$
CHEMBL280_lig1924
                    3D
 Schrodinger Suite 2021-1.
 41 43  0  0  1  0            999 V2000
   -5.5389   27.3700   58.5565 O   0  0  0  0  0  0
   -5.5661   28.5650   57.7100 S   0  0  0  0  0  0
   -6.3390   29.7420   58.1087 O   0  0  0  0  0  0
   -2.3164   30.9940   57.6413 C   0  0  0  0  0  0
   -3.5793   30.4546   57.8642 C   0  0  0  0  0  0
   -3.8785   29.1404   57.4765 C   0  0  0  0  0  0
   -2.8843   28.3425   56.8829 C   0  0  0  0  0  0
   -1.6234   28.9180   56.6403 C   0  0  0  0  0  0
   -1.3387   30.2269   57.0198 C   0  0  0  0  0  0
   -6.1655   28.0643   56.1001 C   0  0  0  0  0  0
   -6.3346   29.0550   55.1465 C   0  0  0  0  0  0
   -6.7542   28.7132   53.8735 C   0  0  0  0  0  0
   -7.0690   27.3978   53.5360 C   0  0  0  0  0  0
   -6.9005   26.4009   54.5055 C   0  0  0  0  0  0
   -6.4472   26.7289   55.7850 C   0  0  0  0  0  0
   -7.6329   27.1186   52.1856 C   0  0  0  0  0  0
   -8.7390   26.2827   52.0401 C   0  0  0  0  0  0
   -9.3861   26.1677   50.8125 C   0  0  0  0  0  0
   -8.8992   26.8473   49.7032 C   0  0  0  0  0  0
   -7.7623   27.6373   49.8133 C   0  0  0  0  0  0
   -7.1392   27.7700   51.0506 C   0  0  0  0  0  0
   -3.1836   26.8993   56.4526 C   0  0  0  0  0  0
   -2.0104   25.9502   56.6152 C   0  0  0  0  0  0
   -1.9390   25.3700   57.8417 O   0  0  0  0  0  0
   -1.2092   25.7700   55.7100 O   0  0  0  0  0  0
   -9.5441   26.7505   48.5195 F   0  0  0  0  0  0
   -2.1017   32.0101   57.9392 H   0  0  0  0  0  0
   -4.3277   31.0786   58.3311 H   0  0  0  0  0  0
   -0.8391   28.3561   56.1602 H   0  0  0  0  0  0
   -0.3604   30.6458   56.8336 H   0  0  0  0  0  0
   -6.1079   30.0871   55.3770 H   0  0  0  0  0  0
   -6.8508   29.4962   53.1458 H   0  0  0  0  0  0
   -7.1231   25.3700   54.2716 H   0  0  0  0  0  0
   -6.3192   25.9455   56.5195 H   0  0  0  0  0  0
   -9.1390   25.7702   52.8993 H   0  0  0  0  0  0
  -10.2661   25.5501   50.7189 H   0  0  0  0  0  0
   -7.3814   28.1710   48.9543 H   0  0  0  0  0  0
   -6.3046   28.4431   51.1356 H   0  0  0  0  0  0
   -4.0046   26.4525   57.0017 H   0  0  0  0  0  0
   -3.5037   26.9108   55.4119 H   0  0  0  0  0  0
   -2.7835   25.4017   58.3180 H   0  0  0  0  0  0
  1  2  2  0  0  0
  2  3  2  0  0  0
  2  6  1  0  0  0
  2 10  1  0  0  0
  4  5  2  0  0  0
  4  9  1  0  0  0
  4 27  1  0  0  0
  5  6  1  0  0  0
  5 28  1  0  0  0
  6  7  2  0  0  0
  7  8  1  0  0  0
  7 22  1  0  0  0
  8  9  2  0  0  0
  8 29  1  0  0  0
  9 30  1  0  0  0
 10 11  2  0  0  0
 10 15  1  0  0  0
 11 12  1  0  0  0
 11 31  1  0  0  0
 12 13  2  0  0  0
 12 32  1  0  0  0
 13 14  1  0  0  0
 13 16  1  0  0  0
 14 15  2  0  0  0
 14 33  1  0  0  0
 15 34  1  0  0  0
 16 17  2  0  0  0
 16 21  1  0  0  0
 17 18  1  0  0  0
 17 35  1  0  0  0
 18 19  2  0  0  0
 18 36  1  0  0  0
 19 20  1  0  0  0
 19 26  1  0  0  0
 20 21  2  0  0  0
 20 37  1  0  0  0
 21 38  1  0  0  0
 22 23  1  0  0  0
 22 39  1  0  0  0
 22 40  1  0  0  0
 23 24  1  0  0  0
 23 25  2  0  0  0
 24 41  1  0  0  0
M  END
> <s_m_entry_id>
64140

> <s_m_entry_name>
dock_pv.90

> <s_m_Source_Path>
/home/csk/Desktop/cluster/DUD-E-result/mmp13

> <s_m_Source_File>
dock_pv.maegz

> <i_m_Source_File_Index>
90

> <chembl_id>
CHEMBL2326364

> <chembl_pref_name>
None

> <i_lp_mmshare_version>
53161

> <i_f3d_flags>
0

> <r_lp_tautomer_probability>
1

> <s_lp_Force_Field>
OPLS_2005

> <r_lp_Energy>
23.993599

> <b_lp_Chiralities_Consistent>
1

> <s_lp_Variant>
CHEMBL280_lig1924-1

> <s_i_glide_gridfile>
glide-grid_830c

> <i_i_glide_lignum>
2690

> <i_i_glide_rotatable_bonds>
6

> <r_i_docking_score>
-7.70417020053278

> <r_i_glide_ligand_efficiency>
-0.29631423848203

> <r_i_glide_ligand_efficiency_sa>
-0.877829765562787

> <r_i_glide_ligand_efficiency_ln>
-1.80929909215081

> <r_i_glide_gscore>
-7.70417020053278

> <r_i_glide_lipo>
-3.15650648882665

> <r_i_glide_hbond>
-0.0717607203904217

> <r_i_glide_metal>
0

> <r_i_glide_rewards>
-0.883669752272726

> <r_i_glide_evdw>
-39.5897598266602

> <r_i_glide_ecoul>
-14.1606273651123

> <r_i_glide_erotb>
0.703085369105649

> <r_i_glide_esite>
-0.191736512048781

> <r_i_glide_emodel>
-76.5124605963078

> <r_i_glide_energy>
-53.7503871917725

> <r_i_glide_einternal>
6.35042953491211

> <i_i_glide_confnum>
77

> <i_i_glide_posenum>
158

> <r_i_glide_eff_state_penalty>
0

> <s_user_duplicate_titles>
CHEMBL280_lig1924

> <s_m_subgroup_title>
dock_pv

> <s_m_subgroupid>
dock_pv

> <b_m_subgroup_collapsed>
1

$$$$
CHEMBL280_lig1933
                    3D
 Schrodinger Suite 2021-1.
 39 40  0  0  1  0            999 V2000
   -7.5504   26.6553   51.6953 O   0  0  0  0  0  0
   -7.0701   25.9979   53.9456 C   0  0  0  0  0  0
   -5.9390   26.9700   58.1100 O   0  0  0  0  0  0
   -6.2378   28.5700   54.5999 C   0  0  0  0  0  0
   -1.7103   26.5326   56.8788 C   0  0  0  0  0  0
   -3.1309   26.6281   57.4171 C   0  0  0  0  0  0
   -3.7853   27.8450   56.9825 N   0  0  3  0  0  0
   -5.8148   29.4136   57.3910 O   0  0  0  0  0  0
   -7.0982   26.9938   52.9653 C   0  0  0  0  0  0
   -7.4617   27.6576   50.6766 C   0  0  0  0  0  0
   -5.5182   27.9971   57.1580 S   0  0  0  0  0  0
   -6.1763   27.5655   55.5531 C   0  0  0  0  0  0
   -6.5949   26.2703   55.2333 C   0  0  0  0  0  0
   -6.6608   28.2807   53.3152 C   0  0  0  0  0  0
   -0.7240   26.8307   57.7436 N   0  0  0  0  0  0
    0.6004   26.8220   57.2842 O   0  0  0  0  0  0
   -1.5390   26.1700   55.7100 O   0  0  0  0  0  0
   -8.3395   27.4749   49.4437 C   0  0  0  0  0  0
   -9.5671   26.7894   49.4395 C   0  0  0  0  0  0
  -10.3390   26.7674   48.2758 C   0  0  0  0  0  0
   -9.9322   27.4544   47.1354 C   0  0  0  0  0  0
   -8.7390   28.1700   47.1471 C   0  0  0  0  0  0
   -7.9440   28.1700   48.2912 C   0  0  0  0  0  0
  -10.2077   26.0204   50.8489 Cl  0  0  0  0  0  0
  -10.7023   27.4343   46.0244 F   0  0  0  0  0  0
   -7.3877   24.9967   53.6948 H   0  0  0  0  0  0
   -5.9390   29.5790   54.8446 H   0  0  0  0  0  0
   -3.6829   25.7665   57.0457 H   0  0  0  0  0  0
   -3.1393   26.5700   58.5067 H   0  0  0  0  0  0
   -3.2949   28.5002   56.3688 H   0  0  0  0  0  0
   -7.8311   28.5971   51.0562 H   0  0  0  0  0  0
   -6.4148   27.7700   50.3905 H   0  0  0  0  0  0
   -6.5409   25.4765   55.9666 H   0  0  0  0  0  0
   -6.6244   29.0951   52.6143 H   0  0  0  0  0  0
   -0.8096   27.1095   58.7120 H   0  0  0  0  0  0
    0.9735   26.0048   57.6288 H   0  0  0  0  0  0
  -11.2820   26.2450   48.2569 H   0  0  0  0  0  0
   -8.4211   28.7109   46.2671 H   0  0  0  0  0  0
   -7.0204   28.7333   48.2843 H   0  0  0  0  0  0
  1 10  1  0  0  0
  1  9  1  0  0  0
  2  9  2  0  0  0
  2 13  1  0  0  0
  2 26  1  0  0  0
  3 11  2  0  0  0
  4 14  2  0  0  0
  4 12  1  0  0  0
  4 27  1  0  0  0
  5  6  1  0  0  0
  5 15  1  0  0  0
  5 17  2  0  0  0
  6  7  1  0  0  0
  6 28  1  0  0  0
  6 29  1  0  0  0
  7 11  1  0  0  0
  7 30  1  0  0  0
  8 11  2  0  0  0
  9 14  1  0  0  0
 10 18  1  0  0  0
 10 31  1  0  0  0
 10 32  1  0  0  0
 11 12  1  0  0  0
 12 13  2  0  0  0
 13 33  1  0  0  0
 14 34  1  0  0  0
 15 16  1  0  0  0
 15 35  1  0  0  0
 16 36  1  0  0  0
 18 19  2  0  0  0
 18 23  1  0  0  0
 19 20  1  0  0  0
 19 24  1  0  0  0
 20 21  2  0  0  0
 20 37  1  0  0  0
 21 22  1  0  0  0
 21 25  1  0  0  0
 22 23  2  0  0  0
 22 38  1  0  0  0
 23 39  1  0  0  0
M  END
> <s_m_entry_id>
64141

> <s_m_entry_name>
dock_pv.91

> <s_m_Source_Path>
/home/csk/Desktop/cluster/DUD-E-result/mmp13

> <s_m_Source_File>
dock_pv.maegz

> <i_m_Source_File_Index>
91

> <chembl_id>
CHEMBL2337698

> <chembl_pref_name>
None

> <i_lp_mmshare_version>
53161

> <i_f3d_flags>
0

> <r_lp_tautomer_probability>
1

> <s_lp_Force_Field>
OPLS_2005

> <r_lp_Energy>
25.487068

> <b_lp_Chiralities_Consistent>
1

> <s_lp_Variant>
CHEMBL280_lig1933-1

> <s_i_glide_gridfile>
glide-grid_830c

> <i_i_glide_lignum>
2702

> <i_i_glide_rotatable_bonds>
9

> <r_i_docking_score>
-7.69732897979107

> <r_i_glide_ligand_efficiency>
-0.307893159191643

> <r_i_glide_ligand_efficiency_sa>
-0.900285057984793

> <r_i_glide_ligand_efficiency_ln>
-1.82449763854605

> <r_i_glide_gscore>
-7.69732897979107

> <r_i_glide_lipo>
-3.51086137843185

> <r_i_glide_hbond>
0

> <r_i_glide_metal>
0

> <r_i_glide_rewards>
-0.755124971190651

> <r_i_glide_evdw>
-46.4176750183105

> <r_i_glide_ecoul>
-13.3138408660889

> <r_i_glide_erotb>
1.03133628235743

> <r_i_glide_esite>
-0.144719031697141

> <r_i_glide_emodel>
-84.4526109157575

> <r_i_glide_energy>
-59.7315158843994

> <r_i_glide_einternal>
15.7591123580933

> <i_i_glide_confnum>
93

> <i_i_glide_posenum>
128

> <r_i_glide_eff_state_penalty>
0

> <s_user_duplicate_titles>
CHEMBL280_lig1933

> <s_m_subgroup_title>
dock_pv

> <s_m_subgroupid>
dock_pv

> <b_m_subgroup_collapsed>
1

$$$$
CHEMBL280_lig415
                    3D
 Schrodinger Suite 2021-1.
 37 39  0  0  1  0            999 V2000
   -1.9544   27.3647   56.8079 N   0  0  0  0  0  0
   -2.0741   27.1965   58.1456 C   0  0  0  0  0  0
   -1.1329   26.8448   58.8444 O   0  0  0  0  0  0
   -3.3250   27.3708   58.6322 N   0  0  0  0  0  0
   -4.4637   27.6934   57.9787 C   0  0  0  0  0  0
   -5.5564   27.5711   58.5114 O   0  0  0  0  0  0
   -4.2236   28.2240   56.5248 C   0  0  0  0  0  0
   -2.9155   27.6254   55.8918 C   0  0  0  0  0  0
   -2.7391   27.3730   54.7004 O   0  0  0  0  0  0
   -4.0294   29.7647   56.6560 C   0  0  0  0  0  0
   -5.4266   27.8037   55.6178 C   0  0  0  0  0  0
   -5.7448   26.4504   55.4971 C   0  0  0  0  0  0
   -6.7003   25.9969   54.5957 C   0  0  0  0  0  0
   -7.3906   26.8989   53.7979 C   0  0  0  0  0  0
   -7.1442   28.2658   53.9532 C   0  0  0  0  0  0
   -6.1717   28.7128   54.8515 C   0  0  0  0  0  0
   -8.3384   26.3979   52.9282 O   0  0  0  0  0  0
   -8.3988   26.7405   51.5893 C   0  0  0  0  0  0
   -7.3959   27.4452   50.9112 C   0  0  0  0  0  0
   -7.5561   27.7716   49.5678 C   0  0  0  0  0  0
   -8.7061   27.3822   48.8887 C   0  0  0  0  0  0
   -9.6958   26.6549   49.5405 C   0  0  0  0  0  0
   -9.5338   26.3307   50.8838 C   0  0  0  0  0  0
   -1.0505   27.0991   56.4524 H   0  0  0  0  0  0
   -3.4454   27.0911   59.5926 H   0  0  0  0  0  0
   -4.9409   30.2597   56.9927 H   0  0  0  0  0  0
   -3.2456   30.0358   57.3676 H   0  0  0  0  0  0
   -3.7448   30.2209   55.7105 H   0  0  0  0  0  0
   -5.1995   25.7501   56.1012 H   0  0  0  0  0  0
   -6.8784   24.9377   54.4988 H   0  0  0  0  0  0
   -7.6922   28.9740   53.3545 H   0  0  0  0  0  0
   -5.9788   29.7718   54.9128 H   0  0  0  0  0  0
   -6.4865   27.7476   51.4086 H   0  0  0  0  0  0
   -6.7822   28.3214   49.0509 H   0  0  0  0  0  0
   -8.8229   27.6382   47.8456 H   0  0  0  0  0  0
  -10.5830   26.3460   49.0069 H   0  0  0  0  0  0
  -10.3049   25.7698   51.3907 H   0  0  0  0  0  0
  1  2  1  0  0  0
  1  8  1  0  0  0
  1 24  1  0  0  0
  2  3  2  0  0  0
  2  4  1  0  0  0
  4  5  1  0  0  0
  4 25  1  0  0  0
  5  6  2  0  0  0
  5  7  1  0  0  0
  7  8  1  0  0  0
  7 10  1  0  0  0
  7 11  1  0  0  0
  8  9  2  0  0  0
 10 26  1  0  0  0
 10 27  1  0  0  0
 10 28  1  0  0  0
 11 12  2  0  0  0
 11 16  1  0  0  0
 12 13  1  0  0  0
 12 29  1  0  0  0
 13 14  2  0  0  0
 13 30  1  0  0  0
 14 15  1  0  0  0
 14 17  1  0  0  0
 15 16  2  0  0  0
 15 31  1  0  0  0
 16 32  1  0  0  0
 17 18  1  0  0  0
 18 19  2  0  0  0
 18 23  1  0  0  0
 19 20  1  0  0  0
 19 33  1  0  0  0
 20 21  2  0  0  0
 20 34  1  0  0  0
 21 22  1  0  0  0
 21 35  1  0  0  0
 22 23  2  0  0  0
 22 36  1  0  0  0
 23 37  1  0  0  0
M  END
> <s_m_entry_id>
64142

> <s_m_entry_name>
dock_pv.92

> <s_m_Source_Path>
/home/csk/Desktop/cluster/DUD-E-result/mmp13

> <s_m_Source_File>
dock_pv.maegz

> <i_m_Source_File_Index>
92

> <chembl_id>
CHEMBL176467

> <chembl_pref_name>
None

> <i_lp_mmshare_version>
53161

> <i_f3d_flags>
0

> <r_lp_tautomer_probability>
0.999999998612168

> <s_lp_Force_Field>
OPLS_2005

> <r_lp_Energy>
24.143908

> <b_lp_Chiralities_Consistent>
1

> <s_lp_Variant>
CHEMBL280_lig415-1

> <s_i_glide_gridfile>
glide-grid_830c

> <i_i_glide_lignum>
596

> <i_i_glide_rotatable_bonds>
3

> <r_i_docking_score>
-7.69143932052095

> <r_i_glide_ligand_efficiency>
-0.334410405240041

> <r_i_glide_ligand_efficiency_sa>
-0.951018708186963

> <r_i_glide_ligand_efficiency_ln>
-1.85985976981783

> <r_i_glide_gscore>
-7.69143932052095

> <r_i_glide_lipo>
-2.66682024340799

> <r_i_glide_hbond>
-0.373296722540395

> <r_i_glide_metal>
0

> <r_i_glide_rewards>
-1.48668083363305

> <r_i_glide_evdw>
-39.2371101379395

> <r_i_glide_ecoul>
-10.7706613540649

> <r_i_glide_erotb>
0.577290042837102

> <r_i_glide_esite>
-0.1644768537699

> <r_i_glide_emodel>
-70.4127279382583

> <r_i_glide_energy>
-50.0077714920044

> <r_i_glide_einternal>
0.985308051109314

> <i_i_glide_confnum>
5

> <i_i_glide_posenum>
198

> <r_i_glide_eff_state_penalty>
0

> <s_user_duplicate_titles>
CHEMBL280_lig415,291904

> <s_m_subgroup_title>
dock_pv

> <s_m_subgroupid>
dock_pv

> <b_m_subgroup_collapsed>
1

$$$$
CHEMBL280_lig58
                    3D
 Schrodinger Suite 2021-1.
 46 48  0  0  1  0            999 V2000
   -3.3157   28.8180   56.9490 C   0  0  0  0  0  0
   -3.1821   30.1743   56.1885 C   0  0  0  0  0  0
   -2.9518   31.4329   57.0435 C   0  0  0  0  0  0
   -1.8618   31.2237   57.9831 N   0  0  2  0  0  0
   -2.3560   28.8101   58.1842 C   0  0  0  0  0  0
   -5.1546   28.5471   57.4801 S   0  0  0  0  0  0
   -2.9343   27.6468   55.9975 C   0  0  0  0  0  0
   -2.2326   30.1654   58.9098 C   0  0  0  0  0  0
   -5.9975   27.8799   56.0246 C   0  0  0  0  0  0
   -6.1029   26.4982   55.8656 C   0  0  0  0  0  0
   -6.7029   25.9744   54.7252 C   0  0  0  0  0  0
   -7.2392   26.8057   53.7464 C   0  0  0  0  0  0
   -7.1376   28.1933   53.9103 C   0  0  0  0  0  0
   -6.5157   28.7286   55.0418 C   0  0  0  0  0  0
   -5.2026   27.5004   58.5112 O   0  0  0  0  0  0
   -5.7657   29.8530   57.7496 O   0  0  0  0  0  0
   -7.9061   26.1692   52.7145 O   0  0  0  0  0  0
   -8.2057   26.7336   51.4914 C   0  0  0  0  0  0
   -7.3044   27.5239   50.7718 C   0  0  0  0  0  0
   -7.6384   27.9721   49.4927 C   0  0  0  0  0  0
   -8.8723   27.6443   48.9383 C   0  0  0  0  0  0
   -9.7720   26.8538   49.6443 C   0  0  0  0  0  0
   -9.4287   26.3924   50.9105 C   0  0  0  0  0  0
   -9.2871   28.2121   47.3629 Cl  0  0  0  0  0  0
   -2.7255   26.4476   56.5639 N   0  0  0  0  0  0
   -2.8919   27.7901   54.7690 O   0  0  0  0  0  0
   -2.4836   25.3694   55.7127 O   0  0  0  0  0  0
   -4.1365   30.3498   55.7100 H   0  0  0  0  0  0
   -2.4406   30.1699   55.3879 H   0  0  0  0  0  0
   -3.8642   31.7277   57.5668 H   0  0  0  0  0  0
   -2.6764   32.2656   56.3946 H   0  0  0  0  0  0
   -1.7045   32.0790   58.5001 H   0  0  0  0  0  0
   -1.3432   28.4960   57.9199 H   0  0  0  0  0  0
   -2.6908   28.0688   58.9104 H   0  0  0  0  0  0
   -3.1793   30.4240   59.3903 H   0  0  0  0  0  0
   -1.4787   30.1069   59.6958 H   0  0  0  0  0  0
   -5.7055   25.8187   56.6078 H   0  0  0  0  0  0
   -6.7386   24.9050   54.5914 H   0  0  0  0  0  0
   -7.5422   28.8637   53.1731 H   0  0  0  0  0  0
   -6.4414   29.8000   55.1553 H   0  0  0  0  0  0
   -6.3397   27.7704   51.1895 H   0  0  0  0  0  0
   -6.9466   28.5739   48.9220 H   0  0  0  0  0  0
  -10.7245   26.5907   49.2078 H   0  0  0  0  0  0
  -10.1201   25.7653   51.4478 H   0  0  0  0  0  0
   -2.8305   26.1862   57.5384 H   0  0  0  0  0  0
   -3.2668   24.7951   55.8401 H   0  0  0  0  0  0
  1  6  1  0  0  0
  1  7  1  0  0  0
  1  5  1  0  0  0
  1  2  1  0  0  0
  2  3  1  0  0  0
  2 28  1  0  0  0
  2 29  1  0  0  0
  3  4  1  0  0  0
  3 30  1  0  0  0
  3 31  1  0  0  0
  4  8  1  0  0  0
  4 32  1  0  0  0
  5  8  1  0  0  0
  5 33  1  0  0  0
  5 34  1  0  0  0
  6 15  2  0  0  0
  6 16  2  0  0  0
  6  9  1  0  0  0
  7 25  1  0  0  0
  7 26  2  0  0  0
  8 35  1  0  0  0
  8 36  1  0  0  0
  9 14  1  0  0  0
  9 10  2  0  0  0
 10 11  1  0  0  0
 10 37  1  0  0  0
 11 12  2  0  0  0
 11 38  1  0  0  0
 12 17  1  0  0  0
 12 13  1  0  0  0
 13 14  2  0  0  0
 13 39  1  0  0  0
 14 40  1  0  0  0
 17 18  1  0  0  0
 18 19  2  0  0  0
 18 23  1  0  0  0
 19 20  1  0  0  0
 19 41  1  0  0  0
 20 21  2  0  0  0
 20 42  1  0  0  0
 21 22  1  0  0  0
 21 24  1  0  0  0
 22 23  2  0  0  0
 22 43  1  0  0  0
 23 44  1  0  0  0
 25 27  1  0  0  0
 25 45  1  0  0  0
 27 46  1  0  0  0
M  END
> <s_m_entry_id>
64143

> <s_m_entry_name>
dock_pv.93

> <s_m_Source_Path>
/home/csk/Desktop/cluster/DUD-E-result/mmp13

> <s_m_Source_File>
dock_pv.maegz

> <i_m_Source_File_Index>
93

> <chembl_id>
CHEMBL80732

> <chembl_pref_name>
None

> <i_lp_mmshare_version>
53161

> <i_f3d_flags>
0

> <r_lp_tautomer_probability>
1

> <s_lp_Force_Field>
OPLS_2005

> <r_lp_Energy>
26.514596

> <b_lp_Chiralities_Consistent>
1

> <s_lp_Variant>
CHEMBL280_lig58-1

> <s_i_glide_gridfile>
glide-grid_830c

> <i_i_glide_lignum>
79

> <i_i_glide_rotatable_bonds>
7

> <r_i_docking_score>
-7.68513148448736

> <r_i_glide_ligand_efficiency>
-0.284634499425458

> <r_i_glide_ligand_efficiency_sa>
-0.853903497338265

> <r_i_glide_ligand_efficiency_ln>
-1.78897191029405

> <r_i_glide_gscore>
-7.68513148448736

> <r_i_glide_lipo>
-3.03268113865163

> <r_i_glide_hbond>
0

> <r_i_glide_metal>
0

> <r_i_glide_rewards>
-0.664044886868908

> <r_i_glide_evdw>
-45.7230339050293

> <r_i_glide_ecoul>
-14.537917137146

> <r_i_glide_erotb>
0.70032175929417

> <r_i_glide_esite>
-0.221887952437629

> <r_i_glide_emodel>
-88.4472535880394

> <r_i_glide_energy>
-60.2609510421753

> <r_i_glide_einternal>
6.87082576751709

> <i_i_glide_confnum>
177

> <i_i_glide_posenum>
88

> <r_i_glide_eff_state_penalty>
0

> <s_user_duplicate_titles>
CHEMBL280_lig58,125945

> <s_m_subgroup_title>
dock_pv

> <s_m_subgroupid>
dock_pv

> <b_m_subgroup_collapsed>
1

$$$$
CHEMBL280_lig1500
                    3D
 Schrodinger Suite 2021-1.
 41 43  0  0  1  0            999 V2000
   -2.8891   28.3411   56.8758 C   0  0  0  0  0  0
   -1.6295   28.9161   56.6252 C   0  0  0  0  0  0
   -1.3437   30.2269   56.9977 C   0  0  0  0  0  0
   -2.3190   30.9962   57.6202 C   0  0  0  0  0  0
   -3.5808   30.4580   57.8500 C   0  0  0  0  0  0
   -3.8810   29.1420   57.4694 C   0  0  0  0  0  0
   -5.5675   28.5673   57.7104 S   0  0  0  0  0  0
   -6.1740   28.0725   56.1032 C   0  0  0  0  0  0
   -5.5385   27.3699   58.5544 O   0  0  0  0  0  0
   -6.3390   29.7447   58.1098 O   0  0  0  0  0  0
   -6.4649   26.7393   55.7912 C   0  0  0  0  0  0
   -6.9233   26.4142   54.5138 C   0  0  0  0  0  0
   -7.0857   27.4107   53.5426 C   0  0  0  0  0  0
   -6.7579   28.7239   53.8758 C   0  0  0  0  0  0
   -6.3382   29.0642   55.1492 C   0  0  0  0  0  0
   -3.1898   26.8958   56.4533 C   0  0  0  0  0  0
   -2.0149   25.9488   56.6159 C   0  0  0  0  0  0
   -1.2147   25.7700   55.7099 O   0  0  0  0  0  0
   -1.9390   25.3702   57.8430 O   0  0  0  0  0  0
   -7.6387   27.1217   52.1904 C   0  0  0  0  0  0
   -8.7241   26.2577   52.0402 C   0  0  0  0  0  0
   -9.3152   26.0689   50.7948 C   0  0  0  0  0  0
   -8.8055   26.7209   49.6783 C   0  0  0  0  0  0
   -7.7142   27.5718   49.8031 C   0  0  0  0  0  0
   -7.1406   27.7700   51.0549 C   0  0  0  0  0  0
   -0.8471   28.3522   56.1442 H   0  0  0  0  0  0
   -0.3662   30.6449   56.8054 H   0  0  0  0  0  0
   -2.1037   32.0137   57.9129 H   0  0  0  0  0  0
   -4.3282   31.0836   58.3170 H   0  0  0  0  0  0
   -6.3382   25.9552   56.5248 H   0  0  0  0  0  0
   -7.1409   25.3823   54.2798 H   0  0  0  0  0  0
   -6.8439   29.5059   53.1455 H   0  0  0  0  0  0
   -6.1023   30.0945   55.3782 H   0  0  0  0  0  0
   -4.0093   26.4501   57.0052 H   0  0  0  0  0  0
   -3.5124   26.9024   55.4132 H   0  0  0  0  0  0
   -2.7829   25.4001   58.3201 H   0  0  0  0  0  0
   -9.1390   25.7700   52.9068 H   0  0  0  0  0  0
  -10.1647   25.4109   50.6941 H   0  0  0  0  0  0
   -9.2616   26.5704   48.7106 H   0  0  0  0  0  0
   -7.3195   28.0893   48.9402 H   0  0  0  0  0  0
   -6.3359   28.4776   51.1417 H   0  0  0  0  0  0
  1  6  1  0  0  0
  1  2  2  0  0  0
  1 16  1  0  0  0
  2  3  1  0  0  0
  2 26  1  0  0  0
  3  4  2  0  0  0
  3 27  1  0  0  0
  4  5  1  0  0  0
  4 28  1  0  0  0
  5  6  2  0  0  0
  5 29  1  0  0  0
  6  7  1  0  0  0
  7  8  1  0  0  0
  7  9  2  0  0  0
  7 10  2  0  0  0
  8 15  1  0  0  0
  8 11  2  0  0  0
 11 12  1  0  0  0
 11 30  1  0  0  0
 12 13  2  0  0  0
 12 31  1  0  0  0
 13 14  1  0  0  0
 13 20  1  0  0  0
 14 15  2  0  0  0
 14 32  1  0  0  0
 15 33  1  0  0  0
 16 17  1  0  0  0
 16 34  1  0  0  0
 16 35  1  0  0  0
 17 18  2  0  0  0
 17 19  1  0  0  0
 19 36  1  0  0  0
 20 21  2  0  0  0
 20 25  1  0  0  0
 21 22  1  0  0  0
 21 37  1  0  0  0
 22 23  2  0  0  0
 22 38  1  0  0  0
 23 24  1  0  0  0
 23 39  1  0  0  0
 24 25  2  0  0  0
 24 40  1  0  0  0
 25 41  1  0  0  0
M  END
> <s_m_entry_id>
64144

> <s_m_entry_name>
dock_pv.94

> <s_m_Source_Path>
/home/csk/Desktop/cluster/DUD-E-result/mmp13

> <s_m_Source_File>
dock_pv.maegz

> <i_m_Source_File_Index>
94

> <chembl_id>
CHEMBL573935

> <chembl_pref_name>
None

> <i_lp_mmshare_version>
53161

> <i_f3d_flags>
0

> <r_lp_tautomer_probability>
1

> <s_lp_Force_Field>
OPLS_2005

> <r_lp_Energy>
24.017728

> <b_lp_Chiralities_Consistent>
1

> <s_lp_Variant>
CHEMBL280_lig1500-1

> <s_i_glide_gridfile>
glide-grid_830c

> <i_i_glide_lignum>
2232

> <i_i_glide_rotatable_bonds>
6

> <r_i_docking_score>
-7.68236034711875

> <r_i_glide_ligand_efficiency>
-0.30729441388475

> <r_i_glide_ligand_efficiency_sa>
-0.898534316088645

> <r_i_glide_ligand_efficiency_ln>
-1.82094962402899

> <r_i_glide_gscore>
-7.68236034711875

> <r_i_glide_lipo>
-3.16248198445932

> <r_i_glide_hbond>
-0.0713037633102241

> <r_i_glide_metal>
0

> <r_i_glide_rewards>
-1.006332

> <r_i_glide_evdw>
-38.4301719665527

> <r_i_glide_ecoul>
-13.9852313995361

> <r_i_glide_erotb>
0.768364727886938

> <r_i_glide_esite>
-0.19131401897809

> <r_i_glide_emodel>
-73.8832607765089

> <r_i_glide_energy>
-52.4154033660889

> <r_i_glide_einternal>
7.47252702713013

> <i_i_glide_confnum>
59

> <i_i_glide_posenum>
388

> <r_i_glide_eff_state_penalty>
0

> <s_user_duplicate_titles>
CHEMBL280_lig1500,570910

> <s_m_subgroup_title>
dock_pv

> <s_m_subgroupid>
dock_pv

> <b_m_subgroup_collapsed>
1

$$$$
CHEMBL280_lig384
                    3D
 Schrodinger Suite 2021-1.
 45 46  0  0  1  0            999 V2000
   -4.7581   27.9442   57.5036 S   0  0  0  0  0  0
   -3.3615   26.9175   57.3277 N   0  0  1  0  0  0
   -1.9879   27.4759   57.3938 C   0  0  2  0  0  0
   -9.5644   27.1774   48.3772 C   0  0  0  0  0  0
   -1.0878   26.4981   56.5950 C   0  0  0  0  0  0
   -5.7034   27.6845   56.0148 C   0  0  0  0  0  0
   -5.5390   27.3700   58.5958 O   0  0  0  0  0  0
   -4.3146   29.3425   57.5271 O   0  0  0  0  0  0
   -8.8198   27.0550   49.7047 C   0  0  0  0  0  0
   -7.5884   27.0966   52.2249 C   0  0  0  0  0  0
   -6.9977   27.2742   53.5765 C   0  0  0  0  0  0
   -1.5390   25.7700   55.7100 O   0  0  0  0  0  0
   -6.0210   28.7728   55.2122 C   0  0  0  0  0  0
   -6.0978   26.3970   55.6448 C   0  0  0  0  0  0
   -9.3375   26.2893   50.7557 C   0  0  0  0  0  0
   -7.6372   27.7700   49.8973 C   0  0  0  0  0  0
  -10.3390   26.1214   48.1238 F   0  0  0  0  0  0
  -10.3390   28.2486   48.4559 F   0  0  0  0  0  0
   -8.7390   27.3700   47.3507 F   0  0  0  0  0  0
   -1.5664   27.7034   58.8798 C   0  0  0  0  0  0
   -8.7184   26.3120   52.0061 C   0  0  0  0  0  0
   -7.0333   27.7796   51.1476 C   0  0  0  0  0  0
   -6.6649   28.5636   54.0025 C   0  0  0  0  0  0
   -6.7390   26.1916   54.4234 C   0  0  0  0  0  0
    0.2375   26.5664   56.9100 O   0  0  0  0  0  0
   -0.3598   28.6446   59.0620 C   0  0  0  0  0  0
   -1.4203   26.4272   59.7330 C   0  0  0  0  0  0
   -3.4828   26.0073   57.7903 H   0  0  0  0  0  0
   -1.9918   28.4337   56.8719 H   0  0  0  0  0  0
   -5.7344   29.7761   55.4937 H   0  0  0  0  0  0
   -5.8760   25.5507   56.2806 H   0  0  0  0  0  0
  -10.2459   25.7199   50.6239 H   0  0  0  0  0  0
   -7.2070   28.3632   49.1017 H   0  0  0  0  0  0
   -2.3975   28.2556   59.3100 H   0  0  0  0  0  0
   -9.1390   25.7700   52.8334 H   0  0  0  0  0  0
   -6.1486   28.3790   51.3073 H   0  0  0  0  0  0
   -6.8670   29.4130   53.3697 H   0  0  0  0  0  0
   -6.9900   25.1857   54.1185 H   0  0  0  0  0  0
    0.7844   25.9678   56.3829 H   0  0  0  0  0  0
    0.5811   28.1897   58.7568 H   0  0  0  0  0  0
   -0.2492   28.9298   60.1088 H   0  0  0  0  0  0
   -0.4893   29.5639   58.4901 H   0  0  0  0  0  0
   -0.6051   25.7926   59.3859 H   0  0  0  0  0  0
   -1.2193   26.6768   60.7753 H   0  0  0  0  0  0
   -2.3383   25.8390   59.7151 H   0  0  0  0  0  0
  1  2  1  0  0  0
  1  6  1  0  0  0
  1  7  2  0  0  0
  1  8  2  0  0  0
  2  3  1  0  0  0
  2 28  1  0  0  0
  3  5  1  0  0  0
  3 20  1  0  0  0
  3 29  1  0  0  0
  4  9  1  0  0  0
  4 17  1  0  0  0
  4 18  1  0  0  0
  4 19  1  0  0  0
  5 12  2  0  0  0
  5 25  1  0  0  0
  6 13  2  0  0  0
  6 14  1  0  0  0
  9 16  1  0  0  0
  9 15  2  0  0  0
 10 11  1  0  0  0
 10 21  2  0  0  0
 10 22  1  0  0  0
 11 24  1  0  0  0
 11 23  2  0  0  0
 13 23  1  0  0  0
 13 30  1  0  0  0
 14 24  2  0  0  0
 14 31  1  0  0  0
 15 21  1  0  0  0
 15 32  1  0  0  0
 16 22  2  0  0  0
 16 33  1  0  0  0
 20 26  1  0  0  0
 20 27  1  0  0  0
 20 34  1  0  0  0
 21 35  1  0  0  0
 22 36  1  0  0  0
 23 37  1  0  0  0
 24 38  1  0  0  0
 25 39  1  0  0  0
 26 40  1  0  0  0
 26 41  1  0  0  0
 26 42  1  0  0  0
 27 43  1  0  0  0
 27 44  1  0  0  0
 27 45  1  0  0  0
M  END
> <s_m_entry_id>
64145

> <s_m_entry_name>
dock_pv.95

> <s_m_Source_Path>
/home/csk/Desktop/cluster/DUD-E-result/mmp13

> <s_m_Source_File>
dock_pv.maegz

> <i_m_Source_File_Index>
95

> <chembl_id>
CHEMBL47254

> <chembl_pref_name>
None

> <i_lp_mmshare_version>
53161

> <i_f3d_flags>
0

> <r_lp_tautomer_probability>
1

> <s_lp_Force_Field>
OPLS_2005

> <r_lp_Energy>
15.74756

> <b_lp_Chiralities_Consistent>
1

> <s_lp_Variant>
CHEMBL280_lig384-1

> <s_i_glide_gridfile>
glide-grid_830c

> <i_i_glide_lignum>
556

> <i_i_glide_rotatable_bonds>
8

> <r_i_docking_score>
-7.65626273748427

> <r_i_glide_ligand_efficiency>
-0.283565286573491

> <r_i_glide_ligand_efficiency_sa>
-0.850695858785889

> <r_i_glide_ligand_efficiency_ln>
-1.78225174193022

> <r_i_glide_gscore>
-7.65626273748427

> <r_i_glide_lipo>
-3.39809281208563

> <r_i_glide_hbond>
-0.343342431320905

> <r_i_glide_metal>
0

> <r_i_glide_rewards>
0.191680050847889

> <r_i_glide_evdw>
-38.6272010803223

> <r_i_glide_ecoul>
-16.9000816345215

> <r_i_glide_erotb>
0.608656670981197

> <r_i_glide_esite>
-0.248791916712482

> <r_i_glide_emodel>
-72.5246500896577

> <r_i_glide_energy>
-55.5272827148438

> <r_i_glide_einternal>
8.46898365020752

> <i_i_glide_confnum>
75

> <i_i_glide_posenum>
385

> <r_i_glide_eff_state_penalty>
0

> <s_user_duplicate_titles>
CHEMBL280_lig384,66288

> <s_m_subgroup_title>
dock_pv

> <s_m_subgroupid>
dock_pv

> <b_m_subgroup_collapsed>
1

$$$$
CHEMBL280_lig1324
                    3D
 Schrodinger Suite 2021-1.
 42 43  0  0  1  0            999 V2000
   -7.7805   27.6409   49.7280 C   0  0  0  0  0  0
   -8.9105   26.8417   49.6139 C   0  0  0  0  0  0
   -9.4000   26.1682   50.7264 C   0  0  0  0  0  0
   -8.7416   26.2716   51.9498 C   0  0  0  0  0  0
   -7.6327   27.0985   52.0963 C   0  0  0  0  0  0
   -7.1585   27.7704   50.9657 C   0  0  0  0  0  0
   -7.0445   27.3383   53.4440 C   0  0  0  0  0  0
   -6.7306   28.6430   53.8160 C   0  0  0  0  0  0
   -6.2467   28.9436   55.0789 C   0  0  0  0  0  0
   -6.0358   27.9186   55.9923 C   0  0  0  0  0  0
   -6.3308   26.5947   55.6438 C   0  0  0  0  0  0
   -6.8387   26.3104   54.3739 C   0  0  0  0  0  0
   -5.3752   28.3317   57.6018 S   0  0  0  0  0  0
   -3.6360   28.2194   57.4124 N   0  0  1  0  0  0
   -5.7748   27.2577   58.5100 O   0  0  0  0  0  0
   -5.7068   29.7312   57.8817 O   0  0  0  0  0  0
   -3.0421   26.8626   57.3315 C   0  0  2  0  0  0
   -2.1358   26.5371   58.5505 C   0  0  0  0  0  0
   -2.4762   26.5929   55.9244 C   0  0  0  0  0  0
   -1.5921   25.7701   55.7101 O   0  0  0  0  0  0
   -3.1408   27.2209   54.9102 O   0  0  0  0  0  0
   -0.9007   27.4290   58.8207 C   0  0  0  0  0  0
    0.2792   27.2086   57.8733 C   0  0  0  0  0  0
    0.6034   25.8927   57.7107 O   0  0  0  0  0  0
    0.8660   28.1260   57.3096 O   0  0  0  0  0  0
   -7.3987   28.1813   48.8728 H   0  0  0  0  0  0
   -9.4100   26.7480   48.6606 H   0  0  0  0  0  0
  -10.2816   25.5514   50.6384 H   0  0  0  0  0  0
   -9.1390   25.7701   52.8143 H   0  0  0  0  0  0
   -6.3385   28.4582   51.0499 H   0  0  0  0  0  0
   -6.8686   29.4443   53.1150 H   0  0  0  0  0  0
   -6.0173   29.9706   55.3295 H   0  0  0  0  0  0
   -6.1664   25.7859   56.3443 H   0  0  0  0  0  0
   -7.0636   25.2868   54.1105 H   0  0  0  0  0  0
   -3.1785   28.9693   56.8871 H   0  0  0  0  0  0
   -3.8741   26.1654   57.3809 H   0  0  0  0  0  0
   -1.8277   25.4919   58.4955 H   0  0  0  0  0  0
   -2.7638   26.5731   59.4425 H   0  0  0  0  0  0
   -3.8793   27.7466   55.2395 H   0  0  0  0  0  0
   -0.5354   27.2283   59.8280 H   0  0  0  0  0  0
   -1.1819   28.4819   58.8083 H   0  0  0  0  0  0
    1.3051   25.7675   57.0607 H   0  0  0  0  0  0
  1  6  1  0  0  0
  1  2  2  0  0  0
  1 26  1  0  0  0
  2  3  1  0  0  0
  2 27  1  0  0  0
  3  4  2  0  0  0
  3 28  1  0  0  0
  4  5  1  0  0  0
  4 29  1  0  0  0
  5  7  1  0  0  0
  5  6  2  0  0  0
  6 30  1  0  0  0
  7  8  2  0  0  0
  7 12  1  0  0  0
  8  9  1  0  0  0
  8 31  1  0  0  0
  9 10  2  0  0  0
  9 32  1  0  0  0
 10 13  1  0  0  0
 10 11  1  0  0  0
 11 12  2  0  0  0
 11 33  1  0  0  0
 12 34  1  0  0  0
 13 14  1  0  0  0
 13 15  2  0  0  0
 13 16  2  0  0  0
 14 17  1  0  0  0
 14 35  1  0  0  0
 17 18  1  0  0  0
 17 19  1  0  0  0
 17 36  1  0  0  0
 18 22  1  0  0  0
 18 37  1  0  0  0
 18 38  1  0  0  0
 19 20  2  0  0  0
 19 21  1  0  0  0
 21 39  1  0  0  0
 22 23  1  0  0  0
 22 40  1  0  0  0
 22 41  1  0  0  0
 23 24  1  0  0  0
 23 25  2  0  0  0
 24 42  1  0  0  0
M  END
> <s_m_entry_id>
64146

> <s_m_entry_name>
dock_pv.96

> <s_m_Source_Path>
/home/csk/Desktop/cluster/DUD-E-result/mmp13

> <s_m_Source_File>
dock_pv.maegz

> <i_m_Source_File_Index>
96

> <chembl_id>
CHEMBL475540

> <chembl_pref_name>
None

> <i_lp_mmshare_version>
53161

> <i_f3d_flags>
0

> <r_lp_tautomer_probability>
1

> <s_lp_Force_Field>
OPLS_2005

> <r_lp_Energy>
11.29002

> <b_lp_Chiralities_Consistent>
1

> <s_lp_Variant>
CHEMBL280_lig1324-1

> <s_i_glide_gridfile>
glide-grid_830c

> <i_i_glide_lignum>
2046

> <i_i_glide_rotatable_bonds>
10

> <r_i_docking_score>
-7.6553598079759

> <r_i_glide_ligand_efficiency>
-0.306214392319036

> <r_i_glide_ligand_efficiency_sa>
-0.895376313876233

> <r_i_glide_ligand_efficiency_ln>
-1.81454968711127

> <r_i_glide_gscore>
-7.6553598079759

> <r_i_glide_lipo>
-3.08896837913526

> <r_i_glide_hbond>
-0.0383170926242939

> <r_i_glide_metal>
0

> <r_i_glide_rewards>
-0.917000394856008

> <r_i_glide_evdw>
-39.8271064758301

> <r_i_glide_ecoul>
-17.372838973999

> <r_i_glide_erotb>
1.16397864878278

> <r_i_glide_esite>
-0.177771420251756

> <r_i_glide_emodel>
-83.4875770193189

> <r_i_glide_energy>
-57.1999454498291

> <r_i_glide_einternal>
4.28047370910645

> <i_i_glide_confnum>
200

> <i_i_glide_posenum>
54

> <r_i_glide_eff_state_penalty>
0

> <s_user_duplicate_titles>
CHEMBL280_lig1324,454726

> <s_m_subgroup_title>
dock_pv

> <s_m_subgroupid>
dock_pv

> <b_m_subgroup_collapsed>
1

$$$$
CHEMBL280_lig1925
                    3D
 Schrodinger Suite 2021-1.
 48 50  0  0  1  0            999 V2000
   -5.1390   27.3700   58.9100 O   0  0  0  0  0  0
   -5.1570   28.5702   58.0758 S   0  0  0  0  0  0
   -5.9239   29.7405   58.5095 O   0  0  0  0  0  0
   -1.9502   31.0016   57.5416 C   0  0  0  0  0  0
   -3.2228   30.4874   57.7725 C   0  0  0  0  0  0
   -3.4549   29.1044   57.7789 C   0  0  0  0  0  0
   -2.3740   28.2239   57.5369 C   0  0  0  0  0  0
   -1.0970   28.7627   57.3166 C   0  0  0  0  0  0
   -0.8844   30.1382   57.3161 C   0  0  0  0  0  0
   -5.8149   28.1027   56.4863 C   0  0  0  0  0  0
   -6.0792   26.7697   56.1596 C   0  0  0  0  0  0
   -6.5620   26.4588   54.8894 C   0  0  0  0  0  0
   -6.8128   27.4727   53.9544 C   0  0  0  0  0  0
   -6.5792   28.7994   54.3204 C   0  0  0  0  0  0
   -6.0796   29.1161   55.5743 C   0  0  0  0  0  0
   -7.3800   27.1801   52.6114 C   0  0  0  0  0  0
   -8.4136   26.2599   52.4784 C   0  0  0  0  0  0
   -9.0740   26.0984   51.2648 C   0  0  0  0  0  0
   -8.6985   26.8415   50.1502 C   0  0  0  0  0  0
   -7.6002   27.7065   50.2509 C   0  0  0  0  0  0
   -6.9506   27.8665   51.4729 C   0  0  0  0  0  0
   -9.4673   26.6744   49.0163 O   0  0  0  0  0  0
   -9.2935   27.5698   47.9211 C   0  0  0  0  0  0
  -10.4164   27.3403   46.9011 C   0  0  0  0  0  0
  -10.3390   26.1702   46.2704 F   0  0  0  0  0  0
   -2.5092   26.6982   57.4936 C   0  0  0  0  0  0
   -2.2269   26.1421   56.1100 C   0  0  0  0  0  0
   -3.3140   26.1700   55.3100 O   0  0  0  0  0  0
   -1.1360   25.7701   55.7100 O   0  0  0  0  0  0
   -1.7909   32.0703   57.5422 H   0  0  0  0  0  0
   -4.0319   31.1822   57.9460 H   0  0  0  0  0  0
   -0.2544   28.1081   57.1437 H   0  0  0  0  0  0
    0.1059   30.5335   57.1441 H   0  0  0  0  0  0
   -5.9027   25.9723   56.8711 H   0  0  0  0  0  0
   -6.7385   25.4225   54.6368 H   0  0  0  0  0  0
   -6.7748   29.6029   53.6266 H   0  0  0  0  0  0
   -5.8917   30.1508   55.8275 H   0  0  0  0  0  0
   -8.7390   25.7103   53.3454 H   0  0  0  0  0  0
   -9.8978   25.4022   51.1913 H   0  0  0  0  0  0
   -7.2536   28.2838   49.4064 H   0  0  0  0  0  0
   -6.1339   28.5706   51.5371 H   0  0  0  0  0  0
   -9.3352   28.6047   48.2667 H   0  0  0  0  0  0
   -8.3220   27.4082   47.4536 H   0  0  0  0  0  0
  -11.3964   27.3700   47.3762 H   0  0  0  0  0  0
  -10.3954   28.1085   46.1278 H   0  0  0  0  0  0
   -1.8433   26.2439   58.2286 H   0  0  0  0  0  0
   -3.4946   26.3376   57.7395 H   0  0  0  0  0  0
   -4.1198   26.3880   55.7904 H   0  0  0  0  0  0
  1  2  2  0  0  0
  2  3  2  0  0  0
  2  6  1  0  0  0
  2 10  1  0  0  0
  4  5  2  0  0  0
  4  9  1  0  0  0
  4 30  1  0  0  0
  5  6  1  0  0  0
  5 31  1  0  0  0
  6  7  2  0  0  0
  7  8  1  0  0  0
  7 26  1  0  0  0
  8  9  2  0  0  0
  8 32  1  0  0  0
  9 33  1  0  0  0
 10 11  2  0  0  0
 10 15  1  0  0  0
 11 12  1  0  0  0
 11 34  1  0  0  0
 12 13  2  0  0  0
 12 35  1  0  0  0
 13 14  1  0  0  0
 13 16  1  0  0  0
 14 15  2  0  0  0
 14 36  1  0  0  0
 15 37  1  0  0  0
 16 17  2  0  0  0
 16 21  1  0  0  0
 17 18  1  0  0  0
 17 38  1  0  0  0
 18 19  2  0  0  0
 18 39  1  0  0  0
 19 20  1  0  0  0
 19 22  1  0  0  0
 20 21  2  0  0  0
 20 40  1  0  0  0
 21 41  1  0  0  0
 22 23  1  0  0  0
 23 24  1  0  0  0
 23 42  1  0  0  0
 23 43  1  0  0  0
 24 25  1  0  0  0
 24 44  1  0  0  0
 24 45  1  0  0  0
 26 27  1  0  0  0
 26 46  1  0  0  0
 26 47  1  0  0  0
 27 28  1  0  0  0
 27 29  2  0  0  0
 28 48  1  0  0  0
M  END
> <s_m_entry_id>
64147

> <s_m_entry_name>
dock_pv.97

> <s_m_Source_Path>
/home/csk/Desktop/cluster/DUD-E-result/mmp13

> <s_m_Source_File>
dock_pv.maegz

> <i_m_Source_File_Index>
97

> <chembl_id>
CHEMBL2326363

> <chembl_pref_name>
None

> <i_lp_mmshare_version>
53161

> <i_f3d_flags>
0

> <r_lp_tautomer_probability>
1

> <s_lp_Force_Field>
OPLS_2005

> <r_lp_Energy>
27.080854

> <b_lp_Chiralities_Consistent>
1

> <s_lp_Variant>
CHEMBL280_lig1925-1

> <s_i_glide_gridfile>
glide-grid_830c

> <i_i_glide_lignum>
2691

> <i_i_glide_rotatable_bonds>
9

> <r_i_docking_score>
-7.65432074661267

> <r_i_glide_ligand_efficiency>
-0.263942094710782

> <r_i_glide_ligand_efficiency_sa>
-0.810913737676507

> <r_i_glide_ligand_efficiency_ln>
-1.7526453541473

> <r_i_glide_gscore>
-7.65432074661267

> <r_i_glide_lipo>
-3.4289860639617

> <r_i_glide_hbond>
-0.0815102315848236

> <r_i_glide_metal>
0

> <r_i_glide_rewards>
-0.730822102373196

> <r_i_glide_evdw>
-44.9448356628418

> <r_i_glide_ecoul>
-11.9986505508423

> <r_i_glide_erotb>
0.804365121451385

> <r_i_glide_esite>
-0.170328104375904

> <r_i_glide_emodel>
-82.8736614533504

> <r_i_glide_energy>
-56.9434862136841

> <r_i_glide_einternal>
5.99589157104492

> <i_i_glide_confnum>
46

> <i_i_glide_posenum>
59

> <r_i_glide_eff_state_penalty>
0

> <s_user_duplicate_titles>
CHEMBL280_lig1925

> <s_m_subgroup_title>
dock_pv

> <s_m_subgroupid>
dock_pv

> <b_m_subgroup_collapsed>
1

$$$$
CHEMBL280_lig2138
                    3D
 Schrodinger Suite 2021-1.
 53 55  0  0  1  0            999 V2000
   -5.0326   28.4799   58.1811 S   0  0  0  0  0  0
   -3.2710   28.5522   58.0324 N   0  0  3  0  0  0
   -2.5080   27.2942   57.7155 C   0  0  1  0  0  0
   -2.3671   27.1143   56.1822 C   0  0  0  0  0  0
   -5.7253   28.2410   56.5518 C   0  0  0  0  0  0
   -1.1559   27.2068   58.5006 C   0  0  2  0  0  0
   -5.3429   27.2522   58.9113 O   0  0  0  0  0  0
   -5.5126   29.7864   58.6385 O   0  0  0  0  0  0
   -8.3323   26.9746   50.7836 C   0  0  0  0  0  0
   -1.9366   26.0606   55.7101 O   0  0  0  0  0  0
   -2.8371   28.0956   55.4002 N   0  0  0  0  0  0
   -9.6045   26.5360   50.4044 C   0  0  0  0  0  0
   -7.7542   26.6628   52.1555 C   0  0  0  0  0  0
   -2.5569   29.8609   58.0347 C   0  0  0  0  0  0
   -5.8929   26.9562   56.0208 C   0  0  0  0  0  0
   -6.1649   29.3573   55.8460 C   0  0  0  0  0  0
   -7.6095   27.8888   52.8577 O   0  0  0  0  0  0
   -6.9645   27.9211   54.0743 C   0  0  0  0  0  0
   -1.5224   27.0092   59.8562 O   0  0  0  0  0  0
  -10.3403   25.7699   51.2397 F   0  0  0  0  0  0
   -6.5059   26.7968   54.7780 C   0  0  0  0  0  0
   -6.7853   29.1885   54.6190 C   0  0  0  0  0  0
   -3.1394   27.7702   54.0957 O   0  0  0  0  0  0
   -0.3765   28.5429   58.3748 C   0  0  0  0  0  0
   -1.2048   29.7845   58.7714 C   0  0  0  0  0  0
   -0.2516   25.9927   58.1949 C   0  0  0  0  0  0
   -7.5947   27.7654   49.8988 C   0  0  0  0  0  0
  -10.1316   26.9014   49.1638 C   0  0  0  0  0  0
   -8.1123   28.1190   48.6533 C   0  0  0  0  0  0
   -9.3861   27.6893   48.2868 C   0  0  0  0  0  0
   -3.1373   26.4386   57.9606 H   0  0  0  0  0  0
   -3.3807   28.8788   55.7423 H   0  0  0  0  0  0
   -6.7764   26.2023   52.0192 H   0  0  0  0  0  0
   -8.3837   25.9667   52.7108 H   0  0  0  0  0  0
   -2.3648   30.1433   57.0005 H   0  0  0  0  0  0
   -3.1969   30.6328   58.4611 H   0  0  0  0  0  0
   -5.5584   26.0807   56.5632 H   0  0  0  0  0  0
   -6.0499   30.3539   56.2482 H   0  0  0  0  0  0
   -2.0960   26.2409   59.9096 H   0  0  0  0  0  0
   -6.6308   25.7985   54.3865 H   0  0  0  0  0  0
   -7.1400   30.0565   54.0892 H   0  0  0  0  0  0
   -3.1419   28.6267   53.6538 H   0  0  0  0  0  0
    0.5523   28.4945   58.9443 H   0  0  0  0  0  0
   -0.0396   28.6561   57.3439 H   0  0  0  0  0  0
   -0.6315   30.6938   58.5894 H   0  0  0  0  0  0
   -1.3861   29.7665   59.8458 H   0  0  0  0  0  0
    0.1884   26.0530   57.1989 H   0  0  0  0  0  0
    0.5816   25.9257   58.8965 H   0  0  0  0  0  0
   -0.8077   25.0572   58.2642 H   0  0  0  0  0  0
   -6.6235   28.1300   50.1912 H   0  0  0  0  0  0
  -11.1237   26.5811   48.8833 H   0  0  0  0  0  0
   -7.5304   28.7358   47.9827 H   0  0  0  0  0  0
   -9.7962   27.9696   47.3275 H   0  0  0  0  0  0
  1  2  1  0  0  0
  1  5  1  0  0  0
  1  7  2  0  0  0
  1  8  2  0  0  0
  2  3  1  0  0  0
  2 14  1  0  0  0
  3  4  1  0  0  0
  3  6  1  0  0  0
  3 31  1  0  0  0
  4 10  2  0  0  0
  4 11  1  0  0  0
  5 15  2  0  0  0
  5 16  1  0  0  0
  6 19  1  0  0  0
  6 26  1  0  0  0
  6 24  1  0  0  0
  9 13  1  0  0  0
  9 12  2  0  0  0
  9 27  1  0  0  0
 11 23  1  0  0  0
 11 32  1  0  0  0
 12 20  1  0  0  0
 12 28  1  0  0  0
 13 17  1  0  0  0
 13 33  1  0  0  0
 13 34  1  0  0  0
 14 25  1  0  0  0
 14 35  1  0  0  0
 14 36  1  0  0  0
 15 21  1  0  0  0
 15 37  1  0  0  0
 16 22  2  0  0  0
 16 38  1  0  0  0
 17 18  1  0  0  0
 18 22  1  0  0  0
 18 21  2  0  0  0
 19 39  1  0  0  0
 21 40  1  0  0  0
 22 41  1  0  0  0
 23 42  1  0  0  0
 24 25  1  0  0  0
 24 43  1  0  0  0
 24 44  1  0  0  0
 25 45  1  0  0  0
 25 46  1  0  0  0
 26 47  1  0  0  0
 26 48  1  0  0  0
 26 49  1  0  0  0
 27 29  2  0  0  0
 27 50  1  0  0  0
 28 30  2  0  0  0
 28 51  1  0  0  0
 29 30  1  0  0  0
 29 52  1  0  0  0
 30 53  1  0  0  0
M  END
> <s_m_entry_id>
64148

> <s_m_entry_name>
dock_pv.98

> <s_m_Source_Path>
/home/csk/Desktop/cluster/DUD-E-result/mmp13

> <s_m_Source_File>
dock_pv.maegz

> <i_m_Source_File_Index>
98

> <chembl_id>
CHEMBL182306

> <chembl_pref_name>
None

> <i_lp_mmshare_version>
53161

> <i_f3d_flags>
0

> <r_lp_tautomer_probability>
1

> <s_lp_Force_Field>
OPLS_2005

> <r_lp_Energy>
31.039423

> <b_lp_Chiralities_Consistent>
1

> <s_lp_Variant>
CHEMBL280_lig2138-1

> <s_i_glide_gridfile>
glide-grid_830c

> <i_i_glide_lignum>
2983

> <i_i_glide_rotatable_bonds>
9

> <r_i_docking_score>
-7.6505726333413

> <r_i_glide_ligand_efficiency>
-0.255019087778043

> <r_i_glide_ligand_efficiency_sa>
-0.792403598284263

> <r_i_glide_ligand_efficiency_ln>
-1.73829346196057

> <r_i_glide_gscore>
-7.6505726333413

> <r_i_glide_lipo>
-3.19650162922304

> <r_i_glide_hbond>
0

> <r_i_glide_metal>
0

> <r_i_glide_rewards>
-0.440131639163352

> <r_i_glide_evdw>
-46.6821174621582

> <r_i_glide_ecoul>
-14.0245313644409

> <r_i_glide_erotb>
0.726375602625198

> <r_i_glide_esite>
-0.302529389806059

> <r_i_glide_emodel>
-83.6555966800132

> <r_i_glide_energy>
-60.7066488265991

> <r_i_glide_einternal>
20.4540100097656

> <i_i_glide_confnum>
35

> <i_i_glide_posenum>
37

> <r_i_glide_eff_state_penalty>
0

> <s_user_duplicate_titles>
CHEMBL280_lig2138,309852

> <s_m_subgroup_title>
dock_pv

> <s_m_subgroupid>
dock_pv

> <b_m_subgroup_collapsed>
1

$$$$
CHEMBL280_lig1127
                    3D
 Schrodinger Suite 2021-1.
 44 45  0  0  1  0            999 V2000
   -4.7393   26.5717   55.9763 N   0  0  2  0  0  0
   -3.9605   27.7236   56.4755 C   0  0  1  0  0  0
   -4.0223   27.8931   58.0189 C   0  0  0  0  0  0
   -4.0832   29.3899   58.3844 C   0  0  0  0  0  0
   -2.9097   27.1593   58.7957 C   0  0  0  0  0  0
   -2.3415   27.5108   55.7098 P   0  0  0  0  0  0
   -1.6881   26.1697   55.7163 O   0  0  0  0  0  0
   -2.7451   27.9768   54.2129 O   0  0  0  0  0  0
   -1.4594   28.7512   56.2599 O   0  0  0  0  0  0
   -6.4359   26.8397   55.7202 S   0  0  0  0  0  0
   -6.7249   26.9354   53.9603 C   0  0  0  0  0  0
   -7.1361   25.6483   56.1911 O   0  0  0  0  0  0
   -6.7372   28.1668   56.2639 O   0  0  0  0  0  0
   -6.3592   28.0545   53.2207 C   0  0  0  0  0  0
   -6.7804   28.1586   51.8940 C   0  0  0  0  0  0
   -7.6466   27.2140   51.3172 C   0  0  0  0  0  0
   -7.9516   26.0840   52.0706 C   0  0  0  0  0  0
   -7.4465   25.9173   53.3495 C   0  0  0  0  0  0
   -8.2415   27.3830   49.9474 C   0  0  0  0  0  0
   -9.4441   26.7536   49.5776 C   0  0  0  0  0  0
  -10.0017   26.9450   48.3112 C   0  0  0  0  0  0
   -9.3732   27.7699   47.3847 C   0  0  0  0  0  0
   -8.1854   28.4045   47.7241 C   0  0  0  0  0  0
   -7.6417   28.2038   48.9876 C   0  0  0  0  0  0
  -11.1429   26.3268   47.9744 F   0  0  0  0  0  0
   -4.4949   25.6355   56.3286 H   0  0  0  0  0  0
   -4.3780   28.6182   56.0119 H   0  0  0  0  0  0
   -4.9708   27.4681   58.3534 H   0  0  0  0  0  0
   -3.1360   29.8938   58.1942 H   0  0  0  0  0  0
   -4.3348   29.5456   59.4276 H   0  0  0  0  0  0
   -4.8528   29.9076   57.8109 H   0  0  0  0  0  0
   -1.9608   27.6982   58.7564 H   0  0  0  0  0  0
   -3.1764   27.0284   59.8451 H   0  0  0  0  0  0
   -2.7369   26.1642   58.3888 H   0  0  0  0  0  0
   -3.0823   28.8969   54.1375 H   0  0  0  0  0  0
   -1.9099   29.6141   56.3206 H   0  0  0  0  0  0
   -5.7870   28.8512   53.6738 H   0  0  0  0  0  0
   -6.4648   29.0129   51.3275 H   0  0  0  0  0  0
   -8.5663   25.3031   51.6526 H   0  0  0  0  0  0
   -7.6402   25.0016   53.8707 H   0  0  0  0  0  0
   -9.9774   26.1165   50.2664 H   0  0  0  0  0  0
   -9.8083   27.9215   46.4087 H   0  0  0  0  0  0
   -7.6843   29.0487   47.0151 H   0  0  0  0  0  0
   -6.7417   28.7377   49.2203 H   0  0  0  0  0  0
  1 10  1  0  0  0
  1  2  1  0  0  0
  1 26  1  0  0  0
  2  3  1  0  0  0
  2  6  1  0  0  0
  2 27  1  0  0  0
  3  4  1  0  0  0
  3  5  1  0  0  0
  3 28  1  0  0  0
  4 29  1  0  0  0
  4 30  1  0  0  0
  4 31  1  0  0  0
  5 32  1  0  0  0
  5 33  1  0  0  0
  5 34  1  0  0  0
  6  7  2  0  0  0
  6  8  1  0  0  0
  6  9  1  0  0  0
  8 35  1  0  0  0
  9 36  1  0  0  0
 10 13  2  0  0  0
 10 11  1  0  0  0
 10 12  2  0  0  0
 11 14  2  0  0  0
 11 18  1  0  0  0
 14 15  1  0  0  0
 14 37  1  0  0  0
 15 16  2  0  0  0
 15 38  1  0  0  0
 16 17  1  0  0  0
 16 19  1  0  0  0
 17 18  2  0  0  0
 17 39  1  0  0  0
 18 40  1  0  0  0
 19 20  2  0  0  0
 19 24  1  0  0  0
 20 21  1  0  0  0
 20 41  1  0  0  0
 21 22  2  0  0  0
 21 25  1  0  0  0
 22 23  1  0  0  0
 22 42  1  0  0  0
 23 24  2  0  0  0
 23 43  1  0  0  0
 24 44  1  0  0  0
M  END
> <s_m_entry_id>
64149

> <s_m_entry_name>
dock_pv.99

> <s_m_Source_Path>
/home/csk/Desktop/cluster/DUD-E-result/mmp13

> <s_m_Source_File>
dock_pv.maegz

> <i_m_Source_File_Index>
99

> <chembl_id>
CHEMBL228187

> <chembl_pref_name>
None

> <i_lp_mmshare_version>
53161

> <i_f3d_flags>
0

> <r_lp_tautomer_probability>
1

> <s_lp_Force_Field>
OPLS_2005

> <r_lp_Energy>
2.362815

> <b_lp_Chiralities_Consistent>
1

> <s_lp_Variant>
CHEMBL280_lig1127-1

> <s_i_glide_gridfile>
glide-grid_830c

> <i_i_glide_lignum>
1812

> <i_i_glide_rotatable_bonds>
8

> <r_i_docking_score>
-7.65037596980002

> <r_i_glide_ligand_efficiency>
-0.306015038792001

> <r_i_glide_ligand_efficiency_sa>
-0.894793400627632

> <r_i_glide_ligand_efficiency_ln>
-1.81336836811001

> <r_i_glide_gscore>
-7.65037596980002

> <r_i_glide_lipo>
-3.63866993944062

> <r_i_glide_hbond>
-0.0914740191977404

> <r_i_glide_metal>
0

> <r_i_glide_rewards>
-0.530716095499343

> <r_i_glide_evdw>
-36.717342376709

> <r_i_glide_ecoul>
-13.256010055542

> <r_i_glide_erotb>
0.648878733616542

> <r_i_glide_esite>
-0.214126022112102

> <r_i_glide_emodel>
-66.7773324500828

> <r_i_glide_energy>
-49.973352432251

> <r_i_glide_einternal>
4.90344190597534

> <i_i_glide_confnum>
91

> <i_i_glide_posenum>
60

> <r_i_glide_eff_state_penalty>
0

> <s_user_duplicate_titles>
CHEMBL280_lig1127,376957

> <s_m_subgroup_title>
dock_pv

> <s_m_subgroupid>
dock_pv

> <b_m_subgroup_collapsed>
1

$$$$
CHEMBL280_lig2285
                    3D
 Schrodinger Suite 2021-1.
 45 47  0  0  1  0            999 V2000
   -4.8105   29.7704   56.8212 S   0  0  0  0  0  0
   -5.0393   28.2018   56.0773 N   0  0  1  0  0  0
   -4.3646   27.1701   56.9151 C   0  0  1  0  0  0
   -2.9755   26.8420   56.2799 C   0  0  0  0  0  0
   -4.3142   27.6995   58.3983 C   0  0  0  0  0  0
   -5.0664   29.0471   58.5099 C   0  0  0  0  0  0
   -6.2833   27.9429   55.3160 C   0  0  0  0  0  0
   -5.9030   30.6980   56.5098 O   0  0  0  0  0  0
   -3.4108   30.2016   56.7366 O   0  0  0  0  0  0
   -2.7622   26.9700   55.0627 O   0  0  0  0  0  0
   -8.2188   27.1976   50.5648 C   0  0  0  0  0  0
   -2.0288   26.3758   57.1131 N   0  0  0  0  0  0
   -8.8684   27.3544   49.2174 C   0  0  0  0  0  0
   -7.1389   28.0097   50.9241 C   0  0  0  0  0  0
   -8.6525   26.2520   51.5099 C   0  0  0  0  0  0
   -6.1543   26.7500   54.3524 C   0  0  0  0  0  0
   -6.9322   26.9401   53.0634 C   0  0  0  0  0  0
   -8.0181   26.1311   52.7488 C   0  0  0  0  0  0
   -6.5032   27.8926   52.1503 C   0  0  0  0  0  0
   -0.7380   26.1701   56.6068 O   0  0  0  0  0  0
   -8.2173   28.0268   48.1667 C   0  0  0  0  0  0
  -10.1474   26.8395   48.9641 C   0  0  0  0  0  0
  -10.7389   26.9684   47.7099 C   0  0  0  0  0  0
   -8.8146   28.1784   46.9196 C   0  0  0  0  0  0
  -10.0747   27.6415   46.6922 C   0  0  0  0  0  0
   -4.8917   26.2151   56.8590 H   0  0  0  0  0  0
   -4.7393   26.9698   59.0874 H   0  0  0  0  0  0
   -3.2938   27.8825   58.7384 H   0  0  0  0  0  0
   -6.1381   28.9477   58.6802 H   0  0  0  0  0  0
   -4.6487   29.7318   59.2484 H   0  0  0  0  0  0
   -7.1269   27.8139   55.9938 H   0  0  0  0  0  0
   -6.4899   28.8556   54.7539 H   0  0  0  0  0  0
   -2.1084   26.2156   58.1089 H   0  0  0  0  0  0
   -6.7466   28.7589   50.2569 H   0  0  0  0  0  0
   -9.4646   25.5760   51.2905 H   0  0  0  0  0  0
   -5.1222   26.6627   54.0175 H   0  0  0  0  0  0
   -6.3691   25.8012   54.8468 H   0  0  0  0  0  0
   -8.3389   25.3718   53.4463 H   0  0  0  0  0  0
   -5.6585   28.5285   52.3713 H   0  0  0  0  0  0
   -0.2157   26.8748   57.0044 H   0  0  0  0  0  0
   -7.2215   28.4258   48.2802 H   0  0  0  0  0  0
  -10.7081   26.3400   49.7379 H   0  0  0  0  0  0
  -11.7273   26.5700   47.5391 H   0  0  0  0  0  0
   -8.2879   28.6946   46.1288 H   0  0  0  0  0  0
  -10.5389   27.7524   45.7234 H   0  0  0  0  0  0
  1  2  1  0  0  0
  1  6  1  0  0  0
  1  8  2  0  0  0
  1  9  2  0  0  0
  2  3  1  0  0  0
  2  7  1  0  0  0
  3  4  1  0  0  0
  3  5  1  0  0  0
  3 26  1  0  0  0
  4 10  2  0  0  0
  4 12  1  0  0  0
  5  6  1  0  0  0
  5 27  1  0  0  0
  5 28  1  0  0  0
  6 29  1  0  0  0
  6 30  1  0  0  0
  7 16  1  0  0  0
  7 31  1  0  0  0
  7 32  1  0  0  0
 11 14  2  0  0  0
 11 13  1  0  0  0
 11 15  1  0  0  0
 12 20  1  0  0  0
 12 33  1  0  0  0
 13 21  1  0  0  0
 13 22  2  0  0  0
 14 19  1  0  0  0
 14 34  1  0  0  0
 15 18  2  0  0  0
 15 35  1  0  0  0
 16 17  1  0  0  0
 16 36  1  0  0  0
 16 37  1  0  0  0
 17 18  1  0  0  0
 17 19  2  0  0  0
 18 38  1  0  0  0
 19 39  1  0  0  0
 20 40  1  0  0  0
 21 24  2  0  0  0
 21 41  1  0  0  0
 22 23  1  0  0  0
 22 42  1  0  0  0
 23 25  2  0  0  0
 23 43  1  0  0  0
 24 25  1  0  0  0
 24 44  1  0  0  0
 25 45  1  0  0  0
M  END
> <s_m_entry_id>
64150

> <s_m_entry_name>
dock_pv.100

> <s_m_Source_Path>
/home/csk/Desktop/cluster/DUD-E-result/mmp13

> <s_m_Source_File>
dock_pv.maegz

> <i_m_Source_File_Index>
100

> <chembl_id>
CHEMBL99733

> <chembl_pref_name>
None

> <i_lp_mmshare_version>
53161

> <i_f3d_flags>
0

> <r_lp_tautomer_probability>
1

> <s_lp_Force_Field>
OPLS_2005

> <r_lp_Energy>
24.799194

> <b_lp_Chiralities_Consistent>
1

> <s_lp_Variant>
CHEMBL280_lig2285-2

> <s_i_glide_gridfile>
glide-grid_830c

> <i_i_glide_lignum>
3263

> <i_i_glide_rotatable_bonds>
7

> <r_i_docking_score>
-7.64743398029584

> <r_i_glide_ligand_efficiency>
-0.305897359211833

> <r_i_glide_ligand_efficiency_sa>
-0.894449303448167

> <r_i_glide_ligand_efficiency_ln>
-1.81267102843321

> <r_i_glide_gscore>
-7.64743398029584

> <r_i_glide_lipo>
-3.98516084673519

> <r_i_glide_hbond>
0

> <r_i_glide_metal>
0

> <r_i_glide_rewards>
-1.00507114682997

> <r_i_glide_evdw>
-42.8206596374512

> <r_i_glide_ecoul>
-8.01125144958496

> <r_i_glide_erotb>
0.885801123953715

> <r_i_glide_esite>
-0.200282411374082

> <r_i_glide_emodel>
-76.852702943823

> <r_i_glide_energy>
-50.8319110870361

> <r_i_glide_einternal>
8.49977016448975

> <i_i_glide_confnum>
8

> <i_i_glide_posenum>
162

> <r_i_glide_eff_state_penalty>
0

> <s_user_duplicate_titles>
CHEMBL280_lig2285

> <s_m_subgroup_title>
dock_pv

> <s_m_subgroupid>
dock_pv

> <b_m_subgroup_collapsed>
1

$$$$
CHEMBL280_lig958
                    3D
 Schrodinger Suite 2021-1.
 56 58  0  0  1  0            999 V2000
   -4.9628   28.6143   58.0218 S   0  0  0  0  0  0
   -3.2634   28.9712   57.6555 N   0  0  1  0  0  0
   -2.2437   27.8725   57.7022 C   0  0  2  0  0  0
   -0.7926   28.4241   58.0117 C   0  0  0  0  0  0
   -2.3206   27.0540   56.3901 C   0  0  0  0  0  0
   -2.9643   30.2160   56.8853 C   0  0  0  0  0  0
   -5.7672   28.2889   56.4516 C   0  0  0  0  0  0
   -5.0430   27.3745   58.8031 O   0  0  0  0  0  0
   -5.5556   29.8584   58.5169 O   0  0  0  0  0  0
   -9.6144   26.6407   50.2748 C   0  0  0  0  0  0
   -8.3291   27.0028   50.6979 C   0  0  0  0  0  0
  -10.0734   27.0173   49.0111 C   0  0  0  0  0  0
   -0.4844   29.6090   57.0454 C   0  0  0  0  0  0
   -2.3393   27.6058   55.2926 O   0  0  0  0  0  0
   -1.5293   30.7434   57.1083 C   0  0  1  0  0  0
   -2.3373   25.7225   56.4996 N   0  0  0  0  0  0
   -7.7838   26.6343   52.0753 C   0  0  0  0  0  0
   -7.5342   27.7701   49.8433 C   0  0  0  0  0  0
   -5.8557   26.9955   55.9231 C   0  0  0  0  0  0
   -6.3591   29.3588   55.7846 C   0  0  0  0  0  0
   -7.9065   27.7712   52.9138 O   0  0  0  0  0  0
   -9.2626   27.7706   48.1637 C   0  0  0  0  0  0
  -10.6761   25.7702   51.3099 Cl  0  0  0  0  0  0
   -7.1660   27.8582   54.0733 C   0  0  0  0  0  0
   -0.7372   28.9259   59.4765 C   0  0  0  0  0  0
    0.3043   27.3401   57.8149 C   0  0  0  0  0  0
   -7.9895   28.1509   48.5819 C   0  0  0  0  0  0
   -6.5465   26.7809   54.7267 C   0  0  0  0  0  0
   -7.0667   29.1341   54.6140 C   0  0  0  0  0  0
   -9.8399   28.2365   46.6065 Cl  0  0  0  0  0  0
   -2.3391   24.9693   55.3186 O   0  0  0  0  0  0
   -1.2224   31.7259   56.1410 O   0  0  0  0  0  0
   -2.5395   27.1832   58.4961 H   0  0  0  0  0  0
   -3.0328   29.9549   55.8281 H   0  0  0  0  0  0
   -3.7116   30.9782   57.1077 H   0  0  0  0  0  0
  -11.0689   26.7429   48.6928 H   0  0  0  0  0  0
    0.4987   30.0226   57.2776 H   0  0  0  0  0  0
   -0.4007   29.2589   56.0168 H   0  0  0  0  0  0
   -1.4737   31.2420   58.0767 H   0  0  0  0  0  0
   -2.4124   25.1663   57.3442 H   0  0  0  0  0  0
   -6.7361   26.3601   51.9657 H   0  0  0  0  0  0
   -8.2874   25.7700   52.5061 H   0  0  0  0  0  0
   -6.5536   28.0793   50.1668 H   0  0  0  0  0  0
   -5.4087   26.1565   56.4399 H   0  0  0  0  0  0
   -6.2944   30.3637   56.1775 H   0  0  0  0  0  0
    0.2115   29.4172   59.6973 H   0  0  0  0  0  0
   -1.5323   29.6334   59.7143 H   0  0  0  0  0  0
   -0.8396   28.0979   60.1792 H   0  0  0  0  0  0
    1.2864   27.7156   58.1065 H   0  0  0  0  0  0
    0.1067   26.4594   58.4275 H   0  0  0  0  0  0
    0.3968   27.0033   56.7829 H   0  0  0  0  0  0
   -7.3543   28.7410   47.9362 H   0  0  0  0  0  0
   -6.6163   25.7766   54.3363 H   0  0  0  0  0  0
   -7.5348   29.9622   54.1103 H   0  0  0  0  0  0
   -3.1749   24.4558   55.4065 H   0  0  0  0  0  0
   -1.8119   32.4737   56.2652 H   0  0  0  0  0  0
  1  2  1  0  0  0
  1  7  1  0  0  0
  1  8  2  0  0  0
  1  9  2  0  0  0
  2  3  1  0  0  0
  2  6  1  0  0  0
  3  4  1  0  0  0
  3  5  1  0  0  0
  3 33  1  0  0  0
  4 25  1  0  0  0
  4 26  1  0  0  0
  4 13  1  0  0  0
  5 14  2  0  0  0
  5 16  1  0  0  0
  6 15  1  0  0  0
  6 34  1  0  0  0
  6 35  1  0  0  0
  7 19  1  0  0  0
  7 20  2  0  0  0
 10 11  2  0  0  0
 10 12  1  0  0  0
 10 23  1  0  0  0
 11 17  1  0  0  0
 11 18  1  0  0  0
 12 22  2  0  0  0
 12 36  1  0  0  0
 13 15  1  0  0  0
 13 37  1  0  0  0
 13 38  1  0  0  0
 15 32  1  0  0  0
 15 39  1  0  0  0
 16 31  1  0  0  0
 16 40  1  0  0  0
 17 21  1  0  0  0
 17 41  1  0  0  0
 17 42  1  0  0  0
 18 27  2  0  0  0
 18 43  1  0  0  0
 19 28  2  0  0  0
 19 44  1  0  0  0
 20 29  1  0  0  0
 20 45  1  0  0  0
 21 24  1  0  0  0
 22 27  1  0  0  0
 22 30  1  0  0  0
 24 29  2  0  0  0
 24 28  1  0  0  0
 25 46  1  0  0  0
 25 47  1  0  0  0
 25 48  1  0  0  0
 26 49  1  0  0  0
 26 50  1  0  0  0
 26 51  1  0  0  0
 27 52  1  0  0  0
 28 53  1  0  0  0
 29 54  1  0  0  0
 31 55  1  0  0  0
 32 56  1  0  0  0
M  END
> <s_m_entry_id>
64151

> <s_m_entry_name>
dock_pv.101

> <s_m_Source_Path>
/home/csk/Desktop/cluster/DUD-E-result/mmp13

> <s_m_Source_File>
dock_pv.maegz

> <i_m_Source_File_Index>
101

> <chembl_id>
CHEMBL179552

> <chembl_pref_name>
None

> <i_lp_mmshare_version>
53161

> <i_f3d_flags>
0

> <r_lp_tautomer_probability>
1

> <s_lp_Force_Field>
OPLS_2005

> <r_lp_Energy>
23.279783

> <b_lp_Chiralities_Consistent>
1

> <s_lp_Variant>
CHEMBL280_lig958-1

> <s_i_glide_gridfile>
glide-grid_830c

> <i_i_glide_lignum>
1605

> <i_i_glide_rotatable_bonds>
9

> <r_i_docking_score>
-7.64636307524988

> <r_i_glide_ligand_efficiency>
-0.238948846101559

> <r_i_glide_ligand_efficiency_sa>
-0.758615298460017

> <r_i_glide_ligand_efficiency_ln>
-1.71222912453379

> <r_i_glide_gscore>
-7.64636307524988

> <r_i_glide_lipo>
-3.50820113529767

> <r_i_glide_hbond>
-0.00428196211821575

> <r_i_glide_metal>
0

> <r_i_glide_rewards>
0.00619849806782295

> <r_i_glide_evdw>
-41.7722282409668

> <r_i_glide_ecoul>
-15.7478132247925

> <r_i_glide_erotb>
0.56461343668168

> <r_i_glide_esite>
-0.253908516816287

> <r_i_glide_emodel>
-85.4954738562661

> <r_i_glide_energy>
-57.5200414657593

> <r_i_glide_einternal>
11.5916776657104

> <i_i_glide_confnum>
40

> <i_i_glide_posenum>
36

> <r_i_glide_eff_state_penalty>
0

> <s_user_duplicate_titles>
CHEMBL280_lig958,300674

> <s_m_subgroup_title>
dock_pv

> <s_m_subgroupid>
dock_pv

> <b_m_subgroup_collapsed>
1

$$$$
CHEMBL280_lig2097
                    3D
 Schrodinger Suite 2021-1.
 41 43  0  0  1  0            999 V2000
   -6.3271   28.1130   53.0644 C   0  0  0  0  0  0
   -6.7394   28.1700   51.7437 C   0  0  0  0  0  0
   -7.6725   27.2754   51.2455 C   0  0  0  0  0  0
   -8.1551   26.2612   52.0812 C   0  0  0  0  0  0
   -7.6932   26.1698   53.3975 C   0  0  0  0  0  0
   -6.7755   27.0946   53.9049 C   0  0  0  0  0  0
   -6.3019   26.9924   55.3072 C   0  0  0  0  0  0
   -5.0854   27.3549   55.7880 C   0  0  0  0  0  0
   -3.6732   27.9474   54.9106 S   0  0  0  0  0  0
   -2.8684   28.3736   56.3831 C   0  0  0  0  0  0
   -3.5125   27.7555   57.4188 N   0  0  0  0  0  0
   -4.7782   27.3097   57.2024 C   0  0  0  0  0  0
   -5.5553   26.9700   58.0988 O   0  0  0  0  0  0
   -2.9117   27.7085   58.7769 C   0  0  0  0  0  0
   -1.8674   26.5749   58.8923 C   0  0  0  0  0  0
   -1.3584   26.5647   60.1570 O   0  0  0  0  0  0
   -1.5389   25.8256   57.9915 O   0  0  0  0  0  0
   -8.0561   27.4861   49.9398 O   0  0  0  0  0  0
   -9.1859   26.8071   49.4022 C   0  0  0  0  0  0
   -9.5402   27.3699   48.0253 C   0  0  0  0  0  0
  -10.6874   26.8996   47.3796 C   0  0  0  0  0  0
  -11.0272   27.3700   46.1127 C   0  0  0  0  0  0
  -10.2187   28.3175   45.4919 C   0  0  0  0  0  0
   -9.0775   28.8004   46.1264 C   0  0  0  0  0  0
   -8.7385   28.3283   47.3918 C   0  0  0  0  0  0
   -1.5331   29.3699   56.3582 S   0  0  0  0  0  0
   -5.6675   28.8880   53.4196 H   0  0  0  0  0  0
   -6.3715   28.9680   51.1137 H   0  0  0  0  0  0
   -8.8662   25.5400   51.7113 H   0  0  0  0  0  0
   -8.0511   25.3704   54.0210 H   0  0  0  0  0  0
   -7.0453   26.6210   56.0018 H   0  0  0  0  0  0
   -3.6806   27.5190   59.5262 H   0  0  0  0  0  0
   -2.4474   28.6645   59.0162 H   0  0  0  0  0  0
   -1.7291   27.2417   60.7258 H   0  0  0  0  0  0
   -8.9700   25.7420   49.3105 H   0  0  0  0  0  0
  -10.0476   26.9282   50.0623 H   0  0  0  0  0  0
  -11.3191   26.1701   47.8631 H   0  0  0  0  0  0
  -11.9139   27.0032   45.6150 H   0  0  0  0  0  0
  -10.4753   28.6842   44.5085 H   0  0  0  0  0  0
   -8.4486   29.5303   45.6371 H   0  0  0  0  0  0
   -7.8429   28.7071   47.8641 H   0  0  0  0  0  0
  1  6  1  0  0  0
  1  2  2  0  0  0
  1 27  1  0  0  0
  2  3  1  0  0  0
  2 28  1  0  0  0
  3  4  2  0  0  0
  3 18  1  0  0  0
  4  5  1  0  0  0
  4 29  1  0  0  0
  5  6  2  0  0  0
  5 30  1  0  0  0
  6  7  1  0  0  0
  7  8  2  0  0  0
  7 31  1  0  0  0
  8  9  1  0  0  0
  8 12  1  0  0  0
  9 10  1  0  0  0
 10 26  2  0  0  0
 10 11  1  0  0  0
 11 14  1  0  0  0
 11 12  1  0  0  0
 12 13  2  0  0  0
 14 15  1  0  0  0
 14 32  1  0  0  0
 14 33  1  0  0  0
 15 16  1  0  0  0
 15 17  2  0  0  0
 16 34  1  0  0  0
 18 19  1  0  0  0
 19 20  1  0  0  0
 19 35  1  0  0  0
 19 36  1  0  0  0
 20 21  2  0  0  0
 20 25  1  0  0  0
 21 22  1  0  0  0
 21 37  1  0  0  0
 22 23  2  0  0  0
 22 38  1  0  0  0
 23 24  1  0  0  0
 23 39  1  0  0  0
 24 25  2  0  0  0
 24 40  1  0  0  0
 25 41  1  0  0  0
M  END
> <s_m_entry_id>
64152

> <s_m_entry_name>
dock_pv.102

> <s_m_Source_Path>
/home/csk/Desktop/cluster/DUD-E-result/mmp13

> <s_m_Source_File>
dock_pv.maegz

> <i_m_Source_File_Index>
102

> <chembl_id>
CHEMBL185623

> <chembl_pref_name>
None

> <i_lp_mmshare_version>
53161

> <i_f3d_flags>
0

> <r_lp_tautomer_probability>
1

> <s_lp_Force_Field>
OPLS_2005

> <r_lp_Energy>
23.090047

> <b_lp_Chiralities_Consistent>
1

> <s_lp_Variant>
CHEMBL280_lig2097-1

> <s_i_glide_gridfile>
glide-grid_830c

> <i_i_glide_lignum>
2903

> <i_i_glide_rotatable_bonds>
7

> <r_i_docking_score>
-7.64572771548944

> <r_i_glide_ligand_efficiency>
-0.294066450595748

> <r_i_glide_ligand_efficiency_sa>
-0.871170702794293

> <r_i_glide_ligand_efficiency_ln>
-1.79557406630382

> <r_i_glide_gscore>
-7.64572771548944

> <r_i_glide_lipo>
-3.6493331417595

> <r_i_glide_hbond>
-0.683118007073488

> <r_i_glide_metal>
0

> <r_i_glide_rewards>
-0.777074197460165

> <r_i_glide_evdw>
-50.2745056152344

> <r_i_glide_ecoul>
-5.00686883926392

> <r_i_glide_erotb>
0.78557416742966

> <r_i_glide_esite>
-0.0570209299746366

> <r_i_glide_emodel>
-76.7243857754174

> <r_i_glide_energy>
-55.2813744544983

> <r_i_glide_einternal>
5.02408218383789

> <i_i_glide_confnum>
5

> <i_i_glide_posenum>
376

> <r_i_glide_eff_state_penalty>
0

> <s_user_duplicate_titles>
CHEMBL280_lig2097

> <s_m_subgroup_title>
dock_pv

> <s_m_subgroupid>
dock_pv

> <b_m_subgroup_collapsed>
1

$$$$
CHEMBL280_lig2557
                    3D
 Schrodinger Suite 2021-1.
 45 47  0  0  1  0            999 V2000
   -5.9368   28.7719   58.5095 O   0  0  0  0  0  0
   -5.8763   29.5979   57.3002 S   0  0  0  0  0  0
   -6.7122   30.7957   57.1708 O   0  0  0  0  0  0
   -4.2095   30.0971   57.0001 N   0  0  1  0  0  0
   -6.2858   28.5395   55.9221 C   0  0  0  0  0  0
   -6.7398   29.1365   54.7516 C   0  0  0  0  0  0
   -7.1539   28.3489   53.6892 C   0  0  0  0  0  0
   -7.0959   26.9524   53.7720 C   0  0  0  0  0  0
   -6.6047   26.3614   54.9382 C   0  0  0  0  0  0
   -6.2035   27.1486   56.0167 C   0  0  0  0  0  0
   -7.5396   26.1079   52.7718 O   0  0  0  0  0  0
   -7.9589   26.5701   51.5420 C   0  0  0  0  0  0
   -9.2134   26.1705   51.0827 C   0  0  0  0  0  0
   -9.6735   26.5932   49.8386 C   0  0  0  0  0  0
   -8.8659   27.4033   49.0456 C   0  0  0  0  0  0
   -7.6025   27.7883   49.4859 C   0  0  0  0  0  0
   -7.1447   27.3702   50.7318 C   0  0  0  0  0  0
   -2.0844   27.7650   57.1106 N   0  0  0  0  0  0
   -2.9635   28.2125   58.1992 C   0  0  0  0  0  0
   -3.1166   29.7118   57.9299 C   0  0  1  0  0  0
   -1.7327   30.0853   57.3933 C   0  0  2  0  0  0
   -1.2798   28.8672   56.5694 C   0  0  0  0  0  0
   -0.5661   30.4210   58.7508 S   0  0  0  0  0  0
   -2.1764   26.5606   56.4986 C   0  0  0  0  0  0
   -3.1390   25.7700   56.9099 N   0  0  0  0  0  0
   -1.4963   26.1701   55.5607 O   0  0  0  0  0  0
   -3.9480   29.9425   56.0222 H   0  0  0  0  0  0
   -6.7985   30.2121   54.6708 H   0  0  0  0  0  0
   -7.5389   28.8446   52.8128 H   0  0  0  0  0  0
   -6.5516   25.2843   55.0137 H   0  0  0  0  0  0
   -5.8525   26.6736   56.9210 H   0  0  0  0  0  0
   -9.8364   25.5381   51.6976 H   0  0  0  0  0  0
  -10.6496   26.2941   49.4873 H   0  0  0  0  0  0
   -9.2178   27.7315   48.0783 H   0  0  0  0  0  0
   -6.9752   28.4119   48.8643 H   0  0  0  0  0  0
   -6.1638   27.6714   51.0676 H   0  0  0  0  0  0
   -3.9281   27.7129   58.2057 H   0  0  0  0  0  0
   -2.4613   28.0955   59.1601 H   0  0  0  0  0  0
   -3.3423   30.2681   58.8420 H   0  0  0  0  0  0
   -1.7554   30.9957   56.7911 H   0  0  0  0  0  0
   -0.2084   28.6924   56.6794 H   0  0  0  0  0  0
   -1.5382   29.0483   55.5249 H   0  0  0  0  0  0
   -0.6145   29.2011   59.2941 H   0  0  0  0  0  0
   -3.3781   24.9064   56.4268 H   0  0  0  0  0  0
   -3.5720   25.9047   57.8150 H   0  0  0  0  0  0
  1  2  2  0  0  0
  2  3  2  0  0  0
  2  4  1  0  0  0
  2  5  1  0  0  0
  4 20  1  0  0  0
  4 27  1  0  0  0
  5  6  2  0  0  0
  5 10  1  0  0  0
  6  7  1  0  0  0
  6 28  1  0  0  0
  7  8  2  0  0  0
  7 29  1  0  0  0
  8  9  1  0  0  0
  8 11  1  0  0  0
  9 10  2  0  0  0
  9 30  1  0  0  0
 10 31  1  0  0  0
 11 12  1  0  0  0
 12 13  2  0  0  0
 12 17  1  0  0  0
 13 14  1  0  0  0
 13 32  1  0  0  0
 14 15  2  0  0  0
 14 33  1  0  0  0
 15 16  1  0  0  0
 15 34  1  0  0  0
 16 17  2  0  0  0
 16 35  1  0  0  0
 17 36  1  0  0  0
 18 19  1  0  0  0
 18 22  1  0  0  0
 18 24  1  0  0  0
 19 20  1  0  0  0
 19 37  1  0  0  0
 19 38  1  0  0  0
 20 21  1  0  0  0
 20 39  1  0  0  0
 21 22  1  0  0  0
 21 23  1  0  0  0
 21 40  1  0  0  0
 22 41  1  0  0  0
 22 42  1  0  0  0
 23 43  1  0  0  0
 24 25  1  0  0  0
 24 26  2  0  0  0
 25 44  1  0  0  0
 25 45  1  0  0  0
M  END
> <s_m_entry_id>
64153

> <s_m_entry_name>
dock_pv.103

> <s_m_Source_Path>
/home/csk/Desktop/cluster/DUD-E-result/mmp13

> <s_m_Source_File>
dock_pv.maegz

> <i_m_Source_File_Index>
103

> <chembl_id>
CHEMBL2380400

> <chembl_pref_name>
None

> <i_lp_mmshare_version>
53161

> <i_f3d_flags>
0

> <r_lp_tautomer_probability>
1

> <s_lp_Force_Field>
OPLS_2005

> <r_lp_Energy>
33.986824

> <b_lp_Chiralities_Consistent>
1

> <s_lp_Variant>
CHEMBL280_lig2557-1

> <s_i_glide_gridfile>
glide-grid_830c

> <i_i_glide_lignum>
3676

> <i_i_glide_rotatable_bonds>
7

> <r_i_docking_score>
-7.63382496190164

> <r_i_glide_ligand_efficiency>
-0.293608652380832

> <r_i_glide_ligand_efficiency_sa>
-0.869814477383956

> <r_i_glide_ligand_efficiency_ln>
-1.79277874367984

> <r_i_glide_gscore>
-7.63382496190164

> <r_i_glide_lipo>
-2.87746524025002

> <r_i_glide_hbond>
-0.319954957900848

> <r_i_glide_metal>
0

> <r_i_glide_rewards>
-0.667767726601969

> <r_i_glide_evdw>
-36.5873222351074

> <r_i_glide_ecoul>
-15.3153553009033

> <r_i_glide_erotb>
0.630868713085784

> <r_i_glide_esite>
-0.272836343343724

> <r_i_glide_emodel>
-72.8005962415339

> <r_i_glide_energy>
-51.9026775360107

> <r_i_glide_einternal>
7.79433345794678

> <i_i_glide_confnum>
60

> <i_i_glide_posenum>
181

> <r_i_glide_eff_state_penalty>
0

> <s_user_duplicate_titles>
CHEMBL280_lig2557

> <s_m_subgroup_title>
dock_pv

> <s_m_subgroupid>
dock_pv

> <b_m_subgroup_collapsed>
1

$$$$
CHEMBL280_lig1248
                    3D
 Schrodinger Suite 2021-1.
 42 44  0  0  1  0            999 V2000
   -2.3554   26.1774   56.5577 N   0  0  0  0  0  0
   -1.7946   26.1515   57.8101 C   0  0  0  0  0  0
   -1.8348   27.1937   58.6601 C   0  0  0  0  0  0
   -2.5775   28.3596   58.2146 C   0  0  0  0  0  0
   -3.1184   28.3911   56.9689 C   0  0  0  0  0  0
   -2.9089   27.3025   55.9961 C   0  0  0  0  0  0
   -3.1390   27.3700   54.7787 O   0  0  0  0  0  0
   -4.0507   29.3807   56.5997 N   0  0  0  0  0  0
   -5.7703   29.0724   56.9546 S   0  0  0  0  0  0
   -6.3626   28.1532   55.5410 C   0  0  0  0  0  0
   -5.8527   28.1677   58.1100 O   0  0  0  0  0  0
   -6.4882   30.3528   56.9639 O   0  0  0  0  0  0
   -6.2983   26.7585   55.5111 C   0  0  0  0  0  0
   -6.7956   26.0715   54.4060 C   0  0  0  0  0  0
   -7.3810   26.7616   53.3427 C   0  0  0  0  0  0
   -7.4315   28.1594   53.3863 C   0  0  0  0  0  0
   -6.9124   28.8537   54.4713 C   0  0  0  0  0  0
   -2.3390   25.0596   55.7100 O   0  0  0  0  0  0
   -7.9277   26.0118   52.3169 O   0  0  0  0  0  0
   -8.3390   26.5698   51.1240 C   0  0  0  0  0  0
   -9.6161   26.2650   50.6576 C   0  0  0  0  0  0
  -10.0670   26.7944   49.4508 C   0  0  0  0  0  0
   -9.2277   27.6108   48.6974 C   0  0  0  0  0  0
   -7.9390   27.8960   49.1404 C   0  0  0  0  0  0
   -7.4938   27.3700   50.3498 C   0  0  0  0  0  0
   -9.7879   28.2639   47.2022 Cl  0  0  0  0  0  0
   -3.5970   30.7873   56.5103 C   0  0  0  0  0  0
   -1.3350   25.2075   58.0590 H   0  0  0  0  0  0
   -1.3954   27.1452   59.6466 H   0  0  0  0  0  0
   -2.7859   29.1601   58.9100 H   0  0  0  0  0  0
   -5.8678   26.2053   56.3343 H   0  0  0  0  0  0
   -6.7390   24.9924   54.3834 H   0  0  0  0  0  0
   -7.8845   28.7153   52.5841 H   0  0  0  0  0  0
   -6.9542   29.9332   54.4863 H   0  0  0  0  0  0
   -3.1236   24.5480   55.9873 H   0  0  0  0  0  0
  -10.2604   25.6241   51.2408 H   0  0  0  0  0  0
  -11.0628   26.5715   49.0965 H   0  0  0  0  0  0
   -7.2817   28.5213   48.5526 H   0  0  0  0  0  0
   -6.4904   27.5896   50.6856 H   0  0  0  0  0  0
   -2.7180   30.8541   55.8685 H   0  0  0  0  0  0
   -4.3880   31.4203   56.1100 H   0  0  0  0  0  0
   -3.3353   31.1529   57.5033 H   0  0  0  0  0  0
  1  2  1  0  0  0
  1  6  1  0  0  0
  1 18  1  0  0  0
  2  3  2  0  0  0
  2 28  1  0  0  0
  3  4  1  0  0  0
  3 29  1  0  0  0
  4  5  2  0  0  0
  4 30  1  0  0  0
  5  8  1  0  0  0
  5  6  1  0  0  0
  6  7  2  0  0  0
  8  9  1  0  0  0
  8 27  1  0  0  0
  9 10  1  0  0  0
  9 11  2  0  0  0
  9 12  2  0  0  0
 10 17  1  0  0  0
 10 13  2  0  0  0
 13 14  1  0  0  0
 13 31  1  0  0  0
 14 15  2  0  0  0
 14 32  1  0  0  0
 15 16  1  0  0  0
 15 19  1  0  0  0
 16 17  2  0  0  0
 16 33  1  0  0  0
 17 34  1  0  0  0
 18 35  1  0  0  0
 19 20  1  0  0  0
 20 21  2  0  0  0
 20 25  1  0  0  0
 21 22  1  0  0  0
 21 36  1  0  0  0
 22 23  2  0  0  0
 22 37  1  0  0  0
 23 24  1  0  0  0
 23 26  1  0  0  0
 24 25  2  0  0  0
 24 38  1  0  0  0
 25 39  1  0  0  0
 27 40  1  0  0  0
 27 41  1  0  0  0
 27 42  1  0  0  0
M  END
> <s_m_entry_id>
64154

> <s_m_entry_name>
dock_pv.104

> <s_m_Source_Path>
/home/csk/Desktop/cluster/DUD-E-result/mmp13

> <s_m_Source_File>
dock_pv.maegz

> <i_m_Source_File_Index>
104

> <chembl_id>
CHEMBL257088

> <chembl_pref_name>
None

> <i_lp_mmshare_version>
53161

> <i_f3d_flags>
0

> <r_lp_tautomer_probability>
0.969612155137945

> <s_lp_Force_Field>
OPLS_2005

> <r_lp_Energy>
34.46322

> <b_lp_Chiralities_Consistent>
1

> <s_lp_Variant>
CHEMBL280_lig1248-1

> <s_i_glide_gridfile>
glide-grid_830c

> <i_i_glide_lignum>
1964

> <i_i_glide_rotatable_bonds>
6

> <r_i_docking_score>
-7.63064991868908

> <r_i_glide_ligand_efficiency>
-0.282616663655151

> <r_i_glide_ligand_efficiency_sa>
-0.847849990033995

> <r_i_glide_ligand_efficiency_ln>
-1.77628949997502

> <r_i_glide_gscore>
-7.63064991868908

> <r_i_glide_lipo>
-3.47554293717858

> <r_i_glide_hbond>
0

> <r_i_glide_metal>
0

> <r_i_glide_rewards>
-0.54997830902367

> <r_i_glide_evdw>
-49.3809700012207

> <r_i_glide_ecoul>
-10.7704563140869

> <r_i_glide_erotb>
0.594073282806894

> <r_i_glide_esite>
-0.114585008119651

> <r_i_glide_emodel>
-88.9331133816968

> <r_i_glide_energy>
-60.1514263153076

> <r_i_glide_einternal>
7.03812217712402

> <i_i_glide_confnum>
34

> <i_i_glide_posenum>
273

> <r_i_glide_eff_state_penalty>
0

> <s_user_duplicate_titles>
CHEMBL280_lig1248,437472

> <s_m_subgroup_title>
dock_pv

> <s_m_subgroupid>
dock_pv

> <b_m_subgroup_collapsed>
1

$$$$
CHEMBL280_lig1936
                    3D
 Schrodinger Suite 2021-1.
 39 40  0  0  1  0            999 V2000
   -8.0667   25.9307   51.9384 O   0  0  0  0  0  0
   -9.7374   26.3949   50.3075 C   0  0  0  0  0  0
   -7.5392   28.0106   53.1180 C   0  0  0  0  0  0
   -5.9389   27.7695   57.8840 O   0  0  0  0  0  0
   -7.9499   28.0075   48.8925 C   0  0  0  0  0  0
  -10.1481   27.0242   49.1355 C   0  0  0  0  0  0
   -6.6461   26.4812   55.2652 C   0  0  0  0  0  0
   -3.3019   26.9511   56.8788 C   0  0  0  0  0  0
   -3.4029   28.1147   55.8723 C   0  0  0  0  0  0
   -4.3468   29.1652   56.3088 N   0  0  2  0  0  0
   -6.7393   29.9803   56.8934 O   0  0  0  0  0  0
   -7.5733   26.6156   53.0315 C   0  0  0  0  0  0
   -8.4380   26.5739   50.7781 C   0  0  0  0  0  0
   -5.9871   28.7279   56.7722 S   0  0  0  0  0  0
   -9.2544   27.8327   48.4363 C   0  0  0  0  0  0
   -6.6125   27.8766   55.3297 C   0  0  0  0  0  0
   -7.0500   28.6404   54.2525 C   0  0  0  0  0  0
   -7.5392   27.3698   50.0593 C   0  0  0  0  0  0
   -7.1164   25.8603   54.1095 C   0  0  0  0  0  0
   -1.9732   26.2047   56.8173 C   0  0  0  0  0  0
   -1.3868   26.0139   58.0172 N   0  0  0  0  0  0
   -1.5395   25.8314   55.7155 O   0  0  0  0  0  0
   -0.1467   25.3702   58.1083 O   0  0  0  0  0  0
  -10.4244   25.7695   50.8578 H   0  0  0  0  0  0
   -7.8935   28.6163   52.3036 H   0  0  0  0  0  0
   -7.2567   28.6297   48.3447 H   0  0  0  0  0  0
  -11.1562   26.8955   48.7711 H   0  0  0  0  0  0
   -6.3076   25.8735   56.0938 H   0  0  0  0  0  0
   -4.1094   26.2329   56.7402 H   0  0  0  0  0  0
   -3.4257   27.3464   57.8896 H   0  0  0  0  0  0
   -2.4342   28.5933   55.7156 H   0  0  0  0  0  0
   -3.7427   27.7552   54.9002 H   0  0  0  0  0  0
   -4.3386   29.9828   55.6871 H   0  0  0  0  0  0
   -9.5738   28.3267   47.5301 H   0  0  0  0  0  0
   -7.0159   29.7202   54.2942 H   0  0  0  0  0  0
   -6.5252   27.5011   50.4076 H   0  0  0  0  0  0
   -7.1336   24.7822   54.0493 H   0  0  0  0  0  0
   -1.7412   26.3158   58.9153 H   0  0  0  0  0  0
    0.4738   26.0809   58.3004 H   0  0  0  0  0  0
  1 13  1  0  0  0
  1 12  1  0  0  0
  2 13  1  0  0  0
  2  6  2  0  0  0
  2 24  1  0  0  0
  3 12  2  0  0  0
  3 17  1  0  0  0
  3 25  1  0  0  0
  4 14  2  0  0  0
  5 18  1  0  0  0
  5 15  2  0  0  0
  5 26  1  0  0  0
  6 15  1  0  0  0
  6 27  1  0  0  0
  7 19  2  0  0  0
  7 16  1  0  0  0
  7 28  1  0  0  0
  8  9  1  0  0  0
  8 20  1  0  0  0
  8 29  1  0  0  0
  8 30  1  0  0  0
  9 10  1  0  0  0
  9 31  1  0  0  0
  9 32  1  0  0  0
 10 14  1  0  0  0
 10 33  1  0  0  0
 11 14  2  0  0  0
 12 19  1  0  0  0
 13 18  2  0  0  0
 14 16  1  0  0  0
 15 34  1  0  0  0
 16 17  2  0  0  0
 17 35  1  0  0  0
 18 36  1  0  0  0
 19 37  1  0  0  0
 20 21  1  0  0  0
 20 22  2  0  0  0
 21 23  1  0  0  0
 21 38  1  0  0  0
 23 39  1  0  0  0
M  END
> <s_m_entry_id>
64155

> <s_m_entry_name>
dock_pv.105

> <s_m_Source_Path>
/home/csk/Desktop/cluster/DUD-E-result/mmp13

> <s_m_Source_File>
dock_pv.maegz

> <i_m_Source_File_Index>
105

> <chembl_id>
CHEMBL2337696

> <chembl_pref_name>
None

> <i_lp_mmshare_version>
53161

> <i_f3d_flags>
0

> <r_lp_tautomer_probability>
1

> <s_lp_Force_Field>
OPLS_2005

> <r_lp_Energy>
18.832366

> <b_lp_Chiralities_Consistent>
1

> <s_lp_Variant>
CHEMBL280_lig1936-1

> <s_i_glide_gridfile>
glide-grid_830c

> <i_i_glide_lignum>
2705

> <i_i_glide_rotatable_bonds>
9

> <r_i_docking_score>
-7.62828407844865

> <r_i_glide_ligand_efficiency>
-0.331664525149941

> <r_i_glide_ligand_efficiency_sa>
-0.943209790476258

> <r_i_glide_ligand_efficiency_ln>
-1.84458825962467

> <r_i_glide_gscore>
-7.62828407844865

> <r_i_glide_lipo>
-3.37403101634393

> <r_i_glide_hbond>
-0.281878644374656

> <r_i_glide_metal>
0

> <r_i_glide_rewards>
-0.870538927790486

> <r_i_glide_evdw>
-43.9671401977539

> <r_i_glide_ecoul>
-13.7319536209106

> <r_i_glide_erotb>
1.33535822574128

> <r_i_glide_esite>
-0.17904366265656

> <r_i_glide_emodel>
-85.200695652076

> <r_i_glide_energy>
-57.6990938186646

> <r_i_glide_einternal>
8.80097675323486

> <i_i_glide_confnum>
191

> <i_i_glide_posenum>
178

> <r_i_glide_eff_state_penalty>
0

> <s_user_duplicate_titles>
CHEMBL280_lig1936

> <s_m_subgroup_title>
dock_pv

> <s_m_subgroupid>
dock_pv

> <b_m_subgroup_collapsed>
1

$$$$
CHEMBL280_lig2604
                    3D
 Schrodinger Suite 2021-1.
 61 62  0  0  1  0            999 V2000
   -1.6005   30.8954   56.2975 C   0  0  0  0  0  0
   -1.2208   29.6097   57.0460 C   0  0  0  0  0  0
   -1.7483   28.3274   56.3596 C   0  0  2  0  0  0
   -3.2129   28.2740   56.3683 N   0  0  0  0  0  0
   -3.9803   27.4142   55.6771 C   0  0  0  0  0  0
   -3.5103   26.5704   54.9099 O   0  0  0  0  0  0
   -5.4922   27.5394   55.9175 C   0  0  0  0  0  0
   -6.3904   26.5071   55.1864 C   0  0  0  0  0  0
   -6.8242   26.8037   53.7487 C   0  0  0  0  0  0
   -6.3647   27.8889   52.9992 C   0  0  0  0  0  0
   -6.8625   28.1089   51.7129 C   0  0  0  0  0  0
   -7.8345   27.2653   51.1474 C   0  0  0  0  0  0
   -8.2551   26.1701   51.9039 C   0  0  0  0  0  0
   -7.7473   25.9378   53.1744 C   0  0  0  0  0  0
   -8.4226   27.5058   49.7854 C   0  0  0  0  0  0
   -7.7249   28.2296   48.8098 C   0  0  0  0  0  0
   -8.2793   28.4769   47.5571 C   0  0  0  0  0  0
   -9.5415   27.9794   47.2521 C   0  0  0  0  0  0
  -10.2521   27.2469   48.1958 C   0  0  0  0  0  0
   -9.7004   27.0221   49.4538 C   0  0  0  0  0  0
   -1.1163   27.0267   56.9128 C   0  0  0  0  0  0
   -1.1383   26.0179   56.2060 O   0  0  0  0  0  0
   -0.5557   27.0786   58.1345 N   0  0  0  0  0  0
   -0.0595   25.9292   58.9091 C   0  0  1  0  0  0
    1.3374   25.4890   58.3937 C   0  0  0  0  0  0
    1.7391   24.0473   58.7805 C   0  0  0  0  0  0
    3.0379   23.6080   58.1080 C   0  0  0  0  0  0
    4.1229   24.1416   58.3229 O   0  0  0  0  0  0
    2.8629   22.5701   57.2393 O   0  0  0  0  0  0
   -0.1092   26.1736   60.4444 C   0  0  0  0  0  0
    0.4008   25.3698   61.2169 O   0  0  0  0  0  0
   -0.7390   27.2472   60.9206 N   0  0  0  0  0  0
   -1.2538   31.7766   56.8373 H   0  0  0  0  0  0
   -1.1394   30.9177   55.3104 H   0  0  0  0  0  0
   -2.6792   30.9928   56.1680 H   0  0  0  0  0  0
   -1.6060   29.6711   58.0650 H   0  0  0  0  0  0
   -0.1329   29.5733   57.1287 H   0  0  0  0  0  0
   -1.4637   28.3886   55.3099 H   0  0  0  0  0  0
   -3.6654   28.9490   56.9658 H   0  0  0  0  0  0
   -5.6489   27.4103   56.9893 H   0  0  0  0  0  0
   -5.8160   28.5544   55.6855 H   0  0  0  0  0  0
   -5.9395   25.5141   55.2098 H   0  0  0  0  0  0
   -7.3107   26.4131   55.7657 H   0  0  0  0  0  0
   -5.6307   28.5707   53.3997 H   0  0  0  0  0  0
   -6.4978   28.9687   51.1728 H   0  0  0  0  0  0
   -8.9589   25.4573   51.5023 H   0  0  0  0  0  0
   -8.0719   25.0649   53.7100 H   0  0  0  0  0  0
   -6.7394   28.6157   49.0114 H   0  0  0  0  0  0
   -7.7216   29.0390   46.8212 H   0  0  0  0  0  0
   -9.9707   28.1643   46.2785 H   0  0  0  0  0  0
  -11.2375   26.8711   47.9609 H   0  0  0  0  0  0
  -10.2938   26.4760   50.1707 H   0  0  0  0  0  0
   -0.5007   27.9688   58.6039 H   0  0  0  0  0  0
   -0.7549   25.1135   58.7151 H   0  0  0  0  0  0
    2.0947   26.1852   58.7574 H   0  0  0  0  0  0
    1.3680   25.5749   57.3102 H   0  0  0  0  0  0
    0.9399   23.3610   58.5103 H   0  0  0  0  0  0
    1.8873   23.9476   59.8550 H   0  0  0  0  0  0
    1.9583   22.2422   57.1871 H   0  0  0  0  0  0
   -0.7541   27.3843   61.9203 H   0  0  0  0  0  0
   -1.2398   27.8814   60.3228 H   0  0  0  0  0  0
  1  2  1  0  0  0
  1 33  1  0  0  0
  1 34  1  0  0  0
  1 35  1  0  0  0
  2  3  1  0  0  0
  2 36  1  0  0  0
  2 37  1  0  0  0
  3  4  1  0  0  0
  3 21  1  0  0  0
  3 38  1  0  0  0
  4  5  1  0  0  0
  4 39  1  0  0  0
  5  6  2  0  0  0
  5  7  1  0  0  0
  7  8  1  0  0  0
  7 40  1  0  0  0
  7 41  1  0  0  0
  8  9  1  0  0  0
  8 42  1  0  0  0
  8 43  1  0  0  0
  9 10  2  0  0  0
  9 14  1  0  0  0
 10 11  1  0  0  0
 10 44  1  0  0  0
 11 12  2  0  0  0
 11 45  1  0  0  0
 12 13  1  0  0  0
 12 15  1  0  0  0
 13 14  2  0  0  0
 13 46  1  0  0  0
 14 47  1  0  0  0
 15 16  2  0  0  0
 15 20  1  0  0  0
 16 17  1  0  0  0
 16 48  1  0  0  0
 17 18  2  0  0  0
 17 49  1  0  0  0
 18 19  1  0  0  0
 18 50  1  0  0  0
 19 20  2  0  0  0
 19 51  1  0  0  0
 20 52  1  0  0  0
 21 22  2  0  0  0
 21 23  1  0  0  0
 23 24  1  0  0  0
 23 53  1  0  0  0
 24 25  1  0  0  0
 24 30  1  0  0  0
 24 54  1  0  0  0
 25 26  1  0  0  0
 25 55  1  0  0  0
 25 56  1  0  0  0
 26 27  1  0  0  0
 26 57  1  0  0  0
 26 58  1  0  0  0
 27 28  2  0  0  0
 27 29  1  0  0  0
 29 59  1  0  0  0
 30 31  2  0  0  0
 30 32  1  0  0  0
 32 60  1  0  0  0
 32 61  1  0  0  0
M  END
> <s_m_entry_id>
64156

> <s_m_entry_name>
dock_pv.106

> <s_m_Source_Path>
/home/csk/Desktop/cluster/DUD-E-result/mmp13

> <s_m_Source_File>
dock_pv.maegz

> <i_m_Source_File_Index>
106

> <chembl_id>
CHEMBL3675544

> <chembl_pref_name>
None

> <i_lp_mmshare_version>
53161

> <i_f3d_flags>
0

> <r_lp_tautomer_probability>
1

> <s_lp_Force_Field>
OPLS_2005

> <r_lp_Energy>
9.800037

> <b_lp_Chiralities_Consistent>
1

> <s_lp_Variant>
CHEMBL280_lig2604-1

> <s_i_glide_gridfile>
glide-grid_830c

> <i_i_glide_lignum>
3725

> <i_i_glide_rotatable_bonds>
15

> <r_i_docking_score>
-7.61950313874974

> <r_i_glide_ligand_efficiency>
-0.23810947308593

> <r_i_glide_ligand_efficiency_sa>
-0.755950455247088

> <r_i_glide_ligand_efficiency_ln>
-1.70621445257719

> <r_i_glide_gscore>
-7.61950313874974

> <r_i_glide_lipo>
-3.73573955945994

> <r_i_glide_hbond>
-0.16998393663557

> <r_i_glide_metal>
0

> <r_i_glide_rewards>
-0.507711307817403

> <r_i_glide_evdw>
-47.6645812988281

> <r_i_glide_ecoul>
-12.573676109314

> <r_i_glide_erotb>
1.23990822952062

> <r_i_glide_esite>
-0.176696083018945

> <r_i_glide_emodel>
-92.0543736480585

> <r_i_glide_energy>
-60.2382574081421

> <r_i_glide_einternal>
10.4221639633179

> <i_i_glide_confnum>
25

> <i_i_glide_posenum>
119

> <r_i_glide_eff_state_penalty>
0

> <s_user_duplicate_titles>
CHEMBL280_lig2604

> <s_m_subgroup_title>
dock_pv

> <s_m_subgroupid>
dock_pv

> <b_m_subgroup_collapsed>
1

$$$$
CHEMBL280_lig257
                    3D
 Schrodinger Suite 2021-1.
 38 40  0  0  1  0            999 V2000
   -3.5398   27.1282   56.0728 C   0  0  0  0  0  0
   -3.2981   28.1759   56.8809 N   0  0  0  0  0  0
   -4.4437   28.7166   57.6313 C   0  0  1  0  0  0
   -5.0258   26.7831   56.2709 C   0  0  1  0  0  0
   -4.9133   30.1045   57.1138 C   0  0  0  0  0  0
   -5.4976   27.6186   57.4547 C   0  0  0  0  0  0
   -5.8565   26.9143   54.9852 C   0  0  0  0  0  0
   -2.7394   26.5704   55.3100 O   0  0  0  0  0  0
   -7.2700   27.0471   52.5507 C   0  0  0  0  0  0
   -7.9393   27.0956   51.2141 C   0  0  0  0  0  0
   -6.1069   30.4122   57.1821 O   0  0  0  0  0  0
   -3.9637   30.9522   56.6764 N   0  0  0  0  0  0
   -5.8061   28.0691   54.2025 C   0  0  0  0  0  0
   -6.6761   25.8587   54.5813 C   0  0  0  0  0  0
   -7.3715   25.9248   53.3771 C   0  0  0  0  0  0
   -6.4963   28.1261   52.9962 C   0  0  0  0  0  0
   -9.1748   26.4857   50.9762 C   0  0  0  0  0  0
   -7.3260   27.7697   50.1543 C   0  0  0  0  0  0
   -9.1880   27.3300   48.7125 C   0  0  0  0  0  0
   -7.9395   27.9000   48.9122 C   0  0  0  0  0  0
   -9.7977   26.6155   49.7369 C   0  0  0  0  0  0
   -9.8027   27.4497   47.5146 F   0  0  0  0  0  0
   -4.3677   32.1701   56.1106 O   0  0  0  0  0  0
   -2.3727   28.5663   56.9734 H   0  0  0  0  0  0
   -4.1581   28.8340   58.6773 H   0  0  0  0  0  0
   -5.0511   25.7427   56.5751 H   0  0  0  0  0  0
   -5.4917   26.9885   58.3462 H   0  0  0  0  0  0
   -6.5267   27.9689   57.3529 H   0  0  0  0  0  0
   -2.9759   30.7737   56.5724 H   0  0  0  0  0  0
   -5.2061   28.9127   54.5084 H   0  0  0  0  0  0
   -6.7379   24.9598   55.1790 H   0  0  0  0  0  0
   -7.9388   25.0648   53.0669 H   0  0  0  0  0  0
   -6.4056   29.0167   52.3944 H   0  0  0  0  0  0
   -9.6736   25.9297   51.7550 H   0  0  0  0  0  0
   -6.3450   28.1705   50.3002 H   0  0  0  0  0  0
   -7.4410   28.4281   48.1119 H   0  0  0  0  0  0
  -10.7540   26.1688   49.5590 H   0  0  0  0  0  0
   -4.3386   31.9840   55.1607 H   0  0  0  0  0  0
  1  2  1  0  0  0
  1  4  1  0  0  0
  1  8  2  0  0  0
  2  3  1  0  0  0
  2 24  1  0  0  0
  3  5  1  0  0  0
  3  6  1  0  0  0
  3 25  1  0  0  0
  4  6  1  0  0  0
  4  7  1  0  0  0
  4 26  1  0  0  0
  5 11  2  0  0  0
  5 12  1  0  0  0
  6 27  1  0  0  0
  6 28  1  0  0  0
  7 13  1  0  0  0
  7 14  2  0  0  0
  9 15  2  0  0  0
  9 10  1  0  0  0
  9 16  1  0  0  0
 10 17  2  0  0  0
 10 18  1  0  0  0
 12 23  1  0  0  0
 12 29  1  0  0  0
 13 16  2  0  0  0
 13 30  1  0  0  0
 14 15  1  0  0  0
 14 31  1  0  0  0
 15 32  1  0  0  0
 16 33  1  0  0  0
 17 21  1  0  0  0
 17 34  1  0  0  0
 18 20  2  0  0  0
 18 35  1  0  0  0
 19 20  1  0  0  0
 19 22  1  0  0  0
 19 21  2  0  0  0
 20 36  1  0  0  0
 21 37  1  0  0  0
 23 38  1  0  0  0
M  END
> <s_m_entry_id>
64157

> <s_m_entry_name>
dock_pv.107

> <s_m_Source_Path>
/home/csk/Desktop/cluster/DUD-E-result/mmp13

> <s_m_Source_File>
dock_pv.maegz

> <i_m_Source_File_Index>
107

> <chembl_id>
CHEMBL20160

> <chembl_pref_name>
None

> <i_lp_mmshare_version>
53161

> <i_f3d_flags>
0

> <r_lp_tautomer_probability>
1

> <s_lp_Force_Field>
OPLS_2005

> <r_lp_Energy>
33.687006

> <b_lp_Chiralities_Consistent>
1

> <s_lp_Variant>
CHEMBL280_lig257-1

> <s_i_glide_gridfile>
glide-grid_830c

> <i_i_glide_lignum>
355

> <i_i_glide_rotatable_bonds>
5

> <r_i_docking_score>
-7.61861706702583

> <r_i_glide_ligand_efficiency>
-0.331244220305471

> <r_i_glide_ligand_efficiency_sa>
-0.942014499408846

> <r_i_glide_ligand_efficiency_ln>
-1.84225068860702

> <r_i_glide_gscore>
-7.61861706702583

> <r_i_glide_lipo>
-3.28318926378616

> <r_i_glide_hbond>
0

> <r_i_glide_metal>
0

> <r_i_glide_rewards>
-1.41355360459338

> <r_i_glide_evdw>
-39.1439666748047

> <r_i_glide_ecoul>
-10.5660037994385

> <r_i_glide_erotb>
0.752558081761463

> <r_i_glide_esite>
-0.132333376751748

> <r_i_glide_emodel>
-75.5525582244952

> <r_i_glide_energy>
-49.7099704742432

> <r_i_glide_einternal>
3.04125213623047

> <i_i_glide_confnum>
28

> <i_i_glide_posenum>
305

> <r_i_glide_eff_state_penalty>
0

> <s_user_duplicate_titles>
CHEMBL280_lig257,23800

> <s_m_subgroup_title>
dock_pv

> <s_m_subgroupid>
dock_pv

> <b_m_subgroup_collapsed>
1

$$$$
CHEMBL280_lig1745
                    3D
 Schrodinger Suite 2021-1.
 46 48  0  0  1  0            999 V2000
   -2.9475   28.5212   56.8915 C   0  0  0  0  0  0
   -2.5026   29.7856   56.0823 C   0  0  0  0  0  0
   -2.2605   31.0516   56.9256 C   0  0  0  0  0  0
   -1.3600   30.7460   57.9807 O   0  0  0  0  0  0
   -1.8895   29.7940   58.8925 C   0  0  0  0  0  0
   -2.0738   28.4331   58.1869 C   0  0  0  0  0  0
   -4.8237   28.6298   57.3678 S   0  0  0  0  0  0
   -5.0687   27.7400   58.5099 O   0  0  0  0  0  0
   -5.2166   30.0394   57.4615 O   0  0  0  0  0  0
   -5.7661   27.9315   56.0021 C   0  0  0  0  0  0
   -6.3392   28.7449   55.0208 C   0  0  0  0  0  0
   -7.0778   28.1700   53.9839 C   0  0  0  0  0  0
   -7.2160   26.7758   53.9073 C   0  0  0  0  0  0
   -6.6470   25.9818   54.8978 C   0  0  0  0  0  0
   -5.9391   26.5506   55.9472 C   0  0  0  0  0  0
   -7.9395   26.1040   52.9410 O   0  0  0  0  0  0
   -2.7208   27.2698   55.9908 C   0  0  0  0  0  0
   -2.7390   27.3700   54.7597 O   0  0  0  0  0  0
   -2.5425   26.0692   56.5651 N   0  0  0  0  0  0
   -2.3390   24.9700   55.7100 O   0  0  0  0  0  0
   -8.1774   26.5820   51.6699 C   0  0  0  0  0  0
   -9.3527   26.1700   51.0385 C   0  0  0  0  0  0
   -9.6379   26.5808   49.7388 C   0  0  0  0  0  0
   -8.7297   27.3841   49.0573 C   0  0  0  0  0  0
   -7.5390   27.7700   49.6644 C   0  0  0  0  0  0
   -7.2601   27.3700   50.9668 C   0  0  0  0  0  0
   -9.0057   27.7890   47.7802 O   0  0  0  0  0  0
   -3.2306   30.0043   55.3100 H   0  0  0  0  0  0
   -1.5700   29.5909   55.5477 H   0  0  0  0  0  0
   -3.1870   31.4712   57.3183 H   0  0  0  0  0  0
   -1.8183   31.8323   56.3057 H   0  0  0  0  0  0
   -2.8312   30.1578   59.3100 H   0  0  0  0  0  0
   -1.1960   29.6936   59.7277 H   0  0  0  0  0  0
   -1.0765   28.0560   57.9504 H   0  0  0  0  0  0
   -2.4966   27.7188   58.8953 H   0  0  0  0  0  0
   -6.2217   29.8184   55.0648 H   0  0  0  0  0  0
   -7.5386   28.8093   53.2464 H   0  0  0  0  0  0
   -6.7390   24.9067   54.8510 H   0  0  0  0  0  0
   -5.5115   25.9044   56.7020 H   0  0  0  0  0  0
   -2.6200   25.8212   57.5455 H   0  0  0  0  0  0
   -3.1747   24.4571   55.7936 H   0  0  0  0  0  0
  -10.0494   25.5327   51.5619 H   0  0  0  0  0  0
  -10.5529   26.2734   49.2557 H   0  0  0  0  0  0
   -6.8222   28.3791   49.1322 H   0  0  0  0  0  0
   -6.3207   27.6601   51.4125 H   0  0  0  0  0  0
   -8.3046   28.3284   47.4051 H   0  0  0  0  0  0
  1  7  1  0  0  0
  1  2  1  0  0  0
  1 17  1  0  0  0
  1  6  1  0  0  0
  2  3  1  0  0  0
  2 28  1  0  0  0
  2 29  1  0  0  0
  3  4  1  0  0  0
  3 30  1  0  0  0
  3 31  1  0  0  0
  4  5  1  0  0  0
  5  6  1  0  0  0
  5 32  1  0  0  0
  5 33  1  0  0  0
  6 34  1  0  0  0
  6 35  1  0  0  0
  7  9  2  0  0  0
  7 10  1  0  0  0
  7  8  2  0  0  0
 10 15  1  0  0  0
 10 11  2  0  0  0
 11 12  1  0  0  0
 11 36  1  0  0  0
 12 13  2  0  0  0
 12 37  1  0  0  0
 13 16  1  0  0  0
 13 14  1  0  0  0
 14 15  2  0  0  0
 14 38  1  0  0  0
 15 39  1  0  0  0
 16 21  1  0  0  0
 17 18  2  0  0  0
 17 19  1  0  0  0
 19 20  1  0  0  0
 19 40  1  0  0  0
 20 41  1  0  0  0
 21 22  2  0  0  0
 21 26  1  0  0  0
 22 23  1  0  0  0
 22 42  1  0  0  0
 23 24  2  0  0  0
 23 43  1  0  0  0
 24 25  1  0  0  0
 24 27  1  0  0  0
 25 26  2  0  0  0
 25 44  1  0  0  0
 26 45  1  0  0  0
 27 46  1  0  0  0
M  END
> <s_m_entry_id>
64158

> <s_m_entry_name>
dock_pv.108

> <s_m_Source_Path>
/home/csk/Desktop/cluster/DUD-E-result/mmp13

> <s_m_Source_File>
dock_pv.maegz

> <i_m_Source_File_Index>
108

> <chembl_id>
CHEMBL1801048

> <chembl_pref_name>
None

> <i_lp_mmshare_version>
53161

> <i_f3d_flags>
0

> <r_lp_tautomer_probability>
1

> <s_lp_Force_Field>
OPLS_2005

> <r_lp_Energy>
27.554055

> <b_lp_Chiralities_Consistent>
1

> <s_lp_Variant>
CHEMBL280_lig1745-1

> <s_i_glide_gridfile>
glide-grid_830c

> <i_i_glide_lignum>
2496

> <i_i_glide_rotatable_bonds>
8

> <r_i_docking_score>
-7.61784166132654

> <r_i_glide_ligand_efficiency>
-0.282142283752835

> <r_i_glide_ligand_efficiency_sa>
-0.84642685032861

> <r_i_glide_ligand_efficiency_ln>
-1.77330794882165

> <r_i_glide_gscore>
-7.61784166132654

> <r_i_glide_lipo>
-2.68716842640755

> <r_i_glide_hbond>
-0.0157941458331182

> <r_i_glide_metal>
0

> <r_i_glide_rewards>
-0.726729445505152

> <r_i_glide_evdw>
-42.4394187927246

> <r_i_glide_ecoul>
-17.4625606536865

> <r_i_glide_erotb>
0.757286306424147

> <r_i_glide_esite>
-0.20408091231566

> <r_i_glide_emodel>
-89.409982105049

> <r_i_glide_energy>
-59.9019794464111

> <r_i_glide_einternal>
8.49781227111816

> <i_i_glide_confnum>
26

> <i_i_glide_posenum>
390

> <r_i_glide_eff_state_penalty>
0

> <s_user_duplicate_titles>
CHEMBL280_lig1745

> <s_m_subgroup_title>
dock_pv

> <s_m_subgroupid>
dock_pv

> <b_m_subgroup_collapsed>
1

$$$$
CHEMBL280_lig620
                    3D
 Schrodinger Suite 2021-1.
 47 49  0  0  1  0            999 V2000
   -5.7452   28.8778   57.0572 S   0  0  0  0  0  0
   -2.8632   29.2116   56.8393 C   0  0  0  0  0  0
   -4.2535   29.6679   56.5106 N   0  0  1  0  0  0
   -2.5401   27.7203   56.4822 C   0  0  0  0  0  0
   -6.3230   27.9677   55.6293 C   0  0  0  0  0  0
   -5.4343   27.9134   58.1191 O   0  0  0  0  0  0
   -6.7295   29.9434   57.2675 O   0  0  0  0  0  0
   -1.5394   27.1588   56.9366 O   0  0  0  0  0  0
   -3.3643   27.1045   55.6191 N   0  0  0  0  0  0
   -1.9279   30.1167   55.9931 C   0  0  0  0  0  0
   -2.6427   29.4977   58.3462 C   0  0  0  0  0  0
   -0.4935   30.5405   57.9003 O   0  0  0  0  0  0
   -7.7969   25.9451   52.2830 O   0  0  0  0  0  0
   -6.3483   26.5710   55.5991 C   0  0  0  0  0  0
   -6.7540   28.7009   54.5276 C   0  0  0  0  0  0
   -7.2671   26.6454   53.3546 C   0  0  0  0  0  0
   -8.2677   26.5710   51.1450 C   0  0  0  0  0  0
   -9.2706   27.7700   48.8336 C   0  0  0  0  0  0
   -7.2340   28.0394   53.4078 C   0  0  0  0  0  0
   -6.7771   25.9197   54.4433 C   0  0  0  0  0  0
   -9.9006   28.5206   47.4151 Cl  0  0  0  0  0  0
   -3.1308   25.7699   55.3105 O   0  0  0  0  0  0
   -9.5916   26.3681   50.7650 C   0  0  0  0  0  0
   -7.4424   27.3704   50.3450 C   0  0  0  0  0  0
   -7.9389   27.9631   49.1881 C   0  0  0  0  0  0
  -10.1011   26.9790   49.6229 C   0  0  0  0  0  0
   -1.1564   29.6117   58.7555 C   0  0  0  0  0  0
   -0.4794   30.1593   56.5284 C   0  0  0  0  0  0
   -4.3395   30.2031   55.6371 H   0  0  0  0  0  0
   -4.2347   27.4675   55.2444 H   0  0  0  0  0  0
   -2.3045   31.1412   55.9645 H   0  0  0  0  0  0
   -1.9100   29.7766   54.9551 H   0  0  0  0  0  0
   -3.1147   28.6988   58.9101 H   0  0  0  0  0  0
   -3.1513   30.4170   58.6426 H   0  0  0  0  0  0
   -6.0115   25.9903   56.4484 H   0  0  0  0  0  0
   -6.7410   29.7805   54.5464 H   0  0  0  0  0  0
   -7.5838   28.6104   52.5735 H   0  0  0  0  0  0
   -6.7388   24.8419   54.4006 H   0  0  0  0  0  0
   -3.8246   25.2582   55.7723 H   0  0  0  0  0  0
  -10.2395   25.7588   51.3729 H   0  0  0  0  0  0
   -6.4163   27.5361   50.6318 H   0  0  0  0  0  0
   -7.2918   28.5776   48.5784 H   0  0  0  0  0  0
  -11.1367   26.8560   49.3493 H   0  0  0  0  0  0
   -1.0800   29.9769   59.7800 H   0  0  0  0  0  0
   -0.6469   28.6487   58.7455 H   0  0  0  0  0  0
    0.1047   30.8924   55.9698 H   0  0  0  0  0  0
    0.0315   29.2043   56.4073 H   0  0  0  0  0  0
  1  3  1  0  0  0
  1  5  1  0  0  0
  1  6  2  0  0  0
  1  7  2  0  0  0
  2  3  1  0  0  0
  2  4  1  0  0  0
  2 10  1  0  0  0
  2 11  1  0  0  0
  3 29  1  0  0  0
  4  8  2  0  0  0
  4  9  1  0  0  0
  5 14  2  0  0  0
  5 15  1  0  0  0
  9 22  1  0  0  0
  9 30  1  0  0  0
 10 28  1  0  0  0
 10 31  1  0  0  0
 10 32  1  0  0  0
 11 27  1  0  0  0
 11 33  1  0  0  0
 11 34  1  0  0  0
 12 27  1  0  0  0
 12 28  1  0  0  0
 13 16  1  0  0  0
 13 17  1  0  0  0
 14 20  1  0  0  0
 14 35  1  0  0  0
 15 19  2  0  0  0
 15 36  1  0  0  0
 16 19  1  0  0  0
 16 20  2  0  0  0
 17 23  1  0  0  0
 17 24  2  0  0  0
 18 25  2  0  0  0
 18 21  1  0  0  0
 18 26  1  0  0  0
 19 37  1  0  0  0
 20 38  1  0  0  0
 22 39  1  0  0  0
 23 26  2  0  0  0
 23 40  1  0  0  0
 24 25  1  0  0  0
 24 41  1  0  0  0
 25 42  1  0  0  0
 26 43  1  0  0  0
 27 44  1  0  0  0
 27 45  1  0  0  0
 28 46  1  0  0  0
 28 47  1  0  0  0
M  END
> <s_m_entry_id>
64159

> <s_m_entry_name>
dock_pv.109

> <s_m_Source_Path>
/home/csk/Desktop/cluster/DUD-E-result/mmp13

> <s_m_Source_File>
dock_pv.maegz

> <i_m_Source_File_Index>
109

> <chembl_id>
CHEMBL321257

> <chembl_pref_name>
None

> <i_lp_mmshare_version>
53161

> <i_f3d_flags>
0

> <r_lp_tautomer_probability>
1

> <s_lp_Force_Field>
OPLS_2005

> <r_lp_Energy>
23.917005

> <b_lp_Chiralities_Consistent>
1

> <s_lp_Variant>
CHEMBL280_lig620-1

> <s_i_glide_gridfile>
glide-grid_830c

> <i_i_glide_lignum>
899

> <i_i_glide_rotatable_bonds>
8

> <r_i_docking_score>
-7.61752685293871

> <r_i_glide_ligand_efficiency>
-0.272054530462097

> <r_i_glide_ligand_efficiency_sa>
-0.826117786032416

> <r_i_glide_ligand_efficiency_ln>
-1.7583488579653

> <r_i_glide_gscore>
-7.61752685293871

> <r_i_glide_lipo>
-3.33250039597471

> <r_i_glide_hbond>
-0.307284792777572

> <r_i_glide_metal>
0

> <r_i_glide_rewards>
-0.0632616829801351

> <r_i_glide_evdw>
-46.855297088623

> <r_i_glide_ecoul>
-14.3147134780884

> <r_i_glide_erotb>
0.76253785787661

> <r_i_glide_esite>
-0.187045962938495

> <r_i_glide_emodel>
-88.9595158778057

> <r_i_glide_energy>
-61.1700105667114

> <r_i_glide_einternal>
9.65958499908447

> <i_i_glide_confnum>
123

> <i_i_glide_posenum>
231

> <r_i_glide_eff_state_penalty>
0

> <s_user_duplicate_titles>
CHEMBL280_lig620

> <s_m_subgroup_title>
dock_pv

> <s_m_subgroupid>
dock_pv

> <b_m_subgroup_collapsed>
1

$$$$
CHEMBL280_lig1727
                    3D
 Schrodinger Suite 2021-1.
 49 52  0  0  1  0            999 V2000
   -3.0630   28.5065   56.8688 C   0  0  0  0  0  0
   -2.6288   29.7750   56.0695 C   0  0  0  0  0  0
   -2.4211   31.0554   56.9001 C   0  0  0  0  0  0
   -1.4887   30.8082   57.9957 N   0  0  2  0  0  0
   -2.0058   29.7887   58.9010 C   0  0  0  0  0  0
   -2.2050   28.4358   58.1781 C   0  0  0  0  0  0
   -4.9558   28.5795   57.2876 S   0  0  0  0  0  0
   -5.2229   27.6504   58.3950 O   0  0  0  0  0  0
   -5.3639   29.9824   57.4160 O   0  0  0  0  0  0
   -5.8520   27.9242   55.8591 C   0  0  0  0  0  0
   -6.4090   28.7587   54.8851 C   0  0  0  0  0  0
   -7.0773   28.2068   53.7861 C   0  0  0  0  0  0
   -7.2028   26.8186   53.6526 C   0  0  0  0  0  0
   -6.6600   26.0034   54.6412 C   0  0  0  0  0  0
   -6.0046   26.5469   55.7422 C   0  0  0  0  0  0
   -7.8917   26.1694   52.6413 O   0  0  0  0  0  0
   -2.7787   27.2640   55.9746 C   0  0  0  0  0  0
   -2.7408   27.3693   54.7441 O   0  0  0  0  0  0
   -2.6026   26.0656   56.5545 N   0  0  0  0  0  0
   -2.3392   24.9719   55.7097 O   0  0  0  0  0  0
   -8.2502   26.7334   51.4330 C   0  0  0  0  0  0
   -7.3688   27.5100   50.6606 C   0  0  0  0  0  0
   -9.9335   26.8625   49.6533 C   0  0  0  0  0  0
   -9.5137   26.4005   50.9075 C   0  0  0  0  0  0
   -9.0488   27.6503   48.9338 C   0  0  0  0  0  0
   -7.8084   27.9526   49.4144 C   0  0  0  0  0  0
   -7.1399   28.6716   48.4765 O   0  0  0  0  0  0
   -8.1005   29.0353   47.5234 C   0  0  0  0  0  0
   -9.2025   28.1863   47.6946 O   0  0  0  0  0  0
   -3.3787   29.9674   55.3102 H   0  0  0  0  0  0
   -1.7108   29.6181   55.4977 H   0  0  0  0  0  0
   -3.3667   31.4338   57.2916 H   0  0  0  0  0  0
   -2.0071   31.8419   56.2675 H   0  0  0  0  0  0
   -1.3385   31.6682   58.5075 H   0  0  0  0  0  0
   -2.9564   30.1393   59.3096 H   0  0  0  0  0  0
   -1.3134   29.6742   59.7367 H   0  0  0  0  0  0
   -1.2118   28.0188   57.9930 H   0  0  0  0  0  0
   -2.6612   27.7403   58.8849 H   0  0  0  0  0  0
   -6.3406   29.8318   54.9808 H   0  0  0  0  0  0
   -7.5034   28.8607   53.0476 H   0  0  0  0  0  0
   -6.7403   24.9321   54.5460 H   0  0  0  0  0  0
   -5.6047   25.8868   56.5000 H   0  0  0  0  0  0
   -2.7197   25.8124   57.5302 H   0  0  0  0  0  0
   -3.1675   24.4423   55.7642 H   0  0  0  0  0  0
   -6.3766   27.7398   51.0164 H   0  0  0  0  0  0
  -10.9009   26.6039   49.2541 H   0  0  0  0  0  0
  -10.1726   25.7669   51.4782 H   0  0  0  0  0  0
   -7.6918   28.9552   46.5141 H   0  0  0  0  0  0
   -8.4027   30.0701   47.7000 H   0  0  0  0  0  0
  1  7  1  0  0  0
  1  2  1  0  0  0
  1 17  1  0  0  0
  1  6  1  0  0  0
  2  3  1  0  0  0
  2 30  1  0  0  0
  2 31  1  0  0  0
  3  4  1  0  0  0
  3 32  1  0  0  0
  3 33  1  0  0  0
  4  5  1  0  0  0
  4 34  1  0  0  0
  5  6  1  0  0  0
  5 35  1  0  0  0
  5 36  1  0  0  0
  6 37  1  0  0  0
  6 38  1  0  0  0
  7 10  1  0  0  0
  7  8  2  0  0  0
  7  9  2  0  0  0
 10 15  1  0  0  0
 10 11  2  0  0  0
 11 12  1  0  0  0
 11 39  1  0  0  0
 12 13  2  0  0  0
 12 40  1  0  0  0
 13 16  1  0  0  0
 13 14  1  0  0  0
 14 15  2  0  0  0
 14 41  1  0  0  0
 15 42  1  0  0  0
 16 21  1  0  0  0
 17 18  2  0  0  0
 17 19  1  0  0  0
 19 20  1  0  0  0
 19 43  1  0  0  0
 20 44  1  0  0  0
 21 22  2  0  0  0
 21 24  1  0  0  0
 22 26  1  0  0  0
 22 45  1  0  0  0
 23 25  1  0  0  0
 23 24  2  0  0  0
 23 46  1  0  0  0
 24 47  1  0  0  0
 25 26  2  0  0  0
 25 29  1  0  0  0
 26 27  1  0  0  0
 27 28  1  0  0  0
 28 29  1  0  0  0
 28 48  1  0  0  0
 28 49  1  0  0  0
M  END
> <s_m_entry_id>
64160

> <s_m_entry_name>
dock_pv.110

> <s_m_Source_Path>
/home/csk/Desktop/cluster/DUD-E-result/mmp13

> <s_m_Source_File>
dock_pv.maegz

> <i_m_Source_File_Index>
110

> <chembl_id>
CHEMBL1801419

> <chembl_pref_name>
None

> <i_lp_mmshare_version>
53161

> <i_f3d_flags>
0

> <r_lp_tautomer_probability>
1

> <s_lp_Force_Field>
OPLS_2005

> <r_lp_Energy>
45.576892

> <b_lp_Chiralities_Consistent>
1

> <s_lp_Variant>
CHEMBL280_lig1727-1

> <s_i_glide_gridfile>
glide-grid_830c

> <i_i_glide_lignum>
2478

> <i_i_glide_rotatable_bonds>
7

> <r_i_docking_score>
-7.61286035266983

> <r_i_glide_ligand_efficiency>
-0.262512425954132

> <r_i_glide_ligand_efficiency_sa>
-0.806521342305225

> <r_i_glide_ligand_efficiency_ln>
-1.74315197527927

> <r_i_glide_gscore>
-7.61286035266983

> <r_i_glide_lipo>
-2.76148637567976

> <r_i_glide_hbond>
-0.0551929295385537

> <r_i_glide_metal>
0

> <r_i_glide_rewards>
-0.587553759382742

> <r_i_glide_evdw>
-44.6157875061035

> <r_i_glide_ecoul>
-16.2500514984131

> <r_i_glide_erotb>
0.671811882749086

> <r_i_glide_esite>
-0.212142070750722

> <r_i_glide_emodel>
-88.3862294117324

> <r_i_glide_energy>
-60.8658390045166

> <r_i_glide_einternal>
8.37150573730469

> <i_i_glide_confnum>
5

> <i_i_glide_posenum>
187

> <r_i_glide_eff_state_penalty>
0

> <s_user_duplicate_titles>
CHEMBL280_lig1727

> <s_m_subgroup_title>
dock_pv

> <s_m_subgroupid>
dock_pv

> <b_m_subgroup_collapsed>
1

$$$$
CHEMBL280_lig1937
                    3D
 Schrodinger Suite 2021-1.
 36 37  0  0  1  0            999 V2000
   -5.6052   28.7663   57.2103 S   0  0  0  0  0  0
   -3.9669   29.2289   56.7825 N   0  0  3  0  0  0
   -2.6663   27.2456   56.1137 C   0  0  0  0  0  0
   -2.8198   28.3995   57.1160 C   0  0  0  0  0  0
   -6.2276   27.9467   55.7481 C   0  0  0  0  0  0
   -5.5390   27.7724   58.2907 O   0  0  0  0  0  0
   -6.3761   30.0035   57.3616 O   0  0  0  0  0  0
   -2.7390   27.4397   54.8981 O   0  0  0  0  0  0
   -2.4398   26.0273   56.6203 N   0  0  0  0  0  0
   -6.7396   28.7136   54.7015 C   0  0  0  0  0  0
   -6.2148   26.5551   55.6587 C   0  0  0  0  0  0
   -7.8693   25.9827   52.4538 O   0  0  0  0  0  0
   -7.2925   26.6874   53.4936 C   0  0  0  0  0  0
   -7.2831   28.0853   53.5854 C   0  0  0  0  0  0
   -6.7390   25.9343   54.5286 C   0  0  0  0  0  0
   -8.2700   26.5691   51.2726 C   0  0  0  0  0  0
   -2.3390   24.9700   55.7100 O   0  0  0  0  0  0
   -7.4195   27.3805   50.5169 C   0  0  0  0  0  0
   -9.5391   26.2615   50.7864 C   0  0  0  0  0  0
   -7.8559   27.9189   49.3095 C   0  0  0  0  0  0
   -9.9810   26.8033   49.5816 C   0  0  0  0  0  0
   -9.1381   27.6350   48.8496 C   0  0  0  0  0  0
   -3.8546   29.9419   56.0545 H   0  0  0  0  0  0
   -2.9155   28.0125   58.1323 H   0  0  0  0  0  0
   -1.9048   28.9920   57.1098 H   0  0  0  0  0  0
   -2.5072   25.7309   57.5880 H   0  0  0  0  0  0
   -6.7408   29.7927   54.7609 H   0  0  0  0  0  0
   -5.8108   25.9474   56.4574 H   0  0  0  0  0  0
   -7.7105   28.6919   52.8043 H   0  0  0  0  0  0
   -6.7382   24.8555   54.4672 H   0  0  0  0  0  0
   -3.1826   24.4779   55.8274 H   0  0  0  0  0  0
   -6.4190   27.5964   50.8631 H   0  0  0  0  0  0
  -10.1850   25.6048   51.3495 H   0  0  0  0  0  0
   -7.1970   28.5542   48.7342 H   0  0  0  0  0  0
  -10.9700   26.5768   49.2114 H   0  0  0  0  0  0
   -9.4748   28.0545   47.9125 H   0  0  0  0  0  0
  1  2  1  0  0  0
  1  5  1  0  0  0
  1  6  2  0  0  0
  1  7  2  0  0  0
  2  4  1  0  0  0
  2 23  1  0  0  0
  3  4  1  0  0  0
  3  8  2  0  0  0
  3  9  1  0  0  0
  4 24  1  0  0  0
  4 25  1  0  0  0
  5 10  2  0  0  0
  5 11  1  0  0  0
  9 17  1  0  0  0
  9 26  1  0  0  0
 10 14  1  0  0  0
 10 27  1  0  0  0
 11 15  2  0  0  0
 11 28  1  0  0  0
 12 13  1  0  0  0
 12 16  1  0  0  0
 13 15  1  0  0  0
 13 14  2  0  0  0
 14 29  1  0  0  0
 15 30  1  0  0  0
 16 18  1  0  0  0
 16 19  2  0  0  0
 17 31  1  0  0  0
 18 20  2  0  0  0
 18 32  1  0  0  0
 19 21  1  0  0  0
 19 33  1  0  0  0
 20 22  1  0  0  0
 20 34  1  0  0  0
 21 22  2  0  0  0
 21 35  1  0  0  0
 22 36  1  0  0  0
M  END
> <s_m_entry_id>
64161

> <s_m_entry_name>
dock_pv.111

> <s_m_Source_Path>
/home/csk/Desktop/cluster/DUD-E-result/mmp13

> <s_m_Source_File>
dock_pv.maegz

> <i_m_Source_File_Index>
111

> <chembl_id>
CHEMBL198778

> <chembl_pref_name>
None

> <i_lp_mmshare_version>
53161

> <i_f3d_flags>
0

> <r_lp_tautomer_probability>
1

> <s_lp_Force_Field>
OPLS_2005

> <r_lp_Energy>
22.950124

> <b_lp_Chiralities_Consistent>
1

> <s_lp_Variant>
CHEMBL280_lig1937-1

> <s_i_glide_gridfile>
glide-grid_830c

> <i_i_glide_lignum>
2706

> <i_i_glide_rotatable_bonds>
8

> <r_i_docking_score>
-7.60942408843277

> <r_i_glide_ligand_efficiency>
-0.34588291311058

> <r_i_glide_ligand_efficiency_sa>
-0.969177525338916

> <r_i_glide_ligand_efficiency_ln>
-1.86002080770055

> <r_i_glide_gscore>
-7.60942408843277

> <r_i_glide_lipo>
-2.91105049881035

> <r_i_glide_hbond>
-0.010408809191294

> <r_i_glide_metal>
0

> <r_i_glide_rewards>
-1.24232262034263

> <r_i_glide_evdw>
-41.5184707641602

> <r_i_glide_ecoul>
-16.0062103271484

> <r_i_glide_erotb>
1.25977788124381

> <r_i_glide_esite>
-0.228564954052027

> <r_i_glide_emodel>
-86.1927263536285

> <r_i_glide_energy>
-57.5246810913086

> <r_i_glide_einternal>
4.71764469146729

> <i_i_glide_confnum>
12

> <i_i_glide_posenum>
172

> <r_i_glide_eff_state_penalty>
0

> <s_user_duplicate_titles>
CHEMBL280_lig1937

> <s_m_subgroup_title>
dock_pv

> <s_m_subgroupid>
dock_pv

> <b_m_subgroup_collapsed>
1

$$$$
CHEMBL280_lig241
                    3D
 Schrodinger Suite 2021-1.
 41 43  0  0  1  0            999 V2000
   -5.2197   28.2204   57.3774 C   0  0  0  0  0  0
   -5.1013   28.7329   56.1299 N   0  0  0  0  0  0
   -3.9691   28.2727   57.8660 N   0  0  0  0  0  0
   -2.9238   28.4328   56.8717 C   0  0  1  0  0  0
   -2.2206   27.1147   56.5136 C   0  0  0  0  0  0
   -3.7300   28.9775   55.7140 C   0  0  0  0  0  0
   -6.2554   29.2001   55.3510 C   0  0  0  0  0  0
   -6.2115   27.7705   57.9403 O   0  0  0  0  0  0
   -1.0235   26.9817   56.7666 O   0  0  0  0  0  0
   -2.9549   26.1746   55.8980 N   0  0  0  0  0  0
   -6.7463   28.2128   54.2953 C   0  0  0  0  0  0
   -6.9267   27.7714   50.6335 O   0  0  0  0  0  0
   -7.1408   27.5533   51.9747 C   0  0  0  0  0  0
   -6.6356   28.4612   52.9191 C   0  0  0  0  0  0
   -7.9191   27.8132   49.6672 C   0  0  0  0  0  0
   -9.7279   27.9670   47.5406 C   0  0  0  0  0  0
  -10.6012   28.0304   46.5105 F   0  0  0  0  0  0
   -2.3388   24.9700   55.6093 O   0  0  0  0  0  0
   -9.2214   27.3053   49.8030 C   0  0  0  0  0  0
   -7.5554   28.4184   48.4617 C   0  0  0  0  0  0
   -8.4524   28.5030   47.4014 C   0  0  0  0  0  0
  -10.1142   27.3696   48.7367 C   0  0  0  0  0  0
   -7.9416   26.1914   53.7789 C   0  0  0  0  0  0
   -7.4064   27.0620   54.7141 C   0  0  0  0  0  0
   -7.7710   26.3972   52.4221 C   0  0  0  0  0  0
   -3.7937   28.4611   58.8416 H   0  0  0  0  0  0
   -2.1685   29.1498   57.2000 H   0  0  0  0  0  0
   -3.5374   30.0508   55.6528 H   0  0  0  0  0  0
   -3.5109   28.5375   54.7400 H   0  0  0  0  0  0
   -7.0959   29.3978   56.0196 H   0  0  0  0  0  0
   -6.0209   30.1645   54.9068 H   0  0  0  0  0  0
   -3.9563   26.1660   55.7322 H   0  0  0  0  0  0
   -6.1696   29.3699   52.5735 H   0  0  0  0  0  0
   -2.8836   24.3308   56.1063 H   0  0  0  0  0  0
   -9.5727   26.8579   50.7166 H   0  0  0  0  0  0
   -6.5587   28.8168   48.3453 H   0  0  0  0  0  0
   -8.1513   28.9664   46.4728 H   0  0  0  0  0  0
  -11.1127   26.9680   48.8368 H   0  0  0  0  0  0
   -8.5257   25.3712   54.1099 H   0  0  0  0  0  0
   -7.5447   26.8584   55.7660 H   0  0  0  0  0  0
   -8.1324   25.6587   51.7230 H   0  0  0  0  0  0
  1  2  1  0  0  0
  1  3  1  0  0  0
  1  8  2  0  0  0
  2  6  1  0  0  0
  2  7  1  0  0  0
  3  4  1  0  0  0
  3 26  1  0  0  0
  4  5  1  0  0  0
  4  6  1  0  0  0
  4 27  1  0  0  0
  5  9  2  0  0  0
  5 10  1  0  0  0
  6 28  1  0  0  0
  6 29  1  0  0  0
  7 11  1  0  0  0
  7 30  1  0  0  0
  7 31  1  0  0  0
 10 18  1  0  0  0
 10 32  1  0  0  0
 11 14  2  0  0  0
 11 24  1  0  0  0
 12 13  1  0  0  0
 12 15  1  0  0  0
 13 14  1  0  0  0
 13 25  2  0  0  0
 14 33  1  0  0  0
 15 19  1  0  0  0
 15 20  2  0  0  0
 16 21  2  0  0  0
 16 17  1  0  0  0
 16 22  1  0  0  0
 18 34  1  0  0  0
 19 22  2  0  0  0
 19 35  1  0  0  0
 20 21  1  0  0  0
 20 36  1  0  0  0
 21 37  1  0  0  0
 22 38  1  0  0  0
 23 24  2  0  0  0
 23 25  1  0  0  0
 23 39  1  0  0  0
 24 40  1  0  0  0
 25 41  1  0  0  0
M  END
> <s_m_entry_id>
64162

> <s_m_entry_name>
dock_pv.112

> <s_m_Source_Path>
/home/csk/Desktop/cluster/DUD-E-result/mmp13

> <s_m_Source_File>
dock_pv.maegz

> <i_m_Source_File_Index>
112

> <chembl_id>
CHEMBL19876

> <chembl_pref_name>
None

> <i_lp_mmshare_version>
53161

> <i_f3d_flags>
0

> <r_lp_tautomer_probability>
1

> <s_lp_Force_Field>
OPLS_2005

> <r_lp_Energy>
45.072411

> <b_lp_Chiralities_Consistent>
1

> <s_lp_Variant>
CHEMBL280_lig241-1

> <s_i_glide_gridfile>
glide-grid_830c

> <i_i_glide_lignum>
337

> <i_i_glide_rotatable_bonds>
7

> <r_i_docking_score>
-7.59438150417281

> <r_i_glide_ligand_efficiency>
-0.303775260166913

> <r_i_glide_ligand_efficiency_sa>
-0.888244248205231

> <r_i_glide_ligand_efficiency_ln>
-1.80009600173763

> <r_i_glide_gscore>
-7.59438150417281

> <r_i_glide_lipo>
-3.5437009138193

> <r_i_glide_hbond>
-0.309850442815891

> <r_i_glide_metal>
0

> <r_i_glide_rewards>
-1.0545022448819

> <r_i_glide_evdw>
-33.1063575744629

> <r_i_glide_ecoul>
-11.9389657974243

> <r_i_glide_erotb>
0.955899295817082

> <r_i_glide_esite>
-0.196064450136014

> <r_i_glide_emodel>
-71.3210169582264

> <r_i_glide_energy>
-45.0453233718872

> <r_i_glide_einternal>
7.89804267883301

> <i_i_glide_confnum>
45

> <i_i_glide_posenum>
248

> <r_i_glide_eff_state_penalty>
0

> <s_user_duplicate_titles>
CHEMBL280_lig241,23288

> <s_m_subgroup_title>
dock_pv

> <s_m_subgroupid>
dock_pv

> <b_m_subgroup_collapsed>
1

$$$$
CHEMBL280_lig391
                    3D
 Schrodinger Suite 2021-1.
 36 37  0  0  1  0            999 V2000
   -5.5387   28.0632   57.4553 S   0  0  0  0  0  0
   -3.8487   27.8052   57.0640 N   0  0  1  0  0  0
   -3.5015   26.5135   56.4298 C   0  0  2  0  0  0
   -2.0552   26.1699   56.8150 C   0  0  0  0  0  0
   -6.3833   27.8213   55.9043 C   0  0  0  0  0  0
   -5.9364   26.9700   58.3421 O   0  0  0  0  0  0
   -5.7009   29.4653   57.8489 O   0  0  0  0  0  0
   -7.3079   27.3384   53.2997 C   0  0  0  0  0  0
   -7.8118   27.1102   51.9114 C   0  0  0  0  0  0
   -1.1390   26.1700   55.9930 O   0  0  0  0  0  0
   -6.3563   28.8408   54.9585 C   0  0  0  0  0  0
   -6.9146   26.5704   55.5733 C   0  0  0  0  0  0
   -6.7961   28.5834   53.6661 C   0  0  0  0  0  0
   -7.3709   26.3413   54.2767 C   0  0  0  0  0  0
   -7.2489   27.7701   50.8110 C   0  0  0  0  0  0
   -8.9128   26.2821   51.6874 C   0  0  0  0  0  0
   -1.9389   25.7699   58.1112 O   0  0  0  0  0  0
   -9.0001   26.9515   49.3790 C   0  0  0  0  0  0
   -9.4917   26.1875   50.4286 C   0  0  0  0  0  0
   -7.8553   27.7208   49.5569 C   0  0  0  0  0  0
   -9.9391   26.9717   47.7225 Br  0  0  0  0  0  0
   -3.6168   26.5696   54.9100 C   0  0  0  0  0  0
   -3.3972   28.6298   56.6596 H   0  0  0  0  0  0
   -4.1595   25.7450   56.8424 H   0  0  0  0  0  0
   -5.9390   29.8076   55.2017 H   0  0  0  0  0  0
   -6.9163   25.7590   56.2879 H   0  0  0  0  0  0
   -6.7376   29.3701   52.9347 H   0  0  0  0  0  0
   -7.7478   25.3700   54.0171 H   0  0  0  0  0  0
   -6.3718   28.3895   50.9307 H   0  0  0  0  0  0
   -9.3801   25.7700   52.5099 H   0  0  0  0  0  0
   -2.8101   25.6313   58.5106 H   0  0  0  0  0  0
  -10.3435   25.5515   50.2788 H   0  0  0  0  0  0
   -7.4468   28.2950   48.7377 H   0  0  0  0  0  0
   -3.5390   25.5508   54.5374 H   0  0  0  0  0  0
   -4.5756   26.9032   54.5504 H   0  0  0  0  0  0
   -2.8945   27.2718   54.4877 H   0  0  0  0  0  0
  1  2  1  0  0  0
  1  5  1  0  0  0
  1  6  2  0  0  0
  1  7  2  0  0  0
  2  3  1  0  0  0
  2 23  1  0  0  0
  3  4  1  0  0  0
  3 22  1  0  0  0
  3 24  1  0  0  0
  4 10  2  0  0  0
  4 17  1  0  0  0
  5 11  1  0  0  0
  5 12  2  0  0  0
  8 14  2  0  0  0
  8  9  1  0  0  0
  8 13  1  0  0  0
  9 15  1  0  0  0
  9 16  2  0  0  0
 11 13  2  0  0  0
 11 25  1  0  0  0
 12 14  1  0  0  0
 12 26  1  0  0  0
 13 27  1  0  0  0
 14 28  1  0  0  0
 15 20  2  0  0  0
 15 29  1  0  0  0
 16 19  1  0  0  0
 16 30  1  0  0  0
 17 31  1  0  0  0
 18 19  2  0  0  0
 18 21  1  0  0  0
 18 20  1  0  0  0
 19 32  1  0  0  0
 20 33  1  0  0  0
 22 34  1  0  0  0
 22 35  1  0  0  0
 22 36  1  0  0  0
M  END
> <s_m_entry_id>
64163

> <s_m_entry_name>
dock_pv.113

> <s_m_Source_Path>
/home/csk/Desktop/cluster/DUD-E-result/mmp13

> <s_m_Source_File>
dock_pv.maegz

> <i_m_Source_File_Index>
113

> <chembl_id>
CHEMBL432307

> <chembl_pref_name>
None

> <i_lp_mmshare_version>
53161

> <i_f3d_flags>
0

> <r_lp_tautomer_probability>
1

> <s_lp_Force_Field>
OPLS_2005

> <r_lp_Energy>
11.362374

> <b_lp_Chiralities_Consistent>
1

> <s_lp_Variant>
CHEMBL280_lig391-1

> <s_i_glide_gridfile>
glide-grid_830c

> <i_i_glide_lignum>
563

> <i_i_glide_rotatable_bonds>
6

> <r_i_docking_score>
-7.58892184857958

> <r_i_glide_ligand_efficiency>
-0.344950993117253

> <r_i_glide_ligand_efficiency_sa>
-0.966566248867281

> <r_i_glide_ligand_efficiency_ln>
-1.85500931244306

> <r_i_glide_gscore>
-7.58892184857958

> <r_i_glide_lipo>
-3.33364640348378

> <r_i_glide_hbond>
-0.060648682919999

> <r_i_glide_metal>
0

> <r_i_glide_rewards>
-0.513089225805262

> <r_i_glide_evdw>
-39.3959121704102

> <r_i_glide_ecoul>
-14.7799816131592

> <r_i_glide_erotb>
0.6583559615952

> <r_i_glide_esite>
-0.153100647471346

> <r_i_glide_emodel>
-78.1018459635176

> <r_i_glide_energy>
-54.1758937835693

> <r_i_glide_einternal>
3.30685186386108

> <i_i_glide_confnum>
78

> <i_i_glide_posenum>
105

> <r_i_glide_eff_state_penalty>
0

> <s_user_duplicate_titles>
CHEMBL280_lig391,66210

> <s_m_subgroup_title>
dock_pv

> <s_m_subgroupid>
dock_pv

> <b_m_subgroup_collapsed>
1

$$$$
CHEMBL280_lig2099
                    3D
 Schrodinger Suite 2021-1.
 32 34  0  0  1  0            999 V2000
   -3.2638   27.1660   56.7413 C   0  0  0  0  0  0
   -3.9808   27.8521   57.6583 N   0  0  0  0  0  0
   -5.2208   28.2738   57.3650 C   0  0  0  0  0  0
   -5.5526   27.8989   56.0090 C   0  0  0  0  0  0
   -4.2218   26.9700   55.3092 S   0  0  0  0  0  0
   -1.7267   26.5697   56.8826 S   0  0  0  0  0  0
   -5.9376   28.8691   58.1666 O   0  0  0  0  0  0
   -6.7380   28.2236   55.4463 C   0  0  0  0  0  0
   -7.1595   27.8177   54.0952 C   0  0  0  0  0  0
   -6.3831   28.1697   52.9954 C   0  0  0  0  0  0
   -6.7424   27.7556   51.7224 C   0  0  0  0  0  0
   -7.8758   26.9685   51.5281 C   0  0  0  0  0  0
   -8.6529   26.6106   52.6249 C   0  0  0  0  0  0
   -8.3092   27.0456   53.9059 C   0  0  0  0  0  0
   -8.1855   26.4261   50.3041 O   0  0  0  0  0  0
   -8.6307   27.2092   49.2650 C   0  0  0  0  0  0
   -7.8232   28.1707   48.6477 C   0  0  0  0  0  0
   -8.2769   28.8515   47.5217 C   0  0  0  0  0  0
   -9.5324   28.5558   46.9990 C   0  0  0  0  0  0
  -10.3389   27.5951   47.6018 C   0  0  0  0  0  0
   -9.8917   26.9297   48.7397 C   0  0  0  0  0  0
   -3.5927   28.0358   58.5703 H   0  0  0  0  0  0
   -7.4325   28.8500   55.9870 H   0  0  0  0  0  0
   -5.4871   28.7516   53.1307 H   0  0  0  0  0  0
   -6.0859   27.9896   50.9095 H   0  0  0  0  0  0
   -9.5157   25.9794   52.4748 H   0  0  0  0  0  0
   -8.9104   26.7471   54.7525 H   0  0  0  0  0  0
   -6.8237   28.3720   48.9963 H   0  0  0  0  0  0
   -7.6436   29.5833   47.0402 H   0  0  0  0  0  0
   -9.8788   29.0726   46.1158 H   0  0  0  0  0  0
  -11.3130   27.3708   47.1934 H   0  0  0  0  0  0
  -10.5050   26.1689   49.1976 H   0  0  0  0  0  0
  1  5  1  0  0  0
  1  2  1  0  0  0
  1  6  2  0  0  0
  2  3  1  0  0  0
  2 22  1  0  0  0
  3  7  2  0  0  0
  3  4  1  0  0  0
  4  8  2  0  0  0
  4  5  1  0  0  0
  8  9  1  0  0  0
  8 23  1  0  0  0
  9 14  1  0  0  0
  9 10  2  0  0  0
 10 11  1  0  0  0
 10 24  1  0  0  0
 11 12  2  0  0  0
 11 25  1  0  0  0
 12 13  1  0  0  0
 12 15  1  0  0  0
 13 14  2  0  0  0
 13 26  1  0  0  0
 14 27  1  0  0  0
 15 16  1  0  0  0
 16 17  2  0  0  0
 16 21  1  0  0  0
 17 18  1  0  0  0
 17 28  1  0  0  0
 18 19  2  0  0  0
 18 29  1  0  0  0
 19 20  1  0  0  0
 19 30  1  0  0  0
 20 21  2  0  0  0
 20 31  1  0  0  0
 21 32  1  0  0  0
M  END
> <s_m_entry_id>
64164

> <s_m_entry_name>
dock_pv.114

> <s_m_Source_Path>
/home/csk/Desktop/cluster/DUD-E-result/mmp13

> <s_m_Source_File>
dock_pv.maegz

> <i_m_Source_File_Index>
114

> <chembl_id>
CHEMBL1645389

> <chembl_pref_name>
None

> <i_lp_mmshare_version>
53161

> <i_f3d_flags>
0

> <r_lp_tautomer_probability>
1

> <s_lp_Force_Field>
OPLS_2005

> <r_lp_Energy>
18.516633

> <b_lp_Chiralities_Consistent>
1

> <s_lp_Variant>
CHEMBL280_lig2099-1

> <s_i_glide_gridfile>
glide-grid_830c

> <i_i_glide_lignum>
2905

> <i_i_glide_rotatable_bonds>
3

> <r_i_docking_score>
-7.58385248172734

> <r_i_glide_ligand_efficiency>
-0.361135832463207

> <r_i_glide_ligand_efficiency_sa>
-0.99634637812913

> <r_i_glide_ligand_efficiency_ln>
-1.8750922014902

> <r_i_glide_gscore>
-7.58385248172734

> <r_i_glide_lipo>
-3.9417209258065

> <r_i_glide_hbond>
-0.0988151243566013

> <r_i_glide_metal>
0

> <r_i_glide_rewards>
-1.27229972727273

> <r_i_glide_evdw>
-44.2369422912598

> <r_i_glide_ecoul>
-3.24296236038208

> <r_i_glide_erotb>
0.56731925307967

> <r_i_glide_esite>
-0.140044488750887

> <r_i_glide_emodel>
-65.8614524642729

> <r_i_glide_energy>
-47.4799046516418

> <r_i_glide_einternal>
6.63746166229248

> <i_i_glide_confnum>
12

> <i_i_glide_posenum>
313

> <r_i_glide_eff_state_penalty>
0

> <s_user_duplicate_titles>
CHEMBL280_lig2099

> <s_m_subgroup_title>
dock_pv

> <s_m_subgroupid>
dock_pv

> <b_m_subgroup_collapsed>
1

$$$$
CHEMBL280_lig937
                    3D
 Schrodinger Suite 2021-1.
 52 54  0  0  1  0            999 V2000
   -4.2136   27.0044   55.8643 S   0  0  0  0  0  0
   -3.4585   28.7727   56.0597 C   0  0  1  0  0  0
   -4.2901   29.7943   56.9169 C   0  0  2  0  0  0
   -5.8292   29.6864   56.6595 C   0  0  0  0  0  0
   -8.1529   29.5303   47.5936 C   0  0  0  0  0  0
   -5.4912   27.0728   54.5753 C   0  0  0  0  0  0
   -9.0273   28.3059   47.8566 C   0  0  0  0  0  0
   -3.1357   26.1699   55.3100 O   0  0  0  0  0  0
   -4.8706   26.6124   57.1127 O   0  0  0  0  0  0
   -6.4960   28.8804   57.3085 O   0  0  0  0  0  0
   -8.9207   27.4721   49.0074 C   0  0  0  0  0  0
   -6.3752   30.4581   55.7021 N   0  0  0  0  0  0
   -3.8631   31.0968   56.5100 O   0  0  0  0  0  0
   -2.0046   28.6522   56.5898 C   0  0  0  0  0  0
   -4.0148   29.6240   58.4416 C   0  0  0  0  0  0
   -7.9073   27.6988   50.1370 C   0  0  0  0  0  0
   -7.9899   29.7667   46.2914 F   0  0  0  0  0  0
   -8.7388   30.6039   48.1100 F   0  0  0  0  0  0
   -6.9481   29.3692   48.1130 F   0  0  0  0  0  0
   -2.6116   29.5782   58.7071 O   0  0  0  0  0  0
   -5.3348   27.9259   53.4904 C   0  0  0  0  0  0
   -6.6052   26.2264   54.6028 C   0  0  0  0  0  0
   -8.2082   26.9701   51.3504 O   0  0  0  0  0  0
   -7.3321   27.0650   52.4266 C   0  0  0  0  0  0
   -6.2470   27.9444   52.4457 C   0  0  0  0  0  0
   -7.5139   26.2250   53.5332 C   0  0  0  0  0  0
   -7.7239   30.2777   55.3645 O   0  0  0  0  0  0
   -1.9562   28.4655   58.1120 C   0  0  0  0  0  0
   -9.9525   27.9864   46.8535 C   0  0  0  0  0  0
   -9.7423   26.3507   49.0950 C   0  0  0  0  0  0
  -10.7387   26.8516   46.9476 C   0  0  0  0  0  0
  -10.6114   26.0392   48.0620 C   0  0  0  0  0  0
   -3.3839   29.1033   55.0311 H   0  0  0  0  0  0
   -5.8791   31.0685   55.0648 H   0  0  0  0  0  0
   -3.9392   31.1657   55.5505 H   0  0  0  0  0  0
   -1.4677   29.5739   56.3572 H   0  0  0  0  0  0
   -1.4502   27.8578   56.0932 H   0  0  0  0  0  0
   -4.4690   28.7146   58.8412 H   0  0  0  0  0  0
   -4.4471   30.4509   59.0085 H   0  0  0  0  0  0
   -7.9144   28.7509   50.3727 H   0  0  0  0  0  0
   -6.9160   27.4247   49.7703 H   0  0  0  0  0  0
   -4.4827   28.5700   53.4079 H   0  0  0  0  0  0
   -6.7383   25.5384   55.4271 H   0  0  0  0  0  0
   -6.0543   28.6195   51.6272 H   0  0  0  0  0  0
   -8.3410   25.5346   53.5455 H   0  0  0  0  0  0
   -7.6879   29.7078   54.5910 H   0  0  0  0  0  0
   -0.9233   28.4390   58.4608 H   0  0  0  0  0  0
   -2.4167   27.5231   58.4170 H   0  0  0  0  0  0
  -10.0496   28.6059   45.9729 H   0  0  0  0  0  0
   -9.6674   25.6684   49.9300 H   0  0  0  0  0  0
  -11.4201   26.5903   46.1517 H   0  0  0  0  0  0
  -11.1390   25.1071   48.1100 H   0  0  0  0  0  0
  1  2  1  0  0  0
  1  6  1  0  0  0
  1  8  2  0  0  0
  1  9  2  0  0  0
  2  3  1  0  0  0
  2 14  1  0  0  0
  2 33  1  0  0  0
  3  4  1  0  0  0
  3 13  1  0  0  0
  3 15  1  0  0  0
  4 10  2  0  0  0
  4 12  1  0  0  0
  5  7  1  0  0  0
  5 17  1  0  0  0
  5 18  1  0  0  0
  5 19  1  0  0  0
  6 21  2  0  0  0
  6 22  1  0  0  0
  7 11  2  0  0  0
  7 29  1  0  0  0
 11 16  1  0  0  0
 11 30  1  0  0  0
 12 27  1  0  0  0
 12 34  1  0  0  0
 13 35  1  0  0  0
 14 28  1  0  0  0
 14 36  1  0  0  0
 14 37  1  0  0  0
 15 20  1  0  0  0
 15 38  1  0  0  0
 15 39  1  0  0  0
 16 23  1  0  0  0
 16 40  1  0  0  0
 16 41  1  0  0  0
 20 28  1  0  0  0
 21 25  1  0  0  0
 21 42  1  0  0  0
 22 26  2  0  0  0
 22 43  1  0  0  0
 23 24  1  0  0  0
 24 26  1  0  0  0
 24 25  2  0  0  0
 25 44  1  0  0  0
 26 45  1  0  0  0
 27 46  1  0  0  0
 28 47  1  0  0  0
 28 48  1  0  0  0
 29 31  2  0  0  0
 29 49  1  0  0  0
 30 32  2  0  0  0
 30 50  1  0  0  0
 31 32  1  0  0  0
 31 51  1  0  0  0
 32 52  1  0  0  0
M  END
> <s_m_entry_id>
64165

> <s_m_entry_name>
dock_pv.115

> <s_m_Source_Path>
/home/csk/Desktop/cluster/DUD-E-result/mmp13

> <s_m_Source_File>
dock_pv.maegz

> <i_m_Source_File_Index>
115

> <chembl_id>
CHEMBL182273

> <chembl_pref_name>
None

> <i_lp_mmshare_version>
53161

> <i_f3d_flags>
0

> <r_lp_tautomer_probability>
1

> <s_lp_Force_Field>
OPLS_2005

> <r_lp_Energy>
30.19987

> <b_lp_Chiralities_Consistent>
1

> <s_lp_Variant>
CHEMBL280_lig937-1

> <s_i_glide_gridfile>
glide-grid_830c

> <i_i_glide_lignum>
1584

> <i_i_glide_rotatable_bonds>
10

> <r_i_docking_score>
-7.5822365400874

> <r_i_glide_ligand_efficiency>
-0.236944891877731

> <r_i_glide_ligand_efficiency_sa>
-0.752253140381367

> <r_i_glide_ligand_efficiency_ln>
-1.69786944528758

> <r_i_glide_gscore>
-7.5822365400874

> <r_i_glide_lipo>
-3.71488904328939

> <r_i_glide_hbond>
-0.226191641177536

> <r_i_glide_metal>
0

> <r_i_glide_rewards>
-0.256971800538783

> <r_i_glide_evdw>
-41.148250579834

> <r_i_glide_ecoul>
-11.3743677139282

> <r_i_glide_erotb>
0.626865232496004

> <r_i_glide_esite>
-0.247481601496768

> <r_i_glide_emodel>
-69.9044899060039

> <r_i_glide_energy>
-52.5226182937622

> <r_i_glide_einternal>
11.8781776428223

> <i_i_glide_confnum>
58

> <i_i_glide_posenum>
346

> <r_i_glide_eff_state_penalty>
0

> <s_user_duplicate_titles>
CHEMBL280_lig937,308147

> <s_m_subgroup_title>
dock_pv

> <s_m_subgroupid>
dock_pv

> <b_m_subgroup_collapsed>
1

$$$$
CHEMBL280_lig1693
                    3D
 Schrodinger Suite 2021-1.
 46 47  0  0  1  0            999 V2000
   -3.6084   27.4079   56.3801 C   0  0  0  0  0  0
   -3.0718   28.8242   56.0468 C   0  0  0  0  0  0
   -4.4306   27.4892   57.6996 C   0  0  0  0  0  0
   -6.3400   27.4294   55.2940 S   0  0  0  0  0  0
   -6.9815   26.3938   56.1095 O   0  0  0  0  0  0
   -6.4644   28.8490   55.6446 O   0  0  0  0  0  0
   -6.8964   28.0810   51.3114 C   0  0  0  0  0  0
   -8.1541   27.3675   50.9817 N   0  0  0  0  0  0
   -8.4131   26.2671   51.9484 C   0  0  0  0  0  0
   -8.2275   26.6626   53.4316 C   0  0  0  0  0  0
   -6.8844   27.2313   53.6237 N   0  0  0  0  0  0
   -6.7420   28.4336   52.7997 C   0  0  0  0  0  0
   -8.6869   27.3684   49.6827 C   0  0  0  0  0  0
   -8.1085   28.1233   48.6427 C   0  0  0  0  0  0
   -8.6812   28.1705   47.3740 C   0  0  0  0  0  0
   -9.8460   27.4597   47.1157 C   0  0  0  0  0  0
  -10.4432   26.7126   48.1218 C   0  0  0  0  0  0
   -9.8777   26.6804   49.3935 C   0  0  0  0  0  0
  -10.4016   27.4948   45.8838 F   0  0  0  0  0  0
   -4.5124   26.9719   55.1662 C   0  0  0  0  0  0
   -2.4661   26.4666   56.5844 N   0  0  0  0  0  0
   -1.4776   26.5746   57.5056 C   0  0  0  0  0  0
   -0.5575   25.7703   57.6620 O   0  0  0  0  0  0
   -2.3393   25.3700   55.7101 O   0  0  0  0  0  0
   -3.8837   29.5201   55.8298 H   0  0  0  0  0  0
   -2.5057   29.2563   56.8725 H   0  0  0  0  0  0
   -2.4171   28.8172   55.1744 H   0  0  0  0  0  0
   -5.1533   28.3042   57.6933 H   0  0  0  0  0  0
   -4.9829   26.5701   57.8824 H   0  0  0  0  0  0
   -3.8091   27.6667   58.5770 H   0  0  0  0  0  0
   -6.7394   28.9698   50.7157 H   0  0  0  0  0  0
   -6.1151   27.3702   51.0618 H   0  0  0  0  0  0
   -7.6284   25.5486   51.7111 H   0  0  0  0  0  0
   -9.3706   25.7703   51.8219 H   0  0  0  0  0  0
   -8.3121   25.7679   54.0447 H   0  0  0  0  0  0
   -8.9980   27.3886   53.6919 H   0  0  0  0  0  0
   -7.5195   29.1437   53.0716 H   0  0  0  0  0  0
   -5.7529   28.8541   52.9660 H   0  0  0  0  0  0
   -7.1970   28.6830   48.7793 H   0  0  0  0  0  0
   -8.2136   28.7483   46.5894 H   0  0  0  0  0  0
  -11.3572   26.1769   47.9204 H   0  0  0  0  0  0
  -10.4023   26.1159   50.1446 H   0  0  0  0  0  0
   -4.1592   27.3704   54.2164 H   0  0  0  0  0  0
   -4.5813   25.8902   55.0554 H   0  0  0  0  0  0
   -1.6030   27.4781   58.1217 H   0  0  0  0  0  0
   -2.9724   24.7338   56.0903 H   0  0  0  0  0  0
  1  2  1  0  0  0
  1  3  1  0  0  0
  1 20  1  0  0  0
  1 21  1  0  0  0
  2 25  1  0  0  0
  2 26  1  0  0  0
  2 27  1  0  0  0
  3 28  1  0  0  0
  3 29  1  0  0  0
  3 30  1  0  0  0
  4  6  2  0  0  0
  4 11  1  0  0  0
  4 20  1  0  0  0
  4  5  2  0  0  0
  7  8  1  0  0  0
  7 12  1  0  0  0
  7 31  1  0  0  0
  7 32  1  0  0  0
  8 13  1  0  0  0
  8  9  1  0  0  0
  9 10  1  0  0  0
  9 33  1  0  0  0
  9 34  1  0  0  0
 10 11  1  0  0  0
 10 35  1  0  0  0
 10 36  1  0  0  0
 11 12  1  0  0  0
 12 37  1  0  0  0
 12 38  1  0  0  0
 13 14  2  0  0  0
 13 18  1  0  0  0
 14 15  1  0  0  0
 14 39  1  0  0  0
 15 16  2  0  0  0
 15 40  1  0  0  0
 16 17  1  0  0  0
 16 19  1  0  0  0
 17 18  2  0  0  0
 17 41  1  0  0  0
 18 42  1  0  0  0
 20 43  1  0  0  0
 20 44  1  0  0  0
 21 22  1  0  0  0
 21 24  1  0  0  0
 22 23  2  0  0  0
 22 45  1  0  0  0
 24 46  1  0  0  0
M  END
> <s_m_entry_id>
64166

> <s_m_entry_name>
dock_pv.116

> <s_m_Source_Path>
/home/csk/Desktop/cluster/DUD-E-result/mmp13

> <s_m_Source_File>
dock_pv.maegz

> <i_m_Source_File_Index>
116

> <chembl_id>
CHEMBL1784354

> <chembl_pref_name>
None

> <i_lp_mmshare_version>
53161

> <i_f3d_flags>
0

> <r_lp_tautomer_probability>
1

> <s_lp_Force_Field>
OPLS_2005

> <r_lp_Energy>
33.630048

> <b_lp_Chiralities_Consistent>
1

> <s_lp_Variant>
CHEMBL280_lig1693-1

> <s_i_glide_gridfile>
glide-grid_830c

> <i_i_glide_lignum>
2440

> <i_i_glide_rotatable_bonds>
7

> <r_i_docking_score>
-7.57953412858386

> <r_i_glide_ligand_efficiency>
-0.315813922024328

> <r_i_glide_ligand_efficiency_sa>
-0.910964985708336

> <r_i_glide_ligand_efficiency_ln>
-1.81413031912819

> <r_i_glide_gscore>
-7.57953412858386

> <r_i_glide_lipo>
-2.87642991073633

> <r_i_glide_hbond>
-0.305654846957766

> <r_i_glide_metal>
0

> <r_i_glide_rewards>
-1.01197183105523

> <r_i_glide_evdw>
-44.3233375549316

> <r_i_glide_ecoul>
-11.767276763916

> <r_i_glide_erotb>
0.741873405381441

> <r_i_glide_esite>
-0.146092552881996

> <r_i_glide_emodel>
-77.6637148739796

> <r_i_glide_energy>
-56.0906143188477

> <r_i_glide_einternal>
10.9864940643311

> <i_i_glide_confnum>
136

> <i_i_glide_posenum>
85

> <r_i_glide_eff_state_penalty>
0

> <s_user_duplicate_titles>
CHEMBL280_lig1693

> <s_m_subgroup_title>
dock_pv

> <s_m_subgroupid>
dock_pv

> <b_m_subgroup_collapsed>
1

$$$$
CHEMBL280_lig950
                    3D
 Schrodinger Suite 2021-1.
 48 50  0  0  1  0            999 V2000
   -4.5331   27.0272   55.5179 S   0  0  0  0  0  0
   -4.2692   28.8514   56.0771 C   0  0  1  0  0  0
   -4.5384   29.0988   57.5980 C   0  0  2  0  0  0
   -3.8054   28.0582   58.5100 C   0  0  0  0  0  0
   -5.7200   27.0803   54.1828 C   0  0  0  0  0  0
   -3.2679   26.5711   54.9100 O   0  0  0  0  0  0
   -5.1962   26.2709   56.5824 O   0  0  0  0  0  0
   -4.4435   27.3698   59.3099 O   0  0  0  0  0  0
   -7.3987   27.1559   51.9270 C   0  0  0  0  0  0
   -8.2281   27.1912   50.6758 C   0  0  0  0  0  0
   -2.4637   27.9725   58.4052 N   0  0  0  0  0  0
   -5.9377   29.0001   57.8518 O   0  0  0  0  0  0
   -2.8812   29.3689   55.6006 C   0  0  0  0  0  0
   -6.7597   26.1586   54.0652 C   0  0  0  0  0  0
   -5.5392   28.0328   53.2052 C   0  0  0  0  0  0
   -4.0631   30.5243   58.0080 C   0  0  0  0  0  0
   -2.7254   30.7770   57.5685 O   0  0  0  0  0  0
   -7.5829   26.1918   52.9344 C   0  0  0  0  0  0
   -6.3843   28.1010   52.1101 C   0  0  0  0  0  0
   -7.7323   27.7701   49.4957 C   0  0  0  0  0  0
   -9.5344   26.6914   50.6545 C   0  0  0  0  0  0
   -8.5093   27.8697   48.3474 C   0  0  0  0  0  0
  -10.3391   26.8562   49.5307 C   0  0  0  0  0  0
   -9.8234   27.4187   48.3675 C   0  0  0  0  0  0
   -1.7730   27.0517   59.2101 O   0  0  0  0  0  0
   -2.5811   30.7767   56.1511 C   0  0  0  0  0  0
  -10.6816   27.5275   47.1209 C   0  0  0  0  0  0
   -5.0423   29.3700   55.5107 H   0  0  0  0  0  0
   -1.8569   28.5572   57.8479 H   0  0  0  0  0  0
   -6.3979   29.7035   57.3889 H   0  0  0  0  0  0
   -2.8154   29.3689   54.5130 H   0  0  0  0  0  0
   -2.0894   28.6955   55.9251 H   0  0  0  0  0  0
   -6.8890   25.3885   54.8132 H   0  0  0  0  0  0
   -4.7066   28.6909   53.3047 H   0  0  0  0  0  0
   -4.1111   30.6651   59.0902 H   0  0  0  0  0  0
   -4.7233   31.2860   57.5874 H   0  0  0  0  0  0
   -8.3390   25.4328   52.8324 H   0  0  0  0  0  0
   -6.2207   28.8828   51.3849 H   0  0  0  0  0  0
   -6.7299   28.1562   49.4406 H   0  0  0  0  0  0
   -9.9464   26.2134   51.5282 H   0  0  0  0  0  0
   -8.0899   28.3110   47.4541 H   0  0  0  0  0  0
  -11.3762   26.5700   49.5635 H   0  0  0  0  0  0
   -1.3864   27.5955   59.9018 H   0  0  0  0  0  0
   -3.2376   31.5280   55.7100 H   0  0  0  0  0  0
   -1.5619   31.0717   55.8998 H   0  0  0  0  0  0
  -10.1442   27.1293   46.2594 H   0  0  0  0  0  0
  -11.6140   26.9700   47.2158 H   0  0  0  0  0  0
  -10.9161   28.5696   46.9108 H   0  0  0  0  0  0
  1  2  1  0  0  0
  1  5  1  0  0  0
  1  6  2  0  0  0
  1  7  2  0  0  0
  2  3  1  0  0  0
  2 13  1  0  0  0
  2 28  1  0  0  0
  3  4  1  0  0  0
  3 12  1  0  0  0
  3 16  1  0  0  0
  4  8  2  0  0  0
  4 11  1  0  0  0
  5 14  1  0  0  0
  5 15  2  0  0  0
  9 19  2  0  0  0
  9 10  1  0  0  0
  9 18  1  0  0  0
 10 20  2  0  0  0
 10 21  1  0  0  0
 11 25  1  0  0  0
 11 29  1  0  0  0
 12 30  1  0  0  0
 13 26  1  0  0  0
 13 31  1  0  0  0
 13 32  1  0  0  0
 14 18  2  0  0  0
 14 33  1  0  0  0
 15 19  1  0  0  0
 15 34  1  0  0  0
 16 17  1  0  0  0
 16 35  1  0  0  0
 16 36  1  0  0  0
 17 26  1  0  0  0
 18 37  1  0  0  0
 19 38  1  0  0  0
 20 22  1  0  0  0
 20 39  1  0  0  0
 21 23  2  0  0  0
 21 40  1  0  0  0
 22 24  2  0  0  0
 22 41  1  0  0  0
 23 24  1  0  0  0
 23 42  1  0  0  0
 24 27  1  0  0  0
 25 43  1  0  0  0
 26 44  1  0  0  0
 26 45  1  0  0  0
 27 46  1  0  0  0
 27 47  1  0  0  0
 27 48  1  0  0  0
M  END
> <s_m_entry_id>
64167

> <s_m_entry_name>
dock_pv.117

> <s_m_Source_Path>
/home/csk/Desktop/cluster/DUD-E-result/mmp13

> <s_m_Source_File>
dock_pv.maegz

> <i_m_Source_File_Index>
117

> <chembl_id>
CHEMBL445140

> <chembl_pref_name>
None

> <i_lp_mmshare_version>
53161

> <i_f3d_flags>
0

> <r_lp_tautomer_probability>
1

> <s_lp_Force_Field>
OPLS_2005

> <r_lp_Energy>
22.7244

> <b_lp_Chiralities_Consistent>
1

> <s_lp_Variant>
CHEMBL280_lig950-1

> <s_i_glide_gridfile>
glide-grid_830c

> <i_i_glide_lignum>
1597

> <i_i_glide_rotatable_bonds>
7

> <r_i_docking_score>
-7.57076255025476

> <r_i_glide_ligand_efficiency>
-0.280398612972399

> <r_i_glide_ligand_efficiency_sa>
-0.841195837993048

> <r_i_glide_ligand_efficiency_ln>
-1.76234870792394

> <r_i_glide_gscore>
-7.57076255025476

> <r_i_glide_lipo>
-3.49704396547086

> <r_i_glide_hbond>
-0.113057354277941

> <r_i_glide_metal>
0

> <r_i_glide_rewards>
-0.794438146162058

> <r_i_glide_evdw>
-38.3959007263184

> <r_i_glide_ecoul>
-10.8688907623291

> <r_i_glide_erotb>
0.636798596852059

> <r_i_glide_esite>
-0.252893030530677

> <r_i_glide_emodel>
-68.1723722748091

> <r_i_glide_energy>
-49.2647914886475

> <r_i_glide_einternal>
11.0887756347656

> <i_i_glide_confnum>
202

> <i_i_glide_posenum>
273

> <r_i_glide_eff_state_penalty>
0

> <s_user_duplicate_titles>
CHEMBL280_lig950,308249

> <s_m_subgroup_title>
dock_pv

> <s_m_subgroupid>
dock_pv

> <b_m_subgroup_collapsed>
1

$$$$
CHEMBL280_lig386
                    3D
 Schrodinger Suite 2021-1.
 44 45  0  0  1  0            999 V2000
   -5.4851   26.9643   55.2861 S   0  0  0  0  0  0
   -5.3990   28.6027   55.9136 N   0  0  3  0  0  0
   -6.2431   29.0521   57.0534 C   0  0  2  0  0  0
   -7.0016   30.3640   56.6843 C   0  0  0  0  0  0
   -6.4274   27.0754   53.7746 C   0  0  0  0  0  0
   -4.1142   26.5774   54.9100 O   0  0  0  0  0  0
   -6.2843   26.1685   56.2235 O   0  0  0  0  0  0
   -7.1454   30.6758   55.4969 O   0  0  0  0  0  0
   -7.7664   27.2052   51.2982 C   0  0  0  0  0  0
   -8.4675   27.2936   49.9687 C   0  0  0  0  0  0
   -7.5338   31.0630   57.7096 N   0  0  0  0  0  0
   -7.3606   26.1001   53.4360 C   0  0  0  0  0  0
   -6.1850   28.1283   52.9068 C   0  0  0  0  0  0
   -5.4067   29.1472   58.3688 C   0  0  0  0  0  0
   -6.8280   28.1697   51.6798 C   0  0  0  0  0  0
   -8.0234   26.1702   52.2091 C   0  0  0  0  0  0
   -7.9387   28.0578   48.9114 C   0  0  0  0  0  0
   -9.6844   26.6314   49.7452 C   0  0  0  0  0  0
   -9.7988   27.4979   47.4978 C   0  0  0  0  0  0
   -8.5991   28.1695   47.6917 C   0  0  0  0  0  0
  -10.3391   26.7280   48.5196 C   0  0  0  0  0  0
  -10.7085   27.6206   45.8311 Br  0  0  0  0  0  0
   -8.3044   32.1989   57.4180 O   0  0  0  0  0  0
   -4.3296   30.2529   58.3745 C   0  0  0  0  0  0
   -4.7780   27.7772   58.7162 C   0  0  0  0  0  0
   -4.6836   29.2403   55.5462 H   0  0  0  0  0  0
   -7.0175   28.3047   57.2181 H   0  0  0  0  0  0
   -7.5014   30.8482   58.7018 H   0  0  0  0  0  0
   -7.5384   25.2769   54.1099 H   0  0  0  0  0  0
   -5.4924   28.9046   53.1745 H   0  0  0  0  0  0
   -6.0968   29.3704   59.1814 H   0  0  0  0  0  0
   -6.5787   28.9700   51.0147 H   0  0  0  0  0  0
   -8.7082   25.3796   51.9516 H   0  0  0  0  0  0
   -6.9962   28.5747   49.0065 H   0  0  0  0  0  0
  -10.1527   26.0407   50.5170 H   0  0  0  0  0  0
   -8.1678   28.7601   46.8956 H   0  0  0  0  0  0
  -11.2743   26.2181   48.3588 H   0  0  0  0  0  0
   -9.2071   31.9145   57.5872 H   0  0  0  0  0  0
   -3.6171   30.1191   57.5593 H   0  0  0  0  0  0
   -4.7657   31.2464   58.2716 H   0  0  0  0  0  0
   -3.7702   30.2482   59.3098 H   0  0  0  0  0  0
   -3.9906   27.5069   58.0115 H   0  0  0  0  0  0
   -4.3368   27.7701   59.7098 H   0  0  0  0  0  0
   -5.5187   26.9790   58.6859 H   0  0  0  0  0  0
  1  2  1  0  0  0
  1  5  1  0  0  0
  1  6  2  0  0  0
  1  7  2  0  0  0
  2  3  1  0  0  0
  2 26  1  0  0  0
  3  4  1  0  0  0
  3 14  1  0  0  0
  3 27  1  0  0  0
  4  8  2  0  0  0
  4 11  1  0  0  0
  5 12  2  0  0  0
  5 13  1  0  0  0
  9 15  1  0  0  0
  9 10  1  0  0  0
  9 16  2  0  0  0
 10 17  1  0  0  0
 10 18  2  0  0  0
 11 23  1  0  0  0
 11 28  1  0  0  0
 12 16  1  0  0  0
 12 29  1  0  0  0
 13 15  2  0  0  0
 13 30  1  0  0  0
 14 24  1  0  0  0
 14 25  1  0  0  0
 14 31  1  0  0  0
 15 32  1  0  0  0
 16 33  1  0  0  0
 17 20  2  0  0  0
 17 34  1  0  0  0
 18 21  1  0  0  0
 18 35  1  0  0  0
 19 21  2  0  0  0
 19 22  1  0  0  0
 19 20  1  0  0  0
 20 36  1  0  0  0
 21 37  1  0  0  0
 23 38  1  0  0  0
 24 39  1  0  0  0
 24 40  1  0  0  0
 24 41  1  0  0  0
 25 42  1  0  0  0
 25 43  1  0  0  0
 25 44  1  0  0  0
M  END
> <s_m_entry_id>
64168

> <s_m_entry_name>
dock_pv.118

> <s_m_Source_Path>
/home/csk/Desktop/cluster/DUD-E-result/mmp13

> <s_m_Source_File>
dock_pv.maegz

> <i_m_Source_File_Index>
118

> <chembl_id>
CHEMBL43644

> <chembl_pref_name>
None

> <i_lp_mmshare_version>
53161

> <i_f3d_flags>
0

> <r_lp_tautomer_probability>
1

> <s_lp_Force_Field>
OPLS_2005

> <r_lp_Energy>
26.506998

> <b_lp_Chiralities_Consistent>
1

> <s_lp_Variant>
CHEMBL280_lig386-1

> <s_i_glide_gridfile>
glide-grid_830c

> <i_i_glide_lignum>
558

> <i_i_glide_rotatable_bonds>
8

> <r_i_docking_score>
-7.52648764256339

> <r_i_glide_ligand_efficiency>
-0.301059505702536

> <r_i_glide_ligand_efficiency_sa>
-0.880303333987283

> <r_i_glide_ligand_efficiency_ln>
-1.78400312192135

> <r_i_glide_gscore>
-7.52648764256339

> <r_i_glide_lipo>
-3.96184695365664

> <r_i_glide_hbond>
-0.330432365194921

> <r_i_glide_metal>
0

> <r_i_glide_rewards>
-0.0745636179464338

> <r_i_glide_evdw>
-49.0168304443359

> <r_i_glide_ecoul>
-7.92843818664551

> <r_i_glide_erotb>
0.652381073019859

> <r_i_glide_esite>
-0.171918528571632

> <r_i_glide_emodel>
-79.2642697028171

> <r_i_glide_energy>
-56.9452686309814

> <r_i_glide_einternal>
6.74483633041382

> <i_i_glide_confnum>
61

> <i_i_glide_posenum>
89

> <r_i_glide_eff_state_penalty>
0

> <s_user_duplicate_titles>
CHEMBL280_lig386,66222

> <s_m_subgroup_title>
dock_pv

> <s_m_subgroupid>
dock_pv

> <b_m_subgroup_collapsed>
1

$$$$
CHEMBL280_lig2290
                    3D
 Schrodinger Suite 2021-1.
 42 44  0  0  1  0            999 V2000
   -4.3761   29.3196   56.7109 S   0  0  0  0  0  0
   -4.8433   27.6594   56.3660 N   0  0  1  0  0  0
   -4.0365   26.7614   57.2144 C   0  0  1  0  0  0
   -2.6476   26.5684   56.5440 C   0  0  0  0  0  0
   -4.0479   27.4265   58.6273 C   0  0  0  0  0  0
   -3.9908   28.9711   58.5100 C   0  0  0  0  0  0
   -5.5122   30.2415   56.6124 O   0  0  0  0  0  0
   -3.0938   29.6586   56.0861 O   0  0  0  0  0  0
   -6.2543   27.3071   56.0937 C   0  0  0  0  0  0
   -2.5268   26.5700   55.3100 O   0  0  0  0  0  0
   -7.4465   27.0506   51.9473 C   0  0  0  0  0  0
   -1.6153   26.3464   57.3764 N   0  0  0  0  0  0
   -8.0783   27.0856   50.5844 C   0  0  0  0  0  0
   -6.7727   28.1701   52.4380 C   0  0  0  0  0  0
   -7.5390   25.9422   52.7960 C   0  0  0  0  0  0
   -6.5574   27.1862   54.6140 C   0  0  0  0  0  0
   -6.3659   28.2642   53.7616 C   0  0  0  0  0  0
   -7.0826   26.0009   54.1100 C   0  0  0  0  0  0
   -0.3390   26.1700   56.8309 O   0  0  0  0  0  0
   -9.2158   26.3201   50.2913 C   0  0  0  0  0  0
   -7.6079   27.9587   49.5909 C   0  0  0  0  0  0
   -8.2673   28.1128   48.3767 C   0  0  0  0  0  0
   -9.8755   26.4639   49.0712 C   0  0  0  0  0  0
   -9.4110   27.3700   48.1246 C   0  0  0  0  0  0
   -4.4777   25.7700   57.2129 H   0  0  0  0  0  0
   -4.9828   27.1505   59.1147 H   0  0  0  0  0  0
   -3.2666   27.0495   59.2881 H   0  0  0  0  0  0
   -4.7388   29.4752   59.1215 H   0  0  0  0  0  0
   -3.0047   29.3766   58.7351 H   0  0  0  0  0  0
   -6.4903   26.3616   56.5837 H   0  0  0  0  0  0
   -6.9058   28.0510   56.5525 H   0  0  0  0  0  0
   -1.6308   26.3194   58.3868 H   0  0  0  0  0  0
   -6.6177   29.0241   51.8083 H   0  0  0  0  0  0
   -7.9390   25.0138   52.4304 H   0  0  0  0  0  0
   -5.9391   29.1864   54.1264 H   0  0  0  0  0  0
   -7.1390   25.1296   54.7400 H   0  0  0  0  0  0
    0.1361   26.9695   57.0791 H   0  0  0  0  0  0
   -9.6193   25.6300   51.0172 H   0  0  0  0  0  0
   -6.7390   28.5700   49.7556 H   0  0  0  0  0  0
   -7.8893   28.8063   47.6389 H   0  0  0  0  0  0
  -10.7390   25.8663   48.8439 H   0  0  0  0  0  0
   -9.9266   27.4796   47.1818 H   0  0  0  0  0  0
  1  2  1  0  0  0
  1  6  1  0  0  0
  1  7  2  0  0  0
  1  8  2  0  0  0
  2  3  1  0  0  0
  2  9  1  0  0  0
  3  4  1  0  0  0
  3  5  1  0  0  0
  3 25  1  0  0  0
  4 10  2  0  0  0
  4 12  1  0  0  0
  5  6  1  0  0  0
  5 26  1  0  0  0
  5 27  1  0  0  0
  6 28  1  0  0  0
  6 29  1  0  0  0
  9 16  1  0  0  0
  9 30  1  0  0  0
  9 31  1  0  0  0
 11 15  2  0  0  0
 11 13  1  0  0  0
 11 14  1  0  0  0
 12 19  1  0  0  0
 12 32  1  0  0  0
 13 20  2  0  0  0
 13 21  1  0  0  0
 14 17  2  0  0  0
 14 33  1  0  0  0
 15 18  1  0  0  0
 15 34  1  0  0  0
 16 17  1  0  0  0
 16 18  2  0  0  0
 17 35  1  0  0  0
 18 36  1  0  0  0
 19 37  1  0  0  0
 20 23  1  0  0  0
 20 38  1  0  0  0
 21 22  2  0  0  0
 21 39  1  0  0  0
 22 24  1  0  0  0
 22 40  1  0  0  0
 23 24  2  0  0  0
 23 41  1  0  0  0
 24 42  1  0  0  0
M  END
> <s_m_entry_id>
64169

> <s_m_entry_name>
dock_pv.119

> <s_m_Source_Path>
/home/csk/Desktop/cluster/DUD-E-result/mmp13

> <s_m_Source_File>
dock_pv.maegz

> <i_m_Source_File_Index>
119

> <chembl_id>
CHEMBL100754

> <chembl_pref_name>
None

> <i_lp_mmshare_version>
53161

> <i_f3d_flags>
0

> <r_lp_tautomer_probability>
1

> <s_lp_Force_Field>
OPLS_2005

> <r_lp_Energy>
28.385631

> <b_lp_Chiralities_Consistent>
1

> <s_lp_Variant>
CHEMBL280_lig2290-2

> <s_i_glide_gridfile>
glide-grid_830c

> <i_i_glide_lignum>
3271

> <i_i_glide_rotatable_bonds>
6

> <r_i_docking_score>
-7.52479251399932

> <r_i_glide_ligand_efficiency>
-0.313533021416638

> <r_i_glide_ligand_efficiency_sa>
-0.904385729872598

> <r_i_glide_ligand_efficiency_ln>
-1.80102813882909

> <r_i_glide_gscore>
-7.52479251399932

> <r_i_glide_lipo>
-3.89471822771387

> <r_i_glide_hbond>
0

> <r_i_glide_metal>
0

> <r_i_glide_rewards>
-1.11275472546873

> <r_i_glide_evdw>
-37.8470115661621

> <r_i_glide_ecoul>
-8.04260730743408

> <r_i_glide_erotb>
0.792191114675585

> <r_i_glide_esite>
-0.210769001069099

> <r_i_glide_emodel>
-56.6987293594916

> <r_i_glide_energy>
-45.8896188735962

> <r_i_glide_einternal>
16.6616630554199

> <i_i_glide_confnum>
178

> <i_i_glide_posenum>
292

> <r_i_glide_eff_state_penalty>
0

> <s_user_duplicate_titles>
CHEMBL280_lig2290

> <s_m_subgroup_title>
dock_pv

> <s_m_subgroupid>
dock_pv

> <b_m_subgroup_collapsed>
1

$$$$
CHEMBL280_lig2469
                    3D
 Schrodinger Suite 2021-1.
 60 64  0  0  1  0            999 V2000
   -3.8411   28.8998   57.9811 C   0  0  0  0  0  0
   -3.2758   26.9700   58.3214 N   0  0  0  0  0  0
   -3.9547   27.9805   58.8352 N   0  0  0  0  0  0
   -3.0430   28.5142   56.9680 N   0  0  0  0  0  0
   -2.7305   27.2089   57.1148 C   0  0  0  0  0  0
   -1.9390   26.1701   56.1100 S   0  0  0  0  0  0
   -4.6141   30.2191   57.9680 C   0  0  2  0  0  0
   -6.1120   29.9577   57.6302 C   0  0  2  0  0  0
   -6.3396   29.2968   56.3327 N   0  0  0  0  0  0
   -6.4438   27.9766   56.0650 C   0  0  0  0  0  0
   -6.3390   27.0923   56.9100 O   0  0  0  0  0  0
   -6.7882   27.6584   54.6324 C   0  0  0  0  0  0
   -7.7110   26.6707   54.2729 C   0  0  0  0  0  0
   -8.0395   26.4810   52.9231 C   0  0  0  0  0  0
   -7.4254   27.2380   51.9211 C   0  0  0  0  0  0
   -6.4600   28.1700   52.2957 C   0  0  0  0  0  0
   -6.1934   28.3972   53.6274 C   0  0  0  0  0  0
   -7.8182   27.0563   50.6064 O   0  0  0  0  0  0
   -7.3564   27.9890   49.6082 C   0  0  0  0  0  0
   -8.3046   28.0824   48.4189 C   0  0  0  0  0  0
   -9.2348   27.0780   48.2228 C   0  0  0  0  0  0
  -10.0632   27.1524   47.1206 C   0  0  0  0  0  0
  -10.0371   28.1077   46.1812 N   0  0  0  0  0  0
   -8.3101   29.1963   47.5079 C   0  0  0  0  0  0
   -9.1995   29.1378   46.3853 C   0  0  0  0  0  0
   -9.3121   30.2088   45.4809 C   0  0  0  0  0  0
   -8.6095   31.3700   45.7264 C   0  0  0  0  0  0
   -7.7163   31.4419   46.7876 C   0  0  0  0  0  0
   -7.5390   30.3683   47.6591 C   0  0  0  0  0  0
  -11.1390   26.1700   46.9558 C   0  0  0  0  0  0
   -3.9696   31.2901   57.0410 C   0  0  0  0  0  0
   -6.8061   31.3317   57.6738 C   0  0  0  0  0  0
   -6.1965   32.3249   56.6659 C   0  0  0  0  0  0
   -4.7663   32.5137   56.9104 N   0  0  2  0  0  0
   -3.3394   26.0455   58.7398 H   0  0  0  0  0  0
   -2.7949   29.0295   56.1367 H   0  0  0  0  0  0
   -4.5535   30.6086   58.9863 H   0  0  0  0  0  0
   -6.5554   29.3345   58.4095 H   0  0  0  0  0  0
   -6.2817   29.9094   55.5343 H   0  0  0  0  0  0
   -8.2142   26.1035   55.0402 H   0  0  0  0  0  0
   -8.7985   25.7700   52.6461 H   0  0  0  0  0  0
   -5.9390   28.7813   51.5798 H   0  0  0  0  0  0
   -5.5390   29.1899   53.8943 H   0  0  0  0  0  0
   -7.3262   28.9700   50.0280 H   0  0  0  0  0  0
   -6.3395   27.7700   49.2928 H   0  0  0  0  0  0
   -9.3191   26.2480   48.9100 H   0  0  0  0  0  0
   -9.9974   30.1488   44.6473 H   0  0  0  0  0  0
   -8.7390   32.2158   45.0680 H   0  0  0  0  0  0
   -7.1436   32.3481   46.9100 H   0  0  0  0  0  0
   -6.8361   30.4479   48.4769 H   0  0  0  0  0  0
  -11.5390   25.9714   47.9513 H   0  0  0  0  0  0
  -11.9511   26.5700   46.3413 H   0  0  0  0  0  0
  -10.7390   25.2579   46.5134 H   0  0  0  0  0  0
   -2.9912   31.5719   57.4336 H   0  0  0  0  0  0
   -3.7919   30.8868   56.0447 H   0  0  0  0  0  0
   -7.8692   31.2073   57.4641 H   0  0  0  0  0  0
   -6.7689   31.7701   58.6717 H   0  0  0  0  0  0
   -6.3311   31.9696   55.6433 H   0  0  0  0  0  0
   -6.6985   33.2906   56.7388 H   0  0  0  0  0  0
   -4.3583   33.1358   56.2248 H   0  0  0  0  0  0
  1  7  1  0  0  0
  1  3  2  0  0  0
  1  4  1  0  0  0
  2  5  1  0  0  0
  2  3  1  0  0  0
  2 35  1  0  0  0
  4  5  1  0  0  0
  4 36  1  0  0  0
  5  6  2  0  0  0
  7 31  1  0  0  0
  7  8  1  0  0  0
  7 37  1  0  0  0
  8  9  1  0  0  0
  8 32  1  0  0  0
  8 38  1  0  0  0
  9 10  1  0  0  0
  9 39  1  0  0  0
 10 11  2  0  0  0
 10 12  1  0  0  0
 12 13  2  0  0  0
 12 17  1  0  0  0
 13 14  1  0  0  0
 13 40  1  0  0  0
 14 15  2  0  0  0
 14 41  1  0  0  0
 15 18  1  0  0  0
 15 16  1  0  0  0
 16 17  2  0  0  0
 16 42  1  0  0  0
 17 43  1  0  0  0
 18 19  1  0  0  0
 19 20  1  0  0  0
 19 44  1  0  0  0
 19 45  1  0  0  0
 20 21  2  0  0  0
 20 24  1  0  0  0
 21 22  1  0  0  0
 21 46  1  0  0  0
 22 23  2  0  0  0
 22 30  1  0  0  0
 23 25  1  0  0  0
 24 25  1  0  0  0
 24 29  2  0  0  0
 25 26  2  0  0  0
 26 27  1  0  0  0
 26 47  1  0  0  0
 27 28  2  0  0  0
 27 48  1  0  0  0
 28 29  1  0  0  0
 28 49  1  0  0  0
 29 50  1  0  0  0
 30 51  1  0  0  0
 30 52  1  0  0  0
 30 53  1  0  0  0
 31 34  1  0  0  0
 31 54  1  0  0  0
 31 55  1  0  0  0
 32 33  1  0  0  0
 32 56  1  0  0  0
 32 57  1  0  0  0
 33 34  1  0  0  0
 33 58  1  0  0  0
 33 59  1  0  0  0
 34 60  1  0  0  0
M  END
> <s_m_entry_id>
64170

> <s_m_entry_name>
dock_pv.120

> <s_m_Source_Path>
/home/csk/Desktop/cluster/DUD-E-result/mmp13

> <s_m_Source_File>
dock_pv.maegz

> <i_m_Source_File_Index>
120

> <chembl_id>
CHEMBL247348

> <chembl_pref_name>
None

> <i_lp_mmshare_version>
53161

> <i_f3d_flags>
0

> <r_lp_tautomer_probability>
0.188618276206728

> <s_lp_Force_Field>
OPLS_2005

> <r_lp_Energy>
59.197665

> <b_lp_Chiralities_Consistent>
1

> <s_lp_Variant>
CHEMBL280_lig2469-2

> <s_i_glide_gridfile>
glide-grid_830c

> <i_i_glide_lignum>
3564

> <i_i_glide_rotatable_bonds>
7

> <r_i_docking_score>
-7.52268621783977

> <r_i_glide_ligand_efficiency>
-0.221255476995287

> <r_i_glide_ligand_efficiency_sa>
-0.716781853528668

> <r_i_glide_ligand_efficiency_ln>
-1.66197238972203

> <r_i_glide_gscore>
-7.52268621783977

> <r_i_glide_lipo>
-3.82431347894033

> <r_i_glide_hbond>
-0.308596484659979

> <r_i_glide_metal>
0

> <r_i_glide_rewards>
-0.171515566493015

> <r_i_glide_evdw>
-35.0955085754395

> <r_i_glide_ecoul>
-12.7014284133911

> <r_i_glide_erotb>
0.628935282231721

> <r_i_glide_esite>
-0.187206279197524

> <r_i_glide_emodel>
-57.6085898042861

> <r_i_glide_energy>
-47.7969369888306

> <r_i_glide_einternal>
13.0936050415039

> <i_i_glide_confnum>
1

> <i_i_glide_posenum>
26

> <r_i_glide_eff_state_penalty>
0

> <s_user_duplicate_titles>
CHEMBL280_lig2469

> <s_m_subgroup_title>
dock_pv

> <s_m_subgroupid>
dock_pv

> <b_m_subgroup_collapsed>
1

$$$$
CHEMBL280_lig2143
                    3D
 Schrodinger Suite 2021-1.
 56 58  0  0  1  0            999 V2000
   -0.8902   27.0703   59.8566 C   0  0  0  0  0  0
   -0.8017   27.2684   58.3212 C   0  0  0  0  0  0
    0.1387   26.1715   57.7603 C   0  0  0  0  0  0
   -5.1389   27.1335   58.9818 O   0  0  0  0  0  0
   -4.8300   28.3724   58.2699 S   0  0  0  0  0  0
   -5.2974   29.6691   58.7685 O   0  0  0  0  0  0
   -3.0588   28.4690   58.0931 N   0  0  3  0  0  0
   -2.2625   27.2398   57.7130 C   0  0  1  0  0  0
   -0.1600   28.6426   57.9733 C   0  0  0  0  0  0
   -0.9635   29.8469   58.5023 C   0  0  2  0  0  0
   -2.4208   29.8192   57.9935 C   0  0  0  0  0  0
   -2.3324   26.9961   56.1783 C   0  0  0  0  0  0
   -2.0718   25.8813   55.7101 O   0  0  0  0  0  0
   -2.7385   28.0228   55.4113 N   0  0  0  0  0  0
   -3.1391   27.7700   54.1101 O   0  0  0  0  0  0
   -5.5859   28.1675   56.6515 C   0  0  0  0  0  0
   -5.7734   26.8912   56.1062 C   0  0  0  0  0  0
   -6.4285   26.7449   54.8820 C   0  0  0  0  0  0
   -6.9217   27.8734   54.2092 C   0  0  0  0  0  0
   -6.7391   29.1338   54.7717 C   0  0  0  0  0  0
   -6.0680   29.2890   55.9788 C   0  0  0  0  0  0
   -7.5962   27.8505   53.0058 O   0  0  0  0  0  0
   -7.7263   26.6366   52.2738 C   0  0  0  0  0  0
   -8.2924   26.9704   50.8984 C   0  0  0  0  0  0
   -9.5613   26.5364   50.4980 C   0  0  0  0  0  0
  -10.0768   26.9026   49.2551 C   0  0  0  0  0  0
   -9.3279   27.6998   48.3944 C   0  0  0  0  0  0
   -8.0612   28.1301   48.7797 C   0  0  0  0  0  0
   -7.5457   27.7681   50.0256 C   0  0  0  0  0  0
  -10.3139   25.7700   51.3107 F   0  0  0  0  0  0
   -7.1402   29.1138   47.7117 Cl  0  0  0  0  0  0
   -0.3408   31.0481   58.1003 O   0  0  0  0  0  0
    0.0874   27.1732   60.3295 H   0  0  0  0  0  0
   -1.5548   27.7697   60.3489 H   0  0  0  0  0  0
   -1.2621   26.0762   60.1033 H   0  0  0  0  0  0
    1.1253   26.2245   58.2228 H   0  0  0  0  0  0
   -0.2523   25.1821   57.9865 H   0  0  0  0  0  0
    0.3042   26.2432   56.6855 H   0  0  0  0  0  0
   -2.7961   26.3697   58.1011 H   0  0  0  0  0  0
    0.8437   28.6908   58.3995 H   0  0  0  0  0  0
   -0.0139   28.7356   56.8959 H   0  0  0  0  0  0
   -0.9555   29.8469   59.5933 H   0  0  0  0  0  0
   -2.3852   30.0850   56.9379 H   0  0  0  0  0  0
   -3.0305   30.5602   58.5106 H   0  0  0  0  0  0
   -2.9970   28.9479   55.7315 H   0  0  0  0  0  0
   -4.0941   27.9130   54.1386 H   0  0  0  0  0  0
   -5.4188   26.0092   56.6254 H   0  0  0  0  0  0
   -6.5586   25.7498   54.4820 H   0  0  0  0  0  0
   -7.1120   30.0057   54.2569 H   0  0  0  0  0  0
   -5.9439   30.2802   56.3920 H   0  0  0  0  0  0
   -6.7496   26.1708   52.1391 H   0  0  0  0  0  0
   -8.3611   25.9290   52.8095 H   0  0  0  0  0  0
  -11.0615   26.5719   48.9601 H   0  0  0  0  0  0
   -9.7277   27.9847   47.4320 H   0  0  0  0  0  0
   -6.5741   28.1269   50.3267 H   0  0  0  0  0  0
   -0.7561   31.7806   58.5627 H   0  0  0  0  0  0
  1  2  1  0  0  0
  1 33  1  0  0  0
  1 34  1  0  0  0
  1 35  1  0  0  0
  2  3  1  0  0  0
  2  8  1  0  0  0
  2  9  1  0  0  0
  3 36  1  0  0  0
  3 37  1  0  0  0
  3 38  1  0  0  0
  4  5  2  0  0  0
  5  6  2  0  0  0
  5 16  1  0  0  0
  5  7  1  0  0  0
  7  8  1  0  0  0
  7 11  1  0  0  0
  8 12  1  0  0  0
  8 39  1  0  0  0
  9 10  1  0  0  0
  9 40  1  0  0  0
  9 41  1  0  0  0
 10 11  1  0  0  0
 10 32  1  0  0  0
 10 42  1  0  0  0
 11 43  1  0  0  0
 11 44  1  0  0  0
 12 13  2  0  0  0
 12 14  1  0  0  0
 14 15  1  0  0  0
 14 45  1  0  0  0
 15 46  1  0  0  0
 16 17  1  0  0  0
 16 21  2  0  0  0
 17 18  2  0  0  0
 17 47  1  0  0  0
 18 19  1  0  0  0
 18 48  1  0  0  0
 19 20  2  0  0  0
 19 22  1  0  0  0
 20 21  1  0  0  0
 20 49  1  0  0  0
 21 50  1  0  0  0
 22 23  1  0  0  0
 23 24  1  0  0  0
 23 51  1  0  0  0
 23 52  1  0  0  0
 24 25  1  0  0  0
 24 29  2  0  0  0
 25 26  2  0  0  0
 25 30  1  0  0  0
 26 27  1  0  0  0
 26 53  1  0  0  0
 27 28  2  0  0  0
 27 54  1  0  0  0
 28 29  1  0  0  0
 28 31  1  0  0  0
 29 55  1  0  0  0
 32 56  1  0  0  0
M  END
> <s_m_entry_id>
64171

> <s_m_entry_name>
dock_pv.121

> <s_m_Source_Path>
/home/csk/Desktop/cluster/DUD-E-result/mmp13

> <s_m_Source_File>
dock_pv.maegz

> <i_m_Source_File_Index>
121

> <chembl_id>
CHEMBL3909799

> <chembl_pref_name>
None

> <i_lp_mmshare_version>
53161

> <i_f3d_flags>
0

> <r_lp_tautomer_probability>
1

> <s_lp_Force_Field>
OPLS_2005

> <r_lp_Energy>
32.042551

> <b_lp_Chiralities_Consistent>
1

> <s_lp_Variant>
CHEMBL280_lig2143-1

> <s_i_glide_gridfile>
glide-grid_830c

> <i_i_glide_lignum>
2988

> <i_i_glide_rotatable_bonds>
9

> <r_i_docking_score>
-7.52095264078533

> <r_i_glide_ligand_efficiency>
-0.235029770024541

> <r_i_glide_ligand_efficiency_sa>
-0.746173007499589

> <r_i_glide_ligand_efficiency_ln>
-1.68414630969784

> <r_i_glide_gscore>
-7.52095264078533

> <r_i_glide_lipo>
-3.45986907072749

> <r_i_glide_hbond>
0

> <r_i_glide_metal>
0

> <r_i_glide_rewards>
-0.124709440775241

> <r_i_glide_evdw>
-50.8070335388184

> <r_i_glide_ecoul>
-11.5484075546265

> <r_i_glide_erotb>
0.600055520550706

> <r_i_glide_esite>
-0.263816839698417

> <r_i_glide_emodel>
-84.9649229565157

> <r_i_glide_energy>
-62.3554410934448

> <r_i_glide_einternal>
13.5102024078369

> <i_i_glide_confnum>
13

> <i_i_glide_posenum>
84

> <r_i_glide_eff_state_penalty>
0

> <s_user_duplicate_titles>
CHEMBL280_lig2143

> <s_m_subgroup_title>
dock_pv

> <s_m_subgroupid>
dock_pv

> <b_m_subgroup_collapsed>
1

$$$$
CHEMBL280_lig935
                    3D
 Schrodinger Suite 2021-1.
 49 51  0  0  1  0            999 V2000
   -3.5844   27.9243   55.6343 S   0  0  0  0  0  0
   -3.8628   27.3530   57.4341 C   0  0  1  0  0  0
   -2.6320   27.5939   58.3553 C   0  0  2  0  0  0
   -1.3138   26.9245   57.8352 C   0  0  0  0  0  0
   -5.2034   27.7163   54.9301 C   0  0  0  0  0  0
   -3.2267   29.3421   55.6140 O   0  0  0  0  0  0
   -2.7390   26.9700   54.9100 O   0  0  0  0  0  0
   -0.6948   27.4471   56.9100 O   0  0  0  0  0  0
   -0.8442   25.8171   58.4480 N   0  0  0  0  0  0
   -2.9469   26.9700   59.6026 O   0  0  0  0  0  0
   -5.0882   28.1093   58.0202 C   0  0  0  0  0  0
   -2.4060   29.1336   58.5101 C   0  0  0  0  0  0
   -3.5930   29.8386   58.9100 O   0  0  0  0  0  0
   -6.0939   28.7765   54.8055 C   0  0  0  0  0  0
   -5.5701   26.4444   54.5100 C   0  0  0  0  0  0
   -8.6564   27.3047   52.6952 O   0  0  0  0  0  0
   -7.5707   27.3448   53.5365 C   0  0  0  0  0  0
   -7.8741   27.6499   49.7657 C   0  0  0  0  0  0
   -8.0177   28.1125   48.4566 C   0  0  0  0  0  0
   -8.7460   26.2700   51.7192 C   0  0  0  0  0  0
   -8.8796   26.8653   50.3319 C   0  0  0  0  0  0
   -7.2766   28.5775   54.1091 C   0  0  0  0  0  0
   -6.7529   26.2487   53.8201 C   0  0  0  0  0  0
   -6.7390   28.9700   47.7100 Cl  0  0  0  0  0  0
    0.4407   25.3701   58.1100 O   0  0  0  0  0  0
   -4.8018   29.6168   58.1876 C   0  0  0  0  0  0
  -10.1751   27.0553   48.2898 C   0  0  0  0  0  0
   -9.1698   27.8330   47.7231 C   0  0  0  0  0  0
  -10.0122   26.5699   49.5843 C   0  0  0  0  0  0
   -4.0844   26.2924   57.2993 H   0  0  0  0  0  0
   -1.1029   25.5714   59.3937 H   0  0  0  0  0  0
   -3.3212   26.0959   59.4141 H   0  0  0  0  0  0
   -5.3213   27.6992   59.0001 H   0  0  0  0  0  0
   -5.9927   27.9487   57.4352 H   0  0  0  0  0  0
   -1.9893   29.6065   57.6228 H   0  0  0  0  0  0
   -1.6607   29.3092   59.2874 H   0  0  0  0  0  0
   -5.8491   29.7625   55.1751 H   0  0  0  0  0  0
   -4.9158   25.6034   54.6656 H   0  0  0  0  0  0
   -6.9718   27.8735   50.3180 H   0  0  0  0  0  0
   -7.9336   25.5502   51.6763 H   0  0  0  0  0  0
   -9.6460   25.7100   51.9665 H   0  0  0  0  0  0
   -7.9390   29.4047   53.9460 H   0  0  0  0  0  0
   -6.9815   25.2500   53.4839 H   0  0  0  0  0  0
    0.8161   26.1129   57.6219 H   0  0  0  0  0  0
   -5.6117   30.0703   58.7601 H   0  0  0  0  0  0
   -4.7867   30.1581   57.2446 H   0  0  0  0  0  0
  -11.0652   26.8177   47.7257 H   0  0  0  0  0  0
   -9.2688   28.1963   46.7104 H   0  0  0  0  0  0
  -10.7390   25.9255   50.0298 H   0  0  0  0  0  0
  1  2  1  0  0  0
  1  5  1  0  0  0
  1  6  2  0  0  0
  1  7  2  0  0  0
  2  3  1  0  0  0
  2 11  1  0  0  0
  2 30  1  0  0  0
  3  4  1  0  0  0
  3 10  1  0  0  0
  3 12  1  0  0  0
  4  8  2  0  0  0
  4  9  1  0  0  0
  5 14  2  0  0  0
  5 15  1  0  0  0
  9 25  1  0  0  0
  9 31  1  0  0  0
 10 32  1  0  0  0
 11 26  1  0  0  0
 11 33  1  0  0  0
 11 34  1  0  0  0
 12 13  1  0  0  0
 12 35  1  0  0  0
 12 36  1  0  0  0
 13 26  1  0  0  0
 14 22  1  0  0  0
 14 37  1  0  0  0
 15 23  2  0  0  0
 15 38  1  0  0  0
 16 17  1  0  0  0
 16 20  1  0  0  0
 17 23  1  0  0  0
 17 22  2  0  0  0
 18 21  2  0  0  0
 18 19  1  0  0  0
 18 39  1  0  0  0
 19 24  1  0  0  0
 19 28  2  0  0  0
 20 21  1  0  0  0
 20 40  1  0  0  0
 20 41  1  0  0  0
 21 29  1  0  0  0
 22 42  1  0  0  0
 23 43  1  0  0  0
 25 44  1  0  0  0
 26 45  1  0  0  0
 26 46  1  0  0  0
 27 29  2  0  0  0
 27 28  1  0  0  0
 27 47  1  0  0  0
 28 48  1  0  0  0
 29 49  1  0  0  0
M  END
> <s_m_entry_id>
64172

> <s_m_entry_name>
dock_pv.122

> <s_m_Source_Path>
/home/csk/Desktop/cluster/DUD-E-result/mmp13

> <s_m_Source_File>
dock_pv.maegz

> <i_m_Source_File_Index>
122

> <chembl_id>
CHEMBL184065

> <chembl_pref_name>
None

> <i_lp_mmshare_version>
53161

> <i_f3d_flags>
0

> <r_lp_tautomer_probability>
1

> <s_lp_Force_Field>
OPLS_2005

> <r_lp_Energy>
25.408286

> <b_lp_Chiralities_Consistent>
1

> <s_lp_Variant>
CHEMBL280_lig935-1

> <s_i_glide_gridfile>
glide-grid_830c

> <i_i_glide_lignum>
1582

> <i_i_glide_rotatable_bonds>
9

> <r_i_docking_score>
-7.51156469699297

> <r_i_glide_ligand_efficiency>
-0.259019472310102

> <r_i_glide_ligand_efficiency_sa>
-0.795789882065377

> <r_i_glide_ligand_efficiency_ln>
-1.71995783876547

> <r_i_glide_gscore>
-7.51156469699297

> <r_i_glide_lipo>
-3.58973713859547

> <r_i_glide_hbond>
0

> <r_i_glide_metal>
0

> <r_i_glide_rewards>
-0.405660357606587

> <r_i_glide_evdw>
-40.0023536682129

> <r_i_glide_ecoul>
-12.9061651229858

> <r_i_glide_erotb>
0.716227131842709

> <r_i_glide_esite>
-0.296351880775093

> <r_i_glide_emodel>
-70.2900151905267

> <r_i_glide_energy>
-52.9085187911987

> <r_i_glide_einternal>
4.45601463317871

> <i_i_glide_confnum>
124

> <i_i_glide_posenum>
149

> <r_i_glide_eff_state_penalty>
0

> <s_user_duplicate_titles>
CHEMBL280_lig935,308254

> <s_m_subgroup_title>
dock_pv

> <s_m_subgroupid>
dock_pv

> <b_m_subgroup_collapsed>
1

$$$$
CHEMBL280_lig959
                    3D
 Schrodinger Suite 2021-1.
 59 61  0  0  1  0            999 V2000
   -4.8555   28.2364   58.3873 S   0  0  0  0  0  0
   -3.0958   28.3775   58.1468 N   0  0  3  0  0  0
   -2.2809   27.1715   57.7416 C   0  0  2  0  0  0
   -0.8226   27.2386   58.3476 C   0  0  0  0  0  0
   -2.3356   26.9661   56.1984 C   0  0  0  0  0  0
   -2.4960   29.7462   58.0220 C   0  0  0  0  0  0
   -5.6334   28.0577   56.7833 C   0  0  0  0  0  0
   -5.1336   26.9779   59.0852 O   0  0  0  0  0  0
   -5.3320   29.5204   58.9096 O   0  0  0  0  0  0
   -0.1995   28.6008   57.9254 C   0  0  0  0  0  0
   -1.9450   25.9025   55.7101 O   0  0  0  0  0  0
   -1.0020   29.8229   58.4212 C   0  0  1  0  0  0
   -2.8691   27.9610   55.4602 N   0  0  0  0  0  0
   -6.0795   29.1948   56.1108 C   0  0  0  0  0  0
   -5.8437   26.7878   56.2351 C   0  0  0  0  0  0
   -7.6090   27.7956   53.1222 O   0  0  0  0  0  0
   -6.9477   27.8041   54.3320 C   0  0  0  0  0  0
   -8.2760   26.8849   51.0121 C   0  0  0  0  0  0
   -0.9147   27.1371   59.8900 C   0  0  0  0  0  0
    0.1226   26.1110   57.8556 C   0  0  0  0  0  0
   -7.7939   26.5708   52.4208 C   0  0  0  0  0  0
   -6.7388   29.0604   54.8952 C   0  0  0  0  0  0
   -6.4944   26.6613   55.0092 C   0  0  0  0  0  0
   -9.1515   27.5180   48.4412 C   0  0  0  0  0  0
   -3.1391   27.7697   54.1099 O   0  0  0  0  0  0
   -0.4321   31.0043   57.8979 O   0  0  0  0  0  0
   -7.5433   27.7697   50.2184 C   0  0  0  0  0  0
   -9.4418   26.3028   50.5097 C   0  0  0  0  0  0
   -9.8788   26.6222   49.2260 C   0  0  0  0  0  0
   -7.9801   28.0905   48.9364 C   0  0  0  0  0  0
   -9.6359   27.8567   47.0438 C   0  0  0  0  0  0
   -2.7876   26.2769   58.1106 H   0  0  0  0  0  0
   -2.5406   30.0168   56.9678 H   0  0  0  0  0  0
   -3.0885   30.4676   58.5853 H   0  0  0  0  0  0
    0.8089   28.6752   58.3370 H   0  0  0  0  0  0
   -0.0651   28.6479   56.8437 H   0  0  0  0  0  0
   -0.9166   29.9022   59.5061 H   0  0  0  0  0  0
   -3.3231   28.7837   55.8373 H   0  0  0  0  0  0
   -5.9323   30.1809   56.5290 H   0  0  0  0  0  0
   -5.5061   25.8969   56.7497 H   0  0  0  0  0  0
    0.0674   27.2269   60.3567 H   0  0  0  0  0  0
   -1.5389   27.9118   60.3190 H   0  0  0  0  0  0
   -1.3362   26.1799   60.2009 H   0  0  0  0  0  0
    1.0975   26.1774   58.3415 H   0  0  0  0  0  0
   -0.2798   25.1296   58.1067 H   0  0  0  0  0  0
    0.3215   26.1480   56.7846 H   0  0  0  0  0  0
   -6.8567   26.0199   52.3454 H   0  0  0  0  0  0
   -8.5125   25.9433   52.9509 H   0  0  0  0  0  0
   -7.0816   29.9420   54.3755 H   0  0  0  0  0  0
   -6.6415   25.6699   54.6077 H   0  0  0  0  0  0
   -2.9298   28.6265   53.7191 H   0  0  0  0  0  0
   -0.8277   31.7592   58.3398 H   0  0  0  0  0  0
   -6.6443   28.2253   50.6040 H   0  0  0  0  0  0
  -10.0122   25.6080   51.1088 H   0  0  0  0  0  0
  -10.7778   26.1732   48.8345 H   0  0  0  0  0  0
   -7.4046   28.7838   48.3392 H   0  0  0  0  0  0
   -9.7532   26.9449   46.4568 H   0  0  0  0  0  0
  -10.6103   28.3451   47.0918 H   0  0  0  0  0  0
   -8.9412   28.5117   46.5144 H   0  0  0  0  0  0
  1  2  1  0  0  0
  1  7  1  0  0  0
  1  8  2  0  0  0
  1  9  2  0  0  0
  2  3  1  0  0  0
  2  6  1  0  0  0
  3  4  1  0  0  0
  3  5  1  0  0  0
  3 32  1  0  0  0
  4 19  1  0  0  0
  4 20  1  0  0  0
  4 10  1  0  0  0
  5 11  2  0  0  0
  5 13  1  0  0  0
  6 12  1  0  0  0
  6 33  1  0  0  0
  6 34  1  0  0  0
  7 14  2  0  0  0
  7 15  1  0  0  0
 10 12  1  0  0  0
 10 35  1  0  0  0
 10 36  1  0  0  0
 12 26  1  0  0  0
 12 37  1  0  0  0
 13 25  1  0  0  0
 13 38  1  0  0  0
 14 22  1  0  0  0
 14 39  1  0  0  0
 15 23  2  0  0  0
 15 40  1  0  0  0
 16 17  1  0  0  0
 16 21  1  0  0  0
 17 23  1  0  0  0
 17 22  2  0  0  0
 18 21  1  0  0  0
 18 27  2  0  0  0
 18 28  1  0  0  0
 19 41  1  0  0  0
 19 42  1  0  0  0
 19 43  1  0  0  0
 20 44  1  0  0  0
 20 45  1  0  0  0
 20 46  1  0  0  0
 21 47  1  0  0  0
 21 48  1  0  0  0
 22 49  1  0  0  0
 23 50  1  0  0  0
 24 29  1  0  0  0
 24 31  1  0  0  0
 24 30  2  0  0  0
 25 51  1  0  0  0
 26 52  1  0  0  0
 27 30  1  0  0  0
 27 53  1  0  0  0
 28 29  2  0  0  0
 28 54  1  0  0  0
 29 55  1  0  0  0
 30 56  1  0  0  0
 31 57  1  0  0  0
 31 58  1  0  0  0
 31 59  1  0  0  0
M  END
> <s_m_entry_id>
64173

> <s_m_entry_name>
dock_pv.123

> <s_m_Source_Path>
/home/csk/Desktop/cluster/DUD-E-result/mmp13

> <s_m_Source_File>
dock_pv.maegz

> <i_m_Source_File_Index>
123

> <chembl_id>
CHEMBL191359

> <chembl_pref_name>
None

> <i_lp_mmshare_version>
53161

> <i_f3d_flags>
0

> <r_lp_tautomer_probability>
1

> <s_lp_Force_Field>
OPLS_2005

> <r_lp_Energy>
29.045888

> <b_lp_Chiralities_Consistent>
1

> <s_lp_Variant>
CHEMBL280_lig959-1

> <s_i_glide_gridfile>
glide-grid_830c

> <i_i_glide_lignum>
1606

> <i_i_glide_rotatable_bonds>
9

> <r_i_docking_score>
-7.50833988812828

> <r_i_glide_ligand_efficiency>
-0.242204512520267

> <r_i_glide_ligand_efficiency_sa>
-0.760856568682132

> <r_i_glide_ligand_efficiency_ln>
-1.69336074775618

> <r_i_glide_gscore>
-7.50833988812828

> <r_i_glide_lipo>
-3.46825056542814

> <r_i_glide_hbond>
0

> <r_i_glide_metal>
0

> <r_i_glide_rewards>
-0.405343974505771

> <r_i_glide_evdw>
-45.1462478637695

> <r_i_glide_ecoul>
-12.0629873275757

> <r_i_glide_erotb>
0.697053397205158

> <r_i_glide_esite>
-0.265038253074705

> <r_i_glide_emodel>
-79.8014460013266

> <r_i_glide_energy>
-57.2092351913452

> <r_i_glide_einternal>
18.8868770599365

> <i_i_glide_confnum>
11

> <i_i_glide_posenum>
104

> <r_i_glide_eff_state_penalty>
0

> <s_user_duplicate_titles>
CHEMBL280_lig959,319514

> <s_m_subgroup_title>
dock_pv

> <s_m_subgroupid>
dock_pv

> <b_m_subgroup_collapsed>
1

$$$$
CHEMBL280_lig379
                    3D
 Schrodinger Suite 2021-1.
 33 34  0  0  1  0            999 V2000
   -5.3123   28.1370   57.6587 S   0  0  0  0  0  0
   -3.5807   28.2914   57.4043 N   0  0  3  0  0  0
   -5.9847   27.7711   56.0466 C   0  0  0  0  0  0
   -2.6863   27.1031   57.3859 C   0  0  0  0  0  0
   -2.3933   26.6149   55.9599 C   0  0  0  0  0  0
   -5.5390   26.9700   58.5100 O   0  0  0  0  0  0
   -5.8112   29.4591   58.0450 O   0  0  0  0  0  0
   -7.0153   27.2775   53.4922 C   0  0  0  0  0  0
   -7.6172   27.0756   52.1452 C   0  0  0  0  0  0
   -1.5394   25.7700   55.7100 O   0  0  0  0  0  0
   -6.1803   28.8244   55.1615 C   0  0  0  0  0  0
   -6.3042   26.4642   55.6671 C   0  0  0  0  0  0
   -6.6807   28.5700   53.8942 C   0  0  0  0  0  0
   -6.8194   26.2218   54.3927 C   0  0  0  0  0  0
   -7.1398   27.7700   51.0310 C   0  0  0  0  0  0
   -8.7390   26.2656   51.9890 C   0  0  0  0  0  0
   -8.9504   26.9391   49.6895 C   0  0  0  0  0  0
   -3.1390   27.1807   54.9691 O   0  0  0  0  0  0
   -9.4081   26.1902   50.7696 C   0  0  0  0  0  0
   -7.7996   27.7101   49.8077 C   0  0  0  0  0  0
   -9.9391   26.9700   48.0653 Br  0  0  0  0  0  0
   -3.1742   29.2317   57.3840 H   0  0  0  0  0  0
   -3.1390   26.2898   57.9532 H   0  0  0  0  0  0
   -1.7472   27.3589   57.8774 H   0  0  0  0  0  0
   -5.9390   29.8404   55.4428 H   0  0  0  0  0  0
   -6.1463   25.6353   56.3449 H   0  0  0  0  0  0
   -6.8230   29.3978   53.2211 H   0  0  0  0  0  0
   -7.0586   25.2079   54.1057 H   0  0  0  0  0  0
   -6.2928   28.4255   51.1287 H   0  0  0  0  0  0
   -9.1390   25.7700   52.8536 H   0  0  0  0  0  0
   -3.7822   27.7927   55.3465 H   0  0  0  0  0  0
  -10.3057   25.5978   50.6777 H   0  0  0  0  0  0
   -7.4398   28.2939   48.9722 H   0  0  0  0  0  0
  1  2  1  0  0  0
  1  3  1  0  0  0
  1  6  2  0  0  0
  1  7  2  0  0  0
  2  4  1  0  0  0
  2 22  1  0  0  0
  3 11  1  0  0  0
  3 12  2  0  0  0
  4  5  1  0  0  0
  4 23  1  0  0  0
  4 24  1  0  0  0
  5 10  2  0  0  0
  5 18  1  0  0  0
  8 14  2  0  0  0
  8  9  1  0  0  0
  8 13  1  0  0  0
  9 15  1  0  0  0
  9 16  2  0  0  0
 11 13  2  0  0  0
 11 25  1  0  0  0
 12 14  1  0  0  0
 12 26  1  0  0  0
 13 27  1  0  0  0
 14 28  1  0  0  0
 15 20  2  0  0  0
 15 29  1  0  0  0
 16 19  1  0  0  0
 16 30  1  0  0  0
 17 19  2  0  0  0
 17 21  1  0  0  0
 17 20  1  0  0  0
 18 31  1  0  0  0
 19 32  1  0  0  0
 20 33  1  0  0  0
M  END
> <s_m_entry_id>
64174

> <s_m_entry_name>
dock_pv.124

> <s_m_Source_Path>
/home/csk/Desktop/cluster/DUD-E-result/mmp13

> <s_m_Source_File>
dock_pv.maegz

> <i_m_Source_File_Index>
124

> <chembl_id>
CHEMBL44898

> <chembl_pref_name>
None

> <i_lp_mmshare_version>
53161

> <i_f3d_flags>
0

> <r_lp_tautomer_probability>
1

> <s_lp_Force_Field>
OPLS_2005

> <r_lp_Energy>
13.449063

> <b_lp_Chiralities_Consistent>
1

> <s_lp_Variant>
CHEMBL280_lig379-1

> <s_i_glide_gridfile>
glide-grid_830c

> <i_i_glide_lignum>
551

> <i_i_glide_rotatable_bonds>
6

> <r_i_docking_score>
-7.50578172784202

> <r_i_glide_ligand_efficiency>
-0.357418177516287

> <r_i_glide_ligand_efficiency_sa>
-0.986089650027039

> <r_i_glide_ligand_efficiency_ln>
-1.85578936534887

> <r_i_glide_gscore>
-7.50578172784202

> <r_i_glide_lipo>
-3.16408873644168

> <r_i_glide_hbond>
-0.0440044668365718

> <r_i_glide_metal>
0

> <r_i_glide_rewards>
-0.855862715961064

> <r_i_glide_evdw>
-41.9800796508789

> <r_i_glide_ecoul>
-12.3100252151489

> <r_i_glide_erotb>
0.703681956213581

> <r_i_glide_esite>
-0.2

> <r_i_glide_emodel>
-78.4041570970713

> <r_i_glide_energy>
-54.2901048660278

> <r_i_glide_einternal>
8.59056186676025

> <i_i_glide_confnum>
18

> <i_i_glide_posenum>
29

> <r_i_glide_eff_state_penalty>
0

> <s_user_duplicate_titles>
CHEMBL280_lig379,66182

> <s_m_subgroup_title>
dock_pv

> <s_m_subgroupid>
dock_pv

> <b_m_subgroup_collapsed>
1

$$$$
CHEMBL280_lig413
                    3D
 Schrodinger Suite 2021-1.
 52 54  0  0  1  0            999 V2000
   -2.8499   27.6515   56.1073 C   0  0  0  0  0  0
   -4.2493   27.5979   58.2891 C   0  0  0  0  0  0
   -4.1488   28.1849   56.8327 C   0  0  0  0  0  0
   -1.8081   27.4706   56.9520 N   0  0  0  0  0  0
   -3.0470   27.3691   58.8630 N   0  0  0  0  0  0
   -1.8206   27.3030   58.2954 C   0  0  0  0  0  0
   -5.3345   27.6969   55.9366 C   0  0  0  0  0  0
   -5.2803   27.3746   58.9096 O   0  0  0  0  0  0
   -2.7388   27.3701   54.9100 O   0  0  0  0  0  0
   -0.8074   27.0452   58.9333 O   0  0  0  0  0  0
   -7.9725   26.1182   53.0563 O   0  0  0  0  0  0
   -5.7257   26.3541   55.9337 C   0  0  0  0  0  0
   -5.8938   28.5255   54.9559 C   0  0  0  0  0  0
   -7.1188   26.6910   53.9800 C   0  0  0  0  0  0
   -4.0279   29.7592   56.9891 C   0  0  0  0  0  0
   -6.8153   28.0535   54.0261 C   0  0  0  0  0  0
   -6.5717   25.8537   54.9493 C   0  0  0  0  0  0
   -8.1741   26.5837   51.7683 C   0  0  0  0  0  0
   -9.3487   26.1736   51.1354 C   0  0  0  0  0  0
   -7.2573   27.3702   51.0553 C   0  0  0  0  0  0
   -5.1362   30.5563   57.7558 C   0  0  0  0  0  0
   -8.5738   32.2498   56.7668 C   0  0  0  0  0  0
   -7.4090   31.8110   57.6718 C   0  0  0  0  0  0
   -6.4076   30.9005   56.9500 C   0  0  0  0  0  0
   -9.6328   33.0657   57.5193 C   0  0  0  0  0  0
   -9.6357   26.5756   49.8339 C   0  0  0  0  0  0
   -7.5394   27.7697   49.7516 C   0  0  0  0  0  0
   -8.7300   27.3778   49.1481 C   0  0  0  0  0  0
   -0.9185   27.2645   56.5273 H   0  0  0  0  0  0
   -3.0821   27.0803   59.8275 H   0  0  0  0  0  0
   -5.2979   25.6619   56.6438 H   0  0  0  0  0  0
   -5.6105   29.5566   54.9080 H   0  0  0  0  0  0
   -3.8659   30.2292   56.0193 H   0  0  0  0  0  0
   -3.0969   29.9787   57.5171 H   0  0  0  0  0  0
   -7.2487   28.7442   53.3190 H   0  0  0  0  0  0
   -6.7390   24.7883   54.9224 H   0  0  0  0  0  0
  -10.0490   25.5436   51.6635 H   0  0  0  0  0  0
   -6.3113   27.6577   51.4868 H   0  0  0  0  0  0
   -4.6944   31.5005   58.0784 H   0  0  0  0  0  0
   -5.4175   30.0542   58.6821 H   0  0  0  0  0  0
   -9.0506   31.3705   56.3314 H   0  0  0  0  0  0
   -8.1919   32.8363   55.9302 H   0  0  0  0  0  0
   -6.9025   32.6867   58.0804 H   0  0  0  0  0  0
   -7.8214   31.2573   58.5099 H   0  0  0  0  0  0
   -6.9468   29.9854   56.7140 H   0  0  0  0  0  0
   -6.1197   31.3749   56.0103 H   0  0  0  0  0  0
  -10.4618   33.3305   56.8629 H   0  0  0  0  0  0
   -9.2135   33.9910   57.9152 H   0  0  0  0  0  0
  -10.0436   32.5002   58.3561 H   0  0  0  0  0  0
  -10.5518   26.2637   49.3555 H   0  0  0  0  0  0
   -6.8288   28.3754   49.2072 H   0  0  0  0  0  0
   -8.9434   27.6880   48.1353 H   0  0  0  0  0  0
  1  3  1  0  0  0
  1  4  1  0  0  0
  1  9  2  0  0  0
  2  3  1  0  0  0
  2  8  2  0  0  0
  2  5  1  0  0  0
  3  7  1  0  0  0
  3 15  1  0  0  0
  4  6  1  0  0  0
  4 29  1  0  0  0
  5  6  1  0  0  0
  5 30  1  0  0  0
  6 10  2  0  0  0
  7 12  2  0  0  0
  7 13  1  0  0  0
 11 14  1  0  0  0
 11 18  1  0  0  0
 12 17  1  0  0  0
 12 31  1  0  0  0
 13 16  2  0  0  0
 13 32  1  0  0  0
 14 16  1  0  0  0
 14 17  2  0  0  0
 15 21  1  0  0  0
 15 33  1  0  0  0
 15 34  1  0  0  0
 16 35  1  0  0  0
 17 36  1  0  0  0
 18 19  2  0  0  0
 18 20  1  0  0  0
 19 26  1  0  0  0
 19 37  1  0  0  0
 20 27  2  0  0  0
 20 38  1  0  0  0
 21 24  1  0  0  0
 21 39  1  0  0  0
 21 40  1  0  0  0
 22 23  1  0  0  0
 22 25  1  0  0  0
 22 41  1  0  0  0
 22 42  1  0  0  0
 23 24  1  0  0  0
 23 43  1  0  0  0
 23 44  1  0  0  0
 24 45  1  0  0  0
 24 46  1  0  0  0
 25 47  1  0  0  0
 25 48  1  0  0  0
 25 49  1  0  0  0
 26 28  2  0  0  0
 26 50  1  0  0  0
 27 28  1  0  0  0
 27 51  1  0  0  0
 28 52  1  0  0  0
M  END
> <s_m_entry_id>
64175

> <s_m_entry_name>
dock_pv.125

> <s_m_Source_Path>
/home/csk/Desktop/cluster/DUD-E-result/mmp13

> <s_m_Source_File>
dock_pv.maegz

> <i_m_Source_File_Index>
125

> <chembl_id>
CHEMBL176832

> <chembl_pref_name>
None

> <i_lp_mmshare_version>
53161

> <i_f3d_flags>
0

> <r_lp_tautomer_probability>
0.999999998612168

> <s_lp_Force_Field>
OPLS_2005

> <r_lp_Energy>
24.742639

> <b_lp_Chiralities_Consistent>
1

> <s_lp_Variant>
CHEMBL280_lig413-1

> <s_i_glide_gridfile>
glide-grid_830c

> <i_i_glide_lignum>
593

> <i_i_glide_rotatable_bonds>
8

> <r_i_docking_score>
-7.50402095557618

> <r_i_glide_ligand_efficiency>
-0.268000748413435

> <r_i_glide_ligand_efficiency_sa>
-0.813808116182736

> <r_i_glide_ligand_efficiency_ln>
-1.73214836417607

> <r_i_glide_gscore>
-7.50402095557618

> <r_i_glide_lipo>
-2.93485084235714

> <r_i_glide_hbond>
-0.50967820299771

> <r_i_glide_metal>
0

> <r_i_glide_rewards>
-1.01576929837165

> <r_i_glide_evdw>
-41.7452278137207

> <r_i_glide_ecoul>
-11.7493705749512

> <r_i_glide_erotb>
0.938307119196588

> <r_i_glide_esite>
-0.132362754117563

> <r_i_glide_emodel>
-73.7898269794298

> <r_i_glide_energy>
-53.4945983886719

> <r_i_glide_einternal>
5.80705690383911

> <i_i_glide_confnum>
4

> <i_i_glide_posenum>
120

> <r_i_glide_eff_state_penalty>
0

> <s_user_duplicate_titles>
CHEMBL280_lig413,291903

> <s_m_subgroup_title>
dock_pv

> <s_m_subgroupid>
dock_pv

> <b_m_subgroup_collapsed>
1

$$$$
CHEMBL280_lig1892
                    3D
 Schrodinger Suite 2021-1.
 35 37  0  0  1  0            999 V2000
   -6.7086   30.6941   57.3985 C   0  0  0  0  0  0
   -5.5394   30.1190   57.8831 C   0  0  0  0  0  0
   -4.9335   29.0709   57.1939 C   0  0  0  0  0  0
   -7.2779   30.2326   56.2207 C   0  0  0  0  0  0
   -6.7053   29.1581   55.5501 C   0  0  0  0  0  0
   -5.5186   28.5530   56.0213 C   0  0  0  0  0  0
   -4.9106   27.4313   55.2329 C   0  0  0  0  0  0
   -5.7934   26.9112   54.0967 C   0  0  2  0  0  0
   -6.6084   28.0631   53.4693 C   0  0  2  0  0  0
   -7.4182   28.6998   54.4559 O   0  0  0  0  0  0
   -6.5174   25.7700   54.5485 O   0  0  0  0  0  0
   -7.4072   27.6385   52.2336 C   0  0  0  0  0  0
   -7.1052   28.1700   50.9793 C   0  0  0  0  0  0
   -7.8253   27.8388   49.8312 C   0  0  0  0  0  0
   -8.9078   26.9786   49.9375 C   0  0  0  0  0  0
   -9.2278   26.4645   51.1893 C   0  0  0  0  0  0
   -8.4723   26.7506   52.3250 C   0  0  0  0  0  0
   -3.7858   26.9700   55.4616 O   0  0  0  0  0  0
   -3.7888   28.5438   57.7313 O   0  0  0  0  0  0
   -7.3289   31.6792   58.1100 O   0  0  0  0  0  0
  -10.3780   25.7700   51.3100 O   0  0  0  0  0  0
   -9.6910   26.7038   48.8405 O   0  0  0  0  0  0
   -7.5254   28.4293   48.6299 O   0  0  0  0  0  0
   -5.0995   30.4813   58.8010 H   0  0  0  0  0  0
   -8.1981   30.6680   55.8626 H   0  0  0  0  0  0
   -5.1390   26.5700   53.3100 H   0  0  0  0  0  0
   -5.9120   28.8245   53.1100 H   0  0  0  0  0  0
   -5.9066   25.1074   54.9047 H   0  0  0  0  0  0
   -6.3390   28.9174   50.9100 H   0  0  0  0  0  0
   -8.7486   26.3401   53.2844 H   0  0  0  0  0  0
   -3.4701   27.8097   57.1982 H   0  0  0  0  0  0
   -7.1390   31.5843   59.0530 H   0  0  0  0  0  0
  -10.7390   25.6363   50.4286 H   0  0  0  0  0  0
   -9.3511   27.1632   48.0658 H   0  0  0  0  0  0
   -6.7873   29.0408   48.7037 H   0  0  0  0  0  0
  1  2  2  0  0  0
  1  4  1  0  0  0
  1 20  1  0  0  0
  2  3  1  0  0  0
  2 24  1  0  0  0
  3  6  2  0  0  0
  3 19  1  0  0  0
  4  5  2  0  0  0
  4 25  1  0  0  0
  5 10  1  0  0  0
  5  6  1  0  0  0
  6  7  1  0  0  0
  7 18  2  0  0  0
  7  8  1  0  0  0
  8 11  1  0  0  0
  8  9  1  0  0  0
  8 26  1  0  0  0
  9 12  1  0  0  0
  9 10  1  0  0  0
  9 27  1  0  0  0
 11 28  1  0  0  0
 12 13  2  0  0  0
 12 17  1  0  0  0
 13 14  1  0  0  0
 13 29  1  0  0  0
 14 15  2  0  0  0
 14 23  1  0  0  0
 15 16  1  0  0  0
 15 22  1  0  0  0
 16 17  2  0  0  0
 16 21  1  0  0  0
 17 30  1  0  0  0
 19 31  1  0  0  0
 20 32  1  0  0  0
 21 33  1  0  0  0
 22 34  1  0  0  0
 23 35  1  0  0  0
M  END
> <s_m_entry_id>
64176

> <s_m_entry_name>
dock_pv.126

> <s_m_Source_Path>
/home/csk/Desktop/cluster/DUD-E-result/mmp13

> <s_m_Source_File>
dock_pv.maegz

> <i_m_Source_File_Index>
126

> <chembl_id>
CHEMBL2048508

> <chembl_pref_name>
None

> <i_lp_mmshare_version>
53161

> <i_f3d_flags>
0

> <r_lp_tautomer_probability>
0.999999999957461

> <s_lp_Force_Field>
OPLS_2005

> <r_lp_Energy>
26.513434

> <b_lp_Chiralities_Consistent>
1

> <s_lp_Variant>
CHEMBL280_lig1892-1

> <s_i_glide_gridfile>
glide-grid_830c

> <i_i_glide_lignum>
2655

> <i_i_glide_rotatable_bonds>
7

> <r_i_docking_score>
-7.50370576539232

> <r_i_glide_ligand_efficiency>
-0.326248076756188

> <r_i_glide_ligand_efficiency_sa>
-0.927806131757292

> <r_i_glide_ligand_efficiency_ln>
-1.81446409391396

> <r_i_glide_gscore>
-7.50370576539232

> <r_i_glide_lipo>
-2.67432010725565

> <r_i_glide_hbond>
-0.304005575884759

> <r_i_glide_metal>
0

> <r_i_glide_rewards>
-1.2255615

> <r_i_glide_evdw>
-32.3840560913086

> <r_i_glide_ecoul>
-12.3073091506958

> <r_i_glide_erotb>
0.182040023165281

> <r_i_glide_esite>
-0.0165594282473938

> <r_i_glide_emodel>
-59.2723303923863

> <r_i_glide_energy>
-44.6913652420044

> <r_i_glide_einternal>
4.17475843429565

> <i_i_glide_confnum>
1

> <i_i_glide_posenum>
338

> <r_i_glide_eff_state_penalty>
0

> <s_user_duplicate_titles>
CHEMBL280_lig1892

> <s_m_subgroup_title>
dock_pv

> <s_m_subgroupid>
dock_pv

> <b_m_subgroup_collapsed>
1

$$$$
CHEMBL280_lig1130
                    3D
 Schrodinger Suite 2021-1.
 44 45  0  0  1  0            999 V2000
   -3.9736   28.0034   57.5330 N   0  0  1  0  0  0
   -3.2640   29.1372   56.9479 C   0  0  1  0  0  0
   -2.3482   29.8514   57.9779 C   0  0  0  0  0  0
   -1.3967   28.9091   58.7474 C   0  0  0  0  0  0
   -3.1758   30.7369   58.9300 C   0  0  0  0  0  0
   -2.3640   28.3300   55.5772 P   0  0  0  0  0  0
   -1.9385   26.9021   55.6899 O   0  0  0  0  0  0
   -3.3606   28.5696   54.3301 O   0  0  0  0  0  0
   -1.1741   29.3938   55.3095 O   0  0  0  0  0  0
   -5.6848   27.8109   57.3894 S   0  0  0  0  0  0
   -6.1381   27.5198   55.6794 C   0  0  0  0  0  0
   -5.9391   26.5703   58.1090 O   0  0  0  0  0  0
   -6.3037   29.0780   57.7890 O   0  0  0  0  0  0
   -6.4588   26.2331   55.2349 C   0  0  0  0  0  0
   -6.9985   26.0531   53.9603 C   0  0  0  0  0  0
   -7.1934   27.1456   53.1075 C   0  0  0  0  0  0
   -6.8111   28.4165   53.5493 C   0  0  0  0  0  0
   -6.3122   28.6095   54.8316 C   0  0  0  0  0  0
   -7.8528   26.9950   51.7789 C   0  0  0  0  0  0
   -7.3397   27.6434   50.6505 C   0  0  0  0  0  0
   -8.0277   27.6192   49.4396 C   0  0  0  0  0  0
   -9.2479   26.9550   49.3544 C   0  0  0  0  0  0
   -9.7621   26.2845   50.4603 C   0  0  0  0  0  0
   -9.0464   26.2778   51.6543 C   0  0  0  0  0  0
   -9.9449   26.9713   48.1964 F   0  0  0  0  0  0
   -3.4351   27.1484   57.7009 H   0  0  0  0  0  0
   -3.9805   29.8455   56.5322 H   0  0  0  0  0  0
   -1.7100   30.5463   57.4316 H   0  0  0  0  0  0
   -1.9405   28.1659   59.3285 H   0  0  0  0  0  0
   -0.7665   29.4651   59.4400 H   0  0  0  0  0  0
   -0.7323   28.3722   58.0714 H   0  0  0  0  0  0
   -3.9524   30.1729   59.4475 H   0  0  0  0  0  0
   -2.5475   31.2088   59.6848 H   0  0  0  0  0  0
   -3.6800   31.5346   58.3844 H   0  0  0  0  0  0
   -3.7271   29.4802   54.2172 H   0  0  0  0  0  0
   -1.4465   30.3270   55.2252 H   0  0  0  0  0  0
   -6.3348   25.3767   55.8837 H   0  0  0  0  0  0
   -7.2719   25.0582   53.6413 H   0  0  0  0  0  0
   -6.9504   29.2755   52.9117 H   0  0  0  0  0  0
   -6.0854   29.6110   55.1701 H   0  0  0  0  0  0
   -6.4103   28.1886   50.7194 H   0  0  0  0  0  0
   -7.6265   28.1332   48.5785 H   0  0  0  0  0  0
  -10.7289   25.8001   50.4080 H   0  0  0  0  0  0
   -9.4672   25.7718   52.5073 H   0  0  0  0  0  0
  1 10  1  0  0  0
  1  2  1  0  0  0
  1 26  1  0  0  0
  2  3  1  0  0  0
  2  6  1  0  0  0
  2 27  1  0  0  0
  3  4  1  0  0  0
  3  5  1  0  0  0
  3 28  1  0  0  0
  4 29  1  0  0  0
  4 30  1  0  0  0
  4 31  1  0  0  0
  5 32  1  0  0  0
  5 33  1  0  0  0
  5 34  1  0  0  0
  6  7  2  0  0  0
  6  8  1  0  0  0
  6  9  1  0  0  0
  8 35  1  0  0  0
  9 36  1  0  0  0
 10 13  2  0  0  0
 10 11  1  0  0  0
 10 12  2  0  0  0
 11 14  2  0  0  0
 11 18  1  0  0  0
 14 15  1  0  0  0
 14 37  1  0  0  0
 15 16  2  0  0  0
 15 38  1  0  0  0
 16 17  1  0  0  0
 16 19  1  0  0  0
 17 18  2  0  0  0
 17 39  1  0  0  0
 18 40  1  0  0  0
 19 20  2  0  0  0
 19 24  1  0  0  0
 20 21  1  0  0  0
 20 41  1  0  0  0
 21 22  2  0  0  0
 21 42  1  0  0  0
 22 23  1  0  0  0
 22 25  1  0  0  0
 23 24  2  0  0  0
 23 43  1  0  0  0
 24 44  1  0  0  0
M  END
> <s_m_entry_id>
64177

> <s_m_entry_name>
dock_pv.127

> <s_m_Source_Path>
/home/csk/Desktop/cluster/DUD-E-result/mmp13

> <s_m_Source_File>
dock_pv.maegz

> <i_m_Source_File_Index>
127

> <chembl_id>
CHEMBL374377

> <chembl_pref_name>
None

> <i_lp_mmshare_version>
53161

> <i_f3d_flags>
0

> <r_lp_tautomer_probability>
1

> <s_lp_Force_Field>
OPLS_2005

> <r_lp_Energy>
1.411267

> <b_lp_Chiralities_Consistent>
1

> <s_lp_Variant>
CHEMBL280_lig1130-1

> <s_i_glide_gridfile>
glide-grid_830c

> <i_i_glide_lignum>
1815

> <i_i_glide_rotatable_bonds>
8

> <r_i_docking_score>
-7.50365337286262

> <r_i_glide_ligand_efficiency>
-0.300146134914505

> <r_i_glide_ligand_efficiency_sa>
-0.87763262160438

> <r_i_glide_ligand_efficiency_ln>
-1.77859071571442

> <r_i_glide_gscore>
-7.50365337286262

> <r_i_glide_lipo>
-3.14891097027231

> <r_i_glide_hbond>
0

> <r_i_glide_metal>
0

> <r_i_glide_rewards>
-0.690675226611512

> <r_i_glide_evdw>
-33.8628234863281

> <r_i_glide_ecoul>
-16.4724903106689

> <r_i_glide_erotb>
0.648878733616542

> <r_i_glide_esite>
-0.148931188678593

> <r_i_glide_emodel>
-62.9315805705267

> <r_i_glide_energy>
-50.3353137969971

> <r_i_glide_einternal>
17.0121326446533

> <i_i_glide_confnum>
3

> <i_i_glide_posenum>
277

> <r_i_glide_eff_state_penalty>
0

> <s_user_duplicate_titles>
CHEMBL280_lig1130,376939

> <s_m_subgroup_title>
dock_pv

> <s_m_subgroupid>
dock_pv

> <b_m_subgroup_collapsed>
1

$$$$
CHEMBL280_lig890
                    3D
 Schrodinger Suite 2021-1.
 51 53  0  0  1  0            999 V2000
   -3.8858   28.8673   56.9861 C   0  0  2  0  0  0
   -2.6819   28.4624   56.0951 C   0  0  0  0  0  0
   -4.2197   27.7701   58.0454 C   0  0  0  0  0  0
   -3.1915   26.9700   58.4122 N   0  0  0  0  0  0
   -1.9679   26.7594   57.8766 C   0  0  0  0  0  0
   -1.5019   27.7986   56.8315 C   0  0  2  0  0  0
   -5.0572   29.1789   56.2015 O   0  0  0  0  0  0
   -2.6829   28.5640   54.8701 O   0  0  0  0  0  0
   -5.3435   27.5904   58.5098 O   0  0  0  0  0  0
   -1.2885   25.7801   58.1886 O   0  0  0  0  0  0
   -3.5961   30.2240   57.7158 C   0  0  0  0  0  0
   -0.6953   28.7984   57.5301 N   0  0  0  0  0  0
   -8.0266   26.0526   52.6920 O   0  0  0  0  0  0
   -5.7690   28.3076   55.3929 C   0  0  0  0  0  0
   -7.3033   26.8019   53.5974 C   0  0  0  0  0  0
   -8.3269   26.5452   51.4339 C   0  0  0  0  0  0
   -9.0151   27.4696   48.8921 C   0  0  0  0  0  0
   -9.4499   28.0520   47.3270 Cl  0  0  0  0  0  0
   -6.7726   28.9124   54.6420 C   0  0  0  0  0  0
   -5.5589   26.9261   55.2683 C   0  0  0  0  0  0
   -9.5389   26.1707   50.8546 C   0  0  0  0  0  0
   -7.4488   27.3698   50.7176 C   0  0  0  0  0  0
   -7.5384   28.1663   53.7568 C   0  0  0  0  0  0
   -6.3391   26.1772   54.3862 C   0  0  0  0  0  0
   -9.8875   26.6392   49.5884 C   0  0  0  0  0  0
   -7.7925   27.8293   49.4500 C   0  0  0  0  0  0
   -5.8887   31.2649   57.7331 O   0  0  0  0  0  0
   -4.7588   30.8798   58.5122 C   0  0  0  0  0  0
   -5.6662   32.2968   56.7809 C   0  0  0  0  0  0
   -7.0236   32.7566   56.2412 C   0  0  0  0  0  0
   -3.4667   26.2481   59.0650 H   0  0  0  0  0  0
   -0.8876   27.2619   56.1099 H   0  0  0  0  0  0
   -3.2239   30.9541   56.9949 H   0  0  0  0  0  0
   -2.7748   30.0963   58.4222 H   0  0  0  0  0  0
   -0.0037   28.3321   58.1070 H   0  0  0  0  0  0
   -0.1569   29.3476   56.8717 H   0  0  0  0  0  0
   -6.9394   29.9743   54.7358 H   0  0  0  0  0  0
   -4.8068   26.4065   55.8389 H   0  0  0  0  0  0
  -10.2121   25.5205   51.3916 H   0  0  0  0  0  0
   -6.4932   27.6552   51.1338 H   0  0  0  0  0  0
   -8.3069   28.6431   53.1729 H   0  0  0  0  0  0
   -6.1790   25.1123   54.2974 H   0  0  0  0  0  0
  -10.8276   26.3658   49.1390 H   0  0  0  0  0  0
   -7.1111   28.4691   48.9054 H   0  0  0  0  0  0
   -5.1111   30.2008   59.2887 H   0  0  0  0  0  0
   -4.3895   31.7536   59.0531 H   0  0  0  0  0  0
   -5.0462   31.9360   55.9610 H   0  0  0  0  0  0
   -5.1539   33.1430   57.2406 H   0  0  0  0  0  0
   -6.9018   33.5269   55.4786 H   0  0  0  0  0  0
   -7.5770   31.9295   55.7975 H   0  0  0  0  0  0
   -7.6368   33.1722   57.0414 H   0  0  0  0  0  0
  1  2  1  0  0  0
  1  3  1  0  0  0
  1  7  1  0  0  0
  1 11  1  0  0  0
  2  6  1  0  0  0
  2  8  2  0  0  0
  3  4  1  0  0  0
  3  9  2  0  0  0
  4  5  1  0  0  0
  4 31  1  0  0  0
  5 10  2  0  0  0
  5  6  1  0  0  0
  6 12  1  0  0  0
  6 32  1  0  0  0
  7 14  1  0  0  0
 11 28  1  0  0  0
 11 33  1  0  0  0
 11 34  1  0  0  0
 12 35  1  0  0  0
 12 36  1  0  0  0
 13 15  1  0  0  0
 13 16  1  0  0  0
 14 19  2  0  0  0
 14 20  1  0  0  0
 15 24  1  0  0  0
 15 23  2  0  0  0
 16 21  1  0  0  0
 16 22  2  0  0  0
 17 26  2  0  0  0
 17 18  1  0  0  0
 17 25  1  0  0  0
 19 23  1  0  0  0
 19 37  1  0  0  0
 20 24  2  0  0  0
 20 38  1  0  0  0
 21 25  2  0  0  0
 21 39  1  0  0  0
 22 26  1  0  0  0
 22 40  1  0  0  0
 23 41  1  0  0  0
 24 42  1  0  0  0
 25 43  1  0  0  0
 26 44  1  0  0  0
 27 28  1  0  0  0
 27 29  1  0  0  0
 28 45  1  0  0  0
 28 46  1  0  0  0
 29 30  1  0  0  0
 29 47  1  0  0  0
 29 48  1  0  0  0
 30 49  1  0  0  0
 30 50  1  0  0  0
 30 51  1  0  0  0
M  END
> <s_m_entry_id>
64178

> <s_m_entry_name>
dock_pv.128

> <s_m_Source_Path>
/home/csk/Desktop/cluster/DUD-E-result/mmp13

> <s_m_Source_File>
dock_pv.maegz

> <i_m_Source_File_Index>
128

> <chembl_id>
CHEMBL183216

> <chembl_pref_name>
None

> <i_lp_mmshare_version>
53161

> <i_f3d_flags>
0

> <r_lp_tautomer_probability>
1

> <s_lp_Force_Field>
OPLS_2005

> <r_lp_Energy>
31.17599

> <b_lp_Chiralities_Consistent>
1

> <s_lp_Variant>
CHEMBL280_lig890-3

> <s_i_glide_gridfile>
glide-grid_830c

> <i_i_glide_lignum>
1451

> <i_i_glide_rotatable_bonds>
8

> <r_i_docking_score>
-7.50076809782912

> <r_i_glide_ligand_efficiency>
-0.250025603260971

> <r_i_glide_ligand_efficiency_sa>
-0.776887680892428

> <r_i_glide_ligand_efficiency_ln>
-1.70425623924105

> <r_i_glide_gscore>
-7.50076809782912

> <r_i_glide_lipo>
-3.30254364567846

> <r_i_glide_hbond>
-0.711247361819013

> <r_i_glide_metal>
0

> <r_i_glide_rewards>
-0.457528472222374

> <r_i_glide_evdw>
-53.1018333435059

> <r_i_glide_ecoul>
-6.69566488265991

> <r_i_glide_erotb>
0.743557516223693

> <r_i_glide_esite>
-0.113564734758682

> <r_i_glide_emodel>
-84.6206396410462

> <r_i_glide_energy>
-59.7974982261658

> <r_i_glide_einternal>
0.873840987682343

> <i_i_glide_confnum>
6

> <i_i_glide_posenum>
155

> <r_i_glide_eff_state_penalty>
0

> <s_user_duplicate_titles>
CHEMBL280_lig890

> <s_m_subgroup_title>
dock_pv

> <s_m_subgroupid>
dock_pv

> <b_m_subgroup_collapsed>
1

$$$$
CHEMBL280_lig1346
                    3D
 Schrodinger Suite 2021-1.
 42 43  0  0  1  0            999 V2000
   -0.7886   30.4563   55.7100 N   0  0  0  0  0  0
   -1.7194   30.1294   56.6246 C   0  0  0  0  0  0
   -3.0457   29.5770   56.0604 C   0  0  0  0  0  0
   -1.5396   30.2235   57.8416 O   0  0  0  0  0  0
   -3.7575   28.6795   56.9889 N   0  0  3  0  0  0
   -3.0513   27.4920   57.5744 C   0  0  0  0  0  0
   -2.7253   26.4212   56.5293 C   0  0  0  0  0  0
   -2.3390   25.2814   57.1469 O   0  0  0  0  0  0
   -2.7390   26.5700   55.3100 O   0  0  0  0  0  0
    0.4612   30.9142   56.1539 O   0  0  0  0  0  0
   -5.5331   28.6745   57.0343 S   0  0  0  0  0  0
   -6.1143   27.9379   55.5031 C   0  0  0  0  0  0
   -5.9390   27.7644   58.1101 O   0  0  0  0  0  0
   -5.9861   30.0699   57.0358 O   0  0  0  0  0  0
   -6.1767   26.5498   55.3819 C   0  0  0  0  0  0
   -6.7390   25.9788   54.2434 C   0  0  0  0  0  0
   -7.2531   26.7776   53.2215 C   0  0  0  0  0  0
   -7.1538   28.1700   53.3354 C   0  0  0  0  0  0
   -6.5854   28.7469   54.4687 C   0  0  0  0  0  0
   -7.8848   26.1184   52.1814 O   0  0  0  0  0  0
   -8.3086   26.7285   51.0191 C   0  0  0  0  0  0
   -7.4780   27.5552   50.2562 C   0  0  0  0  0  0
   -7.9389   28.1046   49.0618 C   0  0  0  0  0  0
   -9.2273   27.8133   48.6214 C   0  0  0  0  0  0
  -10.0534   26.9705   49.3606 C   0  0  0  0  0  0
   -9.5879   26.4245   50.5540 C   0  0  0  0  0  0
   -0.8778   30.4510   54.7040 H   0  0  0  0  0  0
   -3.6650   30.4392   55.8196 H   0  0  0  0  0  0
   -2.8710   29.0869   55.1027 H   0  0  0  0  0  0
   -2.1234   27.8073   58.0495 H   0  0  0  0  0  0
   -3.6695   27.0497   58.3552 H   0  0  0  0  0  0
   -2.8122   25.1628   57.9832 H   0  0  0  0  0  0
    0.4203   31.8658   56.0203 H   0  0  0  0  0  0
   -5.8171   25.9051   56.1727 H   0  0  0  0  0  0
   -6.7942   24.9027   54.1633 H   0  0  0  0  0  0
   -7.5394   28.8169   52.5651 H   0  0  0  0  0  0
   -6.5386   29.8233   54.5505 H   0  0  0  0  0  0
   -6.4705   27.7699   50.5821 H   0  0  0  0  0  0
   -7.2942   28.7497   48.4815 H   0  0  0  0  0  0
   -9.5848   28.2394   47.6952 H   0  0  0  0  0  0
  -11.0489   26.7435   49.0076 H   0  0  0  0  0  0
  -10.2212   25.7619   51.1247 H   0  0  0  0  0  0
  1 10  1  0  0  0
  1  2  1  0  0  0
  1 27  1  0  0  0
  2  4  2  0  0  0
  2  3  1  0  0  0
  3  5  1  0  0  0
  3 28  1  0  0  0
  3 29  1  0  0  0
  5 11  1  0  0  0
  5  6  1  0  0  0
  6  7  1  0  0  0
  6 30  1  0  0  0
  6 31  1  0  0  0
  7  8  1  0  0  0
  7  9  2  0  0  0
  8 32  1  0  0  0
 10 33  1  0  0  0
 11 14  2  0  0  0
 11 12  1  0  0  0
 11 13  2  0  0  0
 12 15  2  0  0  0
 12 19  1  0  0  0
 15 16  1  0  0  0
 15 34  1  0  0  0
 16 17  2  0  0  0
 16 35  1  0  0  0
 17 18  1  0  0  0
 17 20  1  0  0  0
 18 19  2  0  0  0
 18 36  1  0  0  0
 19 37  1  0  0  0
 20 21  1  0  0  0
 21 22  2  0  0  0
 21 26  1  0  0  0
 22 23  1  0  0  0
 22 38  1  0  0  0
 23 24  2  0  0  0
 23 39  1  0  0  0
 24 25  1  0  0  0
 24 40  1  0  0  0
 25 26  2  0  0  0
 25 41  1  0  0  0
 26 42  1  0  0  0
M  END
> <s_m_entry_id>
64179

> <s_m_entry_name>
dock_pv.129

> <s_m_Source_Path>
/home/csk/Desktop/cluster/DUD-E-result/mmp13

> <s_m_Source_File>
dock_pv.maegz

> <i_m_Source_File_Index>
129

> <chembl_id>
CHEMBL472899

> <chembl_pref_name>
None

> <i_lp_mmshare_version>
53161

> <i_f3d_flags>
0

> <r_lp_tautomer_probability>
1

> <s_lp_Force_Field>
OPLS_2005

> <r_lp_Energy>
16.41448

> <b_lp_Chiralities_Consistent>
1

> <s_lp_Variant>
CHEMBL280_lig1346-1

> <s_i_glide_gridfile>
glide-grid_830c

> <i_i_glide_lignum>
2073

> <i_i_glide_rotatable_bonds>
11

> <r_i_docking_score>
-7.49880094361408

> <r_i_glide_ligand_efficiency>
-0.288415420908234

> <r_i_glide_ligand_efficiency_sa>
-0.854429549580761

> <r_i_glide_ligand_efficiency_ln>
-1.76106879603495

> <r_i_glide_gscore>
-7.49880094361408

> <r_i_glide_lipo>
-3.123171447717

> <r_i_glide_hbond>
0

> <r_i_glide_metal>
0

> <r_i_glide_rewards>
-0.821657721898339

> <r_i_glide_evdw>
-44.9450874328613

> <r_i_glide_ecoul>
-16.0490531921387

> <r_i_glide_erotb>
1.20675587676727

> <r_i_glide_esite>
-0.106115300302133

> <r_i_glide_emodel>
-88.3260475737469

> <r_i_glide_energy>
-60.994140625

> <r_i_glide_einternal>
8.60797500610352

> <i_i_glide_confnum>
186

> <i_i_glide_posenum>
12

> <r_i_glide_eff_state_penalty>
0

> <s_user_duplicate_titles>
CHEMBL280_lig1346,453587

> <s_m_subgroup_title>
dock_pv

> <s_m_subgroupid>
dock_pv

> <b_m_subgroup_collapsed>
1

$$$$
CHEMBL280_lig1104
                    3D
 Schrodinger Suite 2021-1.
 45 46  0  0  1  0            999 V2000
   -7.1617   26.8745   53.4677 C   0  0  0  0  0  0
   -6.7467   26.0002   54.4776 C   0  0  0  0  0  0
   -6.3413   26.4819   55.7219 C   0  0  0  0  0  0
   -6.3385   27.8562   55.9559 C   0  0  0  0  0  0
   -6.7390   28.7419   54.9599 C   0  0  0  0  0  0
   -7.1392   28.2523   53.7244 C   0  0  0  0  0  0
   -7.6025   26.3131   52.2803 O   0  0  0  0  0  0
   -7.6953   27.1104   51.0918 C   0  0  0  0  0  0
   -8.7237   26.6398   50.1533 C   0  0  0  0  0  0
   -9.5663   26.3811   49.3089 C   0  0  0  0  0  0
  -10.5526   26.1699   48.2399 C   0  0  0  0  0  0
   -5.8272   28.5459   57.5674 S   0  0  2  0  0  0
   -4.2133   29.2788   56.9833 C   0  0  1  0  0  0
   -4.0615   30.7349   57.4690 C   0  0  0  0  0  0
   -4.0793   31.6808   56.5100 N   0  0  0  0  0  0
   -3.9670   30.9844   58.6729 O   0  0  0  0  0  0
   -3.9632   33.0286   56.8861 O   0  0  0  0  0  0
   -3.0494   28.3155   57.3000 C   0  0  0  0  0  0
   -2.9772   27.1261   56.5668 C   0  0  0  0  0  0
   -2.0155   26.1684   56.8614 C   0  0  0  0  0  0
   -1.0910   26.3849   57.8794 C   0  0  0  0  0  0
   -1.1369   27.5839   58.6015 C   0  0  0  0  0  0
   -2.1117   28.5350   58.3197 C   0  0  0  0  0  0
   -0.1867   25.3702   58.1103 O   0  0  0  0  0  0
    0.7915   25.5236   59.1342 C   0  0  0  0  0  0
   -5.5393   27.3703   58.5060 O   0  0  0  0  0  0
   -6.7406   24.9344   54.2988 H   0  0  0  0  0  0
   -6.0266   25.7884   56.4918 H   0  0  0  0  0  0
   -6.7358   29.8072   55.1392 H   0  0  0  0  0  0
   -7.4538   28.9718   52.9952 H   0  0  0  0  0  0
   -6.7386   27.0993   50.5741 H   0  0  0  0  0  0
   -7.9385   28.1569   51.2422 H   0  0  0  0  0  0
  -10.1860   26.6050   47.3108 H   0  0  0  0  0  0
  -11.4971   26.6392   48.5083 H   0  0  0  0  0  0
  -10.7226   25.1026   48.0947 H   0  0  0  0  0  0
   -4.2455   29.3231   55.8952 H   0  0  0  0  0  0
   -4.1736   31.5454   55.5062 H   0  0  0  0  0  0
   -3.0663   33.2627   56.6304 H   0  0  0  0  0  0
   -3.7009   26.9180   55.7943 H   0  0  0  0  0  0
   -2.0241   25.2285   56.3308 H   0  0  0  0  0  0
   -0.4393   27.7871   59.3995 H   0  0  0  0  0  0
   -2.1213   29.4306   58.9206 H   0  0  0  0  0  0
    1.4181   24.6323   59.1703 H   0  0  0  0  0  0
    1.4428   26.3777   58.9406 H   0  0  0  0  0  0
    0.3299   25.6382   60.1156 H   0  0  0  0  0  0
  1  2  2  0  0  0
  1  7  1  0  0  0
  1  6  1  0  0  0
  2  3  1  0  0  0
  2 27  1  0  0  0
  3  4  2  0  0  0
  3 28  1  0  0  0
  4  5  1  0  0  0
  4 12  1  0  0  0
  5  6  2  0  0  0
  5 29  1  0  0  0
  6 30  1  0  0  0
  7  8  1  0  0  0
  8  9  1  0  0  0
  8 31  1  0  0  0
  8 32  1  0  0  0
  9 10  3  0  0  0
 10 11  1  0  0  0
 11 33  1  0  0  0
 11 34  1  0  0  0
 11 35  1  0  0  0
 12 13  1  0  0  0
 12 26  2  0  0  0
 13 14  1  0  0  0
 13 18  1  0  0  0
 13 36  1  0  0  0
 14 15  1  0  0  0
 14 16  2  0  0  0
 15 17  1  0  0  0
 15 37  1  0  0  0
 17 38  1  0  0  0
 18 19  2  0  0  0
 18 23  1  0  0  0
 19 20  1  0  0  0
 19 39  1  0  0  0
 20 21  2  0  0  0
 20 40  1  0  0  0
 21 22  1  0  0  0
 21 24  1  0  0  0
 22 23  2  0  0  0
 22 41  1  0  0  0
 23 42  1  0  0  0
 24 25  1  0  0  0
 25 43  1  0  0  0
 25 44  1  0  0  0
 25 45  1  0  0  0
M  END
> <s_m_entry_id>
64180

> <s_m_entry_name>
dock_pv.130

> <s_m_Source_Path>
/home/csk/Desktop/cluster/DUD-E-result/mmp13

> <s_m_Source_File>
dock_pv.maegz

> <i_m_Source_File_Index>
130

> <chembl_id>
CHEMBL2096740

> <chembl_pref_name>
None

> <i_lp_mmshare_version>
53161

> <i_f3d_flags>
0

> <r_lp_tautomer_probability>
1

> <s_lp_Force_Field>
OPLS_2005

> <r_lp_Energy>
24.218366

> <b_lp_Chiralities_Consistent>
1

> <s_lp_Variant>
CHEMBL280_lig1104-2

> <s_i_glide_gridfile>
glide-grid_830c

> <i_i_glide_lignum>
1779

> <i_i_glide_rotatable_bonds>
10

> <r_i_docking_score>
-7.49218713561929

> <r_i_glide_ligand_efficiency>
-0.288161043677665

> <r_i_glide_ligand_efficiency_sa>
-0.853675958036127

> <r_i_glide_ligand_efficiency_ln>
-1.75951556492905

> <r_i_glide_gscore>
-7.49218713561929

> <r_i_glide_lipo>
-2.69191576495836

> <r_i_glide_hbond>
-1.14716833051821

> <r_i_glide_metal>
0

> <r_i_glide_rewards>
-0.844217570195623

> <r_i_glide_evdw>
-43.8009414672852

> <r_i_glide_ecoul>
-11.3701295852661

> <r_i_glide_erotb>
1.10867400670564

> <r_i_glide_esite>
-0.0219929654985589

> <r_i_glide_emodel>
-78.0885583949335

> <r_i_glide_energy>
-55.1710710525513

> <r_i_glide_einternal>
7.59421157836914

> <i_i_glide_confnum>
58

> <i_i_glide_posenum>
323

> <r_i_glide_eff_state_penalty>
0

> <s_user_duplicate_titles>
CHEMBL280_lig1104

> <s_m_subgroup_title>
dock_pv

> <s_m_subgroupid>
dock_pv

> <b_m_subgroup_collapsed>
1

$$$$
CHEMBL280_lig441
                    3D
 Schrodinger Suite 2021-1.
 42 43  0  0  1  0            999 V2000
   -5.6586   28.0344   56.2285 S   0  0  0  0  0  0
   -2.7799   28.1758   56.6376 C   0  0  1  0  0  0
   -3.9011   28.1000   55.5565 C   0  0  0  0  0  0
   -1.9913   26.8249   56.7417 C   0  0  0  0  0  0
   -6.5229   27.5102   54.7593 C   0  0  0  0  0  0
   -5.7678   26.9620   57.2231 O   0  0  0  0  0  0
   -6.1098   29.3948   56.5404 O   0  0  0  0  0  0
   -1.7546   26.1699   55.7101 O   0  0  0  0  0  0
   -8.9565   26.1696   51.1644 S   0  0  0  0  0  0
   -1.5429   26.4806   57.9679 N   0  0  0  0  0  0
   -1.8387   29.1536   56.1060 N   0  0  0  0  0  0
   -6.8004   28.4379   53.7563 C   0  0  0  0  0  0
   -6.8552   26.1695   54.5917 C   0  0  0  0  0  0
   -7.8842   26.7077   52.4722 C   0  0  0  0  0  0
   -8.8068   27.2285   49.7593 C   0  0  0  0  0  0
   -3.2278   28.7793   57.9957 C   0  0  0  0  0  0
   -7.5377   25.7741   53.4473 C   0  0  0  0  0  0
   -7.4712   28.0299   52.6067 C   0  0  0  0  0  0
   -0.7015   25.3705   58.1100 O   0  0  0  0  0  0
   -7.5856   27.7780   49.3787 C   0  0  0  0  0  0
   -9.9391   27.4143   48.9668 C   0  0  0  0  0  0
   -9.8602   28.1721   47.8019 C   0  0  0  0  0  0
   -7.5150   28.5642   48.2279 C   0  0  0  0  0  0
   -8.6473   28.7531   47.4417 C   0  0  0  0  0  0
   -3.9140   28.9701   54.9039 H   0  0  0  0  0  0
   -3.8235   27.2408   54.8987 H   0  0  0  0  0  0
   -1.6879   26.9817   58.8345 H   0  0  0  0  0  0
   -1.1249   29.3987   56.7775 H   0  0  0  0  0  0
   -1.4006   28.8645   55.2450 H   0  0  0  0  0  0
   -6.5068   29.4710   53.8735 H   0  0  0  0  0  0
   -6.6001   25.4348   55.3441 H   0  0  0  0  0  0
   -3.8843   28.1038   58.5468 H   0  0  0  0  0  0
   -2.3853   29.0048   58.6524 H   0  0  0  0  0  0
   -3.7705   29.7151   57.8552 H   0  0  0  0  0  0
   -7.7988   24.7386   53.3304 H   0  0  0  0  0  0
   -7.6926   28.7525   51.8420 H   0  0  0  0  0  0
    0.1594   25.7600   58.2977 H   0  0  0  0  0  0
   -6.6907   27.6045   49.9565 H   0  0  0  0  0  0
  -10.8841   26.9668   49.2408 H   0  0  0  0  0  0
  -10.7347   28.3150   47.1842 H   0  0  0  0  0  0
   -6.5677   28.9813   47.9260 H   0  0  0  0  0  0
   -8.5767   29.3456   46.5395 H   0  0  0  0  0  0
  1  3  1  0  0  0
  1  5  1  0  0  0
  1  6  2  0  0  0
  1  7  2  0  0  0
  2  3  1  0  0  0
  2  4  1  0  0  0
  2 11  1  0  0  0
  2 16  1  0  0  0
  3 25  1  0  0  0
  3 26  1  0  0  0
  4  8  2  0  0  0
  4 10  1  0  0  0
  5 12  2  0  0  0
  5 13  1  0  0  0
  9 14  1  0  0  0
  9 15  1  0  0  0
 10 19  1  0  0  0
 10 27  1  0  0  0
 11 28  1  0  0  0
 11 29  1  0  0  0
 12 18  1  0  0  0
 12 30  1  0  0  0
 13 17  2  0  0  0
 13 31  1  0  0  0
 14 17  1  0  0  0
 14 18  2  0  0  0
 15 20  1  0  0  0
 15 21  2  0  0  0
 16 32  1  0  0  0
 16 33  1  0  0  0
 16 34  1  0  0  0
 17 35  1  0  0  0
 18 36  1  0  0  0
 19 37  1  0  0  0
 20 23  2  0  0  0
 20 38  1  0  0  0
 21 22  1  0  0  0
 21 39  1  0  0  0
 22 24  2  0  0  0
 22 40  1  0  0  0
 23 24  1  0  0  0
 23 41  1  0  0  0
 24 42  1  0  0  0
M  END
> <s_m_entry_id>
64181

> <s_m_entry_name>
dock_pv.131

> <s_m_Source_Path>
/home/csk/Desktop/cluster/DUD-E-result/mmp13

> <s_m_Source_File>
dock_pv.maegz

> <i_m_Source_File_Index>
131

> <chembl_id>
CHEMBL90762

> <chembl_pref_name>
None

> <i_lp_mmshare_version>
53161

> <i_f3d_flags>
0

> <r_lp_tautomer_probability>
1

> <s_lp_Force_Field>
OPLS_2005

> <r_lp_Energy>
23.831607

> <b_lp_Chiralities_Consistent>
1

> <s_lp_Variant>
CHEMBL280_lig441-1

> <s_i_glide_gridfile>
glide-grid_830c

> <i_i_glide_lignum>
623

> <i_i_glide_rotatable_bonds>
8

> <r_i_docking_score>
-7.49044589236521

> <r_i_glide_ligand_efficiency>
-0.312101912181884

> <r_i_glide_ligand_efficiency_sa>
-0.900257696519196

> <r_i_glide_ligand_efficiency_ln>
-1.79280741620828

> <r_i_glide_gscore>
-7.49044589236521

> <r_i_glide_lipo>
-3.55301650907344

> <r_i_glide_hbond>
0

> <r_i_glide_metal>
0

> <r_i_glide_rewards>
-0.971146184587364

> <r_i_glide_evdw>
-47.6893272399902

> <r_i_glide_ecoul>
-9.81208419799805

> <r_i_glide_erotb>
1.00329635328434

> <r_i_glide_esite>
-0.113300560289532

> <r_i_glide_emodel>
-77.8185462439782

> <r_i_glide_energy>
-57.5014114379883

> <r_i_glide_einternal>
8.4866418838501

> <i_i_glide_confnum>
86

> <i_i_glide_posenum>
126

> <r_i_glide_eff_state_penalty>
0

> <s_user_duplicate_titles>
CHEMBL280_lig441

> <s_m_subgroup_title>
dock_pv

> <s_m_subgroupid>
dock_pv

> <b_m_subgroup_collapsed>
1

$$$$
CHEMBL280_lig648
                    3D
 Schrodinger Suite 2021-1.
 47 49  0  0  1  0            999 V2000
   -5.7315   28.6795   56.9443 S   0  0  0  0  0  0
   -2.8757   28.7461   56.5560 C   0  0  0  0  0  0
   -4.1971   29.4414   56.5183 N   0  0  1  0  0  0
   -2.8655   27.3910   55.7815 C   0  0  0  0  0  0
   -6.3043   27.9063   55.4420 C   0  0  0  0  0  0
   -5.4963   27.6329   57.9471 O   0  0  0  0  0  0
   -6.6715   29.7717   57.2110 O   0  0  0  0  0  0
   -8.2503   26.8077   50.8545 C   0  0  0  0  0  0
   -7.8667   26.1482   52.0036 O   0  0  0  0  0  0
   -3.1390   27.3700   54.5723 O   0  0  0  0  0  0
   -2.4734   26.2852   56.4366 N   0  0  0  0  0  0
   -9.5587   26.6642   50.3891 C   0  0  0  0  0  0
   -1.8641   29.6531   55.8150 C   0  0  0  0  0  0
   -2.4209   28.6541   58.0454 C   0  0  0  0  0  0
   -1.2479   30.7866   57.8504 O   0  0  0  0  0  0
   -6.3623   26.5187   55.3123 C   0  0  0  0  0  0
   -6.7221   28.7302   54.3993 C   0  0  0  0  0  0
   -7.3131   26.7813   53.0977 C   0  0  0  0  0  0
  -10.7019   25.7700   51.3100 Cl  0  0  0  0  0  0
   -6.8648   25.9651   54.1371 C   0  0  0  0  0  0
   -7.2190   28.1700   53.2304 C   0  0  0  0  0  0
   -2.3390   25.0989   55.7100 O   0  0  0  0  0  0
   -1.6755   31.0175   56.5100 C   0  0  0  0  0  0
   -2.1837   30.0614   58.6474 C   0  0  0  0  0  0
   -7.3506   27.5727   50.1097 C   0  0  0  0  0  0
   -9.9577   27.2612   49.1925 C   0  0  0  0  0  0
   -7.7441   28.1700   48.9116 C   0  0  0  0  0  0
   -9.0494   28.0143   48.4509 C   0  0  0  0  0  0
   -4.2787   30.1679   55.7998 H   0  0  0  0  0  0
   -2.2898   26.1808   57.4269 H   0  0  0  0  0  0
   -2.1801   29.7700   54.7819 H   0  0  0  0  0  0
   -0.8834   29.1766   55.7683 H   0  0  0  0  0  0
   -1.4832   28.1029   58.1289 H   0  0  0  0  0  0
   -3.1440   28.1143   58.6561 H   0  0  0  0  0  0
   -6.0297   25.8680   56.1099 H   0  0  0  0  0  0
   -6.6664   29.8051   54.4959 H   0  0  0  0  0  0
   -6.9179   24.8907   54.0366 H   0  0  0  0  0  0
   -7.5400   28.8270   52.4399 H   0  0  0  0  0  0
   -3.0992   24.5575   55.9985 H   0  0  0  0  0  0
   -2.5875   31.6169   56.4909 H   0  0  0  0  0  0
   -0.9113   31.5997   55.9941 H   0  0  0  0  0  0
   -3.1177   30.6186   58.7428 H   0  0  0  0  0  0
   -1.7736   29.9761   59.6538 H   0  0  0  0  0  0
   -6.3389   27.6980   50.4568 H   0  0  0  0  0  0
  -10.9727   27.1430   48.8407 H   0  0  0  0  0  0
   -7.0324   28.7546   48.3456 H   0  0  0  0  0  0
   -9.3541   28.4787   47.5242 H   0  0  0  0  0  0
  1  3  1  0  0  0
  1  5  1  0  0  0
  1  6  2  0  0  0
  1  7  2  0  0  0
  2  3  1  0  0  0
  2  4  1  0  0  0
  2 13  1  0  0  0
  2 14  1  0  0  0
  3 29  1  0  0  0
  4 10  2  0  0  0
  4 11  1  0  0  0
  5 16  1  0  0  0
  5 17  2  0  0  0
  8  9  1  0  0  0
  8 12  1  0  0  0
  8 25  2  0  0  0
  9 18  1  0  0  0
 11 22  1  0  0  0
 11 30  1  0  0  0
 12 19  1  0  0  0
 12 26  2  0  0  0
 13 23  1  0  0  0
 13 31  1  0  0  0
 13 32  1  0  0  0
 14 24  1  0  0  0
 14 33  1  0  0  0
 14 34  1  0  0  0
 15 24  1  0  0  0
 15 23  1  0  0  0
 16 20  2  0  0  0
 16 35  1  0  0  0
 17 21  1  0  0  0
 17 36  1  0  0  0
 18 21  2  0  0  0
 18 20  1  0  0  0
 20 37  1  0  0  0
 21 38  1  0  0  0
 22 39  1  0  0  0
 23 40  1  0  0  0
 23 41  1  0  0  0
 24 42  1  0  0  0
 24 43  1  0  0  0
 25 27  1  0  0  0
 25 44  1  0  0  0
 26 28  1  0  0  0
 26 45  1  0  0  0
 27 28  2  0  0  0
 27 46  1  0  0  0
 28 47  1  0  0  0
M  END
> <s_m_entry_id>
64182

> <s_m_entry_name>
dock_pv.132

> <s_m_Source_Path>
/home/csk/Desktop/cluster/DUD-E-result/mmp13

> <s_m_Source_File>
dock_pv.maegz

> <i_m_Source_File_Index>
132

> <chembl_id>
CHEMBL115168

> <chembl_pref_name>
None

> <i_lp_mmshare_version>
53161

> <i_f3d_flags>
0

> <r_lp_tautomer_probability>
1

> <s_lp_Force_Field>
OPLS_2005

> <r_lp_Energy>
24.189314

> <b_lp_Chiralities_Consistent>
1

> <s_lp_Variant>
CHEMBL280_lig648-1

> <s_i_glide_gridfile>
glide-grid_830c

> <i_i_glide_lignum>
955

> <i_i_glide_rotatable_bonds>
8

> <r_i_docking_score>
-7.48939032229089

> <r_i_glide_ligand_efficiency>
-0.267478225796103

> <r_i_glide_ligand_efficiency_sa>
-0.812221429767153

> <r_i_glide_ligand_efficiency_ln>
-1.72877118443977

> <r_i_glide_gscore>
-7.48939032229089

> <r_i_glide_lipo>
-3.21969520155286

> <r_i_glide_hbond>
-0.219228925977883

> <r_i_glide_metal>
0

> <r_i_glide_rewards>
-0.152556632489904

> <r_i_glide_evdw>
-44.5681228637695

> <r_i_glide_ecoul>
-14.7464513778687

> <r_i_glide_erotb>
0.76253785787661

> <r_i_glide_esite>
-0.220073570278082

> <r_i_glide_emodel>
-81.5751066198253

> <r_i_glide_energy>
-59.3145742416382

> <r_i_glide_einternal>
18.9251232147217

> <i_i_glide_confnum>
125

> <i_i_glide_posenum>
69

> <r_i_glide_eff_state_penalty>
0

> <s_user_duplicate_titles>
CHEMBL280_lig648

> <s_m_subgroup_title>
dock_pv

> <s_m_subgroupid>
dock_pv

> <b_m_subgroup_collapsed>
1

$$$$
CHEMBL280_lig2135
                    3D
 Schrodinger Suite 2021-1.
 56 58  0  0  1  0            999 V2000
   -5.1387   27.4949   58.8962 O   0  0  0  0  0  0
   -5.0340   28.7050   58.0689 S   0  0  0  0  0  0
   -5.5862   29.9860   58.5149 O   0  0  0  0  0  0
   -3.3369   29.0071   57.6552 N   0  0  1  0  0  0
   -2.3687   27.8728   57.6515 C   0  0  2  0  0  0
   -0.8976   28.3480   57.9923 C   0  0  0  0  0  0
   -0.5328   29.5596   57.0913 C   0  0  0  0  0  0
   -1.5509   30.7215   57.1457 C   0  0  2  0  0  0
   -2.9979   30.2433   56.8935 C   0  0  0  0  0  0
   -2.4972   27.0672   56.3288 C   0  0  0  0  0  0
   -2.7247   27.5847   55.2286 O   0  0  0  0  0  0
   -2.3348   25.7507   56.4651 N   0  0  0  0  0  0
   -2.3390   24.9639   55.3200 O   0  0  0  0  0  0
   -0.8285   28.7926   59.4730 C   0  0  0  0  0  0
    0.1573   27.2312   57.7575 C   0  0  0  0  0  0
   -5.8501   28.3370   56.5218 C   0  0  0  0  0  0
   -6.4043   29.3978   55.8123 C   0  0  0  0  0  0
   -7.0975   29.1487   54.6414 C   0  0  0  0  0  0
   -7.2219   27.8550   54.1472 C   0  0  0  0  0  0
   -6.6458   26.7846   54.8483 C   0  0  0  0  0  0
   -5.9667   27.0263   56.0452 C   0  0  0  0  0  0
   -7.9384   27.7513   52.9779 O   0  0  0  0  0  0
   -7.8982   26.5597   52.2090 C   0  0  0  0  0  0
   -8.3436   26.9248   50.8031 C   0  0  0  0  0  0
   -9.5679   26.4785   50.3003 C   0  0  0  0  0  0
   -9.9860   26.8890   49.0348 C   0  0  0  0  0  0
   -9.1763   27.7279   48.2727 C   0  0  0  0  0  0
   -7.9525   28.1690   48.7681 C   0  0  0  0  0  0
   -7.5389   27.7690   50.0356 C   0  0  0  0  0  0
   -9.5849   28.1207   47.0443 F   0  0  0  0  0  0
   -1.1968   31.7009   56.1930 O   0  0  0  0  0  0
   -2.6926   27.1790   58.4310 H   0  0  0  0  0  0
    0.4565   29.9365   57.3581 H   0  0  0  0  0  0
   -0.4371   29.2199   56.0683 H   0  0  0  0  0  0
   -1.4972   31.2086   58.1188 H   0  0  0  0  0  0
   -3.0656   29.9936   55.8342 H   0  0  0  0  0  0
   -3.7243   31.0265   57.1084 H   0  0  0  0  0  0
   -2.2781   25.2224   57.3278 H   0  0  0  0  0  0
   -3.1587   24.4311   55.4404 H   0  0  0  0  0  0
    0.1610   29.1674   59.7353 H   0  0  0  0  0  0
   -1.5390   29.5830   59.7095 H   0  0  0  0  0  0
   -1.0441   27.9617   60.1445 H   0  0  0  0  0  0
    1.1552   27.5542   58.0674 H   0  0  0  0  0  0
   -0.0753   26.3354   58.3375 H   0  0  0  0  0  0
    0.2423   26.9300   56.7141 H   0  0  0  0  0  0
   -6.3174   30.4140   56.1678 H   0  0  0  0  0  0
   -7.5388   29.9727   54.1100 H   0  0  0  0  0  0
   -6.7346   25.7697   54.4902 H   0  0  0  0  0  0
   -5.5408   26.2008   56.5976 H   0  0  0  0  0  0
   -6.8813   26.1690   52.1567 H   0  0  0  0  0  0
   -8.5400   25.7952   52.6496 H   0  0  0  0  0  0
  -10.2025   25.8302   50.8891 H   0  0  0  0  0  0
  -10.9399   26.5678   48.6427 H   0  0  0  0  0  0
   -7.3340   28.8278   48.1784 H   0  0  0  0  0  0
   -6.6032   28.1348   50.4326 H   0  0  0  0  0  0
   -1.7606   32.4680   56.3155 H   0  0  0  0  0  0
  1  2  2  0  0  0
  2  3  2  0  0  0
  2 16  1  0  0  0
  2  4  1  0  0  0
  4  5  1  0  0  0
  4  9  1  0  0  0
  5  6  1  0  0  0
  5 10  1  0  0  0
  5 32  1  0  0  0
  6  7  1  0  0  0
  6 14  1  0  0  0
  6 15  1  0  0  0
  7  8  1  0  0  0
  7 33  1  0  0  0
  7 34  1  0  0  0
  8  9  1  0  0  0
  8 31  1  0  0  0
  8 35  1  0  0  0
  9 36  1  0  0  0
  9 37  1  0  0  0
 10 11  2  0  0  0
 10 12  1  0  0  0
 12 13  1  0  0  0
 12 38  1  0  0  0
 13 39  1  0  0  0
 14 40  1  0  0  0
 14 41  1  0  0  0
 14 42  1  0  0  0
 15 43  1  0  0  0
 15 44  1  0  0  0
 15 45  1  0  0  0
 16 17  1  0  0  0
 16 21  2  0  0  0
 17 18  2  0  0  0
 17 46  1  0  0  0
 18 19  1  0  0  0
 18 47  1  0  0  0
 19 20  2  0  0  0
 19 22  1  0  0  0
 20 21  1  0  0  0
 20 48  1  0  0  0
 21 49  1  0  0  0
 22 23  1  0  0  0
 23 24  1  0  0  0
 23 50  1  0  0  0
 23 51  1  0  0  0
 24 25  1  0  0  0
 24 29  2  0  0  0
 25 26  2  0  0  0
 25 52  1  0  0  0
 26 27  1  0  0  0
 26 53  1  0  0  0
 27 28  2  0  0  0
 27 30  1  0  0  0
 28 29  1  0  0  0
 28 54  1  0  0  0
 29 55  1  0  0  0
 31 56  1  0  0  0
M  END
> <s_m_entry_id>
64183

> <s_m_entry_name>
dock_pv.133

> <s_m_Source_Path>
/home/csk/Desktop/cluster/DUD-E-result/mmp13

> <s_m_Source_File>
dock_pv.maegz

> <i_m_Source_File_Index>
133

> <chembl_id>
CHEMBL3921667

> <chembl_pref_name>
None

> <i_lp_mmshare_version>
53161

> <i_f3d_flags>
0

> <r_lp_tautomer_probability>
1

> <s_lp_Force_Field>
OPLS_2005

> <r_lp_Energy>
28.140718

> <b_lp_Chiralities_Consistent>
1

> <s_lp_Variant>
CHEMBL280_lig2135-1

> <s_i_glide_gridfile>
glide-grid_830c

> <i_i_glide_lignum>
2980

> <i_i_glide_rotatable_bonds>
9

> <r_i_docking_score>
-7.48798037427391

> <r_i_glide_ligand_efficiency>
-0.241547754008836

> <r_i_glide_ligand_efficiency_sa>
-0.75879344020339

> <r_i_glide_ligand_efficiency_ln>
-1.68876905343785

> <r_i_glide_gscore>
-7.48798037427391

> <r_i_glide_lipo>
-3.30831322972331

> <r_i_glide_hbond>
0

> <r_i_glide_metal>
0

> <r_i_glide_rewards>
-0.341407276971944

> <r_i_glide_evdw>
-42.747932434082

> <r_i_glide_ecoul>
-14.1724939346313

> <r_i_glide_erotb>
0.68599001192576

> <r_i_glide_esite>
-0.260979167605608

> <r_i_glide_emodel>
-85.7022987386087

> <r_i_glide_energy>
-56.9204263687134

> <r_i_glide_einternal>
9.88056564331055

> <i_i_glide_confnum>
8

> <i_i_glide_posenum>
382

> <r_i_glide_eff_state_penalty>
0

> <s_user_duplicate_titles>
CHEMBL280_lig2135

> <s_m_subgroup_title>
dock_pv

> <s_m_subgroupid>
dock_pv

> <b_m_subgroup_collapsed>
1

$$$$
CHEMBL280_lig2071
                    3D
 Schrodinger Suite 2021-1.
 42 44  0  0  1  0            999 V2000
   -7.1373   27.7708   50.6818 N   0  0  0  0  0  0
   -7.5297   27.1047   51.8333 C   0  0  0  0  0  0
   -8.6299   26.4450   51.9135 N   0  0  0  0  0  0
   -9.5271   26.3543   50.8484 C   0  0  0  0  0  0
   -9.1361   27.0825   49.5752 C   0  0  0  0  0  0
   -9.9682   27.0706   48.4465 C   0  0  0  0  0  0
   -9.5922   27.7748   47.2988 C   0  0  0  0  0  0
   -8.4004   28.5114   47.2896 C   0  0  0  0  0  0
   -7.5730   28.5183   48.4113 C   0  0  0  0  0  0
   -7.9362   27.7933   49.5395 C   0  0  0  0  0  0
   -6.6144   27.1575   53.0013 C   0  0  0  0  0  0
   -5.5418   27.7700   52.9712 O   0  0  0  0  0  0
   -6.9956   26.4597   54.0949 N   0  0  0  0  0  0
  -10.5972   25.7717   50.9101 O   0  0  0  0  0  0
  -10.6491   27.7085   45.8787 S   0  0  0  0  0  0
   -9.7902   28.5037   44.4877 C   0  0  0  0  0  0
   -6.2020   26.2625   55.3106 C   0  0  0  0  0  0
   -5.9296   27.4838   56.1938 C   0  0  0  0  0  0
   -6.5489   28.7247   55.9886 C   0  0  0  0  0  0
   -6.3282   29.7995   56.8511 C   0  0  0  0  0  0
   -5.4314   29.6345   57.9190 C   0  0  0  0  0  0
   -4.7760   28.4186   58.1078 C   0  0  0  0  0  0
   -5.0286   27.3496   57.2523 C   0  0  0  0  0  0
   -7.0334   30.9577   56.5889 O   0  0  0  0  0  0
   -6.9162   32.0533   57.4888 C   0  0  0  0  0  0
   -6.2585   28.2763   50.6602 H   0  0  0  0  0  0
  -10.9038   26.5266   48.4496 H   0  0  0  0  0  0
   -8.0910   29.0712   46.4198 H   0  0  0  0  0  0
   -6.6548   29.0826   48.4010 H   0  0  0  0  0  0
   -7.8834   25.9789   54.0400 H   0  0  0  0  0  0
  -10.3960   28.4252   43.5856 H   0  0  0  0  0  0
   -9.6226   29.5619   44.6927 H   0  0  0  0  0  0
   -8.8280   28.0238   44.2980 H   0  0  0  0  0  0
   -5.2509   25.8038   55.0332 H   0  0  0  0  0  0
   -6.7053   25.5158   55.9273 H   0  0  0  0  0  0
   -7.2444   28.8618   55.1752 H   0  0  0  0  0  0
   -5.2311   30.4388   58.6101 H   0  0  0  0  0  0
   -4.0765   28.3020   58.9216 H   0  0  0  0  0  0
   -4.5264   26.4060   57.4150 H   0  0  0  0  0  0
   -7.5582   32.8663   57.1501 H   0  0  0  0  0  0
   -7.2345   31.7800   58.4963 H   0  0  0  0  0  0
   -5.8941   32.4332   57.5264 H   0  0  0  0  0  0
  1 10  1  0  0  0
  1 26  1  0  0  0
  1  2  1  0  0  0
  2 11  1  0  0  0
  2  3  2  0  0  0
  3  4  1  0  0  0
  4 14  2  0  0  0
  4  5  1  0  0  0
  5  6  1  0  0  0
  5 10  2  0  0  0
  6 27  1  0  0  0
  6  7  2  0  0  0
  7 15  1  0  0  0
  7  8  1  0  0  0
  8 28  1  0  0  0
  8  9  2  0  0  0
  9 29  1  0  0  0
  9 10  1  0  0  0
 11 12  2  0  0  0
 11 13  1  0  0  0
 13 17  1  0  0  0
 13 30  1  0  0  0
 15 16  1  0  0  0
 16 31  1  0  0  0
 16 32  1  0  0  0
 16 33  1  0  0  0
 17 18  1  0  0  0
 17 34  1  0  0  0
 17 35  1  0  0  0
 18 19  1  0  0  0
 18 23  2  0  0  0
 19 20  2  0  0  0
 19 36  1  0  0  0
 20 21  1  0  0  0
 20 24  1  0  0  0
 21 22  2  0  0  0
 21 37  1  0  0  0
 22 23  1  0  0  0
 22 38  1  0  0  0
 23 39  1  0  0  0
 24 25  1  0  0  0
 25 40  1  0  0  0
 25 41  1  0  0  0
 25 42  1  0  0  0
M  END
> <s_m_entry_id>
64184

> <s_m_entry_name>
dock_pv.134

> <s_m_Source_Path>
/home/csk/Desktop/cluster/DUD-E-result/mmp13

> <s_m_Source_File>
dock_pv.maegz

> <i_m_Source_File_Index>
134

> <chembl_id>
CHEMBL3359065

> <chembl_pref_name>
None

> <i_lp_mmshare_version>
53161

> <i_f3d_flags>
0

> <r_lp_tautomer_probability>
0.116051

> <s_lp_Force_Field>
OPLS_2005

> <r_lp_Energy>
16.521751

> <b_lp_Chiralities_Consistent>
1

> <s_lp_Variant>
CHEMBL280_lig2071-2

> <s_i_glide_gridfile>
glide-grid_830c

> <i_i_glide_lignum>
2871

> <i_i_glide_rotatable_bonds>
6

> <r_i_docking_score>
-7.48740850263085

> <r_i_glide_ligand_efficiency>
-0.299496340105234

> <r_i_glide_ligand_efficiency_sa>
-0.875732610057913

> <r_i_glide_ligand_efficiency_ln>
-1.77474019465002

> <r_i_glide_gscore>
-7.48740850263085

> <r_i_glide_lipo>
-3.26386297245063

> <r_i_glide_hbond>
-0.32

> <r_i_glide_metal>
0

> <r_i_glide_rewards>
-0.985665681460112

> <r_i_glide_evdw>
-48.5205612182617

> <r_i_glide_ecoul>
-7.31545209884644

> <r_i_glide_erotb>
0.605466027019936

> <r_i_glide_esite>
0

> <r_i_glide_emodel>
-80.9517736182086

> <r_i_glide_energy>
-55.8360133171082

> <r_i_glide_einternal>
1.38044738769531

> <i_i_glide_confnum>
1

> <i_i_glide_posenum>
166

> <r_i_glide_eff_state_penalty>
0

> <s_user_duplicate_titles>
CHEMBL280_lig2071

> <s_m_subgroup_title>
dock_pv

> <s_m_subgroupid>
dock_pv

> <b_m_subgroup_collapsed>
1

$$$$
CHEMBL280_lig596
                    3D
 Schrodinger Suite 2021-1.
 43 45  0  0  1  0            999 V2000
   -3.9860   27.4580   55.0713 S   0  0  0  0  0  0
   -4.4918   28.2880   56.7118 C   0  0  1  0  0  0
   -5.5381   27.1760   54.1808 C   0  0  0  0  0  0
   -3.3295   26.1700   55.3100 O   0  0  0  0  0  0
   -3.1970   28.4041   54.2880 O   0  0  0  0  0  0
   -3.2843   29.0974   57.2488 C   0  0  0  0  0  0
   -8.9547   26.1706   51.3100 S   0  0  0  0  0  0
   -5.9336   28.0938   53.2151 C   0  0  0  0  0  0
   -6.3300   26.0523   54.4049 C   0  0  0  0  0  0
   -7.7079   26.6526   52.4938 C   0  0  0  0  0  0
   -3.6383   30.0721   58.3912 C   0  0  1  0  0  0
   -2.2114   31.0620   58.9096 S   0  0  0  0  0  0
   -8.8196   27.1729   49.8367 C   0  0  0  0  0  0
   -7.3940   25.7815   53.5412 C   0  0  0  0  0  0
   -7.0269   27.8590   52.3985 C   0  0  0  0  0  0
   -5.7628   29.1509   56.5067 C   0  0  0  0  0  0
   -6.0743   30.0533   57.7103 C   0  0  0  0  0  0
   -4.8732   30.9338   58.0803 C   0  0  0  0  0  0
   -7.6054   27.6877   49.3698 C   0  0  0  0  0  0
   -9.9809   27.3855   49.0943 C   0  0  0  0  0  0
   -9.9391   28.1355   47.9204 C   0  0  0  0  0  0
   -7.5674   28.4671   48.2153 C   0  0  0  0  0  0
   -8.7350   28.6864   47.4930 C   0  0  0  0  0  0
   -4.7122   27.4254   57.3416 H   0  0  0  0  0  0
   -2.4907   28.4190   57.5658 H   0  0  0  0  0  0
   -2.8681   29.6951   56.4362 H   0  0  0  0  0  0
   -5.3514   28.9700   53.0580 H   0  0  0  0  0  0
   -6.0633   25.3560   55.1842 H   0  0  0  0  0  0
   -3.8339   29.5135   59.3051 H   0  0  0  0  0  0
   -2.0754   31.7307   57.7605 H   0  0  0  0  0  0
   -7.9373   24.8632   53.6564 H   0  0  0  0  0  0
   -7.2891   28.6000   51.6640 H   0  0  0  0  0  0
   -5.6297   29.7874   55.6308 H   0  0  0  0  0  0
   -6.6272   28.5174   56.3034 H   0  0  0  0  0  0
   -6.9454   30.6757   57.4999 H   0  0  0  0  0  0
   -6.3395   29.4359   58.5695 H   0  0  0  0  0  0
   -5.1252   31.5532   58.9429 H   0  0  0  0  0  0
   -4.6532   31.6202   57.2608 H   0  0  0  0  0  0
   -6.6759   27.4770   49.8738 H   0  0  0  0  0  0
  -10.9229   26.9697   49.4226 H   0  0  0  0  0  0
  -10.8396   28.2949   47.3457 H   0  0  0  0  0  0
   -6.6281   28.8696   47.8658 H   0  0  0  0  0  0
   -8.6986   29.2745   46.5872 H   0  0  0  0  0  0
  1  2  1  0  0  0
  1  3  1  0  0  0
  1  4  2  0  0  0
  1  5  2  0  0  0
  2  6  1  0  0  0
  2 16  1  0  0  0
  2 24  1  0  0  0
  3  8  2  0  0  0
  3  9  1  0  0  0
  6 11  1  0  0  0
  6 25  1  0  0  0
  6 26  1  0  0  0
  7 10  1  0  0  0
  7 13  1  0  0  0
  8 15  1  0  0  0
  8 27  1  0  0  0
  9 14  2  0  0  0
  9 28  1  0  0  0
 10 14  1  0  0  0
 10 15  2  0  0  0
 11 12  1  0  0  0
 11 18  1  0  0  0
 11 29  1  0  0  0
 12 30  1  0  0  0
 13 19  2  0  0  0
 13 20  1  0  0  0
 14 31  1  0  0  0
 15 32  1  0  0  0
 16 17  1  0  0  0
 16 33  1  0  0  0
 16 34  1  0  0  0
 17 18  1  0  0  0
 17 35  1  0  0  0
 17 36  1  0  0  0
 18 37  1  0  0  0
 18 38  1  0  0  0
 19 22  1  0  0  0
 19 39  1  0  0  0
 20 21  2  0  0  0
 20 40  1  0  0  0
 21 23  1  0  0  0
 21 41  1  0  0  0
 22 23  2  0  0  0
 22 42  1  0  0  0
 23 43  1  0  0  0
M  END
> <s_m_entry_id>
64185

> <s_m_entry_name>
dock_pv.135

> <s_m_Source_Path>
/home/csk/Desktop/cluster/DUD-E-result/mmp13

> <s_m_Source_File>
dock_pv.maegz

> <i_m_Source_File_Index>
135

> <chembl_id>
CHEMBL300697

> <chembl_pref_name>
None

> <i_lp_mmshare_version>
53161

> <i_f3d_flags>
0

> <r_lp_tautomer_probability>
1

> <s_lp_Force_Field>
OPLS_2005

> <r_lp_Energy>
10.996512

> <b_lp_Chiralities_Consistent>
1

> <s_lp_Variant>
CHEMBL280_lig596-4

> <s_i_glide_gridfile>
glide-grid_830c

> <i_i_glide_lignum>
860

> <i_i_glide_rotatable_bonds>
5

> <r_i_docking_score>
-7.48298431142921

> <r_i_glide_ligand_efficiency>
-0.325347143975183

> <r_i_glide_ligand_efficiency_sa>
-0.925243998773003

> <r_i_glide_ligand_efficiency_ln>
-1.80945345845393

> <r_i_glide_gscore>
-7.48298431142921

> <r_i_glide_lipo>
-3.75587551622947

> <r_i_glide_hbond>
0

> <r_i_glide_metal>
0

> <r_i_glide_rewards>
-0.968699327021828

> <r_i_glide_evdw>
-40.6916236877441

> <r_i_glide_ecoul>
-6.68420600891113

> <r_i_glide_erotb>
0.578682482464492

> <r_i_glide_esite>
-0.299879864918526

> <r_i_glide_emodel>
-66.2288029204401

> <r_i_glide_energy>
-47.3758296966553

> <r_i_glide_einternal>
5.07846736907959

> <i_i_glide_confnum>
40

> <i_i_glide_posenum>
273

> <r_i_glide_eff_state_penalty>
0

> <s_user_duplicate_titles>
CHEMBL280_lig596

> <s_m_subgroup_title>
dock_pv

> <s_m_subgroupid>
dock_pv

> <b_m_subgroup_collapsed>
1

$$$$
CHEMBL280_lig1126
                    3D
 Schrodinger Suite 2021-1.
 44 45  0  0  1  0            999 V2000
   -3.6299   27.3825   57.4687 N   0  0  3  0  0  0
   -2.5375   27.7915   56.5622 C   0  0  1  0  0  0
   -2.0808   29.2678   56.7717 C   0  0  0  0  0  0
   -0.9606   29.6978   55.8092 C   0  0  0  0  0  0
   -1.7154   29.6184   58.2306 C   0  0  0  0  0  0
   -1.2054   26.5182   56.8047 P   0  0  0  0  0  0
    0.1273   26.9317   57.3100 O   0  0  0  0  0  0
   -1.9092   25.3700   57.7100 O   0  0  0  0  0  0
   -1.1373   25.7700   55.3602 O   0  0  0  0  0  0
   -5.2017   28.1284   57.5111 S   0  0  0  0  0  0
   -5.9346   27.7731   55.9183 C   0  0  0  0  0  0
   -5.9390   27.3635   58.5100 O   0  0  0  0  0  0
   -5.0511   29.5807   57.6420 O   0  0  0  0  0  0
   -6.1603   28.8254   55.0385 C   0  0  0  0  0  0
   -6.6759   28.5700   53.7775 C   0  0  0  0  0  0
   -7.0110   27.2790   53.3786 C   0  0  0  0  0  0
   -6.8009   26.2240   54.2781 C   0  0  0  0  0  0
   -6.2584   26.4668   55.5429 C   0  0  0  0  0  0
   -7.6271   27.0796   52.0371 C   0  0  0  0  0  0
   -7.1747   27.7700   50.9061 C   0  0  0  0  0  0
   -7.8328   27.6734   49.6793 C   0  0  0  0  0  0
   -8.9613   26.8684   49.5630 C   0  0  0  0  0  0
   -9.4221   26.1700   50.6745 C   0  0  0  0  0  0
   -8.7468   26.2657   51.8916 C   0  0  0  0  0  0
   -7.2692   28.5700   48.3156 Cl  0  0  0  0  0  0
   -3.5117   26.5226   58.0156 H   0  0  0  0  0  0
   -2.9201   27.6950   55.5472 H   0  0  0  0  0  0
   -2.9266   29.8992   56.4994 H   0  0  0  0  0  0
    0.0078   29.2985   56.1100 H   0  0  0  0  0  0
   -0.8606   30.7838   55.7873 H   0  0  0  0  0  0
   -1.1672   29.3700   54.7911 H   0  0  0  0  0  0
   -0.8597   29.0451   58.5868 H   0  0  0  0  0  0
   -1.4639   30.6750   58.3292 H   0  0  0  0  0  0
   -2.5459   29.4273   58.9100 H   0  0  0  0  0  0
   -2.7656   24.9992   57.4058 H   0  0  0  0  0  0
   -0.3210   25.2114   55.3100 H   0  0  0  0  0  0
   -5.9153   29.8426   55.3100 H   0  0  0  0  0  0
   -6.8245   29.3914   53.1007 H   0  0  0  0  0  0
   -7.0453   25.2100   53.9956 H   0  0  0  0  0  0
   -6.0850   25.6408   56.2197 H   0  0  0  0  0  0
   -6.3390   28.4423   50.9832 H   0  0  0  0  0  0
   -9.4810   26.7934   48.6190 H   0  0  0  0  0  0
  -10.3052   25.5544   50.5952 H   0  0  0  0  0  0
   -9.1390   25.7700   52.7606 H   0  0  0  0  0  0
  1 10  1  0  0  0
  1  2  1  0  0  0
  1 26  1  0  0  0
  2  3  1  0  0  0
  2  6  1  0  0  0
  2 27  1  0  0  0
  3  4  1  0  0  0
  3  5  1  0  0  0
  3 28  1  0  0  0
  4 29  1  0  0  0
  4 30  1  0  0  0
  4 31  1  0  0  0
  5 32  1  0  0  0
  5 33  1  0  0  0
  5 34  1  0  0  0
  6  7  2  0  0  0
  6  8  1  0  0  0
  6  9  1  0  0  0
  8 35  1  0  0  0
  9 36  1  0  0  0
 10 13  2  0  0  0
 10 11  1  0  0  0
 10 12  2  0  0  0
 11 14  2  0  0  0
 11 18  1  0  0  0
 14 15  1  0  0  0
 14 37  1  0  0  0
 15 16  2  0  0  0
 15 38  1  0  0  0
 16 17  1  0  0  0
 16 19  1  0  0  0
 17 18  2  0  0  0
 17 39  1  0  0  0
 18 40  1  0  0  0
 19 20  2  0  0  0
 19 24  1  0  0  0
 20 21  1  0  0  0
 20 41  1  0  0  0
 21 22  2  0  0  0
 21 25  1  0  0  0
 22 23  1  0  0  0
 22 42  1  0  0  0
 23 24  2  0  0  0
 23 43  1  0  0  0
 24 44  1  0  0  0
M  END
> <s_m_entry_id>
64186

> <s_m_entry_name>
dock_pv.136

> <s_m_Source_Path>
/home/csk/Desktop/cluster/DUD-E-result/mmp13

> <s_m_Source_File>
dock_pv.maegz

> <i_m_Source_File_Index>
136

> <chembl_id>
CHEMBL228188

> <chembl_pref_name>
None

> <i_lp_mmshare_version>
53161

> <i_f3d_flags>
0

> <r_lp_tautomer_probability>
1

> <s_lp_Force_Field>
OPLS_2005

> <r_lp_Energy>
0.085172

> <b_lp_Chiralities_Consistent>
1

> <s_lp_Variant>
CHEMBL280_lig1126-1

> <s_i_glide_gridfile>
glide-grid_830c

> <i_i_glide_lignum>
1811

> <i_i_glide_rotatable_bonds>
8

> <r_i_docking_score>
-7.48198080147301

> <r_i_glide_ligand_efficiency>
-0.29927923205892

> <r_i_glide_ligand_efficiency_sa>
-0.875097782280064

> <r_i_glide_ligand_efficiency_ln>
-1.77345366682053

> <r_i_glide_gscore>
-7.48198080147301

> <r_i_glide_lipo>
-3.19284265814162

> <r_i_glide_hbond>
-0.169342753165526

> <r_i_glide_metal>
0

> <r_i_glide_rewards>
-0.0584719614576314

> <r_i_glide_evdw>
-34.9360084533691

> <r_i_glide_ecoul>
-18.5371990203857

> <r_i_glide_erotb>
0.602110650557518

> <r_i_glide_esite>
-0.136053803539436

> <r_i_glide_emodel>
-70.5337936150983

> <r_i_glide_energy>
-53.4732074737549

> <r_i_glide_einternal>
7.31356716156006

> <i_i_glide_confnum>
98

> <i_i_glide_posenum>
396

> <r_i_glide_eff_state_penalty>
0

> <s_user_duplicate_titles>
CHEMBL280_lig1126,376958

> <s_m_subgroup_title>
dock_pv

> <s_m_subgroupid>
dock_pv

> <b_m_subgroup_collapsed>
1

$$$$
CHEMBL280_lig1908
                    3D
 Schrodinger Suite 2021-1.
 53 55  0  0  1  0            999 V2000
   -5.0166   28.6066   58.0361 S   0  0  0  0  0  0
   -3.3138   28.9349   57.6692 N   0  0  3  0  0  0
   -2.3051   27.8265   57.7273 C   0  0  1  0  0  0
   -2.3419   27.0367   56.4021 C   0  0  0  0  0  0
   -5.7996   28.2885   56.4607 C   0  0  0  0  0  0
   -0.8499   28.3420   58.0295 C   0  0  2  0  0  0
   -5.1352   27.3705   58.8190 O   0  0  0  0  0  0
   -5.5916   29.8665   58.5132 O   0  0  0  0  0  0
   -9.6113   26.6278   50.2635 C   0  0  0  0  0  0
   -8.3257   26.9984   50.6796 C   0  0  0  0  0  0
  -10.0797   26.9943   49.0011 C   0  0  0  0  0  0
   -2.3422   27.6073   55.3117 O   0  0  0  0  0  0
   -2.3362   25.7048   56.4984 N   0  0  0  0  0  0
   -7.7742   26.6465   52.0607 C   0  0  0  0  0  0
   -7.5412   27.7720   49.8188 C   0  0  0  0  0  0
   -2.9840   30.1853   56.9277 C   0  0  0  0  0  0
   -5.8850   26.9985   55.9254 C   0  0  0  0  0  0
   -6.3647   29.3670   55.7889 C   0  0  0  0  0  0
   -7.8419   27.8139   52.8659 O   0  0  0  0  0  0
   -9.2839   27.7572   48.1509 C   0  0  0  0  0  0
  -10.6714   25.7702   51.3100 Cl  0  0  0  0  0  0
   -7.1407   27.8835   54.0498 C   0  0  0  0  0  0
   -0.8599   28.7120   59.3933 O   0  0  0  0  0  0
   -8.0172   28.1591   48.5647 C   0  0  0  0  0  0
   -6.5456   26.7969   54.7106 C   0  0  0  0  0  0
   -7.0517   29.1538   54.6061 C   0  0  0  0  0  0
   -9.7462   28.1186   46.9335 F   0  0  0  0  0  0
   -2.3388   24.9696   55.3100 O   0  0  0  0  0  0
   -0.5045   29.5995   57.1891 C   0  0  0  0  0  0
   -1.5758   30.7073   57.2694 C   0  0  0  0  0  0
    0.2680   27.2749   57.9377 C   0  0  0  0  0  0
   -2.6178   27.1280   58.5070 H   0  0  0  0  0  0
  -11.0725   26.7100   48.6850 H   0  0  0  0  0  0
   -2.4228   25.1392   57.3352 H   0  0  0  0  0  0
   -6.7391   26.3263   51.9484 H   0  0  0  0  0  0
   -8.3137   25.8239   52.5289 H   0  0  0  0  0  0
   -6.5618   28.0915   50.1373 H   0  0  0  0  0  0
   -2.9907   29.9585   55.8603 H   0  0  0  0  0  0
   -3.7477   30.9422   57.1135 H   0  0  0  0  0  0
   -5.4546   26.1547   56.4482 H   0  0  0  0  0  0
   -6.3041   30.3692   56.1878 H   0  0  0  0  0  0
   -0.0870   29.2556   59.5651 H   0  0  0  0  0  0
   -7.3976   28.7585   47.9121 H   0  0  0  0  0  0
   -6.6076   25.7957   54.3100 H   0  0  0  0  0  0
   -7.5093   29.9930   54.1153 H   0  0  0  0  0  0
   -3.1758   24.4562   55.3910 H   0  0  0  0  0  0
    0.4839   29.9821   57.4503 H   0  0  0  0  0  0
   -0.3897   29.2982   56.1460 H   0  0  0  0  0  0
   -1.3157   31.5307   56.6018 H   0  0  0  0  0  0
   -1.5926   31.1345   58.2739 H   0  0  0  0  0  0
    0.4292   26.9398   56.9129 H   0  0  0  0  0  0
    1.2253   27.6626   58.2884 H   0  0  0  0  0  0
    0.0342   26.3973   58.5408 H   0  0  0  0  0  0
  1  2  1  0  0  0
  1  5  1  0  0  0
  1  7  2  0  0  0
  1  8  2  0  0  0
  2  3  1  0  0  0
  2 16  1  0  0  0
  3  4  1  0  0  0
  3  6  1  0  0  0
  3 32  1  0  0  0
  4 12  2  0  0  0
  4 13  1  0  0  0
  5 17  2  0  0  0
  5 18  1  0  0  0
  6 23  1  0  0  0
  6 31  1  0  0  0
  6 29  1  0  0  0
  9 10  2  0  0  0
  9 11  1  0  0  0
  9 21  1  0  0  0
 10 14  1  0  0  0
 10 15  1  0  0  0
 11 20  2  0  0  0
 11 33  1  0  0  0
 13 28  1  0  0  0
 13 34  1  0  0  0
 14 19  1  0  0  0
 14 35  1  0  0  0
 14 36  1  0  0  0
 15 24  2  0  0  0
 15 37  1  0  0  0
 16 30  1  0  0  0
 16 38  1  0  0  0
 16 39  1  0  0  0
 17 25  1  0  0  0
 17 40  1  0  0  0
 18 26  2  0  0  0
 18 41  1  0  0  0
 19 22  1  0  0  0
 20 24  1  0  0  0
 20 27  1  0  0  0
 22 26  1  0  0  0
 22 25  2  0  0  0
 23 42  1  0  0  0
 24 43  1  0  0  0
 25 44  1  0  0  0
 26 45  1  0  0  0
 28 46  1  0  0  0
 29 30  1  0  0  0
 29 47  1  0  0  0
 29 48  1  0  0  0
 30 49  1  0  0  0
 30 50  1  0  0  0
 31 51  1  0  0  0
 31 52  1  0  0  0
 31 53  1  0  0  0
M  END
> <s_m_entry_id>
64187

> <s_m_entry_name>
dock_pv.137

> <s_m_Source_Path>
/home/csk/Desktop/cluster/DUD-E-result/mmp13

> <s_m_Source_File>
dock_pv.maegz

> <i_m_Source_File_Index>
137

> <chembl_id>
CHEMBL187092

> <chembl_pref_name>
None

> <i_lp_mmshare_version>
53161

> <i_f3d_flags>
0

> <r_lp_tautomer_probability>
1

> <s_lp_Force_Field>
OPLS_2005

> <r_lp_Energy>
25.165262

> <b_lp_Chiralities_Consistent>
1

> <s_lp_Variant>
CHEMBL280_lig1908-1

> <s_i_glide_gridfile>
glide-grid_830c

> <i_i_glide_lignum>
2674

> <i_i_glide_rotatable_bonds>
9

> <r_i_docking_score>
-7.47690884847305

> <r_i_glide_ligand_efficiency>
-0.24119060801526

> <r_i_glide_ligand_efficiency_sa>
-0.757671508690375

> <r_i_glide_ligand_efficiency_ln>
-1.68627208506824

> <r_i_glide_gscore>
-7.47690884847305

> <r_i_glide_lipo>
-3.25068021841081

> <r_i_glide_hbond>
-0.00910871332664183

> <r_i_glide_metal>
0

> <r_i_glide_rewards>
-0.201135227428761

> <r_i_glide_evdw>
-40.1056289672852

> <r_i_glide_ecoul>
-15.837700843811

> <r_i_glide_erotb>
0.63297982032394

> <r_i_glide_esite>
-0.268027934694868

> <r_i_glide_emodel>
-84.2890319827011

> <r_i_glide_energy>
-55.9433298110962

> <r_i_glide_einternal>
11.1063060760498

> <i_i_glide_confnum>
22

> <i_i_glide_posenum>
349

> <r_i_glide_eff_state_penalty>
0

> <s_user_duplicate_titles>
CHEMBL280_lig1908,310690

> <s_m_subgroup_title>
dock_pv

> <s_m_subgroupid>
dock_pv

> <b_m_subgroup_collapsed>
1

$$$$
CHEMBL280_lig1749
                    3D
 Schrodinger Suite 2021-1.
 45 47  0  0  1  0            999 V2000
   -2.9476   28.5198   56.8936 C   0  0  0  0  0  0
   -2.5018   29.7851   56.0859 C   0  0  0  0  0  0
   -2.2635   31.0508   56.9305 C   0  0  0  0  0  0
   -1.3653   30.7453   57.9879 O   0  0  0  0  0  0
   -1.8954   29.7915   58.8975 C   0  0  0  0  0  0
   -2.0749   28.4313   58.1897 C   0  0  0  0  0  0
   -4.8241   28.6253   57.3689 S   0  0  0  0  0  0
   -5.0682   27.7339   58.5100 O   0  0  0  0  0  0
   -5.2183   30.0344   57.4646 O   0  0  0  0  0  0
   -5.7657   27.9277   56.0019 C   0  0  0  0  0  0
   -6.3390   28.7429   55.0225 C   0  0  0  0  0  0
   -7.0795   28.1700   53.9863 C   0  0  0  0  0  0
   -7.2236   26.7771   53.9091 C   0  0  0  0  0  0
   -6.6487   25.9801   54.8941 C   0  0  0  0  0  0
   -5.9384   26.5467   55.9433 C   0  0  0  0  0  0
   -7.9668   26.1158   52.9507 O   0  0  0  0  0  0
   -2.7201   27.2693   55.9922 C   0  0  0  0  0  0
   -2.7390   27.3710   54.7612 O   0  0  0  0  0  0
   -2.5406   26.0687   56.5659 N   0  0  0  0  0  0
   -2.3390   24.9700   55.7100 O   0  0  0  0  0  0
   -8.1888   26.5841   51.6727 C   0  0  0  0  0  0
   -7.2672   27.3702   50.9727 C   0  0  0  0  0  0
   -7.5391   27.7700   49.6685 C   0  0  0  0  0  0
   -8.7273   27.3825   49.0564 C   0  0  0  0  0  0
   -9.6391   26.5791   49.7335 C   0  0  0  0  0  0
   -9.3599   26.1702   51.0349 C   0  0  0  0  0  0
   -3.2260   30.0033   55.3100 H   0  0  0  0  0  0
   -1.5670   29.5909   55.5550 H   0  0  0  0  0  0
   -3.1914   31.4694   57.3211 H   0  0  0  0  0  0
   -1.8202   31.8322   56.3123 H   0  0  0  0  0  0
   -2.8405   30.1519   59.3099 H   0  0  0  0  0  0
   -1.2051   29.6923   59.7354 H   0  0  0  0  0  0
   -1.0763   28.0570   57.9535 H   0  0  0  0  0  0
   -2.4967   27.7149   58.8964 H   0  0  0  0  0  0
   -6.2205   29.8162   55.0673 H   0  0  0  0  0  0
   -7.5392   28.8117   53.2505 H   0  0  0  0  0  0
   -6.7390   24.9048   54.8454 H   0  0  0  0  0  0
   -5.5087   25.8989   56.6955 H   0  0  0  0  0  0
   -2.6222   25.8194   57.5457 H   0  0  0  0  0  0
   -3.1756   24.4583   55.7931 H   0  0  0  0  0  0
   -6.3304   27.6619   51.4224 H   0  0  0  0  0  0
   -6.8251   28.3775   49.1303 H   0  0  0  0  0  0
   -8.9329   27.6964   48.0433 H   0  0  0  0  0  0
  -10.5512   26.2686   49.2463 H   0  0  0  0  0  0
  -10.0595   25.5343   51.5563 H   0  0  0  0  0  0
  1  7  1  0  0  0
  1  2  1  0  0  0
  1 17  1  0  0  0
  1  6  1  0  0  0
  2  3  1  0  0  0
  2 27  1  0  0  0
  2 28  1  0  0  0
  3  4  1  0  0  0
  3 29  1  0  0  0
  3 30  1  0  0  0
  4  5  1  0  0  0
  5  6  1  0  0  0
  5 31  1  0  0  0
  5 32  1  0  0  0
  6 33  1  0  0  0
  6 34  1  0  0  0
  7  9  2  0  0  0
  7 10  1  0  0  0
  7  8  2  0  0  0
 10 15  1  0  0  0
 10 11  2  0  0  0
 11 12  1  0  0  0
 11 35  1  0  0  0
 12 13  2  0  0  0
 12 36  1  0  0  0
 13 14  1  0  0  0
 13 16  1  0  0  0
 14 15  2  0  0  0
 14 37  1  0  0  0
 15 38  1  0  0  0
 16 21  1  0  0  0
 17 18  2  0  0  0
 17 19  1  0  0  0
 19 20  1  0  0  0
 19 39  1  0  0  0
 20 40  1  0  0  0
 21 22  2  0  0  0
 21 26  1  0  0  0
 22 23  1  0  0  0
 22 41  1  0  0  0
 23 24  2  0  0  0
 23 42  1  0  0  0
 24 25  1  0  0  0
 24 43  1  0  0  0
 25 26  2  0  0  0
 25 44  1  0  0  0
 26 45  1  0  0  0
M  END
> <s_m_entry_id>
64188

> <s_m_entry_name>
dock_pv.138

> <s_m_Source_Path>
/home/csk/Desktop/cluster/DUD-E-result/mmp13

> <s_m_Source_File>
dock_pv.maegz

> <i_m_Source_File_Index>
138

> <chembl_id>
CHEMBL1801044

> <chembl_pref_name>
None

> <i_lp_mmshare_version>
53161

> <i_f3d_flags>
0

> <r_lp_tautomer_probability>
1

> <s_lp_Force_Field>
OPLS_2005

> <r_lp_Energy>
27.932373

> <b_lp_Chiralities_Consistent>
1

> <s_lp_Variant>
CHEMBL280_lig1749-1

> <s_i_glide_gridfile>
glide-grid_830c

> <i_i_glide_lignum>
2500

> <i_i_glide_rotatable_bonds>
7

> <r_i_docking_score>
-7.46060609634636

> <r_i_glide_ligand_efficiency>
-0.286946388321014

> <r_i_glide_ligand_efficiency_sa>
-0.850077546321486

> <r_i_glide_ligand_efficiency_ln>
-1.75209886148164

> <r_i_glide_gscore>
-7.46060609634636

> <r_i_glide_lipo>
-2.69140668051738

> <r_i_glide_hbond>
-0.0173112152807256

> <r_i_glide_metal>
0

> <r_i_glide_rewards>
-0.887868478363206

> <r_i_glide_evdw>
-40.3960990905762

> <r_i_glide_ecoul>
-16.3728141784668

> <r_i_glide_erotb>
0.815844040035801

> <r_i_glide_esite>
-0.20413668092202

> <r_i_glide_emodel>
-80.7393284812542

> <r_i_glide_energy>
-56.768913269043

> <r_i_glide_einternal>
10.8211908340454

> <i_i_glide_confnum>
113

> <i_i_glide_posenum>
98

> <r_i_glide_eff_state_penalty>
0

> <s_user_duplicate_titles>
CHEMBL280_lig1749

> <s_m_subgroup_title>
dock_pv

> <s_m_subgroupid>
dock_pv

> <b_m_subgroup_collapsed>
1

$$$$
CHEMBL280_lig658
                    3D
 Schrodinger Suite 2021-1.
 46 48  0  0  1  0            999 V2000
   -5.5710   28.7598   57.0383 S   0  0  0  0  0  0
   -2.7106   28.9837   56.7384 C   0  0  0  0  0  0
   -4.0785   29.5473   56.5101 N   0  0  1  0  0  0
   -2.6015   27.4482   56.4433 C   0  0  0  0  0  0
   -6.2026   27.9058   55.5963 C   0  0  0  0  0  0
   -8.2358   26.5502   51.1031 C   0  0  0  0  0  0
   -5.2639   27.7693   58.0778 O   0  0  0  0  0  0
   -6.5240   29.8400   57.3083 O   0  0  0  0  0  0
   -9.3659   26.1703   50.3806 C   0  0  0  0  0  0
   -7.3214   27.4254   50.5983 N   0  0  0  0  0  0
   -2.7390   27.0079   55.2888 O   0  0  0  0  0  0
   -8.0256   25.9965   52.3580 O   0  0  0  0  0  0
   -2.3396   26.6485   57.4898 N   0  0  0  0  0  0
   -1.7561   29.7278   55.7702 C   0  0  0  0  0  0
   -2.3257   29.3567   58.2067 C   0  0  0  0  0  0
   -1.2256   31.3835   57.4708 O   0  0  0  0  0  0
   -6.8077   28.6661   54.5974 C   0  0  0  0  0  0
   -6.1631   26.5139   55.4888 C   0  0  0  0  0  0
   -9.5498   26.6844   49.0951 C   0  0  0  0  0  0
   -7.3657   26.6448   53.3868 C   0  0  0  0  0  0
   -7.5394   27.9380   49.3591 C   0  0  0  0  0  0
   -8.6349   27.5950   48.5785 C   0  0  0  0  0  0
   -7.4059   28.0286   53.5186 C   0  0  0  0  0  0
   -6.7384   25.8900   54.3790 C   0  0  0  0  0  0
  -10.8620   26.1702   48.1096 Cl  0  0  0  0  0  0
   -2.3390   25.2754   57.2868 O   0  0  0  0  0  0
   -2.1721   30.8786   58.4092 C   0  0  0  0  0  0
   -1.6237   31.2299   56.1102 C   0  0  0  0  0  0
   -4.1761   30.0201   55.6041 H   0  0  0  0  0  0
  -10.0653   25.4757   50.8096 H   0  0  0  0  0  0
   -2.2606   26.9090   58.4644 H   0  0  0  0  0  0
   -2.0975   29.6059   54.7436 H   0  0  0  0  0  0
   -0.7560   29.2928   55.8101 H   0  0  0  0  0  0
   -1.3746   28.8982   58.4834 H   0  0  0  0  0  0
   -3.0681   28.9784   58.9109 H   0  0  0  0  0  0
   -6.8588   29.7424   54.6769 H   0  0  0  0  0  0
   -5.7064   25.9156   56.2646 H   0  0  0  0  0  0
   -6.7920   28.6081   48.9616 H   0  0  0  0  0  0
   -8.7492   28.0003   47.5832 H   0  0  0  0  0  0
   -7.9349   28.5808   52.7723 H   0  0  0  0  0  0
   -6.7195   24.8143   54.2928 H   0  0  0  0  0  0
   -3.1318   24.9701   57.7658 H   0  0  0  0  0  0
   -3.1283   31.3974   58.3108 H   0  0  0  0  0  0
   -1.8103   31.0884   59.4163 H   0  0  0  0  0  0
   -2.5557   31.7668   55.9201 H   0  0  0  0  0  0
   -0.8679   31.6930   55.4743 H   0  0  0  0  0  0
  1  3  1  0  0  0
  1  5  1  0  0  0
  1  7  2  0  0  0
  1  8  2  0  0  0
  2  3  1  0  0  0
  2  4  1  0  0  0
  2 14  1  0  0  0
  2 15  1  0  0  0
  3 29  1  0  0  0
  4 11  2  0  0  0
  4 13  1  0  0  0
  5 17  2  0  0  0
  5 18  1  0  0  0
  6 12  1  0  0  0
  6  9  2  0  0  0
  6 10  1  0  0  0
  9 19  1  0  0  0
  9 30  1  0  0  0
 10 21  2  0  0  0
 12 20  1  0  0  0
 13 26  1  0  0  0
 13 31  1  0  0  0
 14 28  1  0  0  0
 14 32  1  0  0  0
 14 33  1  0  0  0
 15 27  1  0  0  0
 15 34  1  0  0  0
 15 35  1  0  0  0
 16 27  1  0  0  0
 16 28  1  0  0  0
 17 23  1  0  0  0
 17 36  1  0  0  0
 18 24  2  0  0  0
 18 37  1  0  0  0
 19 25  1  0  0  0
 19 22  2  0  0  0
 20 24  1  0  0  0
 20 23  2  0  0  0
 21 22  1  0  0  0
 21 38  1  0  0  0
 22 39  1  0  0  0
 23 40  1  0  0  0
 24 41  1  0  0  0
 26 42  1  0  0  0
 27 43  1  0  0  0
 27 44  1  0  0  0
 28 45  1  0  0  0
 28 46  1  0  0  0
M  END
> <s_m_entry_id>
64189

> <s_m_entry_name>
dock_pv.139

> <s_m_Source_Path>
/home/csk/Desktop/cluster/DUD-E-result/mmp13

> <s_m_Source_File>
dock_pv.maegz

> <i_m_Source_File_Index>
139

> <chembl_id>
CHEMBL116237

> <chembl_pref_name>
None

> <i_lp_mmshare_version>
53161

> <i_f3d_flags>
0

> <r_lp_tautomer_probability>
1

> <s_lp_Force_Field>
OPLS_2005

> <r_lp_Energy>
21.402339

> <b_lp_Chiralities_Consistent>
1

> <s_lp_Variant>
CHEMBL280_lig658-1

> <s_i_glide_gridfile>
glide-grid_830c

> <i_i_glide_lignum>
983

> <i_i_glide_rotatable_bonds>
8

> <r_i_docking_score>
-7.45429867929529

> <r_i_glide_ligand_efficiency>
-0.266224952831975

> <r_i_glide_ligand_efficiency_sa>
-0.808415754909757

> <r_i_glide_ligand_efficiency_ln>
-1.72067100290097

> <r_i_glide_gscore>
-7.45429867929529

> <r_i_glide_lipo>
-2.81855161264754

> <r_i_glide_hbond>
-0.297059656328947

> <r_i_glide_metal>
0

> <r_i_glide_rewards>
-0.366749064062779

> <r_i_glide_evdw>
-45.068058013916

> <r_i_glide_ecoul>
-15.427508354187

> <r_i_glide_erotb>
0.759352885125732

> <r_i_glide_esite>
-0.163762077557905

> <r_i_glide_emodel>
-81.4854224093651

> <r_i_glide_energy>
-60.495566368103

> <r_i_glide_einternal>
15.8757848739624

> <i_i_glide_confnum>
73

> <i_i_glide_posenum>
397

> <r_i_glide_eff_state_penalty>
0

> <s_user_duplicate_titles>
CHEMBL280_lig658

> <s_m_subgroup_title>
dock_pv

> <s_m_subgroupid>
dock_pv

> <b_m_subgroup_collapsed>
1

$$$$
CHEMBL280_lig1491
                    3D
 Schrodinger Suite 2021-1.
 48 50  0  0  1  0            999 V2000
   -2.8449   29.9454   57.3524 C   0  0  0  0  0  0
   -1.8414   30.9048   57.1504 C   0  0  0  0  0  0
   -2.1563   32.2183   56.8161 C   0  0  0  0  0  0
   -3.4865   32.5975   56.6892 C   0  0  0  0  0  0
   -4.4960   31.6654   56.9100 C   0  0  0  0  0  0
   -4.2010   30.3358   57.2485 C   0  0  0  0  0  0
   -5.6297   29.2644   57.5740 S   0  0  0  0  0  0
   -6.0668   28.4946   56.0230 C   0  0  0  0  0  0
   -5.2561   28.1960   58.5100 O   0  0  0  0  0  0
   -6.7390   30.1700   57.8845 O   0  0  0  0  0  0
   -6.6059   29.2966   55.0200 C   0  0  0  0  0  0
   -6.8263   28.7554   53.7620 C   0  0  0  0  0  0
   -6.5373   27.4254   53.5079 C   0  0  0  0  0  0
   -6.0903   26.5967   54.5366 C   0  0  0  0  0  0
   -5.8629   27.1290   55.8041 C   0  0  0  0  0  0
   -6.5368   26.9700   52.2178 O   0  0  0  0  0  0
   -7.6435   27.0428   51.4101 C   0  0  0  0  0  0
   -2.3849   28.5207   57.6607 C   0  0  0  0  0  0
   -2.5205   27.5631   56.4714 C   0  0  0  0  0  0
   -2.7354   26.2753   56.7719 N   0  0  0  0  0  0
   -2.3590   27.9581   55.3110 O   0  0  0  0  0  0
   -2.7390   25.3700   55.7100 O   0  0  0  0  0  0
   -8.7672   26.2856   51.7100 C   0  0  0  0  0  0
   -9.7941   26.1700   50.7774 C   0  0  0  0  0  0
   -9.7123   26.8130   49.5427 C   0  0  0  0  0  0
   -8.6098   27.6358   49.2759 C   0  0  0  0  0  0
   -7.5843   27.7473   50.2088 C   0  0  0  0  0  0
  -10.7390   26.5745   48.6512 O   0  0  0  0  0  0
  -10.7091   27.1988   47.3719 C   0  0  0  0  0  0
   -0.7994   30.6311   57.2291 H   0  0  0  0  0  0
   -1.3696   32.9398   56.6505 H   0  0  0  0  0  0
   -3.7379   33.6146   56.4261 H   0  0  0  0  0  0
   -5.5203   31.9952   56.8160 H   0  0  0  0  0  0
   -6.7755   30.3500   55.1893 H   0  0  0  0  0  0
   -7.1390   29.3700   52.9405 H   0  0  0  0  0  0
   -5.8768   25.5559   54.3417 H   0  0  0  0  0  0
   -5.4875   26.4903   56.5908 H   0  0  0  0  0  0
   -2.8485   28.1449   58.5714 H   0  0  0  0  0  0
   -1.3197   28.5297   57.8947 H   0  0  0  0  0  0
   -2.8560   25.8431   57.6824 H   0  0  0  0  0  0
   -3.5572   24.8407   55.8364 H   0  0  0  0  0  0
   -8.8170   25.7700   52.6540 H   0  0  0  0  0  0
  -10.6503   25.5536   51.0030 H   0  0  0  0  0  0
   -8.5119   28.1688   48.3426 H   0  0  0  0  0  0
   -6.7390   28.3659   49.9740 H   0  0  0  0  0  0
  -11.6023   26.9185   46.8141 H   0  0  0  0  0  0
  -10.7054   28.2865   47.4550 H   0  0  0  0  0  0
   -9.8412   26.8803   46.7920 H   0  0  0  0  0  0
  1 18  1  0  0  0
  1  6  1  0  0  0
  1  2  2  0  0  0
  2  3  1  0  0  0
  2 30  1  0  0  0
  3  4  2  0  0  0
  3 31  1  0  0  0
  4  5  1  0  0  0
  4 32  1  0  0  0
  5  6  2  0  0  0
  5 33  1  0  0  0
  6  7  1  0  0  0
  7  8  1  0  0  0
  7  9  2  0  0  0
  7 10  2  0  0  0
  8 15  1  0  0  0
  8 11  2  0  0  0
 11 12  1  0  0  0
 11 34  1  0  0  0
 12 13  2  0  0  0
 12 35  1  0  0  0
 13 16  1  0  0  0
 13 14  1  0  0  0
 14 15  2  0  0  0
 14 36  1  0  0  0
 15 37  1  0  0  0
 16 17  1  0  0  0
 17 23  2  0  0  0
 17 27  1  0  0  0
 18 19  1  0  0  0
 18 38  1  0  0  0
 18 39  1  0  0  0
 19 20  1  0  0  0
 19 21  2  0  0  0
 20 22  1  0  0  0
 20 40  1  0  0  0
 22 41  1  0  0  0
 23 24  1  0  0  0
 23 42  1  0  0  0
 24 25  2  0  0  0
 24 43  1  0  0  0
 25 26  1  0  0  0
 25 28  1  0  0  0
 26 27  2  0  0  0
 26 44  1  0  0  0
 27 45  1  0  0  0
 28 29  1  0  0  0
 29 46  1  0  0  0
 29 47  1  0  0  0
 29 48  1  0  0  0
M  END
> <s_m_entry_id>
64190

> <s_m_entry_name>
dock_pv.140

> <s_m_Source_Path>
/home/csk/Desktop/cluster/DUD-E-result/mmp13

> <s_m_Source_File>
dock_pv.maegz

> <i_m_Source_File_Index>
140

> <chembl_id>
CHEMBL573715

> <chembl_pref_name>
None

> <i_lp_mmshare_version>
53161

> <i_f3d_flags>
0

> <r_lp_tautomer_probability>
1

> <s_lp_Force_Field>
OPLS_2005

> <r_lp_Energy>
32.914382

> <b_lp_Chiralities_Consistent>
1

> <s_lp_Variant>
CHEMBL280_lig1491-1

> <s_i_glide_gridfile>
glide-grid_830c

> <i_i_glide_lignum>
2220

> <i_i_glide_rotatable_bonds>
9

> <r_i_docking_score>
-7.44452617012858

> <r_i_glide_ligand_efficiency>
-0.256707798969951

> <r_i_glide_ligand_efficiency_sa>
-0.788687689174912

> <r_i_glide_ligand_efficiency_ln>
-1.70460771606389

> <r_i_glide_gscore>
-7.44452617012858

> <r_i_glide_lipo>
-3.16105570476679

> <r_i_glide_hbond>
-0.165985079810412

> <r_i_glide_metal>
0

> <r_i_glide_rewards>
-0.74014761168904

> <r_i_glide_evdw>
-43.3055763244629

> <r_i_glide_ecoul>
-12.2207908630371

> <r_i_glide_erotb>
0.807891606247474

> <r_i_glide_esite>
-0.186831934431099

> <r_i_glide_emodel>
-74.281330379051

> <r_i_glide_energy>
-55.5263671875

> <r_i_glide_einternal>
10.6925783157349

> <i_i_glide_confnum>
1

> <i_i_glide_posenum>
356

> <r_i_glide_eff_state_penalty>
0

> <s_user_duplicate_titles>
CHEMBL280_lig1491,570927

> <s_m_subgroup_title>
dock_pv

> <s_m_subgroupid>
dock_pv

> <b_m_subgroup_collapsed>
1

$$$$
CHEMBL280_lig392
                    3D
 Schrodinger Suite 2021-1.
 42 43  0  0  1  0            999 V2000
   -5.3388   27.0362   55.3126 S   0  0  0  0  0  0
   -5.1632   28.7231   55.7904 N   0  0  3  0  0  0
   -6.0182   29.3738   56.8216 C   0  0  2  0  0  0
   -7.1199   30.2184   56.1192 C   0  0  0  0  0  0
   -6.3223   27.0921   53.8186 C   0  0  0  0  0  0
   -4.0003   26.5701   54.9100 O   0  0  0  0  0  0
   -6.1247   26.3468   56.3426 O   0  0  0  0  0  0
   -7.7171   27.2392   51.3744 C   0  0  0  0  0  0
   -8.4177   27.3500   50.0509 C   0  0  0  0  0  0
   -7.3434   30.1698   54.9106 O   0  0  0  0  0  0
   -6.0434   28.0954   52.9093 C   0  0  0  0  0  0
   -7.3189   26.1610   53.5290 C   0  0  0  0  0  0
   -5.1532   30.2638   57.7734 C   0  0  0  0  0  0
   -8.0025   26.2331   52.3095 C   0  0  0  0  0  0
   -6.7362   28.1699   51.7153 C   0  0  0  0  0  0
   -7.8180   28.0169   48.9657 C   0  0  0  0  0  0
   -9.7006   26.8202   49.8644 C   0  0  0  0  0  0
   -7.8411   30.9698   57.0052 O   0  0  0  0  0  0
   -9.7411   27.6221   47.5878 C   0  0  0  0  0  0
  -10.3524   26.9550   48.6423 C   0  0  0  0  0  0
   -8.4712   28.1601   47.7465 C   0  0  0  0  0  0
  -10.6530   27.7928   45.9267 Br  0  0  0  0  0  0
   -4.4795   31.4832   57.0991 C   0  0  0  0  0  0
   -4.0928   29.4304   58.5110 C   0  0  0  0  0  0
   -4.6095   29.3401   55.1871 H   0  0  0  0  0  0
   -6.5424   28.5984   57.3836 H   0  0  0  0  0  0
   -5.2846   28.8212   53.1315 H   0  0  0  0  0  0
   -7.5333   25.3704   54.2275 H   0  0  0  0  0  0
   -5.8043   30.6551   58.5571 H   0  0  0  0  0  0
   -8.7393   25.4833   52.0783 H   0  0  0  0  0  0
   -6.4794   28.9700   51.0476 H   0  0  0  0  0  0
   -6.8211   28.4259   49.0409 H   0  0  0  0  0  0
  -10.2155   26.3135   50.6662 H   0  0  0  0  0  0
   -7.5470   30.8724   57.9139 H   0  0  0  0  0  0
  -11.3514   26.5654   48.5126 H   0  0  0  0  0  0
   -7.9865   28.6726   46.9273 H   0  0  0  0  0  0
   -3.8277   31.1786   56.2788 H   0  0  0  0  0  0
   -3.8690   32.0383   57.8119 H   0  0  0  0  0  0
   -5.2099   32.1839   56.6936 H   0  0  0  0  0  0
   -3.3084   29.0854   57.8353 H   0  0  0  0  0  0
   -3.6202   30.0173   59.2990 H   0  0  0  0  0  0
   -4.5384   28.5480   58.9702 H   0  0  0  0  0  0
  1  2  1  0  0  0
  1  5  1  0  0  0
  1  6  2  0  0  0
  1  7  2  0  0  0
  2  3  1  0  0  0
  2 25  1  0  0  0
  3  4  1  0  0  0
  3 13  1  0  0  0
  3 26  1  0  0  0
  4 10  2  0  0  0
  4 18  1  0  0  0
  5 11  1  0  0  0
  5 12  2  0  0  0
  8 14  2  0  0  0
  8  9  1  0  0  0
  8 15  1  0  0  0
  9 16  2  0  0  0
  9 17  1  0  0  0
 11 15  2  0  0  0
 11 27  1  0  0  0
 12 14  1  0  0  0
 12 28  1  0  0  0
 13 23  1  0  0  0
 13 24  1  0  0  0
 13 29  1  0  0  0
 14 30  1  0  0  0
 15 31  1  0  0  0
 16 21  1  0  0  0
 16 32  1  0  0  0
 17 20  2  0  0  0
 17 33  1  0  0  0
 18 34  1  0  0  0
 19 20  1  0  0  0
 19 22  1  0  0  0
 19 21  2  0  0  0
 20 35  1  0  0  0
 21 36  1  0  0  0
 23 37  1  0  0  0
 23 38  1  0  0  0
 23 39  1  0  0  0
 24 40  1  0  0  0
 24 41  1  0  0  0
 24 42  1  0  0  0
M  END
> <s_m_entry_id>
64191

> <s_m_entry_name>
dock_pv.141

> <s_m_Source_Path>
/home/csk/Desktop/cluster/DUD-E-result/mmp13

> <s_m_Source_File>
dock_pv.maegz

> <i_m_Source_File_Index>
141

> <chembl_id>
CHEMBL43152

> <chembl_pref_name>
None

> <i_lp_mmshare_version>
53161

> <i_f3d_flags>
0

> <r_lp_tautomer_probability>
1

> <s_lp_Force_Field>
OPLS_2005

> <r_lp_Energy>
16.012276

> <b_lp_Chiralities_Consistent>
1

> <s_lp_Variant>
CHEMBL280_lig392-1

> <s_i_glide_gridfile>
glide-grid_830c

> <i_i_glide_lignum>
564

> <i_i_glide_rotatable_bonds>
7

> <r_i_docking_score>
-7.43906423843825

> <r_i_glide_ligand_efficiency>
-0.309961009934927

> <r_i_glide_ligand_efficiency_sa>
-0.894082265834251

> <r_i_glide_ligand_efficiency_ln>
-1.78050942867309

> <r_i_glide_gscore>
-7.43906423843825

> <r_i_glide_lipo>
-3.83238016409439

> <r_i_glide_hbond>
-0.32059245576161

> <r_i_glide_metal>
0

> <r_i_glide_rewards>
-0.185041652862859

> <r_i_glide_evdw>
-45.3612670898438

> <r_i_glide_ecoul>
-8.49538421630859

> <r_i_glide_erotb>
0.57996271060105

> <r_i_glide_esite>
-0.138641689381967

> <r_i_glide_emodel>
-75.7877793355041

> <r_i_glide_energy>
-53.8566513061523

> <r_i_glide_einternal>
5.72260284423828

> <i_i_glide_confnum>
100

> <i_i_glide_posenum>
73

> <r_i_glide_eff_state_penalty>
0

> <s_user_duplicate_titles>
CHEMBL280_lig392,CHEMBL280_lig1930,65996

> <s_m_subgroup_title>
dock_pv

> <s_m_subgroupid>
dock_pv

> <b_m_subgroup_collapsed>
1

$$$$
CHEMBL280_lig328
                    3D
 Schrodinger Suite 2021-1.
 48 50  0  0  1  0            999 V2000
   -5.1997   26.9697   55.2692 S   0  0  0  0  0  0
   -5.1090   28.6545   55.7533 N   0  0  1  0  0  0
   -6.3344   29.3337   56.2462 C   0  0  1  0  0  0
   -6.0767   29.6742   57.7301 C   0  0  0  0  0  0
   -7.9835   31.2187   55.5031 C   0  0  0  0  0  0
   -6.1831   27.0078   53.7678 C   0  0  0  0  0  0
   -8.9503   31.9381   55.6955 C   0  0  0  0  0  0
   -3.8265   26.5703   54.9101 O   0  0  0  0  0  0
   -5.9735   26.2565   56.2906 O   0  0  0  0  0  0
   -7.6987   27.2063   51.4020 C   0  0  0  0  0  0
   -8.4534   27.3173   50.1100 C   0  0  0  0  0  0
   -5.5392   28.8903   58.5099 O   0  0  0  0  0  0
   -7.1923   26.0819   53.5061 C   0  0  0  0  0  0
   -5.9392   28.0220   52.8584 C   0  0  0  0  0  0
   -6.7066   28.1403   51.7112 C   0  0  0  0  0  0
   -7.9371   26.1743   52.3246 C   0  0  0  0  0  0
   -7.8724   27.9347   48.9893 C   0  0  0  0  0  0
   -9.7602   26.8271   49.9864 C   0  0  0  0  0  0
   -6.7100   30.5048   55.2940 C   0  0  0  0  0  0
  -10.0082   32.9009   55.9575 C   0  0  0  0  0  0
   -6.5913   30.8759   58.1099 O   0  0  0  0  0  0
   -9.8557   27.5656   47.6893 C   0  0  0  0  0  0
  -10.4492   26.9450   48.7819 C   0  0  0  0  0  0
   -8.5667   28.0696   47.7910 C   0  0  0  0  0  0
  -10.5353   27.6758   46.5261 F   0  0  0  0  0  0
  -10.8051   33.3700   54.9095 C   0  0  0  0  0  0
  -10.1981   33.3736   57.2574 C   0  0  0  0  0  0
  -11.1886   34.3194   57.5108 C   0  0  0  0  0  0
  -11.8023   34.3074   55.1662 C   0  0  0  0  0  0
  -11.9882   34.7784   56.4647 C   0  0  0  0  0  0
   -4.2617   28.8761   56.2821 H   0  0  0  0  0  0
   -7.1389   28.6014   56.2413 H   0  0  0  0  0  0
   -7.3750   25.2822   54.1999 H   0  0  0  0  0  0
   -5.1464   28.7196   53.0556 H   0  0  0  0  0  0
   -6.4910   28.9597   51.0461 H   0  0  0  0  0  0
   -8.6789   25.4233   52.1092 H   0  0  0  0  0  0
   -6.8611   28.3131   49.0243 H   0  0  0  0  0  0
  -10.2564   26.3554   50.8215 H   0  0  0  0  0  0
   -6.7403   30.1516   54.2662 H   0  0  0  0  0  0
   -5.9390   31.2743   55.3241 H   0  0  0  0  0  0
   -6.6122   30.9554   59.0730 H   0  0  0  0  0  0
  -11.4572   26.5707   48.6916 H   0  0  0  0  0  0
   -8.0988   28.5466   46.9417 H   0  0  0  0  0  0
  -10.6611   33.0162   53.8979 H   0  0  0  0  0  0
   -9.5826   33.0165   58.0714 H   0  0  0  0  0  0
  -11.3401   34.6884   58.5149 H   0  0  0  0  0  0
  -12.4250   34.6697   54.3610 H   0  0  0  0  0  0
  -12.7598   35.5077   56.6626 H   0  0  0  0  0  0
  1  2  1  0  0  0
  1  6  1  0  0  0
  1  8  2  0  0  0
  1  9  2  0  0  0
  2  3  1  0  0  0
  2 31  1  0  0  0
  3  4  1  0  0  0
  3 19  1  0  0  0
  3 32  1  0  0  0
  4 12  2  0  0  0
  4 21  1  0  0  0
  5 19  1  0  0  0
  5  7  3  0  0  0
  6 13  1  0  0  0
  6 14  2  0  0  0
  7 20  1  0  0  0
 10 15  2  0  0  0
 10 11  1  0  0  0
 10 16  1  0  0  0
 11 17  2  0  0  0
 11 18  1  0  0  0
 13 16  2  0  0  0
 13 33  1  0  0  0
 14 15  1  0  0  0
 14 34  1  0  0  0
 15 35  1  0  0  0
 16 36  1  0  0  0
 17 24  1  0  0  0
 17 37  1  0  0  0
 18 23  2  0  0  0
 18 38  1  0  0  0
 19 39  1  0  0  0
 19 40  1  0  0  0
 20 26  2  0  0  0
 20 27  1  0  0  0
 21 41  1  0  0  0
 22 23  1  0  0  0
 22 25  1  0  0  0
 22 24  2  0  0  0
 23 42  1  0  0  0
 24 43  1  0  0  0
 26 29  1  0  0  0
 26 44  1  0  0  0
 27 28  2  0  0  0
 27 45  1  0  0  0
 28 30  1  0  0  0
 28 46  1  0  0  0
 29 30  2  0  0  0
 29 47  1  0  0  0
 30 48  1  0  0  0
M  END
> <s_m_entry_id>
64193

> <s_m_entry_name>
dock_pv.143

> <s_m_Source_Path>
/home/csk/Desktop/cluster/DUD-E-result/mmp13

> <s_m_Source_File>
dock_pv.maegz

> <i_m_Source_File_Index>
143

> <chembl_id>
CHEMBL10469

> <chembl_pref_name>
None

> <i_lp_mmshare_version>
53161

> <i_f3d_flags>
0

> <r_lp_tautomer_probability>
1

> <s_lp_Force_Field>
OPLS_2005

> <r_lp_Energy>
18.774761

> <b_lp_Chiralities_Consistent>
1

> <s_lp_Variant>
CHEMBL280_lig328-2

> <s_i_glide_gridfile>
glide-grid_830c

> <i_i_glide_lignum>
466

> <i_i_glide_rotatable_bonds>
9

> <r_i_docking_score>
-7.41891118254613

> <r_i_glide_ligand_efficiency>
-0.247297039418204

> <r_i_glide_ligand_efficiency_sa>
-0.768409398635226

> <r_i_glide_ligand_efficiency_ln>
-1.68565745618623

> <r_i_glide_gscore>
-7.41891118254613

> <r_i_glide_lipo>
-3.75749139721307

> <r_i_glide_hbond>
-0.138427679838927

> <r_i_glide_metal>
0

> <r_i_glide_rewards>
0.00395538486626434

> <r_i_glide_evdw>
-45.7718658447266

> <r_i_glide_ecoul>
-12.2938737869263

> <r_i_glide_erotb>
0.773699746876759

> <r_i_glide_esite>
-0.167972876961888

> <r_i_glide_emodel>
-76.5680020551354

> <r_i_glide_energy>
-58.0657396316528

> <r_i_glide_einternal>
10.7080249786377

> <i_i_glide_confnum>
1

> <i_i_glide_posenum>
292

> <r_i_glide_eff_state_penalty>
0

> <s_user_duplicate_titles>
CHEMBL280_lig328,7529

> <s_m_subgroup_title>
dock_pv

> <s_m_subgroupid>
dock_pv

> <b_m_subgroup_collapsed>
1

$$$$
CHEMBL280_lig1907
                    3D
 Schrodinger Suite 2021-1.
 24 26  0  0  1  0            999 V2000
   -9.2582   27.5046   48.2820 C   0  0  0  0  0  0
  -10.1030   26.5702   47.7693 N   0  0  0  0  0  0
  -10.5341   26.6909   46.4862 C   0  0  0  0  0  0
  -10.2100   27.7497   45.6385 C   0  0  0  0  0  0
   -8.9460   28.6353   47.5152 C   0  0  0  0  0  0
   -9.4099   28.7608   46.1805 C   0  0  0  0  0  0
   -8.9827   29.9284   45.6095 N   0  0  0  0  0  0
   -8.3389   30.5264   46.5729 C   0  0  0  0  0  0
   -8.2536   29.8021   47.7278 N   0  0  0  0  0  0
   -7.8208   31.7700   46.5100 N   0  0  0  0  0  0
   -8.7065   27.2447   49.6432 C   0  0  0  0  0  0
   -9.1311   26.4233   50.6875 C   0  0  0  0  0  0
   -8.2601   26.5830   51.7750 C   0  0  0  0  0  0
   -7.2870   27.4686   51.3809 C   0  0  0  0  0  0
   -7.5392   27.8195   50.0860 N   0  0  0  0  0  0
   -8.3374   25.7811   53.4881 Br  0  0  0  0  0  0
   -5.8117   28.1700   52.3481 Br  0  0  0  0  0  0
  -11.1390   25.8877   46.1101 H   0  0  0  0  0  0
  -10.5682   27.8032   44.6213 H   0  0  0  0  0  0
   -7.8275   30.1601   48.5743 H   0  0  0  0  0  0
   -7.5700   32.1854   45.6118 H   0  0  0  0  0  0
   -7.7043   32.3473   47.3279 H   0  0  0  0  0  0
  -10.0004   25.7827   50.6706 H   0  0  0  0  0  0
   -6.9580   28.4450   49.5456 H   0  0  0  0  0  0
  1 11  1  0  0  0
  1  5  1  0  0  0
  1  2  2  0  0  0
  2  3  1  0  0  0
  3  4  2  0  0  0
  3 18  1  0  0  0
  4  6  1  0  0  0
  4 19  1  0  0  0
  5  9  1  0  0  0
  5  6  2  0  0  0
  6  7  1  0  0  0
  7  8  2  0  0  0
  8  9  1  0  0  0
  8 10  1  0  0  0
  9 20  1  0  0  0
 10 21  1  0  0  0
 10 22  1  0  0  0
 11 12  2  0  0  0
 11 15  1  0  0  0
 12 13  1  0  0  0
 12 23  1  0  0  0
 13 14  2  0  0  0
 13 16  1  0  0  0
 14 15  1  0  0  0
 14 17  1  0  0  0
 15 24  1  0  0  0
M  END
> <s_m_entry_id>
64194

> <s_m_entry_name>
dock_pv.144

> <s_m_Source_Path>
/home/csk/Desktop/cluster/DUD-E-result/mmp13

> <s_m_Source_File>
dock_pv.maegz

> <i_m_Source_File_Index>
144

> <chembl_id>
CHEMBL230806

> <chembl_pref_name>
AGELADINE A

> <i_lp_mmshare_version>
53161

> <i_f3d_flags>
0

> <r_lp_tautomer_probability>
1

> <s_lp_Force_Field>
OPLS_2005

> <r_lp_Energy>
2.517578

> <b_lp_Chiralities_Consistent>
1

> <s_lp_Variant>
CHEMBL280_lig1907-1

> <s_i_glide_gridfile>
glide-grid_830c

> <i_i_glide_lignum>
2673

> <i_i_glide_rotatable_bonds>
1

> <r_i_docking_score>
-7.41849602711808

> <r_i_glide_ligand_efficiency>
-0.43638211924224

> <r_i_glide_ligand_efficiency_sa>
-1.12206130864032

> <r_i_glide_ligand_efficiency_ln>
-1.93532041169094

> <r_i_glide_gscore>
-7.41849602711808

> <r_i_glide_lipo>
-2.79398809589779

> <r_i_glide_hbond>
-0.637838985550818

> <r_i_glide_metal>
0

> <r_i_glide_rewards>
-0.974972181818182

> <r_i_glide_evdw>
-35.1973190307617

> <r_i_glide_ecoul>
-9.34664821624756

> <r_i_glide_erotb>
0.15016642012393

> <r_i_glide_esite>
0

> <r_i_glide_emodel>
-61.1958454786747

> <r_i_glide_energy>
-44.5439672470093

> <r_i_glide_einternal>
1.56204175949097

> <i_i_glide_confnum>
2

> <i_i_glide_posenum>
123

> <r_i_glide_eff_state_penalty>
0

> <s_user_duplicate_titles>
CHEMBL280_lig1907

> <s_m_subgroup_title>
dock_pv

> <s_m_subgroupid>
dock_pv

> <b_m_subgroup_collapsed>
1

$$$$
CHEMBL280_lig382
                    3D
 Schrodinger Suite 2021-1.
 42 43  0  0  1  0            999 V2000
   -4.7836   27.9371   57.4387 S   0  0  0  0  0  0
   -3.3858   26.9006   57.3105 N   0  0  1  0  0  0
   -2.0116   27.4612   57.3934 C   0  0  2  0  0  0
   -1.0968   26.4966   56.5964 C   0  0  0  0  0  0
   -5.6813   27.6856   55.9155 C   0  0  0  0  0  0
   -5.6027   27.3718   58.5100 O   0  0  0  0  0  0
   -4.3311   29.3322   57.4749 O   0  0  0  0  0  0
   -6.9618   27.2883   53.4584 C   0  0  0  0  0  0
   -7.6238   27.0979   52.1386 C   0  0  0  0  0  0
   -1.5390   25.7700   55.7100 O   0  0  0  0  0  0
   -6.1070   26.4077   55.5523 C   0  0  0  0  0  0
   -5.9395   28.7684   55.0829 C   0  0  0  0  0  0
   -1.6066   27.6725   58.8842 C   0  0  0  0  0  0
   -6.5705   28.5666   53.8624 C   0  0  0  0  0  0
   -6.7388   26.2108   54.3256 C   0  0  0  0  0  0
   -8.7427   26.2772   52.0281 C   0  0  0  0  0  0
   -7.1796   27.7700   50.9958 C   0  0  0  0  0  0
    0.2279   26.5700   56.9110 O   0  0  0  0  0  0
   -8.9895   26.8600   49.7047 C   0  0  0  0  0  0
   -7.8533   27.6555   49.7827 C   0  0  0  0  0  0
   -9.4357   26.1700   50.8251 C   0  0  0  0  0  0
   -9.6736   26.7687   48.5426 F   0  0  0  0  0  0
   -0.4217   28.6365   59.0863 C   0  0  0  0  0  0
   -1.4372   26.3881   59.7213 C   0  0  0  0  0  0
   -3.5236   25.9914   57.7710 H   0  0  0  0  0  0
   -2.0131   28.4262   56.8849 H   0  0  0  0  0  0
   -5.9321   25.5619   56.2035 H   0  0  0  0  0  0
   -5.6263   29.7667   55.3558 H   0  0  0  0  0  0
   -2.4562   28.1988   59.3100 H   0  0  0  0  0  0
   -6.7392   29.4141   53.2196 H   0  0  0  0  0  0
   -7.0324   25.2102   54.0433 H   0  0  0  0  0  0
   -9.1161   25.7700   52.9020 H   0  0  0  0  0  0
   -6.3381   28.4372   51.0514 H   0  0  0  0  0  0
    0.7768   25.9742   56.3831 H   0  0  0  0  0  0
   -7.5054   28.2001   48.9165 H   0  0  0  0  0  0
  -10.3206   25.5558   50.7603 H   0  0  0  0  0  0
    0.5275   28.2097   58.7662 H   0  0  0  0  0  0
   -0.3141   28.8992   60.1391 H   0  0  0  0  0  0
   -0.5737   29.5658   58.5366 H   0  0  0  0  0  0
   -0.5968   25.7842   59.3796 H   0  0  0  0  0  0
   -1.2609   26.6284   60.7702 H   0  0  0  0  0  0
   -2.3351   25.7709   59.6800 H   0  0  0  0  0  0
  1  2  1  0  0  0
  1  5  1  0  0  0
  1  6  2  0  0  0
  1  7  2  0  0  0
  2  3  1  0  0  0
  2 25  1  0  0  0
  3  4  1  0  0  0
  3 13  1  0  0  0
  3 26  1  0  0  0
  4 10  2  0  0  0
  4 18  1  0  0  0
  5 11  1  0  0  0
  5 12  2  0  0  0
  8 14  2  0  0  0
  8  9  1  0  0  0
  8 15  1  0  0  0
  9 16  2  0  0  0
  9 17  1  0  0  0
 11 15  2  0  0  0
 11 27  1  0  0  0
 12 14  1  0  0  0
 12 28  1  0  0  0
 13 23  1  0  0  0
 13 24  1  0  0  0
 13 29  1  0  0  0
 14 30  1  0  0  0
 15 31  1  0  0  0
 16 21  1  0  0  0
 16 32  1  0  0  0
 17 20  2  0  0  0
 17 33  1  0  0  0
 18 34  1  0  0  0
 19 20  1  0  0  0
 19 22  1  0  0  0
 19 21  2  0  0  0
 20 35  1  0  0  0
 21 36  1  0  0  0
 23 37  1  0  0  0
 23 38  1  0  0  0
 23 39  1  0  0  0
 24 40  1  0  0  0
 24 41  1  0  0  0
 24 42  1  0  0  0
M  END
> <s_m_entry_id>
64195

> <s_m_entry_name>
dock_pv.145

> <s_m_Source_Path>
/home/csk/Desktop/cluster/DUD-E-result/mmp13

> <s_m_Source_File>
dock_pv.maegz

> <i_m_Source_File_Index>
145

> <chembl_id>
CHEMBL418442

> <chembl_pref_name>
None

> <i_lp_mmshare_version>
53161

> <i_f3d_flags>
0

> <r_lp_tautomer_probability>
1

> <s_lp_Force_Field>
OPLS_2005

> <r_lp_Energy>
16.032635

> <b_lp_Chiralities_Consistent>
1

> <s_lp_Variant>
CHEMBL280_lig382-1

> <s_i_glide_gridfile>
glide-grid_830c

> <i_i_glide_lignum>
554

> <i_i_glide_rotatable_bonds>
7

> <r_i_docking_score>
-7.417323059874

> <r_i_glide_ligand_efficiency>
-0.30905512749475

> <r_i_glide_ligand_efficiency_sa>
-0.89146924871683

> <r_i_glide_ligand_efficiency_ln>
-1.77530576700499

> <r_i_glide_gscore>
-7.417323059874

> <r_i_glide_lipo>
-3.06494762975532

> <r_i_glide_hbond>
-0.343718088146627

> <r_i_glide_metal>
0

> <r_i_glide_rewards>
-0.203627858060898

> <r_i_glide_evdw>
-37.0778045654297

> <r_i_glide_ecoul>
-16.6157398223877

> <r_i_glide_erotb>
0.772301740140223

> <r_i_glide_esite>
-0.23108002242174

> <r_i_glide_emodel>
-72.6038654946389

> <r_i_glide_energy>
-53.6935443878174

> <r_i_glide_einternal>
9.27867221832275

> <i_i_glide_confnum>
71

> <i_i_glide_posenum>
20

> <r_i_glide_eff_state_penalty>
0

> <s_user_duplicate_titles>
CHEMBL280_lig382,66116

> <s_m_subgroup_title>
dock_pv

> <s_m_subgroupid>
dock_pv

> <b_m_subgroup_collapsed>
1

$$$$
CHEMBL280_lig47
                    3D
 Schrodinger Suite 2021-1.
 47 48  0  0  1  0            999 V2000
   -5.4110   28.1030   57.1865 S   0  0  0  0  0  0
   -3.5335   28.4237   56.8409 C   0  0  0  0  0  0
   -2.9500   27.1760   56.1350 C   0  0  0  0  0  0
   -6.1135   27.5937   55.6141 C   0  0  0  0  0  0
   -6.0667   29.3680   57.5293 O   0  0  0  0  0  0
   -5.5390   26.9700   58.1099 O   0  0  0  0  0  0
   -2.7390   27.1571   54.9100 O   0  0  0  0  0  0
   -3.3103   29.6123   55.8807 C   0  0  0  0  0  0
   -2.8103   28.7346   58.1854 C   0  0  0  0  0  0
   -2.7390   26.0983   56.8861 N   0  0  0  0  0  0
   -2.8052   31.1303   57.6794 O   0  0  0  0  0  0
   -6.3633   28.5700   54.6556 C   0  0  0  0  0  0
   -6.4021   26.2552   55.3377 C   0  0  0  0  0  0
   -7.1476   26.8769   53.1106 C   0  0  0  0  0  0
   -6.8497   28.2109   53.4071 C   0  0  0  0  0  0
   -6.9285   25.9078   54.0923 C   0  0  0  0  0  0
   -2.3390   24.9700   56.1960 O   0  0  0  0  0  0
   -7.6571   26.4606   51.8924 O   0  0  0  0  0  0
   -3.0943   30.1700   58.6925 C   0  0  0  0  0  0
   -3.5967   30.9926   56.5026 C   0  0  0  0  0  0
   -7.5383   27.3309   50.7616 C   0  0  0  0  0  0
   -8.2850   26.7767   49.5402 C   0  0  0  0  0  0
   -9.8163   26.7880   49.6967 C   0  0  0  0  0  0
  -10.5419   26.4611   48.3852 C   0  0  0  0  0  0
   -2.2687   29.6476   55.5511 H   0  0  0  0  0  0
   -3.8672   29.3700   54.9788 H   0  0  0  0  0  0
   -3.1001   28.0102   58.9462 H   0  0  0  0  0  0
   -1.7298   28.6260   58.0699 H   0  0  0  0  0  0
   -3.0334   25.9163   57.8410 H   0  0  0  0  0  0
   -6.1596   29.6103   54.8680 H   0  0  0  0  0  0
   -6.2163   25.4845   56.0739 H   0  0  0  0  0  0
   -6.9942   28.9920   52.6847 H   0  0  0  0  0  0
   -7.1390   24.8718   53.8719 H   0  0  0  0  0  0
   -3.1595   24.4347   56.1507 H   0  0  0  0  0  0
   -2.4617   30.3969   59.5510 H   0  0  0  0  0  0
   -4.1252   30.2768   59.0347 H   0  0  0  0  0  0
   -3.3086   31.7768   55.8016 H   0  0  0  0  0  0
   -4.6521   31.1571   56.7123 H   0  0  0  0  0  0
   -6.4816   27.4547   50.5196 H   0  0  0  0  0  0
   -7.9390   28.3228   50.9600 H   0  0  0  0  0  0
   -7.9390   25.7700   49.3118 H   0  0  0  0  0  0
   -8.0090   27.3845   48.6766 H   0  0  0  0  0  0
  -10.1447   27.7700   50.0388 H   0  0  0  0  0  0
  -10.1154   26.0798   50.4714 H   0  0  0  0  0  0
  -11.6200   26.5700   48.5006 H   0  0  0  0  0  0
  -10.3390   25.4381   48.0667 H   0  0  0  0  0  0
  -10.2344   27.1318   47.5820 H   0  0  0  0  0  0
  1  2  1  0  0  0
  1  4  1  0  0  0
  1  5  2  0  0  0
  1  6  2  0  0  0
  2  3  1  0  0  0
  2  8  1  0  0  0
  2  9  1  0  0  0
  3  7  2  0  0  0
  3 10  1  0  0  0
  4 12  2  0  0  0
  4 13  1  0  0  0
  8 20  1  0  0  0
  8 25  1  0  0  0
  8 26  1  0  0  0
  9 19  1  0  0  0
  9 27  1  0  0  0
  9 28  1  0  0  0
 10 17  1  0  0  0
 10 29  1  0  0  0
 11 19  1  0  0  0
 11 20  1  0  0  0
 12 15  1  0  0  0
 12 30  1  0  0  0
 13 16  2  0  0  0
 13 31  1  0  0  0
 14 16  1  0  0  0
 14 18  1  0  0  0
 14 15  2  0  0  0
 15 32  1  0  0  0
 16 33  1  0  0  0
 17 34  1  0  0  0
 18 21  1  0  0  0
 19 35  1  0  0  0
 19 36  1  0  0  0
 20 37  1  0  0  0
 20 38  1  0  0  0
 21 22  1  0  0  0
 21 39  1  0  0  0
 21 40  1  0  0  0
 22 23  1  0  0  0
 22 41  1  0  0  0
 22 42  1  0  0  0
 23 24  1  0  0  0
 23 43  1  0  0  0
 23 44  1  0  0  0
 24 45  1  0  0  0
 24 46  1  0  0  0
 24 47  1  0  0  0
M  END
> <s_m_entry_id>
64196

> <s_m_entry_name>
dock_pv.146

> <s_m_Source_Path>
/home/csk/Desktop/cluster/DUD-E-result/mmp13

> <s_m_Source_File>
dock_pv.maegz

> <i_m_Source_File_Index>
146

> <chembl_id>
CHEMBL310340

> <chembl_pref_name>
None

> <i_lp_mmshare_version>
53161

> <i_f3d_flags>
0

> <r_lp_tautomer_probability>
1

> <s_lp_Force_Field>
OPLS_2005

> <r_lp_Energy>
24.381575

> <b_lp_Chiralities_Consistent>
1

> <s_lp_Variant>
CHEMBL280_lig47-1

> <s_i_glide_gridfile>
glide-grid_830c

> <i_i_glide_lignum>
67

> <i_i_glide_rotatable_bonds>
9

> <r_i_docking_score>
-7.41547117743284

> <r_i_glide_ligand_efficiency>
-0.308977965726369

> <r_i_glide_ligand_efficiency_sa>
-0.891246675662481

> <r_i_glide_ligand_efficiency_ln>
-1.77486252655947

> <r_i_glide_gscore>
-7.41547117743284

> <r_i_glide_lipo>
-2.74936887106735

> <r_i_glide_hbond>
-0.237300721296101

> <r_i_glide_metal>
0

> <r_i_glide_rewards>
-0.954037061742521

> <r_i_glide_evdw>
-32.2994041442871

> <r_i_glide_ecoul>
-17.6689414978027

> <r_i_glide_erotb>
1.04897177811677

> <r_i_glide_esite>
-0.258424869558881

> <r_i_glide_emodel>
-74.3768871484231

> <r_i_glide_energy>
-49.9683456420898

> <r_i_glide_einternal>
8.26024150848389

> <i_i_glide_confnum>
85

> <i_i_glide_posenum>
311

> <r_i_glide_eff_state_penalty>
0

> <s_user_duplicate_titles>
CHEMBL280_lig47,125083

> <s_m_subgroup_title>
dock_pv

> <s_m_subgroupid>
dock_pv

> <b_m_subgroup_collapsed>
1

$$$$
CHEMBL280_lig1386
                    3D
 Schrodinger Suite 2021-1.
 57 60  0  0  1  0            999 V2000
   -4.0479   28.5435   56.7786 C   0  0  0  0  0  0
   -5.8852   27.9019   56.7212 S   0  0  0  0  0  0
   -4.0424   29.9904   57.3635 C   0  0  0  0  0  0
   -3.1355   27.6594   57.6782 C   0  0  0  0  0  0
   -2.8689   26.2479   57.1350 C   0  0  0  0  0  0
   -2.5656   26.1059   55.7100 N   0  0  2  0  0  0
   -3.2542   27.0743   54.8453 C   0  0  0  0  0  0
   -3.3966   28.4833   55.3916 C   0  0  0  0  0  0
   -3.9137   30.1606   58.5792 O   0  0  0  0  0  0
   -4.2284   31.0143   56.5100 N   0  0  0  0  0  0
   -4.2520   32.3231   57.0165 O   0  0  0  0  0  0
   -6.4216   27.5959   55.0047 C   0  0  0  0  0  0
   -5.9390   26.6138   57.4182 O   0  0  0  0  0  0
   -6.7390   29.0050   57.1665 O   0  0  0  0  0  0
   -6.4823   28.6723   54.1320 C   0  0  0  0  0  0
   -6.8113   28.4851   52.7945 C   0  0  0  0  0  0
   -7.2440   27.2497   52.2985 C   0  0  0  0  0  0
   -7.2354   26.1738   53.2021 C   0  0  0  0  0  0
   -6.8055   26.3323   54.5326 C   0  0  0  0  0  0
   -7.6776   27.0568   50.9753 O   0  0  0  0  0  0
   -7.7179   28.2005   50.0779 C   0  0  0  0  0  0
   -8.3886   28.0335   48.7127 C   0  0  0  0  0  0
   -9.3056   27.0124   48.5392 C   0  0  0  0  0  0
  -10.0239   26.9883   47.3552 C   0  0  0  0  0  0
   -9.8845   27.8102   46.3148 N   0  0  0  0  0  0
   -8.2920   29.0374   47.6621 C   0  0  0  0  0  0
   -9.0728   28.8513   46.4762 C   0  0  0  0  0  0
   -9.1096   29.7949   45.4368 C   0  0  0  0  0  0
   -8.4253   30.9774   45.5896 C   0  0  0  0  0  0
   -7.6499   31.2007   46.7134 C   0  0  0  0  0  0
   -7.5390   30.2308   47.7079 C   0  0  0  0  0  0
  -11.1390   26.0838   47.1510 C   0  0  0  0  0  0
   -3.5768   27.5554   58.6717 H   0  0  0  0  0  0
   -2.1722   28.1380   57.8691 H   0  0  0  0  0  0
   -3.7528   25.6535   57.3100 H   0  0  0  0  0  0
   -2.0643   25.7836   57.7068 H   0  0  0  0  0  0
   -2.9953   25.1784   55.6189 H   0  0  0  0  0  0
   -4.2066   26.6405   54.5549 H   0  0  0  0  0  0
   -2.7390   27.2958   53.9155 H   0  0  0  0  0  0
   -2.4399   29.0100   55.3523 H   0  0  0  0  0  0
   -4.0119   28.9700   54.6549 H   0  0  0  0  0  0
   -4.3391   30.9713   55.4995 H   0  0  0  0  0  0
   -5.1883   32.5392   57.0463 H   0  0  0  0  0  0
   -6.2309   29.6624   54.4829 H   0  0  0  0  0  0
   -6.7385   29.3394   52.1516 H   0  0  0  0  0  0
   -7.5394   25.1963   52.8626 H   0  0  0  0  0  0
   -6.7745   25.4758   55.1931 H   0  0  0  0  0  0
   -8.3381   28.9683   50.5100 H   0  0  0  0  0  0
   -6.7390   28.6097   49.9305 H   0  0  0  0  0  0
   -9.5004   26.2957   49.3245 H   0  0  0  0  0  0
   -9.7172   29.6236   44.5594 H   0  0  0  0  0  0
   -8.5034   31.7393   44.8294 H   0  0  0  0  0  0
   -7.1235   32.1374   46.7919 H   0  0  0  0  0  0
   -6.8538   30.4103   48.5100 H   0  0  0  0  0  0
  -11.5327   25.7709   48.1100 H   0  0  0  0  0  0
  -11.9499   26.5700   46.5963 H   0  0  0  0  0  0
  -10.7390   25.2222   46.6099 H   0  0  0  0  0  0
  1  8  1  0  0  0
  1  3  1  0  0  0
  1  2  1  0  0  0
  1  4  1  0  0  0
  2 12  1  0  0  0
  2 13  2  0  0  0
  2 14  2  0  0  0
  3  9  2  0  0  0
  3 10  1  0  0  0
  4  5  1  0  0  0
  4 33  1  0  0  0
  4 34  1  0  0  0
  5  6  1  0  0  0
  5 35  1  0  0  0
  5 36  1  0  0  0
  6  7  1  0  0  0
  6 37  1  0  0  0
  7  8  1  0  0  0
  7 38  1  0  0  0
  7 39  1  0  0  0
  8 40  1  0  0  0
  8 41  1  0  0  0
 10 11  1  0  0  0
 10 42  1  0  0  0
 11 43  1  0  0  0
 12 19  1  0  0  0
 12 15  2  0  0  0
 15 16  1  0  0  0
 15 44  1  0  0  0
 16 17  2  0  0  0
 16 45  1  0  0  0
 17 18  1  0  0  0
 17 20  1  0  0  0
 18 19  2  0  0  0
 18 46  1  0  0  0
 19 47  1  0  0  0
 20 21  1  0  0  0
 21 22  1  0  0  0
 21 48  1  0  0  0
 21 49  1  0  0  0
 22 23  2  0  0  0
 22 26  1  0  0  0
 23 24  1  0  0  0
 23 50  1  0  0  0
 24 25  2  0  0  0
 24 32  1  0  0  0
 25 27  1  0  0  0
 26 27  1  0  0  0
 26 31  2  0  0  0
 27 28  2  0  0  0
 28 29  1  0  0  0
 28 51  1  0  0  0
 29 30  2  0  0  0
 29 52  1  0  0  0
 30 31  1  0  0  0
 30 53  1  0  0  0
 31 54  1  0  0  0
 32 55  1  0  0  0
 32 56  1  0  0  0
 32 57  1  0  0  0
M  END
> <s_m_entry_id>
64197

> <s_m_entry_name>
dock_pv.147

> <s_m_Source_Path>
/home/csk/Desktop/cluster/DUD-E-result/mmp13

> <s_m_Source_File>
dock_pv.maegz

> <i_m_Source_File_Index>
147

> <chembl_id>
CHEMBL495621

> <chembl_pref_name>
None

> <i_lp_mmshare_version>
53161

> <i_f3d_flags>
0

> <r_lp_tautomer_probability>
1

> <s_lp_Force_Field>
OPLS_2005

> <r_lp_Energy>
41.329786

> <b_lp_Chiralities_Consistent>
1

> <s_lp_Variant>
CHEMBL280_lig1386-1

> <s_i_glide_gridfile>
glide-grid_830c

> <i_i_glide_lignum>
2113

> <i_i_glide_rotatable_bonds>
8

> <r_i_docking_score>
-7.41482108176052

> <r_i_glide_ligand_efficiency>
-0.231713158805016

> <r_i_glide_ligand_efficiency_sa>
-0.735643423234066

> <r_i_glide_ligand_efficiency_ln>
-1.66038056059515

> <r_i_glide_gscore>
-7.41482108176052

> <r_i_glide_lipo>
-3.72933666934256

> <r_i_glide_hbond>
-0.380996294351636

> <r_i_glide_metal>
0

> <r_i_glide_rewards>
-0.303216386625496

> <r_i_glide_evdw>
-28.9759159088135

> <r_i_glide_ecoul>
-14.4309043884277

> <r_i_glide_erotb>
0.67770956408165

> <r_i_glide_esite>
-0.0655498418176403

> <r_i_glide_emodel>
-40.4602453795553

> <r_i_glide_energy>
-43.4068202972412

> <r_i_glide_einternal>
11.1915845870972

> <i_i_glide_confnum>
79

> <i_i_glide_posenum>
126

> <r_i_glide_eff_state_penalty>
0

> <s_user_duplicate_titles>
CHEMBL280_lig1386

> <s_m_subgroup_title>
dock_pv

> <s_m_subgroupid>
dock_pv

> <b_m_subgroup_collapsed>
1

$$$$
CHEMBL280_lig377
                    3D
 Schrodinger Suite 2021-1.
 44 45  0  0  1  0            999 V2000
   -4.3159   28.1300   57.8486 S   0  0  0  0  0  0
   -2.9985   26.9700   57.8638 N   0  0  1  0  0  0
   -1.5835   27.3910   57.7005 C   0  0  2  0  0  0
   -0.9273   26.4168   56.6781 C   0  0  0  0  0  0
   -5.2149   27.8683   56.3356 C   0  0  0  0  0  0
   -5.2323   27.7195   58.9100 O   0  0  0  0  0  0
   -3.7519   29.4835   57.8038 O   0  0  0  0  0  0
   -6.6045   27.4233   53.9549 C   0  0  0  0  0  0
   -7.2811   27.2066   52.6515 C   0  0  0  0  0  0
   -1.5430   25.9611   55.7100 O   0  0  0  0  0  0
   -5.6917   28.9515   55.6042 C   0  0  0  0  0  0
   -5.4808   26.5700   55.9183 C   0  0  0  0  0  0
   -0.8861   27.4927   59.0999 C   0  0  0  0  0  0
   -6.1716   26.3451   54.7315 C   0  0  0  0  0  0
   -6.3832   28.7231   54.4187 C   0  0  0  0  0  0
   -8.3482   26.3160   52.5366 C   0  0  0  0  0  0
   -6.8677   27.9099   51.5189 C   0  0  0  0  0  0
    0.3955   26.1700   56.9100 O   0  0  0  0  0  0
   -8.6342   26.9177   50.2227 C   0  0  0  0  0  0
   -9.3510   26.8303   49.0339 N   0  0  0  0  0  0
   -9.0279   26.1700   51.3278 C   0  0  0  0  0  0
   -7.5390   27.7700   50.3074 C   0  0  0  0  0  0
    0.4528   28.2582   59.0938 C   0  0  0  0  0  0
   -0.7807   26.1700   59.8812 C   0  0  0  0  0  0
   -3.1937   26.0704   58.3220 H   0  0  0  0  0  0
   -1.5797   28.3878   57.2586 H   0  0  0  0  0  0
   -5.5114   29.9657   55.9320 H   0  0  0  0  0  0
   -5.1388   25.7378   56.5120 H   0  0  0  0  0  0
   -1.5390   28.1265   59.7018 H   0  0  0  0  0  0
   -6.3390   25.3275   54.4068 H   0  0  0  0  0  0
   -6.7274   29.5702   53.8433 H   0  0  0  0  0  0
   -8.6823   25.7699   53.4040 H   0  0  0  0  0  0
   -6.0327   28.5922   51.5797 H   0  0  0  0  0  0
    0.8447   25.6349   56.2362 H   0  0  0  0  0  0
   -8.9708   27.2850   48.2161 H   0  0  0  0  0  0
  -10.0218   26.0837   48.9318 H   0  0  0  0  0  0
   -9.8717   25.4986   51.2649 H   0  0  0  0  0  0
   -7.2160   28.3478   49.4528 H   0  0  0  0  0  0
    1.2624   27.6992   58.6280 H   0  0  0  0  0  0
    0.7714   28.4826   60.1123 H   0  0  0  0  0  0
    0.3580   29.2099   58.5702 H   0  0  0  0  0  0
   -0.1979   25.4164   59.3524 H   0  0  0  0  0  0
   -0.3127   26.3246   60.8538 H   0  0  0  0  0  0
   -1.7769   25.7700   60.0652 H   0  0  0  0  0  0
  1  2  1  0  0  0
  1  5  1  0  0  0
  1  6  2  0  0  0
  1  7  2  0  0  0
  2  3  1  0  0  0
  2 25  1  0  0  0
  3  4  1  0  0  0
  3 13  1  0  0  0
  3 26  1  0  0  0
  4 10  2  0  0  0
  4 18  1  0  0  0
  5 11  1  0  0  0
  5 12  2  0  0  0
  8 14  2  0  0  0
  8  9  1  0  0  0
  8 15  1  0  0  0
  9 16  2  0  0  0
  9 17  1  0  0  0
 11 15  2  0  0  0
 11 27  1  0  0  0
 12 14  1  0  0  0
 12 28  1  0  0  0
 13 23  1  0  0  0
 13 24  1  0  0  0
 13 29  1  0  0  0
 14 30  1  0  0  0
 15 31  1  0  0  0
 16 21  1  0  0  0
 16 32  1  0  0  0
 17 22  2  0  0  0
 17 33  1  0  0  0
 18 34  1  0  0  0
 19 22  1  0  0  0
 19 20  1  0  0  0
 19 21  2  0  0  0
 20 35  1  0  0  0
 20 36  1  0  0  0
 21 37  1  0  0  0
 22 38  1  0  0  0
 23 39  1  0  0  0
 23 40  1  0  0  0
 23 41  1  0  0  0
 24 42  1  0  0  0
 24 43  1  0  0  0
 24 44  1  0  0  0
M  END
> <s_m_entry_id>
64198

> <s_m_entry_name>
dock_pv.148

> <s_m_Source_Path>
/home/csk/Desktop/cluster/DUD-E-result/mmp13

> <s_m_Source_File>
dock_pv.maegz

> <i_m_Source_File_Index>
148

> <chembl_id>
CHEMBL42114

> <chembl_pref_name>
None

> <i_lp_mmshare_version>
53161

> <i_f3d_flags>
0

> <r_lp_tautomer_probability>
1

> <s_lp_Force_Field>
OPLS_2005

> <r_lp_Energy>
16.121325

> <b_lp_Chiralities_Consistent>
1

> <s_lp_Variant>
CHEMBL280_lig377-1

> <s_i_glide_gridfile>
glide-grid_830c

> <i_i_glide_lignum>
549

> <i_i_glide_rotatable_bonds>
7

> <r_i_docking_score>
-7.40452373358773

> <r_i_glide_ligand_efficiency>
-0.308521822232822

> <r_i_glide_ligand_efficiency_sa>
-0.889930930148743

> <r_i_glide_ligand_efficiency_ln>
-1.77224230090187

> <r_i_glide_gscore>
-7.40452373358773

> <r_i_glide_lipo>
-2.6041917839037

> <r_i_glide_hbond>
-0.309258689430881

> <r_i_glide_metal>
0

> <r_i_glide_rewards>
-0.613726098025235

> <r_i_glide_evdw>
-34.7465438842773

> <r_i_glide_ecoul>
-18.3830089569092

> <r_i_glide_erotb>
0.784066922064864

> <r_i_glide_esite>
-0.16663554654253

> <r_i_glide_emodel>
-73.9244604410766

> <r_i_glide_energy>
-53.1295528411865

> <r_i_glide_einternal>
7.90657806396484

> <i_i_glide_confnum>
101

> <i_i_glide_posenum>
246

> <r_i_glide_eff_state_penalty>
0

> <s_user_duplicate_titles>
CHEMBL280_lig377,66113

> <s_m_subgroup_title>
dock_pv

> <s_m_subgroupid>
dock_pv

> <b_m_subgroup_collapsed>
1

$$$$
CHEMBL280_lig77
                    3D
 Schrodinger Suite 2021-1.
 51 52  0  0  1  0            999 V2000
   -3.5401   28.4219   56.8471 C   0  0  0  0  0  0
   -5.4150   28.1040   57.1908 S   0  0  0  0  0  0
   -2.9509   27.1813   56.1342 C   0  0  0  0  0  0
   -3.3203   29.6212   55.9048 C   0  0  0  0  0  0
   -2.8195   28.7327   58.1883 C   0  0  0  0  0  0
   -6.1175   27.5938   55.6191 C   0  0  0  0  0  0
   -6.0737   29.3670   57.5361 O   0  0  0  0  0  0
   -5.5390   26.9700   58.1119 O   0  0  0  0  0  0
   -2.9254   31.1993   57.7626 N   0  0  2  0  0  0
   -2.7390   27.1740   54.9100 O   0  0  0  0  0  0
   -2.7391   26.0944   56.8736 N   0  0  0  0  0  0
   -3.6616   30.9969   56.5100 C   0  0  0  0  0  0
   -3.1499   30.1378   58.7507 C   0  0  0  0  0  0
   -6.3708   28.5701   54.6618 C   0  0  0  0  0  0
   -6.4034   26.2548   55.3422 C   0  0  0  0  0  0
   -7.1509   26.8765   53.1159 C   0  0  0  0  0  0
   -6.8567   28.2110   53.4135 C   0  0  0  0  0  0
   -6.9297   25.9071   54.0969 C   0  0  0  0  0  0
   -2.3390   24.9700   56.1728 O   0  0  0  0  0  0
   -7.6589   26.4605   51.8973 O   0  0  0  0  0  0
   -3.2237   32.5104   58.3308 C   0  0  0  0  0  0
   -7.5384   27.3314   50.7671 C   0  0  0  0  0  0
   -8.2850   26.7770   49.5462 C   0  0  0  0  0  0
   -9.8165   26.7881   49.7020 C   0  0  0  0  0  0
  -10.5413   26.4606   48.3903 C   0  0  0  0  0  0
   -2.2906   29.6828   55.5436 H   0  0  0  0  0  0
   -3.8834   29.3700   55.0093 H   0  0  0  0  0  0
   -3.1025   27.9866   58.9305 H   0  0  0  0  0  0
   -1.7352   28.6347   58.1044 H   0  0  0  0  0  0
   -3.0275   25.9057   57.8291 H   0  0  0  0  0  0
   -3.3708   31.7783   55.8056 H   0  0  0  0  0  0
   -4.7324   31.1263   56.6622 H   0  0  0  0  0  0
   -2.5053   30.3424   59.6073 H   0  0  0  0  0  0
   -4.1758   30.1796   59.1222 H   0  0  0  0  0  0
   -6.1703   29.6109   54.8747 H   0  0  0  0  0  0
   -6.2158   25.4841   56.0779 H   0  0  0  0  0  0
   -7.0039   28.9926   52.6923 H   0  0  0  0  0  0
   -7.1389   24.8709   53.8760 H   0  0  0  0  0  0
   -3.1595   24.4342   56.1252 H   0  0  0  0  0  0
   -2.6238   32.6915   59.2239 H   0  0  0  0  0  0
   -2.9926   33.3033   57.6181 H   0  0  0  0  0  0
   -4.2766   32.5968   58.6058 H   0  0  0  0  0  0
   -6.4815   27.4545   50.5257 H   0  0  0  0  0  0
   -7.9390   28.3235   50.9646 H   0  0  0  0  0  0
   -7.9390   25.7700   49.3211 H   0  0  0  0  0  0
   -8.0082   27.3832   48.6817 H   0  0  0  0  0  0
  -10.1453   27.7700   50.0437 H   0  0  0  0  0  0
  -10.1157   26.0801   50.4768 H   0  0  0  0  0  0
  -11.6195   26.5700   48.5048 H   0  0  0  0  0  0
  -10.3390   25.4371   48.0728 H   0  0  0  0  0  0
  -10.2331   27.1303   47.5867 H   0  0  0  0  0  0
  1  2  1  0  0  0
  1  3  1  0  0  0
  1  4  1  0  0  0
  1  5  1  0  0  0
  2  6  1  0  0  0
  2  7  2  0  0  0
  2  8  2  0  0  0
  3 10  2  0  0  0
  3 11  1  0  0  0
  4 12  1  0  0  0
  4 26  1  0  0  0
  4 27  1  0  0  0
  5 13  1  0  0  0
  5 28  1  0  0  0
  5 29  1  0  0  0
  6 14  2  0  0  0
  6 15  1  0  0  0
  9 13  1  0  0  0
  9 21  1  0  0  0
  9 12  1  0  0  0
 11 19  1  0  0  0
 11 30  1  0  0  0
 12 31  1  0  0  0
 12 32  1  0  0  0
 13 33  1  0  0  0
 13 34  1  0  0  0
 14 17  1  0  0  0
 14 35  1  0  0  0
 15 18  2  0  0  0
 15 36  1  0  0  0
 16 18  1  0  0  0
 16 20  1  0  0  0
 16 17  2  0  0  0
 17 37  1  0  0  0
 18 38  1  0  0  0
 19 39  1  0  0  0
 20 22  1  0  0  0
 21 40  1  0  0  0
 21 41  1  0  0  0
 21 42  1  0  0  0
 22 23  1  0  0  0
 22 43  1  0  0  0
 22 44  1  0  0  0
 23 24  1  0  0  0
 23 45  1  0  0  0
 23 46  1  0  0  0
 24 25  1  0  0  0
 24 47  1  0  0  0
 24 48  1  0  0  0
 25 49  1  0  0  0
 25 50  1  0  0  0
 25 51  1  0  0  0
M  END
> <s_m_entry_id>
64199

> <s_m_entry_name>
dock_pv.149

> <s_m_Source_Path>
/home/csk/Desktop/cluster/DUD-E-result/mmp13

> <s_m_Source_File>
dock_pv.maegz

> <i_m_Source_File_Index>
149

> <chembl_id>
CHEMBL419648

> <chembl_pref_name>
None

> <i_lp_mmshare_version>
53161

> <i_f3d_flags>
0

> <r_lp_tautomer_probability>
1

> <s_lp_Force_Field>
OPLS_2005

> <r_lp_Energy>
31.646162

> <b_lp_Chiralities_Consistent>
1

> <s_lp_Variant>
CHEMBL280_lig77-1

> <s_i_glide_gridfile>
glide-grid_830c

> <i_i_glide_lignum>
100

> <i_i_glide_rotatable_bonds>
9

> <r_i_docking_score>
-7.40355338775212

> <r_i_glide_ligand_efficiency>
-0.296142135510085

> <r_i_glide_ligand_efficiency_sa>
-0.865924856334624

> <r_i_glide_ligand_efficiency_ln>
-1.75486401948875

> <r_i_glide_gscore>
-7.40355338775212

> <r_i_glide_lipo>
-2.75290664099556

> <r_i_glide_hbond>
-0.238412481433057

> <r_i_glide_metal>
0

> <r_i_glide_rewards>
-0.86446907405734

> <r_i_glide_evdw>
-32.9444465637207

> <r_i_glide_ecoul>
-17.5058250427246

> <r_i_glide_erotb>
0.983988823138124

> <r_i_glide_esite>
-0.25865792980956

> <r_i_glide_emodel>
-77.1567452441947

> <r_i_glide_energy>
-50.4502716064453

> <r_i_glide_einternal>
1.90107071399689

> <i_i_glide_confnum>
20

> <i_i_glide_posenum>
375

> <r_i_glide_eff_state_penalty>
0

> <s_user_duplicate_titles>
CHEMBL280_lig77,125572

> <s_m_subgroup_title>
dock_pv

> <s_m_subgroupid>
dock_pv

> <b_m_subgroup_collapsed>
1

$$$$
CHEMBL280_lig2538
                    3D
 Schrodinger Suite 2021-1.
 42 43  0  0  1  0            999 V2000
   -1.8056   26.3625   56.9000 C   0  0  0  0  0  0
   -3.1116   26.6518   57.6337 C   0  0  0  0  0  0
   -2.9053   29.2142   57.3353 C   0  0  0  0  0  0
   -0.6723   26.4623   57.6152 N   0  0  0  0  0  0
    0.5340   26.5700   56.9100 O   0  0  0  0  0  0
   -1.8433   26.0404   55.7100 O   0  0  0  0  0  0
   -3.7187   27.9541   57.3427 N   0  0  3  0  0  0
   -5.4857   28.0671   57.4340 S   0  0  0  0  0  0
   -2.0646   29.4327   56.0601 C   0  0  0  0  0  0
   -2.7390   28.9700   54.9100 O   0  0  0  0  0  0
   -5.9390   26.9700   58.2885 O   0  0  0  0  0  0
   -6.0907   27.7165   55.7914 C   0  0  0  0  0  0
   -5.8564   29.4518   57.7473 O   0  0  0  0  0  0
   -6.2483   28.7765   54.9096 C   0  0  0  0  0  0
   -6.7390   28.5412   53.6355 C   0  0  0  0  0  0
   -7.1151   27.2602   53.2273 C   0  0  0  0  0  0
   -6.9405   26.1940   54.1190 C   0  0  0  0  0  0
   -6.4187   26.4164   55.3953 C   0  0  0  0  0  0
   -7.7067   27.0748   51.8716 C   0  0  0  0  0  0
   -8.8283   26.2683   51.6742 C   0  0  0  0  0  0
   -9.4322   26.1700   50.4234 C   0  0  0  0  0  0
   -8.9138   26.8885   49.3509 C   0  0  0  0  0  0
   -7.7919   27.6917   49.5230 C   0  0  0  0  0  0
   -7.1912   27.7700   50.7756 C   0  0  0  0  0  0
   -3.7898   25.8612   57.3100 H   0  0  0  0  0  0
   -2.9648   26.5699   58.7114 H   0  0  0  0  0  0
   -3.5834   30.0641   57.4005 H   0  0  0  0  0  0
   -2.2963   29.2543   58.2388 H   0  0  0  0  0  0
   -0.5910   26.7781   58.5723 H   0  0  0  0  0  0
    0.8794   25.6719   56.8409 H   0  0  0  0  0  0
   -1.8481   30.4943   55.9324 H   0  0  0  0  0  0
   -1.0984   28.9352   56.1357 H   0  0  0  0  0  0
   -3.4012   29.6282   54.6531 H   0  0  0  0  0  0
   -5.9863   29.7830   55.2032 H   0  0  0  0  0  0
   -6.8458   29.3700   52.9592 H   0  0  0  0  0  0
   -7.1963   25.1877   53.8206 H   0  0  0  0  0  0
   -6.2857   25.5821   56.0715 H   0  0  0  0  0  0
   -9.2792   25.7700   52.5100 H   0  0  0  0  0  0
  -10.3103   25.5566   50.2916 H   0  0  0  0  0  0
   -9.3841   26.8242   48.3807 H   0  0  0  0  0  0
   -7.3843   28.2521   48.6936 H   0  0  0  0  0  0
   -6.3390   28.4154   50.9100 H   0  0  0  0  0  0
  1  6  2  0  0  0
  1  4  1  0  0  0
  1  2  1  0  0  0
  2  7  1  0  0  0
  2 25  1  0  0  0
  2 26  1  0  0  0
  3  7  1  0  0  0
  3  9  1  0  0  0
  3 27  1  0  0  0
  3 28  1  0  0  0
  4  5  1  0  0  0
  4 29  1  0  0  0
  5 30  1  0  0  0
  7  8  1  0  0  0
  8 12  1  0  0  0
  8 13  2  0  0  0
  8 11  2  0  0  0
  9 10  1  0  0  0
  9 31  1  0  0  0
  9 32  1  0  0  0
 10 33  1  0  0  0
 12 18  2  0  0  0
 12 14  1  0  0  0
 14 15  2  0  0  0
 14 34  1  0  0  0
 15 16  1  0  0  0
 15 35  1  0  0  0
 16 19  1  0  0  0
 16 17  2  0  0  0
 17 18  1  0  0  0
 17 36  1  0  0  0
 18 37  1  0  0  0
 19 20  2  0  0  0
 19 24  1  0  0  0
 20 21  1  0  0  0
 20 38  1  0  0  0
 21 22  2  0  0  0
 21 39  1  0  0  0
 22 23  1  0  0  0
 22 40  1  0  0  0
 23 24  2  0  0  0
 23 41  1  0  0  0
 24 42  1  0  0  0
M  END
> <s_m_entry_id>
64200

> <s_m_entry_name>
dock_pv.150

> <s_m_Source_Path>
/home/csk/Desktop/cluster/DUD-E-result/mmp13

> <s_m_Source_File>
dock_pv.maegz

> <i_m_Source_File_Index>
150

> <chembl_id>
CHEMBL1233772

> <chembl_pref_name>
None

> <i_lp_mmshare_version>
53161

> <i_f3d_flags>
0

> <r_lp_tautomer_probability>
1

> <s_lp_Force_Field>
OPLS_2005

> <r_lp_Energy>
15.051638

> <b_lp_Chiralities_Consistent>
1

> <s_lp_Variant>
CHEMBL280_lig2538-1

> <s_i_glide_gridfile>
glide-grid_830c

> <i_i_glide_lignum>
3655

> <i_i_glide_rotatable_bonds>
10

> <r_i_docking_score>
-7.40075156105795

> <r_i_glide_ligand_efficiency>
-0.308364648377415

> <r_i_glide_ligand_efficiency_sa>
-0.889477562298374

> <r_i_glide_ligand_efficiency_ln>
-1.77133944692178

> <r_i_glide_gscore>
-7.40075156105795

> <r_i_glide_lipo>
-2.93343266247982

> <r_i_glide_hbond>
0

> <r_i_glide_metal>
0

> <r_i_glide_rewards>
-1.0098982389156

> <r_i_glide_evdw>
-37.8180084228516

> <r_i_glide_ecoul>
-17.4939708709717

> <r_i_glide_erotb>
1.24197965888065

> <r_i_glide_esite>
-0.184404266754848

> <r_i_glide_emodel>
-78.0269466395024

> <r_i_glide_energy>
-55.3119792938232

> <r_i_glide_einternal>
10.4140291213989

> <i_i_glide_confnum>
23

> <i_i_glide_posenum>
230

> <r_i_glide_eff_state_penalty>
0

> <s_user_duplicate_titles>
CHEMBL280_lig2538

> <s_m_subgroup_title>
dock_pv

> <s_m_subgroupid>
dock_pv

> <b_m_subgroup_collapsed>
1

$$$$
CHEMBL280_lig8
                    3D
 Schrodinger Suite 2021-1.
 29 30  0  0  1  0            999 V2000
  -10.1390   27.7956   46.7831 C   0  0  0  0  0  0
   -8.9752   28.5703   46.6487 C   0  0  0  0  0  0
   -8.0168   28.6676   47.6532 C   0  0  0  0  0  0
  -10.3378   27.0623   47.9650 C   0  0  0  0  0  0
   -9.4013   27.1360   49.0074 C   0  0  0  0  0  0
   -8.2472   27.9484   48.8236 C   0  0  0  0  0  0
   -7.5060   27.8583   49.9784 N   0  0  0  0  0  0
   -8.1504   27.0711   50.9038 C   0  0  0  0  0  0
   -9.3057   26.5705   50.3251 C   0  0  0  0  0  0
  -11.1867   27.7528   45.6862 C   0  0  0  0  0  0
  -12.1332   26.9692   45.7157 O   0  0  0  0  0  0
  -11.0737   28.6218   44.6797 N   0  0  0  0  0  0
   -7.5867   26.9222   52.2510 C   0  0  0  0  0  0
   -6.4963   27.7173   52.4558 O   0  0  0  0  0  0
   -8.0768   26.1701   53.0945 O   0  0  0  0  0  0
   -5.8156   27.7422   53.7054 C   0  0  0  0  0  0
   -6.5561   28.6006   54.7383 C   0  0  0  0  0  0
   -8.7819   29.1307   45.7455 H   0  0  0  0  0  0
   -7.1393   29.2819   47.5262 H   0  0  0  0  0  0
  -11.2314   26.4705   48.0950 H   0  0  0  0  0  0
   -6.6337   28.3353   50.1786 H   0  0  0  0  0  0
  -10.0056   25.9072   50.8123 H   0  0  0  0  0  0
  -11.7643   28.6118   43.9463 H   0  0  0  0  0  0
  -10.3016   29.2686   44.6357 H   0  0  0  0  0  0
   -4.8240   28.1628   53.5381 H   0  0  0  0  0  0
   -5.6621   26.7283   54.0803 H   0  0  0  0  0  0
   -6.0026   28.6505   55.6754 H   0  0  0  0  0  0
   -7.5394   28.1899   54.9522 H   0  0  0  0  0  0
   -6.6898   29.6220   54.3766 H   0  0  0  0  0  0
  1  4  1  0  0  0
  1 10  1  0  0  0
  1  2  2  0  0  0
  2  3  1  0  0  0
  2 18  1  0  0  0
  3  6  2  0  0  0
  3 19  1  0  0  0
  4  5  2  0  0  0
  4 20  1  0  0  0
  5  9  1  0  0  0
  5  6  1  0  0  0
  6  7  1  0  0  0
  7  8  1  0  0  0
  7 21  1  0  0  0
  8  9  2  0  0  0
  8 13  1  0  0  0
  9 22  1  0  0  0
 10 11  2  0  0  0
 10 12  1  0  0  0
 12 23  1  0  0  0
 12 24  1  0  0  0
 13 14  1  0  0  0
 13 15  2  0  0  0
 14 16  1  0  0  0
 16 17  1  0  0  0
 16 25  1  0  0  0
 16 26  1  0  0  0
 17 27  1  0  0  0
 17 28  1  0  0  0
 17 29  1  0  0  0
M  END
> <s_m_entry_id>
64201

> <s_m_entry_name>
dock_pv.151

> <s_m_Source_Path>
/home/csk/Desktop/cluster/DUD-E-result/mmp13

> <s_m_Source_File>
dock_pv.maegz

> <i_m_Source_File_Index>
151

> <chembl_id>
CHEMBL1939862

> <chembl_pref_name>
None

> <i_lp_mmshare_version>
53161

> <i_f3d_flags>
0

> <r_lp_tautomer_probability>
1

> <s_lp_Force_Field>
OPLS_2005

> <r_lp_Energy>
5.033719

> <b_lp_Chiralities_Consistent>
1

> <s_lp_Variant>
CHEMBL280_lig8-1

> <s_i_glide_gridfile>
glide-grid_830c

> <i_i_glide_lignum>
20

> <i_i_glide_rotatable_bonds>
4

> <r_i_docking_score>
-7.39810577449384

> <r_i_glide_ligand_efficiency>
-0.435182692617285

> <r_i_glide_ligand_efficiency_sa>
-1.11897724504314

> <r_i_glide_ligand_efficiency_ln>
-1.93000104884988

> <r_i_glide_gscore>
-7.39810577449384

> <r_i_glide_lipo>
-2.81471111670582

> <r_i_glide_hbond>
-0.241863204166323

> <r_i_glide_metal>
0

> <r_i_glide_rewards>
-1.82566854544802

> <r_i_glide_evdw>
-42.574893951416

> <r_i_glide_ecoul>
-6.81459331512451

> <r_i_glide_erotb>
0.635070786665811

> <r_i_glide_esite>
0

> <r_i_glide_emodel>
-70.2905838085798

> <r_i_glide_energy>
-49.3894872665405

> <r_i_glide_einternal>
0.482526212930679

> <i_i_glide_confnum>
3

> <i_i_glide_posenum>
340

> <r_i_glide_eff_state_penalty>
0

> <s_user_duplicate_titles>
CHEMBL280_lig8

> <s_m_subgroup_title>
dock_pv

> <s_m_subgroupid>
dock_pv

> <b_m_subgroup_collapsed>
1

$$$$
CHEMBL280_lig451
                    3D
 Schrodinger Suite 2021-1.
 47 48  0  0  1  0            999 V2000
   -7.4951   27.4686   53.8861 S   0  0  0  0  0  0
   -5.0917   27.3153   55.4870 C   0  0  1  0  0  0
   -5.7145   26.9380   54.1101 C   0  0  0  0  0  0
   -3.5591   27.0650   55.3102 C   0  0  0  0  0  0
   -5.2756   28.7541   55.7677 N   0  0  0  0  0  0
   -7.8662   27.1625   52.1509 C   0  0  0  0  0  0
   -4.9842   29.4257   56.8996 C   0  0  0  0  0  0
   -8.3391   26.5697   54.6748 O   0  0  0  0  0  0
   -7.5392   28.9204   54.0874 O   0  0  0  0  0  0
   -2.9101   27.7656   54.5269 O   0  0  0  0  0  0
   -2.9901   26.0205   55.9342 N   0  0  0  0  0  0
   -4.4936   28.9022   57.8983 O   0  0  0  0  0  0
   -8.9303   26.3444   51.7676 C   0  0  0  0  0  0
   -7.1388   27.8298   51.1726 C   0  0  0  0  0  0
   -9.2499   27.1429   48.2040 O   0  0  0  0  0  0
   -8.7074   27.1016   49.4779 C   0  0  0  0  0  0
   -5.7670   26.4591   56.5961 C   0  0  0  0  0  0
   -7.5352   27.7698   49.8419 C   0  0  0  0  0  0
   -9.3626   26.3352   50.4415 C   0  0  0  0  0  0
   -9.0253   28.1693   47.2983 C   0  0  0  0  0  0
   -1.6262   25.7763   55.7103 O   0  0  0  0  0  0
   -5.3045   30.9139   56.9094 C   0  0  0  0  0  0
   -9.1461   27.8637   45.9409 C   0  0  0  0  0  0
   -8.7388   29.4910   47.6707 C   0  0  0  0  0  0
   -8.4843   30.4610   46.7037 C   0  0  0  0  0  0
   -8.9190   28.8363   44.9680 C   0  0  0  0  0  0
   -8.5779   30.1305   45.3552 C   0  0  0  0  0  0
   -5.1812   27.3967   53.2776 H   0  0  0  0  0  0
   -5.7132   25.8595   53.9525 H   0  0  0  0  0  0
   -5.5938   29.3070   54.9826 H   0  0  0  0  0  0
   -3.4424   25.3294   56.5323 H   0  0  0  0  0  0
   -9.4824   25.7863   52.5094 H   0  0  0  0  0  0
   -6.2980   28.4538   51.4368 H   0  0  0  0  0  0
   -5.9389   25.4263   56.2945 H   0  0  0  0  0  0
   -5.1847   26.4361   57.5173 H   0  0  0  0  0  0
   -6.7389   26.8729   56.8556 H   0  0  0  0  0  0
   -6.9516   28.3107   49.1119 H   0  0  0  0  0  0
  -10.2374   25.7656   50.1661 H   0  0  0  0  0  0
   -1.2081   26.1189   56.5107 H   0  0  0  0  0  0
   -5.9702   31.1860   56.0878 H   0  0  0  0  0  0
   -4.3850   31.4921   56.8111 H   0  0  0  0  0  0
   -5.7888   31.1894   57.8477 H   0  0  0  0  0  0
   -9.3926   26.8567   45.6398 H   0  0  0  0  0  0
   -8.7202   29.7739   48.7104 H   0  0  0  0  0  0
   -8.2441   31.4727   46.9979 H   0  0  0  0  0  0
   -8.9828   28.5870   43.9184 H   0  0  0  0  0  0
   -8.3791   30.8841   44.6067 H   0  0  0  0  0  0
  1  3  1  0  0  0
  1  6  1  0  0  0
  1  8  2  0  0  0
  1  9  2  0  0  0
  2  3  1  0  0  0
  2  4  1  0  0  0
  2  5  1  0  0  0
  2 17  1  0  0  0
  3 28  1  0  0  0
  3 29  1  0  0  0
  4 10  2  0  0  0
  4 11  1  0  0  0
  5  7  1  0  0  0
  5 30  1  0  0  0
  6 13  1  0  0  0
  6 14  2  0  0  0
  7 12  2  0  0  0
  7 22  1  0  0  0
 11 21  1  0  0  0
 11 31  1  0  0  0
 13 19  2  0  0  0
 13 32  1  0  0  0
 14 18  1  0  0  0
 14 33  1  0  0  0
 15 16  1  0  0  0
 15 20  1  0  0  0
 16 18  2  0  0  0
 16 19  1  0  0  0
 17 34  1  0  0  0
 17 35  1  0  0  0
 17 36  1  0  0  0
 18 37  1  0  0  0
 19 38  1  0  0  0
 20 23  2  0  0  0
 20 24  1  0  0  0
 21 39  1  0  0  0
 22 40  1  0  0  0
 22 41  1  0  0  0
 22 42  1  0  0  0
 23 26  1  0  0  0
 23 43  1  0  0  0
 24 25  2  0  0  0
 24 44  1  0  0  0
 25 27  1  0  0  0
 25 45  1  0  0  0
 26 27  2  0  0  0
 26 46  1  0  0  0
 27 47  1  0  0  0
M  END
> <s_m_entry_id>
64202

> <s_m_entry_name>
dock_pv.152

> <s_m_Source_Path>
/home/csk/Desktop/cluster/DUD-E-result/mmp13

> <s_m_Source_File>
dock_pv.maegz

> <i_m_Source_File_Index>
152

> <chembl_id>
CHEMBL92327

> <chembl_pref_name>
None

> <i_lp_mmshare_version>
53161

> <i_f3d_flags>
0

> <r_lp_tautomer_probability>
1

> <s_lp_Force_Field>
OPLS_2005

> <r_lp_Energy>
19.283179

> <b_lp_Chiralities_Consistent>
1

> <s_lp_Variant>
CHEMBL280_lig451-1

> <s_i_glide_gridfile>
glide-grid_830c

> <i_i_glide_lignum>
643

> <i_i_glide_rotatable_bonds>
10

> <r_i_docking_score>
-7.39451800793056

> <r_i_glide_ligand_efficiency>
-0.273871037330761

> <r_i_glide_ligand_efficiency_sa>
-0.82161311108965

> <r_i_glide_ligand_efficiency_ln>
-1.72132188408923

> <r_i_glide_gscore>
-7.39451800793056

> <r_i_glide_lipo>
-2.84892208390276

> <r_i_glide_hbond>
-0.101083744143934

> <r_i_glide_metal>
0

> <r_i_glide_rewards>
-0.733437922438889

> <r_i_glide_evdw>
-48.5779190063477

> <r_i_glide_ecoul>
-13.9763431549072

> <r_i_glide_erotb>
1.0142731661085

> <r_i_glide_esite>
-0.2

> <r_i_glide_emodel>
-89.4715721368681

> <r_i_glide_energy>
-62.5542621612549

> <r_i_glide_einternal>
7.97258138656616

> <i_i_glide_confnum>
89

> <i_i_glide_posenum>
110

> <r_i_glide_eff_state_penalty>
0

> <s_user_duplicate_titles>
CHEMBL280_lig451,149017

> <s_m_subgroup_title>
dock_pv

> <s_m_subgroupid>
dock_pv

> <b_m_subgroup_collapsed>
1

$$$$
CHEMBL280_lig2145
                    3D
 Schrodinger Suite 2021-1.
 53 55  0  0  1  0            999 V2000
    0.5567   28.0843   58.7843 C   0  0  0  0  0  0
   -0.7150   28.7605   58.2158 C   0  0  2  0  0  0
   -1.1390   29.5492   59.3100 O   0  0  0  0  0  0
   -4.7949   27.3700   58.8784 O   0  0  0  0  0  0
   -4.7131   28.5382   57.9954 S   0  0  0  0  0  0
   -5.0469   29.8699   58.5100 O   0  0  0  0  0  0
   -3.0857   28.6294   57.2926 N   0  0  3  0  0  0
   -1.9400   27.8318   57.8579 C   0  0  1  0  0  0
   -0.3845   29.7236   57.0474 C   0  0  0  0  0  0
   -1.6019   30.5523   56.5896 C   0  0  0  0  0  0
   -2.8036   29.6546   56.2485 C   0  0  0  0  0  0
   -1.6062   26.6405   56.9104 C   0  0  0  0  0  0
   -0.4716   26.1700   56.8769 O   0  0  0  0  0  0
   -2.5973   26.1284   56.1533 N   0  0  0  0  0  0
   -2.3390   24.9700   55.3987 O   0  0  0  0  0  0
   -5.7622   28.2195   56.5834 C   0  0  0  0  0  0
   -6.3390   29.3055   55.9285 C   0  0  0  0  0  0
   -7.0737   29.0969   54.7713 C   0  0  0  0  0  0
   -7.2257   27.8180   54.2465 C   0  0  0  0  0  0
   -6.6713   26.7203   54.9232 C   0  0  0  0  0  0
   -5.9475   26.9206   56.0997 C   0  0  0  0  0  0
   -7.9390   27.7477   53.0712 O   0  0  0  0  0  0
   -7.8871   26.5711   52.2770 C   0  0  0  0  0  0
   -8.3390   26.9530   50.8761 C   0  0  0  0  0  0
   -9.5764   26.5423   50.3766 C   0  0  0  0  0  0
   -9.9939   26.9433   49.1076 C   0  0  0  0  0  0
   -9.1752   27.7565   48.3268 C   0  0  0  0  0  0
   -7.9390   28.1700   48.8173 C   0  0  0  0  0  0
   -7.5261   27.7700   50.0884 C   0  0  0  0  0  0
  -10.3854   25.7700   51.1296 F   0  0  0  0  0  0
   -9.5838   28.1451   47.0988 F   0  0  0  0  0  0
    1.1526   27.6086   58.0064 H   0  0  0  0  0  0
    1.2253   28.8001   59.2661 H   0  0  0  0  0  0
    0.3067   27.3235   59.5250 H   0  0  0  0  0  0
   -0.5350   30.2888   59.4019 H   0  0  0  0  0  0
   -2.2793   27.3087   58.7531 H   0  0  0  0  0  0
    0.4593   30.3666   57.3028 H   0  0  0  0  0  0
   -0.0135   29.1393   56.2066 H   0  0  0  0  0  0
   -1.3415   31.1642   55.7252 H   0  0  0  0  0  0
   -1.8919   31.2551   57.3722 H   0  0  0  0  0  0
   -2.6511   29.1373   55.3008 H   0  0  0  0  0  0
   -3.6933   30.2693   56.1100 H   0  0  0  0  0  0
   -3.5709   26.4059   56.1591 H   0  0  0  0  0  0
   -2.9625   24.3116   55.7651 H   0  0  0  0  0  0
   -6.2004   30.3134   56.2937 H   0  0  0  0  0  0
   -7.5023   29.9401   54.2558 H   0  0  0  0  0  0
   -6.7940   25.7137   54.5517 H   0  0  0  0  0  0
   -5.5223   26.0686   56.6141 H   0  0  0  0  0  0
   -6.8716   26.1758   52.2154 H   0  0  0  0  0  0
   -8.5175   25.7939   52.7110 H   0  0  0  0  0  0
  -10.9563   26.6317   48.7305 H   0  0  0  0  0  0
   -7.3026   28.8062   48.2191 H   0  0  0  0  0  0
   -6.5774   28.1145   50.4724 H   0  0  0  0  0  0
  1  2  1  0  0  0
  1 32  1  0  0  0
  1 33  1  0  0  0
  1 34  1  0  0  0
  2  3  1  0  0  0
  2  8  1  0  0  0
  2  9  1  0  0  0
  3 35  1  0  0  0
  4  5  2  0  0  0
  5  6  2  0  0  0
  5 16  1  0  0  0
  5  7  1  0  0  0
  7  8  1  0  0  0
  7 11  1  0  0  0
  8 12  1  0  0  0
  8 36  1  0  0  0
  9 10  1  0  0  0
  9 37  1  0  0  0
  9 38  1  0  0  0
 10 11  1  0  0  0
 10 39  1  0  0  0
 10 40  1  0  0  0
 11 41  1  0  0  0
 11 42  1  0  0  0
 12 13  2  0  0  0
 12 14  1  0  0  0
 14 15  1  0  0  0
 14 43  1  0  0  0
 15 44  1  0  0  0
 16 17  1  0  0  0
 16 21  2  0  0  0
 17 18  2  0  0  0
 17 45  1  0  0  0
 18 19  1  0  0  0
 18 46  1  0  0  0
 19 20  2  0  0  0
 19 22  1  0  0  0
 20 21  1  0  0  0
 20 47  1  0  0  0
 21 48  1  0  0  0
 22 23  1  0  0  0
 23 24  1  0  0  0
 23 49  1  0  0  0
 23 50  1  0  0  0
 24 25  1  0  0  0
 24 29  2  0  0  0
 25 26  2  0  0  0
 25 30  1  0  0  0
 26 27  1  0  0  0
 26 51  1  0  0  0
 27 28  2  0  0  0
 27 31  1  0  0  0
 28 29  1  0  0  0
 28 52  1  0  0  0
 29 53  1  0  0  0
M  END
> <s_m_entry_id>
64203

> <s_m_entry_name>
dock_pv.153

> <s_m_Source_Path>
/home/csk/Desktop/cluster/DUD-E-result/mmp13

> <s_m_Source_File>
dock_pv.maegz

> <i_m_Source_File_Index>
153

> <chembl_id>
CHEMBL3910163

> <chembl_pref_name>
None

> <i_lp_mmshare_version>
53161

> <i_f3d_flags>
0

> <r_lp_tautomer_probability>
1

> <s_lp_Force_Field>
OPLS_2005

> <r_lp_Energy>
29.554904

> <b_lp_Chiralities_Consistent>
1

> <s_lp_Variant>
CHEMBL280_lig2145-1

> <s_i_glide_gridfile>
glide-grid_830c

> <i_i_glide_lignum>
2990

> <i_i_glide_rotatable_bonds>
9

> <r_i_docking_score>
-7.37769656044371

> <r_i_glide_ligand_efficiency>
-0.237990211627216

> <r_i_glide_ligand_efficiency_sa>
-0.7476178454085

> <r_i_glide_ligand_efficiency_ln>
-1.66389667362614

> <r_i_glide_gscore>
-7.37769656044371

> <r_i_glide_lipo>
-3.21467757624908

> <r_i_glide_hbond>
-0.298791632503155

> <r_i_glide_metal>
0

> <r_i_glide_rewards>
-0.00773786579500263

> <r_i_glide_evdw>
-43.0448341369629

> <r_i_glide_ecoul>
-14.679030418396

> <r_i_glide_erotb>
0.67518878476718

> <r_i_glide_esite>
-0.177582001056107

> <r_i_glide_emodel>
-82.6171548840229

> <r_i_glide_energy>
-57.7238645553589

> <r_i_glide_einternal>
8.11203002929688

> <i_i_glide_confnum>
28

> <i_i_glide_posenum>
218

> <r_i_glide_eff_state_penalty>
0

> <s_user_duplicate_titles>
CHEMBL280_lig2145

> <s_m_subgroup_title>
dock_pv

> <s_m_subgroupid>
dock_pv

> <b_m_subgroup_collapsed>
1

$$$$
CHEMBL280_lig105
                    3D
 Schrodinger Suite 2021-1.
 55 59  0  0  1  0            999 V2000
   -3.3589   30.5866   58.8099 N   0  0  0  0  0  0
   -4.3308   31.3414   59.4513 N   0  0  0  0  0  0
   -2.0512   30.9636   58.6079 C   0  0  0  0  0  0
   -4.0592   32.4987   59.9641 N   0  0  0  0  0  0
   -1.7456   32.3038   59.2295 C   0  0  0  0  0  0
   -4.5455   27.8019   56.3404 C   0  0  2  0  0  0
   -5.4382   28.0688   55.1196 C   0  0  1  0  0  0
   -4.1753   29.2174   56.8406 C   0  0  2  0  0  0
   -3.7779   29.2517   58.3357 C   0  0  0  0  0  0
   -3.2988   26.9517   56.0068 C   0  0  0  0  0  0
   -2.7613   33.0070   59.8788 C   0  0  0  0  0  0
   -6.5024   26.6636   54.6734 S   0  0  0  0  0  0
   -1.2231   30.2851   57.9937 O   0  0  0  0  0  0
   -6.2475   29.3176   55.4794 C   0  0  0  0  0  0
   -5.4080   30.0875   56.5098 C   0  0  0  0  0  0
   -8.3145   27.1382   50.4801 C   0  0  0  0  0  0
   -2.7398   26.9701   54.9101 O   0  0  0  0  0  0
  -10.1133   27.6919   46.5615 N   0  0  0  0  0  0
   -8.9282   27.3209   49.1180 C   0  0  0  0  0  0
   -7.1925   26.9093   53.0620 C   0  0  0  0  0  0
   -7.1842   27.8728   50.8627 C   0  0  0  0  0  0
   -8.8560   26.2609   51.4328 C   0  0  0  0  0  0
   -2.8825   26.1698   57.0392 O   0  0  0  0  0  0
   -0.4539   32.8417   59.1544 C   0  0  0  0  0  0
   -6.6270   27.7720   52.1317 C   0  0  0  0  0  0
   -8.3102   26.1697   52.7120 C   0  0  0  0  0  0
   -8.9093   28.2347   46.8656 C   0  0  0  0  0  0
  -10.7291   26.9699   47.5273 C   0  0  0  0  0  0
   -2.4949   34.2483   60.4617 C   0  0  0  0  0  0
  -10.1802   26.7706   48.7951 C   0  0  0  0  0  0
   -8.2942   28.0704   48.1067 C   0  0  0  0  0  0
   -0.1910   34.0826   59.7372 C   0  0  0  0  0  0
   -1.2077   34.7840   60.3891 C   0  0  0  0  0  0
   -5.1283   27.2651   57.0923 H   0  0  0  0  0  0
   -4.8363   28.2894   54.2390 H   0  0  0  0  0  0
   -3.3449   29.6047   56.2425 H   0  0  0  0  0  0
   -2.9878   28.5206   58.5297 H   0  0  0  0  0  0
   -4.6260   28.9050   58.9290 H   0  0  0  0  0  0
   -7.2045   29.0489   55.9214 H   0  0  0  0  0  0
   -6.4454   29.9292   54.5988 H   0  0  0  0  0  0
   -6.0078   30.2999   57.3969 H   0  0  0  0  0  0
   -5.0952   31.0538   56.1103 H   0  0  0  0  0  0
   -6.7391   28.5780   50.1859 H   0  0  0  0  0  0
   -9.7125   25.6417   51.2167 H   0  0  0  0  0  0
   -3.5370   26.0206   57.7318 H   0  0  0  0  0  0
    0.3420   32.3086   58.6542 H   0  0  0  0  0  0
   -5.7575   28.3693   52.3539 H   0  0  0  0  0  0
   -8.7379   25.4999   53.4421 H   0  0  0  0  0  0
   -8.4213   28.7995   46.0825 H   0  0  0  0  0  0
  -11.6994   26.5699   47.2788 H   0  0  0  0  0  0
   -3.2808   34.7913   60.9683 H   0  0  0  0  0  0
  -10.7388   26.1969   49.5125 H   0  0  0  0  0  0
   -7.3237   28.5213   48.2404 H   0  0  0  0  0  0
    0.8029   34.5032   59.6841 H   0  0  0  0  0  0
   -0.9993   35.7428   60.8407 H   0  0  0  0  0  0
  1  2  1  0  0  0
  1  3  1  0  0  0
  1  9  1  0  0  0
  2  4  2  0  0  0
  3  5  1  0  0  0
  3 13  2  0  0  0
  4 11  1  0  0  0
  5 11  2  0  0  0
  5 24  1  0  0  0
  6  8  1  0  0  0
  6  7  1  0  0  0
  6 10  1  0  0  0
  6 34  1  0  0  0
  7 12  1  0  0  0
  7 14  1  0  0  0
  7 35  1  0  0  0
  8  9  1  0  0  0
  8 15  1  0  0  0
  8 36  1  0  0  0
  9 37  1  0  0  0
  9 38  1  0  0  0
 10 17  2  0  0  0
 10 23  1  0  0  0
 11 29  1  0  0  0
 12 20  1  0  0  0
 14 15  1  0  0  0
 14 39  1  0  0  0
 14 40  1  0  0  0
 15 41  1  0  0  0
 15 42  1  0  0  0
 16 22  1  0  0  0
 16 19  1  0  0  0
 16 21  2  0  0  0
 18 27  2  0  0  0
 18 28  1  0  0  0
 19 30  1  0  0  0
 19 31  2  0  0  0
 20 25  2  0  0  0
 20 26  1  0  0  0
 21 25  1  0  0  0
 21 43  1  0  0  0
 22 26  2  0  0  0
 22 44  1  0  0  0
 23 45  1  0  0  0
 24 32  2  0  0  0
 24 46  1  0  0  0
 25 47  1  0  0  0
 26 48  1  0  0  0
 27 31  1  0  0  0
 27 49  1  0  0  0
 28 30  2  0  0  0
 28 50  1  0  0  0
 29 33  2  0  0  0
 29 51  1  0  0  0
 30 52  1  0  0  0
 31 53  1  0  0  0
 32 33  1  0  0  0
 32 54  1  0  0  0
 33 55  1  0  0  0
M  END
> <s_m_entry_id>
64204

> <s_m_entry_name>
dock_pv.154

> <s_m_Source_Path>
/home/csk/Desktop/cluster/DUD-E-result/mmp13

> <s_m_Source_File>
dock_pv.maegz

> <i_m_Source_File_Index>
154

> <chembl_id>
CHEMBL125901

> <chembl_pref_name>
None

> <i_lp_mmshare_version>
53161

> <i_f3d_flags>
0

> <r_lp_tautomer_probability>
1

> <s_lp_Force_Field>
OPLS_2005

> <r_lp_Energy>
47.993721

> <b_lp_Chiralities_Consistent>
1

> <s_lp_Variant>
CHEMBL280_lig105-1

> <s_i_glide_gridfile>
glide-grid_830c

> <i_i_glide_lignum>
129

> <i_i_glide_rotatable_bonds>
7

> <r_i_docking_score>
-7.37640437145361

> <r_i_glide_ligand_efficiency>
-0.223527405195564

> <r_i_glide_ligand_efficiency_sa>
-0.716971825024026

> <r_i_glide_ligand_efficiency_ln>
-1.64047413923349

> <r_i_glide_gscore>
-7.37640437145361

> <r_i_glide_lipo>
-3.64820988107229

> <r_i_glide_hbond>
0

> <r_i_glide_metal>
0

> <r_i_glide_rewards>
-0.35494915819761

> <r_i_glide_evdw>
-44.2474594116211

> <r_i_glide_ecoul>
-10.8990230560303

> <r_i_glide_erotb>
0.573981096801889

> <r_i_glide_esite>
-0.1

> <r_i_glide_emodel>
-83.1578706305838

> <r_i_glide_energy>
-55.1464824676514

> <r_i_glide_einternal>
2.04437208175659

> <i_i_glide_confnum>
12

> <i_i_glide_posenum>
87

> <r_i_glide_eff_state_penalty>
0

> <s_user_duplicate_titles>
CHEMBL280_lig105,207776

> <s_m_subgroup_title>
dock_pv

> <s_m_subgroupid>
dock_pv

> <b_m_subgroup_collapsed>
1

$$$$
CHEMBL280_lig887
                    3D
 Schrodinger Suite 2021-1.
 51 53  0  0  1  0            999 V2000
   -3.5394   28.8549   57.2266 C   0  0  1  0  0  0
   -3.1812   30.2295   56.6091 C   0  0  0  0  0  0
   -4.7181   28.8302   58.2605 C   0  0  0  0  0  0
   -5.3291   30.0051   58.5099 N   0  0  0  0  0  0
   -5.0930   31.2660   58.1034 C   0  0  0  0  0  0
   -3.8536   31.4886   57.1961 C   0  0  2  0  0  0
   -3.8016   27.8975   56.1794 O   0  0  0  0  0  0
   -2.3402   30.3074   55.7111 O   0  0  0  0  0  0
   -5.1051   27.8060   58.8270 O   0  0  0  0  0  0
   -5.8154   32.1746   58.5090 O   0  0  0  0  0  0
   -2.2475   28.2814   57.9200 C   0  0  0  0  0  0
   -4.2303   32.4000   56.1101 N   0  0  0  0  0  0
   -8.3908   26.9665   53.2048 O   0  0  0  0  0  0
   -4.9889   27.7924   55.4705 C   0  0  0  0  0  0
   -7.2768   27.2622   53.9513 C   0  0  0  0  0  0
   -8.3406   26.9720   51.8241 C   0  0  0  0  0  0
   -8.5835   27.1942   49.0528 C   0  0  0  0  0  0
   -8.7406   27.3697   47.7214 F   0  0  0  0  0  0
   -5.1989   26.5455   54.9100 C   0  0  0  0  0  0
   -5.9524   28.7942   55.2796 C   0  0  0  0  0  0
   -7.4162   27.7306   51.0939 C   0  0  0  0  0  0
   -9.3403   26.2744   51.1415 C   0  0  0  0  0  0
   -6.3387   26.2642   54.1703 C   0  0  0  0  0  0
   -7.0899   28.5300   54.5097 C   0  0  0  0  0  0
   -7.5387   27.8300   49.7110 C   0  0  0  0  0  0
   -9.4718   26.3918   49.7599 C   0  0  0  0  0  0
   -1.1374   26.1611   57.2743 O   0  0  0  0  0  0
   -2.1552   26.7381   58.0984 C   0  0  0  0  0  0
    0.2050   26.3523   57.7244 C   0  0  0  0  0  0
    0.5837   25.3723   58.8423 C   0  0  0  0  0  0
   -6.1118   29.9472   59.1480 H   0  0  0  0  0  0
   -3.1134   31.9827   57.8268 H   0  0  0  0  0  0
   -2.1172   28.7445   58.9008 H   0  0  0  0  0  0
   -1.3588   28.5937   57.3695 H   0  0  0  0  0  0
   -3.5479   33.1355   55.9904 H   0  0  0  0  0  0
   -4.3000   31.9034   55.2191 H   0  0  0  0  0  0
   -4.4723   25.7702   55.0805 H   0  0  0  0  0  0
   -5.8211   29.7829   55.6877 H   0  0  0  0  0  0
   -6.6324   28.2859   51.5870 H   0  0  0  0  0  0
  -10.0548   25.6847   51.6958 H   0  0  0  0  0  0
   -6.4890   25.2760   53.7615 H   0  0  0  0  0  0
   -7.8242   29.3037   54.3470 H   0  0  0  0  0  0
   -6.8410   28.4378   49.1521 H   0  0  0  0  0  0
  -10.2706   25.8837   49.2407 H   0  0  0  0  0  0
   -2.0151   26.4717   59.1473 H   0  0  0  0  0  0
   -3.0907   26.2589   57.8105 H   0  0  0  0  0  0
    0.3942   27.3802   58.0350 H   0  0  0  0  0  0
    0.8623   26.1747   56.8745 H   0  0  0  0  0  0
    1.6291   25.4963   59.1255 H   0  0  0  0  0  0
   -0.0170   25.5226   59.7380 H   0  0  0  0  0  0
    0.4566   24.3403   58.5153 H   0  0  0  0  0  0
  1  2  1  0  0  0
  1  3  1  0  0  0
  1  7  1  0  0  0
  1 11  1  0  0  0
  2  6  1  0  0  0
  2  8  2  0  0  0
  3  4  1  0  0  0
  3  9  2  0  0  0
  4  5  1  0  0  0
  4 31  1  0  0  0
  5 10  2  0  0  0
  5  6  1  0  0  0
  6 12  1  0  0  0
  6 32  1  0  0  0
  7 14  1  0  0  0
 11 28  1  0  0  0
 11 33  1  0  0  0
 11 34  1  0  0  0
 12 35  1  0  0  0
 12 36  1  0  0  0
 13 15  1  0  0  0
 13 16  1  0  0  0
 14 19  2  0  0  0
 14 20  1  0  0  0
 15 24  1  0  0  0
 15 23  2  0  0  0
 16 21  1  0  0  0
 16 22  2  0  0  0
 17 26  2  0  0  0
 17 18  1  0  0  0
 17 25  1  0  0  0
 19 23  1  0  0  0
 19 37  1  0  0  0
 20 24  2  0  0  0
 20 38  1  0  0  0
 21 25  2  0  0  0
 21 39  1  0  0  0
 22 26  1  0  0  0
 22 40  1  0  0  0
 23 41  1  0  0  0
 24 42  1  0  0  0
 25 43  1  0  0  0
 26 44  1  0  0  0
 27 28  1  0  0  0
 27 29  1  0  0  0
 28 45  1  0  0  0
 28 46  1  0  0  0
 29 30  1  0  0  0
 29 47  1  0  0  0
 29 48  1  0  0  0
 30 49  1  0  0  0
 30 50  1  0  0  0
 30 51  1  0  0  0
M  END
> <s_m_entry_id>
64205

> <s_m_entry_name>
dock_pv.155

> <s_m_Source_Path>
/home/csk/Desktop/cluster/DUD-E-result/mmp13

> <s_m_Source_File>
dock_pv.maegz

> <i_m_Source_File_Index>
155

> <chembl_id>
CHEMBL360916

> <chembl_pref_name>
None

> <i_lp_mmshare_version>
53161

> <i_f3d_flags>
0

> <r_lp_tautomer_probability>
1

> <s_lp_Force_Field>
OPLS_2005

> <r_lp_Energy>
29.157906

> <b_lp_Chiralities_Consistent>
1

> <s_lp_Variant>
CHEMBL280_lig887-4

> <s_i_glide_gridfile>
glide-grid_830c

> <i_i_glide_lignum>
1440

> <i_i_glide_rotatable_bonds>
8

> <r_i_docking_score>
-7.37444676901207

> <r_i_glide_ligand_efficiency>
-0.245814892300402

> <r_i_glide_ligand_efficiency_sa>
-0.763804022937408

> <r_i_glide_ligand_efficiency_ln>
-1.6755546569527

> <r_i_glide_gscore>
-7.37444676901207

> <r_i_glide_lipo>
-2.45667102895191

> <r_i_glide_hbond>
-1.20184619499867

> <r_i_glide_metal>
0

> <r_i_glide_rewards>
-0.563424447988273

> <r_i_glide_evdw>
-44.0283546447754

> <r_i_glide_ecoul>
-11.4938888549805

> <r_i_glide_erotb>
0.797568223358255

> <r_i_glide_esite>
-0.0245722599456316

> <r_i_glide_emodel>
-65.5796462014975

> <r_i_glide_energy>
-55.5222434997559

> <r_i_glide_einternal>
13.3141708374023

> <i_i_glide_confnum>
13

> <i_i_glide_posenum>
64

> <r_i_glide_eff_state_penalty>
0

> <s_user_duplicate_titles>
CHEMBL280_lig887,304025

> <s_m_subgroup_title>
dock_pv

> <s_m_subgroupid>
dock_pv

> <b_m_subgroup_collapsed>
1

$$$$
CHEMBL280_lig2562
                    3D
 Schrodinger Suite 2021-1.
 42 44  0  0  1  0            999 V2000
   -3.7724   27.3701   54.5102 O   0  0  0  0  0  0
   -5.1092   27.4965   55.1172 S   0  0  0  0  0  0
   -5.5553   26.5701   56.1628 O   0  0  0  0  0  0
   -4.5526   31.0664   58.1847 C   0  0  0  0  0  0
   -4.9030   29.5703   58.1853 C   0  0  0  0  0  0
   -5.9130   29.3811   57.0517 C   0  0  1  0  0  0
   -6.7320   30.6795   57.1419 C   0  0  1  0  0  0
   -5.7003   31.7747   57.4451 C   0  0  0  0  0  0
   -5.2580   29.1202   55.7460 N   0  0  1  0  0  0
   -6.3144   27.4367   53.7985 C   0  0  0  0  0  0
   -7.6136   27.0088   54.0408 C   0  0  0  0  0  0
   -8.4917   26.8907   52.9689 C   0  0  0  0  0  0
   -8.1075   27.1578   51.6580 C   0  0  0  0  0  0
   -6.8088   27.6143   51.4364 C   0  0  0  0  0  0
   -5.9384   27.7892   52.5071 C   0  0  0  0  0  0
   -9.0608   26.8828   50.6906 O   0  0  0  0  0  0
   -9.0751   27.2960   49.3685 C   0  0  0  0  0  0
   -9.9448   26.6019   48.5279 C   0  0  0  0  0  0
  -10.1085   26.9709   47.1946 C   0  0  0  0  0  0
   -9.3874   28.0484   46.6893 C   0  0  0  0  0  0
   -8.5135   28.7551   47.5094 C   0  0  0  0  0  0
   -8.3692   28.3838   48.8435 C   0  0  0  0  0  0
   -7.7788   31.0436   55.7099 S   0  0  0  0  0  0
   -4.4382   31.4412   59.2030 H   0  0  0  0  0  0
   -3.6052   31.2370   57.6717 H   0  0  0  0  0  0
   -4.0219   28.9347   58.0857 H   0  0  0  0  0  0
   -5.3830   29.3221   59.1286 H   0  0  0  0  0  0
   -6.5791   28.5390   57.2469 H   0  0  0  0  0  0
   -7.4132   30.6037   57.9927 H   0  0  0  0  0  0
   -6.1366   32.5763   58.0427 H   0  0  0  0  0  0
   -5.3273   32.2252   56.5242 H   0  0  0  0  0  0
   -4.5873   29.8172   55.4062 H   0  0  0  0  0  0
   -7.9357   26.7551   55.0406 H   0  0  0  0  0  0
   -9.4960   26.5701   53.1415 H   0  0  0  0  0  0
   -6.4170   27.7705   50.4459 H   0  0  0  0  0  0
   -4.9382   28.1397   52.3083 H   0  0  0  0  0  0
  -10.5024   25.7695   48.9190 H   0  0  0  0  0  0
  -10.7869   26.4229   46.5576 H   0  0  0  0  0  0
   -9.5010   28.3378   45.6547 H   0  0  0  0  0  0
   -7.9564   29.5933   47.1160 H   0  0  0  0  0  0
   -7.7164   28.9700   49.4565 H   0  0  0  0  0  0
   -6.7914   30.9286   54.8163 H   0  0  0  0  0  0
  1  2  2  0  0  0
  2  3  2  0  0  0
  2  9  1  0  0  0
  2 10  1  0  0  0
  4  5  1  0  0  0
  4  8  1  0  0  0
  4 24  1  0  0  0
  4 25  1  0  0  0
  5  6  1  0  0  0
  5 26  1  0  0  0
  5 27  1  0  0  0
  6  7  1  0  0  0
  6  9  1  0  0  0
  6 28  1  0  0  0
  7  8  1  0  0  0
  7 23  1  0  0  0
  7 29  1  0  0  0
  8 30  1  0  0  0
  8 31  1  0  0  0
  9 32  1  0  0  0
 10 11  2  0  0  0
 10 15  1  0  0  0
 11 12  1  0  0  0
 11 33  1  0  0  0
 12 13  2  0  0  0
 12 34  1  0  0  0
 13 14  1  0  0  0
 13 16  1  0  0  0
 14 15  2  0  0  0
 14 35  1  0  0  0
 15 36  1  0  0  0
 16 17  1  0  0  0
 17 18  2  0  0  0
 17 22  1  0  0  0
 18 19  1  0  0  0
 18 37  1  0  0  0
 19 20  2  0  0  0
 19 38  1  0  0  0
 20 21  1  0  0  0
 20 39  1  0  0  0
 21 22  2  0  0  0
 21 40  1  0  0  0
 22 41  1  0  0  0
 23 42  1  0  0  0
M  END
> <s_m_entry_id>
64206

> <s_m_entry_name>
dock_pv.156

> <s_m_Source_Path>
/home/csk/Desktop/cluster/DUD-E-result/mmp13

> <s_m_Source_File>
dock_pv.maegz

> <i_m_Source_File_Index>
156

> <chembl_id>
CHEMBL2380392

> <chembl_pref_name>
None

> <i_lp_mmshare_version>
53161

> <i_f3d_flags>
0

> <r_lp_tautomer_probability>
1

> <s_lp_Force_Field>
OPLS_2005

> <r_lp_Energy>
26.290623

> <b_lp_Chiralities_Consistent>
1

> <s_lp_Variant>
CHEMBL280_lig2562-1

> <s_i_glide_gridfile>
glide-grid_830c

> <i_i_glide_lignum>
3681

> <i_i_glide_rotatable_bonds>
6

> <r_i_docking_score>
-7.36586713163605

> <r_i_glide_ligand_efficiency>
-0.320255092679828

> <r_i_glide_ligand_efficiency_sa>
-0.910762882249569

> <r_i_glide_ligand_efficiency_ln>
-1.78113346242007

> <r_i_glide_gscore>
-7.36586713163605

> <r_i_glide_lipo>
-3.88698743200209

> <r_i_glide_hbond>
-0.21993876684828

> <r_i_glide_metal>
0

> <r_i_glide_rewards>
-1.00879315515033

> <r_i_glide_evdw>
-39.9923439025879

> <r_i_glide_ecoul>
-5.70569562911987

> <r_i_glide_erotb>
0.779877210891128

> <r_i_glide_esite>
-0.174553449029097

> <r_i_glide_emodel>
-61.2057987789913

> <r_i_glide_energy>
-45.6980395317078

> <r_i_glide_einternal>
8.21571731567383

> <i_i_glide_confnum>
145

> <i_i_glide_posenum>
346

> <r_i_glide_eff_state_penalty>
0

> <s_user_duplicate_titles>
CHEMBL280_lig2562

> <s_m_subgroup_title>
dock_pv

> <s_m_subgroupid>
dock_pv

> <b_m_subgroup_collapsed>
1

$$$$
CHEMBL280_lig2662
                    3D
 Schrodinger Suite 2021-1.
 61 62  0  0  1  0            999 V2000
   -1.9390   25.6479   57.9098 N   0  0  0  0  0  0
   -1.6336   26.3196   56.8098 C   0  0  0  0  0  0
   -1.5391   25.7700   55.7100 O   0  0  0  0  0  0
   -1.4819   27.8509   56.9374 C   0  0  2  0  0  0
   -0.7395   28.2988   58.2315 C   0  0  0  0  0  0
   -0.6181   29.8148   58.4163 C   0  0  0  0  0  0
   -0.7387   30.6381   57.5134 O   0  0  0  0  0  0
   -0.3418   30.1507   59.7059 O   0  0  0  0  0  0
   -2.7844   28.5156   56.8097 N   0  0  0  0  0  0
   -3.6732   28.3590   55.8138 C   0  0  0  0  0  0
   -3.4675   27.6768   54.8008 O   0  0  0  0  0  0
   -4.9773   29.1677   55.9669 C   0  0  2  0  0  0
   -5.5280   29.3017   57.4094 C   0  0  0  0  0  0
   -6.7333   30.2612   57.5189 C   0  0  0  0  0  0
   -6.3925   31.7370   57.3235 C   0  0  0  0  0  0
   -6.2113   32.2567   56.2253 O   0  0  0  0  0  0
   -6.3392   32.4101   58.5098 O   0  0  0  0  0  0
   -6.0285   28.7510   55.0286 N   0  0  0  0  0  0
   -6.7375   27.6078   55.0594 C   0  0  0  0  0  0
   -6.5828   26.7360   55.9126 O   0  0  0  0  0  0
   -7.8166   27.4385   53.9885 C   0  0  0  0  0  0
   -7.4934   26.3093   52.9836 C   0  0  0  0  0  0
   -7.9571   26.6462   51.5762 C   0  0  0  0  0  0
   -9.1890   26.2057   51.0963 C   0  0  0  0  0  0
   -9.6129   26.5775   49.8225 C   0  0  0  0  0  0
   -8.8055   27.3700   48.9922 C   0  0  0  0  0  0
   -7.5565   27.7716   49.4853 C   0  0  0  0  0  0
   -7.1415   27.4281   50.7652 C   0  0  0  0  0  0
   -9.2544   27.7740   47.6182 C   0  0  0  0  0  0
  -10.1878   27.0039   46.9051 C   0  0  0  0  0  0
  -10.5933   27.3708   45.6243 C   0  0  0  0  0  0
  -10.0634   28.5137   45.0344 C   0  0  0  0  0  0
   -9.1391   29.2950   45.7194 C   0  0  0  0  0  0
   -8.7439   28.9298   47.0035 C   0  0  0  0  0  0
   -2.0867   26.1317   58.7811 H   0  0  0  0  0  0
   -2.2372   24.6860   57.8403 H   0  0  0  0  0  0
   -0.8571   28.1703   56.1100 H   0  0  0  0  0  0
    0.2771   27.9032   58.2244 H   0  0  0  0  0  0
   -1.2327   27.9030   59.1196 H   0  0  0  0  0  0
   -0.2523   31.1008   59.8099 H   0  0  0  0  0  0
   -3.0174   29.1529   57.5556 H   0  0  0  0  0  0
   -4.6757   30.1771   55.7100 H   0  0  0  0  0  0
   -5.8161   28.3225   57.7926 H   0  0  0  0  0  0
   -4.7522   29.6609   58.0860 H   0  0  0  0  0  0
   -7.5332   29.9840   56.8326 H   0  0  0  0  0  0
   -7.1446   30.1700   58.5100 H   0  0  0  0  0  0
   -6.5713   31.8542   59.2621 H   0  0  0  0  0  0
   -6.1820   29.4069   54.2762 H   0  0  0  0  0  0
   -8.7627   27.2371   54.4934 H   0  0  0  0  0  0
   -7.9486   28.3886   53.4671 H   0  0  0  0  0  0
   -6.4209   26.1051   52.9426 H   0  0  0  0  0  0
   -7.9399   25.3701   53.3105 H   0  0  0  0  0  0
   -9.8369   25.5991   51.7100 H   0  0  0  0  0  0
  -10.5868   26.2504   49.4948 H   0  0  0  0  0  0
   -6.8807   28.3597   48.8823 H   0  0  0  0  0  0
   -6.1799   27.7695   51.1197 H   0  0  0  0  0  0
  -10.5969   26.0994   47.3281 H   0  0  0  0  0  0
  -11.3087   26.7666   45.0871 H   0  0  0  0  0  0
  -10.3673   28.7963   44.0369 H   0  0  0  0  0  0
   -8.7257   30.1810   45.2582 H   0  0  0  0  0  0
   -8.0352   29.5656   47.5129 H   0  0  0  0  0  0
  1  2  1  0  0  0
  1 35  1  0  0  0
  1 36  1  0  0  0
  2  3  2  0  0  0
  2  4  1  0  0  0
  4  5  1  0  0  0
  4  9  1  0  0  0
  4 37  1  0  0  0
  5  6  1  0  0  0
  5 38  1  0  0  0
  5 39  1  0  0  0
  6  7  2  0  0  0
  6  8  1  0  0  0
  8 40  1  0  0  0
  9 10  1  0  0  0
  9 41  1  0  0  0
 10 11  2  0  0  0
 10 12  1  0  0  0
 12 13  1  0  0  0
 12 18  1  0  0  0
 12 42  1  0  0  0
 13 14  1  0  0  0
 13 43  1  0  0  0
 13 44  1  0  0  0
 14 15  1  0  0  0
 14 45  1  0  0  0
 14 46  1  0  0  0
 15 16  2  0  0  0
 15 17  1  0  0  0
 17 47  1  0  0  0
 18 19  1  0  0  0
 18 48  1  0  0  0
 19 20  2  0  0  0
 19 21  1  0  0  0
 21 22  1  0  0  0
 21 49  1  0  0  0
 21 50  1  0  0  0
 22 23  1  0  0  0
 22 51  1  0  0  0
 22 52  1  0  0  0
 23 24  2  0  0  0
 23 28  1  0  0  0
 24 25  1  0  0  0
 24 53  1  0  0  0
 25 26  2  0  0  0
 25 54  1  0  0  0
 26 27  1  0  0  0
 26 29  1  0  0  0
 27 28  2  0  0  0
 27 55  1  0  0  0
 28 56  1  0  0  0
 29 30  2  0  0  0
 29 34  1  0  0  0
 30 31  1  0  0  0
 30 57  1  0  0  0
 31 32  2  0  0  0
 31 58  1  0  0  0
 32 33  1  0  0  0
 32 59  1  0  0  0
 33 34  2  0  0  0
 33 60  1  0  0  0
 34 61  1  0  0  0
M  END
> <s_m_entry_id>
64207

> <s_m_entry_name>
dock_pv.157

> <s_m_Source_Path>
/home/csk/Desktop/cluster/DUD-E-result/mmp13

> <s_m_Source_File>
dock_pv.maegz

> <i_m_Source_File_Index>
157

> <chembl_id>
CHEMBL3639744

> <chembl_pref_name>
None

> <i_lp_mmshare_version>
53161

> <i_f3d_flags>
0

> <r_lp_tautomer_probability>
1

> <s_lp_Force_Field>
OPLS_2005

> <r_lp_Energy>
8.785018

> <b_lp_Chiralities_Consistent>
1

> <s_lp_Variant>
CHEMBL280_lig2662-1

> <s_i_glide_gridfile>
glide-grid_830c

> <i_i_glide_lignum>
3791

> <i_i_glide_rotatable_bonds>
17

> <r_i_docking_score>
-7.36195278870398

> <r_i_glide_ligand_efficiency>
-0.216528023197176

> <r_i_glide_ligand_efficiency_sa>
-0.701466738432314

> <r_i_glide_ligand_efficiency_ln>
-1.62646186680595

> <r_i_glide_gscore>
-7.36195278870398

> <r_i_glide_lipo>
-3.55686766133813

> <r_i_glide_hbond>
-0.0988206251386593

> <r_i_glide_metal>
0

> <r_i_glide_rewards>
-0.269745491763385

> <r_i_glide_evdw>
-52.9236183166504

> <r_i_glide_ecoul>
-12.123291015625

> <r_i_glide_erotb>
1.28288166772009

> <r_i_glide_esite>
-0.254726110007628

> <r_i_glide_emodel>
-95.129152509968

> <r_i_glide_energy>
-65.0469093322754

> <r_i_glide_einternal>
10.0556802749634

> <i_i_glide_confnum>
37

> <i_i_glide_posenum>
173

> <r_i_glide_eff_state_penalty>
0

> <s_user_duplicate_titles>
CHEMBL280_lig2662

> <s_m_subgroup_title>
dock_pv

> <s_m_subgroupid>
dock_pv

> <b_m_subgroup_collapsed>
1

$$$$
CHEMBL280_lig1536
                    3D
 Schrodinger Suite 2021-1.
 53 55  0  0  1  0            999 V2000
   -7.2182   27.0838   53.5703 C   0  0  0  0  0  0
   -7.1388   28.3858   54.0739 C   0  0  0  0  0  0
   -6.7188   28.6370   55.3874 C   0  0  0  0  0  0
   -6.3385   27.5465   56.1918 C   0  0  0  0  0  0
   -6.3958   26.2440   55.6948 C   0  0  0  0  0  0
   -6.8357   26.0191   54.3943 C   0  0  0  0  0  0
   -6.7391   30.0605   55.9011 C   0  0  0  0  0  0
   -6.0002   30.3248   56.9958 N   0  0  0  0  0  0
   -7.4026   30.9144   55.3100 O   0  0  0  0  0  0
   -5.6546   31.6468   57.5415 C   0  0  0  0  0  0
   -6.6997   32.7570   57.4309 C   0  0  0  0  0  0
   -6.4963   33.8210   56.5462 C   0  0  0  0  0  0
   -7.4425   34.8393   56.4442 C   0  0  0  0  0  0
   -8.5927   34.8010   57.2302 C   0  0  0  0  0  0
   -8.8130   33.7534   58.1249 C   0  0  0  0  0  0
   -7.8512   32.7344   58.2241 C   0  0  0  0  0  0
   -9.9858   33.7977   58.8535 O   0  0  0  0  0  0
  -10.3016   32.7075   59.7100 C   0  0  0  0  0  0
   -7.7081   26.8047   52.1747 C   0  0  0  0  0  0
   -7.3130   27.6577   51.2127 N   0  0  0  0  0  0
   -8.3291   25.7702   51.9379 O   0  0  0  0  0  0
   -7.2115   27.2873   49.7996 C   0  0  0  0  0  0
   -8.4115   27.5267   48.9052 C   0  0  0  0  0  0
   -9.5613   26.7654   49.0944 C   0  0  0  0  0  0
  -10.5702   26.7983   48.1472 C   0  0  0  0  0  0
  -10.4503   27.5974   47.0068 C   0  0  0  0  0  0
   -9.3035   28.3762   46.8248 C   0  0  0  0  0  0
   -8.2912   28.3488   47.7798 C   0  0  0  0  0  0
  -11.5359   27.5684   45.9729 C   0  0  0  0  0  0
  -12.7725   27.3701   46.5100 O   0  0  0  0  0  0
  -11.3247   27.7292   44.7728 O   0  0  0  0  0  0
   -7.4385   29.2111   53.4453 H   0  0  0  0  0  0
   -6.0152   27.6886   57.2118 H   0  0  0  0  0  0
   -6.1161   25.3861   56.3033 H   0  0  0  0  0  0
   -6.8726   25.0005   54.0301 H   0  0  0  0  0  0
   -5.4716   29.5566   57.3748 H   0  0  0  0  0  0
   -4.7147   31.9733   57.0909 H   0  0  0  0  0  0
   -5.4262   31.5068   58.6001 H   0  0  0  0  0  0
   -5.6117   33.8527   55.9263 H   0  0  0  0  0  0
   -7.2875   35.6540   55.7509 H   0  0  0  0  0  0
   -9.3242   35.5913   57.1465 H   0  0  0  0  0  0
   -7.9913   31.9130   58.9096 H   0  0  0  0  0  0
  -11.2767   32.8687   60.1674 H   0  0  0  0  0  0
  -10.3400   31.7705   59.1536 H   0  0  0  0  0  0
   -9.5687   32.6145   60.5099 H   0  0  0  0  0  0
   -6.9674   28.5722   51.4623 H   0  0  0  0  0  0
   -6.3389   27.7731   49.3757 H   0  0  0  0  0  0
   -7.0137   26.2187   49.7107 H   0  0  0  0  0  0
   -9.6563   26.0901   49.9294 H   0  0  0  0  0  0
  -11.4336   26.1700   48.2944 H   0  0  0  0  0  0
   -9.1785   28.9914   45.9432 H   0  0  0  0  0  0
   -7.3895   28.9186   47.6050 H   0  0  0  0  0  0
  -12.7391   27.6372   47.4439 H   0  0  0  0  0  0
  1 19  1  0  0  0
  1  6  1  0  0  0
  1  2  2  0  0  0
  2  3  1  0  0  0
  2 32  1  0  0  0
  3  7  1  0  0  0
  3  4  2  0  0  0
  4  5  1  0  0  0
  4 33  1  0  0  0
  5  6  2  0  0  0
  5 34  1  0  0  0
  6 35  1  0  0  0
  7  8  1  0  0  0
  7  9  2  0  0  0
  8 10  1  0  0  0
  8 36  1  0  0  0
 10 11  1  0  0  0
 10 37  1  0  0  0
 10 38  1  0  0  0
 11 16  1  0  0  0
 11 12  2  0  0  0
 12 13  1  0  0  0
 12 39  1  0  0  0
 13 14  2  0  0  0
 13 40  1  0  0  0
 14 15  1  0  0  0
 14 41  1  0  0  0
 15 17  1  0  0  0
 15 16  2  0  0  0
 16 42  1  0  0  0
 17 18  1  0  0  0
 18 43  1  0  0  0
 18 44  1  0  0  0
 18 45  1  0  0  0
 19 20  1  0  0  0
 19 21  2  0  0  0
 20 22  1  0  0  0
 20 46  1  0  0  0
 22 23  1  0  0  0
 22 47  1  0  0  0
 22 48  1  0  0  0
 23 24  2  0  0  0
 23 28  1  0  0  0
 24 25  1  0  0  0
 24 49  1  0  0  0
 25 26  2  0  0  0
 25 50  1  0  0  0
 26 27  1  0  0  0
 26 29  1  0  0  0
 27 28  2  0  0  0
 27 51  1  0  0  0
 28 52  1  0  0  0
 29 30  1  0  0  0
 29 31  2  0  0  0
 30 53  1  0  0  0
M  END
> <s_m_entry_id>
64208

> <s_m_entry_name>
dock_pv.158

> <s_m_Source_Path>
/home/csk/Desktop/cluster/DUD-E-result/mmp13

> <s_m_Source_File>
dock_pv.maegz

> <i_m_Source_File_Index>
158

> <chembl_id>
CHEMBL596494

> <chembl_pref_name>
None

> <i_lp_mmshare_version>
53161

> <i_f3d_flags>
0

> <r_lp_tautomer_probability>
1

> <s_lp_Force_Field>
OPLS_2005

> <r_lp_Energy>
23.63667

> <b_lp_Chiralities_Consistent>
1

> <s_lp_Variant>
CHEMBL280_lig1536-1

> <s_i_glide_gridfile>
glide-grid_830c

> <i_i_glide_lignum>
2277

> <i_i_glide_rotatable_bonds>
11

> <r_i_docking_score>
-7.36026286316806

> <r_i_glide_ligand_efficiency>
-0.237427834295744

> <r_i_glide_ligand_efficiency_sa>
-0.745851204142092

> <r_i_glide_ligand_efficiency_ln>
-1.65996484061183

> <r_i_glide_gscore>
-7.36026286316806

> <r_i_glide_lipo>
-3.42074601258663

> <r_i_glide_hbond>
-0.0872902195116127

> <r_i_glide_metal>
0

> <r_i_glide_rewards>
-0.4947867181514

> <r_i_glide_evdw>
-49.7108421325684

> <r_i_glide_ecoul>
-12.5887880325317

> <r_i_glide_erotb>
1.01642039858976

> <r_i_glide_esite>
0

> <r_i_glide_emodel>
-80.2573207685589

> <r_i_glide_energy>
-62.2996301651001

> <r_i_glide_einternal>
14.7589082717896

> <i_i_glide_confnum>
10

> <i_i_glide_posenum>
57

> <r_i_glide_eff_state_penalty>
0

> <s_user_duplicate_titles>
CHEMBL280_lig1536,591357

> <s_m_subgroup_title>
dock_pv

> <s_m_subgroupid>
dock_pv

> <b_m_subgroup_collapsed>
1

$$$$
CHEMBL280_lig1983
                    3D
 Schrodinger Suite 2021-1.
 46 48  0  0  1  0            999 V2000
   -5.9394   27.7405   58.0690 O   0  0  0  0  0  0
   -5.5048   28.3023   56.7857 S   0  0  0  0  0  0
   -5.1163   29.7121   56.6847 O   0  0  0  0  0  0
   -8.0714   27.7767   48.7560 C   0  0  0  0  0  0
   -9.3466   27.4301   48.3228 C   0  0  0  0  0  0
  -10.2438   26.8301   49.1982 C   0  0  0  0  0  0
   -9.8614   26.5818   50.5138 C   0  0  0  0  0  0
   -8.6020   26.9669   50.9864 C   0  0  0  0  0  0
   -7.7009   27.5477   50.0782 C   0  0  0  0  0  0
   -8.3393   26.7842   52.3425 O   0  0  0  0  0  0
   -6.9871   26.8685   52.8132 C   0  0  0  0  0  0
   -6.4896   28.3061   53.0994 C   0  0  0  0  0  0
   -6.9664   28.8900   54.4407 C   0  0  0  0  0  0
   -6.7389   27.9511   55.5607 N   0  0  3  0  0  0
   -7.2363   26.5663   55.3679 C   0  0  0  0  0  0
   -6.7446   25.9601   54.0441 C   0  0  0  0  0  0
   -4.0861   27.2188   56.1918 C   0  0  0  0  0  0
   -2.7309   27.5986   56.8357 C   0  0  2  0  0  0
   -1.8140   26.3937   56.7376 C   0  0  0  0  0  0
   -1.3406   26.2020   57.9761 N   0  0  0  0  0  0
   -1.9374   26.9497   58.9204 C   0  0  0  0  0  0
   -2.7567   27.7764   58.2614 N   0  0  0  0  0  0
   -2.0512   28.7899   56.1120 C   0  0  0  0  0  0
   -1.5390   25.7709   55.7100 O   0  0  0  0  0  0
   -1.8403   26.8045   60.1329 O   0  0  0  0  0  0
   -9.8197   27.7441   46.6939 Cl  0  0  0  0  0  0
   -7.3700   28.2365   48.0739 H   0  0  0  0  0  0
  -11.2344   26.5699   48.8575 H   0  0  0  0  0  0
  -10.5604   26.1125   51.1899 H   0  0  0  0  0  0
   -6.7125   27.8595   50.3717 H   0  0  0  0  0  0
   -6.3390   26.4673   52.0492 H   0  0  0  0  0  0
   -6.7446   28.9697   52.2789 H   0  0  0  0  0  0
   -5.3991   28.2907   53.1339 H   0  0  0  0  0  0
   -8.0210   29.1535   54.4244 H   0  0  0  0  0  0
   -6.4212   29.8145   54.6364 H   0  0  0  0  0  0
   -6.8970   25.9534   56.2042 H   0  0  0  0  0  0
   -8.3257   26.5700   55.4132 H   0  0  0  0  0  0
   -5.6729   25.7971   54.1557 H   0  0  0  0  0  0
   -7.1677   24.9697   53.8810 H   0  0  0  0  0  0
   -4.0606   27.3086   55.1075 H   0  0  0  0  0  0
   -4.3966   26.1969   56.4273 H   0  0  0  0  0  0
   -0.6582   25.5031   58.2194 H   0  0  0  0  0  0
   -3.0805   28.6470   58.6570 H   0  0  0  0  0  0
   -1.9202   28.6035   55.0453 H   0  0  0  0  0  0
   -2.6453   29.6998   56.1951 H   0  0  0  0  0  0
   -1.0695   29.0247   56.5286 H   0  0  0  0  0  0
  1  2  2  0  0  0
  2  3  2  0  0  0
  2 14  1  0  0  0
  2 17  1  0  0  0
  4  5  2  0  0  0
  4  9  1  0  0  0
  4 27  1  0  0  0
  5  6  1  0  0  0
  5 26  1  0  0  0
  6  7  2  0  0  0
  6 28  1  0  0  0
  7  8  1  0  0  0
  7 29  1  0  0  0
  8  9  2  0  0  0
  8 10  1  0  0  0
  9 30  1  0  0  0
 10 11  1  0  0  0
 11 12  1  0  0  0
 11 16  1  0  0  0
 11 31  1  0  0  0
 12 13  1  0  0  0
 12 32  1  0  0  0
 12 33  1  0  0  0
 13 14  1  0  0  0
 13 34  1  0  0  0
 13 35  1  0  0  0
 14 15  1  0  0  0
 15 16  1  0  0  0
 15 36  1  0  0  0
 15 37  1  0  0  0
 16 38  1  0  0  0
 16 39  1  0  0  0
 17 18  1  0  0  0
 17 40  1  0  0  0
 17 41  1  0  0  0
 18 19  1  0  0  0
 18 22  1  0  0  0
 18 23  1  0  0  0
 19 20  1  0  0  0
 19 24  2  0  0  0
 20 21  1  0  0  0
 20 42  1  0  0  0
 21 22  1  0  0  0
 21 25  2  0  0  0
 22 43  1  0  0  0
 23 44  1  0  0  0
 23 45  1  0  0  0
 23 46  1  0  0  0
M  END
> <s_m_entry_id>
64209

> <s_m_entry_name>
dock_pv.159

> <s_m_Source_Path>
/home/csk/Desktop/cluster/DUD-E-result/mmp13

> <s_m_Source_File>
dock_pv.maegz

> <i_m_Source_File_Index>
159

> <chembl_id>
CHEMBL2409711

> <chembl_pref_name>
None

> <i_lp_mmshare_version>
53161

> <i_f3d_flags>
0

> <r_lp_tautomer_probability>
0.99999999978137

> <s_lp_Force_Field>
OPLS_2005

> <r_lp_Energy>
25.295233

> <b_lp_Chiralities_Consistent>
1

> <s_lp_Variant>
CHEMBL280_lig1983-1

> <s_i_glide_gridfile>
glide-grid_830c

> <i_i_glide_lignum>
2752

> <i_i_glide_rotatable_bonds>
5

> <r_i_docking_score>
-7.35722055588573

> <r_i_glide_ligand_efficiency>
-0.28297002138022

> <r_i_glide_ligand_efficiency_sa>
-0.838297574905634

> <r_i_glide_ligand_efficiency_ln>
-1.72781910654009

> <r_i_glide_gscore>
-7.35722055588573

> <r_i_glide_lipo>
-3.31940705838389

> <r_i_glide_hbond>
-0.0439492022024523

> <r_i_glide_metal>
0

> <r_i_glide_rewards>
-0.658697948585035

> <r_i_glide_evdw>
-51.3881950378418

> <r_i_glide_ecoul>
-8.19560050964355

> <r_i_glide_erotb>
0.607389722892826

> <r_i_glide_esite>
-0.143806241268555

> <r_i_glide_emodel>
-83.2382729897879

> <r_i_glide_energy>
-59.5837955474854

> <r_i_glide_einternal>
5.43128728866577

> <i_i_glide_confnum>
4

> <i_i_glide_posenum>
82

> <r_i_glide_eff_state_penalty>
0

> <s_user_duplicate_titles>
CHEMBL280_lig1983

> <s_m_subgroup_title>
dock_pv

> <s_m_subgroupid>
dock_pv

> <b_m_subgroup_collapsed>
1

$$$$
CHEMBL280_lig1496
                    3D
 Schrodinger Suite 2021-1.
 45 47  0  0  1  0            999 V2000
   -2.1415   29.1091   56.9844 C   0  0  0  0  0  0
   -0.7594   28.8870   56.9113 C   0  0  0  0  0  0
   -0.1500   27.8810   57.6565 C   0  0  0  0  0  0
   -0.9193   27.0731   58.4851 C   0  0  0  0  0  0
   -2.2928   27.2790   58.5711 C   0  0  0  0  0  0
   -2.9235   28.2920   57.8326 C   0  0  0  0  0  0
   -4.7162   28.4538   58.0316 S   0  0  0  0  0  0
   -5.4914   28.1002   56.4571 C   0  0  0  0  0  0
   -5.1414   27.3693   58.9136 O   0  0  0  0  0  0
   -5.0245   29.8382   58.3989 O   0  0  0  0  0  0
   -6.1188   29.1189   55.7409 C   0  0  0  0  0  0
   -6.7192   28.8332   54.5196 C   0  0  0  0  0  0
   -6.7195   27.5299   54.0144 C   0  0  0  0  0  0
   -6.1329   26.5061   54.7640 C   0  0  0  0  0  0
   -5.5134   26.7887   55.9795 C   0  0  0  0  0  0
   -2.7245   30.2011   56.0863 C   0  0  0  0  0  0
   -3.1526   31.4805   56.8157 C   0  0  0  0  0  0
   -2.6440   31.8705   57.8641 O   0  0  0  0  0  0
   -4.1046   32.1571   56.1099 O   0  0  0  0  0  0
   -7.3372   27.2566   52.6947 C   0  0  0  0  0  0
   -8.3765   26.3370   52.5603 C   0  0  0  0  0  0
   -9.0169   26.1683   51.3337 C   0  0  0  0  0  0
   -8.6158   26.8924   50.2160 C   0  0  0  0  0  0
   -7.5323   27.7700   50.3356 C   0  0  0  0  0  0
   -6.9055   27.9501   51.5654 C   0  0  0  0  0  0
   -9.3386   26.6955   49.0568 O   0  0  0  0  0  0
   -9.0320   27.4882   47.9151 C   0  0  0  0  0  0
   -0.1414   29.5048   56.2757 H   0  0  0  0  0  0
    0.9181   27.7286   57.5929 H   0  0  0  0  0  0
   -0.4521   26.2919   59.0670 H   0  0  0  0  0  0
   -2.8621   26.6350   59.2264 H   0  0  0  0  0  0
   -6.1322   30.1309   56.1202 H   0  0  0  0  0  0
   -7.1784   29.6335   53.9594 H   0  0  0  0  0  0
   -6.1390   25.4878   54.3998 H   0  0  0  0  0  0
   -5.0609   25.9854   56.5474 H   0  0  0  0  0  0
   -1.9739   30.5190   55.3638 H   0  0  0  0  0  0
   -3.5230   29.7692   55.4889 H   0  0  0  0  0  0
   -4.3155   31.7331   55.2649 H   0  0  0  0  0  0
   -8.7306   25.7857   53.4188 H   0  0  0  0  0  0
   -9.8423   25.4766   51.2514 H   0  0  0  0  0  0
   -7.1732   28.3484   49.4975 H   0  0  0  0  0  0
   -6.0920   28.6570   51.6423 H   0  0  0  0  0  0
   -9.6589   27.1788   47.0788 H   0  0  0  0  0  0
   -9.2271   28.5452   48.1039 H   0  0  0  0  0  0
   -7.9914   27.3699   47.6123 H   0  0  0  0  0  0
  1  2  2  0  0  0
  1 16  1  0  0  0
  1  6  1  0  0  0
  2  3  1  0  0  0
  2 28  1  0  0  0
  3  4  2  0  0  0
  3 29  1  0  0  0
  4  5  1  0  0  0
  4 30  1  0  0  0
  5  6  2  0  0  0
  5 31  1  0  0  0
  6  7  1  0  0  0
  7  8  1  0  0  0
  7  9  2  0  0  0
  7 10  2  0  0  0
  8 15  1  0  0  0
  8 11  2  0  0  0
 11 12  1  0  0  0
 11 32  1  0  0  0
 12 13  2  0  0  0
 12 33  1  0  0  0
 13 14  1  0  0  0
 13 20  1  0  0  0
 14 15  2  0  0  0
 14 34  1  0  0  0
 15 35  1  0  0  0
 16 17  1  0  0  0
 16 36  1  0  0  0
 16 37  1  0  0  0
 17 18  2  0  0  0
 17 19  1  0  0  0
 19 38  1  0  0  0
 20 21  2  0  0  0
 20 25  1  0  0  0
 21 22  1  0  0  0
 21 39  1  0  0  0
 22 23  2  0  0  0
 22 40  1  0  0  0
 23 24  1  0  0  0
 23 26  1  0  0  0
 24 25  2  0  0  0
 24 41  1  0  0  0
 25 42  1  0  0  0
 26 27  1  0  0  0
 27 43  1  0  0  0
 27 44  1  0  0  0
 27 45  1  0  0  0
M  END
> <s_m_entry_id>
64210

> <s_m_entry_name>
dock_pv.160

> <s_m_Source_Path>
/home/csk/Desktop/cluster/DUD-E-result/mmp13

> <s_m_Source_File>
dock_pv.maegz

> <i_m_Source_File_Index>
160

> <chembl_id>
CHEMBL573936

> <chembl_pref_name>
None

> <i_lp_mmshare_version>
53161

> <i_f3d_flags>
0

> <r_lp_tautomer_probability>
1

> <s_lp_Force_Field>
OPLS_2005

> <r_lp_Energy>
27.649584

> <b_lp_Chiralities_Consistent>
1

> <s_lp_Variant>
CHEMBL280_lig1496-1

> <s_i_glide_gridfile>
glide-grid_830c

> <i_i_glide_lignum>
2227

> <i_i_glide_rotatable_bonds>
7

> <r_i_docking_score>
-7.35508896075238

> <r_i_glide_ligand_efficiency>
-0.272410702250088

> <r_i_glide_ligand_efficiency_sa>
-0.817232105852443

> <r_i_glide_ligand_efficiency_ln>
-1.7121434519448

> <r_i_glide_gscore>
-7.35508896075238

> <r_i_glide_lipo>
-3.02205691803568

> <r_i_glide_hbond>
0

> <r_i_glide_metal>
0

> <r_i_glide_rewards>
-0.951533319920899

> <r_i_glide_evdw>
-42.6073379516602

> <r_i_glide_ecoul>
-12.4402112960815

> <r_i_glide_erotb>
0.663970166875016

> <r_i_glide_esite>
-0.0490702976755837

> <r_i_glide_emodel>
-80.8668218960398

> <r_i_glide_energy>
-55.0475492477417

> <r_i_glide_einternal>
1.1270067691803

> <i_i_glide_confnum>
4

> <i_i_glide_posenum>
148

> <r_i_glide_eff_state_penalty>
0

> <s_user_duplicate_titles>
CHEMBL280_lig1496,570911

> <s_m_subgroup_title>
dock_pv

> <s_m_subgroupid>
dock_pv

> <b_m_subgroup_collapsed>
1

$$$$
CHEMBL280_lig383
                    3D
 Schrodinger Suite 2021-1.
 42 43  0  0  1  0            999 V2000
   -6.4902   26.9575   55.4323 S   0  0  0  0  0  0
   -4.7821   26.5704   55.4662 N   0  0  1  0  0  0
   -3.7035   27.4915   55.9641 C   0  0  2  0  0  0
   -2.3747   26.6823   56.1102 C   0  0  0  0  0  0
   -6.9507   27.0228   53.7063 C   0  0  0  0  0  0
   -7.1469   25.8048   56.0496 O   0  0  0  0  0  0
   -6.7178   28.3202   55.9188 O   0  0  0  0  0  0
   -8.3387   27.5564   49.6394 C   0  0  0  0  0  0
   -7.8215   27.3440   51.0416 C   0  0  0  0  0  0
   -1.3219   27.2389   56.3937 O   0  0  0  0  0  0
   -9.5371   26.9685   49.1928 C   0  0  0  0  0  0
   -7.9103   26.1681   53.1735 C   0  0  0  0  0  0
   -6.3935   28.0143   52.9079 C   0  0  0  0  0  0
   -8.3350   26.3234   51.8574 C   0  0  0  0  0  0
   -6.8264   28.1682   51.5966 C   0  0  0  0  0  0
   -4.0182   28.2674   57.2961 C   0  0  0  0  0  0
   -2.4205   25.3702   55.7101 O   0  0  0  0  0  0
  -10.0110   27.1748   47.8969 C   0  0  0  0  0  0
  -11.1457   26.5703   47.4907 F   0  0  0  0  0  0
   -7.6580   28.3734   48.7183 C   0  0  0  0  0  0
   -8.1369   28.6002   47.4299 C   0  0  0  0  0  0
   -9.3174   27.9965   47.0164 C   0  0  0  0  0  0
   -2.9545   29.2954   57.7391 C   0  0  0  0  0  0
   -4.3959   27.3698   58.4788 C   0  0  0  0  0  0
   -4.6805   25.5784   55.7099 H   0  0  0  0  0  0
   -3.5211   28.2137   55.1665 H   0  0  0  0  0  0
  -10.1329   26.3404   49.8348 H   0  0  0  0  0  0
   -8.3387   25.3769   53.7653 H   0  0  0  0  0  0
   -5.6572   28.6920   53.3149 H   0  0  0  0  0  0
   -9.0754   25.6306   51.4909 H   0  0  0  0  0  0
   -6.3837   28.9697   51.0308 H   0  0  0  0  0  0
   -4.8679   28.9104   57.1065 H   0  0  0  0  0  0
   -3.2607   24.8998   55.8567 H   0  0  0  0  0  0
   -6.7393   28.8637   48.9829 H   0  0  0  0  0  0
   -7.5833   29.2330   46.7514 H   0  0  0  0  0  0
   -9.6871   28.1567   46.0141 H   0  0  0  0  0  0
   -2.0739   28.8248   58.1751 H   0  0  0  0  0  0
   -3.3583   29.9622   58.5011 H   0  0  0  0  0  0
   -2.6326   29.9145   56.9016 H   0  0  0  0  0  0
   -3.5355   26.7994   58.8284 H   0  0  0  0  0  0
   -4.7464   27.9745   59.3098 H   0  0  0  0  0  0
   -5.1937   26.6735   58.2187 H   0  0  0  0  0  0
  1  2  1  0  0  0
  1  5  1  0  0  0
  1  6  2  0  0  0
  1  7  2  0  0  0
  2  3  1  0  0  0
  2 25  1  0  0  0
  3  4  1  0  0  0
  3 16  1  0  0  0
  3 26  1  0  0  0
  4 10  2  0  0  0
  4 17  1  0  0  0
  5 12  1  0  0  0
  5 13  2  0  0  0
  8  9  1  0  0  0
  8 11  2  0  0  0
  8 20  1  0  0  0
  9 15  2  0  0  0
  9 14  1  0  0  0
 11 18  1  0  0  0
 11 27  1  0  0  0
 12 14  2  0  0  0
 12 28  1  0  0  0
 13 15  1  0  0  0
 13 29  1  0  0  0
 14 30  1  0  0  0
 15 31  1  0  0  0
 16 23  1  0  0  0
 16 24  1  0  0  0
 16 32  1  0  0  0
 17 33  1  0  0  0
 18 19  1  0  0  0
 18 22  2  0  0  0
 20 21  2  0  0  0
 20 34  1  0  0  0
 21 22  1  0  0  0
 21 35  1  0  0  0
 22 36  1  0  0  0
 23 37  1  0  0  0
 23 38  1  0  0  0
 23 39  1  0  0  0
 24 40  1  0  0  0
 24 41  1  0  0  0
 24 42  1  0  0  0
M  END
> <s_m_entry_id>
64211

> <s_m_entry_name>
dock_pv.161

> <s_m_Source_Path>
/home/csk/Desktop/cluster/DUD-E-result/mmp13

> <s_m_Source_File>
dock_pv.maegz

> <i_m_Source_File_Index>
161

> <chembl_id>
CHEMBL539683

> <chembl_pref_name>
None

> <i_lp_mmshare_version>
53161

> <i_f3d_flags>
0

> <r_lp_tautomer_probability>
1

> <s_lp_Force_Field>
OPLS_2005

> <r_lp_Energy>
14.883462

> <b_lp_Chiralities_Consistent>
1

> <s_lp_Variant>
CHEMBL280_lig383-1

> <s_i_glide_gridfile>
glide-grid_830c

> <i_i_glide_lignum>
555

> <i_i_glide_rotatable_bonds>
7

> <r_i_docking_score>
-7.35204377100789

> <r_i_glide_ligand_efficiency>
-0.306335157125329

> <r_i_glide_ligand_efficiency_sa>
-0.883623496532048

> <r_i_glide_ligand_efficiency_ln>
-1.75968143770795

> <r_i_glide_gscore>
-7.35204377100789

> <r_i_glide_lipo>
-3.60073604013033

> <r_i_glide_hbond>
-0.152

> <r_i_glide_metal>
0

> <r_i_glide_rewards>
-0.329329536051599

> <r_i_glide_evdw>
-41.2369499206543

> <r_i_glide_ecoul>
-11.8499593734741

> <r_i_glide_erotb>
0.772301740140223

> <r_i_glide_esite>
-0.202938532912353

> <r_i_glide_emodel>
-71.5638234101111

> <r_i_glide_energy>
-53.0869092941284

> <r_i_glide_einternal>
9.08394050598145

> <i_i_glide_confnum>
114

> <i_i_glide_posenum>
265

> <r_i_glide_eff_state_penalty>
0

> <s_user_duplicate_titles>
CHEMBL280_lig383

> <s_m_subgroup_title>
dock_pv

> <s_m_subgroupid>
dock_pv

> <b_m_subgroup_collapsed>
1

$$$$
CHEMBL280_lig1049
                    3D
 Schrodinger Suite 2021-1.
 55 56  0  0  1  0            999 V2000
   -4.7178   30.6416   57.9196 C   0  0  0  0  0  0
   -5.1424   31.8456   57.0446 C   0  0  0  0  0  0
   -6.5512   31.7662   56.6285 N   0  0  2  0  0  0
   -6.8631   30.5016   55.9383 C   0  0  0  0  0  0
   -6.5069   29.3023   56.8359 C   0  0  0  0  0  0
   -5.0129   29.2648   57.2501 C   0  0  0  0  0  0
   -4.6952   28.1262   58.2453 C   0  0  0  0  0  0
   -4.0756   29.0240   56.0342 C   0  0  0  0  0  0
   -4.1973   27.3620   55.1174 S   0  0  0  0  0  0
   -5.7329   27.3006   54.1853 C   0  0  0  0  0  0
   -3.1390   27.3701   54.1100 O   0  0  0  0  0  0
   -4.1870   26.2619   56.0766 O   0  0  0  0  0  0
   -5.5390   27.2712   58.5100 O   0  0  0  0  0  0
   -3.4306   28.0910   58.7012 N   0  0  0  0  0  0
   -3.0037   26.9700   59.4077 O   0  0  0  0  0  0
   -6.7934   26.5053   54.6148 C   0  0  0  0  0  0
   -7.9166   26.3685   53.8031 C   0  0  0  0  0  0
   -7.9646   26.9436   52.5348 C   0  0  0  0  0  0
   -6.9154   27.7700   52.1254 C   0  0  0  0  0  0
   -5.8190   27.9569   52.9578 C   0  0  0  0  0  0
   -9.0697   26.6690   51.7516 O   0  0  0  0  0  0
   -8.8849   26.3962   50.3609 C   0  0  0  0  0  0
   -8.9293   27.5885   49.4976 C   0  0  0  0  0  0
   -8.8608   28.5701   48.7759 C   0  0  0  0  0  0
   -8.6855   29.7551   47.9253 C   0  0  0  0  0  0
   -6.9253   32.9741   55.8819 C   0  0  0  0  0  0
   -8.3870   33.0819   55.6981 C   0  0  0  0  0  0
   -9.5927   33.1496   55.5161 C   0  0  0  0  0  0
  -11.0467   33.2162   55.3116 C   0  0  0  0  0  0
   -3.6577   30.7524   58.1528 H   0  0  0  0  0  0
   -5.2513   30.7420   58.8686 H   0  0  0  0  0  0
   -4.5047   31.9356   56.1629 H   0  0  0  0  0  0
   -4.9951   32.7623   57.6185 H   0  0  0  0  0  0
   -7.9261   30.4500   55.6994 H   0  0  0  0  0  0
   -6.3402   30.4663   54.9821 H   0  0  0  0  0  0
   -7.1389   29.3962   57.7100 H   0  0  0  0  0  0
   -6.8087   28.3812   56.3539 H   0  0  0  0  0  0
   -4.2630   29.7700   55.3100 H   0  0  0  0  0  0
   -3.0257   29.1671   56.2875 H   0  0  0  0  0  0
   -2.6592   28.6310   58.3391 H   0  0  0  0  0  0
   -3.6034   26.2694   59.1098 H   0  0  0  0  0  0
   -6.7404   25.9808   55.5598 H   0  0  0  0  0  0
   -8.7390   25.7699   54.1424 H   0  0  0  0  0  0
   -6.9266   28.2638   51.1654 H   0  0  0  0  0  0
   -5.0077   28.5700   52.6108 H   0  0  0  0  0  0
   -7.9389   25.8909   50.1752 H   0  0  0  0  0  0
   -9.6736   25.7198   50.0317 H   0  0  0  0  0  0
   -9.1403   29.5904   46.9493 H   0  0  0  0  0  0
   -9.1390   30.6239   48.4030 H   0  0  0  0  0  0
   -7.6209   29.9480   47.7902 H   0  0  0  0  0  0
   -6.4361   32.9989   54.9100 H   0  0  0  0  0  0
   -6.6074   33.8688   56.4198 H   0  0  0  0  0  0
  -11.5418   32.4989   55.9671 H   0  0  0  0  0  0
  -11.2876   32.9827   54.2738 H   0  0  0  0  0  0
  -11.4064   34.2186   55.5450 H   0  0  0  0  0  0
  1  2  1  0  0  0
  1  6  1  0  0  0
  1 30  1  0  0  0
  1 31  1  0  0  0
  2  3  1  0  0  0
  2 32  1  0  0  0
  2 33  1  0  0  0
  3  4  1  0  0  0
  3 26  1  0  0  0
  4  5  1  0  0  0
  4 34  1  0  0  0
  4 35  1  0  0  0
  5  6  1  0  0  0
  5 36  1  0  0  0
  5 37  1  0  0  0
  6  7  1  0  0  0
  6  8  1  0  0  0
  7 13  2  0  0  0
  7 14  1  0  0  0
  8  9  1  0  0  0
  8 38  1  0  0  0
  8 39  1  0  0  0
  9 10  1  0  0  0
  9 11  2  0  0  0
  9 12  2  0  0  0
 10 16  2  0  0  0
 10 20  1  0  0  0
 14 15  1  0  0  0
 14 40  1  0  0  0
 15 41  1  0  0  0
 16 17  1  0  0  0
 16 42  1  0  0  0
 17 18  2  0  0  0
 17 43  1  0  0  0
 18 19  1  0  0  0
 18 21  1  0  0  0
 19 20  2  0  0  0
 19 44  1  0  0  0
 20 45  1  0  0  0
 21 22  1  0  0  0
 22 23  1  0  0  0
 22 46  1  0  0  0
 22 47  1  0  0  0
 23 24  3  0  0  0
 24 25  1  0  0  0
 25 48  1  0  0  0
 25 49  1  0  0  0
 25 50  1  0  0  0
 26 27  1  0  0  0
 26 51  1  0  0  0
 26 52  1  0  0  0
 27 28  3  0  0  0
 28 29  1  0  0  0
 29 53  1  0  0  0
 29 54  1  0  0  0
 29 55  1  0  0  0
M  END
> <s_m_entry_id>
64212

> <s_m_entry_name>
dock_pv.162

> <s_m_Source_Path>
/home/csk/Desktop/cluster/DUD-E-result/mmp13

> <s_m_Source_File>
dock_pv.maegz

> <i_m_Source_File_Index>
162

> <chembl_id>
CHEMBL209490

> <chembl_pref_name>
None

> <i_lp_mmshare_version>
53161

> <i_f3d_flags>
0

> <r_lp_tautomer_probability>
1

> <s_lp_Force_Field>
OPLS_2005

> <r_lp_Energy>
33.070174

> <b_lp_Chiralities_Consistent>
1

> <s_lp_Variant>
CHEMBL280_lig1049-1

> <s_i_glide_gridfile>
glide-grid_830c

> <i_i_glide_lignum>
1711

> <i_i_glide_rotatable_bonds>
11

> <r_i_docking_score>
-7.34917927032007

> <r_i_glide_ligand_efficiency>
-0.253419974838623

> <r_i_glide_ligand_efficiency_sa>
-0.778586451787676

> <r_i_glide_ligand_efficiency_ln>
-1.6827756937965

> <r_i_glide_gscore>
-7.34917927032007

> <r_i_glide_lipo>
-3.72202945591675

> <r_i_glide_hbond>
-0.52409732005105

> <r_i_glide_metal>
0

> <r_i_glide_rewards>
-0.130014360696252

> <r_i_glide_evdw>
-32.7413902282715

> <r_i_glide_ecoul>
-14.4333629608154

> <r_i_glide_erotb>
1.12903582187987

> <r_i_glide_esite>
-0.3

> <r_i_glide_emodel>
-66.2577638375599

> <r_i_glide_energy>
-47.1747531890869

> <r_i_glide_einternal>
9.19702625274658

> <i_i_glide_confnum>
102

> <i_i_glide_posenum>
389

> <r_i_glide_eff_state_penalty>
0

> <s_user_duplicate_titles>
CHEMBL280_lig1049,353876

> <s_m_subgroup_title>
dock_pv

> <s_m_subgroupid>
dock_pv

> <b_m_subgroup_collapsed>
1

$$$$
CHEMBL280_lig1716
                    3D
 Schrodinger Suite 2021-1.
 50 52  0  0  1  0            999 V2000
   -2.9985   28.5077   56.8919 C   0  0  0  0  0  0
   -2.5791   29.7748   56.0800 C   0  0  0  0  0  0
   -2.3760   31.0616   56.9024 C   0  0  0  0  0  0
   -1.4439   30.8270   58.0008 N   0  0  2  0  0  0
   -1.9399   29.7954   58.9048 C   0  0  0  0  0  0
   -2.1101   28.4422   58.1775 C   0  0  0  0  0  0
   -4.8750   28.5817   57.3754 S   0  0  0  0  0  0
   -5.1031   27.6772   58.5100 O   0  0  0  0  0  0
   -5.2903   29.9839   57.4827 O   0  0  0  0  0  0
   -5.8106   27.8819   56.0023 C   0  0  0  0  0  0
   -5.9659   26.4997   55.9311 C   0  0  0  0  0  0
   -6.6533   25.9333   54.8647 C   0  0  0  0  0  0
   -7.2171   26.7239   53.8714 C   0  0  0  0  0  0
   -7.0968   28.1174   53.9672 C   0  0  0  0  0  0
   -6.3930   28.6947   55.0263 C   0  0  0  0  0  0
   -7.9044   26.0436   52.8818 O   0  0  0  0  0  0
   -2.7449   27.2639   55.9913 C   0  0  0  0  0  0
   -2.7390   27.3700   54.7602 O   0  0  0  0  0  0
   -2.5655   26.0637   56.5652 N   0  0  0  0  0  0
   -2.3390   24.9702   55.7101 O   0  0  0  0  0  0
   -8.2584   26.5890   51.6670 C   0  0  0  0  0  0
   -7.4013   27.4064   50.9289 C   0  0  0  0  0  0
   -9.9177   26.7813   49.9200 C   0  0  0  0  0  0
   -9.4993   26.2452   51.1334 C   0  0  0  0  0  0
   -9.0831   27.6214   49.1941 C   0  0  0  0  0  0
   -7.8120   27.9177   49.7022 C   0  0  0  0  0  0
   -9.5954   28.1016   48.0050 O   0  0  0  0  0  0
   -8.8555   29.0398   47.2297 C   0  0  0  0  0  0
   -8.7390   30.2075   47.8570 F   0  0  0  0  0  0
   -7.6587   28.5701   46.9100 F   0  0  0  0  0  0
   -9.5271   29.2426   46.0977 F   0  0  0  0  0  0
   -3.3219   29.9592   55.3104 H   0  0  0  0  0  0
   -1.6580   29.6165   55.5140 H   0  0  0  0  0  0
   -3.3212   31.4409   57.2921 H   0  0  0  0  0  0
   -1.9650   31.8449   56.2638 H   0  0  0  0  0  0
   -1.3060   31.6883   58.5134 H   0  0  0  0  0  0
   -2.8976   30.1275   59.3099 H   0  0  0  0  0  0
   -1.2450   29.6932   59.7392 H   0  0  0  0  0  0
   -1.1115   28.0557   57.9628 H   0  0  0  0  0  0
   -2.5302   27.7278   58.8870 H   0  0  0  0  0  0
   -5.5409   25.8566   56.6894 H   0  0  0  0  0  0
   -6.7389   24.8624   54.7937 H   0  0  0  0  0  0
   -7.5432   28.7576   53.2273 H   0  0  0  0  0  0
   -6.3175   29.7699   55.0908 H   0  0  0  0  0  0
   -2.6586   25.8106   57.5431 H   0  0  0  0  0  0
   -3.1720   24.4505   55.7810 H   0  0  0  0  0  0
   -6.4218   27.6611   51.3065 H   0  0  0  0  0  0
  -10.9006   26.5700   49.5338 H   0  0  0  0  0  0
  -10.1634   25.6020   51.6852 H   0  0  0  0  0  0
   -7.1390   28.5701   49.1738 H   0  0  0  0  0  0
  1  7  1  0  0  0
  1  2  1  0  0  0
  1 17  1  0  0  0
  1  6  1  0  0  0
  2  3  1  0  0  0
  2 32  1  0  0  0
  2 33  1  0  0  0
  3  4  1  0  0  0
  3 34  1  0  0  0
  3 35  1  0  0  0
  4  5  1  0  0  0
  4 36  1  0  0  0
  5  6  1  0  0  0
  5 37  1  0  0  0
  5 38  1  0  0  0
  6 39  1  0  0  0
  6 40  1  0  0  0
  7 10  1  0  0  0
  7  8  2  0  0  0
  7  9  2  0  0  0
 10 11  2  0  0  0
 10 15  1  0  0  0
 11 12  1  0  0  0
 11 41  1  0  0  0
 12 13  2  0  0  0
 12 42  1  0  0  0
 13 16  1  0  0  0
 13 14  1  0  0  0
 14 15  2  0  0  0
 14 43  1  0  0  0
 15 44  1  0  0  0
 16 21  1  0  0  0
 17 18  2  0  0  0
 17 19  1  0  0  0
 19 20  1  0  0  0
 19 45  1  0  0  0
 20 46  1  0  0  0
 21 22  2  0  0  0
 21 24  1  0  0  0
 22 26  1  0  0  0
 22 47  1  0  0  0
 23 25  1  0  0  0
 23 24  2  0  0  0
 23 48  1  0  0  0
 24 49  1  0  0  0
 25 26  2  0  0  0
 25 27  1  0  0  0
 26 50  1  0  0  0
 27 28  1  0  0  0
 28 29  1  0  0  0
 28 30  1  0  0  0
 28 31  1  0  0  0
M  END
> <s_m_entry_id>
64213

> <s_m_entry_name>
dock_pv.163

> <s_m_Source_Path>
/home/csk/Desktop/cluster/DUD-E-result/mmp13

> <s_m_Source_File>
dock_pv.maegz

> <i_m_Source_File_Index>
163

> <chembl_id>
CHEMBL1801429

> <chembl_pref_name>
None

> <i_lp_mmshare_version>
53161

> <i_f3d_flags>
0

> <r_lp_tautomer_probability>
1

> <s_lp_Force_Field>
OPLS_2005

> <r_lp_Energy>
29.13675

> <b_lp_Chiralities_Consistent>
1

> <s_lp_Variant>
CHEMBL280_lig1716-1

> <s_i_glide_gridfile>
glide-grid_830c

> <i_i_glide_lignum>
2467

> <i_i_glide_rotatable_bonds>
9

> <r_i_docking_score>
-7.34710792619075

> <r_i_glide_ligand_efficiency>
-0.237003481490024

> <r_i_glide_ligand_efficiency_sa>
-0.744518150449942

> <r_i_glide_ligand_efficiency_ln>
-1.65699799917304

> <r_i_glide_gscore>
-7.34710792619075

> <r_i_glide_lipo>
-2.9115928454267

> <r_i_glide_hbond>
-0.033865154621871

> <r_i_glide_metal>
0

> <r_i_glide_rewards>
-0.269765449043266

> <r_i_glide_evdw>
-42.3903350830078

> <r_i_glide_ecoul>
-16.375057220459

> <r_i_glide_erotb>
0.664641472067551

> <r_i_glide_esite>
-0.220750611947227

> <r_i_glide_emodel>
-78.162437605243

> <r_i_glide_energy>
-58.7653923034668

> <r_i_glide_einternal>
20.5893611907959

> <i_i_glide_confnum>
18

> <i_i_glide_posenum>
191

> <r_i_glide_eff_state_penalty>
0

> <s_user_duplicate_titles>
CHEMBL280_lig1716

> <s_m_subgroup_title>
dock_pv

> <s_m_subgroupid>
dock_pv

> <b_m_subgroup_collapsed>
1

$$$$
CHEMBL280_lig893
                    3D
 Schrodinger Suite 2021-1.
 54 56  0  0  1  0            999 V2000
   -3.6107   28.8826   57.2368 C   0  0  1  0  0  0
   -3.1420   30.2271   56.6362 C   0  0  0  0  0  0
   -4.8406   28.9532   58.1980 C   0  0  0  0  0  0
   -5.1398   30.1680   58.6939 N   0  0  0  0  0  0
   -4.6984   31.4059   58.4105 C   0  0  0  0  0  0
   -3.6402   31.5354   57.2848 C   0  0  2  0  0  0
   -3.8503   27.9080   56.1991 O   0  0  0  0  0  0
   -2.3339   30.2457   55.7099 O   0  0  0  0  0  0
   -5.5192   27.9748   58.5099 O   0  0  0  0  0  0
   -5.1283   32.3636   59.0503 O   0  0  0  0  0  0
   -2.3841   28.2594   57.9930 C   0  0  0  0  0  0
   -4.1928   32.4073   56.2433 N   0  0  0  0  0  0
   -8.3709   26.9091   53.1378 O   0  0  0  0  0  0
   -5.0148   27.7966   55.4532 C   0  0  0  0  0  0
   -7.2734   27.2338   53.8987 C   0  0  0  0  0  0
   -8.3384   26.9911   51.7579 C   0  0  0  0  0  0
   -8.6250   27.3898   49.0037 C   0  0  0  0  0  0
   -5.9749   28.7938   55.2266 C   0  0  0  0  0  0
   -5.2128   26.5400   54.9099 C   0  0  0  0  0  0
   -7.0997   28.5122   54.4412 C   0  0  0  0  0  0
   -9.3660   26.3616   51.0524 C   0  0  0  0  0  0
   -7.3976   27.7536   51.0530 C   0  0  0  0  0  0
   -6.3387   26.2427   54.1550 C   0  0  0  0  0  0
   -7.5391   27.9406   49.6806 C   0  0  0  0  0  0
   -9.5187   26.5654   49.6839 C   0  0  0  0  0  0
   -1.2336   26.1688   58.6666 O   0  0  0  0  0  0
   -2.5075   26.7901   58.4749 C   0  0  0  0  0  0
   -8.8467   27.7123   47.5363 C   0  0  0  0  0  0
   -0.3792   26.6947   59.6816 C   0  0  0  0  0  0
   -0.9017   26.4395   61.1031 C   0  0  0  0  0  0
   -5.8856   30.1699   59.3774 H   0  0  0  0  0  0
   -2.7731   32.0209   57.7358 H   0  0  0  0  0  0
   -2.1175   28.8846   58.8465 H   0  0  0  0  0  0
   -1.5107   28.2862   57.3369 H   0  0  0  0  0  0
   -3.5863   33.1951   56.0616 H   0  0  0  0  0  0
   -4.3010   31.9038   55.3647 H   0  0  0  0  0  0
   -5.8499   29.7864   55.6311 H   0  0  0  0  0  0
   -4.4881   25.7700   55.1099 H   0  0  0  0  0  0
   -7.8351   29.2796   54.2544 H   0  0  0  0  0  0
  -10.0911   25.7645   51.5843 H   0  0  0  0  0  0
   -6.5851   28.2513   51.5611 H   0  0  0  0  0  0
   -6.4803   25.2461   53.7631 H   0  0  0  0  0  0
   -6.8326   28.5688   49.1570 H   0  0  0  0  0  0
  -10.3477   26.1124   49.1619 H   0  0  0  0  0  0
   -3.1258   26.7063   59.3690 H   0  0  0  0  0  0
   -3.0072   26.1928   57.7113 H   0  0  0  0  0  0
   -9.1386   26.8229   46.9771 H   0  0  0  0  0  0
   -9.6503   28.4425   47.4320 H   0  0  0  0  0  0
   -7.9471   28.1180   47.0690 H   0  0  0  0  0  0
   -0.1909   27.7569   59.5237 H   0  0  0  0  0  0
    0.5882   26.2034   59.5737 H   0  0  0  0  0  0
   -0.2138   26.8493   61.8433 H   0  0  0  0  0  0
   -1.8680   26.9114   61.2625 H   0  0  0  0  0  0
   -1.0068   25.3749   61.3104 H   0  0  0  0  0  0
  1  2  1  0  0  0
  1  3  1  0  0  0
  1  7  1  0  0  0
  1 11  1  0  0  0
  2  6  1  0  0  0
  2  8  2  0  0  0
  3  4  1  0  0  0
  3  9  2  0  0  0
  4  5  1  0  0  0
  4 31  1  0  0  0
  5 10  2  0  0  0
  5  6  1  0  0  0
  6 12  1  0  0  0
  6 32  1  0  0  0
  7 14  1  0  0  0
 11 27  1  0  0  0
 11 33  1  0  0  0
 11 34  1  0  0  0
 12 35  1  0  0  0
 12 36  1  0  0  0
 13 15  1  0  0  0
 13 16  1  0  0  0
 14 18  2  0  0  0
 14 19  1  0  0  0
 15 23  1  0  0  0
 15 20  2  0  0  0
 16 21  2  0  0  0
 16 22  1  0  0  0
 17 24  1  0  0  0
 17 28  1  0  0  0
 17 25  2  0  0  0
 18 20  1  0  0  0
 18 37  1  0  0  0
 19 23  2  0  0  0
 19 38  1  0  0  0
 20 39  1  0  0  0
 21 25  1  0  0  0
 21 40  1  0  0  0
 22 24  2  0  0  0
 22 41  1  0  0  0
 23 42  1  0  0  0
 24 43  1  0  0  0
 25 44  1  0  0  0
 26 27  1  0  0  0
 26 29  1  0  0  0
 27 45  1  0  0  0
 27 46  1  0  0  0
 28 47  1  0  0  0
 28 48  1  0  0  0
 28 49  1  0  0  0
 29 30  1  0  0  0
 29 50  1  0  0  0
 29 51  1  0  0  0
 30 52  1  0  0  0
 30 53  1  0  0  0
 30 54  1  0  0  0
M  END
> <s_m_entry_id>
64214

> <s_m_entry_name>
dock_pv.164

> <s_m_Source_Path>
/home/csk/Desktop/cluster/DUD-E-result/mmp13

> <s_m_Source_File>
dock_pv.maegz

> <i_m_Source_File_Index>
164

> <chembl_id>
CHEMBL369524

> <chembl_pref_name>
None

> <i_lp_mmshare_version>
53161

> <i_f3d_flags>
0

> <r_lp_tautomer_probability>
1

> <s_lp_Force_Field>
OPLS_2005

> <r_lp_Energy>
32.350515

> <b_lp_Chiralities_Consistent>
1

> <s_lp_Variant>
CHEMBL280_lig893-4

> <s_i_glide_gridfile>
glide-grid_830c

> <i_i_glide_lignum>
1464

> <i_i_glide_rotatable_bonds>
8

> <r_i_docking_score>
-7.34174499429515

> <r_i_glide_ligand_efficiency>
-0.244724833143172

> <r_i_glide_ligand_efficiency_sa>
-0.760416955694488

> <r_i_glide_ligand_efficiency_ln>
-1.66812445742265

> <r_i_glide_gscore>
-7.34174499429515

> <r_i_glide_lipo>
-2.9927701157911

> <r_i_glide_hbond>
-0.864

> <r_i_glide_metal>
0

> <r_i_glide_rewards>
-0.602102394018536

> <r_i_glide_evdw>
-43.7414932250977

> <r_i_glide_ecoul>
-9.91928672790527

> <r_i_glide_erotb>
0.811462363898242

> <r_i_glide_esite>
-0.0193671779430878

> <r_i_glide_emodel>
-60.0372985427386

> <r_i_glide_energy>
-53.6607799530029

> <r_i_glide_einternal>
12.900092124939

> <i_i_glide_confnum>
9

> <i_i_glide_posenum>
92

> <r_i_glide_eff_state_penalty>
0

> <s_user_duplicate_titles>
CHEMBL280_lig893

> <s_m_subgroup_title>
dock_pv

> <s_m_subgroupid>
dock_pv

> <b_m_subgroup_collapsed>
1

$$$$
CHEMBL280_lig1740
                    3D
 Schrodinger Suite 2021-1.
 49 51  0  0  1  0            999 V2000
   -3.0283   28.4974   56.8954 C   0  0  0  0  0  0
   -2.6857   29.7751   56.0645 C   0  0  0  0  0  0
   -2.4833   31.0580   56.8904 C   0  0  0  0  0  0
   -1.5112   30.8067   57.8962 O   0  0  0  0  0  0
   -1.9391   29.8372   58.8424 C   0  0  0  0  0  0
   -2.1122   28.4603   58.1641 C   0  0  0  0  0  0
   -4.8982   28.4973   57.4099 S   0  0  0  0  0  0
   -5.0852   27.5421   58.5098 O   0  0  0  0  0  0
   -5.3515   29.8811   57.5805 O   0  0  0  0  0  0
   -5.8258   27.8306   56.0166 C   0  0  0  0  0  0
   -6.3959   28.6637   55.0493 C   0  0  0  0  0  0
   -7.0977   28.1048   53.9775 C   0  0  0  0  0  0
   -7.2248   26.7125   53.8612 C   0  0  0  0  0  0
   -6.6599   25.9034   54.8379 C   0  0  0  0  0  0
   -5.9782   26.4500   55.9169 C   0  0  0  0  0  0
   -7.9211   26.0459   52.8692 O   0  0  0  0  0  0
   -2.7530   27.2603   55.9913 C   0  0  0  0  0  0
   -2.7391   27.3702   54.7602 O   0  0  0  0  0  0
   -2.5649   26.0621   56.5654 N   0  0  0  0  0  0
   -2.3390   24.9700   55.7106 O   0  0  0  0  0  0
   -8.2708   26.5967   51.6564 C   0  0  0  0  0  0
   -9.5083   26.2509   51.1157 C   0  0  0  0  0  0
   -9.9208   26.7842   49.8991 C   0  0  0  0  0  0
   -9.0824   27.6227   49.1768 C   0  0  0  0  0  0
   -7.8150   27.9205   49.6928 C   0  0  0  0  0  0
   -7.4109   27.4145   50.9234 C   0  0  0  0  0  0
   -9.5855   28.0979   47.9817 O   0  0  0  0  0  0
   -8.8399   29.0354   47.2107 C   0  0  0  0  0  0
   -8.7385   30.2072   47.8331 F   0  0  0  0  0  0
   -7.6361   28.5703   46.9105 F   0  0  0  0  0  0
   -9.4972   29.2282   46.0687 F   0  0  0  0  0  0
   -3.4519   29.9223   55.3106 H   0  0  0  0  0  0
   -1.7590   29.6341   55.5029 H   0  0  0  0  0  0
   -3.4127   31.4217   57.3292 H   0  0  0  0  0  0
   -2.1211   31.8614   56.2479 H   0  0  0  0  0  0
   -2.8714   30.1621   59.3089 H   0  0  0  0  0  0
   -1.1979   29.7757   59.6394 H   0  0  0  0  0  0
   -1.1123   28.1073   57.9025 H   0  0  0  0  0  0
   -2.4922   27.7478   58.8978 H   0  0  0  0  0  0
   -6.3107   29.7394   55.1301 H   0  0  0  0  0  0
   -7.5384   28.7576   53.2448 H   0  0  0  0  0  0
   -6.7391   24.8332   54.7441 H   0  0  0  0  0  0
   -5.5529   25.7918   56.6623 H   0  0  0  0  0  0
   -2.6620   25.8084   57.5427 H   0  0  0  0  0  0
   -3.1716   24.4498   55.7834 H   0  0  0  0  0  0
  -10.1741   25.6058   51.6635 H   0  0  0  0  0  0
  -10.9005   26.5698   49.5070 H   0  0  0  0  0  0
   -7.1383   28.5677   49.1655 H   0  0  0  0  0  0
   -6.4328   27.6699   51.3045 H   0  0  0  0  0  0
  1  7  1  0  0  0
  1  2  1  0  0  0
  1 17  1  0  0  0
  1  6  1  0  0  0
  2  3  1  0  0  0
  2 32  1  0  0  0
  2 33  1  0  0  0
  3  4  1  0  0  0
  3 34  1  0  0  0
  3 35  1  0  0  0
  4  5  1  0  0  0
  5  6  1  0  0  0
  5 36  1  0  0  0
  5 37  1  0  0  0
  6 38  1  0  0  0
  6 39  1  0  0  0
  7 10  1  0  0  0
  7  8  2  0  0  0
  7  9  2  0  0  0
 10 11  2  0  0  0
 10 15  1  0  0  0
 11 12  1  0  0  0
 11 40  1  0  0  0
 12 13  2  0  0  0
 12 41  1  0  0  0
 13 16  1  0  0  0
 13 14  1  0  0  0
 14 15  2  0  0  0
 14 42  1  0  0  0
 15 43  1  0  0  0
 16 21  1  0  0  0
 17 18  2  0  0  0
 17 19  1  0  0  0
 19 20  1  0  0  0
 19 44  1  0  0  0
 20 45  1  0  0  0
 21 22  2  0  0  0
 21 26  1  0  0  0
 22 23  1  0  0  0
 22 46  1  0  0  0
 23 24  2  0  0  0
 23 47  1  0  0  0
 24 25  1  0  0  0
 24 27  1  0  0  0
 25 26  2  0  0  0
 25 48  1  0  0  0
 26 49  1  0  0  0
 27 28  1  0  0  0
 28 29  1  0  0  0
 28 30  1  0  0  0
 28 31  1  0  0  0
M  END
> <s_m_entry_id>
64215

> <s_m_entry_name>
dock_pv.165

> <s_m_Source_Path>
/home/csk/Desktop/cluster/DUD-E-result/mmp13

> <s_m_Source_File>
dock_pv.maegz

> <i_m_Source_File_Index>
165

> <chembl_id>
CHEMBL1801052

> <chembl_pref_name>
None

> <i_lp_mmshare_version>
53161

> <i_f3d_flags>
0

> <r_lp_tautomer_probability>
1

> <s_lp_Force_Field>
OPLS_2005

> <r_lp_Energy>
23.506064

> <b_lp_Chiralities_Consistent>
1

> <s_lp_Variant>
CHEMBL280_lig1740-1

> <s_i_glide_gridfile>
glide-grid_830c

> <i_i_glide_lignum>
2491

> <i_i_glide_rotatable_bonds>
9

> <r_i_docking_score>
-7.33090748286614

> <r_i_glide_ligand_efficiency>
-0.236480886544069

> <r_i_glide_ligand_efficiency_sa>
-0.74287648079956

> <r_i_glide_ligand_efficiency_ln>
-1.65334430271938

> <r_i_glide_gscore>
-7.33090748286614

> <r_i_glide_lipo>
-2.93559259553113

> <r_i_glide_hbond>
-0.0359145385498479

> <r_i_glide_metal>
0

> <r_i_glide_rewards>
-0.263047109668462

> <r_i_glide_evdw>
-42.1890678405762

> <r_i_glide_ecoul>
-16.1636009216309

> <r_i_glide_erotb>
0.662059618381322

> <r_i_glide_esite>
-0.224419327224582

> <r_i_glide_emodel>
-78.6545773613983

> <r_i_glide_energy>
-58.352668762207

> <r_i_glide_einternal>
20.1241779327393

> <i_i_glide_confnum>
20

> <i_i_glide_posenum>
213

> <r_i_glide_eff_state_penalty>
0

> <s_user_duplicate_titles>
CHEMBL280_lig1740

> <s_m_subgroup_title>
dock_pv

> <s_m_subgroupid>
dock_pv

> <b_m_subgroup_collapsed>
1

$$$$
CHEMBL280_lig1820
                    3D
 Schrodinger Suite 2021-1.
 39 42  0  0  1  0            999 V2000
   -8.3086   28.5665   47.4072 C   0  0  0  0  0  0
   -9.3149   27.6070   47.4395 C   0  0  0  0  0  0
   -9.4651   26.7958   48.5666 C   0  0  0  0  0  0
   -7.4747   28.7170   48.5099 C   0  0  0  0  0  0
   -7.6633   27.9298   49.6535 C   0  0  0  0  0  0
   -8.6572   26.9620   49.6927 C   0  0  0  0  0  0
   -8.8381   26.1655   50.8287 O   0  0  0  0  0  0
   -8.1732   26.4489   52.0324 C   0  0  0  0  0  0
   -7.2433   27.5494   52.0614 C   0  0  0  0  0  0
   -6.9729   28.1700   50.9110 C   0  0  0  0  0  0
   -8.3904   25.7700   53.0143 O   0  0  0  0  0  0
   -6.8036   28.0109   53.3749 C   0  0  0  0  0  0
   -6.4464   27.3462   54.4604 C   0  0  0  0  0  0
   -6.2861   28.2416   55.4721 N   0  0  0  0  0  0
   -6.9051   29.4210   55.1233 C   0  0  0  0  0  0
   -7.1391   29.2110   53.8097 N   0  0  0  0  0  0
   -7.2367   30.8554   55.9155 S   0  0  0  0  0  0
   -5.3663   28.0308   56.5228 C   0  0  0  0  0  0
   -4.2905   27.1791   56.2682 C   0  0  0  0  0  0
   -3.2253   27.0404   57.1531 C   0  0  0  0  0  0
   -3.2382   27.7853   58.3357 C   0  0  0  0  0  0
   -4.3199   28.6242   58.6108 C   0  0  0  0  0  0
   -5.3944   28.7202   57.7391 C   0  0  0  0  0  0
   -2.0666   26.1693   56.7720 C   0  0  0  0  0  0
   -0.9739   26.2106   57.3288 O   0  0  0  0  0  0
   -2.3393   25.3487   55.7101 O   0  0  0  0  0  0
  -10.3400   25.7680   48.5088 O   0  0  0  0  0  0
   -8.1673   29.1872   46.5333 H   0  0  0  0  0  0
   -9.9447   27.4693   46.5727 H   0  0  0  0  0  0
   -6.7261   29.4943   48.5070 H   0  0  0  0  0  0
   -6.3389   29.0327   50.9658 H   0  0  0  0  0  0
   -6.2414   26.2953   54.6130 H   0  0  0  0  0  0
   -7.5993   29.9093   53.2443 H   0  0  0  0  0  0
   -4.2531   26.6684   55.3201 H   0  0  0  0  0  0
   -2.4141   27.7315   59.0336 H   0  0  0  0  0  0
   -4.3378   29.2348   59.4974 H   0  0  0  0  0  0
   -6.2077   29.3727   58.0137 H   0  0  0  0  0  0
   -3.1951   24.9063   55.8717 H   0  0  0  0  0  0
  -10.8126   25.7335   47.6759 H   0  0  0  0  0  0
  1  2  2  0  0  0
  1  4  1  0  0  0
  1 28  1  0  0  0
  2  3  1  0  0  0
  2 29  1  0  0  0
  3  6  2  0  0  0
  3 27  1  0  0  0
  4  5  2  0  0  0
  4 30  1  0  0  0
  5 10  1  0  0  0
  5  6  1  0  0  0
  6  7  1  0  0  0
  7  8  1  0  0  0
  8  9  1  0  0  0
  8 11  2  0  0  0
  9 10  2  0  0  0
  9 12  1  0  0  0
 10 31  1  0  0  0
 12 16  1  0  0  0
 12 13  2  0  0  0
 13 14  1  0  0  0
 13 32  1  0  0  0
 14 15  1  0  0  0
 14 18  1  0  0  0
 15 16  1  0  0  0
 15 17  2  0  0  0
 16 33  1  0  0  0
 18 19  2  0  0  0
 18 23  1  0  0  0
 19 20  1  0  0  0
 19 34  1  0  0  0
 20 21  2  0  0  0
 20 24  1  0  0  0
 21 22  1  0  0  0
 21 35  1  0  0  0
 22 23  2  0  0  0
 22 36  1  0  0  0
 23 37  1  0  0  0
 24 25  2  0  0  0
 24 26  1  0  0  0
 26 38  1  0  0  0
 27 39  1  0  0  0
M  END
> <s_m_entry_id>
64216

> <s_m_entry_name>
dock_pv.166

> <s_m_Source_Path>
/home/csk/Desktop/cluster/DUD-E-result/mmp13

> <s_m_Source_File>
dock_pv.maegz

> <i_m_Source_File_Index>
166

> <chembl_id>
CHEMBL1927206

> <chembl_pref_name>
None

> <i_lp_mmshare_version>
53161

> <i_f3d_flags>
0

> <r_lp_tautomer_probability>
0.999999999999988

> <s_lp_Force_Field>
OPLS_2005

> <r_lp_Energy>
68.162038

> <b_lp_Chiralities_Consistent>
1

> <s_lp_Variant>
CHEMBL280_lig1820-1

> <s_i_glide_gridfile>
glide-grid_830c

> <i_i_glide_lignum>
2573

> <i_i_glide_rotatable_bonds>
5

> <r_i_docking_score>
-7.33090480770878

> <r_i_glide_ligand_efficiency>
-0.271514992878103

> <r_i_glide_ligand_efficiency_sa>
-0.81454497773944

> <r_i_glide_ligand_efficiency_ln>
-1.70651377982317

> <r_i_glide_gscore>
-7.33090480770878

> <r_i_glide_lipo>
-3.51654659439593

> <r_i_glide_hbond>
-0.234793639284125

> <r_i_glide_metal>
0

> <r_i_glide_rewards>
-0.815625136363635

> <r_i_glide_evdw>
-34.0831718444824

> <r_i_glide_ecoul>
-9.08019924163818

> <r_i_glide_erotb>
0.402249040804748

> <r_i_glide_esite>
-0.1

> <r_i_glide_emodel>
-47.9616061291405

> <r_i_glide_energy>
-43.1633710861206

> <r_i_glide_einternal>
14.1102437973022

> <i_i_glide_confnum>
1

> <i_i_glide_posenum>
46

> <r_i_glide_eff_state_penalty>
0

> <s_user_duplicate_titles>
CHEMBL280_lig1820

> <s_m_subgroup_title>
dock_pv

> <s_m_subgroupid>
dock_pv

> <b_m_subgroup_collapsed>
1

$$$$
CHEMBL280_lig1110
                    3D
 Schrodinger Suite 2021-1.
 41 41  0  0  1  0            999 V2000
   -7.3511   26.8346   52.9009 C   0  0  0  0  0  0
   -7.0327   28.1700   53.1801 C   0  0  0  0  0  0
   -6.5572   28.5361   54.4310 C   0  0  0  0  0  0
   -6.3570   27.5670   55.4098 C   0  0  0  0  0  0
   -6.6386   26.2270   55.1426 C   0  0  0  0  0  0
   -7.1390   25.8723   53.8903 C   0  0  0  0  0  0
   -7.8858   26.3899   51.7054 O   0  0  0  0  0  0
   -7.8397   27.2170   50.5398 C   0  0  0  0  0  0
   -8.9208   26.9048   49.5948 C   0  0  0  0  0  0
   -9.8177   26.7273   48.7858 C   0  0  0  0  0  0
  -10.8757   26.5700   47.7789 C   0  0  0  0  0  0
   -5.6752   28.0927   56.9772 S   0  0  0  0  0  0
   -3.8564   28.4322   56.5508 C   0  0  2  0  0  0
   -6.3390   29.3611   57.2938 O   0  0  0  0  0  0
   -5.7384   26.9702   57.9208 O   0  0  0  0  0  0
   -3.2246   27.2907   55.7395 C   0  0  0  0  0  0
   -2.8414   26.2015   56.4255 N   0  0  0  0  0  0
   -3.1390   27.3700   54.5100 O   0  0  0  0  0  0
   -2.3390   25.1091   55.7100 O   0  0  0  0  0  0
   -3.0402   28.8777   57.8143 C   0  0  0  0  0  0
   -3.6522   30.1031   58.5262 C   0  0  0  0  0  0
   -1.5550   29.1794   57.5003 C   0  0  0  0  0  0
   -7.1523   28.9645   52.4638 H   0  0  0  0  0  0
   -6.3323   29.5747   54.6305 H   0  0  0  0  0  0
   -6.4638   25.4635   55.8891 H   0  0  0  0  0  0
   -7.3588   24.8362   53.6810 H   0  0  0  0  0  0
   -6.8822   27.0805   50.0364 H   0  0  0  0  0  0
   -7.9390   28.2816   50.7277 H   0  0  0  0  0  0
  -10.7388   25.6313   47.2435 H   0  0  0  0  0  0
  -10.8329   27.3967   47.0699 H   0  0  0  0  0  0
  -11.8518   26.5700   48.2623 H   0  0  0  0  0  0
   -3.8912   29.2777   55.8616 H   0  0  0  0  0  0
   -2.9990   26.0053   57.4088 H   0  0  0  0  0  0
   -3.0549   24.4472   55.7934 H   0  0  0  0  0  0
   -3.0566   28.0583   58.5360 H   0  0  0  0  0  0
   -3.8361   30.9222   57.8298 H   0  0  0  0  0  0
   -4.5950   29.8611   59.0159 H   0  0  0  0  0  0
   -2.9966   30.4839   59.3100 H   0  0  0  0  0  0
   -1.4596   29.9732   56.7580 H   0  0  0  0  0  0
   -1.0178   29.5005   58.3938 H   0  0  0  0  0  0
   -1.0248   28.3059   57.1215 H   0  0  0  0  0  0
  1  6  1  0  0  0
  1  2  2  0  0  0
  1  7  1  0  0  0
  2  3  1  0  0  0
  2 23  1  0  0  0
  3  4  2  0  0  0
  3 24  1  0  0  0
  4 12  1  0  0  0
  4  5  1  0  0  0
  5  6  2  0  0  0
  5 25  1  0  0  0
  6 26  1  0  0  0
  7  8  1  0  0  0
  8  9  1  0  0  0
  8 27  1  0  0  0
  8 28  1  0  0  0
  9 10  3  0  0  0
 10 11  1  0  0  0
 11 29  1  0  0  0
 11 30  1  0  0  0
 11 31  1  0  0  0
 12 13  1  0  0  0
 12 14  2  0  0  0
 12 15  2  0  0  0
 13 16  1  0  0  0
 13 20  1  0  0  0
 13 32  1  0  0  0
 16 17  1  0  0  0
 16 18  2  0  0  0
 17 19  1  0  0  0
 17 33  1  0  0  0
 19 34  1  0  0  0
 20 21  1  0  0  0
 20 22  1  0  0  0
 20 35  1  0  0  0
 21 36  1  0  0  0
 21 37  1  0  0  0
 21 38  1  0  0  0
 22 39  1  0  0  0
 22 40  1  0  0  0
 22 41  1  0  0  0
M  END
> <s_m_entry_id>
64217

> <s_m_entry_name>
dock_pv.167

> <s_m_Source_Path>
/home/csk/Desktop/cluster/DUD-E-result/mmp13

> <s_m_Source_File>
dock_pv.maegz

> <i_m_Source_File_Index>
167

> <chembl_id>
CHEMBL222594

> <chembl_pref_name>
None

> <i_lp_mmshare_version>
53161

> <i_f3d_flags>
0

> <r_lp_tautomer_probability>
1

> <s_lp_Force_Field>
OPLS_2005

> <r_lp_Energy>
13.337757

> <b_lp_Chiralities_Consistent>
1

> <s_lp_Variant>
CHEMBL280_lig1110-1

> <s_i_glide_gridfile>
glide-grid_830c

> <i_i_glide_lignum>
1790

> <i_i_glide_rotatable_bonds>
9

> <r_i_docking_score>
-7.31606299741596

> <r_i_glide_ligand_efficiency>
-0.332548318064362

> <r_i_glide_ligand_efficiency_sa>
-0.931813465599547

> <r_i_glide_ligand_efficiency_ln>
-1.78831265645025

> <r_i_glide_gscore>
-7.31606299741596

> <r_i_glide_lipo>
-2.98477204289669

> <r_i_glide_hbond>
-0.0455941349626623

> <r_i_glide_metal>
0

> <r_i_glide_rewards>
-1.17960198250383

> <r_i_glide_evdw>
-37.7427978515625

> <r_i_glide_ecoul>
-14.8504972457886

> <r_i_glide_erotb>
1.23906390451402

> <r_i_glide_esite>
-0.230444262120384

> <r_i_glide_emodel>
-78.5242676556771

> <r_i_glide_energy>
-52.5932950973511

> <r_i_glide_einternal>
10.0081176757812

> <i_i_glide_confnum>
104

> <i_i_glide_posenum>
11

> <r_i_glide_eff_state_penalty>
0

> <s_user_duplicate_titles>
CHEMBL280_lig1110,372955

> <s_m_subgroup_title>
dock_pv

> <s_m_subgroupid>
dock_pv

> <b_m_subgroup_collapsed>
1

$$$$
CHEMBL280_lig4
                    3D
 Schrodinger Suite 2021-1.
 35 37  0  0  1  0            999 V2000
   -6.3170   28.1419   52.7904 S   0  0  0  0  0  0
  -10.3393   25.7701   50.9073 O   0  0  0  0  0  0
   -7.1391   28.0604   50.2607 N   0  0  0  0  0  0
   -8.4182   26.7875   51.7688 N   0  0  0  0  0  0
   -9.1287   27.0797   49.4479 C   0  0  0  0  0  0
   -8.0382   27.8470   49.2411 C   0  0  0  0  0  0
   -9.3453   26.4604   50.7636 C   0  0  0  0  0  0
   -7.4185   27.5439   51.5136 C   0  0  0  0  0  0
  -10.0100   27.0400   48.2153 C   0  0  0  0  0  0
   -7.9956   28.4842   47.8744 C   0  0  0  0  0  0
   -9.3093   28.0011   47.2450 C   0  0  0  0  0  0
   -6.3017   27.7373   55.4904 C   0  0  0  0  0  0
   -7.2418   27.7310   54.3032 C   0  0  0  0  0  0
   -5.4838   26.6302   55.7071 C   0  0  0  0  0  0
   -6.2322   28.8430   56.3414 C   0  0  0  0  0  0
   -4.5057   27.7361   57.6125 C   0  0  0  0  0  0
   -4.5783   26.6349   56.7593 C   0  0  0  0  0  0
   -5.3354   28.8402   57.4072 C   0  0  0  0  0  0
   -3.4992   27.7394   58.7453 C   0  0  0  0  0  0
   -6.2728   28.5721   50.1092 H   0  0  0  0  0  0
  -10.0700   26.0261   47.8184 H   0  0  0  0  0  0
  -11.0276   27.3647   48.4363 H   0  0  0  0  0  0
   -7.9612   29.5716   47.9529 H   0  0  0  0  0  0
   -7.1220   28.1605   47.3108 H   0  0  0  0  0  0
   -9.9546   28.8553   47.0340 H   0  0  0  0  0  0
   -9.1337   27.5179   46.2831 H   0  0  0  0  0  0
   -7.7087   26.7472   54.2323 H   0  0  0  0  0  0
   -8.0438   28.4556   54.4400 H   0  0  0  0  0  0
   -5.5405   25.7707   55.0551 H   0  0  0  0  0  0
   -6.8618   29.7055   56.1756 H   0  0  0  0  0  0
   -3.9459   25.7711   56.9098 H   0  0  0  0  0  0
   -5.2806   29.6988   58.0613 H   0  0  0  0  0  0
   -3.9531   27.3698   59.6643 H   0  0  0  0  0  0
   -2.6374   27.1141   58.5084 H   0  0  0  0  0  0
   -3.1152   28.7465   58.9098 H   0  0  0  0  0  0
  1 13  1  0  0  0
  1  8  1  0  0  0
  2  7  2  0  0  0
  3  6  1  0  0  0
  3  8  1  0  0  0
  3 20  1  0  0  0
  4  8  2  0  0  0
  4  7  1  0  0  0
  5  7  1  0  0  0
  5  9  1  0  0  0
  5  6  2  0  0  0
  6 10  1  0  0  0
  9 11  1  0  0  0
  9 21  1  0  0  0
  9 22  1  0  0  0
 10 11  1  0  0  0
 10 23  1  0  0  0
 10 24  1  0  0  0
 11 25  1  0  0  0
 11 26  1  0  0  0
 12 13  1  0  0  0
 12 14  2  0  0  0
 12 15  1  0  0  0
 13 27  1  0  0  0
 13 28  1  0  0  0
 14 17  1  0  0  0
 14 29  1  0  0  0
 15 18  2  0  0  0
 15 30  1  0  0  0
 16 17  2  0  0  0
 16 18  1  0  0  0
 16 19  1  0  0  0
 17 31  1  0  0  0
 18 32  1  0  0  0
 19 33  1  0  0  0
 19 34  1  0  0  0
 19 35  1  0  0  0
M  END
> <s_m_entry_id>
64218

> <s_m_entry_name>
dock_pv.168

> <s_m_Source_Path>
/home/csk/Desktop/cluster/DUD-E-result/mmp13

> <s_m_Source_File>
dock_pv.maegz

> <i_m_Source_File_Index>
168

> <chembl_id>
CHEMBL1371684

> <chembl_pref_name>
None

> <i_lp_mmshare_version>
53161

> <i_f3d_flags>
0

> <r_lp_tautomer_probability>
0.273662037148395

> <s_lp_Force_Field>
OPLS_2005

> <r_lp_Energy>
31.681033

> <b_lp_Chiralities_Consistent>
1

> <s_lp_Variant>
CHEMBL280_lig4-2

> <s_i_glide_gridfile>
glide-grid_830c

> <i_i_glide_lignum>
11

> <i_i_glide_rotatable_bonds>
3

> <r_i_docking_score>
-7.31502859231993

> <r_i_glide_ligand_efficiency>
-0.385001504858944

> <r_i_glide_ligand_efficiency_sa>
-1.02733864931772

> <r_i_glide_ligand_efficiency_ln>
-1.85451686056144

> <r_i_glide_gscore>
-7.31502859231993

> <r_i_glide_lipo>
-3.22020179903068

> <r_i_glide_hbond>
-0.32

> <r_i_glide_metal>
0

> <r_i_glide_rewards>
-1.55204768181818

> <r_i_glide_evdw>
-36.4132347106934

> <r_i_glide_ecoul>
-7.478844165802

> <r_i_glide_erotb>
0.72470872186974

> <r_i_glide_esite>
-0.0049994729358429

> <r_i_glide_emodel>
-64.7433402857381

> <r_i_glide_energy>
-43.8920788764954

> <r_i_glide_einternal>
1.64814305305481

> <i_i_glide_confnum>
8

> <i_i_glide_posenum>
169

> <r_i_glide_eff_state_penalty>
0

> <s_user_duplicate_titles>
CHEMBL280_lig4,CHEMBL280_lig4

> <s_m_subgroup_title>
dock_pv

> <s_m_subgroupid>
dock_pv

> <b_m_subgroup_collapsed>
1

$$$$
CHEMBL280_lig1106
                    3D
 Schrodinger Suite 2021-1.
 42 43  0  0  1  0            999 V2000
   -6.9758   27.1650   53.5274 C   0  0  0  0  0  0
   -6.6896   28.5084   53.8153 C   0  0  0  0  0  0
   -6.1680   28.8680   55.0531 C   0  0  0  0  0  0
   -5.9017   27.8889   56.0034 C   0  0  0  0  0  0
   -6.2000   26.5518   55.7369 C   0  0  0  0  0  0
   -6.7390   26.1980   54.5037 C   0  0  0  0  0  0
   -7.4935   26.7088   52.3311 O   0  0  0  0  0  0
   -7.4139   27.5224   51.1624 C   0  0  0  0  0  0
   -8.3758   27.0952   50.1386 C   0  0  0  0  0  0
   -9.2002   26.7962   49.2900 C   0  0  0  0  0  0
  -10.1987   26.4798   48.2609 C   0  0  0  0  0  0
   -5.1472   28.3519   57.5601 S   0  0  0  0  0  0
   -3.2753   28.1814   57.3189 C   0  0  1  0  0  0
   -5.4896   29.7552   57.8122 O   0  0  0  0  0  0
   -5.5390   27.3136   58.5127 O   0  0  0  0  0  0
   -2.8518   27.1869   56.2267 C   0  0  0  0  0  0
   -2.6643   25.9333   56.6562 N   0  0  0  0  0  0
   -2.7390   27.5038   55.0356 O   0  0  0  0  0  0
   -2.3390   24.9700   55.7095 O   0  0  0  0  0  0
   -2.5393   29.5286   57.2968 C   0  0  0  0  0  0
   -1.8330   29.9494   58.4304 C   0  0  0  0  0  0
   -1.1822   31.1803   58.4398 C   0  0  0  0  0  0
   -1.2411   31.9995   57.3154 C   0  0  0  0  0  0
   -1.9438   31.5957   56.1834 C   0  0  0  0  0  0
   -2.5870   30.3612   56.1779 C   0  0  0  0  0  0
   -6.8479   29.2996   53.1038 H   0  0  0  0  0  0
   -5.9390   29.9043   55.2600 H   0  0  0  0  0  0
   -5.9942   25.7804   56.4670 H   0  0  0  0  0  0
   -6.9461   25.1599   54.2896 H   0  0  0  0  0  0
   -6.4068   27.4771   50.7468 H   0  0  0  0  0  0
   -7.6288   28.5700   51.3428 H   0  0  0  0  0  0
   -9.8559   26.8426   47.2919 H   0  0  0  0  0  0
  -11.1429   26.9629   48.5084 H   0  0  0  0  0  0
  -10.3396   25.4002   48.2100 H   0  0  0  0  0  0
   -3.0020   27.7225   58.2697 H   0  0  0  0  0  0
   -2.8533   25.5518   57.5789 H   0  0  0  0  0  0
   -3.1218   24.3811   55.7105 H   0  0  0  0  0  0
   -1.7831   29.3263   59.3100 H   0  0  0  0  0  0
   -0.6391   31.5005   59.3170 H   0  0  0  0  0  0
   -0.7424   32.9576   57.3232 H   0  0  0  0  0  0
   -1.9974   32.2376   55.3163 H   0  0  0  0  0  0
   -3.1390   30.0523   55.3100 H   0  0  0  0  0  0
  1  6  1  0  0  0
  1  2  2  0  0  0
  1  7  1  0  0  0
  2  3  1  0  0  0
  2 26  1  0  0  0
  3  4  2  0  0  0
  3 27  1  0  0  0
  4  5  1  0  0  0
  4 12  1  0  0  0
  5  6  2  0  0  0
  5 28  1  0  0  0
  6 29  1  0  0  0
  7  8  1  0  0  0
  8  9  1  0  0  0
  8 30  1  0  0  0
  8 31  1  0  0  0
  9 10  3  0  0  0
 10 11  1  0  0  0
 11 32  1  0  0  0
 11 33  1  0  0  0
 11 34  1  0  0  0
 12 13  1  0  0  0
 12 14  2  0  0  0
 12 15  2  0  0  0
 13 16  1  0  0  0
 13 20  1  0  0  0
 13 35  1  0  0  0
 16 17  1  0  0  0
 16 18  2  0  0  0
 17 19  1  0  0  0
 17 36  1  0  0  0
 19 37  1  0  0  0
 20 21  2  0  0  0
 20 25  1  0  0  0
 21 22  1  0  0  0
 21 38  1  0  0  0
 22 23  2  0  0  0
 22 39  1  0  0  0
 23 24  1  0  0  0
 23 40  1  0  0  0
 24 25  2  0  0  0
 24 41  1  0  0  0
 25 42  1  0  0  0
M  END
> <s_m_entry_id>
64219

> <s_m_entry_name>
dock_pv.169

> <s_m_Source_Path>
/home/csk/Desktop/cluster/DUD-E-result/mmp13

> <s_m_Source_File>
dock_pv.maegz

> <i_m_Source_File_Index>
169

> <chembl_id>
CHEMBL222309

> <chembl_pref_name>
None

> <i_lp_mmshare_version>
53161

> <i_f3d_flags>
0

> <r_lp_tautomer_probability>
1

> <s_lp_Force_Field>
OPLS_2005

> <r_lp_Energy>
21.398363

> <b_lp_Chiralities_Consistent>
1

> <s_lp_Variant>
CHEMBL280_lig1106-2

> <s_i_glide_gridfile>
glide-grid_830c

> <i_i_glide_lignum>
1783

> <i_i_glide_rotatable_bonds>
9

> <r_i_docking_score>
-7.31270184864407

> <r_i_glide_ligand_efficiency>
-0.292508073945763

> <r_i_glide_ligand_efficiency_sa>
-0.855298795870191

> <r_i_glide_ligand_efficiency_ln>
-1.73332948211921

> <r_i_glide_gscore>
-7.31270184864407

> <r_i_glide_lipo>
-2.57045555125007

> <r_i_glide_hbond>
-0.245356452133424

> <r_i_glide_metal>
0

> <r_i_glide_rewards>
-0.938728599727805

> <r_i_glide_evdw>
-36.0559043884277

> <r_i_glide_ecoul>
-17.7018051147461

> <r_i_glide_erotb>
1.18711520033399

> <r_i_glide_esite>
-0.287210459233454

> <r_i_glide_emodel>
-78.1487794483077

> <r_i_glide_energy>
-53.7577095031738

> <r_i_glide_einternal>
8.25888633728027

> <i_i_glide_confnum>
153

> <i_i_glide_posenum>
299

> <r_i_glide_eff_state_penalty>
0

> <s_user_duplicate_titles>
CHEMBL280_lig1106,372969

> <s_m_subgroup_title>
dock_pv

> <s_m_subgroupid>
dock_pv

> <b_m_subgroup_collapsed>
1

$$$$
CHEMBL280_lig1506
                    3D
 Schrodinger Suite 2021-1.
 39 40  0  0  1  0            999 V2000
   -8.6254   28.1919   47.2236 C   0  0  0  0  0  0
   -9.8929   27.6564   46.9990 C   0  0  0  0  0  0
  -10.5470   26.9700   48.0181 C   0  0  0  0  0  0
   -9.9390   26.8258   49.2597 C   0  0  0  0  0  0
   -8.6552   27.3356   49.5015 C   0  0  0  0  0  0
   -8.0096   28.0212   48.4612 C   0  0  0  0  0  0
   -8.0249   27.1922   50.8530 C   0  0  0  0  0  0
   -7.0840   28.1199   51.3100 C   0  0  0  0  0  0
   -6.6092   28.0928   52.6137 C   0  0  0  0  0  0
   -7.0569   27.1132   53.4985 C   0  0  0  0  0  0
   -7.9390   26.1396   53.0392 C   0  0  0  0  0  0
   -8.4076   26.1700   51.7288 C   0  0  0  0  0  0
   -6.7033   27.1318   54.9811 C   0  0  0  0  0  0
   -5.3976   27.8453   55.3937 C   0  0  0  0  0  0
   -4.1327   26.9653   55.2396 C   0  0  2  0  0  0
   -3.6297   26.4947   56.6285 C   0  0  0  0  0  0
   -3.1394   27.6699   54.5100 O   0  0  0  0  0  0
   -2.2493   25.8434   56.6783 C   0  0  0  0  0  0
   -1.9390   25.3700   57.9132 O   0  0  0  0  0  0
   -1.5052   25.7700   55.7100 O   0  0  0  0  0  0
  -10.5428   27.8082   45.7060 C   0  0  0  0  0  0
  -11.0651   27.9247   44.6802 N   0  0  0  0  0  0
   -8.0968   28.7242   46.4431 H   0  0  0  0  0  0
  -11.5404   26.5700   47.8699 H   0  0  0  0  0  0
  -10.4913   26.3200   50.0363 H   0  0  0  0  0  0
   -7.0166   28.4255   48.5940 H   0  0  0  0  0  0
   -6.7390   28.9199   50.6744 H   0  0  0  0  0  0
   -5.9390   28.8782   52.9182 H   0  0  0  0  0  0
   -8.2900   25.3700   53.7098 H   0  0  0  0  0  0
   -9.0988   25.4035   51.4115 H   0  0  0  0  0  0
   -7.5390   27.6346   55.4568 H   0  0  0  0  0  0
   -6.7019   26.1142   55.3784 H   0  0  0  0  0  0
   -5.2948   28.8093   54.8982 H   0  0  0  0  0  0
   -5.5137   28.1378   56.4383 H   0  0  0  0  0  0
   -4.3739   26.0841   54.6417 H   0  0  0  0  0  0
   -3.6120   27.3266   57.3331 H   0  0  0  0  0  0
   -4.3592   25.7701   56.9885 H   0  0  0  0  0  0
   -3.1062   28.5728   54.8464 H   0  0  0  0  0  0
   -2.7213   25.3227   58.4789 H   0  0  0  0  0  0
  1  6  1  0  0  0
  1  2  2  0  0  0
  1 23  1  0  0  0
  2  3  1  0  0  0
  2 21  1  0  0  0
  3  4  2  0  0  0
  3 24  1  0  0  0
  4  5  1  0  0  0
  4 25  1  0  0  0
  5  6  2  0  0  0
  5  7  1  0  0  0
  6 26  1  0  0  0
  7 12  1  0  0  0
  7  8  2  0  0  0
  8  9  1  0  0  0
  8 27  1  0  0  0
  9 10  2  0  0  0
  9 28  1  0  0  0
 10 13  1  0  0  0
 10 11  1  0  0  0
 11 12  2  0  0  0
 11 29  1  0  0  0
 12 30  1  0  0  0
 13 14  1  0  0  0
 13 31  1  0  0  0
 13 32  1  0  0  0
 14 15  1  0  0  0
 14 33  1  0  0  0
 14 34  1  0  0  0
 15 16  1  0  0  0
 15 17  1  0  0  0
 15 35  1  0  0  0
 16 18  1  0  0  0
 16 36  1  0  0  0
 16 37  1  0  0  0
 17 38  1  0  0  0
 18 19  1  0  0  0
 18 20  2  0  0  0
 19 39  1  0  0  0
 21 22  3  0  0  0
M  END
> <s_m_entry_id>
64220

> <s_m_entry_name>
dock_pv.170

> <s_m_Source_Path>
/home/csk/Desktop/cluster/DUD-E-result/mmp13

> <s_m_Source_File>
dock_pv.maegz

> <i_m_Source_File_Index>
170

> <chembl_id>
CHEMBL583588

> <chembl_pref_name>
None

> <i_lp_mmshare_version>
53161

> <i_f3d_flags>
0

> <r_lp_tautomer_probability>
1

> <s_lp_Force_Field>
OPLS_2005

> <r_lp_Energy>
15.946911

> <b_lp_Chiralities_Consistent>
1

> <s_lp_Variant>
CHEMBL280_lig1506-1

> <s_i_glide_gridfile>
glide-grid_830c

> <i_i_glide_lignum>
2239

> <i_i_glide_rotatable_bonds>
8

> <r_i_docking_score>
-7.30612023371468

> <r_i_glide_ligand_efficiency>
-0.332096374259758

> <r_i_glide_ligand_efficiency_sa>
-0.930547101285107

> <r_i_glide_ligand_efficiency_ln>
-1.78588228233054

> <r_i_glide_gscore>
-7.30612023371468

> <r_i_glide_lipo>
-3.74320347991468

> <r_i_glide_hbond>
-0.045433255262848

> <r_i_glide_metal>
0

> <r_i_glide_rewards>
-1.44826187460925

> <r_i_glide_evdw>
-37.4708290100098

> <r_i_glide_ecoul>
-17.4252262115479

> <r_i_glide_erotb>
2.51810375830477

> <r_i_glide_esite>
-0.1

> <r_i_glide_emodel>
-82.7068327667613

> <r_i_glide_energy>
-54.8960552215576

> <r_i_glide_einternal>
10.4159145355225

> <i_i_glide_confnum>
75

> <i_i_glide_posenum>
322

> <r_i_glide_eff_state_penalty>
0

> <s_user_duplicate_titles>
CHEMBL280_lig1506

> <s_m_subgroup_title>
dock_pv

> <s_m_subgroupid>
dock_pv

> <b_m_subgroup_collapsed>
1

$$$$
CHEMBL280_lig938
                    3D
 Schrodinger Suite 2021-1.
 49 51  0  0  1  0            999 V2000
   -5.9588   28.0591   56.4026 S   0  0  0  0  0  0
   -4.1798   28.3810   55.7579 C   0  0  1  0  0  0
   -3.2524   29.1688   56.7437 C   0  0  2  0  0  0
   -3.9539   30.4175   57.3647 C   0  0  0  0  0  0
   -6.7490   27.3275   54.9681 C   0  0  0  0  0  0
   -9.7493   27.3335   48.3807 C   0  0  0  0  0  0
   -5.9389   27.0560   57.4729 O   0  0  0  0  0  0
   -6.6396   29.3420   56.6106 O   0  0  0  0  0  0
   -8.9082   27.1110   49.4943 C   0  0  0  0  0  0
   -4.1360   30.4820   58.5842 O   0  0  0  0  0  0
   -9.3516   28.1762   47.3335 C   0  0  0  0  0  0
   -4.3674   31.3812   56.5105 N   0  0  0  0  0  0
   -2.1582   29.6836   55.9858 O   0  0  0  0  0  0
   -3.4961   27.0674   55.3152 C   0  0  0  0  0  0
   -9.3747   26.2539   50.6836 C   0  0  0  0  0  0
   -2.6945   28.2158   57.8459 C   0  0  0  0  0  0
   -2.0731   27.0643   57.2611 O   0  0  0  0  0  0
   -6.7395   25.9475   54.7776 C   0  0  0  0  0  0
   -7.3407   28.1546   54.0120 C   0  0  0  0  0  0
   -8.3386   25.6500   51.4704 O   0  0  0  0  0  0
  -11.2868   26.5699   48.2584 Cl  0  0  0  0  0  0
   -7.8575   26.2245   52.6374 C   0  0  0  0  0  0
  -10.3675   28.4755   45.9630 Cl  0  0  0  0  0  0
   -7.2539   25.4115   53.6003 C   0  0  0  0  0  0
   -7.9043   27.5917   52.8706 C   0  0  0  0  0  0
   -5.0514   32.4879   57.0340 O   0  0  0  0  0  0
   -7.6601   27.7378   49.5131 C   0  0  0  0  0  0
   -2.9668   26.2519   56.5108 C   0  0  0  0  0  0
   -7.2810   28.5771   48.4704 C   0  0  0  0  0  0
   -8.1154   28.8024   47.3866 C   0  0  0  0  0  0
   -4.4158   28.9698   54.8794 H   0  0  0  0  0  0
   -4.3466   31.3694   55.4944 H   0  0  0  0  0  0
   -2.4555   30.4507   55.4903 H   0  0  0  0  0  0
   -2.6491   27.3702   54.7012 H   0  0  0  0  0  0
   -4.1491   26.4640   54.6870 H   0  0  0  0  0  0
   -9.9533   25.4136   50.3025 H   0  0  0  0  0  0
  -10.0489   26.8324   51.3016 H   0  0  0  0  0  0
   -3.4847   27.8906   58.5268 H   0  0  0  0  0  0
   -1.9525   28.7269   58.4614 H   0  0  0  0  0  0
   -6.3147   25.2853   55.5189 H   0  0  0  0  0  0
   -7.3542   29.2274   54.1414 H   0  0  0  0  0  0
   -7.1995   24.3434   53.4578 H   0  0  0  0  0  0
   -8.3385   28.1966   52.1104 H   0  0  0  0  0  0
   -5.9758   32.2793   56.8720 H   0  0  0  0  0  0
   -6.9691   27.5954   50.3300 H   0  0  0  0  0  0
   -2.4335   25.3667   56.1653 H   0  0  0  0  0  0
   -3.7704   25.8880   57.1474 H   0  0  0  0  0  0
   -6.3388   29.0864   48.5044 H   0  0  0  0  0  0
   -7.7963   29.4582   46.5882 H   0  0  0  0  0  0
  1  2  1  0  0  0
  1  5  1  0  0  0
  1  7  2  0  0  0
  1  8  2  0  0  0
  2  3  1  0  0  0
  2 14  1  0  0  0
  2 31  1  0  0  0
  3  4  1  0  0  0
  3 13  1  0  0  0
  3 16  1  0  0  0
  4 10  2  0  0  0
  4 12  1  0  0  0
  5 18  2  0  0  0
  5 19  1  0  0  0
  6  9  2  0  0  0
  6 11  1  0  0  0
  6 21  1  0  0  0
  9 15  1  0  0  0
  9 27  1  0  0  0
 11 23  1  0  0  0
 11 30  2  0  0  0
 12 26  1  0  0  0
 12 32  1  0  0  0
 13 33  1  0  0  0
 14 28  1  0  0  0
 14 34  1  0  0  0
 14 35  1  0  0  0
 15 20  1  0  0  0
 15 36  1  0  0  0
 15 37  1  0  0  0
 16 17  1  0  0  0
 16 38  1  0  0  0
 16 39  1  0  0  0
 17 28  1  0  0  0
 18 24  1  0  0  0
 18 40  1  0  0  0
 19 25  2  0  0  0
 19 41  1  0  0  0
 20 22  1  0  0  0
 22 25  1  0  0  0
 22 24  2  0  0  0
 24 42  1  0  0  0
 25 43  1  0  0  0
 26 44  1  0  0  0
 27 29  2  0  0  0
 27 45  1  0  0  0
 28 46  1  0  0  0
 28 47  1  0  0  0
 29 30  1  0  0  0
 29 48  1  0  0  0
 30 49  1  0  0  0
M  END
> <s_m_entry_id>
64221

> <s_m_entry_name>
dock_pv.171

> <s_m_Source_Path>
/home/csk/Desktop/cluster/DUD-E-result/mmp13

> <s_m_Source_File>
dock_pv.maegz

> <i_m_Source_File_Index>
171

> <chembl_id>
CHEMBL183886

> <chembl_pref_name>
None

> <i_lp_mmshare_version>
53161

> <i_f3d_flags>
0

> <r_lp_tautomer_probability>
1

> <s_lp_Force_Field>
OPLS_2005

> <r_lp_Energy>
35.592885

> <b_lp_Chiralities_Consistent>
1

> <s_lp_Variant>
CHEMBL280_lig938-1

> <s_i_glide_gridfile>
glide-grid_830c

> <i_i_glide_lignum>
1585

> <i_i_glide_rotatable_bonds>
9

> <r_i_docking_score>
-7.30370496489948

> <r_i_glide_ligand_efficiency>
-0.243456832163316

> <r_i_glide_ligand_efficiency_sa>
-0.756476981836766

> <r_i_glide_ligand_efficiency_ln>
-1.65948134826463

> <r_i_glide_gscore>
-7.30370496489948

> <r_i_glide_lipo>
-3.66483784782694

> <r_i_glide_hbond>
-0.32

> <r_i_glide_metal>
0

> <r_i_glide_rewards>
-0.149732275968821

> <r_i_glide_evdw>
-45.7303009033203

> <r_i_glide_ecoul>
-9.88702201843262

> <r_i_glide_erotb>
0.624724004167179

> <r_i_glide_esite>
-0.0242904973399864

> <r_i_glide_emodel>
-68.5235640734393

> <r_i_glide_energy>
-55.6173229217529

> <r_i_glide_einternal>
7.52486419677734

> <i_i_glide_confnum>
153

> <i_i_glide_posenum>
62

> <r_i_glide_eff_state_penalty>
0

> <s_user_duplicate_titles>
CHEMBL280_lig938,308385

> <s_m_subgroup_title>
dock_pv

> <s_m_subgroupid>
dock_pv

> <b_m_subgroup_collapsed>
1

$$$$
CHEMBL280_lig237
                    3D
 Schrodinger Suite 2021-1.
 34 35  0  0  1  0            999 V2000
   -4.8189   27.9574   57.7110 C   0  0  0  0  0  0
   -5.0786   28.2935   56.4291 N   0  0  0  0  0  0
   -3.5770   28.4347   57.9088 N   0  0  0  0  0  0
   -2.8170   28.5629   56.6767 C   0  0  1  0  0  0
   -2.0637   27.2542   56.3304 C   0  0  0  0  0  0
   -3.9577   28.9127   55.7454 C   0  0  0  0  0  0
   -6.4508   28.4700   55.9784 C   0  0  0  0  0  0
   -5.5390   27.3695   58.5100 O   0  0  0  0  0  0
   -2.3389   26.6034   55.3101 O   0  0  0  0  0  0
   -1.0997   26.9209   57.2076 N   0  0  0  0  0  0
   -6.7390   27.8246   54.6388 C   0  0  0  0  0  0
   -7.5560   26.7484   52.1945 C   0  0  0  0  0  0
   -0.3377   25.7735   56.9764 O   0  0  0  0  0  0
   -6.7053   28.5978   53.4860 C   0  0  0  0  0  0
   -7.1391   26.4938   54.5704 C   0  0  0  0  0  0
   -7.5411   25.9648   53.3480 C   0  0  0  0  0  0
   -7.0883   28.0628   52.2644 C   0  0  0  0  0  0
   -8.0543   26.1702   51.0453 O   0  0  0  0  0  0
   -8.1253   26.9398   49.8484 C   0  0  0  0  0  0
   -3.3113   28.8993   58.7645 H   0  0  0  0  0  0
   -2.0867   29.3722   56.7220 H   0  0  0  0  0  0
   -4.1097   29.9922   55.7102 H   0  0  0  0  0  0
   -3.8381   28.5463   54.7249 H   0  0  0  0  0  0
   -7.1388   28.0578   56.7151 H   0  0  0  0  0  0
   -6.6706   29.5373   55.9239 H   0  0  0  0  0  0
   -0.8299   27.4173   58.0463 H   0  0  0  0  0  0
    0.5326   26.1030   56.7199 H   0  0  0  0  0  0
   -6.3884   29.6283   53.5386 H   0  0  0  0  0  0
   -7.1641   25.8801   55.4599 H   0  0  0  0  0  0
   -7.8785   24.9465   53.3055 H   0  0  0  0  0  0
   -7.0456   28.6872   51.3866 H   0  0  0  0  0  0
   -8.5585   26.3314   49.0555 H   0  0  0  0  0  0
   -8.7624   27.8164   49.9731 H   0  0  0  0  0  0
   -7.1384   27.2632   49.5153 H   0  0  0  0  0  0
  1  2  1  0  0  0
  1  3  1  0  0  0
  1  8  2  0  0  0
  2  6  1  0  0  0
  2  7  1  0  0  0
  3  4  1  0  0  0
  3 20  1  0  0  0
  4  5  1  0  0  0
  4  6  1  0  0  0
  4 21  1  0  0  0
  5  9  2  0  0  0
  5 10  1  0  0  0
  6 22  1  0  0  0
  6 23  1  0  0  0
  7 11  1  0  0  0
  7 24  1  0  0  0
  7 25  1  0  0  0
 10 13  1  0  0  0
 10 26  1  0  0  0
 11 14  2  0  0  0
 11 15  1  0  0  0
 12 16  1  0  0  0
 12 18  1  0  0  0
 12 17  2  0  0  0
 13 27  1  0  0  0
 14 17  1  0  0  0
 14 28  1  0  0  0
 15 16  2  0  0  0
 15 29  1  0  0  0
 16 30  1  0  0  0
 17 31  1  0  0  0
 18 19  1  0  0  0
 19 32  1  0  0  0
 19 33  1  0  0  0
 19 34  1  0  0  0
M  END
> <s_m_entry_id>
64222

> <s_m_entry_name>
dock_pv.172

> <s_m_Source_Path>
/home/csk/Desktop/cluster/DUD-E-result/mmp13

> <s_m_Source_File>
dock_pv.maegz

> <i_m_Source_File_Index>
172

> <chembl_id>
CHEMBL19870

> <chembl_pref_name>
None

> <i_lp_mmshare_version>
53161

> <i_f3d_flags>
0

> <r_lp_tautomer_probability>
1

> <s_lp_Force_Field>
OPLS_2005

> <r_lp_Energy>
47.419879

> <b_lp_Chiralities_Consistent>
1

> <s_lp_Variant>
CHEMBL280_lig237-1

> <s_i_glide_gridfile>
glide-grid_830c

> <i_i_glide_lignum>
333

> <i_i_glide_rotatable_bonds>
6

> <r_i_docking_score>
-7.30240631035672

> <r_i_glide_ligand_efficiency>
-0.384337174229301

> <r_i_glide_ligand_efficiency_sa>
-1.02556594837203

> <r_i_glide_ligand_efficiency_ln>
-1.85131684098201

> <r_i_glide_gscore>
-7.30240631035672

> <r_i_glide_lipo>
-2.40969185578078

> <r_i_glide_hbond>
-0.468444592406492

> <r_i_glide_metal>
0

> <r_i_glide_rewards>
-1.60046367018259

> <r_i_glide_evdw>
-24.6777687072754

> <r_i_glide_ecoul>
-16.3643131256104

> <r_i_glide_erotb>
1.01143388510742

> <r_i_glide_esite>
-0.146704672888952

> <r_i_glide_emodel>
-60.7001906387766

> <r_i_glide_energy>
-41.0420818328857

> <r_i_glide_einternal>
3.67027306556702

> <i_i_glide_confnum>
22

> <i_i_glide_posenum>
11

> <r_i_glide_eff_state_penalty>
0

> <s_user_duplicate_titles>
CHEMBL280_lig237,23286

> <s_m_subgroup_title>
dock_pv

> <s_m_subgroupid>
dock_pv

> <b_m_subgroup_collapsed>
1

$$$$
CHEMBL280_lig452
                    3D
 Schrodinger Suite 2021-1.
 48 49  0  0  1  0            999 V2000
   -5.4229   28.6100   57.3572 S   0  0  0  0  0  0
   -2.5024   28.5859   56.8475 C   0  0  2  0  0  0
   -3.8104   29.4240   56.7641 C   0  0  0  0  0  0
   -2.5895   27.2978   55.9614 C   0  0  0  0  0  0
   -6.1120   27.8377   55.8924 C   0  0  0  0  0  0
   -5.1489   27.5583   58.3441 O   0  0  0  0  0  0
   -6.3389   29.7013   57.6973 O   0  0  0  0  0  0
   -2.7402   27.3957   54.7392 O   0  0  0  0  0  0
   -2.2529   28.2415   58.2639 N   0  0  1  0  0  0
   -2.4409   26.0934   56.5380 N   0  0  0  0  0  0
   -6.1263   26.4497   55.7638 C   0  0  0  0  0  0
   -6.6820   28.6381   54.8994 C   0  0  0  0  0  0
   -7.9350   25.9806   52.6270 O   0  0  0  0  0  0
   -7.3091   26.6530   53.6589 C   0  0  0  0  0  0
   -1.3623   29.5043   56.3251 C   0  0  0  0  0  0
   -7.2831   28.0480   53.7893 C   0  0  0  0  0  0
   -6.7252   25.8667   54.6502 C   0  0  0  0  0  0
   -8.2813   26.5738   51.4323 C   0  0  0  0  0  0
   -2.3391   24.9703   55.7099 O   0  0  0  0  0  0
   -0.8988   27.8557   58.6717 C   0  0  0  0  0  0
   -9.5394   26.2870   50.9050 C   0  0  0  0  0  0
   -7.3909   27.3696   50.7043 C   0  0  0  0  0  0
   -0.9315   27.1560   60.0333 C   0  0  0  0  0  0
   -9.9303   26.8264   49.6815 C   0  0  0  0  0  0
   -7.7710   27.8940   49.4721 C   0  0  0  0  0  0
   -9.0427   27.6298   48.9702 C   0  0  0  0  0  0
   -3.7113   30.3219   57.3731 H   0  0  0  0  0  0
   -4.0008   29.7692   55.7472 H   0  0  0  0  0  0
   -2.7640   28.8013   58.9329 H   0  0  0  0  0  0
   -2.4009   25.8940   57.5314 H   0  0  0  0  0  0
   -5.6891   25.8157   56.5238 H   0  0  0  0  0  0
   -6.6768   29.7147   54.9967 H   0  0  0  0  0  0
   -1.5634   29.8577   55.3126 H   0  0  0  0  0  0
   -1.2412   30.3893   56.9515 H   0  0  0  0  0  0
   -0.3965   28.9999   56.2934 H   0  0  0  0  0  0
   -7.7435   28.6775   53.0443 H   0  0  0  0  0  0
   -6.7383   24.7901   54.5587 H   0  0  0  0  0  0
   -3.1833   24.4902   55.8608 H   0  0  0  0  0  0
   -0.2457   28.7288   58.7125 H   0  0  0  0  0  0
   -0.4700   27.1637   57.9462 H   0  0  0  0  0  0
  -10.2170   25.6480   51.4509 H   0  0  0  0  0  0
   -6.3988   27.5706   51.0831 H   0  0  0  0  0  0
    0.0425   26.7236   60.2614 H   0  0  0  0  0  0
   -1.6618   26.3458   60.0529 H   0  0  0  0  0  0
   -1.1661   27.8482   60.8382 H   0  0  0  0  0  0
  -10.9118   26.6192   49.2816 H   0  0  0  0  0  0
   -7.0798   28.5098   48.9130 H   0  0  0  0  0  0
   -9.3378   28.0455   48.0179 H   0  0  0  0  0  0
  1  3  1  0  0  0
  1  5  1  0  0  0
  1  6  2  0  0  0
  1  7  2  0  0  0
  2  3  1  0  0  0
  2  4  1  0  0  0
  2  9  1  0  0  0
  2 15  1  0  0  0
  3 27  1  0  0  0
  3 28  1  0  0  0
  4  8  2  0  0  0
  4 10  1  0  0  0
  5 11  1  0  0  0
  5 12  2  0  0  0
  9 20  1  0  0  0
  9 29  1  0  0  0
 10 19  1  0  0  0
 10 30  1  0  0  0
 11 17  2  0  0  0
 11 31  1  0  0  0
 12 16  1  0  0  0
 12 32  1  0  0  0
 13 14  1  0  0  0
 13 18  1  0  0  0
 14 16  2  0  0  0
 14 17  1  0  0  0
 15 33  1  0  0  0
 15 34  1  0  0  0
 15 35  1  0  0  0
 16 36  1  0  0  0
 17 37  1  0  0  0
 18 21  2  0  0  0
 18 22  1  0  0  0
 19 38  1  0  0  0
 20 23  1  0  0  0
 20 39  1  0  0  0
 20 40  1  0  0  0
 21 24  1  0  0  0
 21 41  1  0  0  0
 22 25  2  0  0  0
 22 42  1  0  0  0
 23 43  1  0  0  0
 23 44  1  0  0  0
 23 45  1  0  0  0
 24 26  2  0  0  0
 24 46  1  0  0  0
 25 26  1  0  0  0
 25 47  1  0  0  0
 26 48  1  0  0  0
M  END
> <s_m_entry_id>
64223

> <s_m_entry_name>
dock_pv.173

> <s_m_Source_Path>
/home/csk/Desktop/cluster/DUD-E-result/mmp13

> <s_m_Source_File>
dock_pv.maegz

> <i_m_Source_File_Index>
173

> <chembl_id>
CHEMBL90211

> <chembl_pref_name>
None

> <i_lp_mmshare_version>
53161

> <i_f3d_flags>
0

> <r_lp_tautomer_probability>
1

> <s_lp_Force_Field>
OPLS_2005

> <r_lp_Energy>
33.444946

> <b_lp_Chiralities_Consistent>
1

> <s_lp_Variant>
CHEMBL280_lig452-2

> <s_i_glide_gridfile>
glide-grid_830c

> <i_i_glide_lignum>
646

> <i_i_glide_rotatable_bonds>
10

> <r_i_docking_score>
-7.29388565821361

> <r_i_glide_ligand_efficiency>
-0.280534063777446

> <r_i_glide_ligand_efficiency_sa>
-0.831081060092447

> <r_i_glide_ligand_efficiency_ln>
-1.71294511364054

> <r_i_glide_gscore>
-7.29388565821361

> <r_i_glide_lipo>
-2.92457174510644

> <r_i_glide_hbond>
0

> <r_i_glide_metal>
0

> <r_i_glide_rewards>
-0.828300391160146

> <r_i_glide_evdw>
-42.3528671264648

> <r_i_glide_ecoul>
-15.3696126937866

> <r_i_glide_erotb>
1.08249024734925

> <r_i_glide_esite>
-0.200418508905038

> <r_i_glide_emodel>
-80.0703720887207

> <r_i_glide_energy>
-57.7224798202515

> <r_i_glide_einternal>
13.0283737182617

> <i_i_glide_confnum>
144

> <i_i_glide_posenum>
240

> <r_i_glide_eff_state_penalty>
0

> <s_user_duplicate_titles>
CHEMBL280_lig452,148909

> <s_m_subgroup_title>
dock_pv

> <s_m_subgroupid>
dock_pv

> <b_m_subgroup_collapsed>
1

$$$$
CHEMBL280_lig892
                    3D
 Schrodinger Suite 2021-1.
 51 53  0  0  1  0            999 V2000
   -3.5775   28.2563   56.8500 C   0  0  1  0  0  0
   -3.7586   27.6143   58.2491 C   0  0  0  0  0  0
   -2.7187   27.3421   55.9048 C   0  0  0  0  0  0
   -1.8739   26.4739   56.5069 N   0  0  0  0  0  0
   -1.6474   26.1866   57.8022 C   0  0  0  0  0  0
   -2.4665   26.9861   58.8384 C   0  0  1  0  0  0
   -4.8284   28.6764   56.2439 O   0  0  0  0  0  0
   -8.2518   26.8119   51.1900 C   0  0  0  0  0  0
   -4.8418   27.5647   58.8355 O   0  0  0  0  0  0
   -8.0411   26.2071   52.4245 O   0  0  0  0  0  0
   -2.7393   27.3700   54.6766 O   0  0  0  0  0  0
   -0.7832   25.3700   58.1100 O   0  0  0  0  0  0
   -2.8588   29.6526   56.9323 C   0  0  0  0  0  0
   -9.4857   26.6482   50.5477 C   0  0  0  0  0  0
   -1.5390   28.0133   59.3098 N   0  0  0  0  0  0
   -5.6693   27.9622   55.4063 C   0  0  0  0  0  0
   -7.2959   26.8016   53.4289 C   0  0  0  0  0  0
  -10.7389   25.7700   51.3099 Cl  0  0  0  0  0  0
   -7.2931   28.1820   53.6242 C   0  0  0  0  0  0
   -6.5590   25.9982   54.3050 C   0  0  0  0  0  0
   -6.4883   28.7513   54.6020 C   0  0  0  0  0  0
   -5.7455   26.5700   55.2907 C   0  0  0  0  0  0
   -4.7395   30.7937   58.1133 O   0  0  0  0  0  0
   -7.2741   27.5757   50.5396 C   0  0  0  0  0  0
   -3.3279   30.6413   58.0354 C   0  0  0  0  0  0
   -9.7452   27.2260   49.3050 C   0  0  0  0  0  0
   -5.3249   31.6075   57.1072 C   0  0  0  0  0  0
   -6.8462   31.5144   57.2522 C   0  0  0  0  0  0
   -7.5343   28.1614   49.2981 C   0  0  0  0  0  0
   -8.7656   27.9861   48.6766 C   0  0  0  0  0  0
   -1.2741   25.9388   55.9061 H   0  0  0  0  0  0
   -2.7339   26.3096   59.6526 H   0  0  0  0  0  0
   -2.9481   30.1591   55.9681 H   0  0  0  0  0  0
   -1.7826   29.5246   57.0640 H   0  0  0  0  0  0
   -1.7657   28.2575   60.2654 H   0  0  0  0  0  0
   -0.6088   27.6159   59.3680 H   0  0  0  0  0  0
   -7.8882   28.8209   52.9924 H   0  0  0  0  0  0
   -6.5866   24.9233   54.1979 H   0  0  0  0  0  0
   -6.4545   29.8259   54.7005 H   0  0  0  0  0  0
   -5.1652   25.9271   55.9359 H   0  0  0  0  0  0
   -6.3059   27.7228   50.9934 H   0  0  0  0  0  0
   -3.0010   30.2815   59.0101 H   0  0  0  0  0  0
   -2.8437   31.6120   57.9144 H   0  0  0  0  0  0
  -10.7086   27.0936   48.8333 H   0  0  0  0  0  0
   -5.0326   31.2794   56.1103 H   0  0  0  0  0  0
   -4.9962   32.6415   57.2232 H   0  0  0  0  0  0
   -7.3507   32.1209   56.5002 H   0  0  0  0  0  0
   -7.1851   30.4843   57.1385 H   0  0  0  0  0  0
   -7.1667   31.8602   58.2355 H   0  0  0  0  0  0
   -6.7667   28.7506   48.8161 H   0  0  0  0  0  0
   -8.9567   28.4407   47.7152 H   0  0  0  0  0  0
  1  2  1  0  0  0
  1  3  1  0  0  0
  1  7  1  0  0  0
  1 13  1  0  0  0
  2  6  1  0  0  0
  2  9  2  0  0  0
  3  4  1  0  0  0
  3 11  2  0  0  0
  4  5  1  0  0  0
  4 31  1  0  0  0
  5 12  2  0  0  0
  5  6  1  0  0  0
  6 15  1  0  0  0
  6 32  1  0  0  0
  7 16  1  0  0  0
  8 10  1  0  0  0
  8 14  1  0  0  0
  8 24  2  0  0  0
 10 17  1  0  0  0
 13 25  1  0  0  0
 13 33  1  0  0  0
 13 34  1  0  0  0
 14 18  1  0  0  0
 14 26  2  0  0  0
 15 35  1  0  0  0
 15 36  1  0  0  0
 16 21  1  0  0  0
 16 22  2  0  0  0
 17 20  2  0  0  0
 17 19  1  0  0  0
 19 21  2  0  0  0
 19 37  1  0  0  0
 20 22  1  0  0  0
 20 38  1  0  0  0
 21 39  1  0  0  0
 22 40  1  0  0  0
 23 25  1  0  0  0
 23 27  1  0  0  0
 24 29  1  0  0  0
 24 41  1  0  0  0
 25 42  1  0  0  0
 25 43  1  0  0  0
 26 30  1  0  0  0
 26 44  1  0  0  0
 27 28  1  0  0  0
 27 45  1  0  0  0
 27 46  1  0  0  0
 28 47  1  0  0  0
 28 48  1  0  0  0
 28 49  1  0  0  0
 29 30  2  0  0  0
 29 50  1  0  0  0
 30 51  1  0  0  0
M  END
> <s_m_entry_id>
64224

> <s_m_entry_name>
dock_pv.174

> <s_m_Source_Path>
/home/csk/Desktop/cluster/DUD-E-result/mmp13

> <s_m_Source_File>
dock_pv.maegz

> <i_m_Source_File_Index>
174

> <chembl_id>
CHEMBL360925

> <chembl_pref_name>
None

> <i_lp_mmshare_version>
53161

> <i_f3d_flags>
0

> <r_lp_tautomer_probability>
1

> <s_lp_Force_Field>
OPLS_2005

> <r_lp_Energy>
31.895289

> <b_lp_Chiralities_Consistent>
1

> <s_lp_Variant>
CHEMBL280_lig892-2

> <s_i_glide_gridfile>
glide-grid_830c

> <i_i_glide_lignum>
1458

> <i_i_glide_rotatable_bonds>
8

> <r_i_docking_score>
-7.2925167807445

> <r_i_glide_ligand_efficiency>
-0.243083892691483

> <r_i_glide_ligand_efficiency_sa>
-0.755318172188448

> <r_i_glide_ligand_efficiency_ln>
-1.65693927091959

> <r_i_glide_gscore>
-7.2925167807445

> <r_i_glide_lipo>
-2.79933905311095

> <r_i_glide_hbond>
-0.573477512195772

> <r_i_glide_metal>
0

> <r_i_glide_rewards>
-0.614826180575513

> <r_i_glide_evdw>
-43.289134979248

> <r_i_glide_ecoul>
-10.8332681655884

> <r_i_glide_erotb>
0.743557516223693

> <r_i_glide_esite>
-0.258984577285299

> <r_i_glide_emodel>
-65.6067475806365

> <r_i_glide_energy>
-54.1224031448364

> <r_i_glide_einternal>
14.6452865600586

> <i_i_glide_confnum>
35

> <i_i_glide_posenum>
169

> <r_i_glide_eff_state_penalty>
0

> <s_user_duplicate_titles>
CHEMBL280_lig892

> <s_m_subgroup_title>
dock_pv

> <s_m_subgroupid>
dock_pv

> <b_m_subgroup_collapsed>
1

$$$$
CHEMBL280_lig374
                    3D
 Schrodinger Suite 2021-1.
 63 65  0  0  1  0            999 V2000
   -2.6791   29.5511   57.3061 S   0  0  0  0  0  0
   -3.9445   28.1575   56.9011 C   0  0  2  0  0  0
   -3.2392   27.1136   55.9913 C   0  0  0  0  0  0
   -3.6240   31.0237   57.7270 C   0  0  0  0  0  0
   -5.1848   28.8161   56.1962 C   0  0  0  0  0  0
   -1.9339   29.8758   56.0837 O   0  0  0  0  0  0
   -1.9419   29.1647   58.5140 O   0  0  0  0  0  0
   -9.3947   26.9700   48.6760 N   0  0  0  0  0  0
   -3.1390   27.3091   54.7735 O   0  0  0  0  0  0
   -2.7587   25.9968   56.5602 N   0  0  0  0  0  0
   -4.0207   31.2599   59.0420 C   0  0  0  0  0  0
   -3.9365   31.9504   56.7300 C   0  0  0  0  0  0
  -10.3989   28.3253   46.3645 O   0  0  0  0  0  0
   -4.4297   27.5583   58.2558 C   0  0  0  0  0  0
   -6.0730   28.0344   55.2107 C   0  0  0  0  0  0
   -5.0831   33.3251   58.3617 C   0  0  0  0  0  0
   -7.4987   26.7829   53.1401 C   0  0  0  0  0  0
   -4.7438   32.4064   59.3537 C   0  0  0  0  0  0
   -4.6698   33.0915   57.0414 C   0  0  0  0  0  0
   -2.3390   24.9700   55.7100 O   0  0  0  0  0  0
   -6.7390   28.7899   54.2501 C   0  0  0  0  0  0
   -6.2229   26.6388   55.1978 C   0  0  0  0  0  0
   -6.9182   26.0213   54.1544 C   0  0  0  0  0  0
   -7.4476   28.1700   53.2352 C   0  0  0  0  0  0
   -8.1262   26.1417   52.0918 O   0  0  0  0  0  0
   -9.4310   26.6357   50.1048 C   0  0  0  0  0  0
   -8.0513   26.7251   50.7802 C   0  0  0  0  0  0
   -5.8152   34.4236   58.7673 O   0  0  0  0  0  0
  -10.6332   26.5433   48.0096 C   0  0  0  0  0  0
   -9.0297   28.3662   48.3812 C   0  0  0  0  0  0
   -9.1174   28.6849   46.8721 C   0  0  0  0  0  0
  -10.6578   26.9345   46.5164 C   0  0  0  0  0  0
   -6.2016   35.3962   57.8023 C   0  0  0  0  0  0
   -5.8440   29.2808   56.9317 H   0  0  0  0  0  0
   -4.7918   29.6492   55.6216 H   0  0  0  0  0  0
   -2.8940   25.6950   57.5194 H   0  0  0  0  0  0
   -3.7653   30.5700   59.8275 H   0  0  0  0  0  0
   -3.6185   31.7846   55.7100 H   0  0  0  0  0  0
   -5.1999   26.8001   58.1100 H   0  0  0  0  0  0
   -3.6202   27.1206   58.8425 H   0  0  0  0  0  0
   -4.8758   28.3303   58.8835 H   0  0  0  0  0  0
   -5.0538   32.5818   60.3733 H   0  0  0  0  0  0
   -4.9046   33.7825   56.2468 H   0  0  0  0  0  0
   -3.0746   24.3259   55.7633 H   0  0  0  0  0  0
   -6.6748   29.8679   54.2598 H   0  0  0  0  0  0
   -5.7599   26.0150   55.9477 H   0  0  0  0  0  0
   -6.9712   24.9436   54.1099 H   0  0  0  0  0  0
   -7.9380   28.7928   52.5108 H   0  0  0  0  0  0
   -9.7916   25.6127   50.2265 H   0  0  0  0  0  0
  -10.1450   27.2784   50.6211 H   0  0  0  0  0  0
   -7.6882   27.7496   50.7497 H   0  0  0  0  0  0
   -7.3166   26.1700   50.2011 H   0  0  0  0  0  0
  -10.7381   25.4622   48.1099 H   0  0  0  0  0  0
  -11.4978   26.9700   48.5179 H   0  0  0  0  0  0
   -9.6938   29.0367   48.9225 H   0  0  0  0  0  0
   -8.0243   28.5827   48.7432 H   0  0  0  0  0  0
   -8.9611   29.7513   46.7078 H   0  0  0  0  0  0
   -8.3297   28.1709   46.3190 H   0  0  0  0  0  0
  -11.6365   26.7139   46.0903 H   0  0  0  0  0  0
   -9.9332   26.3462   45.9498 H   0  0  0  0  0  0
   -6.7730   36.1834   58.2942 H   0  0  0  0  0  0
   -6.8372   34.9627   57.0286 H   0  0  0  0  0  0
   -5.3337   35.8632   57.3340 H   0  0  0  0  0  0
  1  2  1  0  0  0
  1  4  1  0  0  0
  1  6  2  0  0  0
  1  7  2  0  0  0
  2  3  1  0  0  0
  2  5  1  0  0  0
  2 14  1  0  0  0
  3  9  2  0  0  0
  3 10  1  0  0  0
  4 11  2  0  0  0
  4 12  1  0  0  0
  5 15  1  0  0  0
  5 34  1  0  0  0
  5 35  1  0  0  0
  8 26  1  0  0  0
  8 29  1  0  0  0
  8 30  1  0  0  0
 10 20  1  0  0  0
 10 36  1  0  0  0
 11 18  1  0  0  0
 11 37  1  0  0  0
 12 19  2  0  0  0
 12 38  1  0  0  0
 13 31  1  0  0  0
 13 32  1  0  0  0
 14 39  1  0  0  0
 14 40  1  0  0  0
 14 41  1  0  0  0
 15 21  2  0  0  0
 15 22  1  0  0  0
 16 19  1  0  0  0
 16 28  1  0  0  0
 16 18  2  0  0  0
 17 23  1  0  0  0
 17 25  1  0  0  0
 17 24  2  0  0  0
 18 42  1  0  0  0
 19 43  1  0  0  0
 20 44  1  0  0  0
 21 24  1  0  0  0
 21 45  1  0  0  0
 22 23  2  0  0  0
 22 46  1  0  0  0
 23 47  1  0  0  0
 24 48  1  0  0  0
 25 27  1  0  0  0
 26 27  1  0  0  0
 26 49  1  0  0  0
 26 50  1  0  0  0
 27 51  1  0  0  0
 27 52  1  0  0  0
 28 33  1  0  0  0
 29 32  1  0  0  0
 29 53  1  0  0  0
 29 54  1  0  0  0
 30 31  1  0  0  0
 30 55  1  0  0  0
 30 56  1  0  0  0
 31 57  1  0  0  0
 31 58  1  0  0  0
 32 59  1  0  0  0
 32 60  1  0  0  0
 33 61  1  0  0  0
 33 62  1  0  0  0
 33 63  1  0  0  0
M  END
> <s_m_entry_id>
64225

> <s_m_entry_name>
dock_pv.175

> <s_m_Source_Path>
/home/csk/Desktop/cluster/DUD-E-result/mmp13

> <s_m_Source_File>
dock_pv.maegz

> <i_m_Source_File_Index>
175

> <chembl_id>
CHEMBL77125

> <chembl_pref_name>
None

> <i_lp_mmshare_version>
53161

> <i_f3d_flags>
0

> <r_lp_tautomer_probability>
1

> <s_lp_Force_Field>
OPLS_2005

> <r_lp_Energy>
52.399158

> <b_lp_Chiralities_Consistent>
1

> <s_lp_Variant>
CHEMBL280_lig374-2

> <s_i_glide_gridfile>
glide-grid_830c

> <i_i_glide_lignum>
545

> <i_i_glide_rotatable_bonds>
12

> <r_i_docking_score>
-7.29092776844773

> <r_i_glide_ligand_efficiency>
-0.220937205104477

> <r_i_glide_ligand_efficiency_sa>
-0.708663669319988

> <r_i_glide_ligand_efficiency_ln>
-1.62146458529915

> <r_i_glide_gscore>
-7.29092776844773

> <r_i_glide_lipo>
-3.62581783536193

> <r_i_glide_hbond>
-0.174137061362049

> <r_i_glide_metal>
0

> <r_i_glide_rewards>
0.0958337758017399

> <r_i_glide_evdw>
-44.6537475585938

> <r_i_glide_ecoul>
-12.8640327453613

> <r_i_glide_erotb>
0.79638784466531

> <r_i_glide_esite>
-0.220902202456908

> <r_i_glide_emodel>
-78.2731009862262

> <r_i_glide_energy>
-57.5177803039551

> <r_i_glide_einternal>
18.310676574707

> <i_i_glide_confnum>
8

> <i_i_glide_posenum>
5

> <r_i_glide_eff_state_penalty>
0

> <s_user_duplicate_titles>
CHEMBL280_lig374,123739

> <s_m_subgroup_title>
dock_pv

> <s_m_subgroupid>
dock_pv

> <b_m_subgroup_collapsed>
1

$$$$
CHEMBL280_lig179
                    3D
 Schrodinger Suite 2021-1.
 57 60  0  0  1  0            999 V2000
    0.2515   28.8438   58.6661 N   0  0  0  0  0  0
    0.4727   27.5276   58.3982 C   0  0  0  0  0  0
    0.2273   29.1366   59.9929 C   0  0  0  0  0  0
    0.4309   27.8375   60.6814 C   0  0  0  0  0  0
    0.6010   26.8757   59.7228 C   0  0  0  0  0  0
   -3.1477   27.3404   55.7444 C   0  0  0  0  0  0
   -3.6294   28.5719   56.5480 C   0  0  1  0  0  0
    0.0610   30.2413   60.5100 O   0  0  0  0  0  0
    0.5318   26.9860   57.2960 O   0  0  0  0  0  0
   -7.3449   27.1357   53.0735 C   0  0  0  0  0  0
   -3.1390   27.3700   54.5100 O   0  0  0  0  0  0
   -4.9230   28.3162   57.3882 C   0  0  0  0  0  0
   -2.7406   26.2644   56.4360 N   0  0  0  0  0  0
    0.0016   29.8648   57.6266 C   0  0  0  0  0  0
   -7.8590   27.0598   51.6791 C   0  0  0  0  0  0
   -6.9318   28.3594   53.6111 C   0  0  0  0  0  0
   -7.2458   25.9901   53.8646 C   0  0  0  0  0  0
   -5.7821   27.2583   56.9536 O   0  0  0  0  0  0
   -6.3221   27.2856   55.6844 C   0  0  0  0  0  0
   -6.4388   28.4428   54.9074 C   0  0  0  0  0  0
   -6.7390   26.0675   55.1587 C   0  0  0  0  0  0
    0.4611   27.5161   62.0383 C   0  0  0  0  0  0
    0.8294   25.5428   60.0650 C   0  0  0  0  0  0
   -2.3390   25.1365   55.7100 O   0  0  0  0  0  0
   -2.5159   29.2129   57.4223 C   0  0  0  0  0  0
   -1.1956   29.5682   56.6916 C   0  0  0  0  0  0
   -8.9899   26.3052   51.3528 C   0  0  0  0  0  0
   -7.2154   27.7700   50.6659 C   0  0  0  0  0  0
    0.6647   26.1812   62.4020 C   0  0  0  0  0  0
    0.8584   25.1996   61.4200 C   0  0  0  0  0  0
   -7.7061   27.7700   49.3644 C   0  0  0  0  0  0
   -9.4733   26.2781   50.0481 C   0  0  0  0  0  0
   -8.8365   27.0205   49.0597 C   0  0  0  0  0  0
   -3.8890   29.3197   55.7961 H   0  0  0  0  0  0
   -4.6401   28.0405   58.4052 H   0  0  0  0  0  0
   -5.4966   29.2380   57.5002 H   0  0  0  0  0  0
   -2.7928   26.1075   57.4353 H   0  0  0  0  0  0
   -0.1849   30.8253   58.1111 H   0  0  0  0  0  0
    0.9135   29.9970   57.0424 H   0  0  0  0  0  0
   -6.9896   29.2611   53.0222 H   0  0  0  0  0  0
   -7.5378   25.0277   53.4702 H   0  0  0  0  0  0
   -6.1361   29.4077   55.2832 H   0  0  0  0  0  0
   -6.6443   25.1686   55.7509 H   0  0  0  0  0  0
    0.3212   28.2707   62.7996 H   0  0  0  0  0  0
    0.9727   24.7829   59.3097 H   0  0  0  0  0  0
   -3.0718   24.5066   55.8563 H   0  0  0  0  0  0
   -2.3078   28.5292   58.2459 H   0  0  0  0  0  0
   -2.9007   30.1187   57.8945 H   0  0  0  0  0  0
   -1.3618   30.4226   56.0338 H   0  0  0  0  0  0
   -0.8966   28.7626   56.0260 H   0  0  0  0  0  0
   -9.5218   25.7700   52.1205 H   0  0  0  0  0  0
   -6.3391   28.3540   50.9022 H   0  0  0  0  0  0
    0.6832   25.9105   63.4472 H   0  0  0  0  0  0
    1.0282   24.1726   61.7101 H   0  0  0  0  0  0
   -7.2007   28.3395   48.5974 H   0  0  0  0  0  0
  -10.3390   25.6868   49.8036 H   0  0  0  0  0  0
   -9.2140   27.0070   48.0478 H   0  0  0  0  0  0
  1  2  1  0  0  0
  1  3  1  0  0  0
  1 14  1  0  0  0
  2  5  1  0  0  0
  2  9  2  0  0  0
  3  4  1  0  0  0
  3  8  2  0  0  0
  4 22  2  0  0  0
  4  5  1  0  0  0
  5 23  2  0  0  0
  6  7  1  0  0  0
  6 11  2  0  0  0
  6 13  1  0  0  0
  7 25  1  0  0  0
  7 12  1  0  0  0
  7 34  1  0  0  0
 10 17  2  0  0  0
 10 15  1  0  0  0
 10 16  1  0  0  0
 12 18  1  0  0  0
 12 35  1  0  0  0
 12 36  1  0  0  0
 13 24  1  0  0  0
 13 37  1  0  0  0
 14 26  1  0  0  0
 14 38  1  0  0  0
 14 39  1  0  0  0
 15 27  2  0  0  0
 15 28  1  0  0  0
 16 20  2  0  0  0
 16 40  1  0  0  0
 17 21  1  0  0  0
 17 41  1  0  0  0
 18 19  1  0  0  0
 19 20  1  0  0  0
 19 21  2  0  0  0
 20 42  1  0  0  0
 21 43  1  0  0  0
 22 29  1  0  0  0
 22 44  1  0  0  0
 23 30  1  0  0  0
 23 45  1  0  0  0
 24 46  1  0  0  0
 25 26  1  0  0  0
 25 47  1  0  0  0
 25 48  1  0  0  0
 26 49  1  0  0  0
 26 50  1  0  0  0
 27 32  1  0  0  0
 27 51  1  0  0  0
 28 31  2  0  0  0
 28 52  1  0  0  0
 29 30  2  0  0  0
 29 53  1  0  0  0
 30 54  1  0  0  0
 31 33  1  0  0  0
 31 55  1  0  0  0
 32 33  2  0  0  0
 32 56  1  0  0  0
 33 57  1  0  0  0
M  END
> <s_m_entry_id>
64226

> <s_m_entry_name>
dock_pv.176

> <s_m_Source_Path>
/home/csk/Desktop/cluster/DUD-E-result/mmp13

> <s_m_Source_File>
dock_pv.maegz

> <i_m_Source_File_Index>
176

> <chembl_id>
CHEMBL318795

> <chembl_pref_name>
None

> <i_lp_mmshare_version>
53161

> <i_f3d_flags>
0

> <r_lp_tautomer_probability>
1

> <s_lp_Force_Field>
OPLS_2005

> <r_lp_Energy>
51.634562

> <b_lp_Chiralities_Consistent>
1

> <s_lp_Variant>
CHEMBL280_lig179-1

> <s_i_glide_gridfile>
glide-grid_830c

> <i_i_glide_lignum>
227

> <i_i_glide_rotatable_bonds>
11

> <r_i_docking_score>
-7.28681570436403

> <r_i_glide_ligand_efficiency>
-0.22081259710194

> <r_i_glide_ligand_efficiency_sa>
-0.708263984874527

> <r_i_glide_ligand_efficiency_ln>
-1.62055008353806

> <r_i_glide_gscore>
-7.28681570436403

> <r_i_glide_lipo>
-3.6844478925114

> <r_i_glide_hbond>
0

> <r_i_glide_metal>
0

> <r_i_glide_rewards>
-0.3433050253888

> <r_i_glide_evdw>
-46.0048065185547

> <r_i_glide_ecoul>
-11.1241111755371

> <r_i_glide_erotb>
0.911120731788811

> <r_i_glide_esite>
-0.201326515994338

> <r_i_glide_emodel>
-87.8005848079089

> <r_i_glide_energy>
-57.1289176940918

> <r_i_glide_einternal>
7.67514944076538

> <i_i_glide_confnum>
21

> <i_i_glide_posenum>
114

> <r_i_glide_eff_state_penalty>
0

> <s_user_duplicate_titles>
CHEMBL280_lig179

> <s_m_subgroup_title>
dock_pv

> <s_m_subgroupid>
dock_pv

> <b_m_subgroup_collapsed>
1

$$$$
CHEMBL280_lig2319
                    3D
 Schrodinger Suite 2021-1.
 41 44  0  0  1  0            999 V2000
   -3.4210   28.4768   57.5141 C   0  0  0  0  0  0
   -4.7710   28.4193   58.2950 C   0  0  0  0  0  0
   -3.0795   29.8730   56.8752 C   0  0  0  0  0  0
   -5.5408   29.5219   58.1679 N   0  0  0  0  0  0
   -4.0951   30.7599   56.9103 N   0  0  0  0  0  0
   -3.4070   27.4146   56.4792 N   0  0  0  0  0  0
   -5.3080   30.6739   57.5001 C   0  0  0  0  0  0
   -2.2744   26.6582   56.4933 C   0  0  0  0  0  0
   -2.2743   28.0606   58.4661 C   0  0  0  0  0  0
   -4.3913   27.2944   55.4726 C   0  0  0  0  0  0
   -2.0056   30.1426   56.3396 O   0  0  0  0  0  0
   -5.1396   27.4233   58.9100 O   0  0  0  0  0  0
   -1.4127   27.1221   57.6577 C   0  0  0  0  0  0
   -6.1323   31.5786   57.4412 O   0  0  0  0  0  0
   -6.3800   27.1911   53.4496 C   0  0  0  0  0  0
   -1.9435   25.7699   55.7100 O   0  0  0  0  0  0
   -4.2227   27.9854   54.2850 C   0  0  0  0  0  0
   -5.5674   26.5696   55.6754 C   0  0  0  0  0  0
   -5.2125   27.9438   53.3100 C   0  0  0  0  0  0
   -6.5415   26.5101   54.6720 C   0  0  0  0  0  0
   -7.3640   27.0990   52.3015 C   0  0  0  0  0  0
   -7.1584   27.7700   51.0793 C   0  0  0  0  0  0
   -8.5107   26.3024   52.3861 C   0  0  0  0  0  0
   -8.0182   27.6280   49.9952 C   0  0  0  0  0  0
   -9.3886   26.1679   51.3101 C   0  0  0  0  0  0
   -9.1376   26.8201   50.1122 C   0  0  0  0  0  0
   -6.4309   29.4954   58.6424 H   0  0  0  0  0  0
   -3.9166   31.6315   56.4358 H   0  0  0  0  0  0
   -1.6942   28.8975   58.8636 H   0  0  0  0  0  0
   -2.6232   27.5073   59.3416 H   0  0  0  0  0  0
   -0.5525   27.6488   57.2423 H   0  0  0  0  0  0
   -1.0397   26.2824   58.2457 H   0  0  0  0  0  0
   -3.3419   28.5892   54.1213 H   0  0  0  0  0  0
   -5.7165   26.0209   56.5954 H   0  0  0  0  0  0
   -5.0400   28.5207   52.4207 H   0  0  0  0  0  0
   -7.4107   25.9054   54.8700 H   0  0  0  0  0  0
   -6.3391   28.4394   50.9120 H   0  0  0  0  0  0
   -8.7387   25.7701   53.2916 H   0  0  0  0  0  0
   -7.8151   28.1542   49.0734 H   0  0  0  0  0  0
  -10.2617   25.5388   51.4033 H   0  0  0  0  0  0
   -9.8133   26.7040   49.2774 H   0  0  0  0  0  0
  1  2  1  0  0  0
  1  3  1  0  0  0
  1  6  1  0  0  0
  1  9  1  0  0  0
  2  4  1  0  0  0
  2 12  2  0  0  0
  3  5  1  0  0  0
  3 11  2  0  0  0
  4  7  1  0  0  0
  4 27  1  0  0  0
  5  7  1  0  0  0
  5 28  1  0  0  0
  6  8  1  0  0  0
  6 10  1  0  0  0
  7 14  2  0  0  0
  8 16  2  0  0  0
  8 13  1  0  0  0
  9 13  1  0  0  0
  9 29  1  0  0  0
  9 30  1  0  0  0
 10 17  1  0  0  0
 10 18  2  0  0  0
 13 31  1  0  0  0
 13 32  1  0  0  0
 15 20  2  0  0  0
 15 21  1  0  0  0
 15 19  1  0  0  0
 17 19  2  0  0  0
 17 33  1  0  0  0
 18 20  1  0  0  0
 18 34  1  0  0  0
 19 35  1  0  0  0
 20 36  1  0  0  0
 21 22  2  0  0  0
 21 23  1  0  0  0
 22 24  1  0  0  0
 22 37  1  0  0  0
 23 25  2  0  0  0
 23 38  1  0  0  0
 24 26  2  0  0  0
 24 39  1  0  0  0
 25 26  1  0  0  0
 25 40  1  0  0  0
 26 41  1  0  0  0
M  END
> <s_m_entry_id>
64227

> <s_m_entry_name>
dock_pv.177

> <s_m_Source_Path>
/home/csk/Desktop/cluster/DUD-E-result/mmp13

> <s_m_Source_File>
dock_pv.maegz

> <i_m_Source_File_Index>
177

> <chembl_id>
CHEMBL181022

> <chembl_pref_name>
None

> <i_lp_mmshare_version>
53161

> <i_f3d_flags>
0

> <r_lp_tautomer_probability>
0.999999998612168

> <s_lp_Force_Field>
OPLS_2005

> <r_lp_Energy>
40.11145

> <b_lp_Chiralities_Consistent>
1

> <s_lp_Variant>
CHEMBL280_lig2319-1

> <s_i_glide_gridfile>
glide-grid_830c

> <i_i_glide_lignum>
3315

> <i_i_glide_rotatable_bonds>
2

> <r_i_docking_score>
-7.28493732389681

> <r_i_glide_ligand_efficiency>
-0.280189897072954

> <r_i_glide_ligand_efficiency_sa>
-0.83006146758462

> <r_i_glide_ligand_efficiency_ln>
-1.71084362668812

> <r_i_glide_gscore>
-7.28493732389681

> <r_i_glide_lipo>
-2.3177819660284

> <r_i_glide_hbond>
-0.441351603671768

> <r_i_glide_metal>
0

> <r_i_glide_rewards>
-1.17722659090909

> <r_i_glide_evdw>
-39.5118064880371

> <r_i_glide_ecoul>
-10.0600185394287

> <r_i_glide_erotb>
0.31215655717759

> <r_i_glide_esite>
-0.176140615148982

> <r_i_glide_emodel>
-71.2635916806733

> <r_i_glide_energy>
-49.5718250274658

> <r_i_glide_einternal>
1.29765868186951

> <i_i_glide_confnum>
4

> <i_i_glide_posenum>
5

> <r_i_glide_eff_state_penalty>
0

> <s_user_duplicate_titles>
CHEMBL280_lig2319,300959

> <s_m_subgroup_title>
dock_pv

> <s_m_subgroupid>
dock_pv

> <b_m_subgroup_collapsed>
1

$$$$
CHEMBL280_lig957
                    3D
 Schrodinger Suite 2021-1.
 56 58  0  0  1  0            999 V2000
   -5.1392   28.5903   57.9765 S   0  0  0  0  0  0
   -3.4730   29.0046   57.5403 N   0  0  3  0  0  0
   -2.4272   27.9357   57.5464 C   0  0  2  0  0  0
   -0.9929   28.5270   57.8447 C   0  0  0  0  0  0
   -2.5112   27.0791   56.2515 C   0  0  0  0  0  0
   -3.2249   30.2574   56.7670 C   0  0  0  0  0  0
   -5.9387   28.1878   56.4269 C   0  0  0  0  0  0
   -5.1390   27.3700   58.7895 O   0  0  0  0  0  0
   -5.7806   29.8131   58.4652 O   0  0  0  0  0  0
   -9.5886   26.6380   50.2297 C   0  0  0  0  0  0
   -8.2824   26.9890   50.5927 C   0  0  0  0  0  0
  -10.1112   27.0279   48.9957 C   0  0  0  0  0  0
   -0.7386   29.7176   56.8718 C   0  0  0  0  0  0
   -2.7378   27.5568   55.1327 O   0  0  0  0  0  0
   -1.8068   30.8275   56.9918 C   0  0  1  0  0  0
   -2.3098   25.7700   56.4321 N   0  0  0  0  0  0
   -7.6724   26.5881   51.9358 C   0  0  0  0  0  0
   -7.5347   27.7700   49.7100 C   0  0  0  0  0  0
   -6.4630   29.2415   55.6872 C   0  0  0  0  0  0
   -6.0527   26.8709   55.9606 C   0  0  0  0  0  0
   -8.0464   27.5566   52.8992 O   0  0  0  0  0  0
   -9.3443   27.7904   48.1187 C   0  0  0  0  0  0
  -10.6008   25.7700   51.3100 Cl  0  0  0  0  0  0
   -7.2923   27.6803   54.0438 C   0  0  0  0  0  0
   -0.9519   29.0318   59.3100 C   0  0  0  0  0  0
    0.1379   27.4792   57.6540 C   0  0  0  0  0  0
   -8.0549   28.1701   48.4796 C   0  0  0  0  0  0
   -6.7272   26.6163   54.7608 C   0  0  0  0  0  0
   -7.1389   28.9759   54.5099 C   0  0  0  0  0  0
   -9.8570   28.1701   46.9272 F   0  0  0  0  0  0
   -2.3390   24.9438   55.3152 O   0  0  0  0  0  0
   -1.5378   31.8674   56.0792 O   0  0  0  0  0  0
   -2.6851   27.2469   58.3541 H   0  0  0  0  0  0
   -3.2882   29.9936   55.7103 H   0  0  0  0  0  0
   -3.9985   30.9918   56.9926 H   0  0  0  0  0  0
  -11.1212   26.7617   48.7211 H   0  0  0  0  0  0
    0.2402   30.1541   57.0774 H   0  0  0  0  0  0
   -0.6832   29.3700   55.8390 H   0  0  0  0  0  0
   -1.7570   31.2926   57.9764 H   0  0  0  0  0  0
   -2.2491   25.2713   57.3113 H   0  0  0  0  0  0
   -6.5864   26.5700   51.8409 H   0  0  0  0  0  0
   -7.9901   25.5891   52.2360 H   0  0  0  0  0  0
   -6.5372   28.0713   49.9815 H   0  0  0  0  0  0
   -6.3612   30.2637   56.0230 H   0  0  0  0  0  0
   -5.6370   26.0465   56.5246 H   0  0  0  0  0  0
   -0.0082   29.5306   59.5349 H   0  0  0  0  0  0
   -1.7501   29.7356   59.5429 H   0  0  0  0  0  0
   -1.0517   28.2051   60.0147 H   0  0  0  0  0  0
    1.1115   27.8977   57.9131 H   0  0  0  0  0  0
   -0.0151   26.6113   58.2966 H   0  0  0  0  0  0
    0.2194   27.1127   56.6318 H   0  0  0  0  0  0
   -7.4569   28.7691   47.8080 H   0  0  0  0  0  0
   -6.8335   25.5986   54.4155 H   0  0  0  0  0  0
   -7.5390   29.7847   53.9365 H   0  0  0  0  0  0
   -3.1606   24.4197   55.4642 H   0  0  0  0  0  0
   -2.1580   32.5831   56.2375 H   0  0  0  0  0  0
  1  2  1  0  0  0
  1  7  1  0  0  0
  1  8  2  0  0  0
  1  9  2  0  0  0
  2  3  1  0  0  0
  2  6  1  0  0  0
  3  4  1  0  0  0
  3  5  1  0  0  0
  3 33  1  0  0  0
  4 25  1  0  0  0
  4 26  1  0  0  0
  4 13  1  0  0  0
  5 14  2  0  0  0
  5 16  1  0  0  0
  6 15  1  0  0  0
  6 34  1  0  0  0
  6 35  1  0  0  0
  7 19  1  0  0  0
  7 20  2  0  0  0
 10 11  1  0  0  0
 10 12  2  0  0  0
 10 23  1  0  0  0
 11 17  1  0  0  0
 11 18  2  0  0  0
 12 22  1  0  0  0
 12 36  1  0  0  0
 13 15  1  0  0  0
 13 37  1  0  0  0
 13 38  1  0  0  0
 15 32  1  0  0  0
 15 39  1  0  0  0
 16 31  1  0  0  0
 16 40  1  0  0  0
 17 21  1  0  0  0
 17 41  1  0  0  0
 17 42  1  0  0  0
 18 27  1  0  0  0
 18 43  1  0  0  0
 19 29  2  0  0  0
 19 44  1  0  0  0
 20 28  1  0  0  0
 20 45  1  0  0  0
 21 24  1  0  0  0
 22 27  2  0  0  0
 22 30  1  0  0  0
 24 28  2  0  0  0
 24 29  1  0  0  0
 25 46  1  0  0  0
 25 47  1  0  0  0
 25 48  1  0  0  0
 26 49  1  0  0  0
 26 50  1  0  0  0
 26 51  1  0  0  0
 27 52  1  0  0  0
 28 53  1  0  0  0
 29 54  1  0  0  0
 31 55  1  0  0  0
 32 56  1  0  0  0
M  END
> <s_m_entry_id>
64228

> <s_m_entry_name>
dock_pv.178

> <s_m_Source_Path>
/home/csk/Desktop/cluster/DUD-E-result/mmp13

> <s_m_Source_File>
dock_pv.maegz

> <i_m_Source_File_Index>
178

> <chembl_id>
CHEMBL372878

> <chembl_pref_name>
None

> <i_lp_mmshare_version>
53161

> <i_f3d_flags>
0

> <r_lp_tautomer_probability>
1

> <s_lp_Force_Field>
OPLS_2005

> <r_lp_Energy>
23.364805

> <b_lp_Chiralities_Consistent>
1

> <s_lp_Variant>
CHEMBL280_lig957-1

> <s_i_glide_gridfile>
glide-grid_830c

> <i_i_glide_lignum>
1604

> <i_i_glide_rotatable_bonds>
9

> <r_i_docking_score>
-7.28036558937338

> <r_i_glide_ligand_efficiency>
-0.227511424667918

> <r_i_glide_ligand_efficiency_sa>
-0.722303748870836

> <r_i_glide_ligand_efficiency_ln>
-1.63027231073138

> <r_i_glide_gscore>
-7.28036558937338

> <r_i_glide_lipo>
-3.38249043593971

> <r_i_glide_hbond>
0

> <r_i_glide_metal>
0

> <r_i_glide_rewards>
0.187931411140093

> <r_i_glide_evdw>
-40.9477233886719

> <r_i_glide_ecoul>
-15.798882484436

> <r_i_glide_erotb>
0.600055520550706

> <r_i_glide_esite>
-0.268643543025473

> <r_i_glide_emodel>
-79.9776595418769

> <r_i_glide_energy>
-56.7466058731079

> <r_i_glide_einternal>
11.2913265228271

> <i_i_glide_confnum>
48

> <i_i_glide_posenum>
133

> <r_i_glide_eff_state_penalty>
0

> <s_user_duplicate_titles>
CHEMBL280_lig957,319914

> <s_m_subgroup_title>
dock_pv

> <s_m_subgroupid>
dock_pv

> <b_m_subgroup_collapsed>
1

$$$$
CHEMBL280_lig598
                    3D
 Schrodinger Suite 2021-1.
 43 45  0  0  1  0            999 V2000
   -5.8319   28.8821   56.8997 S   0  0  0  0  0  0
   -3.9645   28.5980   56.7493 C   0  0  2  0  0  0
   -6.4568   28.0097   55.4617 C   0  0  0  0  0  0
   -6.1286   30.3068   56.7132 O   0  0  0  0  0  0
   -6.3160   28.1686   58.0862 O   0  0  0  0  0  0
   -3.5083   27.5428   57.7799 C   0  0  0  0  0  0
   -6.3719   26.6172   55.3815 C   0  0  0  0  0  0
   -7.0095   28.7364   54.4111 C   0  0  0  0  0  0
   -7.9397   25.9619   52.1284 O   0  0  0  0  0  0
   -7.4299   26.6786   53.1983 C   0  0  0  0  0  0
   -2.0271   27.2032   57.5830 C   0  0  1  0  0  0
   -1.8178   26.1703   56.1098 S   0  0  0  0  0  0
   -7.5013   28.0720   53.2952 C   0  0  0  0  0  0
   -6.8468   25.9615   54.2443 C   0  0  0  0  0  0
   -8.3691   26.5709   50.9657 C   0  0  0  0  0  0
   -3.1498   29.8992   56.8641 C   0  0  0  0  0  0
   -1.6458   29.5995   56.6805 C   0  0  0  0  0  0
   -1.1445   28.4758   57.6189 C   0  0  0  0  0  0
   -7.5131   27.3696   50.2015 C   0  0  0  0  0  0
   -9.6764   26.3556   50.5285 C   0  0  0  0  0  0
  -10.1376   26.9652   49.3631 C   0  0  0  0  0  0
   -7.9668   27.9742   49.0330 C   0  0  0  0  0  0
   -9.2803   27.7718   48.6205 C   0  0  0  0  0  0
   -3.8811   28.2206   55.7309 H   0  0  0  0  0  0
   -3.6651   27.9240   58.7900 H   0  0  0  0  0  0
   -4.1139   26.6387   57.7008 H   0  0  0  0  0  0
   -5.9407   26.0379   56.1871 H   0  0  0  0  0  0
   -7.0663   29.8138   54.4546 H   0  0  0  0  0  0
   -1.6995   26.4979   58.3489 H   0  0  0  0  0  0
   -2.6787   25.2219   56.5099 H   0  0  0  0  0  0
   -7.9382   28.6489   52.5015 H   0  0  0  0  0  0
   -6.7681   24.8846   54.1821 H   0  0  0  0  0  0
   -3.4765   30.6198   56.1123 H   0  0  0  0  0  0
   -3.3231   30.3629   57.8358 H   0  0  0  0  0  0
   -1.4638   29.3123   55.6433 H   0  0  0  0  0  0
   -1.0649   30.5086   56.8442 H   0  0  0  0  0  0
   -1.1267   28.8573   58.6411 H   0  0  0  0  0  0
   -0.1097   28.2252   57.3812 H   0  0  0  0  0  0
   -6.4947   27.5336   50.5222 H   0  0  0  0  0  0
  -10.3359   25.7252   51.1041 H   0  0  0  0  0  0
  -11.1533   26.8108   49.0321 H   0  0  0  0  0  0
   -7.3001   28.5960   48.4533 H   0  0  0  0  0  0
   -9.6351   28.2406   47.7136 H   0  0  0  0  0  0
  1  2  1  0  0  0
  1  3  1  0  0  0
  1  4  2  0  0  0
  1  5  2  0  0  0
  2  6  1  0  0  0
  2 16  1  0  0  0
  2 24  1  0  0  0
  3  7  1  0  0  0
  3  8  2  0  0  0
  6 11  1  0  0  0
  6 25  1  0  0  0
  6 26  1  0  0  0
  7 14  2  0  0  0
  7 27  1  0  0  0
  8 13  1  0  0  0
  8 28  1  0  0  0
  9 10  1  0  0  0
  9 15  1  0  0  0
 10 13  2  0  0  0
 10 14  1  0  0  0
 11 12  1  0  0  0
 11 18  1  0  0  0
 11 29  1  0  0  0
 12 30  1  0  0  0
 13 31  1  0  0  0
 14 32  1  0  0  0
 15 19  2  0  0  0
 15 20  1  0  0  0
 16 17  1  0  0  0
 16 33  1  0  0  0
 16 34  1  0  0  0
 17 18  1  0  0  0
 17 35  1  0  0  0
 17 36  1  0  0  0
 18 37  1  0  0  0
 18 38  1  0  0  0
 19 22  1  0  0  0
 19 39  1  0  0  0
 20 21  2  0  0  0
 20 40  1  0  0  0
 21 23  1  0  0  0
 21 41  1  0  0  0
 22 23  2  0  0  0
 22 42  1  0  0  0
 23 43  1  0  0  0
M  END
> <s_m_entry_id>
64229

> <s_m_entry_name>
dock_pv.179

> <s_m_Source_Path>
/home/csk/Desktop/cluster/DUD-E-result/mmp13

> <s_m_Source_File>
dock_pv.maegz

> <i_m_Source_File_Index>
179

> <chembl_id>
CHEMBL48474

> <chembl_pref_name>
None

> <i_lp_mmshare_version>
53161

> <i_f3d_flags>
0

> <r_lp_tautomer_probability>
1

> <s_lp_Force_Field>
OPLS_2005

> <r_lp_Energy>
11.922247

> <b_lp_Chiralities_Consistent>
1

> <s_lp_Variant>
CHEMBL280_lig598-3

> <s_i_glide_gridfile>
glide-grid_830c

> <i_i_glide_lignum>
864

> <i_i_glide_rotatable_bonds>
5

> <r_i_docking_score>
-7.27841473374045

> <r_i_glide_ligand_efficiency>
-0.316452814510455

> <r_i_glide_ligand_efficiency_sa>
-0.899949708926778

> <r_i_glide_ligand_efficiency_ln>
-1.75998667963441

> <r_i_glide_gscore>
-7.27841473374045

> <r_i_glide_lipo>
-3.35276855927282

> <r_i_glide_hbond>
0

> <r_i_glide_metal>
0

> <r_i_glide_rewards>
-1.08932317121119

> <r_i_glide_evdw>
-45.0989952087402

> <r_i_glide_ecoul>
-7.2911376953125

> <r_i_glide_erotb>
0.627049164924369

> <r_i_glide_esite>
-0.11475175344693

> <r_i_glide_emodel>
-73.3219324530766

> <r_i_glide_energy>
-52.3901329040527

> <r_i_glide_einternal>
6.08744144439697

> <i_i_glide_confnum>
32

> <i_i_glide_posenum>
395

> <r_i_glide_eff_state_penalty>
0

> <s_user_duplicate_titles>
CHEMBL280_lig598,75735

> <s_m_subgroup_title>
dock_pv

> <s_m_subgroupid>
dock_pv

> <b_m_subgroup_collapsed>
1

$$$$
CHEMBL280_lig451
                    3D
 Schrodinger Suite 2021-1.
 47 48  0  0  1  0            999 V2000
   -6.3104   28.3083   55.2997 S   0  0  0  0  0  0
   -3.5699   28.9198   56.3174 C   0  0  2  0  0  0
   -4.4153   28.1700   55.2163 C   0  0  0  0  0  0
   -3.5138   28.1935   57.7097 C   0  0  0  0  0  0
   -3.9849   30.3322   56.5100 N   0  0  0  0  0  0
   -6.9374   27.6658   53.7423 C   0  0  0  0  0  0
   -4.8947   30.9126   57.3214 C   0  0  0  0  0  0
   -6.7390   27.3829   56.3516 O   0  0  0  0  0  0
   -6.7389   29.7097   55.3048 O   0  0  0  0  0  0
   -2.5216   28.3286   58.4350 O   0  0  0  0  0  0
   -4.5889   27.4806   58.0857 N   0  0  0  0  0  0
   -5.5545   30.3143   58.1654 O   0  0  0  0  0  0
   -6.3358   28.0052   52.5292 C   0  0  0  0  0  0
   -8.0958   26.8910   53.7380 C   0  0  0  0  0  0
   -8.6950   26.3861   50.1760 O   0  0  0  0  0  0
   -8.0874   26.8689   51.3143 C   0  0  0  0  0  0
   -2.1245   28.9634   55.7480 C   0  0  0  0  0  0
   -8.6553   26.4950   52.5253 C   0  0  0  0  0  0
   -6.8978   27.5950   51.3247 C   0  0  0  0  0  0
   -9.0313   27.1405   49.0661 C   0  0  0  0  0  0
   -4.6194   26.9700   59.3876 O   0  0  0  0  0  0
   -5.1098   32.4076   57.1291 C   0  0  0  0  0  0
   -9.9939   26.5700   48.2322 C   0  0  0  0  0  0
   -8.4669   28.3725   48.7022 C   0  0  0  0  0  0
   -8.8219   28.9829   47.5027 C   0  0  0  0  0  0
  -10.3584   27.1798   47.0354 C   0  0  0  0  0  0
   -9.7612   28.3818   46.6703 C   0  0  0  0  0  0
   -4.1595   28.5700   54.2400 H   0  0  0  0  0  0
   -4.2004   27.1032   55.1956 H   0  0  0  0  0  0
   -3.7347   30.9162   55.7249 H   0  0  0  0  0  0
   -5.4618   27.3579   57.5764 H   0  0  0  0  0  0
   -5.4247   28.5726   52.4929 H   0  0  0  0  0  0
   -8.5731   26.6101   54.6665 H   0  0  0  0  0  0
   -1.6720   27.9721   55.7097 H   0  0  0  0  0  0
   -2.0898   29.3695   54.7375 H   0  0  0  0  0  0
   -1.4661   29.5873   56.3566 H   0  0  0  0  0  0
   -9.5390   25.8803   52.5095 H   0  0  0  0  0  0
   -6.3713   27.8000   50.4065 H   0  0  0  0  0  0
   -4.3391   26.0416   59.2690 H   0  0  0  0  0  0
   -4.5462   32.7935   56.2790 H   0  0  0  0  0  0
   -4.8023   32.9465   58.0249 H   0  0  0  0  0  0
   -6.1672   32.6063   56.9545 H   0  0  0  0  0  0
  -10.4303   25.6204   48.5018 H   0  0  0  0  0  0
   -7.7439   28.8857   49.3100 H   0  0  0  0  0  0
   -8.3687   29.9227   47.2206 H   0  0  0  0  0  0
  -11.0910   26.7179   46.3906 H   0  0  0  0  0  0
  -10.0322   28.8572   45.7388 H   0  0  0  0  0  0
  1  3  1  0  0  0
  1  6  1  0  0  0
  1  8  2  0  0  0
  1  9  2  0  0  0
  2  3  1  0  0  0
  2  4  1  0  0  0
  2  5  1  0  0  0
  2 17  1  0  0  0
  3 28  1  0  0  0
  3 29  1  0  0  0
  4 10  2  0  0  0
  4 11  1  0  0  0
  5  7  1  0  0  0
  5 30  1  0  0  0
  6 13  1  0  0  0
  6 14  2  0  0  0
  7 12  2  0  0  0
  7 22  1  0  0  0
 11 21  1  0  0  0
 11 31  1  0  0  0
 13 19  2  0  0  0
 13 32  1  0  0  0
 14 18  1  0  0  0
 14 33  1  0  0  0
 15 16  1  0  0  0
 15 20  1  0  0  0
 16 18  2  0  0  0
 16 19  1  0  0  0
 17 34  1  0  0  0
 17 35  1  0  0  0
 17 36  1  0  0  0
 18 37  1  0  0  0
 19 38  1  0  0  0
 20 23  2  0  0  0
 20 24  1  0  0  0
 21 39  1  0  0  0
 22 40  1  0  0  0
 22 41  1  0  0  0
 22 42  1  0  0  0
 23 26  1  0  0  0
 23 43  1  0  0  0
 24 25  2  0  0  0
 24 44  1  0  0  0
 25 27  1  0  0  0
 25 45  1  0  0  0
 26 27  2  0  0  0
 26 46  1  0  0  0
 27 47  1  0  0  0
M  END
> <s_m_entry_id>
64230

> <s_m_entry_name>
dock_pv.180

> <s_m_Source_Path>
/home/csk/Desktop/cluster/DUD-E-result/mmp13

> <s_m_Source_File>
dock_pv.maegz

> <i_m_Source_File_Index>
180

> <chembl_id>
CHEMBL92327

> <chembl_pref_name>
None

> <i_lp_mmshare_version>
53161

> <i_f3d_flags>
0

> <r_lp_tautomer_probability>
1

> <s_lp_Force_Field>
OPLS_2005

> <r_lp_Energy>
18.509954

> <b_lp_Chiralities_Consistent>
1

> <s_lp_Variant>
CHEMBL280_lig451-2

> <s_i_glide_gridfile>
glide-grid_830c

> <i_i_glide_lignum>
644

> <i_i_glide_rotatable_bonds>
10

> <r_i_docking_score>
-7.273581992528

> <r_i_glide_ligand_efficiency>
-0.269391925649185

> <r_i_glide_ligand_efficiency_sa>
-0.808175776059684

> <r_i_glide_ligand_efficiency_ln>
-1.69316997348955

> <r_i_glide_gscore>
-7.273581992528

> <r_i_glide_lipo>
-3.55676760549498

> <r_i_glide_hbond>
-0.169098582011543

> <r_i_glide_metal>
0

> <r_i_glide_rewards>
-0.732981195350578

> <r_i_glide_evdw>
-41.8328666687012

> <r_i_glide_ecoul>
-11.4211292266846

> <r_i_glide_erotb>
1.0142731661085

> <r_i_glide_esite>
-0.0241950583416561

> <r_i_glide_emodel>
-63.8117570166191

> <r_i_glide_energy>
-53.2539958953857

> <r_i_glide_einternal>
11.4337844848633

> <i_i_glide_confnum>
123

> <i_i_glide_posenum>
37

> <r_i_glide_eff_state_penalty>
0

> <s_user_duplicate_titles>
CHEMBL280_lig451

> <s_m_subgroup_title>
dock_pv

> <s_m_subgroupid>
dock_pv

> <b_m_subgroup_collapsed>
1

$$$$
CHEMBL280_lig2346
                    3D
 Schrodinger Suite 2021-1.
 60 63  0  0  1  0            999 V2000
   -5.9240   26.7493   56.6786 S   0  0  0  0  0  0
   -4.0531   26.7203   56.5610 C   0  0  0  0  0  0
   -9.0628   29.3729   46.3902 N   0  0  0  0  0  0
   -3.3042   28.0478   56.8870 C   0  0  1  0  0  0
   -8.0993   28.0932   48.7554 C   0  0  0  0  0  0
   -9.6359   28.2495   46.8452 C   0  0  0  0  0  0
   -1.8391   28.0184   56.3563 C   0  0  0  0  0  0
   -6.4706   27.1315   55.0285 C   0  0  0  0  0  0
   -1.1196   26.6724   56.5129 C   0  0  0  0  0  0
   -9.2342   27.5929   48.0583 C   0  0  0  0  0  0
   -6.3397   25.3710   56.9110 O   0  0  0  0  0  0
   -6.3390   27.8225   57.5876 O   0  0  0  0  0  0
   -3.9575   29.2046   56.2861 N   0  0  1  0  0  0
   -8.0117   29.8453   47.0674 C   0  0  0  0  0  0
   -7.4579   29.2020   48.1795 C   0  0  0  0  0  0
   -7.5675   27.3334   50.0041 C   0  0  0  0  0  0
   -1.3884   25.7703   55.7105 O   0  0  0  0  0  0
   -6.8122   26.1178   54.1270 C   0  0  0  0  0  0
   -6.4977   28.4556   54.6324 C   0  0  0  0  0  0
   -0.2057   26.5930   57.4976 N   0  0  0  0  0  0
   -7.1862   28.1986   51.0610 O   0  0  0  0  0  0
   -7.0365   27.7640   52.3681 C   0  0  0  0  0  0
   -7.1394   26.4400   52.8079 C   0  0  0  0  0  0
   -6.7396   28.7470   53.3067 C   0  0  0  0  0  0
    0.4628   25.3780   57.7108 O   0  0  0  0  0  0
   -3.3148   28.3363   58.4066 C   0  0  0  0  0  0
  -10.6329   27.7125   46.0273 C   0  0  0  0  0  0
   -4.1663   30.2453   57.2849 C   0  0  0  0  0  0
   -9.9348   26.4307   48.4409 C   0  0  0  0  0  0
   -7.5066   31.1513   46.5092 C   0  0  0  0  0  0
   -3.3368   29.8543   58.4988 C   0  0  0  0  0  0
  -11.1389   26.4803   46.3548 C   0  0  0  0  0  0
  -10.7390   25.8217   47.5192 C   0  0  0  0  0  0
   -3.8614   26.3595   55.5569 H   0  0  0  0  0  0
   -3.7375   25.9449   57.2581 H   0  0  0  0  0  0
   -1.8261   28.2425   55.2898 H   0  0  0  0  0  0
   -1.2501   28.8190   56.8102 H   0  0  0  0  0  0
   -3.4846   29.5666   55.4692 H   0  0  0  0  0  0
   -6.5829   29.6190   48.6455 H   0  0  0  0  0  0
   -6.7393   26.6964   49.7128 H   0  0  0  0  0  0
   -8.3237   26.6880   50.4314 H   0  0  0  0  0  0
   -6.7897   25.0817   54.4372 H   0  0  0  0  0  0
   -6.2745   29.2548   55.3232 H   0  0  0  0  0  0
    0.0578   27.3091   58.1602 H   0  0  0  0  0  0
   -7.3819   25.6455   52.1217 H   0  0  0  0  0  0
   -6.6640   29.7699   53.0042 H   0  0  0  0  0  0
    1.2685   25.4542   57.1826 H   0  0  0  0  0  0
   -2.4947   27.8615   58.9468 H   0  0  0  0  0  0
   -4.2209   27.9488   58.8723 H   0  0  0  0  0  0
  -10.9309   28.2157   45.1183 H   0  0  0  0  0  0
   -3.8491   31.2058   56.8780 H   0  0  0  0  0  0
   -5.2248   30.3238   57.5379 H   0  0  0  0  0  0
   -9.7154   25.8629   49.3266 H   0  0  0  0  0  0
   -7.1390   31.7757   47.3087 H   0  0  0  0  0  0
   -6.7295   30.9707   45.7699 H   0  0  0  0  0  0
   -8.3003   31.7187   46.0169 H   0  0  0  0  0  0
   -2.3365   30.2868   58.4438 H   0  0  0  0  0  0
   -3.7977   30.2107   59.4203 H   0  0  0  0  0  0
  -11.8570   26.0218   45.6944 H   0  0  0  0  0  0
  -11.1012   24.8384   47.7715 H   0  0  0  0  0  0
  1  2  1  0  0  0
  1  8  1  0  0  0
  1 11  2  0  0  0
  1 12  2  0  0  0
  2  4  1  0  0  0
  2 34  1  0  0  0
  2 35  1  0  0  0
  3 14  1  0  0  0
  3  6  2  0  0  0
  4  7  1  0  0  0
  4 13  1  0  0  0
  4 26  1  0  0  0
  5 16  1  0  0  0
  5 10  2  0  0  0
  5 15  1  0  0  0
  6 10  1  0  0  0
  6 27  1  0  0  0
  7  9  1  0  0  0
  7 36  1  0  0  0
  7 37  1  0  0  0
  8 18  1  0  0  0
  8 19  2  0  0  0
  9 17  2  0  0  0
  9 20  1  0  0  0
 10 29  1  0  0  0
 13 28  1  0  0  0
 13 38  1  0  0  0
 14 15  2  0  0  0
 14 30  1  0  0  0
 15 39  1  0  0  0
 16 21  1  0  0  0
 16 40  1  0  0  0
 16 41  1  0  0  0
 18 23  2  0  0  0
 18 42  1  0  0  0
 19 24  1  0  0  0
 19 43  1  0  0  0
 20 25  1  0  0  0
 20 44  1  0  0  0
 21 22  1  0  0  0
 22 24  2  0  0  0
 22 23  1  0  0  0
 23 45  1  0  0  0
 24 46  1  0  0  0
 25 47  1  0  0  0
 26 31  1  0  0  0
 26 48  1  0  0  0
 26 49  1  0  0  0
 27 32  2  0  0  0
 27 50  1  0  0  0
 28 31  1  0  0  0
 28 51  1  0  0  0
 28 52  1  0  0  0
 29 33  2  0  0  0
 29 53  1  0  0  0
 30 54  1  0  0  0
 30 55  1  0  0  0
 30 56  1  0  0  0
 31 57  1  0  0  0
 31 58  1  0  0  0
 32 33  1  0  0  0
 32 59  1  0  0  0
 33 60  1  0  0  0
M  END
> <s_m_entry_id>
64231

> <s_m_entry_name>
dock_pv.181

> <s_m_Source_Path>
/home/csk/Desktop/cluster/DUD-E-result/mmp13

> <s_m_Source_File>
dock_pv.maegz

> <i_m_Source_File_Index>
181

> <chembl_id>
CHEMBL364589

> <chembl_pref_name>
None

> <i_lp_mmshare_version>
53161

> <i_f3d_flags>
0

> <r_lp_tautomer_probability>
1

> <s_lp_Force_Field>
OPLS_2005

> <r_lp_Energy>
46.0036

> <b_lp_Chiralities_Consistent>
1

> <s_lp_Variant>
CHEMBL280_lig2346-1

> <s_i_glide_gridfile>
glide-grid_830c

> <i_i_glide_lignum>
3386

> <i_i_glide_rotatable_bonds>
10

> <r_i_docking_score>
-7.27188929230451

> <r_i_glide_ligand_efficiency>
-0.220360281584985

> <r_i_glide_ligand_efficiency_sa>
-0.706813167327595

> <r_i_glide_ligand_efficiency_ln>
-1.61723052678085

> <r_i_glide_gscore>
-7.27188929230451

> <r_i_glide_lipo>
-4.37184486342813

> <r_i_glide_hbond>
-0.106844134359265

> <r_i_glide_metal>
0

> <r_i_glide_rewards>
-0.308984306354133

> <r_i_glide_evdw>
-28.584171295166

> <r_i_glide_ecoul>
-11.1066541671753

> <r_i_glide_erotb>
0.824494324581988

> <r_i_glide_esite>
-0.213503622910383

> <r_i_glide_emodel>
-51.3609322811156

> <r_i_glide_energy>
-39.6908254623413

> <r_i_glide_einternal>
9.54847049713135

> <i_i_glide_confnum>
98

> <i_i_glide_posenum>
363

> <r_i_glide_eff_state_penalty>
0

> <s_user_duplicate_titles>
CHEMBL280_lig2346

> <s_m_subgroup_title>
dock_pv

> <s_m_subgroupid>
dock_pv

> <b_m_subgroup_collapsed>
1

$$$$
CHEMBL280_lig2283
                    3D
 Schrodinger Suite 2021-1.
 44 46  0  0  1  0            999 V2000
   -3.1385   27.9422   55.9362 S   0  0  0  0  0  0
   -4.8767   28.3210   55.8476 N   0  0  2  0  0  0
   -5.2694   29.2343   56.9725 C   0  0  1  0  0  0
   -6.5470   30.0838   56.7446 C   0  0  0  0  0  0
   -2.3453   29.1673   56.0714 O   0  0  0  0  0  0
   -2.7431   26.9700   54.9100 O   0  0  0  0  0  0
   -5.7760   27.1484   55.5611 C   0  0  0  0  0  0
   -7.0491   30.6688   57.7071 O   0  0  0  0  0  0
   -7.7707   27.2612   51.6811 C   0  0  0  0  0  0
   -3.2283   27.0577   57.5997 C   0  0  0  0  0  0
   -7.0609   30.1670   55.5042 N   0  0  0  0  0  0
   -9.7174   27.5096   47.8031 N   0  0  0  0  0  0
   -8.4414   27.3121   50.3329 C   0  0  0  0  0  0
   -8.2213   26.4262   52.7128 C   0  0  0  0  0  0
   -6.6593   28.0662   51.9545 C   0  0  0  0  0  0
   -6.4601   27.1945   54.1932 C   0  0  0  0  0  0
   -5.2160   28.5548   58.3646 C   0  0  0  0  0  0
   -7.5853   26.4069   53.9566 C   0  0  0  0  0  0
   -5.9801   27.9954   53.1638 C   0  0  0  0  0  0
   -8.1953   30.9704   55.3100 O   0  0  0  0  0  0
   -3.8205   27.9735   58.6875 C   0  0  0  0  0  0
   -8.4571   27.9648   47.9920 C   0  0  0  0  0  0
  -10.3389   26.9448   48.8645 C   0  0  0  0  0  0
   -7.7963   27.8754   49.2166 C   0  0  0  0  0  0
   -9.7455   26.8262   50.1231 C   0  0  0  0  0  0
   -4.5371   30.0442   56.9706 H   0  0  0  0  0  0
   -5.2023   26.2221   55.6190 H   0  0  0  0  0  0
   -6.5412   27.0782   56.3346 H   0  0  0  0  0  0
   -2.2231   26.7308   57.8615 H   0  0  0  0  0  0
   -3.8368   26.1702   57.4532 H   0  0  0  0  0  0
   -6.7076   29.7406   54.6574 H   0  0  0  0  0  0
   -9.0699   25.7797   52.5607 H   0  0  0  0  0  0
   -6.3068   28.7720   51.2256 H   0  0  0  0  0  0
   -5.4271   29.2937   59.1399 H   0  0  0  0  0  0
   -5.9287   27.7317   58.4158 H   0  0  0  0  0  0
   -7.9623   25.7714   54.7400 H   0  0  0  0  0  0
   -5.0838   28.5732   53.3017 H   0  0  0  0  0  0
   -8.9259   30.3558   55.4230 H   0  0  0  0  0  0
   -3.1238   28.7941   58.8701 H   0  0  0  0  0  0
   -3.8763   27.4080   59.6203 H   0  0  0  0  0  0
   -7.9660   28.4014   47.1335 H   0  0  0  0  0  0
  -11.3450   26.5926   48.6897 H   0  0  0  0  0  0
   -6.7835   28.2457   49.2670 H   0  0  0  0  0  0
  -10.3191   26.3740   50.9148 H   0  0  0  0  0  0
  1  2  1  0  0  0
  1  5  2  0  0  0
  1  6  2  0  0  0
  1 10  1  0  0  0
  2  3  1  0  0  0
  2  7  1  0  0  0
  3  4  1  0  0  0
  3 17  1  0  0  0
  3 26  1  0  0  0
  4  8  2  0  0  0
  4 11  1  0  0  0
  7 16  1  0  0  0
  7 27  1  0  0  0
  7 28  1  0  0  0
  9 15  2  0  0  0
  9 13  1  0  0  0
  9 14  1  0  0  0
 10 21  1  0  0  0
 10 29  1  0  0  0
 10 30  1  0  0  0
 11 20  1  0  0  0
 11 31  1  0  0  0
 12 23  1  0  0  0
 12 22  2  0  0  0
 13 24  2  0  0  0
 13 25  1  0  0  0
 14 18  2  0  0  0
 14 32  1  0  0  0
 15 19  1  0  0  0
 15 33  1  0  0  0
 16 18  1  0  0  0
 16 19  2  0  0  0
 17 21  1  0  0  0
 17 34  1  0  0  0
 17 35  1  0  0  0
 18 36  1  0  0  0
 19 37  1  0  0  0
 20 38  1  0  0  0
 21 39  1  0  0  0
 21 40  1  0  0  0
 22 24  1  0  0  0
 22 41  1  0  0  0
 23 25  2  0  0  0
 23 42  1  0  0  0
 24 43  1  0  0  0
 25 44  1  0  0  0
M  END
> <s_m_entry_id>
64232

> <s_m_entry_name>
dock_pv.182

> <s_m_Source_Path>
/home/csk/Desktop/cluster/DUD-E-result/mmp13

> <s_m_Source_File>
dock_pv.maegz

> <i_m_Source_File_Index>
182

> <chembl_id>
CHEMBL322433

> <chembl_pref_name>
None

> <i_lp_mmshare_version>
53161

> <i_f3d_flags>
0

> <r_lp_tautomer_probability>
1

> <s_lp_Force_Field>
OPLS_2005

> <r_lp_Energy>
12.165394

> <b_lp_Chiralities_Consistent>
1

> <s_lp_Variant>
CHEMBL280_lig2283-1

> <s_i_glide_gridfile>
glide-grid_830c

> <i_i_glide_lignum>
3259

> <i_i_glide_rotatable_bonds>
6

> <r_i_docking_score>
-7.25847363611036

> <r_i_glide_ligand_efficiency>
-0.290338945444415

> <r_i_glide_ligand_efficiency_sa>
-0.848956225662591

> <r_i_glide_ligand_efficiency_ln>
-1.72047577066033

> <r_i_glide_gscore>
-7.25847363611036

> <r_i_glide_lipo>
-3.43922330473949

> <r_i_glide_hbond>
0

> <r_i_glide_metal>
0

> <r_i_glide_rewards>
-0.992883421823313

> <r_i_glide_evdw>
-42.4477081298828

> <r_i_glide_ecoul>
-8.17563056945801

> <r_i_glide_erotb>
0.734573197286601

> <r_i_glide_esite>
-0.21221011492132

> <r_i_glide_emodel>
-68.4313306410811

> <r_i_glide_energy>
-50.6233386993408

> <r_i_glide_einternal>
1.93037509918213

> <i_i_glide_confnum>
16

> <i_i_glide_posenum>
44

> <r_i_glide_eff_state_penalty>
0

> <s_user_duplicate_titles>
CHEMBL280_lig2283,165336

> <s_m_subgroup_title>
dock_pv

> <s_m_subgroupid>
dock_pv

> <b_m_subgroup_collapsed>
1

$$$$
CHEMBL280_lig262
                    3D
 Schrodinger Suite 2021-1.
 47 50  0  0  1  0            999 V2000
   -6.0861   26.4034   56.4696 C   0  0  0  0  0  0
   -6.2652   27.4207   55.6111 N   0  0  0  0  0  0
   -5.1831   26.8773   57.3441 N   0  0  0  0  0  0
   -4.3759   27.9616   56.8049 C   0  0  1  0  0  0
   -3.0014   27.5014   56.2603 C   0  0  0  0  0  0
   -5.2830   28.4868   55.7117 C   0  0  0  0  0  0
   -7.9984   28.1687   48.4723 C   0  0  0  0  0  0
   -7.5391   27.5611   54.9111 C   0  0  0  0  0  0
   -7.5384   27.1665   49.3099 O   0  0  0  0  0  0
   -9.2024   27.9226   47.8167 C   0  0  0  0  0  0
   -6.7390   25.3700   56.5447 O   0  0  0  0  0  0
   -2.0741   28.3108   56.2171 O   0  0  0  0  0  0
   -2.8511   26.2175   55.8743 N   0  0  0  0  0  0
   -7.5730   27.2277   50.6733 C   0  0  0  0  0  0
   -9.6214   28.6955   46.6923 C   0  0  0  0  0  0
   -7.4666   27.3380   53.4339 C   0  0  0  0  0  0
   -1.5391   25.7702   55.7100 O   0  0  0  0  0  0
   -8.2564   26.2684   51.4250 C   0  0  0  0  0  0
   -6.8059   28.1703   51.3177 C   0  0  0  0  0  0
   -6.7391   28.2386   52.6864 C   0  0  0  0  0  0
   -8.2043   26.3298   52.8167 C   0  0  0  0  0  0
   -7.2717   29.2868   48.0818 C   0  0  0  0  0  0
   -7.7089   30.1229   47.0516 C   0  0  0  0  0  0
   -9.9889   26.8761   48.2629 C   0  0  0  0  0  0
   -8.8404   29.8063   46.3150 C   0  0  0  0  0  0
  -10.8117   28.3275   46.0108 C   0  0  0  0  0  0
  -11.1366   26.5700   47.6131 C   0  0  0  0  0  0
  -11.5623   27.2482   46.4742 C   0  0  0  0  0  0
   -4.7382   26.2435   57.9983 H   0  0  0  0  0  0
   -4.1947   28.7239   57.5651 H   0  0  0  0  0  0
   -5.7639   29.4220   56.0032 H   0  0  0  0  0  0
   -4.7657   28.6469   54.7647 H   0  0  0  0  0  0
   -8.2949   26.8825   55.3100 H   0  0  0  0  0  0
   -7.9053   28.5796   55.0479 H   0  0  0  0  0  0
   -3.5036   25.4693   56.1102 H   0  0  0  0  0  0
   -1.0234   26.4111   56.2210 H   0  0  0  0  0  0
   -8.8103   25.4782   50.9411 H   0  0  0  0  0  0
   -6.3391   28.9507   50.7617 H   0  0  0  0  0  0
   -6.1958   29.0461   53.1504 H   0  0  0  0  0  0
   -8.7388   25.6159   53.4190 H   0  0  0  0  0  0
   -6.3390   29.5055   48.5468 H   0  0  0  0  0  0
   -7.1389   30.9948   46.7714 H   0  0  0  0  0  0
   -9.7006   26.2783   49.1113 H   0  0  0  0  0  0
   -9.1438   30.4250   45.4828 H   0  0  0  0  0  0
  -11.1313   28.8910   45.1461 H   0  0  0  0  0  0
  -11.5441   25.7295   48.1095 H   0  0  0  0  0  0
  -12.4704   26.9545   45.9699 H   0  0  0  0  0  0
  1  2  1  0  0  0
  1  3  1  0  0  0
  1 11  2  0  0  0
  2  6  1  0  0  0
  2  8  1  0  0  0
  3  4  1  0  0  0
  3 29  1  0  0  0
  4  5  1  0  0  0
  4  6  1  0  0  0
  4 30  1  0  0  0
  5 12  2  0  0  0
  5 13  1  0  0  0
  6 31  1  0  0  0
  6 32  1  0  0  0
  7  9  1  0  0  0
  7 10  1  0  0  0
  7 22  2  0  0  0
  8 16  1  0  0  0
  8 33  1  0  0  0
  8 34  1  0  0  0
  9 14  1  0  0  0
 10 15  1  0  0  0
 10 24  2  0  0  0
 13 17  1  0  0  0
 13 35  1  0  0  0
 14 18  1  0  0  0
 14 19  2  0  0  0
 15 26  2  0  0  0
 15 25  1  0  0  0
 16 20  2  0  0  0
 16 21  1  0  0  0
 17 36  1  0  0  0
 18 21  2  0  0  0
 18 37  1  0  0  0
 19 20  1  0  0  0
 19 38  1  0  0  0
 20 39  1  0  0  0
 21 40  1  0  0  0
 22 23  1  0  0  0
 22 41  1  0  0  0
 23 25  2  0  0  0
 23 42  1  0  0  0
 24 27  1  0  0  0
 24 43  1  0  0  0
 25 44  1  0  0  0
 26 28  1  0  0  0
 26 45  1  0  0  0
 27 28  2  0  0  0
 27 46  1  0  0  0
 28 47  1  0  0  0
M  END
> <s_m_entry_id>
64233

> <s_m_entry_name>
dock_pv.183

> <s_m_Source_Path>
/home/csk/Desktop/cluster/DUD-E-result/mmp13

> <s_m_Source_File>
dock_pv.maegz

> <i_m_Source_File_Index>
183

> <chembl_id>
CHEMBL282004

> <chembl_pref_name>
None

> <i_lp_mmshare_version>
53161

> <i_f3d_flags>
0

> <r_lp_tautomer_probability>
1

> <s_lp_Force_Field>
OPLS_2005

> <r_lp_Energy>
50.549111

> <b_lp_Chiralities_Consistent>
1

> <s_lp_Variant>
CHEMBL280_lig262-1

> <s_i_glide_gridfile>
glide-grid_830c

> <i_i_glide_lignum>
360

> <i_i_glide_rotatable_bonds>
7

> <r_i_docking_score>
-7.24982729642906

> <r_i_glide_ligand_efficiency>
-0.258922403443895

> <r_i_glide_ligand_efficiency_sa>
-0.786240913995968

> <r_i_glide_ligand_efficiency_ln>
-1.67347300419478

> <r_i_glide_gscore>
-7.24982729642906

> <r_i_glide_lipo>
-3.75972383955926

> <r_i_glide_hbond>
-0.387885052331374

> <r_i_glide_metal>
0

> <r_i_glide_rewards>
-0.819358447562911

> <r_i_glide_evdw>
-33.5239524841309

> <r_i_glide_ecoul>
-7.82593965530396

> <r_i_glide_erotb>
0.815918747071056

> <r_i_glide_esite>
-0.248690131544432

> <r_i_glide_emodel>
-37.4538928034545

> <r_i_glide_energy>
-41.3498921394348

> <r_i_glide_einternal>
10.7611846923828

> <i_i_glide_confnum>
59

> <i_i_glide_posenum>
194

> <r_i_glide_eff_state_penalty>
0

> <s_user_duplicate_titles>
CHEMBL280_lig262

> <s_m_subgroup_title>
dock_pv

> <s_m_subgroupid>
dock_pv

> <b_m_subgroup_collapsed>
1

$$$$
CHEMBL280_lig1237
                    3D
 Schrodinger Suite 2021-1.
 41 44  0  0  1  0            999 V2000
   -3.3270   28.5216   57.5218 C   0  0  0  0  0  0
   -4.6257   28.6057   58.3865 C   0  0  0  0  0  0
   -5.1398   29.8488   58.5100 N   0  0  0  0  0  0
   -4.7546   31.0101   57.9351 C   0  0  0  0  0  0
   -3.6889   30.9184   57.1084 N   0  0  0  0  0  0
   -2.9405   29.8491   56.7686 C   0  0  0  0  0  0
   -7.3011   27.7701   50.9009 C   0  0  0  0  0  0
   -8.0111   26.9868   51.8154 C   0  0  0  0  0  0
   -9.1215   26.2906   51.3353 C   0  0  0  0  0  0
   -9.4852   26.3244   49.9926 C   0  0  0  0  0  0
   -8.7582   27.1032   49.1059 C   0  0  0  0  0  0
   -7.6633   27.8223   49.5571 C   0  0  0  0  0  0
   -7.8056   26.9185   53.1878 O   0  0  0  0  0  0
   -6.6192   27.0472   53.9013 C   0  0  0  0  0  0
   -6.7125   26.4959   55.1427 N   0  0  0  0  0  0
   -5.6484   26.5692   55.9876 C   0  0  0  0  0  0
   -4.4512   27.2076   55.6479 C   0  0  0  0  0  0
   -4.3620   27.7746   54.3845 C   0  0  0  0  0  0
   -5.4444   27.7096   53.5081 C   0  0  0  0  0  0
   -3.3933   27.3839   56.5666 N   0  0  0  0  0  0
   -2.2426   26.6563   56.5094 C   0  0  0  0  0  0
   -1.3203   27.1638   57.6082 C   0  0  0  0  0  0
   -2.1542   28.1117   58.4394 C   0  0  0  0  0  0
   -1.9413   25.7699   55.7100 O   0  0  0  0  0  0
   -2.0400   29.9303   55.9334 O   0  0  0  0  0  0
   -5.3382   32.0687   58.1351 O   0  0  0  0  0  0
   -5.1425   27.6230   58.9100 O   0  0  0  0  0  0
   -9.1432   27.1974   47.8138 F   0  0  0  0  0  0
   -5.9636   29.9300   59.0910 H   0  0  0  0  0  0
   -3.4408   31.7774   56.6428 H   0  0  0  0  0  0
   -6.5443   28.4591   51.1961 H   0  0  0  0  0  0
   -9.7456   25.7700   52.0316 H   0  0  0  0  0  0
  -10.3390   25.7748   49.6385 H   0  0  0  0  0  0
   -7.1320   28.4671   48.8730 H   0  0  0  0  0  0
   -5.7742   26.0928   56.9487 H   0  0  0  0  0  0
   -3.4680   28.3128   54.1099 H   0  0  0  0  0  0
   -5.2870   28.1700   52.5608 H   0  0  0  0  0  0
   -0.4948   27.6921   57.1294 H   0  0  0  0  0  0
   -0.8997   26.3478   58.1965 H   0  0  0  0  0  0
   -1.5635   28.9513   58.8147 H   0  0  0  0  0  0
   -2.4870   27.5642   59.3250 H   0  0  0  0  0  0
  1  2  1  0  0  0
  1  6  1  0  0  0
  1 23  1  0  0  0
  1 20  1  0  0  0
  2  3  1  0  0  0
  2 27  2  0  0  0
  3  4  1  0  0  0
  3 29  1  0  0  0
  4  5  1  0  0  0
  4 26  2  0  0  0
  5  6  1  0  0  0
  5 30  1  0  0  0
  6 25  2  0  0  0
  7  8  2  0  0  0
  7 12  1  0  0  0
  7 31  1  0  0  0
  8  9  1  0  0  0
  8 13  1  0  0  0
  9 10  2  0  0  0
  9 32  1  0  0  0
 10 11  1  0  0  0
 10 33  1  0  0  0
 11 12  2  0  0  0
 11 28  1  0  0  0
 12 34  1  0  0  0
 13 14  1  0  0  0
 14 15  2  0  0  0
 14 19  1  0  0  0
 15 16  1  0  0  0
 16 17  2  0  0  0
 16 35  1  0  0  0
 17 18  1  0  0  0
 17 20  1  0  0  0
 18 19  2  0  0  0
 18 36  1  0  0  0
 19 37  1  0  0  0
 20 21  1  0  0  0
 21 22  1  0  0  0
 21 24  2  0  0  0
 22 23  1  0  0  0
 22 38  1  0  0  0
 22 39  1  0  0  0
 23 40  1  0  0  0
 23 41  1  0  0  0
M  END
> <s_m_entry_id>
64234

> <s_m_entry_name>
dock_pv.184

> <s_m_Source_Path>
/home/csk/Desktop/cluster/DUD-E-result/mmp13

> <s_m_Source_File>
dock_pv.maegz

> <i_m_Source_File_Index>
184

> <chembl_id>
CHEMBL249988

> <chembl_pref_name>
None

> <i_lp_mmshare_version>
53161

> <i_f3d_flags>
0

> <r_lp_tautomer_probability>
0.999999998612168

> <s_lp_Force_Field>
OPLS_2005

> <r_lp_Energy>
38.048302

> <b_lp_Chiralities_Consistent>
1

> <s_lp_Variant>
CHEMBL280_lig1237-1

> <s_i_glide_gridfile>
glide-grid_830c

> <i_i_glide_lignum>
1944

> <i_i_glide_rotatable_bonds>
3

> <r_i_docking_score>
-7.24903180762096

> <r_i_glide_ligand_efficiency>
-0.25889399312932

> <r_i_glide_ligand_efficiency_sa>
-0.786154643548137

> <r_i_glide_ligand_efficiency_ln>
-1.6732893820213

> <r_i_glide_gscore>
-7.24903180762096

> <r_i_glide_lipo>
-2.1183967155161

> <r_i_glide_hbond>
-0.499395763764508

> <r_i_glide_metal>
0

> <r_i_glide_rewards>
-0.838689688061413

> <r_i_glide_evdw>
-46.7974433898926

> <r_i_glide_ecoul>
-11.2036008834839

> <r_i_glide_erotb>
0.394880744319977

> <r_i_glide_esite>
-0.167018082581707

> <r_i_glide_emodel>
-76.9879816493501

> <r_i_glide_energy>
-58.0010442733765

> <r_i_glide_einternal>
2.05931377410889

> <i_i_glide_confnum>
1

> <i_i_glide_posenum>
166

> <r_i_glide_eff_state_penalty>
0

> <s_user_duplicate_titles>
CHEMBL280_lig1237,417666

> <s_m_subgroup_title>
dock_pv

> <s_m_subgroupid>
dock_pv

> <b_m_subgroup_collapsed>
1

$$$$
CHEMBL280_lig2337
                    3D
 Schrodinger Suite 2021-1.
 62 65  0  0  1  0            999 V2000
   -6.0830   26.9086   55.1524 S   0  0  0  0  0  0
   -5.7160   29.5363   56.4746 C   0  0  1  0  0  0
   -6.7259   28.4287   56.0859 C   0  0  0  0  0  0
  -10.7774   28.5813   45.3105 N   0  0  0  0  0  0
   -6.4020   30.6576   57.3218 C   0  0  2  0  0  0
   -3.5953   30.0515   57.7331 N   0  0  1  0  0  0
   -2.3571   29.6734   58.1168 C   0  0  0  0  0  0
   -7.6417   31.3252   56.6700 C   0  0  0  0  0  0
   -9.1245   28.1884   47.5760 C   0  0  0  0  0  0
   -9.8798   29.5252   45.6597 C   0  0  0  0  0  0
   -6.8655   26.9872   53.5406 C   0  0  0  0  0  0
   -4.5002   28.9856   57.2744 C   0  0  0  0  0  0
   -9.0269   29.3891   46.8027 C   0  0  0  0  0  0
   -1.2180   29.3522   58.4191 C   0  0  0  0  0  0
   -4.6334   26.9728   54.9099 O   0  0  0  0  0  0
   -6.6808   25.7690   55.8492 O   0  0  0  0  0  0
   -5.3950   31.7479   57.7350 C   0  0  0  0  0  0
  -10.8867   27.4972   46.0989 C   0  0  0  0  0  0
  -10.0827   27.2409   47.2114 C   0  0  0  0  0  0
   -8.2190   28.0235   48.7946 C   0  0  0  0  0  0
   -7.7598   31.3800   55.4420 O   0  0  0  0  0  0
   -8.5669   31.7925   57.5325 N   0  0  0  0  0  0
   -4.2320   31.1129   58.5240 C   0  0  0  0  0  0
   -7.9389   26.1544   53.2268 C   0  0  0  0  0  0
   -6.3701   27.8573   52.5781 C   0  0  0  0  0  0
   -8.6410   27.0324   49.7347 O   0  0  0  0  0  0
   -8.0183   27.0367   50.9764 C   0  0  0  0  0  0
   -8.5070   26.1749   51.9520 C   0  0  0  0  0  0
   -6.9439   27.8741   51.3128 C   0  0  0  0  0  0
   -9.7425   32.3732   57.0260 O   0  0  0  0  0  0
   -9.8919   30.7211   44.9104 C   0  0  0  0  0  0
   -8.2030   30.4961   47.1489 C   0  0  0  0  0  0
  -11.9856   26.5702   45.6885 C   0  0  0  0  0  0
   -9.1390   31.8017   45.3415 C   0  0  0  0  0  0
   -8.3075   31.6926   46.4521 C   0  0  0  0  0  0
   -5.3409   29.9454   55.5397 H   0  0  0  0  0  0
   -7.1390   28.0196   57.0028 H   0  0  0  0  0  0
   -7.5389   28.8250   55.4788 H   0  0  0  0  0  0
   -6.7973   30.1921   58.2284 H   0  0  0  0  0  0
   -3.9276   28.3118   56.6431 H   0  0  0  0  0  0
   -4.8344   28.3665   58.1106 H   0  0  0  0  0  0
   -0.2222   29.0802   58.6886 H   0  0  0  0  0  0
   -5.8416   32.4814   58.4078 H   0  0  0  0  0  0
   -4.9604   32.2365   56.8595 H   0  0  0  0  0  0
  -10.2195   26.3402   47.7937 H   0  0  0  0  0  0
   -8.2617   28.9697   49.3206 H   0  0  0  0  0  0
   -7.1937   27.8477   48.4666 H   0  0  0  0  0  0
   -8.5423   31.7499   58.5441 H   0  0  0  0  0  0
   -4.6133   30.6349   59.4287 H   0  0  0  0  0  0
   -3.5158   31.8831   58.8194 H   0  0  0  0  0  0
   -8.3300   25.4730   53.9616 H   0  0  0  0  0  0
   -5.5401   28.5116   52.8030 H   0  0  0  0  0  0
   -9.3370   25.5274   51.7100 H   0  0  0  0  0  0
   -6.5423   28.5700   50.6001 H   0  0  0  0  0  0
  -10.4357   31.7488   57.2614 H   0  0  0  0  0  0
  -10.5378   30.8139   44.0494 H   0  0  0  0  0  0
   -7.5363   30.4514   47.9956 H   0  0  0  0  0  0
  -11.5403   25.5918   45.7100 H   0  0  0  0  0  0
  -12.8244   26.6239   46.3827 H   0  0  0  0  0  0
  -12.3411   26.7531   44.6732 H   0  0  0  0  0  0
   -9.1721   32.7338   44.7967 H   0  0  0  0  0  0
   -7.7089   32.5409   46.7498 H   0  0  0  0  0  0
  1  3  1  0  0  0
  1 11  1  0  0  0
  1 15  2  0  0  0
  1 16  2  0  0  0
  2  3  1  0  0  0
  2  5  1  0  0  0
  2 12  1  0  0  0
  2 36  1  0  0  0
  3 37  1  0  0  0
  3 38  1  0  0  0
  4 18  1  0  0  0
  4 10  2  0  0  0
  5  8  1  0  0  0
  5 17  1  0  0  0
  5 39  1  0  0  0
  6 12  1  0  0  0
  6  7  1  0  0  0
  6 23  1  0  0  0
  7 14  3  0  0  0
  8 21  2  0  0  0
  8 22  1  0  0  0
  9 20  1  0  0  0
  9 13  2  0  0  0
  9 19  1  0  0  0
 10 13  1  0  0  0
 10 31  1  0  0  0
 11 24  2  0  0  0
 11 25  1  0  0  0
 12 40  1  0  0  0
 12 41  1  0  0  0
 13 32  1  0  0  0
 14 42  1  0  0  0
 17 23  1  0  0  0
 17 43  1  0  0  0
 17 44  1  0  0  0
 18 19  2  0  0  0
 18 33  1  0  0  0
 19 45  1  0  0  0
 20 26  1  0  0  0
 20 46  1  0  0  0
 20 47  1  0  0  0
 22 30  1  0  0  0
 22 48  1  0  0  0
 23 49  1  0  0  0
 23 50  1  0  0  0
 24 28  1  0  0  0
 24 51  1  0  0  0
 25 29  2  0  0  0
 25 52  1  0  0  0
 26 27  1  0  0  0
 27 29  1  0  0  0
 27 28  2  0  0  0
 28 53  1  0  0  0
 29 54  1  0  0  0
 30 55  1  0  0  0
 31 34  2  0  0  0
 31 56  1  0  0  0
 32 35  2  0  0  0
 32 57  1  0  0  0
 33 58  1  0  0  0
 33 59  1  0  0  0
 33 60  1  0  0  0
 34 35  1  0  0  0
 34 61  1  0  0  0
 35 62  1  0  0  0
M  END
> <s_m_entry_id>
64235

> <s_m_entry_name>
dock_pv.185

> <s_m_Source_Path>
/home/csk/Desktop/cluster/DUD-E-result/mmp13

> <s_m_Source_File>
dock_pv.maegz

> <i_m_Source_File_Index>
185

> <chembl_id>
CHEMBL363968

> <chembl_pref_name>
None

> <i_lp_mmshare_version>
53161

> <i_f3d_flags>
0

> <r_lp_tautomer_probability>
1

> <s_lp_Force_Field>
OPLS_2005

> <r_lp_Energy>
32.14137

> <b_lp_Chiralities_Consistent>
1

> <s_lp_Variant>
CHEMBL280_lig2337-2

> <s_i_glide_gridfile>
glide-grid_830c

> <i_i_glide_lignum>
3353

> <i_i_glide_rotatable_bonds>
10

> <r_i_docking_score>
-7.24703232343048

> <r_i_glide_ligand_efficiency>
-0.207058066383728

> <r_i_glide_ligand_efficiency_sa>
-0.677300664397925

> <r_i_glide_ligand_efficiency_ln>
-1.59088443420962

> <r_i_glide_gscore>
-7.24703232343048

> <r_i_glide_lipo>
-4.15749661334509

> <r_i_glide_hbond>
-0.198546425397278

> <r_i_glide_metal>
0

> <r_i_glide_rewards>
-0.0435488168915616

> <r_i_glide_evdw>
-49.5600700378418

> <r_i_glide_ecoul>
-6.54460716247559

> <r_i_glide_erotb>
0.752625177386411

> <r_i_glide_esite>
-0.140371068919529

> <r_i_glide_emodel>
-69.8129656227154

> <r_i_glide_energy>
-56.1046772003174

> <r_i_glide_einternal>
11.6066904067993

> <i_i_glide_confnum>
29

> <i_i_glide_posenum>
246

> <r_i_glide_eff_state_penalty>
0

> <s_user_duplicate_titles>
CHEMBL280_lig2337

> <s_m_subgroup_title>
dock_pv

> <s_m_subgroupid>
dock_pv

> <b_m_subgroup_collapsed>
1

$$$$
CHEMBL280_lig1094
                    3D
 Schrodinger Suite 2021-1.
 52 53  0  0  1  0            999 V2000
   -7.3362   26.8596   52.6829 C   0  0  0  0  0  0
   -6.9304   28.1703   52.9423 C   0  0  0  0  0  0
   -6.5682   28.5594   54.2216 C   0  0  0  0  0  0
   -6.4827   27.6165   55.2386 C   0  0  0  0  0  0
   -6.8096   26.2837   54.9875 C   0  0  0  0  0  0
   -7.2549   25.9223   53.7125 C   0  0  0  0  0  0
   -7.8322   26.4210   51.4683 O   0  0  0  0  0  0
   -7.8245   27.2824   50.3260 C   0  0  0  0  0  0
   -8.9070   26.9593   49.3874 C   0  0  0  0  0  0
   -9.8141   26.7663   48.5937 C   0  0  0  0  0  0
  -10.8866   26.5773   47.6080 C   0  0  0  0  0  0
   -5.8857   28.1890   56.8259 S   0  0  0  0  0  0
   -4.0698   28.6042   56.4634 C   0  0  1  0  0  0
   -6.6073   29.4383   57.0877 O   0  0  0  0  0  0
   -5.9390   27.0823   57.7883 O   0  0  0  0  0  0
   -3.3394   29.2036   57.7104 C   0  0  0  0  0  0
   -3.3228   27.4909   55.7181 C   0  0  0  0  0  0
   -2.9331   26.4195   56.4201 N   0  0  0  0  0  0
   -3.1396   27.5739   54.5053 O   0  0  0  0  0  0
   -2.3392   25.3657   55.7124 O   0  0  0  0  0  0
   -1.7789   29.3009   57.6129 C   0  0  0  0  0  0
   -1.0935   30.3524   58.5164 C   0  0  0  0  0  0
   -1.8999   31.5763   58.4554 N   0  0  0  0  0  0
   -3.1769   31.4180   59.1591 C   0  0  0  0  0  0
   -4.0535   30.4416   58.3426 C   0  0  0  0  0  0
   -1.7333   32.4699   57.4453 C   0  0  0  0  0  0
   -0.8019   32.4007   56.6418 O   0  0  0  0  0  0
   -2.6197   33.7169   57.4045 C   0  0  0  0  0  0
   -6.8934   28.9224   52.1795 H   0  0  0  0  0  0
   -6.3405   29.5945   54.4216 H   0  0  0  0  0  0
   -6.7345   25.5393   55.7685 H   0  0  0  0  0  0
   -7.5317   24.9036   53.5065 H   0  0  0  0  0  0
   -6.8673   27.2029   49.8090 H   0  0  0  0  0  0
   -7.9703   28.3361   50.5494 H   0  0  0  0  0  0
  -10.8666   27.3951   46.8869 H   0  0  0  0  0  0
  -11.8544   26.5700   48.1098 H   0  0  0  0  0  0
  -10.7390   25.6337   47.0847 H   0  0  0  0  0  0
   -4.1293   29.4114   55.7320 H   0  0  0  0  0  0
   -3.4543   28.4656   58.5078 H   0  0  0  0  0  0
   -3.1175   26.2102   57.3954 H   0  0  0  0  0  0
   -3.0035   24.6559   55.8053 H   0  0  0  0  0  0
   -1.2900   28.3279   57.6734 H   0  0  0  0  0  0
   -1.5549   29.6672   56.6085 H   0  0  0  0  0  0
   -1.0733   30.0169   59.5549 H   0  0  0  0  0  0
   -0.0459   30.5501   58.2818 H   0  0  0  0  0  0
   -2.9482   30.9932   60.1340 H   0  0  0  0  0  0
   -3.6497   32.3698   59.4046 H   0  0  0  0  0  0
   -4.3883   31.0624   57.5091 H   0  0  0  0  0  0
   -4.9643   30.1726   58.8807 H   0  0  0  0  0  0
   -3.6159   33.4604   57.0473 H   0  0  0  0  0  0
   -2.7024   34.1711   58.3931 H   0  0  0  0  0  0
   -2.1994   34.4619   56.7284 H   0  0  0  0  0  0
  1  7  1  0  0  0
  1  6  1  0  0  0
  1  2  2  0  0  0
  2  3  1  0  0  0
  2 29  1  0  0  0
  3  4  2  0  0  0
  3 30  1  0  0  0
  4  5  1  0  0  0
  4 12  1  0  0  0
  5  6  2  0  0  0
  5 31  1  0  0  0
  6 32  1  0  0  0
  7  8  1  0  0  0
  8  9  1  0  0  0
  8 33  1  0  0  0
  8 34  1  0  0  0
  9 10  3  0  0  0
 10 11  1  0  0  0
 11 35  1  0  0  0
 11 36  1  0  0  0
 11 37  1  0  0  0
 12 14  2  0  0  0
 12 15  2  0  0  0
 12 13  1  0  0  0
 13 16  1  0  0  0
 13 17  1  0  0  0
 13 38  1  0  0  0
 16 21  1  0  0  0
 16 25  1  0  0  0
 16 39  1  0  0  0
 17 18  1  0  0  0
 17 19  2  0  0  0
 18 20  1  0  0  0
 18 40  1  0  0  0
 20 41  1  0  0  0
 21 22  1  0  0  0
 21 42  1  0  0  0
 21 43  1  0  0  0
 22 23  1  0  0  0
 22 44  1  0  0  0
 22 45  1  0  0  0
 23 24  1  0  0  0
 23 26  1  0  0  0
 24 25  1  0  0  0
 24 46  1  0  0  0
 24 47  1  0  0  0
 25 48  1  0  0  0
 25 49  1  0  0  0
 26 27  2  0  0  0
 26 28  1  0  0  0
 28 50  1  0  0  0
 28 51  1  0  0  0
 28 52  1  0  0  0
M  END
> <s_m_entry_id>
64237

> <s_m_entry_name>
dock_pv.187

> <s_m_Source_Path>
/home/csk/Desktop/cluster/DUD-E-result/mmp13

> <s_m_Source_File>
dock_pv.maegz

> <i_m_Source_File_Index>
187

> <chembl_id>
CHEMBL374114

> <chembl_pref_name>
None

> <i_lp_mmshare_version>
53161

> <i_f3d_flags>
0

> <r_lp_tautomer_probability>
1

> <s_lp_Force_Field>
OPLS_2005

> <r_lp_Energy>
37.421575

> <b_lp_Chiralities_Consistent>
1

> <s_lp_Variant>
CHEMBL280_lig1094-2

> <s_i_glide_gridfile>
glide-grid_830c

> <i_i_glide_lignum>
1759

> <i_i_glide_rotatable_bonds>
10

> <r_i_docking_score>
-7.2387820777235

> <r_i_glide_ligand_efficiency>
-0.258527931347268

> <r_i_glide_ligand_efficiency_sa>
-0.785043064378967

> <r_i_glide_ligand_efficiency_ln>
-1.67092344341582

> <r_i_glide_gscore>
-7.2387820777235

> <r_i_glide_lipo>
-3.18531921186585

> <r_i_glide_hbond>
0

> <r_i_glide_metal>
0

> <r_i_glide_rewards>
-0.641585673790379

> <r_i_glide_evdw>
-40.7930603027344

> <r_i_glide_ecoul>
-14.0644083023071

> <r_i_glide_erotb>
0.943694064453679

> <r_i_glide_esite>
-0.206256996038165

> <r_i_glide_emodel>
-79.8240906246996

> <r_i_glide_energy>
-54.8574686050415

> <r_i_glide_einternal>
9.48459434509277

> <i_i_glide_confnum>
5

> <i_i_glide_posenum>
66

> <r_i_glide_eff_state_penalty>
0

> <s_user_duplicate_titles>
CHEMBL280_lig1094

> <s_m_subgroup_title>
dock_pv

> <s_m_subgroupid>
dock_pv

> <b_m_subgroup_collapsed>
1

$$$$
CHEMBL280_lig653
                    3D
 Schrodinger Suite 2021-1.
 46 48  0  0  1  0            999 V2000
   -5.7346   28.8944   57.0916 S   0  0  0  0  0  0
   -2.8578   29.2111   56.8312 C   0  0  0  0  0  0
   -4.2484   29.6690   56.5100 N   0  0  1  0  0  0
   -2.5404   27.7214   56.4699 C   0  0  0  0  0  0
   -6.3390   27.9711   55.6832 C   0  0  0  0  0  0
   -5.4131   27.9385   58.1584 O   0  0  0  0  0  0
   -6.7079   29.9683   57.3093 O   0  0  0  0  0  0
   -1.5390   27.1574   56.9203 O   0  0  0  0  0  0
   -3.3691   27.1102   55.6094 N   0  0  0  0  0  0
  -10.0712   26.8486   49.6065 N   0  0  0  0  0  0
   -1.9243   30.1165   55.9820 C   0  0  0  0  0  0
   -2.6278   29.4931   58.3380 C   0  0  0  0  0  0
   -0.4802   30.5362   57.8839 O   0  0  0  0  0  0
   -6.8276   28.6940   54.5986 C   0  0  0  0  0  0
   -6.3390   26.5733   55.6541 C   0  0  0  0  0  0
   -7.8495   25.9207   52.3713 O   0  0  0  0  0  0
   -7.3185   26.6268   53.4359 C   0  0  0  0  0  0
   -6.7855   25.9118   54.5100 C   0  0  0  0  0  0
   -7.3340   28.0196   53.4982 C   0  0  0  0  0  0
   -8.2798   26.5391   51.2118 C   0  0  0  0  0  0
   -3.1390   25.7700   55.3100 O   0  0  0  0  0  0
   -9.5725   26.3029   50.7456 C   0  0  0  0  0  0
   -0.4727   30.1583   56.5100 C   0  0  0  0  0  0
   -1.1390   29.6041   58.7385 C   0  0  0  0  0  0
   -9.2520   27.6471   48.8771 C   0  0  0  0  0  0
   -7.4567   27.3700   50.4399 C   0  0  0  0  0  0
   -7.9397   27.9293   49.2563 C   0  0  0  0  0  0
   -4.3413   30.1959   55.6329 H   0  0  0  0  0  0
   -4.2431   27.4707   55.2427 H   0  0  0  0  0  0
   -2.2985   31.1424   55.9588 H   0  0  0  0  0  0
   -1.9119   29.7780   54.9431 H   0  0  0  0  0  0
   -3.0954   28.6971   58.9100 H   0  0  0  0  0  0
   -3.1296   30.4155   58.6372 H   0  0  0  0  0  0
   -6.8412   29.7740   54.6180 H   0  0  0  0  0  0
   -5.9679   26.0000   56.4933 H   0  0  0  0  0  0
   -6.7390   24.8345   54.4644 H   0  0  0  0  0  0
   -7.7504   28.5700   52.6809 H   0  0  0  0  0  0
   -3.8391   25.2638   55.7656 H   0  0  0  0  0  0
  -10.2471   25.6815   51.3100 H   0  0  0  0  0  0
    0.1075   30.8927   55.9504 H   0  0  0  0  0  0
    0.0393   29.2041   56.3833 H   0  0  0  0  0  0
   -1.0599   29.9630   59.7649 H   0  0  0  0  0  0
   -0.6281   28.6411   58.7209 H   0  0  0  0  0  0
   -9.6670   28.0648   47.9711 H   0  0  0  0  0  0
   -6.4497   27.5852   50.7610 H   0  0  0  0  0  0
   -7.3099   28.5700   48.6550 H   0  0  0  0  0  0
  1  3  1  0  0  0
  1  5  1  0  0  0
  1  6  2  0  0  0
  1  7  2  0  0  0
  2  3  1  0  0  0
  2  4  1  0  0  0
  2 11  1  0  0  0
  2 12  1  0  0  0
  3 28  1  0  0  0
  4  8  2  0  0  0
  4  9  1  0  0  0
  5 14  2  0  0  0
  5 15  1  0  0  0
  9 21  1  0  0  0
  9 29  1  0  0  0
 10 22  2  0  0  0
 10 25  1  0  0  0
 11 23  1  0  0  0
 11 30  1  0  0  0
 11 31  1  0  0  0
 12 24  1  0  0  0
 12 32  1  0  0  0
 12 33  1  0  0  0
 13 24  1  0  0  0
 13 23  1  0  0  0
 14 19  1  0  0  0
 14 34  1  0  0  0
 15 18  2  0  0  0
 15 35  1  0  0  0
 16 17  1  0  0  0
 16 20  1  0  0  0
 17 18  1  0  0  0
 17 19  2  0  0  0
 18 36  1  0  0  0
 19 37  1  0  0  0
 20 22  1  0  0  0
 20 26  2  0  0  0
 21 38  1  0  0  0
 22 39  1  0  0  0
 23 40  1  0  0  0
 23 41  1  0  0  0
 24 42  1  0  0  0
 24 43  1  0  0  0
 25 27  2  0  0  0
 25 44  1  0  0  0
 26 27  1  0  0  0
 26 45  1  0  0  0
 27 46  1  0  0  0
M  END
> <s_m_entry_id>
64238

> <s_m_entry_name>
dock_pv.188

> <s_m_Source_Path>
/home/csk/Desktop/cluster/DUD-E-result/mmp13

> <s_m_Source_File>
dock_pv.maegz

> <i_m_Source_File_Index>
188

> <chembl_id>
CHEMBL115223

> <chembl_pref_name>
None

> <i_lp_mmshare_version>
53161

> <i_f3d_flags>
0

> <r_lp_tautomer_probability>
1

> <s_lp_Force_Field>
OPLS_2005

> <r_lp_Energy>
23.219119

> <b_lp_Chiralities_Consistent>
1

> <s_lp_Variant>
CHEMBL280_lig653-1

> <s_i_glide_gridfile>
glide-grid_830c

> <i_i_glide_lignum>
966

> <i_i_glide_rotatable_bonds>
8

> <r_i_docking_score>
-7.2369801027705

> <r_i_glide_ligand_efficiency>
-0.268036300102611

> <r_i_glide_ligand_efficiency_sa>
-0.80410889942443

> <r_i_glide_ligand_efficiency_ln>
-1.68464965698332

> <r_i_glide_gscore>
-7.2369801027705

> <r_i_glide_lipo>
-2.77332328925365

> <r_i_glide_hbond>
-0.307367533077554

> <r_i_glide_metal>
0

> <r_i_glide_rewards>
-0.373509255685424

> <r_i_glide_evdw>
-46.2097206115723

> <r_i_glide_ecoul>
-14.4518527984619

> <r_i_glide_erotb>
0.883487371078295

> <r_i_glide_esite>
-0.188003445484266

> <r_i_glide_emodel>
-85.7529275832683

> <r_i_glide_energy>
-60.6615734100342

> <r_i_glide_einternal>
11.9732389450073

> <i_i_glide_confnum>
88

> <i_i_glide_posenum>
14

> <r_i_glide_eff_state_penalty>
0

> <s_user_duplicate_titles>
CHEMBL280_lig653

> <s_m_subgroup_title>
dock_pv

> <s_m_subgroupid>
dock_pv

> <b_m_subgroup_collapsed>
1

$$$$
CHEMBL280_lig1111
                    3D
 Schrodinger Suite 2021-1.
 40 40  0  0  1  0            999 V2000
   -7.2213   27.1498   53.4183 C   0  0  0  0  0  0
   -6.9874   26.1698   54.3827 C   0  0  0  0  0  0
   -6.4937   26.5052   55.6410 C   0  0  0  0  0  0
   -6.2284   27.8421   55.9341 C   0  0  0  0  0  0
   -6.5096   28.8421   55.0079 C   0  0  0  0  0  0
   -6.9860   28.4942   53.7482 C   0  0  0  0  0  0
   -7.6820   26.7021   52.1936 O   0  0  0  0  0  0
   -7.5286   27.5086   51.0248 C   0  0  0  0  0  0
   -8.5402   27.2033   50.0026 C   0  0  0  0  0  0
   -9.3885   27.0326   49.1408 C   0  0  0  0  0  0
  -10.4044   26.8956   48.0872 C   0  0  0  0  0  0
   -5.4042   28.2926   57.4955 S   0  0  2  0  0  0
   -3.6922   27.7161   57.0352 C   0  0  2  0  0  0
   -2.7078   27.7494   58.2230 C   0  0  0  0  0  0
   -2.3389   26.5701   58.7596 N   0  0  0  0  0  0
   -2.2825   28.8318   58.6288 O   0  0  0  0  0  0
   -1.5416   26.6117   59.9127 O   0  0  0  0  0  0
   -3.1842   28.4216   55.7143 C   0  0  0  0  0  0
   -5.9035   27.2678   58.5099 O   0  0  0  0  0  0
   -3.3455   27.4735   54.5097 C   0  0  0  0  0  0
   -1.7563   29.0222   55.7294 C   0  0  0  0  0  0
   -7.1399   25.1302   54.1319 H   0  0  0  0  0  0
   -6.2700   25.7269   56.3586 H   0  0  0  0  0  0
   -6.2995   29.8777   55.2362 H   0  0  0  0  0  0
   -7.1391   29.2961   53.0504 H   0  0  0  0  0  0
   -6.5352   27.3686   50.5986 H   0  0  0  0  0  0
   -7.6223   28.5702   51.2038 H   0  0  0  0  0  0
  -10.0767   26.1693   47.3448 H   0  0  0  0  0  0
  -10.5548   27.8583   47.5987 H   0  0  0  0  0  0
  -11.3509   26.5704   48.5176 H   0  0  0  0  0  0
   -3.8531   26.6550   56.8382 H   0  0  0  0  0  0
   -2.9354   25.7440   58.7304 H   0  0  0  0  0  0
   -1.5964   27.5358   60.1808 H   0  0  0  0  0  0
   -3.8195   29.2857   55.5156 H   0  0  0  0  0  0
   -3.1395   26.4506   54.8102 H   0  0  0  0  0  0
   -4.3603   27.4710   54.1257 H   0  0  0  0  0  0
   -2.7390   27.7701   53.6591 H   0  0  0  0  0  0
   -1.0177   28.3066   56.0907 H   0  0  0  0  0  0
   -1.4489   29.3696   54.7434 H   0  0  0  0  0  0
   -1.7067   29.8955   56.3805 H   0  0  0  0  0  0
  1  6  1  0  0  0
  1  2  2  0  0  0
  1  7  1  0  0  0
  2  3  1  0  0  0
  2 22  1  0  0  0
  3  4  2  0  0  0
  3 23  1  0  0  0
  4 12  1  0  0  0
  4  5  1  0  0  0
  5  6  2  0  0  0
  5 24  1  0  0  0
  6 25  1  0  0  0
  7  8  1  0  0  0
  8  9  1  0  0  0
  8 26  1  0  0  0
  8 27  1  0  0  0
  9 10  3  0  0  0
 10 11  1  0  0  0
 11 28  1  0  0  0
 11 29  1  0  0  0
 11 30  1  0  0  0
 12 13  1  0  0  0
 12 19  2  0  0  0
 13 14  1  0  0  0
 13 18  1  0  0  0
 13 31  1  0  0  0
 14 15  1  0  0  0
 14 16  2  0  0  0
 15 17  1  0  0  0
 15 32  1  0  0  0
 17 33  1  0  0  0
 18 20  1  0  0  0
 18 21  1  0  0  0
 18 34  1  0  0  0
 20 35  1  0  0  0
 20 36  1  0  0  0
 20 37  1  0  0  0
 21 38  1  0  0  0
 21 39  1  0  0  0
 21 40  1  0  0  0
M  END
> <s_m_entry_id>
64239

> <s_m_entry_name>
dock_pv.189

> <s_m_Source_Path>
/home/csk/Desktop/cluster/DUD-E-result/mmp13

> <s_m_Source_File>
dock_pv.maegz

> <i_m_Source_File_Index>
189

> <chembl_id>
CHEMBL3085322

> <chembl_pref_name>
None

> <i_lp_mmshare_version>
53161

> <i_f3d_flags>
0

> <r_lp_tautomer_probability>
1

> <s_lp_Force_Field>
OPLS_2005

> <r_lp_Energy>
23.388963

> <b_lp_Chiralities_Consistent>
1

> <s_lp_Variant>
CHEMBL280_lig1111-1

> <s_i_glide_gridfile>
glide-grid_830c

> <i_i_glide_lignum>
1792

> <i_i_glide_rotatable_bonds>
9

> <r_i_docking_score>
-7.2349253671161

> <r_i_glide_ligand_efficiency>
-0.344520255576957

> <r_i_glide_ligand_efficiency_sa>
-0.950505261399658

> <r_i_glide_ligand_efficiency_ln>
-1.7888206774762

> <r_i_glide_gscore>
-7.2349253671161

> <r_i_glide_lipo>
-2.76462248325958

> <r_i_glide_hbond>
-0.864

> <r_i_glide_metal>
0

> <r_i_glide_rewards>
-1.26146102161662

> <r_i_glide_evdw>
-35.9353561401367

> <r_i_glide_ecoul>
-12.4081926345825

> <r_i_glide_erotb>
1.35407018745791

> <r_i_glide_esite>
-0.0409153475035837

> <r_i_glide_emodel>
-68.5256293919262

> <r_i_glide_energy>
-48.3435487747192

> <r_i_glide_einternal>
9.89743423461914

> <i_i_glide_confnum>
101

> <i_i_glide_posenum>
315

> <r_i_glide_eff_state_penalty>
0

> <s_user_duplicate_titles>
CHEMBL280_lig1111

> <s_m_subgroup_title>
dock_pv

> <s_m_subgroupid>
dock_pv

> <b_m_subgroup_collapsed>
1

$$$$
CHEMBL280_lig624
                    3D
 Schrodinger Suite 2021-1.
 47 49  0  0  1  0            999 V2000
   -5.4798   28.3458   57.0751 S   0  0  0  0  0  0
   -2.6136   28.0462   56.9177 C   0  0  1  0  0  0
   -3.9464   27.5248   57.2883 N   0  0  3  0  0  0
   -1.6600   26.8105   56.8595 C   0  0  0  0  0  0
   -6.1143   27.7638   55.5055 C   0  0  0  0  0  0
   -6.3345   27.7713   58.1091 O   0  0  0  0  0  0
   -5.2710   29.7952   56.9935 O   0  0  0  0  0  0
   -1.5413   26.1691   55.7975 O   0  0  0  0  0  0
   -1.0644   26.4776   58.0276 N   0  0  0  0  0  0
   -2.6547   28.7776   55.5446 C   0  0  0  0  0  0
   -2.2227   29.0984   58.0064 C   0  0  0  0  0  0
   -1.0052   30.3996   56.2277 C   0  0  0  0  0  0
   -7.9250   26.1475   52.1115 O   0  0  0  0  0  0
   -6.5719   28.6443   54.5226 C   0  0  0  0  0  0
   -6.1948   26.3890   55.3043 C   0  0  0  0  0  0
   -7.2675   26.7530   53.1674 C   0  0  0  0  0  0
   -8.3389   26.7955   50.9695 C   0  0  0  0  0  0
   -9.2245   27.9001   48.5694 C   0  0  0  0  0  0
   -6.7547   25.8905   54.1348 C   0  0  0  0  0  0
   -7.1496   28.1391   53.3565 C   0  0  0  0  0  0
   -9.7702   28.5656   47.0749 Cl  0  0  0  0  0  0
   -0.2130   25.3701   58.1078 O   0  0  0  0  0  0
   -9.6297   26.5330   50.5092 C   0  0  0  0  0  0
   -7.4868   27.6044   50.2137 C   0  0  0  0  0  0
   -7.9325   28.1653   49.0177 C   0  0  0  0  0  0
  -10.0757   27.0864   49.3121 C   0  0  0  0  0  0
   -0.9085   29.8208   57.6522 C   0  0  0  0  0  0
   -1.3765   29.3698   55.3096 O   0  0  0  0  0  0
   -3.9786   26.6008   57.7338 H   0  0  0  0  0  0
   -1.1470   26.9705   58.9064 H   0  0  0  0  0  0
   -3.3978   29.5715   55.5091 H   0  0  0  0  0  0
   -2.9093   28.1087   54.7243 H   0  0  0  0  0  0
   -2.1531   28.6537   58.9986 H   0  0  0  0  0  0
   -3.0070   29.8496   58.1033 H   0  0  0  0  0  0
   -0.0449   30.8141   55.9199 H   0  0  0  0  0  0
   -1.7260   31.2186   56.1874 H   0  0  0  0  0  0
   -6.5082   29.7139   54.6693 H   0  0  0  0  0  0
   -5.8463   25.7036   56.0643 H   0  0  0  0  0  0
   -6.8273   24.8210   53.9975 H   0  0  0  0  0  0
   -7.5289   28.8291   52.6214 H   0  0  0  0  0  0
    0.6679   25.7569   58.1551 H   0  0  0  0  0  0
  -10.2759   25.8801   51.0763 H   0  0  0  0  0  0
   -6.4727   27.7816   50.5396 H   0  0  0  0  0  0
   -7.2675   28.7888   48.4371 H   0  0  0  0  0  0
  -11.0756   26.8810   48.9568 H   0  0  0  0  0  0
   -0.0633   29.1358   57.7113 H   0  0  0  0  0  0
   -0.7067   30.6172   58.3711 H   0  0  0  0  0  0
  1  3  1  0  0  0
  1  5  1  0  0  0
  1  6  2  0  0  0
  1  7  2  0  0  0
  2  3  1  0  0  0
  2  4  1  0  0  0
  2 10  1  0  0  0
  2 11  1  0  0  0
  3 29  1  0  0  0
  4  8  2  0  0  0
  4  9  1  0  0  0
  5 14  2  0  0  0
  5 15  1  0  0  0
  9 22  1  0  0  0
  9 30  1  0  0  0
 10 28  1  0  0  0
 10 31  1  0  0  0
 10 32  1  0  0  0
 11 27  1  0  0  0
 11 33  1  0  0  0
 11 34  1  0  0  0
 12 27  1  0  0  0
 12 28  1  0  0  0
 12 35  1  0  0  0
 12 36  1  0  0  0
 13 16  1  0  0  0
 13 17  1  0  0  0
 14 20  1  0  0  0
 14 37  1  0  0  0
 15 19  2  0  0  0
 15 38  1  0  0  0
 16 19  1  0  0  0
 16 20  2  0  0  0
 17 23  1  0  0  0
 17 24  2  0  0  0
 18 25  2  0  0  0
 18 21  1  0  0  0
 18 26  1  0  0  0
 19 39  1  0  0  0
 20 40  1  0  0  0
 22 41  1  0  0  0
 23 26  2  0  0  0
 23 42  1  0  0  0
 24 25  1  0  0  0
 24 43  1  0  0  0
 25 44  1  0  0  0
 26 45  1  0  0  0
 27 46  1  0  0  0
 27 47  1  0  0  0
M  END
> <s_m_entry_id>
64240

> <s_m_entry_name>
dock_pv.190

> <s_m_Source_Path>
/home/csk/Desktop/cluster/DUD-E-result/mmp13

> <s_m_Source_File>
dock_pv.maegz

> <i_m_Source_File_Index>
190

> <chembl_id>
CHEMBL2111753

> <chembl_pref_name>
None

> <i_lp_mmshare_version>
53161

> <i_f3d_flags>
0

> <r_lp_tautomer_probability>
1

> <s_lp_Force_Field>
OPLS_2005

> <r_lp_Energy>
24.013644

> <b_lp_Chiralities_Consistent>
1

> <s_lp_Variant>
CHEMBL280_lig624-1

> <s_i_glide_gridfile>
glide-grid_830c

> <i_i_glide_lignum>
903

> <i_i_glide_rotatable_bonds>
8

> <r_i_docking_score>
-7.22883730111018

> <r_i_glide_ligand_efficiency>
-0.258172760753935

> <r_i_glide_ligand_efficiency_sa>
-0.783964557273316

> <r_i_glide_ligand_efficiency_ln>
-1.66862789698214

> <r_i_glide_gscore>
-7.22883730111018

> <r_i_glide_lipo>
-3.35478343161324

> <r_i_glide_hbond>
-0.100252084859492

> <r_i_glide_metal>
0

> <r_i_glide_rewards>
0.198173405547909

> <r_i_glide_evdw>
-46.7670402526855

> <r_i_glide_ecoul>
-15.25865650177

> <r_i_glide_erotb>
0.76253785787661

> <r_i_glide_esite>
-0.107362560162188

> <r_i_glide_emodel>
-86.4028533389864

> <r_i_glide_energy>
-62.0256967544556

> <r_i_glide_einternal>
7.76549577713013

> <i_i_glide_confnum>
75

> <i_i_glide_posenum>
312

> <r_i_glide_eff_state_penalty>
0

> <s_user_duplicate_titles>
CHEMBL280_lig624

> <s_m_subgroup_title>
dock_pv

> <s_m_subgroupid>
dock_pv

> <b_m_subgroup_collapsed>
1

$$$$
CHEMBL280_lig947
                    3D
 Schrodinger Suite 2021-1.
 49 51  0  0  1  0            999 V2000
   -4.4324   27.0965   55.6276 S   0  0  0  0  0  0
   -4.0703   28.9141   56.1524 C   0  0  1  0  0  0
   -4.1861   29.1652   57.6893 C   0  0  2  0  0  0
   -3.3719   28.1108   58.5099 C   0  0  0  0  0  0
   -5.7941   27.0914   54.4551 C   0  0  0  0  0  0
   -3.2510   26.5732   54.9116 O   0  0  0  0  0  0
   -4.9794   26.3641   56.7710 O   0  0  0  0  0  0
   -3.9476   27.3705   59.3097 O   0  0  0  0  0  0
   -2.0343   28.0787   58.3432 N   0  0  0  0  0  0
   -5.5536   29.0800   58.0904 O   0  0  0  0  0  0
   -2.7197   29.3892   55.5557 C   0  0  0  0  0  0
   -3.6582   30.5870   58.0459 C   0  0  0  0  0  0
   -2.3629   30.8191   57.4863 O   0  0  0  0  0  0
   -8.7955   26.6156   51.5974 O   0  0  0  0  0  0
   -6.4828   25.8904   54.3095 C   0  0  0  0  0  0
   -6.1881   28.1967   53.6985 C   0  0  0  0  0  0
   -7.8157   26.8410   52.5384 C   0  0  0  0  0  0
   -8.7575   27.1164   50.3110 C   0  0  0  0  0  0
   -7.4729   25.7704   53.3501 C   0  0  0  0  0  0
   -7.2062   28.0797   52.7561 C   0  0  0  0  0  0
   -8.8706   28.0773   47.6872 C   0  0  0  0  0  0
   -1.2768   27.1552   59.0819 O   0  0  0  0  0  0
   -9.9368   27.0159   49.5732 C   0  0  0  0  0  0
   -7.6222   27.6788   49.7125 C   0  0  0  0  0  0
   -9.9931   27.4867   48.2642 C   0  0  0  0  0  0
   -7.6851   28.1702   48.4133 C   0  0  0  0  0  0
   -2.3436   30.7967   56.0620 C   0  0  0  0  0  0
   -8.9340   28.5901   46.2595 C   0  0  0  0  0  0
   -4.8782   29.4666   55.6874 H   0  0  0  0  0  0
   -1.4734   28.7143   57.7923 H   0  0  0  0  0  0
   -6.0572   29.7812   57.6723 H   0  0  0  0  0  0
   -2.7469   29.3689   54.4699 H   0  0  0  0  0  0
   -1.9200   28.6989   55.8205 H   0  0  0  0  0  0
   -3.6065   30.7319   59.1272 H   0  0  0  0  0  0
   -4.3429   31.3560   57.6817 H   0  0  0  0  0  0
   -6.2359   25.0266   54.9085 H   0  0  0  0  0  0
   -5.7410   29.1619   53.8173 H   0  0  0  0  0  0
   -7.9389   24.8172   53.2223 H   0  0  0  0  0  0
   -7.5101   28.9493   52.1897 H   0  0  0  0  0  0
   -0.8847   27.6863   59.7811 H   0  0  0  0  0  0
  -10.8147   26.5750   50.0216 H   0  0  0  0  0  0
   -6.6805   27.7410   50.2341 H   0  0  0  0  0  0
  -10.9144   27.4026   47.7056 H   0  0  0  0  0  0
   -6.8016   28.6073   47.9699 H   0  0  0  0  0  0
   -3.0229   31.5542   55.6674 H   0  0  0  0  0  0
   -1.3427   31.0676   55.7246 H   0  0  0  0  0  0
   -9.3872   27.8407   45.6091 H   0  0  0  0  0  0
   -9.5435   29.4917   46.2043 H   0  0  0  0  0  0
   -7.9436   28.8103   45.8595 H   0  0  0  0  0  0
  1  2  1  0  0  0
  1  5  1  0  0  0
  1  6  2  0  0  0
  1  7  2  0  0  0
  2  3  1  0  0  0
  2 11  1  0  0  0
  2 29  1  0  0  0
  3  4  1  0  0  0
  3 10  1  0  0  0
  3 12  1  0  0  0
  4  8  2  0  0  0
  4  9  1  0  0  0
  5 15  2  0  0  0
  5 16  1  0  0  0
  9 22  1  0  0  0
  9 30  1  0  0  0
 10 31  1  0  0  0
 11 27  1  0  0  0
 11 32  1  0  0  0
 11 33  1  0  0  0
 12 13  1  0  0  0
 12 34  1  0  0  0
 12 35  1  0  0  0
 13 27  1  0  0  0
 14 17  1  0  0  0
 14 18  1  0  0  0
 15 19  1  0  0  0
 15 36  1  0  0  0
 16 20  2  0  0  0
 16 37  1  0  0  0
 17 20  1  0  0  0
 17 19  2  0  0  0
 18 23  1  0  0  0
 18 24  2  0  0  0
 19 38  1  0  0  0
 20 39  1  0  0  0
 21 26  2  0  0  0
 21 28  1  0  0  0
 21 25  1  0  0  0
 22 40  1  0  0  0
 23 25  2  0  0  0
 23 41  1  0  0  0
 24 26  1  0  0  0
 24 42  1  0  0  0
 25 43  1  0  0  0
 26 44  1  0  0  0
 27 45  1  0  0  0
 27 46  1  0  0  0
 28 47  1  0  0  0
 28 48  1  0  0  0
 28 49  1  0  0  0
M  END
> <s_m_entry_id>
64241

> <s_m_entry_name>
dock_pv.191

> <s_m_Source_Path>
/home/csk/Desktop/cluster/DUD-E-result/mmp13

> <s_m_Source_File>
dock_pv.maegz

> <i_m_Source_File_Index>
191

> <chembl_id>
CHEMBL184501

> <chembl_pref_name>
None

> <i_lp_mmshare_version>
53161

> <i_f3d_flags>
0

> <r_lp_tautomer_probability>
1

> <s_lp_Force_Field>
OPLS_2005

> <r_lp_Energy>
32.538853

> <b_lp_Chiralities_Consistent>
1

> <s_lp_Variant>
CHEMBL280_lig947-1

> <s_i_glide_gridfile>
glide-grid_830c

> <i_i_glide_lignum>
1594

> <i_i_glide_rotatable_bonds>
8

> <r_i_docking_score>
-7.22882241928235

> <r_i_glide_ligand_efficiency>
-0.258172229260084

> <r_i_glide_ligand_efficiency_sa>
-0.783962943344951

> <r_i_glide_ligand_efficiency_ln>
-1.66862446181932

> <r_i_glide_gscore>
-7.22882241928235

> <r_i_glide_lipo>
-3.34446147387721

> <r_i_glide_hbond>
0

> <r_i_glide_metal>
0

> <r_i_glide_rewards>
-0.631099294992699

> <r_i_glide_evdw>
-39.9712142944336

> <r_i_glide_ecoul>
-11.4514169692993

> <r_i_glide_erotb>
0.711003566090222

> <r_i_glide_esite>
-0.247991956386085

> <r_i_glide_emodel>
-65.2271654577356

> <r_i_glide_energy>
-51.4226312637329

> <r_i_glide_einternal>
21.0195064544678

> <i_i_glide_confnum>
115

> <i_i_glide_posenum>
371

> <r_i_glide_eff_state_penalty>
0

> <s_user_duplicate_titles>
CHEMBL280_lig947,307963

> <s_m_subgroup_title>
dock_pv

> <s_m_subgroupid>
dock_pv

> <b_m_subgroup_collapsed>
1

$$$$
CHEMBL280_lig1096
                    3D
 Schrodinger Suite 2021-1.
 47 48  0  0  1  0            999 V2000
   -7.0169   26.8991   53.3091 C   0  0  0  0  0  0
   -6.8376   25.9295   54.2956 C   0  0  0  0  0  0
   -6.3390   26.2682   55.5518 C   0  0  0  0  0  0
   -6.0164   27.5979   55.8246 C   0  0  0  0  0  0
   -6.1893   28.5731   54.8476 C   0  0  0  0  0  0
   -6.6701   28.2261   53.5919 C   0  0  0  0  0  0
   -7.5393   26.4671   52.1054 O   0  0  0  0  0  0
   -7.6168   27.3613   50.9956 C   0  0  0  0  0  0
   -8.5891   26.9047   49.9942 C   0  0  0  0  0  0
   -9.4174   26.5700   49.1628 C   0  0  0  0  0  0
  -10.3956   26.1700   48.1429 C   0  0  0  0  0  0
   -5.3375   28.0868   57.4087 S   0  0  0  0  0  0
   -3.4581   28.2444   57.1114 C   0  0  2  0  0  0
   -5.9189   29.3971   57.7163 O   0  0  0  0  0  0
   -5.5390   26.9700   58.3363 O   0  0  0  0  0  0
   -3.0651   29.7479   56.8612 C   0  0  0  0  0  0
   -2.9220   27.2005   56.1100 C   0  0  0  0  0  0
   -2.7189   25.9735   56.6066 N   0  0  0  0  0  0
   -2.7510   27.4479   54.9100 O   0  0  0  0  0  0
   -2.3390   24.9700   55.7100 O   0  0  0  0  0  0
   -3.0243   30.5358   58.1978 C   0  0  0  0  0  0
   -2.7852   32.0428   57.9879 C   0  0  0  0  0  0
   -1.5390   32.2808   57.2579 N   0  0  1  0  0  0
   -1.4406   31.5388   56.0007 C   0  0  0  0  0  0
   -1.6862   30.0280   56.2055 C   0  0  0  0  0  0
   -7.0810   24.9001   54.0792 H   0  0  0  0  0  0
   -6.1966   25.4969   56.2969 H   0  0  0  0  0  0
   -5.9390   29.6046   55.0520 H   0  0  0  0  0  0
   -6.7606   29.0114   52.8612 H   0  0  0  0  0  0
   -6.6386   27.4608   50.5241 H   0  0  0  0  0  0
   -7.9390   28.3612   51.2723 H   0  0  0  0  0  0
  -10.4510   25.0822   48.1041 H   0  0  0  0  0  0
  -10.0899   26.5510   47.1684 H   0  0  0  0  0  0
  -11.3783   26.5700   48.3925 H   0  0  0  0  0  0
   -3.0323   27.9779   58.0791 H   0  0  0  0  0  0
   -3.8184   30.2033   56.2142 H   0  0  0  0  0  0
   -2.9494   25.6267   57.5342 H   0  0  0  0  0  0
   -3.1120   24.3692   55.7100 H   0  0  0  0  0  0
   -3.9613   30.4210   58.7393 H   0  0  0  0  0  0
   -2.2880   30.1225   58.8892 H   0  0  0  0  0  0
   -3.6132   32.4828   57.4290 H   0  0  0  0  0  0
   -2.7363   32.5544   58.9500 H   0  0  0  0  0  0
   -1.4078   33.2705   57.0973 H   0  0  0  0  0  0
   -2.1796   31.9483   55.3100 H   0  0  0  0  0  0
   -0.4565   31.7078   55.5617 H   0  0  0  0  0  0
   -0.8745   29.5883   56.7872 H   0  0  0  0  0  0
   -1.6046   29.5484   55.2334 H   0  0  0  0  0  0
  1  6  1  0  0  0
  1  2  2  0  0  0
  1  7  1  0  0  0
  2  3  1  0  0  0
  2 26  1  0  0  0
  3  4  2  0  0  0
  3 27  1  0  0  0
  4  5  1  0  0  0
  4 12  1  0  0  0
  5  6  2  0  0  0
  5 28  1  0  0  0
  6 29  1  0  0  0
  7  8  1  0  0  0
  8  9  1  0  0  0
  8 30  1  0  0  0
  8 31  1  0  0  0
  9 10  3  0  0  0
 10 11  1  0  0  0
 11 32  1  0  0  0
 11 33  1  0  0  0
 11 34  1  0  0  0
 12 13  1  0  0  0
 12 14  2  0  0  0
 12 15  2  0  0  0
 13 16  1  0  0  0
 13 17  1  0  0  0
 13 35  1  0  0  0
 16 21  1  0  0  0
 16 25  1  0  0  0
 16 36  1  0  0  0
 17 18  1  0  0  0
 17 19  2  0  0  0
 18 20  1  0  0  0
 18 37  1  0  0  0
 20 38  1  0  0  0
 21 22  1  0  0  0
 21 39  1  0  0  0
 21 40  1  0  0  0
 22 23  1  0  0  0
 22 41  1  0  0  0
 22 42  1  0  0  0
 23 24  1  0  0  0
 23 43  1  0  0  0
 24 25  1  0  0  0
 24 44  1  0  0  0
 24 45  1  0  0  0
 25 46  1  0  0  0
 25 47  1  0  0  0
M  END
> <s_m_entry_id>
64242

> <s_m_entry_name>
dock_pv.192

> <s_m_Source_Path>
/home/csk/Desktop/cluster/DUD-E-result/mmp13

> <s_m_Source_File>
dock_pv.maegz

> <i_m_Source_File_Index>
192

> <chembl_id>
CHEMBL374953

> <chembl_pref_name>
None

> <i_lp_mmshare_version>
53161

> <i_f3d_flags>
0

> <r_lp_tautomer_probability>
1

> <s_lp_Force_Field>
OPLS_2005

> <r_lp_Energy>
28.129447

> <b_lp_Chiralities_Consistent>
1

> <s_lp_Variant>
CHEMBL280_lig1096-1

> <s_i_glide_gridfile>
glide-grid_830c

> <i_i_glide_lignum>
1762

> <i_i_glide_rotatable_bonds>
9

> <r_i_docking_score>
-7.22392258124551

> <r_i_glide_ligand_efficiency>
-0.288956903249821

> <r_i_glide_ligand_efficiency_sa>
-0.844915109774975

> <r_i_glide_ligand_efficiency_ln>
-1.7122861352458

> <r_i_glide_gscore>
-7.22392258124551

> <r_i_glide_lipo>
-2.49780189016326

> <r_i_glide_hbond>
-0.248337499645714

> <r_i_glide_metal>
0

> <r_i_glide_rewards>
-0.952972917663015

> <r_i_glide_evdw>
-36.6574554443359

> <r_i_glide_ecoul>
-17.0252952575684

> <r_i_glide_erotb>
1.14675928834519

> <r_i_glide_esite>
-0.284902501266661

> <r_i_glide_emodel>
-82.3737150348327

> <r_i_glide_energy>
-53.6827507019043

> <r_i_glide_einternal>
3.50228357315063

> <i_i_glide_confnum>
8

> <i_i_glide_posenum>
322

> <r_i_glide_eff_state_penalty>
0

> <s_user_duplicate_titles>
CHEMBL280_lig1096

> <s_m_subgroup_title>
dock_pv

> <s_m_subgroupid>
dock_pv

> <b_m_subgroup_collapsed>
1

$$$$
CHEMBL280_lig1506
                    3D
 Schrodinger Suite 2021-1.
 39 40  0  0  1  0            999 V2000
   -8.4281   28.1700   47.6420 C   0  0  0  0  0  0
   -9.7030   27.6371   47.4537 C   0  0  0  0  0  0
  -10.3390   26.9700   48.4977 C   0  0  0  0  0  0
   -9.7017   26.8347   49.7257 C   0  0  0  0  0  0
   -8.4135   27.3493   49.9342 C   0  0  0  0  0  0
   -7.7935   28.0241   48.8728 C   0  0  0  0  0  0
   -7.7526   27.2219   51.2733 C   0  0  0  0  0  0
   -6.8258   28.1700   51.7188 C   0  0  0  0  0  0
   -6.3390   28.1609   53.0211 C   0  0  0  0  0  0
   -6.7430   27.1631   53.9072 C   0  0  0  0  0  0
   -7.5919   26.1594   53.4457 C   0  0  0  0  0  0
   -8.0856   26.1818   52.1453 C   0  0  0  0  0  0
   -6.3489   27.1399   55.3846 C   0  0  0  0  0  0
   -5.2986   28.1649   55.8993 C   0  0  0  0  0  0
   -3.8205   27.7152   55.8394 C   0  0  1  0  0  0
   -3.5440   26.5700   56.8439 C   0  0  0  0  0  0
   -3.4837   27.3700   54.5100 O   0  0  0  0  0  0
   -2.1763   25.9003   56.7529 C   0  0  0  0  0  0
   -1.8134   25.3700   57.9473 O   0  0  0  0  0  0
   -1.5390   25.7740   55.7100 O   0  0  0  0  0  0
  -10.3805   27.7700   46.1725 C   0  0  0  0  0  0
  -10.9249   27.8721   45.1564 N   0  0  0  0  0  0
   -7.9141   28.6880   46.8424 H   0  0  0  0  0  0
  -11.3361   26.5700   48.3737 H   0  0  0  0  0  0
  -10.2349   26.3326   50.5185 H   0  0  0  0  0  0
   -6.7990   28.4319   48.9810 H   0  0  0  0  0  0
   -6.5166   28.9700   51.0705 H   0  0  0  0  0  0
   -5.6868   28.9615   53.3247 H   0  0  0  0  0  0
   -7.8949   25.3700   54.1100 H   0  0  0  0  0  0
   -8.7496   25.3954   51.8225 H   0  0  0  0  0  0
   -7.2674   27.3054   55.9401 H   0  0  0  0  0  0
   -6.0568   26.1212   55.6367 H   0  0  0  0  0  0
   -5.4278   29.1382   55.4272 H   0  0  0  0  0  0
   -5.5257   28.3681   56.9473 H   0  0  0  0  0  0
   -3.1949   28.5692   56.1088 H   0  0  0  0  0  0
   -3.6828   26.9647   57.8514 H   0  0  0  0  0  0
   -4.2717   25.7700   56.7367 H   0  0  0  0  0  0
   -3.9391   27.9996   53.9402 H   0  0  0  0  0  0
   -2.5812   25.3340   58.5307 H   0  0  0  0  0  0
  1  6  1  0  0  0
  1  2  2  0  0  0
  1 23  1  0  0  0
  2  3  1  0  0  0
  2 21  1  0  0  0
  3  4  2  0  0  0
  3 24  1  0  0  0
  4  5  1  0  0  0
  4 25  1  0  0  0
  5  6  2  0  0  0
  5  7  1  0  0  0
  6 26  1  0  0  0
  7 12  1  0  0  0
  7  8  2  0  0  0
  8  9  1  0  0  0
  8 27  1  0  0  0
  9 10  2  0  0  0
  9 28  1  0  0  0
 10 13  1  0  0  0
 10 11  1  0  0  0
 11 12  2  0  0  0
 11 29  1  0  0  0
 12 30  1  0  0  0
 13 14  1  0  0  0
 13 31  1  0  0  0
 13 32  1  0  0  0
 14 15  1  0  0  0
 14 33  1  0  0  0
 14 34  1  0  0  0
 15 16  1  0  0  0
 15 17  1  0  0  0
 15 35  1  0  0  0
 16 18  1  0  0  0
 16 36  1  0  0  0
 16 37  1  0  0  0
 17 38  1  0  0  0
 18 19  1  0  0  0
 18 20  2  0  0  0
 19 39  1  0  0  0
 21 22  3  0  0  0
M  END
> <s_m_entry_id>
64243

> <s_m_entry_name>
dock_pv.193

> <s_m_Source_Path>
/home/csk/Desktop/cluster/DUD-E-result/mmp13

> <s_m_Source_File>
dock_pv.maegz

> <i_m_Source_File_Index>
193

> <chembl_id>
CHEMBL583588

> <chembl_pref_name>
None

> <i_lp_mmshare_version>
53161

> <i_f3d_flags>
0

> <r_lp_tautomer_probability>
1

> <s_lp_Force_Field>
OPLS_2005

> <r_lp_Energy>
15.325002

> <b_lp_Chiralities_Consistent>
1

> <s_lp_Variant>
CHEMBL280_lig1506-2

> <s_i_glide_gridfile>
glide-grid_830c

> <i_i_glide_lignum>
2240

> <i_i_glide_rotatable_bonds>
8

> <r_i_docking_score>
-7.21907053637682

> <r_i_glide_ligand_efficiency>
-0.32813956983531

> <r_i_glide_ligand_efficiency_sa>
-0.919459979675515

> <r_i_glide_ligand_efficiency_ln>
-1.76460416108631

> <r_i_glide_gscore>
-7.21907053637682

> <r_i_glide_lipo>
-3.66530835018696

> <r_i_glide_hbond>
-0.0414350733132565

> <r_i_glide_metal>
0

> <r_i_glide_rewards>
-1.48965480916965

> <r_i_glide_evdw>
-38.2619552612305

> <r_i_glide_ecoul>
-16.851188659668

> <r_i_glide_erotb>
2.51810375830477

> <r_i_glide_esite>
-0.1

> <r_i_glide_emodel>
-83.7445173587288

> <r_i_glide_energy>
-55.1131439208984

> <r_i_glide_einternal>
9.02717685699463

> <i_i_glide_confnum>
84

> <i_i_glide_posenum>
319

> <r_i_glide_eff_state_penalty>
0

> <s_user_duplicate_titles>
CHEMBL280_lig1506

> <s_m_subgroup_title>
dock_pv

> <s_m_subgroupid>
dock_pv

> <b_m_subgroup_collapsed>
1

$$$$
CHEMBL280_lig1929
                    3D
 Schrodinger Suite 2021-1.
 49 51  0  0  1  0            999 V2000
   -5.5404   27.2683   57.9491 O   0  0  0  0  0  0
   -5.6942   28.3619   56.9819 S   0  0  0  0  0  0
   -6.7390   29.3700   57.1680 O   0  0  0  0  0  0
   -7.9495   27.9349   48.8232 C   0  0  0  0  0  0
   -9.1746   27.5939   48.2385 C   0  0  0  0  0  0
  -10.0905   26.8313   48.9656 C   0  0  0  0  0  0
   -9.7764   26.3954   50.2491 C   0  0  0  0  0  0
   -8.5554   26.7224   50.8338 C   0  0  0  0  0  0
   -7.6394   27.4986   50.1100 C   0  0  0  0  0  0
   -9.5259   28.0269   46.8141 C   0  0  0  0  0  0
   -8.3465   26.2382   52.1116 O   0  0  0  0  0  0
   -7.2402   26.6828   52.8974 C   0  0  0  0  0  0
   -7.4080   28.1400   53.3585 C   0  0  0  0  0  0
   -6.2128   28.5700   54.2179 C   0  0  0  0  0  0
   -5.9893   27.6666   55.3676 N   0  0  3  0  0  0
   -6.0416   26.1952   55.1352 C   0  0  0  0  0  0
   -7.1390   25.7746   54.1326 C   0  0  0  0  0  0
   -4.1073   29.2539   56.9942 C   0  0  0  0  0  0
   -4.0415   30.4867   57.6742 C   0  0  0  0  0  0
   -2.8416   31.1868   57.7712 C   0  0  0  0  0  0
   -1.6788   30.6687   57.2170 C   0  0  0  0  0  0
   -1.7152   29.4410   56.5668 C   0  0  0  0  0  0
   -2.9142   28.7246   56.4491 C   0  0  0  0  0  0
   -2.8637   27.4258   55.7100 C   0  0  0  0  0  0
   -2.4283   26.3670   56.4023 N   0  0  0  0  0  0
   -3.1390   27.3707   54.5100 O   0  0  0  0  0  0
   -2.3390   25.1530   55.7100 O   0  0  0  0  0  0
   -9.5390   26.9612   46.0148 F   0  0  0  0  0  0
  -10.7390   28.5700   46.7784 F   0  0  0  0  0  0
   -8.6606   28.9154   46.3249 F   0  0  0  0  0  0
   -5.1209   31.0256   58.2841 F   0  0  0  0  0  0
   -7.2210   28.5231   48.2823 H   0  0  0  0  0  0
  -11.0450   26.5700   48.5306 H   0  0  0  0  0  0
  -10.4843   25.7951   50.8011 H   0  0  0  0  0  0
   -6.6794   27.7727   50.5189 H   0  0  0  0  0  0
   -6.3192   26.5700   52.3272 H   0  0  0  0  0  0
   -8.3140   28.2381   53.9573 H   0  0  0  0  0  0
   -7.4887   28.8146   52.5096 H   0  0  0  0  0  0
   -6.3390   29.5892   54.5861 H   0  0  0  0  0  0
   -5.3031   28.5700   53.6170 H   0  0  0  0  0  0
   -5.0842   25.8843   54.7252 H   0  0  0  0  0  0
   -6.1463   25.6761   56.0889 H   0  0  0  0  0  0
   -6.9674   24.7398   53.8322 H   0  0  0  0  0  0
   -8.0862   25.8230   54.6669 H   0  0  0  0  0  0
   -2.8150   32.1324   58.2925 H   0  0  0  0  0  0
   -0.7500   31.2147   57.2981 H   0  0  0  0  0  0
   -0.7962   29.0579   56.1455 H   0  0  0  0  0  0
   -2.2349   26.2978   57.3940 H   0  0  0  0  0  0
   -3.0868   24.6300   56.0559 H   0  0  0  0  0  0
  1  2  2  0  0  0
  2  3  2  0  0  0
  2 15  1  0  0  0
  2 18  1  0  0  0
  4  5  2  0  0  0
  4  9  1  0  0  0
  4 32  1  0  0  0
  5  6  1  0  0  0
  5 10  1  0  0  0
  6  7  2  0  0  0
  6 33  1  0  0  0
  7  8  1  0  0  0
  7 34  1  0  0  0
  8  9  2  0  0  0
  8 11  1  0  0  0
  9 35  1  0  0  0
 10 28  1  0  0  0
 10 29  1  0  0  0
 10 30  1  0  0  0
 11 12  1  0  0  0
 12 13  1  0  0  0
 12 17  1  0  0  0
 12 36  1  0  0  0
 13 14  1  0  0  0
 13 37  1  0  0  0
 13 38  1  0  0  0
 14 15  1  0  0  0
 14 39  1  0  0  0
 14 40  1  0  0  0
 15 16  1  0  0  0
 16 17  1  0  0  0
 16 41  1  0  0  0
 16 42  1  0  0  0
 17 43  1  0  0  0
 17 44  1  0  0  0
 18 19  2  0  0  0
 18 23  1  0  0  0
 19 20  1  0  0  0
 19 31  1  0  0  0
 20 21  2  0  0  0
 20 45  1  0  0  0
 21 22  1  0  0  0
 21 46  1  0  0  0
 22 23  2  0  0  0
 22 47  1  0  0  0
 23 24  1  0  0  0
 24 25  1  0  0  0
 24 26  2  0  0  0
 25 27  1  0  0  0
 25 48  1  0  0  0
 27 49  1  0  0  0
M  END
> <s_m_entry_id>
64244

> <s_m_entry_name>
dock_pv.194

> <s_m_Source_Path>
/home/csk/Desktop/cluster/DUD-E-result/mmp13

> <s_m_Source_File>
dock_pv.maegz

> <i_m_Source_File_Index>
194

> <chembl_id>
CHEMBL2337130

> <chembl_pref_name>
None

> <i_lp_mmshare_version>
53161

> <i_f3d_flags>
0

> <r_lp_tautomer_probability>
1

> <s_lp_Force_Field>
OPLS_2005

> <r_lp_Energy>
33.190166

> <b_lp_Chiralities_Consistent>
1

> <s_lp_Variant>
CHEMBL280_lig1929-1

> <s_i_glide_gridfile>
glide-grid_830c

> <i_i_glide_lignum>
2696

> <i_i_glide_rotatable_bonds>
8

> <r_i_docking_score>
-7.21812607037827

> <r_i_glide_ligand_efficiency>
-0.232842776463815

> <r_i_glide_ligand_efficiency_sa>
-0.731447792195262

> <r_i_glide_ligand_efficiency_ln>
-1.62790863786816

> <r_i_glide_gscore>
-7.21812607037827

> <r_i_glide_lipo>
-3.10926423602483

> <r_i_glide_hbond>
0

> <r_i_glide_metal>
0

> <r_i_glide_rewards>
-0.17384196344734

> <r_i_glide_evdw>
-49.7882118225098

> <r_i_glide_ecoul>
-12.0687065124512

> <r_i_glide_erotb>
0.565231579332178

> <r_i_glide_esite>
-0.200534882245117

> <r_i_glide_emodel>
-89.6533334156272

> <r_i_glide_energy>
-61.8569183349609

> <r_i_glide_einternal>
7.50219202041626

> <i_i_glide_confnum>
67

> <i_i_glide_posenum>
148

> <r_i_glide_eff_state_penalty>
0

> <s_user_duplicate_titles>
CHEMBL280_lig1929

> <s_m_subgroup_title>
dock_pv

> <s_m_subgroupid>
dock_pv

> <b_m_subgroup_collapsed>
1

$$$$
CHEMBL280_lig389
                    3D
 Schrodinger Suite 2021-1.
 42 43  0  0  1  0            999 V2000
   -6.6318   27.1252   55.5719 S   0  0  0  0  0  0
   -5.0309   26.5700   55.9916 N   0  0  3  0  0  0
   -4.0037   27.5210   56.4740 C   0  0  2  0  0  0
   -2.8679   27.3228   55.4844 C   0  0  0  0  0  0
   -6.8610   27.0780   53.7996 C   0  0  0  0  0  0
   -7.5390   26.1162   56.1100 O   0  0  0  0  0  0
   -6.7390   28.5356   55.9607 O   0  0  0  0  0  0
   -7.7362   27.2625   51.1342 C   0  0  0  0  0  0
   -8.3555   27.4391   49.7755 C   0  0  0  0  0  0
   -2.7390   28.0468   54.5100 O   0  0  0  0  0  0
   -7.7355   26.1340   53.2734 C   0  0  0  0  0  0
   -6.3415   28.0702   52.9758 C   0  0  0  0  0  0
   -3.5379   27.2703   57.9410 C   0  0  0  0  0  0
   -6.7778   28.1535   51.6532 C   0  0  0  0  0  0
   -8.1574   26.2150   51.9575 C   0  0  0  0  0  0
   -9.6288   26.9126   49.4915 C   0  0  0  0  0  0
   -7.7141   28.1700   48.7667 C   0  0  0  0  0  0
   -2.1641   26.1696   55.7100 O   0  0  0  0  0  0
   -9.5680   27.8274   47.2687 C   0  0  0  0  0  0
   -8.3154   28.3732   47.5270 C   0  0  0  0  0  0
  -10.2266   27.0944   48.2486 C   0  0  0  0  0  0
  -10.3124   28.0632   45.7302 Cl  0  0  0  0  0  0
   -4.7241   27.3700   58.9124 C   0  0  0  0  0  0
   -2.3997   28.2081   58.3988 C   0  0  0  0  0  0
   -4.8943   25.5561   56.1100 H   0  0  0  0  0  0
   -4.3728   28.5437   56.3846 H   0  0  0  0  0  0
   -8.1569   25.3700   53.8965 H   0  0  0  0  0  0
   -5.6734   28.8184   53.3773 H   0  0  0  0  0  0
   -3.1390   26.2592   58.0292 H   0  0  0  0  0  0
   -6.4093   28.9700   51.0556 H   0  0  0  0  0  0
   -8.8533   25.4706   51.6033 H   0  0  0  0  0  0
  -10.1906   26.3676   50.2339 H   0  0  0  0  0  0
   -6.7390   28.5996   48.9295 H   0  0  0  0  0  0
   -2.4894   25.7381   56.5100 H   0  0  0  0  0  0
   -7.7998   28.9421   46.7658 H   0  0  0  0  0  0
  -11.2074   26.6854   48.0549 H   0  0  0  0  0  0
   -5.1480   28.3749   58.9099 H   0  0  0  0  0  0
   -4.4115   27.1252   59.9282 H   0  0  0  0  0  0
   -5.5197   26.6773   58.6377 H   0  0  0  0  0  0
   -2.7270   29.2482   58.4221 H   0  0  0  0  0  0
   -2.0540   27.9410   59.3965 H   0  0  0  0  0  0
   -1.5264   28.1511   57.7492 H   0  0  0  0  0  0
  1  2  1  0  0  0
  1  5  1  0  0  0
  1  6  2  0  0  0
  1  7  2  0  0  0
  2  3  1  0  0  0
  2 25  1  0  0  0
  3  4  1  0  0  0
  3 13  1  0  0  0
  3 26  1  0  0  0
  4 10  2  0  0  0
  4 18  1  0  0  0
  5 11  1  0  0  0
  5 12  2  0  0  0
  8 14  2  0  0  0
  8  9  1  0  0  0
  8 15  1  0  0  0
  9 16  2  0  0  0
  9 17  1  0  0  0
 11 15  2  0  0  0
 11 27  1  0  0  0
 12 14  1  0  0  0
 12 28  1  0  0  0
 13 23  1  0  0  0
 13 24  1  0  0  0
 13 29  1  0  0  0
 14 30  1  0  0  0
 15 31  1  0  0  0
 16 21  1  0  0  0
 16 32  1  0  0  0
 17 20  2  0  0  0
 17 33  1  0  0  0
 18 34  1  0  0  0
 19 20  1  0  0  0
 19 22  1  0  0  0
 19 21  2  0  0  0
 20 35  1  0  0  0
 21 36  1  0  0  0
 23 37  1  0  0  0
 23 38  1  0  0  0
 23 39  1  0  0  0
 24 40  1  0  0  0
 24 41  1  0  0  0
 24 42  1  0  0  0
M  END
> <s_m_entry_id>
64245

> <s_m_entry_name>
dock_pv.195

> <s_m_Source_Path>
/home/csk/Desktop/cluster/DUD-E-result/mmp13

> <s_m_Source_File>
dock_pv.maegz

> <i_m_Source_File_Index>
195

> <chembl_id>
CHEMBL296196

> <chembl_pref_name>
None

> <i_lp_mmshare_version>
53161

> <i_f3d_flags>
0

> <r_lp_tautomer_probability>
1

> <s_lp_Force_Field>
OPLS_2005

> <r_lp_Energy>
13.800914

> <b_lp_Chiralities_Consistent>
1

> <s_lp_Variant>
CHEMBL280_lig389-1

> <s_i_glide_gridfile>
glide-grid_830c

> <i_i_glide_lignum>
561

> <i_i_glide_rotatable_bonds>
7

> <r_i_docking_score>
-7.21655401634489

> <r_i_glide_ligand_efficiency>
-0.300689750681037

> <r_i_glide_ligand_efficiency_sa>
-0.867339326512317

> <r_i_glide_ligand_efficiency_ln>
-1.72725252219737

> <r_i_glide_gscore>
-7.21655401634489

> <r_i_glide_lipo>
-3.60056634611629

> <r_i_glide_hbond>
-0.16

> <r_i_glide_metal>
0

> <r_i_glide_rewards>
-0.729767743052345

> <r_i_glide_evdw>
-39.4887657165527

> <r_i_glide_ecoul>
-8.61502265930176

> <r_i_glide_erotb>
0.711808700201619

> <r_i_glide_esite>
-0.171336942654965

> <r_i_glide_emodel>
-60.9489890480659

> <r_i_glide_energy>
-48.1037883758545

> <r_i_glide_einternal>
9.88214874267578

> <i_i_glide_confnum>
93

> <i_i_glide_posenum>
226

> <r_i_glide_eff_state_penalty>
0

> <s_user_duplicate_titles>
CHEMBL280_lig389,66089

> <s_m_subgroup_title>
dock_pv

> <s_m_subgroupid>
dock_pv

> <b_m_subgroup_collapsed>
1

$$$$
CHEMBL280_lig634
                    3D
 Schrodinger Suite 2021-1.
 51 54  0  0  1  0            999 V2000
   -3.1700   29.2696   56.7879 C   0  0  2  0  0  0
   -6.0351   29.1108   57.0033 S   0  0  0  0  0  0
   -4.5048   29.9200   56.6695 N   0  0  2  0  0  0
   -3.1063   28.0704   55.7719 C   0  0  0  0  0  0
   -2.9727   28.8364   58.2904 C   0  0  0  0  0  0
   -2.1430   30.3839   56.3737 C   0  0  0  0  0  0
   -6.4148   28.1669   55.5344 C   0  0  0  0  0  0
   -1.1037   30.3567   58.5630 O   0  0  0  0  0  0
   -5.8584   28.1625   58.1100 O   0  0  0  0  0  0
   -7.0470   30.1700   57.0705 O   0  0  0  0  0  0
   -1.5430   29.0391   58.8621 C   0  0  2  0  0  0
   -0.8181   30.3642   57.1704 C   0  0  1  0  0  0
   -3.1389   28.2809   54.5537 O   0  0  0  0  0  0
   -3.0546   26.8103   56.2411 N   0  0  0  0  0  0
   -7.7164   26.0239   52.1977 O   0  0  0  0  0  0
   -6.4003   26.7705   55.5341 C   0  0  0  0  0  0
   -6.7920   28.8645   54.3919 C   0  0  0  0  0  0
   -7.2396   26.7720   53.2589 C   0  0  0  0  0  0
   -8.2166   26.6035   51.0507 C   0  0  0  0  0  0
   -9.2797   27.7382   48.7395 C   0  0  0  0  0  0
   -7.2128   28.1700   53.2664 C   0  0  0  0  0  0
   -6.7941   26.0814   54.3883 C   0  0  0  0  0  0
   -0.4285   28.2205   58.2196 C   0  0  0  0  0  0
   -0.0313   29.0621   57.0211 C   0  0  0  0  0  0
   -9.8020   28.2959   47.6248 F   0  0  0  0  0  0
   -3.1390   25.7700   55.3100 O   0  0  0  0  0  0
   -9.5501   26.3822   50.7133 C   0  0  0  0  0  0
   -7.4080   27.3700   50.2068 C   0  0  0  0  0  0
   -7.9390   27.9401   49.0528 C   0  0  0  0  0  0
  -10.0883   26.9628   49.5662 C   0  0  0  0  0  0
   -0.2088   31.2319   56.9115 H   0  0  0  0  0  0
   -1.5389   28.8769   59.9379 H   0  0  0  0  0  0
   -4.5585   30.6488   55.9512 H   0  0  0  0  0  0
   -3.3087   27.8241   58.5092 H   0  0  0  0  0  0
   -3.6198   29.4586   58.9100 H   0  0  0  0  0  0
   -2.5710   31.3760   56.5309 H   0  0  0  0  0  0
   -1.9105   30.3594   55.3100 H   0  0  0  0  0  0
   -3.0439   26.4950   57.2042 H   0  0  0  0  0  0
   -6.1023   26.2181   56.4141 H   0  0  0  0  0  0
   -6.7931   29.9450   54.3869 H   0  0  0  0  0  0
   -7.5388   28.7382   52.4112 H   0  0  0  0  0  0
   -6.7802   25.0008   54.3873 H   0  0  0  0  0  0
    0.4140   28.1308   58.9075 H   0  0  0  0  0  0
   -0.7444   27.2115   57.9544 H   0  0  0  0  0  0
    1.0456   29.2341   56.9887 H   0  0  0  0  0  0
   -0.3372   28.5700   56.1100 H   0  0  0  0  0  0
   -3.9054   25.2362   55.6026 H   0  0  0  0  0  0
  -10.1709   25.7699   51.3500 H   0  0  0  0  0  0
   -6.3679   27.5324   50.4506 H   0  0  0  0  0  0
   -7.3124   28.5387   48.4072 H   0  0  0  0  0  0
  -11.1271   26.8141   49.3105 H   0  0  0  0  0  0
  1  3  1  0  0  0
  1  4  1  0  0  0
  1  5  1  0  0  0
  1  6  1  0  0  0
  2  3  1  0  0  0
  2  7  1  0  0  0
  2  9  2  0  0  0
  2 10  2  0  0  0
  3 33  1  0  0  0
  4 13  2  0  0  0
  4 14  1  0  0  0
  5 11  1  0  0  0
  5 34  1  0  0  0
  5 35  1  0  0  0
  6 12  1  0  0  0
  6 36  1  0  0  0
  6 37  1  0  0  0
  7 16  2  0  0  0
  7 17  1  0  0  0
  8 12  1  0  0  0
  8 11  1  0  0  0
 11 23  1  0  0  0
 11 32  1  0  0  0
 12 24  1  0  0  0
 12 31  1  0  0  0
 14 26  1  0  0  0
 14 38  1  0  0  0
 15 18  1  0  0  0
 15 19  1  0  0  0
 16 22  1  0  0  0
 16 39  1  0  0  0
 17 21  2  0  0  0
 17 40  1  0  0  0
 18 21  1  0  0  0
 18 22  2  0  0  0
 19 27  1  0  0  0
 19 28  2  0  0  0
 20 29  2  0  0  0
 20 25  1  0  0  0
 20 30  1  0  0  0
 21 41  1  0  0  0
 22 42  1  0  0  0
 23 24  1  0  0  0
 23 43  1  0  0  0
 23 44  1  0  0  0
 24 45  1  0  0  0
 24 46  1  0  0  0
 26 47  1  0  0  0
 27 30  2  0  0  0
 27 48  1  0  0  0
 28 29  1  0  0  0
 28 49  1  0  0  0
 29 50  1  0  0  0
 30 51  1  0  0  0
M  END
> <s_m_entry_id>
64246

> <s_m_entry_name>
dock_pv.196

> <s_m_Source_Path>
/home/csk/Desktop/cluster/DUD-E-result/mmp13

> <s_m_Source_File>
dock_pv.maegz

> <i_m_Source_File_Index>
196

> <chembl_id>
CHEMBL4524116

> <chembl_pref_name>
None

> <i_lp_mmshare_version>
53161

> <i_f3d_flags>
0

> <r_lp_tautomer_probability>
1

> <s_lp_Force_Field>
OPLS_2005

> <r_lp_Energy>
45.583268

> <b_lp_Chiralities_Consistent>
1

> <s_lp_Variant>
CHEMBL280_lig634-1

> <s_i_glide_gridfile>
glide-grid_830c

> <i_i_glide_lignum>
925

> <i_i_glide_rotatable_bonds>
8

> <r_i_docking_score>
-7.21064963006565

> <r_i_glide_ligand_efficiency>
-0.240354987668855

> <r_i_glide_ligand_efficiency_sa>
-0.74683882980609

> <r_i_glide_ligand_efficiency_ln>
-1.6383381622713

> <r_i_glide_gscore>
-7.21064963006565

> <r_i_glide_lipo>
-3.26475483950376

> <r_i_glide_hbond>
-0.152393830265633

> <r_i_glide_metal>
0

> <r_i_glide_rewards>
-0.127550100085318

> <r_i_glide_evdw>
-45.2615737915039

> <r_i_glide_ecoul>
-12.9132814407349

> <r_i_glide_erotb>
0.732472723508512

> <r_i_glide_esite>
-0.198352678034034

> <r_i_glide_emodel>
-82.5148235208005

> <r_i_glide_energy>
-58.1748552322388

> <r_i_glide_einternal>
9.22524929046631

> <i_i_glide_confnum>
16

> <i_i_glide_posenum>
320

> <r_i_glide_eff_state_penalty>
0

> <s_user_duplicate_titles>
CHEMBL280_lig634

> <s_m_subgroup_title>
dock_pv

> <s_m_subgroupid>
dock_pv

> <b_m_subgroup_collapsed>
1

$$$$
CHEMBL280_lig642
                    3D
 Schrodinger Suite 2021-1.
 44 46  0  0  1  0            999 V2000
   -4.1539   27.3138   55.6730 S   0  0  0  0  0  0
   -3.8970   29.8653   56.9292 C   0  0  2  0  0  0
   -3.5530   28.9701   55.7824 N   0  0  2  0  0  0
   -5.4421   29.8999   57.1223 C   0  0  0  0  0  0
   -5.5887   27.3865   54.6120 C   0  0  0  0  0  0
   -3.1391   26.5702   54.9102 O   0  0  0  0  0  0
   -4.5790   26.8700   57.0023 O   0  0  0  0  0  0
   -5.9545   29.4633   58.1552 O   0  0  0  0  0  0
   -6.1658   30.4102   56.1097 N   0  0  0  0  0  0
   -3.3382   31.2787   56.7483 C   0  0  0  0  0  0
   -1.8506   30.0093   58.0531 O   0  0  0  0  0  0
   -8.7390   26.9251   51.8916 O   0  0  0  0  0  0
   -6.8519   26.9732   55.0266 C   0  0  0  0  0  0
   -5.3877   27.7699   53.2969 C   0  0  0  0  0  0
   -3.1632   29.4886   58.2289 C   0  0  0  0  0  0
   -7.6656   27.1804   52.7346 C   0  0  0  0  0  0
   -8.8489   27.0874   50.5149 C   0  0  0  0  0  0
   -9.4515   27.4154   47.7935 C   0  0  0  0  0  0
   -6.3949   27.6255   52.3550 C   0  0  0  0  0  0
   -7.8848   26.9006   54.0899 C   0  0  0  0  0  0
   -9.7440   27.5704   46.4827 F   0  0  0  0  0  0
   -7.5392   30.6003   56.3097 O   0  0  0  0  0  0
   -8.0935   27.9493   49.7064 C   0  0  0  0  0  0
   -9.9179   26.4072   49.9286 C   0  0  0  0  0  0
  -10.2253   26.5692   48.5779 C   0  0  0  0  0  0
   -8.3834   28.1050   48.3534 C   0  0  0  0  0  0
   -1.8995   31.2029   57.2723 C   0  0  0  0  0  0
   -3.5917   29.4759   54.8915 H   0  0  0  0  0  0
   -5.7898   30.9632   55.3494 H   0  0  0  0  0  0
   -3.8882   32.0117   57.3443 H   0  0  0  0  0  0
   -3.3719   31.6246   55.7142 H   0  0  0  0  0  0
   -7.0264   26.6797   56.0523 H   0  0  0  0  0  0
   -4.4062   28.0684   52.9702 H   0  0  0  0  0  0
   -3.1230   28.4176   58.4261 H   0  0  0  0  0  0
   -3.5931   29.9491   59.1215 H   0  0  0  0  0  0
   -6.0925   27.7754   51.3374 H   0  0  0  0  0  0
   -8.8556   26.5685   54.4161 H   0  0  0  0  0  0
   -7.6275   30.5522   57.2687 H   0  0  0  0  0  0
   -7.3142   28.5714   50.0916 H   0  0  0  0  0  0
  -10.5276   25.7631   50.5419 H   0  0  0  0  0  0
  -11.0569   26.0477   48.1285 H   0  0  0  0  0  0
   -7.7939   28.7770   47.7460 H   0  0  0  0  0  0
   -1.6715   32.0792   57.8825 H   0  0  0  0  0  0
   -1.1993   31.1249   56.4390 H   0  0  0  0  0  0
  1  3  1  0  0  0
  1  5  1  0  0  0
  1  6  2  0  0  0
  1  7  2  0  0  0
  2  3  1  0  0  0
  2  4  1  0  0  0
  2 10  1  0  0  0
  2 15  1  0  0  0
  3 28  1  0  0  0
  4  8  2  0  0  0
  4  9  1  0  0  0
  5 13  2  0  0  0
  5 14  1  0  0  0
  9 22  1  0  0  0
  9 29  1  0  0  0
 10 27  1  0  0  0
 10 30  1  0  0  0
 10 31  1  0  0  0
 11 15  1  0  0  0
 11 27  1  0  0  0
 12 16  1  0  0  0
 12 17  1  0  0  0
 13 20  1  0  0  0
 13 32  1  0  0  0
 14 19  2  0  0  0
 14 33  1  0  0  0
 15 34  1  0  0  0
 15 35  1  0  0  0
 16 19  1  0  0  0
 16 20  2  0  0  0
 17 23  1  0  0  0
 17 24  2  0  0  0
 18 25  2  0  0  0
 18 21  1  0  0  0
 18 26  1  0  0  0
 19 36  1  0  0  0
 20 37  1  0  0  0
 22 38  1  0  0  0
 23 26  2  0  0  0
 23 39  1  0  0  0
 24 25  1  0  0  0
 24 40  1  0  0  0
 25 41  1  0  0  0
 26 42  1  0  0  0
 27 43  1  0  0  0
 27 44  1  0  0  0
M  END
> <s_m_entry_id>
64247

> <s_m_entry_name>
dock_pv.197

> <s_m_Source_Path>
/home/csk/Desktop/cluster/DUD-E-result/mmp13

> <s_m_Source_File>
dock_pv.maegz

> <i_m_Source_File_Index>
197

> <chembl_id>
CHEMBL116219

> <chembl_pref_name>
None

> <i_lp_mmshare_version>
53161

> <i_f3d_flags>
0

> <r_lp_tautomer_probability>
1

> <s_lp_Force_Field>
OPLS_2005

> <r_lp_Energy>
31.209218

> <b_lp_Chiralities_Consistent>
1

> <s_lp_Variant>
CHEMBL280_lig642-1

> <s_i_glide_gridfile>
glide-grid_830c

> <i_i_glide_lignum>
936

> <i_i_glide_rotatable_bonds>
8

> <r_i_docking_score>
-7.20749552611811

> <r_i_glide_ligand_efficiency>
-0.266944278745115

> <r_i_glide_ligand_efficiency_sa>
-0.800832835355541

> <r_i_glide_ligand_efficiency_ln>
-1.67778613362988

> <r_i_glide_gscore>
-7.20749552611811

> <r_i_glide_lipo>
-3.27749545241529

> <r_i_glide_hbond>
-0.536773302959918

> <r_i_glide_metal>
0

> <r_i_glide_rewards>
-0.0406172279999125

> <r_i_glide_evdw>
-40.5587730407715

> <r_i_glide_ecoul>
-12.8626289367676

> <r_i_glide_erotb>
0.871598103765216

> <r_i_glide_esite>
-0.266874653954495

> <r_i_glide_emodel>
-64.0162175192317

> <r_i_glide_energy>
-53.4214019775391

> <r_i_glide_einternal>
16.286548614502

> <i_i_glide_confnum>
213

> <i_i_glide_posenum>
139

> <r_i_glide_eff_state_penalty>
0

> <s_user_duplicate_titles>
CHEMBL280_lig642

> <s_m_subgroup_title>
dock_pv

> <s_m_subgroupid>
dock_pv

> <b_m_subgroup_collapsed>
1

$$$$
CHEMBL280_lig598
                    3D
 Schrodinger Suite 2021-1.
 43 45  0  0  1  0            999 V2000
   -5.9423   28.7711   57.0020 S   0  0  0  0  0  0
   -4.1396   29.1498   56.6060 C   0  0  2  0  0  0
   -6.5215   27.9319   55.5207 C   0  0  0  0  0  0
   -6.6772   30.0364   57.1030 O   0  0  0  0  0  0
   -5.9560   27.8035   58.1090 O   0  0  0  0  0  0
   -3.4616   27.8019   56.3154 C   0  0  0  0  0  0
   -7.0492   28.6845   54.4723 C   0  0  0  0  0  0
   -6.4349   26.5427   55.4081 C   0  0  0  0  0  0
   -7.9405   25.9509   52.1209 O   0  0  0  0  0  0
   -7.4449   26.6537   53.2064 C   0  0  0  0  0  0
   -1.9384   27.8578   56.2965 C   0  0  2  0  0  0
   -1.3352   26.1700   56.1104 S   0  0  0  0  0  0
   -6.8824   25.9140   54.2478 C   0  0  0  0  0  0
   -7.5156   28.0460   53.3269 C   0  0  0  0  0  0
   -8.3620   26.5730   50.9635 C   0  0  0  0  0  0
   -3.5087   29.9314   57.7797 C   0  0  0  0  0  0
   -1.9735   29.9991   57.6727 C   0  0  0  0  0  0
   -1.3530   28.5976   57.5137 C   0  0  0  0  0  0
   -7.5020   27.3848   50.2194 C   0  0  0  0  0  0
   -9.6640   26.3538   50.5119 C   0  0  0  0  0  0
  -10.1168   26.9699   49.3478 C   0  0  0  0  0  0
   -7.9473   27.9980   49.0518 C   0  0  0  0  0  0
   -9.2557   27.7902   48.6228 C   0  0  0  0  0  0
   -4.2188   29.7688   55.7101 H   0  0  0  0  0  0
   -3.7564   27.0865   57.0856 H   0  0  0  0  0  0
   -3.8229   27.4027   55.3672 H   0  0  0  0  0  0
   -7.1066   29.7609   54.5458 H   0  0  0  0  0  0
   -6.0145   25.9468   56.2071 H   0  0  0  0  0  0
   -1.5893   28.3222   55.3741 H   0  0  0  0  0  0
   -1.8490   25.7329   57.2679 H   0  0  0  0  0  0
   -6.8021   24.8395   54.1623 H   0  0  0  0  0  0
   -7.9388   28.6373   52.5342 H   0  0  0  0  0  0
   -3.9278   30.9381   57.8306 H   0  0  0  0  0  0
   -3.7685   29.4470   58.7233 H   0  0  0  0  0  0
   -1.6957   30.6232   56.8206 H   0  0  0  0  0  0
   -1.5626   30.4913   58.5549 H   0  0  0  0  0  0
   -1.5352   28.0188   58.4212 H   0  0  0  0  0  0
   -0.2696   28.6815   57.4172 H   0  0  0  0  0  0
   -6.4862   27.5462   50.5498 H   0  0  0  0  0  0
  -10.3249   25.7135   51.0758 H   0  0  0  0  0  0
  -11.1291   26.8137   49.0051 H   0  0  0  0  0  0
   -7.2791   28.6322   48.4870 H   0  0  0  0  0  0
   -9.6037   28.2694   47.7199 H   0  0  0  0  0  0
  1  2  1  0  0  0
  1  3  1  0  0  0
  1  4  2  0  0  0
  1  5  2  0  0  0
  2  6  1  0  0  0
  2 16  1  0  0  0
  2 24  1  0  0  0
  3  7  1  0  0  0
  3  8  2  0  0  0
  6 11  1  0  0  0
  6 25  1  0  0  0
  6 26  1  0  0  0
  7 14  2  0  0  0
  7 27  1  0  0  0
  8 13  1  0  0  0
  8 28  1  0  0  0
  9 10  1  0  0  0
  9 15  1  0  0  0
 10 13  2  0  0  0
 10 14  1  0  0  0
 11 12  1  0  0  0
 11 18  1  0  0  0
 11 29  1  0  0  0
 12 30  1  0  0  0
 13 31  1  0  0  0
 14 32  1  0  0  0
 15 19  2  0  0  0
 15 20  1  0  0  0
 16 17  1  0  0  0
 16 33  1  0  0  0
 16 34  1  0  0  0
 17 18  1  0  0  0
 17 35  1  0  0  0
 17 36  1  0  0  0
 18 37  1  0  0  0
 18 38  1  0  0  0
 19 22  1  0  0  0
 19 39  1  0  0  0
 20 21  2  0  0  0
 20 40  1  0  0  0
 21 23  1  0  0  0
 21 41  1  0  0  0
 22 23  2  0  0  0
 22 42  1  0  0  0
 23 43  1  0  0  0
M  END
> <s_m_entry_id>
64248

> <s_m_entry_name>
dock_pv.198

> <s_m_Source_Path>
/home/csk/Desktop/cluster/DUD-E-result/mmp13

> <s_m_Source_File>
dock_pv.maegz

> <i_m_Source_File_Index>
198

> <chembl_id>
CHEMBL48474

> <chembl_pref_name>
None

> <i_lp_mmshare_version>
53161

> <i_f3d_flags>
0

> <r_lp_tautomer_probability>
1

> <s_lp_Force_Field>
OPLS_2005

> <r_lp_Energy>
13.378801

> <b_lp_Chiralities_Consistent>
1

> <s_lp_Variant>
CHEMBL280_lig598-1

> <s_i_glide_gridfile>
glide-grid_830c

> <i_i_glide_lignum>
862

> <i_i_glide_rotatable_bonds>
5

> <r_i_docking_score>
-7.195594710952

> <r_i_glide_ligand_efficiency>
-0.312851943954435

> <r_i_glide_ligand_efficiency_sa>
-0.889709312064498

> <r_i_glide_ligand_efficiency_ln>
-1.73996004715372

> <r_i_glide_gscore>
-7.195594710952

> <r_i_glide_lipo>
-3.32045799848039

> <r_i_glide_hbond>
0

> <r_i_glide_metal>
0

> <r_i_glide_rewards>
-1.09417743017307

> <r_i_glide_evdw>
-43.8790626525879

> <r_i_glide_ecoul>
-7.41361284255981

> <r_i_glide_erotb>
0.627049164924369

> <r_i_glide_esite>
-0.102013388209545

> <r_i_glide_emodel>
-73.307398214869

> <r_i_glide_energy>
-51.2926754951477

> <r_i_glide_einternal>
1.81565535068512

> <i_i_glide_confnum>
8

> <i_i_glide_posenum>
34

> <r_i_glide_eff_state_penalty>
0

> <s_user_duplicate_titles>
CHEMBL280_lig598

> <s_m_subgroup_title>
dock_pv

> <s_m_subgroupid>
dock_pv

> <b_m_subgroup_collapsed>
1

$$$$
CHEMBL280_lig1502
                    3D
 Schrodinger Suite 2021-1.
 40 42  0  0  1  0            999 V2000
   -2.7917   28.9528   56.4533 C   0  0  0  0  0  0
   -1.6616   29.7654   56.2818 C   0  0  0  0  0  0
   -1.5477   30.9829   56.9473 C   0  0  0  0  0  0
   -2.5636   31.4029   57.7994 C   0  0  0  0  0  0
   -3.6959   30.6126   57.9738 C   0  0  0  0  0  0
   -3.8340   29.3893   57.3021 C   0  0  0  0  0  0
   -5.3674   28.4682   57.5947 S   0  0  0  0  0  0
   -6.0135   27.9605   56.0086 C   0  0  0  0  0  0
   -5.0320   27.2733   58.3716 O   0  0  0  0  0  0
   -6.3388   29.4358   58.1105 O   0  0  0  0  0  0
   -6.2739   26.6257   55.6758 C   0  0  0  0  0  0
   -6.7951   26.3239   54.4136 C   0  0  0  0  0  0
   -7.0323   27.3426   53.4788 C   0  0  0  0  0  0
   -6.7394   28.6546   53.8358 C   0  0  0  0  0  0
   -6.2630   28.9711   55.0934 C   0  0  0  0  0  0
   -2.8322   27.6534   55.7059 C   0  0  0  0  0  0
   -3.1389   27.6070   54.5101 O   0  0  0  0  0  0
   -2.4155   26.5863   56.3970 N   0  0  0  0  0  0
   -2.3392   25.3698   55.7156 O   0  0  0  0  0  0
   -7.6192   27.0936   52.1337 C   0  0  0  0  0  0
   -7.1396   27.7699   51.0052 C   0  0  0  0  0  0
   -7.7420   27.6130   49.7618 C   0  0  0  0  0  0
   -8.8481   26.7797   49.6382 C   0  0  0  0  0  0
   -9.3476   26.1124   50.7502 C   0  0  0  0  0  0
   -8.7257   26.2577   51.9856 C   0  0  0  0  0  0
   -0.8594   29.4613   55.6235 H   0  0  0  0  0  0
   -0.6703   31.5977   56.8085 H   0  0  0  0  0  0
   -2.4726   32.3407   58.3258 H   0  0  0  0  0  0
   -4.4708   30.9622   58.6415 H   0  0  0  0  0  0
   -6.0800   25.8301   56.3821 H   0  0  0  0  0  0
   -7.0031   25.2960   54.1584 H   0  0  0  0  0  0
   -6.8947   29.4485   53.1310 H   0  0  0  0  0  0
   -6.0562   30.0039   55.3406 H   0  0  0  0  0  0
   -2.1877   26.5258   57.3814 H   0  0  0  0  0  0
   -3.0567   24.8409   56.1090 H   0  0  0  0  0  0
   -6.3377   28.4779   51.0978 H   0  0  0  0  0  0
   -7.3587   28.1495   48.9054 H   0  0  0  0  0  0
   -9.3264   26.6615   48.6782 H   0  0  0  0  0  0
  -10.2123   25.4743   50.6544 H   0  0  0  0  0  0
   -9.1359   25.7701   52.8526 H   0  0  0  0  0  0
  1  6  1  0  0  0
  1  2  2  0  0  0
  1 16  1  0  0  0
  2  3  1  0  0  0
  2 26  1  0  0  0
  3  4  2  0  0  0
  3 27  1  0  0  0
  4  5  1  0  0  0
  4 28  1  0  0  0
  5  6  2  0  0  0
  5 29  1  0  0  0
  6  7  1  0  0  0
  7  8  1  0  0  0
  7  9  2  0  0  0
  7 10  2  0  0  0
  8 15  1  0  0  0
  8 11  2  0  0  0
 11 12  1  0  0  0
 11 30  1  0  0  0
 12 13  2  0  0  0
 12 31  1  0  0  0
 13 14  1  0  0  0
 13 20  1  0  0  0
 14 15  2  0  0  0
 14 32  1  0  0  0
 15 33  1  0  0  0
 16 17  2  0  0  0
 16 18  1  0  0  0
 18 19  1  0  0  0
 18 34  1  0  0  0
 19 35  1  0  0  0
 20 21  2  0  0  0
 20 25  1  0  0  0
 21 22  1  0  0  0
 21 36  1  0  0  0
 22 23  2  0  0  0
 22 37  1  0  0  0
 23 24  1  0  0  0
 23 38  1  0  0  0
 24 25  2  0  0  0
 24 39  1  0  0  0
 25 40  1  0  0  0
M  END
> <s_m_entry_id>
64249

> <s_m_entry_name>
dock_pv.199

> <s_m_Source_Path>
/home/csk/Desktop/cluster/DUD-E-result/mmp13

> <s_m_Source_File>
dock_pv.maegz

> <i_m_Source_File_Index>
199

> <chembl_id>
CHEMBL574589

> <chembl_pref_name>
None

> <i_lp_mmshare_version>
53161

> <i_f3d_flags>
0

> <r_lp_tautomer_probability>
1

> <s_lp_Force_Field>
OPLS_2005

> <r_lp_Energy>
34.834844

> <b_lp_Chiralities_Consistent>
1

> <s_lp_Variant>
CHEMBL280_lig1502-1

> <s_i_glide_gridfile>
glide-grid_830c

> <i_i_glide_lignum>
2234

> <i_i_glide_rotatable_bonds>
6

> <r_i_docking_score>
-7.19535332033695

> <r_i_glide_ligand_efficiency>
-0.287814132813478

> <r_i_glide_ligand_efficiency_sa>
-0.841573628751989

> <r_i_glide_ligand_efficiency_ln>
-1.70551436425881

> <r_i_glide_gscore>
-7.19535332033695

> <r_i_glide_lipo>
-3.07680849876937

> <r_i_glide_hbond>
0

> <r_i_glide_metal>
0

> <r_i_glide_rewards>
-0.999595213541722

> <r_i_glide_evdw>
-43.2619438171387

> <r_i_glide_ecoul>
-10.0272665023804

> <r_i_glide_erotb>
0.764546652755582

> <r_i_glide_esite>
-0.216309094567445

> <r_i_glide_emodel>
-76.5407541111011

> <r_i_glide_energy>
-53.289210319519

> <r_i_glide_einternal>
8.33240509033203

> <i_i_glide_confnum>
142

> <i_i_glide_posenum>
65

> <r_i_glide_eff_state_penalty>
0

> <s_user_duplicate_titles>
CHEMBL280_lig1502

> <s_m_subgroup_title>
dock_pv

> <s_m_subgroupid>
dock_pv

> <b_m_subgroup_collapsed>
1

$$$$
CHEMBL280_lig290
                    3D
 Schrodinger Suite 2021-1.
 43 44  0  0  1  0            999 V2000
   -5.7092   27.8588   56.9273 S   0  0  0  0  0  0
   -3.8061   28.1816   56.9581 C   0  0  1  0  0  0
   -3.0629   27.1558   56.0691 C   0  0  0  0  0  0
   -6.2800   27.4918   55.2542 C   0  0  0  0  0  0
   -5.9389   26.6355   57.7043 O   0  0  0  0  0  0
   -6.4203   29.0784   57.3106 O   0  0  0  0  0  0
   -3.4166   29.6409   56.5046 C   0  0  0  0  0  0
   -2.7388   27.4279   54.9086 O   0  0  0  0  0  0
   -2.8259   25.9421   56.5787 N   0  0  0  0  0  0
   -5.8150   28.2020   54.1539 C   0  0  0  0  0  0
   -7.3033   26.5612   55.0741 C   0  0  0  0  0  0
   -3.4029   28.0193   58.4557 C   0  0  0  0  0  0
   -7.3801   27.0567   52.7045 C   0  0  0  0  0  0
   -4.0210   30.8359   57.2512 C   0  0  0  0  0  0
   -7.8588   26.3586   53.8108 C   0  0  0  0  0  0
   -6.3444   27.9822   52.8854 C   0  0  0  0  0  0
   -2.3390   24.9702   55.7090 O   0  0  0  0  0  0
   -7.9835   26.7876   51.4913 O   0  0  0  0  0  0
   -3.4839   31.2453   58.4775 C   0  0  0  0  0  0
   -5.0824   31.5552   56.6896 C   0  0  0  0  0  0
   -7.5579   27.4960   50.3300 C   0  0  0  0  0  0
   -5.6322   32.6395   57.3691 C   0  0  0  0  0  0
   -4.0329   32.3289   59.1584 C   0  0  0  0  0  0
   -5.1084   33.0183   58.6029 C   0  0  0  0  0  0
   -3.5648   29.7730   55.4373 H   0  0  0  0  0  0
   -2.3342   29.7566   56.5972 H   0  0  0  0  0  0
   -3.1262   25.5719   57.4775 H   0  0  0  0  0  0
   -5.0753   28.9691   54.2760 H   0  0  0  0  0  0
   -7.7009   26.0214   55.9216 H   0  0  0  0  0  0
   -2.3546   28.2649   58.6302 H   0  0  0  0  0  0
   -3.9947   28.6864   59.0804 H   0  0  0  0  0  0
   -3.5859   27.0190   58.8494 H   0  0  0  0  0  0
   -8.6872   25.6743   53.6881 H   0  0  0  0  0  0
   -5.9557   28.5610   52.0615 H   0  0  0  0  0  0
   -3.0697   24.3174   55.7101 H   0  0  0  0  0  0
   -2.6453   30.7219   58.9119 H   0  0  0  0  0  0
   -5.5006   31.2628   55.7353 H   0  0  0  0  0  0
   -8.0974   27.1218   49.4603 H   0  0  0  0  0  0
   -7.7727   28.5600   50.4174 H   0  0  0  0  0  0
   -6.4940   27.3665   50.1334 H   0  0  0  0  0  0
   -6.4654   33.1788   56.9431 H   0  0  0  0  0  0
   -3.6272   32.6332   60.1119 H   0  0  0  0  0  0
   -5.5395   33.8560   59.1313 H   0  0  0  0  0  0
  1  2  1  0  0  0
  1  4  1  0  0  0
  1  5  2  0  0  0
  1  6  2  0  0  0
  2  3  1  0  0  0
  2  7  1  0  0  0
  2 12  1  0  0  0
  3  8  2  0  0  0
  3  9  1  0  0  0
  4 10  1  0  0  0
  4 11  2  0  0  0
  7 14  1  0  0  0
  7 25  1  0  0  0
  7 26  1  0  0  0
  9 17  1  0  0  0
  9 27  1  0  0  0
 10 16  2  0  0  0
 10 28  1  0  0  0
 11 15  1  0  0  0
 11 29  1  0  0  0
 12 30  1  0  0  0
 12 31  1  0  0  0
 12 32  1  0  0  0
 13 15  2  0  0  0
 13 18  1  0  0  0
 13 16  1  0  0  0
 14 19  1  0  0  0
 14 20  2  0  0  0
 15 33  1  0  0  0
 16 34  1  0  0  0
 17 35  1  0  0  0
 18 21  1  0  0  0
 19 23  2  0  0  0
 19 36  1  0  0  0
 20 22  1  0  0  0
 20 37  1  0  0  0
 21 38  1  0  0  0
 21 39  1  0  0  0
 21 40  1  0  0  0
 22 24  2  0  0  0
 22 41  1  0  0  0
 23 24  1  0  0  0
 23 42  1  0  0  0
 24 43  1  0  0  0
M  END
> <s_m_entry_id>
64250

> <s_m_entry_name>
dock_pv.200

> <s_m_Source_Path>
/home/csk/Desktop/cluster/DUD-E-result/mmp13

> <s_m_Source_File>
dock_pv.maegz

> <i_m_Source_File_Index>
200

> <chembl_id>
CHEMBL76673

> <chembl_pref_name>
None

> <i_lp_mmshare_version>
53161

> <i_f3d_flags>
0

> <r_lp_tautomer_probability>
1

> <s_lp_Force_Field>
OPLS_2005

> <r_lp_Energy>
27.64051

> <b_lp_Chiralities_Consistent>
1

> <s_lp_Variant>
CHEMBL280_lig290-1

> <s_i_glide_gridfile>
glide-grid_830c

> <i_i_glide_lignum>
401

> <i_i_glide_rotatable_bonds>
8

> <r_i_docking_score>
-7.19436308983787

> <r_i_glide_ligand_efficiency>
-0.299765128743245

> <r_i_glide_ligand_efficiency_sa>
-0.864672255330188

> <r_i_glide_ligand_efficiency_ln>
-1.72194121520898

> <r_i_glide_gscore>
-7.19436308983787

> <r_i_glide_lipo>
-2.23984792411141

> <r_i_glide_hbond>
-0.304

> <r_i_glide_metal>
0

> <r_i_glide_rewards>
-1.17584347959225

> <r_i_glide_evdw>
-31.0642948150635

> <r_i_glide_ecoul>
-16.4076290130615

> <r_i_glide_erotb>
0.780143842334724

> <r_i_glide_esite>
-0.240456435756529

> <r_i_glide_emodel>
-63.506755208495

> <r_i_glide_energy>
-47.471923828125

> <r_i_glide_einternal>
17.420690536499

> <i_i_glide_confnum>
4

> <i_i_glide_posenum>
99

> <r_i_glide_eff_state_penalty>
0

> <s_user_duplicate_titles>
CHEMBL280_lig290,124391

> <s_m_subgroup_title>
dock_pv

> <s_m_subgroupid>
dock_pv

> <b_m_subgroup_collapsed>
1

$$$$
CHEMBL280_lig993
                    3D
 Schrodinger Suite 2021-1.
 42 43  0  0  1  0            999 V2000
   -5.2987   28.4356   57.5334 S   0  0  0  0  0  0
   -3.5508   28.5544   57.2557 N   0  0  3  0  0  0
   -2.5700   27.7305   58.0360 C   0  0  1  0  0  0
   -2.0557   26.5048   57.2370 C   0  0  0  0  0  0
   -5.9764   27.8815   55.9714 C   0  0  0  0  0  0
   -5.8085   29.7906   57.7662 O   0  0  0  0  0  0
   -5.5390   27.3700   58.5100 O   0  0  0  0  0  0
   -8.5630   26.9022   50.1671 C   0  0  0  0  0  0
   -9.3731   26.5517   49.3230 C   0  0  0  0  0  0
   -1.0726   25.8791   57.6424 O   0  0  0  0  0  0
   -3.0163   29.5706   56.3125 C   0  0  0  0  0  0
   -2.7390   26.1352   56.1371 N   0  0  0  0  0  0
   -0.8660   29.3731   57.4263 O   0  0  0  0  0  0
   -6.2511   28.8236   54.9839 C   0  0  0  0  0  0
   -6.2218   26.5291   55.7334 C   0  0  0  0  0  0
   -1.3884   28.6135   58.5190 C   0  0  0  0  0  0
   -7.0037   27.0630   53.4977 C   0  0  0  0  0  0
   -6.7390   28.4172   53.7477 C   0  0  0  0  0  0
   -6.7390   26.1307   54.5020 C   0  0  0  0  0  0
   -2.3390   24.9700   55.4653 O   0  0  0  0  0  0
   -7.6062   27.4089   51.1625 C   0  0  0  0  0  0
   -7.5261   26.5696   52.3154 O   0  0  0  0  0  0
   -1.8028   30.3135   56.9011 C   0  0  0  0  0  0
  -10.3390   26.1700   48.2819 C   0  0  0  0  0  0
   -3.0744   27.2650   58.8833 H   0  0  0  0  0  0
   -2.7310   29.0557   55.3954 H   0  0  0  0  0  0
   -3.8113   30.2681   56.0481 H   0  0  0  0  0  0
   -3.6452   26.4876   55.8539 H   0  0  0  0  0  0
   -6.0614   29.8727   55.1619 H   0  0  0  0  0  0
   -6.0125   25.7832   56.4893 H   0  0  0  0  0  0
   -0.5841   28.0252   58.9641 H   0  0  0  0  0  0
   -1.7224   29.2887   59.3093 H   0  0  0  0  0  0
   -6.9025   29.1817   53.0085 H   0  0  0  0  0  0
   -6.9190   25.0821   54.3153 H   0  0  0  0  0  0
   -3.0302   24.3204   55.7100 H   0  0  0  0  0  0
   -6.6238   27.4987   50.6976 H   0  0  0  0  0  0
   -7.9390   28.4172   51.3894 H   0  0  0  0  0  0
   -1.3157   30.9139   56.1323 H   0  0  0  0  0  0
   -2.1179   31.0009   57.6888 H   0  0  0  0  0  0
  -11.3253   26.5700   48.5177 H   0  0  0  0  0  0
  -10.3868   25.0833   48.2130 H   0  0  0  0  0  0
  -10.0158   26.5705   47.3211 H   0  0  0  0  0  0
  1  2  1  0  0  0
  1  5  1  0  0  0
  1  6  2  0  0  0
  1  7  2  0  0  0
  2  3  1  0  0  0
  2 11  1  0  0  0
  3  4  1  0  0  0
  3 16  1  0  0  0
  3 25  1  0  0  0
  4 10  2  0  0  0
  4 12  1  0  0  0
  5 14  2  0  0  0
  5 15  1  0  0  0
  8 21  1  0  0  0
  8  9  3  0  0  0
  9 24  1  0  0  0
 11 23  1  0  0  0
 11 26  1  0  0  0
 11 27  1  0  0  0
 12 20  1  0  0  0
 12 28  1  0  0  0
 13 23  1  0  0  0
 13 16  1  0  0  0
 14 18  1  0  0  0
 14 29  1  0  0  0
 15 19  2  0  0  0
 15 30  1  0  0  0
 16 31  1  0  0  0
 16 32  1  0  0  0
 17 19  1  0  0  0
 17 22  1  0  0  0
 17 18  2  0  0  0
 18 33  1  0  0  0
 19 34  1  0  0  0
 20 35  1  0  0  0
 21 22  1  0  0  0
 21 36  1  0  0  0
 21 37  1  0  0  0
 23 38  1  0  0  0
 23 39  1  0  0  0
 24 40  1  0  0  0
 24 41  1  0  0  0
 24 42  1  0  0  0
M  END
> <s_m_entry_id>
64251

> <s_m_entry_name>
dock_pv.201

> <s_m_Source_Path>
/home/csk/Desktop/cluster/DUD-E-result/mmp13

> <s_m_Source_File>
dock_pv.maegz

> <i_m_Source_File_Index>
201

> <chembl_id>
CHEMBL196092

> <chembl_pref_name>
None

> <i_lp_mmshare_version>
53161

> <i_f3d_flags>
0

> <r_lp_tautomer_probability>
1

> <s_lp_Force_Field>
OPLS_2005

> <r_lp_Energy>
22.596009

> <b_lp_Chiralities_Consistent>
1

> <s_lp_Variant>
CHEMBL280_lig993-2

> <s_i_glide_gridfile>
glide-grid_830c

> <i_i_glide_lignum>
1641

> <i_i_glide_rotatable_bonds>
8

> <r_i_docking_score>
-7.19075201032259

> <r_i_glide_ligand_efficiency>
-0.299614667096774

> <r_i_glide_ligand_efficiency_sa>
-0.864238248840708

> <r_i_glide_ligand_efficiency_ln>
-1.72107691817933

> <r_i_glide_gscore>
-7.19075201032259

> <r_i_glide_lipo>
-2.52164780277583

> <r_i_glide_hbond>
-0.304

> <r_i_glide_metal>
0

> <r_i_glide_rewards>
-0.920069769836381

> <r_i_glide_evdw>
-32.6321144104004

> <r_i_glide_ecoul>
-17.4678916931152

> <r_i_glide_erotb>
1.06506819200193

> <r_i_glide_esite>
-0.258313155225007

> <r_i_glide_emodel>
-74.7950159877185

> <r_i_glide_energy>
-50.1000061035156

> <r_i_glide_einternal>
3.85904359817505

> <i_i_glide_confnum>
52

> <i_i_glide_posenum>
245

> <r_i_glide_eff_state_penalty>
0

> <s_user_duplicate_titles>
CHEMBL280_lig993,330913

> <s_m_subgroup_title>
dock_pv

> <s_m_subgroupid>
dock_pv

> <b_m_subgroup_collapsed>
1

$$$$
CHEMBL280_lig1982
                    3D
 Schrodinger Suite 2021-1.
 46 48  0  0  1  0            999 V2000
   -5.9387   27.3278   58.1062 O   0  0  0  0  0  0
   -5.5305   28.0803   56.9168 S   0  0  0  0  0  0
   -5.1897   29.5031   57.0033 O   0  0  0  0  0  0
   -9.9364   26.9189   49.0378 C   0  0  0  0  0  0
   -9.0471   27.6318   48.2416 C   0  0  0  0  0  0
   -7.8395   28.0604   48.7791 C   0  0  0  0  0  0
   -7.5240   27.7715   50.1064 C   0  0  0  0  0  0
   -8.4229   27.0965   50.9430 C   0  0  0  0  0  0
   -9.6186   26.6551   50.3704 C   0  0  0  0  0  0
   -8.2158   26.8806   52.3026 O   0  0  0  0  0  0
   -6.8893   26.9354   52.8303 C   0  0  0  0  0  0
   -6.4026   28.3531   53.2190 C   0  0  0  0  0  0
   -6.9103   28.8615   54.5792 C   0  0  0  0  0  0
   -6.7384   27.8474   55.6419 N   0  0  3  0  0  0
   -7.2755   26.4972   55.3432 C   0  0  0  0  0  0
   -6.7330   25.9528   54.0131 C   0  0  0  0  0  0
   -4.0695   27.1438   56.2155 C   0  0  0  0  0  0
   -2.7280   27.5622   56.8685 C   0  0  2  0  0  0
   -1.7773   26.3912   56.7434 C   0  0  0  0  0  0
   -1.2358   26.2320   57.9579 N   0  0  0  0  0  0
   -1.8204   26.9621   58.9227 C   0  0  0  0  0  0
   -2.7356   27.7159   58.2995 N   0  0  0  0  0  0
   -2.1047   28.7940   56.1608 C   0  0  0  0  0  0
   -1.5346   25.7692   55.7099 O   0  0  0  0  0  0
   -1.6371   26.8509   60.1298 O   0  0  0  0  0  0
  -10.7343   25.7700   51.3100 Cl  0  0  0  0  0  0
   -9.4366   27.9687   46.5953 Cl  0  0  0  0  0  0
  -10.8746   26.5775   48.6243 H   0  0  0  0  0  0
   -7.1350   28.6103   48.1696 H   0  0  0  0  0  0
   -6.5911   28.1466   50.4814 H   0  0  0  0  0  0
   -6.2059   26.5698   52.0831 H   0  0  0  0  0  0
   -6.6613   29.0707   52.4470 H   0  0  0  0  0  0
   -5.3115   28.3430   53.2650 H   0  0  0  0  0  0
   -7.9600   29.1398   54.5343 H   0  0  0  0  0  0
   -6.3709   29.7700   54.8559 H   0  0  0  0  0  0
   -7.0044   25.8236   56.1574 H   0  0  0  0  0  0
   -8.3641   26.5505   55.3309 H   0  0  0  0  0  0
   -5.6735   25.7576   54.1674 H   0  0  0  0  0  0
   -7.1740   24.9879   53.7618 H   0  0  0  0  0  0
   -4.0717   27.3225   55.1417 H   0  0  0  0  0  0
   -4.3210   26.0911   56.3760 H   0  0  0  0  0  0
   -0.5291   25.5494   58.1747 H   0  0  0  0  0  0
   -3.1032   28.5642   58.7038 H   0  0  0  0  0  0
   -1.9436   28.6195   55.0964 H   0  0  0  0  0  0
   -2.7520   29.6678   56.2360 H   0  0  0  0  0  0
   -1.1448   29.0791   56.5972 H   0  0  0  0  0  0
  1  2  2  0  0  0
  2  3  2  0  0  0
  2 14  1  0  0  0
  2 17  1  0  0  0
  4  5  2  0  0  0
  4  9  1  0  0  0
  4 28  1  0  0  0
  5  6  1  0  0  0
  5 27  1  0  0  0
  6  7  2  0  0  0
  6 29  1  0  0  0
  7  8  1  0  0  0
  7 30  1  0  0  0
  8  9  2  0  0  0
  8 10  1  0  0  0
  9 26  1  0  0  0
 10 11  1  0  0  0
 11 12  1  0  0  0
 11 16  1  0  0  0
 11 31  1  0  0  0
 12 13  1  0  0  0
 12 32  1  0  0  0
 12 33  1  0  0  0
 13 14  1  0  0  0
 13 34  1  0  0  0
 13 35  1  0  0  0
 14 15  1  0  0  0
 15 16  1  0  0  0
 15 36  1  0  0  0
 15 37  1  0  0  0
 16 38  1  0  0  0
 16 39  1  0  0  0
 17 18  1  0  0  0
 17 40  1  0  0  0
 17 41  1  0  0  0
 18 19  1  0  0  0
 18 22  1  0  0  0
 18 23  1  0  0  0
 19 20  1  0  0  0
 19 24  2  0  0  0
 20 21  1  0  0  0
 20 42  1  0  0  0
 21 22  1  0  0  0
 21 25  2  0  0  0
 22 43  1  0  0  0
 23 44  1  0  0  0
 23 45  1  0  0  0
 23 46  1  0  0  0
M  END
> <s_m_entry_id>
64252

> <s_m_entry_name>
dock_pv.202

> <s_m_Source_Path>
/home/csk/Desktop/cluster/DUD-E-result/mmp13

> <s_m_Source_File>
dock_pv.maegz

> <i_m_Source_File_Index>
202

> <chembl_id>
CHEMBL2409709

> <chembl_pref_name>
None

> <i_lp_mmshare_version>
53161

> <i_f3d_flags>
0

> <r_lp_tautomer_probability>
0.99999999978137

> <s_lp_Force_Field>
OPLS_2005

> <r_lp_Energy>
24.817218

> <b_lp_Chiralities_Consistent>
1

> <s_lp_Variant>
CHEMBL280_lig1982-1

> <s_i_glide_gridfile>
glide-grid_830c

> <i_i_glide_lignum>
2751

> <i_i_glide_rotatable_bonds>
5

> <r_i_docking_score>
-7.18831321435348

> <r_i_glide_ligand_efficiency>
-0.266233822753832

> <r_i_glide_ligand_efficiency_sa>
-0.798701467384034

> <r_i_glide_ligand_efficiency_ln>
-1.6733208076962

> <r_i_glide_gscore>
-7.18831321435348

> <r_i_glide_lipo>
-3.15530321740437

> <r_i_glide_hbond>
-0.0445882891362536

> <r_i_glide_metal>
0

> <r_i_glide_rewards>
-0.482404981096137

> <r_i_glide_evdw>
-47.654541015625

> <r_i_glide_ecoul>
-9.92770957946777

> <r_i_glide_erotb>
0.523508835710362

> <r_i_glide_esite>
-0.157642074725662

> <r_i_glide_emodel>
-75.3192298276954

> <r_i_glide_energy>
-57.5822505950928

> <r_i_glide_einternal>
5.63122320175171

> <i_i_glide_confnum>
85

> <i_i_glide_posenum>
79

> <r_i_glide_eff_state_penalty>
0

> <s_user_duplicate_titles>
CHEMBL280_lig1982

> <s_m_subgroup_title>
dock_pv

> <s_m_subgroupid>
dock_pv

> <b_m_subgroup_collapsed>
1

$$$$
CHEMBL280_lig891
                    3D
 Schrodinger Suite 2021-1.
 51 53  0  0  1  0            999 V2000
   -3.9356   28.3799   57.1141 C   0  0  1  0  0  0
   -3.1304   29.4594   56.3625 C   0  0  0  0  0  0
   -5.1179   28.9130   57.9829 C   0  0  0  0  0  0
   -5.1781   30.2435   58.1857 N   0  0  0  0  0  0
   -4.3408   31.2446   57.8524 C   0  0  0  0  0  0
   -3.0566   30.8341   57.0697 C   0  0  2  0  0  0
   -4.4022   27.3363   56.2259 O   0  0  0  0  0  0
   -2.5409   29.2034   55.3094 O   0  0  0  0  0  0
   -5.9390   28.1699   58.5070 O   0  0  0  0  0  0
   -4.5935   32.3864   58.2337 O   0  0  0  0  0  0
   -3.0163   27.6070   58.1186 C   0  0  0  0  0  0
   -2.7385   31.8925   56.1099 N   0  0  0  0  0  0
   -9.5513   26.4878   50.5159 C   0  0  0  0  0  0
   -8.5543   27.0398   51.3295 C   0  0  0  0  0  0
   -8.7002   26.9690   52.7030 O   0  0  0  0  0  0
   -5.4699   27.4136   55.3335 C   0  0  0  0  0  0
   -7.6257   27.1610   53.5444 C   0  0  0  0  0  0
   -9.5341   26.6925   49.1327 C   0  0  0  0  0  0
  -10.7388   26.0189   48.1097 Cl  0  0  0  0  0  0
   -6.2507   28.5352   55.0110 C   0  0  0  0  0  0
   -5.7687   26.2100   54.7137 C   0  0  0  0  0  0
   -7.3272   28.4032   54.1203 C   0  0  0  0  0  0
   -6.8355   26.0653   53.8433 C   0  0  0  0  0  0
   -0.7142   27.8092   57.4307 O   0  0  0  0  0  0
   -7.5308   27.9943   49.3455 C   0  0  0  0  0  0
   -7.5261   27.7699   50.7201 C   0  0  0  0  0  0
   -1.7748   26.8749   57.5753 C   0  0  0  0  0  0
   -8.5317   27.4580   48.5505 C   0  0  0  0  0  0
    0.5776   27.2206   57.3798 C   0  0  0  0  0  0
    1.6177   28.3412   57.3102 C   0  0  0  0  0  0
   -5.9676   30.5440   58.7408 H   0  0  0  0  0  0
   -2.2566   30.7789   57.8092 H   0  0  0  0  0  0
   -3.6141   26.8535   58.6333 H   0  0  0  0  0  0
   -2.6773   28.2763   58.9107 H   0  0  0  0  0  0
   -1.7447   32.0680   56.0617 H   0  0  0  0  0  0
   -3.0544   31.6318   55.1800 H   0  0  0  0  0  0
  -10.3535   25.9207   50.9638 H   0  0  0  0  0  0
   -6.0392   29.5030   55.4379 H   0  0  0  0  0  0
   -5.1421   25.3701   54.9100 H   0  0  0  0  0  0
   -7.9379   29.2600   53.8875 H   0  0  0  0  0  0
   -7.0470   25.1039   53.3984 H   0  0  0  0  0  0
   -6.7450   28.5853   48.8969 H   0  0  0  0  0  0
   -6.7453   28.2293   51.3079 H   0  0  0  0  0  0
   -1.4996   26.1024   58.2974 H   0  0  0  0  0  0
   -1.9833   26.3697   56.6315 H   0  0  0  0  0  0
   -8.5193   27.6282   47.4837 H   0  0  0  0  0  0
    0.6628   26.5690   56.5103 H   0  0  0  0  0  0
    0.7612   26.6129   58.2682 H   0  0  0  0  0  0
    2.6271   27.9336   57.2515 H   0  0  0  0  0  0
    1.4600   28.9728   56.4362 H   0  0  0  0  0  0
    1.5651   28.9776   58.1938 H   0  0  0  0  0  0
  1  2  1  0  0  0
  1  3  1  0  0  0
  1  7  1  0  0  0
  1 11  1  0  0  0
  2  6  1  0  0  0
  2  8  2  0  0  0
  3  4  1  0  0  0
  3  9  2  0  0  0
  4  5  1  0  0  0
  4 31  1  0  0  0
  5 10  2  0  0  0
  5  6  1  0  0  0
  6 12  1  0  0  0
  6 32  1  0  0  0
  7 16  1  0  0  0
 11 27  1  0  0  0
 11 33  1  0  0  0
 11 34  1  0  0  0
 12 35  1  0  0  0
 12 36  1  0  0  0
 13 14  1  0  0  0
 13 18  2  0  0  0
 13 37  1  0  0  0
 14 15  1  0  0  0
 14 26  2  0  0  0
 15 17  1  0  0  0
 16 20  1  0  0  0
 16 21  2  0  0  0
 17 23  2  0  0  0
 17 22  1  0  0  0
 18 19  1  0  0  0
 18 28  1  0  0  0
 20 22  2  0  0  0
 20 38  1  0  0  0
 21 23  1  0  0  0
 21 39  1  0  0  0
 22 40  1  0  0  0
 23 41  1  0  0  0
 24 27  1  0  0  0
 24 29  1  0  0  0
 25 26  1  0  0  0
 25 28  2  0  0  0
 25 42  1  0  0  0
 26 43  1  0  0  0
 27 44  1  0  0  0
 27 45  1  0  0  0
 28 46  1  0  0  0
 29 30  1  0  0  0
 29 47  1  0  0  0
 29 48  1  0  0  0
 30 49  1  0  0  0
 30 50  1  0  0  0
 30 51  1  0  0  0
M  END
> <s_m_entry_id>
64253

> <s_m_entry_name>
dock_pv.203

> <s_m_Source_Path>
/home/csk/Desktop/cluster/DUD-E-result/mmp13

> <s_m_Source_File>
dock_pv.maegz

> <i_m_Source_File_Index>
203

> <chembl_id>
CHEMBL182344

> <chembl_pref_name>
None

> <i_lp_mmshare_version>
53161

> <i_f3d_flags>
0

> <r_lp_tautomer_probability>
1

> <s_lp_Force_Field>
OPLS_2005

> <r_lp_Energy>
30.201162

> <b_lp_Chiralities_Consistent>
1

> <s_lp_Variant>
CHEMBL280_lig891-4

> <s_i_glide_gridfile>
glide-grid_830c

> <i_i_glide_lignum>
1456

> <i_i_glide_rotatable_bonds>
8

> <r_i_docking_score>
-7.18288042537873

> <r_i_glide_ligand_efficiency>
-0.239429347512624

> <r_i_glide_ligand_efficiency_sa>
-0.743962650627094

> <r_i_glide_ligand_efficiency_ln>
-1.63202869639672

> <r_i_glide_gscore>
-7.18288042537873

> <r_i_glide_lipo>
-3.0889071400214

> <r_i_glide_hbond>
-0.65349043790769

> <r_i_glide_metal>
0

> <r_i_glide_rewards>
-0.551630465094977

> <r_i_glide_evdw>
-43.1700897216797

> <r_i_glide_ecoul>
-9.6544361114502

> <r_i_glide_erotb>
0.743557516223693

> <r_i_glide_esite>
-0.025739995776835

> <r_i_glide_emodel>
-64.4282846398339

> <r_i_glide_energy>
-52.8245258331299

> <r_i_glide_einternal>
11.0631723403931

> <i_i_glide_confnum>
14

> <i_i_glide_posenum>
104

> <r_i_glide_eff_state_penalty>
0

> <s_user_duplicate_titles>
CHEMBL280_lig891

> <s_m_subgroup_title>
dock_pv

> <s_m_subgroupid>
dock_pv

> <b_m_subgroup_collapsed>
1

$$$$
CHEMBL280_lig932
                    3D
 Schrodinger Suite 2021-1.
 52 54  0  0  1  0            999 V2000
   -3.9663   27.9288   55.7109 S   0  0  0  0  0  0
   -4.4978   27.5762   57.4838 C   0  0  1  0  0  0
   -3.4101   28.0167   58.4957 C   0  0  2  0  0  0
   -1.9692   27.4795   58.1686 C   0  0  0  0  0  0
   -5.4986   27.6945   54.8359 C   0  0  0  0  0  0
   -3.5801   29.3378   55.6575 O   0  0  0  0  0  0
   -3.0449   26.8833   55.2269 O   0  0  0  0  0  0
   -1.2863   28.0641   57.3214 O   0  0  0  0  0  0
   -1.4940   26.4084   58.8430 N   0  0  0  0  0  0
   -3.8785   27.3583   59.6645 O   0  0  0  0  0  0
   -5.8354   28.3128   57.8172 C   0  0  0  0  0  0
   -3.3699   29.5886   58.6256 C   0  0  0  0  0  0
   -4.6611   30.1189   58.9435 O   0  0  0  0  0  0
   -6.4023   28.7361   54.6305 C   0  0  0  0  0  0
   -5.8255   26.4082   54.4285 C   0  0  0  0  0  0
   -8.4200   27.3599   52.0456 O   0  0  0  0  0  0
   -7.6338   27.3160   53.1597 C   0  0  0  0  0  0
   -9.6727   26.7773   48.9493 C   0  0  0  0  0  0
   -8.1833   26.4468   50.9796 C   0  0  0  0  0  0
   -8.5343   27.1389   49.6749 C   0  0  0  0  0  0
   -6.8916   26.2105   53.5629 C   0  0  0  0  0  0
   -7.5325   28.5054   53.8572 C   0  0  0  0  0  0
   -0.2143   25.9269   58.5331 O   0  0  0  0  0  0
   -9.9606   27.4085   47.7351 C   0  0  0  0  0  0
   -5.6670   29.8413   57.9756 C   0  0  0  0  0  0
   -7.9926   28.7860   47.9845 C   0  0  0  0  0  0
   -7.7036   28.1517   49.1896 C   0  0  0  0  0  0
   -9.1195   28.4143   47.2557 C   0  0  0  0  0  0
  -11.1998   27.0274   46.9496 C   0  0  0  0  0  0
   -4.6426   26.4967   57.4364 H   0  0  0  0  0  0
   -1.9583   25.8805   59.5764 H   0  0  0  0  0  0
   -3.9397   26.4134   59.4677 H   0  0  0  0  0  0
   -6.1852   27.9601   58.7770 H   0  0  0  0  0  0
   -6.6477   28.0617   57.1402 H   0  0  0  0  0  0
   -3.0102   30.0828   57.7270 H   0  0  0  0  0  0
   -2.6383   29.9573   59.3372 H   0  0  0  0  0  0
   -6.2234   29.7196   55.0360 H   0  0  0  0  0  0
   -5.1878   25.5735   54.6785 H   0  0  0  0  0  0
  -10.3268   26.0022   49.3196 H   0  0  0  0  0  0
   -7.1330   26.1684   50.9134 H   0  0  0  0  0  0
   -8.7671   25.5348   51.1311 H   0  0  0  0  0  0
   -7.0892   25.2369   53.1448 H   0  0  0  0  0  0
   -8.2993   29.2550   53.7008 H   0  0  0  0  0  0
    0.3489   26.3280   59.2018 H   0  0  0  0  0  0
   -6.6036   30.2815   58.3206 H   0  0  0  0  0  0
   -5.4278   30.3412   57.0386 H   0  0  0  0  0  0
   -7.3401   29.5630   47.6154 H   0  0  0  0  0  0
   -6.8248   28.4457   49.7451 H   0  0  0  0  0  0
   -9.3344   28.9118   46.3219 H   0  0  0  0  0  0
  -10.9505   26.3324   46.1484 H   0  0  0  0  0  0
  -11.9553   26.5810   47.5988 H   0  0  0  0  0  0
  -11.6529   27.9132   46.5027 H   0  0  0  0  0  0
  1  2  1  0  0  0
  1  5  1  0  0  0
  1  6  2  0  0  0
  1  7  2  0  0  0
  2  3  1  0  0  0
  2 11  1  0  0  0
  2 30  1  0  0  0
  3  4  1  0  0  0
  3 10  1  0  0  0
  3 12  1  0  0  0
  4  8  2  0  0  0
  4  9  1  0  0  0
  5 14  2  0  0  0
  5 15  1  0  0  0
  9 23  1  0  0  0
  9 31  1  0  0  0
 10 32  1  0  0  0
 11 25  1  0  0  0
 11 33  1  0  0  0
 11 34  1  0  0  0
 12 13  1  0  0  0
 12 35  1  0  0  0
 12 36  1  0  0  0
 13 25  1  0  0  0
 14 22  1  0  0  0
 14 37  1  0  0  0
 15 21  2  0  0  0
 15 38  1  0  0  0
 16 17  1  0  0  0
 16 19  1  0  0  0
 17 21  1  0  0  0
 17 22  2  0  0  0
 18 20  2  0  0  0
 18 24  1  0  0  0
 18 39  1  0  0  0
 19 20  1  0  0  0
 19 40  1  0  0  0
 19 41  1  0  0  0
 20 27  1  0  0  0
 21 42  1  0  0  0
 22 43  1  0  0  0
 23 44  1  0  0  0
 24 29  1  0  0  0
 24 28  2  0  0  0
 25 45  1  0  0  0
 25 46  1  0  0  0
 26 27  2  0  0  0
 26 28  1  0  0  0
 26 47  1  0  0  0
 27 48  1  0  0  0
 28 49  1  0  0  0
 29 50  1  0  0  0
 29 51  1  0  0  0
 29 52  1  0  0  0
M  END
> <s_m_entry_id>
64254

> <s_m_entry_name>
dock_pv.204

> <s_m_Source_Path>
/home/csk/Desktop/cluster/DUD-E-result/mmp13

> <s_m_Source_File>
dock_pv.maegz

> <i_m_Source_File_Index>
204

> <chembl_id>
CHEMBL185158

> <chembl_pref_name>
None

> <i_lp_mmshare_version>
53161

> <i_f3d_flags>
0

> <r_lp_tautomer_probability>
1

> <s_lp_Force_Field>
OPLS_2005

> <r_lp_Energy>
33.53313

> <b_lp_Chiralities_Consistent>
1

> <s_lp_Variant>
CHEMBL280_lig932-1

> <s_i_glide_gridfile>
glide-grid_830c

> <i_i_glide_lignum>
1579

> <i_i_glide_rotatable_bonds>
9

> <r_i_docking_score>
-7.17977927910818

> <r_i_glide_ligand_efficiency>
-0.247578595831316

> <r_i_glide_ligand_efficiency_sa>
-0.760639884798463

> <r_i_glide_ligand_efficiency_ln>
-1.64398739142212

> <r_i_glide_gscore>
-7.17977927910818

> <r_i_glide_lipo>
-3.86782540290283

> <r_i_glide_hbond>
0

> <r_i_glide_metal>
0

> <r_i_glide_rewards>
-0.553689298250581

> <r_i_glide_evdw>
-35.5067672729492

> <r_i_glide_ecoul>
-10.3124008178711

> <r_i_glide_erotb>
0.780328054856676

> <r_i_glide_esite>
-0.216394146483318

> <r_i_glide_emodel>
-74.9817926591815

> <r_i_glide_energy>
-45.8191680908203

> <r_i_glide_einternal>
3.80392718315125

> <i_i_glide_confnum>
10

> <i_i_glide_posenum>
119

> <r_i_glide_eff_state_penalty>
0

> <s_user_duplicate_titles>
CHEMBL280_lig932

> <s_m_subgroup_title>
dock_pv

> <s_m_subgroupid>
dock_pv

> <b_m_subgroup_collapsed>
1

$$$$
CHEMBL280_lig443
                    3D
 Schrodinger Suite 2021-1.
 47 48  0  0  1  0            999 V2000
   -7.5044   27.5087   53.7917 S   0  0  0  0  0  0
   -5.1401   27.1871   55.4114 C   0  0  1  0  0  0
   -5.7256   26.9715   53.9853 C   0  0  0  0  0  0
   -3.5977   26.9768   55.2834 C   0  0  0  0  0  0
   -7.8869   27.2210   52.0604 C   0  0  0  0  0  0
   -4.5300   28.5254   58.1135 C   0  0  0  0  0  0
   -4.3145   27.7681   59.0457 C   0  0  0  0  0  0
   -8.3390   26.5898   54.5694 O   0  0  0  0  0  0
   -7.5392   28.9587   54.0288 O   0  0  0  0  0  0
   -2.9507   27.6897   54.5100 O   0  0  0  0  0  0
   -5.3952   28.5874   55.8049 N   0  0  3  0  0  0
   -2.9998   25.9610   55.9252 N   0  0  0  0  0  0
   -7.1385   27.8416   51.0649 C   0  0  0  0  0  0
   -8.9778   26.4305   51.7019 C   0  0  0  0  0  0
   -9.3014   27.1294   48.1340 O   0  0  0  0  0  0
   -8.7406   27.1271   49.3990 C   0  0  0  0  0  0
   -5.8848   26.2562   56.4128 C   0  0  0  0  0  0
   -9.4164   26.4040   50.3816 C   0  0  0  0  0  0
   -7.5424   27.7699   49.7358 C   0  0  0  0  0  0
   -9.1076   28.1223   47.1884 C   0  0  0  0  0  0
   -4.7235   29.3231   56.8892 C   0  0  0  0  0  0
   -1.6261   25.7701   55.7110 O   0  0  0  0  0  0
   -9.3471   27.7716   45.8574 C   0  0  0  0  0  0
   -8.7389   29.4421   47.4897 C   0  0  0  0  0  0
   -8.5330   30.3676   46.4689 C   0  0  0  0  0  0
   -9.1509   28.6956   44.8340 C   0  0  0  0  0  0
   -8.7388   29.9885   45.1448 C   0  0  0  0  0  0
   -5.1746   27.5246   53.2239 H   0  0  0  0  0  0
   -5.7141   25.9198   53.7100 H   0  0  0  0  0  0
   -4.0990   27.0542   59.8112 H   0  0  0  0  0  0
   -6.0278   29.1157   55.2065 H   0  0  0  0  0  0
   -3.4380   25.2502   56.5103 H   0  0  0  0  0  0
   -6.2749   28.4389   51.3144 H   0  0  0  0  0  0
   -9.5389   25.8995   52.4544 H   0  0  0  0  0  0
   -6.2851   25.3701   55.9238 H   0  0  0  0  0  0
   -5.2666   25.9021   57.2336 H   0  0  0  0  0  0
   -6.7385   26.7593   56.8616 H   0  0  0  0  0  0
  -10.3067   25.8501   50.1231 H   0  0  0  0  0  0
   -6.9467   28.2689   48.9862 H   0  0  0  0  0  0
   -5.2846   30.2271   57.1287 H   0  0  0  0  0  0
   -3.7399   29.6479   56.5445 H   0  0  0  0  0  0
   -1.2246   26.1359   56.5099 H   0  0  0  0  0  0
   -9.6537   26.7648   45.6166 H   0  0  0  0  0  0
   -8.6093   29.7695   48.5090 H   0  0  0  0  0  0
   -8.2242   31.3759   46.7019 H   0  0  0  0  0  0
   -9.3021   28.4104   43.8029 H   0  0  0  0  0  0
   -8.5697   30.7039   44.3526 H   0  0  0  0  0  0
  1  3  1  0  0  0
  1  5  1  0  0  0
  1  8  2  0  0  0
  1  9  2  0  0  0
  2  3  1  0  0  0
  2  4  1  0  0  0
  2 11  1  0  0  0
  2 17  1  0  0  0
  3 28  1  0  0  0
  3 29  1  0  0  0
  4 10  2  0  0  0
  4 12  1  0  0  0
  5 13  1  0  0  0
  5 14  2  0  0  0
  6 21  1  0  0  0
  6  7  3  0  0  0
  7 30  1  0  0  0
 11 21  1  0  0  0
 11 31  1  0  0  0
 12 22  1  0  0  0
 12 32  1  0  0  0
 13 19  2  0  0  0
 13 33  1  0  0  0
 14 18  1  0  0  0
 14 34  1  0  0  0
 15 16  1  0  0  0
 15 20  1  0  0  0
 16 18  2  0  0  0
 16 19  1  0  0  0
 17 35  1  0  0  0
 17 36  1  0  0  0
 17 37  1  0  0  0
 18 38  1  0  0  0
 19 39  1  0  0  0
 20 23  2  0  0  0
 20 24  1  0  0  0
 21 40  1  0  0  0
 21 41  1  0  0  0
 22 42  1  0  0  0
 23 26  1  0  0  0
 23 43  1  0  0  0
 24 25  2  0  0  0
 24 44  1  0  0  0
 25 27  1  0  0  0
 25 45  1  0  0  0
 26 27  2  0  0  0
 26 46  1  0  0  0
 27 47  1  0  0  0
M  END
> <s_m_entry_id>
64255

> <s_m_entry_name>
dock_pv.205

> <s_m_Source_Path>
/home/csk/Desktop/cluster/DUD-E-result/mmp13

> <s_m_Source_File>
dock_pv.maegz

> <i_m_Source_File_Index>
205

> <chembl_id>
CHEMBL94248

> <chembl_pref_name>
None

> <i_lp_mmshare_version>
53161

> <i_f3d_flags>
0

> <r_lp_tautomer_probability>
1

> <s_lp_Force_Field>
OPLS_2005

> <r_lp_Energy>
32.545196

> <b_lp_Chiralities_Consistent>
1

> <s_lp_Variant>
CHEMBL280_lig443-1

> <s_i_glide_gridfile>
glide-grid_830c

> <i_i_glide_lignum>
627

> <i_i_glide_rotatable_bonds>
11

> <r_i_docking_score>
-7.17439709375703

> <r_i_glide_ligand_efficiency>
-0.26571841087989

> <r_i_glide_ligand_efficiency_sa>
-0.797155231763906

> <r_i_glide_ligand_efficiency_ln>
-1.67008136424653

> <r_i_glide_gscore>
-7.17439709375703

> <r_i_glide_lipo>
-3.11664156447941

> <r_i_glide_hbond>
-0.0467893565052917

> <r_i_glide_metal>
0

> <r_i_glide_rewards>
-0.760643225523797

> <r_i_glide_evdw>
-47.4157333374023

> <r_i_glide_ecoul>
-13.1390428543091

> <r_i_glide_erotb>
1.29132014776795

> <r_i_glide_esite>
-0.2

> <r_i_glide_emodel>
-86.2773585290518

> <r_i_glide_energy>
-60.5547761917114

> <r_i_glide_einternal>
9.92140960693359

> <i_i_glide_confnum>
109

> <i_i_glide_posenum>
241

> <r_i_glide_eff_state_penalty>
0

> <s_user_duplicate_titles>
CHEMBL280_lig443,148597

> <s_m_subgroup_title>
dock_pv

> <s_m_subgroupid>
dock_pv

> <b_m_subgroup_collapsed>
1

$$$$
CHEMBL280_lig617
                    3D
 Schrodinger Suite 2021-1.
 40 42  0  0  1  0            999 V2000
   -3.1530   27.9357   56.8398 C   0  0  0  0  0  0
   -5.9369   28.4137   57.0776 S   0  0  0  0  0  0
   -4.2729   28.8974   56.8309 N   0  0  3  0  0  0
   -2.3516   27.8405   58.1547 C   0  0  0  0  0  0
   -2.3281   27.8775   55.5813 C   0  0  0  0  0  0
   -3.1578   26.6809   55.9761 C   0  0  0  0  0  0
   -6.4701   27.6895   55.5233 C   0  0  0  0  0  0
   -5.9389   27.3696   58.1093 O   0  0  0  0  0  0
   -6.7085   29.6489   57.2437 O   0  0  0  0  0  0
   -1.3252   28.5088   58.3013 O   0  0  0  0  0  0
   -2.7963   26.9701   59.0761 N   0  0  0  0  0  0
   -7.9395   25.9658   52.0176 O   0  0  0  0  0  0
   -6.7823   28.5292   54.4520 C   0  0  0  0  0  0
   -6.6081   26.3071   55.3905 C   0  0  0  0  0  0
   -7.4195   26.6016   53.1274 C   0  0  0  0  0  0
   -8.3810   26.6280   50.8951 C   0  0  0  0  0  0
   -9.3167   27.8038   48.5523 C   0  0  0  0  0  0
   -7.0518   25.7725   54.1840 C   0  0  0  0  0  0
   -7.2696   27.9878   53.2633 C   0  0  0  0  0  0
   -9.7768   28.3768   47.4185 F   0  0  0  0  0  0
   -1.9388   26.6626   60.1432 O   0  0  0  0  0  0
   -9.6921   26.4070   50.4785 C   0  0  0  0  0  0
   -7.5332   27.4269   50.1245 C   0  0  0  0  0  0
   -8.0023   28.0231   48.9560 C   0  0  0  0  0  0
  -10.1633   26.9964   49.3084 C   0  0  0  0  0  0
   -4.1003   29.8391   56.4689 H   0  0  0  0  0  0
   -2.6362   28.5054   54.7427 H   0  0  0  0  0  0
   -1.2450   27.8611   55.7095 H   0  0  0  0  0  0
   -2.6789   25.7814   56.3687 H   0  0  0  0  0  0
   -4.0348   26.4387   55.3829 H   0  0  0  0  0  0
   -3.4794   26.2365   58.9044 H   0  0  0  0  0  0
   -6.6740   29.6007   54.5478 H   0  0  0  0  0  0
   -6.3591   25.6421   56.2060 H   0  0  0  0  0  0
   -7.1371   24.7009   54.0753 H   0  0  0  0  0  0
   -7.5402   28.6530   52.4599 H   0  0  0  0  0  0
   -1.0930   27.0212   59.8521 H   0  0  0  0  0  0
  -10.3389   25.7678   51.0609 H   0  0  0  0  0  0
   -6.5080   27.5818   50.4264 H   0  0  0  0  0  0
   -7.3463   28.6469   48.3656 H   0  0  0  0  0  0
  -11.1795   26.8355   48.9826 H   0  0  0  0  0  0
  1  3  1  0  0  0
  1  4  1  0  0  0
  1  5  1  0  0  0
  1  6  1  0  0  0
  2  3  1  0  0  0
  2  7  1  0  0  0
  2  8  2  0  0  0
  2  9  2  0  0  0
  3 26  1  0  0  0
  4 10  2  0  0  0
  4 11  1  0  0  0
  5  6  1  0  0  0
  5 27  1  0  0  0
  5 28  1  0  0  0
  6 29  1  0  0  0
  6 30  1  0  0  0
  7 13  2  0  0  0
  7 14  1  0  0  0
 11 21  1  0  0  0
 11 31  1  0  0  0
 12 15  1  0  0  0
 12 16  1  0  0  0
 13 19  1  0  0  0
 13 32  1  0  0  0
 14 18  2  0  0  0
 14 33  1  0  0  0
 15 18  1  0  0  0
 15 19  2  0  0  0
 16 22  1  0  0  0
 16 23  2  0  0  0
 17 24  2  0  0  0
 17 20  1  0  0  0
 17 25  1  0  0  0
 18 34  1  0  0  0
 19 35  1  0  0  0
 21 36  1  0  0  0
 22 25  2  0  0  0
 22 37  1  0  0  0
 23 24  1  0  0  0
 23 38  1  0  0  0
 24 39  1  0  0  0
 25 40  1  0  0  0
M  END
> <s_m_entry_id>
64256

> <s_m_entry_name>
dock_pv.206

> <s_m_Source_Path>
/home/csk/Desktop/cluster/DUD-E-result/mmp13

> <s_m_Source_File>
dock_pv.maegz

> <i_m_Source_File_Index>
206

> <chembl_id>
CHEMBL114884

> <chembl_pref_name>
None

> <i_lp_mmshare_version>
53161

> <i_f3d_flags>
0

> <r_lp_tautomer_probability>
1

> <s_lp_Force_Field>
OPLS_2005

> <r_lp_Energy>
22.429765

> <b_lp_Chiralities_Consistent>
1

> <s_lp_Variant>
CHEMBL280_lig617-1

> <s_i_glide_gridfile>
glide-grid_830c

> <i_i_glide_lignum>
893

> <i_i_glide_rotatable_bonds>
8

> <r_i_docking_score>
-7.17091403918246

> <r_i_glide_ligand_efficiency>
-0.286836561567298

> <r_i_glide_ligand_efficiency_sa>
-0.83871519309086

> <r_i_glide_ligand_efficiency_ln>
-1.69972152223904

> <r_i_glide_gscore>
-7.17091403918246

> <r_i_glide_lipo>
-3.28461157708468

> <r_i_glide_hbond>
-0.32

> <r_i_glide_metal>
0

> <r_i_glide_rewards>
-0.843812540192638

> <r_i_glide_evdw>
-46.4143486022949

> <r_i_glide_ecoul>
-9.11142063140869

> <r_i_glide_erotb>
1.00374635012405

> <r_i_glide_esite>
-0.0388057472031397

> <r_i_glide_emodel>
-78.0244807731321

> <r_i_glide_energy>
-55.5257692337036

> <r_i_glide_einternal>
7.00643014907837

> <i_i_glide_confnum>
95

> <i_i_glide_posenum>
151

> <r_i_glide_eff_state_penalty>
0

> <s_user_duplicate_titles>
CHEMBL280_lig617,188142

> <s_m_subgroup_title>
dock_pv

> <s_m_subgroupid>
dock_pv

> <b_m_subgroup_collapsed>
1

$$$$
CHEMBL280_lig2539
                    3D
 Schrodinger Suite 2021-1.
 46 47  0  0  1  0            999 V2000
   -6.3386   28.8223   55.1782 C   0  0  0  0  0  0
   -6.8114   28.5706   53.9022 C   0  0  0  0  0  0
   -7.0433   27.2717   53.4600 C   0  0  0  0  0  0
   -6.7649   26.2044   54.3253 C   0  0  0  0  0  0
   -6.2613   26.4448   55.6063 C   0  0  0  0  0  0
   -6.0552   27.7598   56.0302 C   0  0  0  0  0  0
   -5.3622   28.1353   57.6340 S   0  0  0  0  0  0
   -3.6334   28.3880   57.3026 N   0  0  3  0  0  0
   -5.5390   26.9701   58.5081 O   0  0  0  0  0  0
   -5.9090   29.4367   58.0315 O   0  0  0  0  0  0
   -2.6407   27.3216   57.6542 C   0  0  0  0  0  0
   -3.2494   29.4693   56.3763 C   0  0  0  0  0  0
   -1.7188   26.8087   56.5086 C   0  0  2  0  0  0
   -2.0059   30.2371   56.8483 C   0  0  0  0  0  0
   -2.0705   30.7948   58.0721 N   0  0  0  0  0  0
   -1.0194   30.2890   56.1104 O   0  0  0  0  0  0
   -0.9460   31.4784   58.5599 O   0  0  0  0  0  0
   -2.3392   25.8047   55.7100 O   0  0  0  0  0  0
   -0.3648   26.2923   57.0464 C   0  0  0  0  0  0
   -0.5069   25.3701   58.1101 O   0  0  0  0  0  0
   -7.6254   27.0757   52.1058 C   0  0  0  0  0  0
   -8.7390   26.2631   51.9358 C   0  0  0  0  0  0
   -9.3775   26.1690   50.7015 C   0  0  0  0  0  0
   -8.8733   26.8645   49.6079 C   0  0  0  0  0  0
   -7.7484   27.6681   49.7512 C   0  0  0  0  0  0
   -7.1391   27.7722   50.9980 C   0  0  0  0  0  0
   -6.1807   29.8452   55.4884 H   0  0  0  0  0  0
   -7.0235   29.4007   53.2539 H   0  0  0  0  0  0
   -6.9256   25.1854   54.0032 H   0  0  0  0  0  0
   -6.0282   25.6126   56.2573 H   0  0  0  0  0  0
   -3.1389   26.4964   58.1596 H   0  0  0  0  0  0
   -2.0141   27.7596   58.4322 H   0  0  0  0  0  0
   -3.1047   29.0877   55.3649 H   0  0  0  0  0  0
   -4.0502   30.2022   56.2804 H   0  0  0  0  0  0
   -1.4575   27.6223   55.8360 H   0  0  0  0  0  0
   -2.8364   30.7541   58.7309 H   0  0  0  0  0  0
   -0.5785   30.8813   59.2176 H   0  0  0  0  0  0
   -2.8593   25.2352   56.3007 H   0  0  0  0  0  0
    0.2229   27.1313   57.4227 H   0  0  0  0  0  0
    0.2142   25.8273   56.2504 H   0  0  0  0  0  0
    0.3558   25.2381   58.5177 H   0  0  0  0  0  0
   -9.1390   25.7700   52.8006 H   0  0  0  0  0  0
  -10.2583   25.5545   50.5933 H   0  0  0  0  0  0
   -9.3603   26.7868   48.6469 H   0  0  0  0  0  0
   -7.3571   28.2236   48.9103 H   0  0  0  0  0  0
   -6.3095   28.4462   51.1129 H   0  0  0  0  0  0
  1  2  2  0  0  0
  1  6  1  0  0  0
  1 27  1  0  0  0
  2  3  1  0  0  0
  2 28  1  0  0  0
  3  4  2  0  0  0
  3 21  1  0  0  0
  4  5  1  0  0  0
  4 29  1  0  0  0
  5  6  2  0  0  0
  5 30  1  0  0  0
  6  7  1  0  0  0
  7  8  1  0  0  0
  7  9  2  0  0  0
  7 10  2  0  0  0
  8 11  1  0  0  0
  8 12  1  0  0  0
 11 13  1  0  0  0
 11 31  1  0  0  0
 11 32  1  0  0  0
 12 14  1  0  0  0
 12 33  1  0  0  0
 12 34  1  0  0  0
 13 18  1  0  0  0
 13 19  1  0  0  0
 13 35  1  0  0  0
 14 15  1  0  0  0
 14 16  2  0  0  0
 15 17  1  0  0  0
 15 36  1  0  0  0
 17 37  1  0  0  0
 18 38  1  0  0  0
 19 20  1  0  0  0
 19 39  1  0  0  0
 19 40  1  0  0  0
 20 41  1  0  0  0
 21 22  2  0  0  0
 21 26  1  0  0  0
 22 23  1  0  0  0
 22 42  1  0  0  0
 23 24  2  0  0  0
 23 43  1  0  0  0
 24 25  1  0  0  0
 24 44  1  0  0  0
 25 26  2  0  0  0
 25 45  1  0  0  0
 26 46  1  0  0  0
M  END
> <s_m_entry_id>
64257

> <s_m_entry_name>
dock_pv.207

> <s_m_Source_Path>
/home/csk/Desktop/cluster/DUD-E-result/mmp13

> <s_m_Source_File>
dock_pv.maegz

> <i_m_Source_File_Index>
207

> <chembl_id>
CHEMBL1632642

> <chembl_pref_name>
None

> <i_lp_mmshare_version>
53161

> <i_f3d_flags>
0

> <r_lp_tautomer_probability>
1

> <s_lp_Force_Field>
OPLS_2005

> <r_lp_Energy>
27.791971

> <b_lp_Chiralities_Consistent>
1

> <s_lp_Variant>
CHEMBL280_lig2539-1

> <s_i_glide_gridfile>
glide-grid_830c

> <i_i_glide_lignum>
3656

> <i_i_glide_rotatable_bonds>
12

> <r_i_docking_score>
-7.16665620199575

> <r_i_glide_ligand_efficiency>
-0.275640623153683

> <r_i_glide_ligand_efficiency_sa>
-0.816584261499306

> <r_i_glide_ligand_efficiency_ln>
-1.68306569332168

> <r_i_glide_gscore>
-7.16665620199575

> <r_i_glide_lipo>
-2.97098382569274

> <r_i_glide_hbond>
0

> <r_i_glide_metal>
0

> <r_i_glide_rewards>
-0.711159249392001

> <r_i_glide_evdw>
-40.8723907470703

> <r_i_glide_ecoul>
-16.9678573608398

> <r_i_glide_erotb>
1.20651113202532

> <r_i_glide_esite>
-0.102226117456841

> <r_i_glide_emodel>
-79.6907934081524

> <r_i_glide_energy>
-57.8402481079102

> <r_i_glide_einternal>
12.5224361419678

> <i_i_glide_confnum>
74

> <i_i_glide_posenum>
288

> <r_i_glide_eff_state_penalty>
0

> <s_user_duplicate_titles>
CHEMBL280_lig2539

> <s_m_subgroup_title>
dock_pv

> <s_m_subgroupid>
dock_pv

> <b_m_subgroup_collapsed>
1

$$$$
CHEMBL280_lig2281
                    3D
 Schrodinger Suite 2021-1.
 42 44  0  0  1  0            999 V2000
   -4.5274   29.2343   56.6817 S   0  0  0  0  0  0
   -4.7832   27.5347   56.2957 N   0  0  1  0  0  0
   -3.8925   26.7391   57.1626 C   0  0  1  0  0  0
   -2.4740   26.7183   56.5329 C   0  0  0  0  0  0
   -4.0374   27.3700   58.5848 C   0  0  0  0  0  0
   -4.1617   28.9112   58.4884 C   0  0  0  0  0  0
   -8.0032   27.1939   50.4781 C   0  0  0  0  0  0
   -5.7598   30.0191   56.5562 O   0  0  0  0  0  0
   -3.2723   29.7305   56.1100 O   0  0  0  0  0  0
   -6.1453   27.0106   56.0103 C   0  0  0  0  0  0
   -7.4386   27.0908   51.8684 C   0  0  0  0  0  0
   -9.0447   26.3739   50.0201 C   0  0  0  0  0  0
   -7.5387   28.1700   49.5867 C   0  0  0  0  0  0
   -2.3390   26.5700   55.3100 O   0  0  0  0  0  0
   -9.5900   26.5700   48.7474 C   0  0  0  0  0  0
   -8.1088   28.3954   48.3394 C   0  0  0  0  0  0
   -9.1475   27.5899   47.9177 C   0  0  0  0  0  0
   -1.4353   26.7935   57.3867 N   0  0  0  0  0  0
   -7.5452   25.9321   52.6422 C   0  0  0  0  0  0
   -6.7829   28.1776   52.4519 C   0  0  0  0  0  0
   -6.5211   27.0246   54.5387 C   0  0  0  0  0  0
   -7.5390   29.6690   47.3263 Cl  0  0  0  0  0  0
  -10.7390   25.4837   48.1099 Cl  0  0  0  0  0  0
   -7.0807   25.8906   53.9546 C   0  0  0  0  0  0
   -6.3622   28.1701   53.7723 C   0  0  0  0  0  0
   -0.1349   26.5700   56.9107 O   0  0  0  0  0  0
   -4.1919   25.7021   57.1167 H   0  0  0  0  0  0
   -4.9503   26.9745   59.0303 H   0  0  0  0  0  0
   -3.2420   27.0756   59.2705 H   0  0  0  0  0  0
   -4.9836   29.3218   59.0726 H   0  0  0  0  0  0
   -3.2380   29.4272   58.7494 H   0  0  0  0  0  0
   -6.2115   25.9813   56.3675 H   0  0  0  0  0  0
   -6.8740   27.5729   56.5942 H   0  0  0  0  0  0
   -9.4357   25.5781   50.6363 H   0  0  0  0  0  0
   -6.7390   28.8306   49.8625 H   0  0  0  0  0  0
   -9.5798   27.7306   46.9378 H   0  0  0  0  0  0
   -1.4984   26.7044   58.3912 H   0  0  0  0  0  0
   -7.9390   25.0295   52.2117 H   0  0  0  0  0  0
   -6.6234   29.0846   51.9034 H   0  0  0  0  0  0
   -7.1390   24.9700   54.5101 H   0  0  0  0  0  0
   -5.9351   29.0673   54.1902 H   0  0  0  0  0  0
   -0.2514   26.0547   56.1097 H   0  0  0  0  0  0
  1  2  1  0  0  0
  1  6  1  0  0  0
  1  8  2  0  0  0
  1  9  2  0  0  0
  2  3  1  0  0  0
  2 10  1  0  0  0
  3  4  1  0  0  0
  3  5  1  0  0  0
  3 27  1  0  0  0
  4 14  2  0  0  0
  4 18  1  0  0  0
  5  6  1  0  0  0
  5 28  1  0  0  0
  5 29  1  0  0  0
  6 30  1  0  0  0
  6 31  1  0  0  0
  7 11  1  0  0  0
  7 12  1  0  0  0
  7 13  2  0  0  0
 10 21  1  0  0  0
 10 32  1  0  0  0
 10 33  1  0  0  0
 11 20  2  0  0  0
 11 19  1  0  0  0
 12 15  2  0  0  0
 12 34  1  0  0  0
 13 16  1  0  0  0
 13 35  1  0  0  0
 15 23  1  0  0  0
 15 17  1  0  0  0
 16 17  2  0  0  0
 16 22  1  0  0  0
 17 36  1  0  0  0
 18 26  1  0  0  0
 18 37  1  0  0  0
 19 24  2  0  0  0
 19 38  1  0  0  0
 20 25  1  0  0  0
 20 39  1  0  0  0
 21 24  1  0  0  0
 21 25  2  0  0  0
 24 40  1  0  0  0
 25 41  1  0  0  0
 26 42  1  0  0  0
M  END
> <s_m_entry_id>
64258

> <s_m_entry_name>
dock_pv.208

> <s_m_Source_Path>
/home/csk/Desktop/cluster/DUD-E-result/mmp13

> <s_m_Source_File>
dock_pv.maegz

> <i_m_Source_File_Index>
208

> <chembl_id>
CHEMBL319075

> <chembl_pref_name>
None

> <i_lp_mmshare_version>
53161

> <i_f3d_flags>
0

> <r_lp_tautomer_probability>
1

> <s_lp_Force_Field>
OPLS_2005

> <r_lp_Energy>
26.376966

> <b_lp_Chiralities_Consistent>
1

> <s_lp_Variant>
CHEMBL280_lig2281-2

> <s_i_glide_gridfile>
glide-grid_830c

> <i_i_glide_lignum>
3257

> <i_i_glide_rotatable_bonds>
6

> <r_i_docking_score>
-7.16465071363759

> <r_i_glide_ligand_efficiency>
-0.275563488986061

> <r_i_glide_ligand_efficiency_sa>
-0.816355751831236

> <r_i_glide_ligand_efficiency_ln>
-1.68259471096131

> <r_i_glide_gscore>
-7.16465071363759

> <r_i_glide_lipo>
-4.07748519656815

> <r_i_glide_hbond>
0

> <r_i_glide_metal>
0

> <r_i_glide_rewards>
-0.675401478855337

> <r_i_glide_evdw>
-34.0278434753418

> <r_i_glide_ecoul>
-7.30336284637451

> <r_i_glide_erotb>
0.572440523229983

> <r_i_glide_esite>
-0.187307960720819

> <r_i_glide_emodel>
-53.1502551880749

> <r_i_glide_energy>
-41.3312063217163

> <r_i_glide_einternal>
13.1323080062866

> <i_i_glide_confnum>
172

> <i_i_glide_posenum>
8

> <r_i_glide_eff_state_penalty>
0

> <s_user_duplicate_titles>
CHEMBL280_lig2281

> <s_m_subgroup_title>
dock_pv

> <s_m_subgroupid>
dock_pv

> <b_m_subgroup_collapsed>
1

$$$$
CHEMBL280_lig1106
                    3D
 Schrodinger Suite 2021-1.
 42 43  0  0  1  0            999 V2000
   -7.0193   27.1235   53.8626 C   0  0  0  0  0  0
   -6.7389   26.1837   54.8540 C   0  0  0  0  0  0
   -6.1654   26.5696   56.0627 C   0  0  0  0  0  0
   -5.8625   27.9131   56.2858 C   0  0  0  0  0  0
   -6.1714   28.8689   55.3191 C   0  0  0  0  0  0
   -6.7390   28.4769   54.1104 C   0  0  0  0  0  0
   -7.5578   26.6314   52.6879 O   0  0  0  0  0  0
   -7.5925   27.4562   51.5247 C   0  0  0  0  0  0
   -8.5044   26.9316   50.4963 C   0  0  0  0  0  0
   -9.2830   26.5702   49.6274 C   0  0  0  0  0  0
  -10.2291   26.2018   48.5632 C   0  0  0  0  0  0
   -4.9310   28.4003   57.7411 S   0  0  0  0  0  0
   -3.1367   28.3320   57.1223 C   0  0  2  0  0  0
   -5.2704   29.7986   58.0209 O   0  0  0  0  0  0
   -5.1390   27.3700   58.7643 O   0  0  0  0  0  0
   -2.8222   27.2176   56.1155 C   0  0  0  0  0  0
   -2.6610   25.9830   56.6033 N   0  0  0  0  0  0
   -2.7390   27.4611   54.9100 O   0  0  0  0  0  0
   -2.3390   24.9700   55.7100 O   0  0  0  0  0  0
   -2.0811   28.4044   58.2420 C   0  0  0  0  0  0
   -1.9390   27.3700   59.1815 C   0  0  0  0  0  0
   -0.8965   27.3917   60.1040 C   0  0  0  0  0  0
   -0.0074   28.4635   60.1100 C   0  0  0  0  0  0
   -0.1573   29.5143   59.2081 C   0  0  0  0  0  0
   -1.1905   29.4835   58.2748 C   0  0  0  0  0  0
   -6.9205   25.1373   54.6624 H   0  0  0  0  0  0
   -5.9087   25.8139   56.7931 H   0  0  0  0  0  0
   -5.9272   29.9102   55.4779 H   0  0  0  0  0  0
   -6.9243   29.2464   53.3798 H   0  0  0  0  0  0
   -6.5915   27.5496   51.1009 H   0  0  0  0  0  0
   -7.9390   28.4630   51.7387 H   0  0  0  0  0  0
  -10.3390   25.1183   48.5112 H   0  0  0  0  0  0
   -9.8633   26.5700   47.6047 H   0  0  0  0  0  0
  -11.2001   26.6529   48.7643 H   0  0  0  0  0  0
   -3.0656   29.2543   56.5446 H   0  0  0  0  0  0
   -2.8210   25.6580   57.5510 H   0  0  0  0  0  0
   -3.1564   24.4198   55.7100 H   0  0  0  0  0  0
   -2.6332   26.5431   59.2027 H   0  0  0  0  0  0
   -0.7856   26.5896   60.8188 H   0  0  0  0  0  0
    0.7984   28.4863   60.8292 H   0  0  0  0  0  0
    0.5329   30.3452   59.2253 H   0  0  0  0  0  0
   -1.2794   30.2926   57.5643 H   0  0  0  0  0  0
  1  6  1  0  0  0
  1  2  2  0  0  0
  1  7  1  0  0  0
  2  3  1  0  0  0
  2 26  1  0  0  0
  3  4  2  0  0  0
  3 27  1  0  0  0
  4  5  1  0  0  0
  4 12  1  0  0  0
  5  6  2  0  0  0
  5 28  1  0  0  0
  6 29  1  0  0  0
  7  8  1  0  0  0
  8  9  1  0  0  0
  8 30  1  0  0  0
  8 31  1  0  0  0
  9 10  3  0  0  0
 10 11  1  0  0  0
 11 32  1  0  0  0
 11 33  1  0  0  0
 11 34  1  0  0  0
 12 13  1  0  0  0
 12 14  2  0  0  0
 12 15  2  0  0  0
 13 16  1  0  0  0
 13 20  1  0  0  0
 13 35  1  0  0  0
 16 17  1  0  0  0
 16 18  2  0  0  0
 17 19  1  0  0  0
 17 36  1  0  0  0
 19 37  1  0  0  0
 20 21  2  0  0  0
 20 25  1  0  0  0
 21 22  1  0  0  0
 21 38  1  0  0  0
 22 23  2  0  0  0
 22 39  1  0  0  0
 23 24  1  0  0  0
 23 40  1  0  0  0
 24 25  2  0  0  0
 24 41  1  0  0  0
 25 42  1  0  0  0
M  END
> <s_m_entry_id>
64259

> <s_m_entry_name>
dock_pv.209

> <s_m_Source_Path>
/home/csk/Desktop/cluster/DUD-E-result/mmp13

> <s_m_Source_File>
dock_pv.maegz

> <i_m_Source_File_Index>
209

> <chembl_id>
CHEMBL222309

> <chembl_pref_name>
None

> <i_lp_mmshare_version>
53161

> <i_f3d_flags>
0

> <r_lp_tautomer_probability>
1

> <s_lp_Force_Field>
OPLS_2005

> <r_lp_Energy>
27.069754

> <b_lp_Chiralities_Consistent>
1

> <s_lp_Variant>
CHEMBL280_lig1106-1

> <s_i_glide_gridfile>
glide-grid_830c

> <i_i_glide_lignum>
1782

> <i_i_glide_rotatable_bonds>
9

> <r_i_docking_score>
-7.1634623147186

> <r_i_glide_ligand_efficiency>
-0.286538492588744

> <r_i_glide_ligand_efficiency_sa>
-0.837843634111292

> <r_i_glide_ligand_efficiency_ln>
-1.69795524023094

> <r_i_glide_gscore>
-7.1634623147186

> <r_i_glide_lipo>
-2.6381401976796

> <r_i_glide_hbond>
-0.170559412476599

> <r_i_glide_metal>
0

> <r_i_glide_rewards>
-0.951322240881647

> <r_i_glide_evdw>
-37.3811492919922

> <r_i_glide_ecoul>
-16.4928970336914

> <r_i_glide_erotb>
1.18711520033399

> <r_i_glide_esite>
-0.24756364436142

> <r_i_glide_emodel>
-78.9602629644011

> <r_i_glide_energy>
-53.8740463256836

> <r_i_glide_einternal>
10.5795097351074

> <i_i_glide_confnum>
131

> <i_i_glide_posenum>
26

> <r_i_glide_eff_state_penalty>
0

> <s_user_duplicate_titles>
CHEMBL280_lig1106

> <s_m_subgroup_title>
dock_pv

> <s_m_subgroupid>
dock_pv

> <b_m_subgroup_collapsed>
1

$$$$
CHEMBL280_lig939
                    3D
 Schrodinger Suite 2021-1.
 49 51  0  0  1  0            999 V2000
   -3.9111   27.3997   56.0784 S   0  0  0  0  0  0
   -3.2431   29.1938   56.0724 C   0  0  1  0  0  0
   -3.7713   30.1688   57.1950 C   0  0  2  0  0  0
   -5.3118   30.1381   57.5327 C   0  0  0  0  0  0
   -5.4459   27.4282   55.1093 C   0  0  0  0  0  0
   -9.9120   27.4534   49.4309 C   0  0  0  0  0  0
   -8.7101   27.2242   50.1114 C   0  0  0  0  0  0
   -2.9638   26.5700   55.3100 O   0  0  0  0  0  0
   -4.2416   26.9835   57.4412 O   0  0  0  0  0  0
   -9.9120   28.1400   48.2146 C   0  0  0  0  0  0
   -5.8398   29.0934   57.9179 O   0  0  0  0  0  0
   -6.0311   31.2779   57.4416 N   0  0  0  0  0  0
   -3.4473   31.4915   56.7610 O   0  0  0  0  0  0
   -1.6949   29.1614   56.0814 C   0  0  0  0  0  0
   -8.6486   26.4002   51.3936 C   0  0  0  0  0  0
   -3.0287   29.8605   58.5176 C   0  0  0  0  0  0
   -7.5333   27.7696   49.5967 C   0  0  0  0  0  0
   -1.6075   29.8347   58.3748 O   0  0  0  0  0  0
   -5.9097   26.2133   54.6415 C   0  0  0  0  0  0
   -6.1640   28.5767   54.7750 C   0  0  0  0  0  0
   -8.7371   27.2677   52.5274 O   0  0  0  0  0  0
   -8.7278   28.6602   47.6994 C   0  0  0  0  0  0
  -11.4173   26.9700   50.1100 Cl  0  0  0  0  0  0
   -7.6895   27.2664   53.4231 C   0  0  0  0  0  0
   -7.5392   28.4912   48.4023 C   0  0  0  0  0  0
   -7.2896   28.4851   53.9615 C   0  0  0  0  0  0
   -7.0135   26.1092   53.8056 C   0  0  0  0  0  0
   -8.7390   29.5242   46.2062 Cl  0  0  0  0  0  0
   -7.4093   31.2283   57.7100 O   0  0  0  0  0  0
   -1.1387   28.8383   57.4753 C   0  0  0  0  0  0
   -3.5390   29.4696   55.0727 H   0  0  0  0  0  0
  -10.8345   28.2946   47.6784 H   0  0  0  0  0  0
   -5.7009   32.2014   57.1964 H   0  0  0  0  0  0
   -3.8081   31.6202   55.8778 H   0  0  0  0  0  0
   -1.3121   30.1410   55.7892 H   0  0  0  0  0  0
   -1.3158   28.4724   55.3346 H   0  0  0  0  0  0
   -7.7311   25.8115   51.3531 H   0  0  0  0  0  0
   -9.4533   25.6663   51.4271 H   0  0  0  0  0  0
   -3.3424   28.8923   58.9096 H   0  0  0  0  0  0
   -3.2714   30.5964   59.2868 H   0  0  0  0  0  0
   -6.5971   27.6345   50.1188 H   0  0  0  0  0  0
   -5.3333   25.3700   54.9098 H   0  0  0  0  0  0
   -5.8622   29.5579   55.0917 H   0  0  0  0  0  0
   -6.6166   28.9001   48.0169 H   0  0  0  0  0  0
   -7.8390   29.3700   53.7099 H   0  0  0  0  0  0
   -7.3139   25.1366   53.4459 H   0  0  0  0  0  0
   -7.4631   31.3739   58.6628 H   0  0  0  0  0  0
   -0.0484   28.8604   57.4645 H   0  0  0  0  0  0
   -1.4319   27.8403   57.8079 H   0  0  0  0  0  0
  1  2  1  0  0  0
  1  5  1  0  0  0
  1  8  2  0  0  0
  1  9  2  0  0  0
  2  3  1  0  0  0
  2 14  1  0  0  0
  2 31  1  0  0  0
  3  4  1  0  0  0
  3 13  1  0  0  0
  3 16  1  0  0  0
  4 11  2  0  0  0
  4 12  1  0  0  0
  5 19  2  0  0  0
  5 20  1  0  0  0
  6  7  2  0  0  0
  6 10  1  0  0  0
  6 23  1  0  0  0
  7 15  1  0  0  0
  7 17  1  0  0  0
 10 22  2  0  0  0
 10 32  1  0  0  0
 12 29  1  0  0  0
 12 33  1  0  0  0
 13 34  1  0  0  0
 14 30  1  0  0  0
 14 35  1  0  0  0
 14 36  1  0  0  0
 15 21  1  0  0  0
 15 37  1  0  0  0
 15 38  1  0  0  0
 16 18  1  0  0  0
 16 39  1  0  0  0
 16 40  1  0  0  0
 17 25  2  0  0  0
 17 41  1  0  0  0
 18 30  1  0  0  0
 19 27  1  0  0  0
 19 42  1  0  0  0
 20 26  2  0  0  0
 20 43  1  0  0  0
 21 24  1  0  0  0
 22 25  1  0  0  0
 22 28  1  0  0  0
 24 26  1  0  0  0
 24 27  2  0  0  0
 25 44  1  0  0  0
 26 45  1  0  0  0
 27 46  1  0  0  0
 29 47  1  0  0  0
 30 48  1  0  0  0
 30 49  1  0  0  0
M  END
> <s_m_entry_id>
64260

> <s_m_entry_name>
dock_pv.210

> <s_m_Source_Path>
/home/csk/Desktop/cluster/DUD-E-result/mmp13

> <s_m_Source_File>
dock_pv.maegz

> <i_m_Source_File_Index>
210

> <chembl_id>
CHEMBL366111

> <chembl_pref_name>
None

> <i_lp_mmshare_version>
53161

> <i_f3d_flags>
0

> <r_lp_tautomer_probability>
1

> <s_lp_Force_Field>
OPLS_2005

> <r_lp_Energy>
33.850164

> <b_lp_Chiralities_Consistent>
1

> <s_lp_Variant>
CHEMBL280_lig939-1

> <s_i_glide_gridfile>
glide-grid_830c

> <i_i_glide_lignum>
1586

> <i_i_glide_rotatable_bonds>
9

> <r_i_docking_score>
-7.16251852241176

> <r_i_glide_ligand_efficiency>
-0.238750617413725

> <r_i_glide_ligand_efficiency_sa>
-0.741853678403417

> <r_i_glide_ligand_efficiency_ln>
-1.62740225018192

> <r_i_glide_gscore>
-7.16251852241176

> <r_i_glide_lipo>
-3.35543505300187

> <r_i_glide_hbond>
0

> <r_i_glide_metal>
0

> <r_i_glide_rewards>
0.134367693964376

> <r_i_glide_evdw>
-46.2155647277832

> <r_i_glide_ecoul>
-13.7814207077026

> <r_i_glide_erotb>
0.624724004167178

> <r_i_glide_esite>
-0.188183824996887

> <r_i_glide_emodel>
-82.5963206797514

> <r_i_glide_energy>
-59.9969854354858

> <r_i_glide_einternal>
9.63991260528564

> <i_i_glide_confnum>
116

> <i_i_glide_posenum>
95

> <r_i_glide_eff_state_penalty>
0

> <s_user_duplicate_titles>
CHEMBL280_lig939,308325

> <s_m_subgroup_title>
dock_pv

> <s_m_subgroupid>
dock_pv

> <b_m_subgroup_collapsed>
1

$$$$
CHEMBL280_lig1391
                    3D
 Schrodinger Suite 2021-1.
 49 50  0  0  1  0            999 V2000
   -4.0256   29.5945   57.1964 C   0  0  0  0  0  0
   -5.8678   28.9967   57.3479 S   0  0  0  0  0  0
   -4.0050   31.1581   57.2612 C   0  0  0  0  0  0
   -3.2141   29.0231   58.3973 C   0  0  0  0  0  0
   -2.8903   27.5069   58.3404 C   0  0  0  0  0  0
   -2.3508   27.1889   57.0023 N   0  0  0  0  0  0
   -3.1661   27.5707   55.8432 C   0  0  0  0  0  0
   -3.3468   29.0876   55.8989 C   0  0  0  0  0  0
   -3.8369   31.7244   58.3449 O   0  0  0  0  0  0
   -4.1913   31.8428   56.1121 N   0  0  0  0  0  0
   -4.1856   33.2461   56.1508 O   0  0  0  0  0  0
   -6.7388   30.1706   57.4655 O   0  0  0  0  0  0
   -5.9387   27.9376   58.3613 O   0  0  0  0  0  0
   -1.3749   26.2713   56.8169 C   0  0  0  0  0  0
   -1.1515   25.7701   55.7101 O   0  0  0  0  0  0
   -0.4022   25.9677   57.9565 C   0  0  0  0  0  0
   -6.3392   28.2298   55.7929 C   0  0  0  0  0  0
   -6.5067   29.0559   54.6932 C   0  0  0  0  0  0
   -6.8388   28.5198   53.4603 C   0  0  0  0  0  0
   -7.1119   27.1540   53.3229 C   0  0  0  0  0  0
   -6.9613   26.3275   54.4395 C   0  0  0  0  0  0
   -6.5740   26.8551   55.6723 C   0  0  0  0  0  0
   -7.5388   26.5628   52.1466 O   0  0  0  0  0  0
   -7.6284   27.3354   50.9445 C   0  0  0  0  0  0
   -8.6355   26.8176   50.0100 C   0  0  0  0  0  0
   -9.4926   26.4962   49.2019 C   0  0  0  0  0  0
  -10.5075   26.1697   48.1920 C   0  0  0  0  0  0
   -2.2678   29.5574   58.5116 H   0  0  0  0  0  0
   -3.7724   29.2376   59.3098 H   0  0  0  0  0  0
   -2.1833   27.3061   59.1446 H   0  0  0  0  0  0
   -3.7936   26.9202   58.4965 H   0  0  0  0  0  0
   -2.6888   27.3698   54.8875 H   0  0  0  0  0  0
   -4.1071   27.0347   55.9054 H   0  0  0  0  0  0
   -3.9130   29.3699   55.0240 H   0  0  0  0  0  0
   -2.3741   29.5682   55.7599 H   0  0  0  0  0  0
   -4.3391   31.4658   55.1720 H   0  0  0  0  0  0
   -5.1170   33.4798   56.1129 H   0  0  0  0  0  0
   -0.0449   26.8927   58.4112 H   0  0  0  0  0  0
   -0.8872   25.3697   58.7263 H   0  0  0  0  0  0
    0.4706   25.4249   57.5907 H   0  0  0  0  0  0
   -6.3394   30.1191   54.7814 H   0  0  0  0  0  0
   -6.8795   29.1995   52.6318 H   0  0  0  0  0  0
   -7.1390   25.2668   54.3459 H   0  0  0  0  0  0
   -6.4585   26.1976   56.5220 H   0  0  0  0  0  0
   -6.6605   27.3722   50.4440 H   0  0  0  0  0  0
   -7.9389   28.3639   51.1031 H   0  0  0  0  0  0
  -10.5828   25.0874   48.0891 H   0  0  0  0  0  0
  -10.2253   26.6036   47.2332 H   0  0  0  0  0  0
  -11.4751   26.5703   48.4969 H   0  0  0  0  0  0
  1  8  1  0  0  0
  1  3  1  0  0  0
  1  2  1  0  0  0
  1  4  1  0  0  0
  2 17  1  0  0  0
  2 12  2  0  0  0
  2 13  2  0  0  0
  3  9  2  0  0  0
  3 10  1  0  0  0
  4  5  1  0  0  0
  4 28  1  0  0  0
  4 29  1  0  0  0
  5  6  1  0  0  0
  5 30  1  0  0  0
  5 31  1  0  0  0
  6 14  1  0  0  0
  6  7  1  0  0  0
  7  8  1  0  0  0
  7 32  1  0  0  0
  7 33  1  0  0  0
  8 34  1  0  0  0
  8 35  1  0  0  0
 10 11  1  0  0  0
 10 36  1  0  0  0
 11 37  1  0  0  0
 14 15  2  0  0  0
 14 16  1  0  0  0
 16 38  1  0  0  0
 16 39  1  0  0  0
 16 40  1  0  0  0
 17 18  2  0  0  0
 17 22  1  0  0  0
 18 19  1  0  0  0
 18 41  1  0  0  0
 19 20  2  0  0  0
 19 42  1  0  0  0
 20 21  1  0  0  0
 20 23  1  0  0  0
 21 22  2  0  0  0
 21 43  1  0  0  0
 22 44  1  0  0  0
 23 24  1  0  0  0
 24 25  1  0  0  0
 24 45  1  0  0  0
 24 46  1  0  0  0
 25 26  3  0  0  0
 26 27  1  0  0  0
 27 47  1  0  0  0
 27 48  1  0  0  0
 27 49  1  0  0  0
M  END
> <s_m_entry_id>
64261

> <s_m_entry_name>
dock_pv.211

> <s_m_Source_Path>
/home/csk/Desktop/cluster/DUD-E-result/mmp13

> <s_m_Source_File>
dock_pv.maegz

> <i_m_Source_File_Index>
211

> <chembl_id>
CHEMBL524281

> <chembl_pref_name>
None

> <i_lp_mmshare_version>
53161

> <i_f3d_flags>
0

> <r_lp_tautomer_probability>
1

> <s_lp_Force_Field>
OPLS_2005

> <r_lp_Energy>
32.022964

> <b_lp_Chiralities_Consistent>
1

> <s_lp_Variant>
CHEMBL280_lig1391-1

> <s_i_glide_gridfile>
glide-grid_830c

> <i_i_glide_lignum>
2118

> <i_i_glide_rotatable_bonds>
9

> <r_i_docking_score>
-7.15902970409399

> <r_i_glide_ligand_efficiency>
-0.265149248299777

> <r_i_glide_ligand_efficiency_sa>
-0.795447744025444

> <r_i_glide_ligand_efficiency_ln>
-1.66650408928419

> <r_i_glide_gscore>
-7.15902970409399

> <r_i_glide_lipo>
-2.85399808827704

> <r_i_glide_hbond>
-0.382189715299137

> <r_i_glide_metal>
0

> <r_i_glide_rewards>
-0.690891341967325

> <r_i_glide_evdw>
-32.691707611084

> <r_i_glide_ecoul>
-15.0757274627686

> <r_i_glide_erotb>
0.879353466532802

> <r_i_glide_esite>
-0.215359525113813

> <r_i_glide_emodel>
-64.857718644616

> <r_i_glide_energy>
-47.7674350738525

> <r_i_glide_einternal>
13.2708911895752

> <i_i_glide_confnum>
32

> <i_i_glide_posenum>
136

> <r_i_glide_eff_state_penalty>
0

> <s_user_duplicate_titles>
CHEMBL280_lig1391,501312

> <s_m_subgroup_title>
dock_pv

> <s_m_subgroupid>
dock_pv

> <b_m_subgroup_collapsed>
1

$$$$
CHEMBL280_lig2290
                    3D
 Schrodinger Suite 2021-1.
 42 44  0  0  1  0            999 V2000
   -4.5967   26.7151   56.4095 S   0  0  0  0  0  0
   -5.0944   28.2579   55.7750 N   0  0  2  0  0  0
   -4.2636   29.3365   56.3996 C   0  0  2  0  0  0
   -2.8359   29.3708   55.7550 C   0  0  0  0  0  0
   -4.1623   28.9369   57.8962 C   0  0  0  0  0  0
   -3.8617   27.4252   57.9916 C   0  0  0  0  0  0
   -3.5029   26.1692   55.5870 O   0  0  0  0  0  0
   -5.7779   25.9198   56.7666 O   0  0  0  0  0  0
   -6.5420   28.4136   55.4533 C   0  0  0  0  0  0
   -2.4676   28.5519   54.9086 O   0  0  0  0  0  0
   -7.9387   27.3248   51.4840 C   0  0  0  0  0  0
   -2.0400   30.3647   56.1936 N   0  0  0  0  0  0
   -8.5642   27.2870   50.1028 C   0  0  0  0  0  0
   -6.7973   28.0921   51.7101 C   0  0  0  0  0  0
   -8.5001   26.7013   52.6139 C   0  0  0  0  0  0
   -6.9474   27.8374   54.0943 C   0  0  0  0  0  0
   -6.2963   28.3185   52.9775 C   0  0  0  0  0  0
   -8.0313   26.9725   53.9111 C   0  0  0  0  0  0
   -0.7228   30.4410   55.7114 O   0  0  0  0  0  0
   -9.6285   26.4246   49.7900 C   0  0  0  0  0  0
   -8.1415   28.1697   49.0850 C   0  0  0  0  0  0
   -8.7542   28.2103   47.8382 C   0  0  0  0  0  0
  -10.2515   26.4681   48.5396 C   0  0  0  0  0  0
   -9.8172   27.3631   47.5714 C   0  0  0  0  0  0
   -4.7106   30.3201   56.2421 H   0  0  0  0  0  0
   -3.4238   29.5229   58.4468 H   0  0  0  0  0  0
   -5.1191   29.1518   58.3769 H   0  0  0  0  0  0
   -2.7945   27.2060   58.0096 H   0  0  0  0  0  0
   -4.3427   26.9689   58.8538 H   0  0  0  0  0  0
   -7.1349   28.0080   56.2729 H   0  0  0  0  0  0
   -6.7711   29.4791   55.4176 H   0  0  0  0  0  0
   -2.2556   31.0754   56.8789 H   0  0  0  0  0  0
   -6.3390   28.6233   50.9099 H   0  0  0  0  0  0
   -9.3716   26.0774   52.5092 H   0  0  0  0  0  0
   -5.4547   28.9699   53.1034 H   0  0  0  0  0  0
   -8.5491   26.5632   54.7662 H   0  0  0  0  0  0
   -0.1871   30.1610   56.4582 H   0  0  0  0  0  0
   -9.9927   25.7098   50.5104 H   0  0  0  0  0  0
   -7.3439   28.8798   49.2244 H   0  0  0  0  0  0
   -8.4056   28.9035   47.0858 H   0  0  0  0  0  0
  -11.0585   25.7974   48.2942 H   0  0  0  0  0  0
  -10.2981   27.3909   46.6044 H   0  0  0  0  0  0
  1  2  1  0  0  0
  1  6  1  0  0  0
  1  7  2  0  0  0
  1  8  2  0  0  0
  2  3  1  0  0  0
  2  9  1  0  0  0
  3  4  1  0  0  0
  3  5  1  0  0  0
  3 25  1  0  0  0
  4 10  2  0  0  0
  4 12  1  0  0  0
  5  6  1  0  0  0
  5 26  1  0  0  0
  5 27  1  0  0  0
  6 28  1  0  0  0
  6 29  1  0  0  0
  9 16  1  0  0  0
  9 30  1  0  0  0
  9 31  1  0  0  0
 11 15  2  0  0  0
 11 13  1  0  0  0
 11 14  1  0  0  0
 12 19  1  0  0  0
 12 32  1  0  0  0
 13 20  2  0  0  0
 13 21  1  0  0  0
 14 17  2  0  0  0
 14 33  1  0  0  0
 15 18  1  0  0  0
 15 34  1  0  0  0
 16 17  1  0  0  0
 16 18  2  0  0  0
 17 35  1  0  0  0
 18 36  1  0  0  0
 19 37  1  0  0  0
 20 23  1  0  0  0
 20 38  1  0  0  0
 21 22  2  0  0  0
 21 39  1  0  0  0
 22 24  1  0  0  0
 22 40  1  0  0  0
 23 24  2  0  0  0
 23 41  1  0  0  0
 24 42  1  0  0  0
M  END
> <s_m_entry_id>
64262

> <s_m_entry_name>
dock_pv.212

> <s_m_Source_Path>
/home/csk/Desktop/cluster/DUD-E-result/mmp13

> <s_m_Source_File>
dock_pv.maegz

> <i_m_Source_File_Index>
212

> <chembl_id>
CHEMBL100754

> <chembl_pref_name>
None

> <i_lp_mmshare_version>
53161

> <i_f3d_flags>
0

> <r_lp_tautomer_probability>
1

> <s_lp_Force_Field>
OPLS_2005

> <r_lp_Energy>
28.138398

> <b_lp_Chiralities_Consistent>
1

> <s_lp_Variant>
CHEMBL280_lig2290-1

> <s_i_glide_gridfile>
glide-grid_830c

> <i_i_glide_lignum>
3270

> <i_i_glide_rotatable_bonds>
6

> <r_i_docking_score>
-7.15296205221672

> <r_i_glide_ligand_efficiency>
-0.29804008550903

> <r_i_glide_ligand_efficiency_sa>
-0.859696369608843

> <r_i_glide_ligand_efficiency_ln>
-1.71203204713641

> <r_i_glide_gscore>
-7.15296205221672

> <r_i_glide_lipo>
-3.7918220922891

> <r_i_glide_hbond>
0

> <r_i_glide_metal>
0

> <r_i_glide_rewards>
-1.10588763452215

> <r_i_glide_evdw>
-38.1424140930176

> <r_i_glide_ecoul>
-5.44997644424438

> <r_i_glide_erotb>
0.792191114675585

> <r_i_glide_esite>
-0.322826268793522

> <r_i_glide_emodel>
-62.3249865200019

> <r_i_glide_energy>
-43.592390537262

> <r_i_glide_einternal>
11.2574920654297

> <i_i_glide_confnum>
182

> <i_i_glide_posenum>
214

> <r_i_glide_eff_state_penalty>
0

> <s_user_duplicate_titles>
CHEMBL280_lig2290,165294

> <s_m_subgroup_title>
dock_pv

> <s_m_subgroupid>
dock_pv

> <b_m_subgroup_collapsed>
1

$$$$
CHEMBL280_lig1494
                    3D
 Schrodinger Suite 2021-1.
 43 45  0  0  1  0            999 V2000
   -5.5101   28.8699   57.1153 C   0  0  0  0  0  0
   -5.8541   29.9967   57.8726 C   0  0  0  0  0  0
   -6.7326   30.9541   57.3704 C   0  0  0  0  0  0
   -7.2867   30.7943   56.1042 C   0  0  0  0  0  0
   -6.9829   29.6642   55.3491 C   0  0  0  0  0  0
   -6.1077   28.6891   55.8471 C   0  0  0  0  0  0
   -5.8727   27.1572   54.9297 S   0  0  0  0  0  0
   -6.8340   27.2181   53.4223 C   0  0  0  0  0  0
   -4.4661   27.0870   54.5104 O   0  0  0  0  0  0
   -6.4657   26.1219   55.7805 O   0  0  0  0  0  0
   -6.3811   27.9899   52.3593 C   0  0  0  0  0  0
   -7.0985   28.0034   51.1705 C   0  0  0  0  0  0
   -8.2657   27.2621   51.0064 C   0  0  0  0  0  0
   -8.7044   26.4853   52.0882 C   0  0  0  0  0  0
   -7.9957   26.4616   53.2887 C   0  0  0  0  0  0
   -4.4677   27.8981   57.6998 C   0  0  0  0  0  0
   -3.1074   27.9198   56.9750 C   0  0  0  0  0  0
   -2.7543   29.0823   56.3941 N   0  0  0  0  0  0
   -2.4154   26.8984   56.9397 O   0  0  0  0  0  0
   -1.5380   29.1587   55.7113 O   0  0  0  0  0  0
   -8.9910   27.3005   49.6974 C   0  0  0  0  0  0
   -9.7481   26.2038   49.2888 C   0  0  0  0  0  0
  -10.3390   26.1723   48.0322 C   0  0  0  0  0  0
  -10.2266   27.2619   47.1773 C   0  0  0  0  0  0
   -9.5104   28.3829   47.5747 C   0  0  0  0  0  0
   -8.8967   28.3978   48.8232 C   0  0  0  0  0  0
   -5.4295   30.1517   58.8547 H   0  0  0  0  0  0
   -6.9831   31.8190   57.9672 H   0  0  0  0  0  0
   -7.9706   31.5362   55.7196 H   0  0  0  0  0  0
   -7.4598   29.5474   54.3884 H   0  0  0  0  0  0
   -5.4741   28.5694   52.4427 H   0  0  0  0  0  0
   -6.7382   28.6017   50.3523 H   0  0  0  0  0  0
   -9.5981   25.8866   52.0100 H   0  0  0  0  0  0
   -8.3414   25.8441   54.1047 H   0  0  0  0  0  0
   -4.8744   26.8854   57.7078 H   0  0  0  0  0  0
   -4.2700   28.1341   58.7468 H   0  0  0  0  0  0
   -3.2782   29.9470   56.3788 H   0  0  0  0  0  0
   -0.9908   29.7059   56.2828 H   0  0  0  0  0  0
   -9.8356   25.3416   49.9216 H   0  0  0  0  0  0
  -10.8359   25.2758   47.7099 H   0  0  0  0  0  0
  -10.6814   27.2317   46.1985 H   0  0  0  0  0  0
   -9.4123   29.2312   46.9126 H   0  0  0  0  0  0
   -8.3391   29.2813   49.0835 H   0  0  0  0  0  0
  1  2  2  0  0  0
  1 16  1  0  0  0
  1  6  1  0  0  0
  2  3  1  0  0  0
  2 27  1  0  0  0
  3  4  2  0  0  0
  3 28  1  0  0  0
  4  5  1  0  0  0
  4 29  1  0  0  0
  5  6  2  0  0  0
  5 30  1  0  0  0
  6  7  1  0  0  0
  7  8  1  0  0  0
  7  9  2  0  0  0
  7 10  2  0  0  0
  8 15  1  0  0  0
  8 11  2  0  0  0
 11 12  1  0  0  0
 11 31  1  0  0  0
 12 13  2  0  0  0
 12 32  1  0  0  0
 13 14  1  0  0  0
 13 21  1  0  0  0
 14 15  2  0  0  0
 14 33  1  0  0  0
 15 34  1  0  0  0
 16 17  1  0  0  0
 16 35  1  0  0  0
 16 36  1  0  0  0
 17 18  1  0  0  0
 17 19  2  0  0  0
 18 20  1  0  0  0
 18 37  1  0  0  0
 20 38  1  0  0  0
 21 22  2  0  0  0
 21 26  1  0  0  0
 22 23  1  0  0  0
 22 39  1  0  0  0
 23 24  2  0  0  0
 23 40  1  0  0  0
 24 25  1  0  0  0
 24 41  1  0  0  0
 25 26  2  0  0  0
 25 42  1  0  0  0
 26 43  1  0  0  0
M  END
> <s_m_entry_id>
64263

> <s_m_entry_name>
dock_pv.213

> <s_m_Source_Path>
/home/csk/Desktop/cluster/DUD-E-result/mmp13

> <s_m_Source_File>
dock_pv.maegz

> <i_m_Source_File_Index>
213

> <chembl_id>
CHEMBL574370

> <chembl_pref_name>
None

> <i_lp_mmshare_version>
53161

> <i_f3d_flags>
0

> <r_lp_tautomer_probability>
1

> <s_lp_Force_Field>
OPLS_2005

> <r_lp_Energy>
35.763251

> <b_lp_Chiralities_Consistent>
1

> <s_lp_Variant>
CHEMBL280_lig1494-1

> <s_i_glide_gridfile>
glide-grid_830c

> <i_i_glide_lignum>
2224

> <i_i_glide_rotatable_bonds>
7

> <r_i_docking_score>
-7.15080435381935

> <r_i_glide_ligand_efficiency>
-0.27503093668536

> <r_i_glide_ligand_efficiency_sa>
-0.8147780677359

> <r_i_glide_ligand_efficiency_ln>
-1.67934293879161

> <r_i_glide_gscore>
-7.15080435381935

> <r_i_glide_lipo>
-4.13245206271166

> <r_i_glide_hbond>
0

> <r_i_glide_metal>
0

> <r_i_glide_rewards>
-0.951690861616379

> <r_i_glide_evdw>
-45.7538719177246

> <r_i_glide_ecoul>
-3.1876585483551

> <r_i_glide_erotb>
0.855950738286688

> <r_i_glide_esite>
-0.156769789638506

> <r_i_glide_emodel>
-57.502315528766

> <r_i_glide_energy>
-48.9415304660797

> <r_i_glide_einternal>
10.2620983123779

> <i_i_glide_confnum>
22

> <i_i_glide_posenum>
251

> <r_i_glide_eff_state_penalty>
0

> <s_user_duplicate_titles>
CHEMBL280_lig1494,570813

> <s_m_subgroup_title>
dock_pv

> <s_m_subgroupid>
dock_pv

> <b_m_subgroup_collapsed>
1

$$$$
CHEMBL280_lig1247
                    3D
 Schrodinger Suite 2021-1.
 46 48  0  0  1  0            999 V2000
   -6.3342   31.4566   57.2990 N   0  0  0  0  0  0
   -6.9835   30.8967   56.2425 C   0  0  0  0  0  0
   -6.3707   29.5456   55.7754 C   0  0  1  0  0  0
   -6.2746   28.5202   56.8211 N   0  0  2  0  0  0
   -4.9628   31.1298   57.7189 C   0  0  0  0  0  0
   -5.0451   28.5256   57.6019 C   0  0  0  0  0  0
   -4.8567   29.7856   58.4671 C   0  0  0  0  0  0
   -7.9920   31.3733   55.7082 O   0  0  0  0  0  0
   -7.0733   32.3268   58.1096 O   0  0  0  0  0  0
   -7.1392   28.9628   54.5737 C   0  0  0  0  0  0
   -6.4026   27.3401   53.9878 S   0  0  0  0  0  0
   -7.2662   27.1030   52.4416 C   0  0  0  0  0  0
   -4.9812   27.5720   53.7100 O   0  0  0  0  0  0
   -6.8234   26.2891   54.9211 O   0  0  0  0  0  0
   -8.4052   26.3104   52.3747 C   0  0  0  0  0  0
   -9.1390   26.2472   51.1888 C   0  0  0  0  0  0
   -8.7354   26.9601   50.0561 C   0  0  0  0  0  0
   -7.5280   27.6673   50.1123 C   0  0  0  0  0  0
   -6.8245   27.7701   51.3073 C   0  0  0  0  0  0
   -9.5674   26.8959   48.9470 O   0  0  0  0  0  0
   -9.4081   27.6431   47.7913 C   0  0  0  0  0  0
   -9.7790   27.0361   46.5891 C   0  0  0  0  0  0
   -9.6074   27.7018   45.3766 C   0  0  0  0  0  0
   -9.0730   28.9876   45.3645 C   0  0  0  0  0  0
   -8.7400   29.6251   46.5576 C   0  0  0  0  0  0
   -8.9500   28.9683   47.7698 C   0  0  0  0  0  0
   -5.3739   29.7672   55.3914 H   0  0  0  0  0  0
   -6.4858   27.5967   56.4514 H   0  0  0  0  0  0
   -4.5857   31.9336   58.3545 H   0  0  0  0  0  0
   -4.3045   31.1297   56.8469 H   0  0  0  0  0  0
   -5.0554   27.6458   58.2462 H   0  0  0  0  0  0
   -4.1954   28.4033   56.9260 H   0  0  0  0  0  0
   -5.5426   29.7694   59.3096 H   0  0  0  0  0  0
   -3.8620   29.7214   58.9098 H   0  0  0  0  0  0
   -7.3984   31.7489   58.8090 H   0  0  0  0  0  0
   -8.1864   28.7781   54.7942 H   0  0  0  0  0  0
   -7.0917   29.6420   53.7244 H   0  0  0  0  0  0
   -8.7387   25.7718   53.2504 H   0  0  0  0  0  0
  -10.0451   25.6623   51.1489 H   0  0  0  0  0  0
   -7.1107   28.1665   49.2523 H   0  0  0  0  0  0
   -5.9387   28.3808   51.3466 H   0  0  0  0  0  0
  -10.1738   26.0313   46.5960 H   0  0  0  0  0  0
   -9.8681   27.2160   44.4487 H   0  0  0  0  0  0
   -8.9169   29.4950   44.4228 H   0  0  0  0  0  0
   -8.3462   30.6321   46.5457 H   0  0  0  0  0  0
   -8.7376   29.4929   48.6876 H   0  0  0  0  0  0
  1  2  1  0  0  0
  1  9  1  0  0  0
  1  5  1  0  0  0
  2  8  2  0  0  0
  2  3  1  0  0  0
  3  4  1  0  0  0
  3 10  1  0  0  0
  3 27  1  0  0  0
  4  6  1  0  0  0
  4 28  1  0  0  0
  5  7  1  0  0  0
  5 29  1  0  0  0
  5 30  1  0  0  0
  6  7  1  0  0  0
  6 31  1  0  0  0
  6 32  1  0  0  0
  7 33  1  0  0  0
  7 34  1  0  0  0
  9 35  1  0  0  0
 10 11  1  0  0  0
 10 36  1  0  0  0
 10 37  1  0  0  0
 11 13  2  0  0  0
 11 14  2  0  0  0
 11 12  1  0  0  0
 12 15  2  0  0  0
 12 19  1  0  0  0
 15 16  1  0  0  0
 15 38  1  0  0  0
 16 17  2  0  0  0
 16 39  1  0  0  0
 17 18  1  0  0  0
 17 20  1  0  0  0
 18 19  2  0  0  0
 18 40  1  0  0  0
 19 41  1  0  0  0
 20 21  1  0  0  0
 21 22  2  0  0  0
 21 26  1  0  0  0
 22 23  1  0  0  0
 22 42  1  0  0  0
 23 24  2  0  0  0
 23 43  1  0  0  0
 24 25  1  0  0  0
 24 44  1  0  0  0
 25 26  2  0  0  0
 25 45  1  0  0  0
 26 46  1  0  0  0
M  END
> <s_m_entry_id>
64264

> <s_m_entry_name>
dock_pv.214

> <s_m_Source_Path>
/home/csk/Desktop/cluster/DUD-E-result/mmp13

> <s_m_Source_File>
dock_pv.maegz

> <i_m_Source_File_Index>
214

> <chembl_id>
CHEMBL257480

> <chembl_pref_name>
None

> <i_lp_mmshare_version>
53161

> <i_f3d_flags>
0

> <r_lp_tautomer_probability>
1

> <s_lp_Force_Field>
OPLS_2005

> <r_lp_Energy>
29.332714

> <b_lp_Chiralities_Consistent>
1

> <s_lp_Variant>
CHEMBL280_lig1247-1

> <s_i_glide_gridfile>
glide-grid_830c

> <i_i_glide_lignum>
1963

> <i_i_glide_rotatable_bonds>
6

> <r_i_docking_score>
-7.13892672169354

> <r_i_glide_ligand_efficiency>
-0.274574104680521

> <r_i_glide_ligand_efficiency_sa>
-0.813424704719111

> <r_i_glide_ligand_efficiency_ln>
-1.67655351586055

> <r_i_glide_gscore>
-7.13892672169354

> <r_i_glide_lipo>
-3.45062455785659

> <r_i_glide_hbond>
-0.0557133197528562

> <r_i_glide_metal>
0

> <r_i_glide_rewards>
-0.842537727272726

> <r_i_glide_evdw>
-50.2119026184082

> <r_i_glide_ecoul>
-6.40142393112183

> <r_i_glide_erotb>
0.683057562724116

> <r_i_glide_esite>
-0.00229995894680116

> <r_i_glide_emodel>
-79.20988724779

> <r_i_glide_energy>
-56.61332654953

> <r_i_glide_einternal>
2.76461338996887

> <i_i_glide_confnum>
74

> <i_i_glide_posenum>
286

> <r_i_glide_eff_state_penalty>
0

> <s_user_duplicate_titles>
CHEMBL280_lig1247,438012

> <s_m_subgroup_title>
dock_pv

> <s_m_subgroupid>
dock_pv

> <b_m_subgroup_collapsed>
1

$$$$
CHEMBL280_lig240
                    3D
 Schrodinger Suite 2021-1.
 34 36  0  0  1  0            999 V2000
   -4.3219   28.4158   58.1100 C   0  0  0  0  0  0
   -2.9923   28.4541   58.2513 N   0  0  0  0  0  0
   -4.6305   28.9115   56.6989 C   0  0  1  0  0  0
   -2.2273   28.6461   57.0230 C   0  0  1  0  0  0
   -1.5328   27.3151   56.6359 C   0  0  0  0  0  0
   -3.2726   29.1662   56.0416 C   0  0  0  0  0  0
   -5.5448   27.9821   55.9005 C   0  0  0  0  0  0
   -6.0664   28.4700   54.7041 C   0  0  0  0  0  0
   -5.1390   27.9839   58.9100 O   0  0  0  0  0  0
   -6.7000   27.6048   53.7973 C   0  0  0  0  0  0
   -1.9390   26.5900   55.7100 O   0  0  0  0  0  0
   -5.7984   26.6536   56.2711 C   0  0  0  0  0  0
   -0.4989   27.0036   57.4400 N   0  0  0  0  0  0
   -6.9447   26.2618   54.1920 C   0  0  0  0  0  0
   -6.5416   25.8195   55.4597 C   0  0  0  0  0  0
    0.1306   25.7700   57.2892 O   0  0  0  0  0  0
   -7.0495   28.0133   52.4933 C   0  0  0  0  0  0
   -7.5390   25.3823   53.2869 C   0  0  0  0  0  0
   -7.7062   27.1412   51.6349 C   0  0  0  0  0  0
   -7.9580   25.8370   52.0369 C   0  0  0  0  0  0
   -2.5530   28.2113   59.1262 H   0  0  0  0  0  0
   -5.1663   29.8558   56.8164 H   0  0  0  0  0  0
   -1.4641   29.4028   57.2193 H   0  0  0  0  0  0
   -3.1454   30.2436   55.9168 H   0  0  0  0  0  0
   -3.1880   28.7453   55.0380 H   0  0  0  0  0  0
   -5.9390   29.5012   54.4234 H   0  0  0  0  0  0
   -5.4082   26.2204   57.1801 H   0  0  0  0  0  0
   -0.1349   27.5389   58.2171 H   0  0  0  0  0  0
   -6.7390   24.8003   55.7614 H   0  0  0  0  0  0
    0.9348   25.9575   56.7890 H   0  0  0  0  0  0
   -6.7927   28.9987   52.1561 H   0  0  0  0  0  0
   -7.5474   24.3332   53.5425 H   0  0  0  0  0  0
   -7.9783   27.4644   50.6403 H   0  0  0  0  0  0
   -8.4093   25.1517   51.3337 H   0  0  0  0  0  0
  1  2  1  0  0  0
  1  3  1  0  0  0
  1  9  2  0  0  0
  2  4  1  0  0  0
  2 21  1  0  0  0
  3  6  1  0  0  0
  3  7  1  0  0  0
  3 22  1  0  0  0
  4  5  1  0  0  0
  4  6  1  0  0  0
  4 23  1  0  0  0
  5 11  2  0  0  0
  5 13  1  0  0  0
  6 24  1  0  0  0
  6 25  1  0  0  0
  7  8  2  0  0  0
  7 12  1  0  0  0
  8 10  1  0  0  0
  8 26  1  0  0  0
 10 17  2  0  0  0
 10 14  1  0  0  0
 12 15  2  0  0  0
 12 27  1  0  0  0
 13 16  1  0  0  0
 13 28  1  0  0  0
 14 15  1  0  0  0
 14 18  2  0  0  0
 15 29  1  0  0  0
 16 30  1  0  0  0
 17 19  1  0  0  0
 17 31  1  0  0  0
 18 20  1  0  0  0
 18 32  1  0  0  0
 19 20  2  0  0  0
 19 33  1  0  0  0
 20 34  1  0  0  0
M  END
> <s_m_entry_id>
64265

> <s_m_entry_name>
dock_pv.215

> <s_m_Source_Path>
/home/csk/Desktop/cluster/DUD-E-result/mmp13

> <s_m_Source_File>
dock_pv.maegz

> <i_m_Source_File_Index>
215

> <chembl_id>
CHEMBL20287

> <chembl_pref_name>
None

> <i_lp_mmshare_version>
53161

> <i_f3d_flags>
0

> <r_lp_tautomer_probability>
1

> <s_lp_Force_Field>
OPLS_2005

> <r_lp_Energy>
32.255656

> <b_lp_Chiralities_Consistent>
1

> <s_lp_Variant>
CHEMBL280_lig240-1

> <s_i_glide_gridfile>
glide-grid_830c

> <i_i_glide_lignum>
336

> <i_i_glide_rotatable_bonds>
4

> <r_i_docking_score>
-7.12333603965547

> <r_i_glide_ligand_efficiency>
-0.356166801982774

> <r_i_glide_ligand_efficiency_sa>
-0.966785440782901

> <r_i_glide_ligand_efficiency_ln>
-1.78273606737912

> <r_i_glide_gscore>
-7.12333603965547

> <r_i_glide_lipo>
-2.11751377412632

> <r_i_glide_hbond>
-0.297349864064636

> <r_i_glide_metal>
0

> <r_i_glide_rewards>
-2.21619575119592

> <r_i_glide_evdw>
-23.269645690918

> <r_i_glide_ecoul>
-13.0974340438843

> <r_i_glide_erotb>
0.734402441437029

> <r_i_glide_esite>
-0.0985817005770839

> <r_i_glide_emodel>
-50.2948104569623

> <r_i_glide_energy>
-36.3670797348022

> <r_i_glide_einternal>
5.79956245422363

> <i_i_glide_confnum>
9

> <i_i_glide_posenum>
214

> <r_i_glide_eff_state_penalty>
0

> <s_user_duplicate_titles>
CHEMBL280_lig240

> <s_m_subgroup_title>
dock_pv

> <s_m_subgroupid>
dock_pv

> <b_m_subgroup_collapsed>
1

$$$$
CHEMBL280_lig2140
                    3D
 Schrodinger Suite 2021-1.
 59 61  0  0  1  0            999 V2000
   -1.0719   29.1361   59.1413 C   0  0  0  0  0  0
   -1.0475   28.5933   57.6877 C   0  0  0  0  0  0
    0.0873   27.5399   57.5590 C   0  0  0  0  0  0
   -5.0879   27.7700   58.9100 O   0  0  0  0  0  0
   -5.1482   28.7726   57.8407 S   0  0  0  0  0  0
   -5.8252   30.0596   58.0280 O   0  0  0  0  0  0
   -3.5038   29.0768   57.2534 N   0  0  3  0  0  0
   -2.4733   27.9982   57.3575 C   0  0  1  0  0  0
   -0.7475   29.7599   56.6972 C   0  0  0  0  0  0
   -1.8251   30.8684   56.7220 C   0  0  2  0  0  0
   -3.2105   30.2667   56.4052 C   0  0  0  0  0  0
   -2.5240   27.0659   56.1119 C   0  0  0  0  0  0
   -2.7390   27.4695   54.9612 O   0  0  0  0  0  0
   -2.3217   25.7700   56.3752 N   0  0  0  0  0  0
   -2.3390   24.8761   55.3101 O   0  0  0  0  0  0
   -5.9640   27.9564   56.4845 C   0  0  0  0  0  0
   -5.8846   26.5700   56.3627 C   0  0  0  0  0  0
   -6.5065   25.9395   55.2936 C   0  0  0  0  0  0
   -7.2377   26.6587   54.3621 C   0  0  0  0  0  0
   -7.3368   28.0556   54.5163 C   0  0  0  0  0  0
   -6.6813   28.7041   55.5559 C   0  0  0  0  0  0
   -7.7328   25.9325   53.2847 O   0  0  0  0  0  0
   -8.7925   26.4836   52.5074 C   0  0  0  0  0  0
   -8.5161   26.8177   51.0462 C   0  0  0  0  0  0
   -7.4636   27.6584   50.6501 C   0  0  0  0  0  0
   -7.4735   28.1700   49.3460 C   0  0  0  0  0  0
   -8.4676   27.8322   48.4351 C   0  0  0  0  0  0
   -9.4845   26.9700   48.8187 C   0  0  0  0  0  0
   -9.5019   26.4576   50.1129 C   0  0  0  0  0  0
   -6.3647   28.0588   51.6364 C   0  0  0  0  0  0
  -10.7387   26.5700   47.7042 Cl  0  0  0  0  0  0
   -1.4973   31.9002   55.8173 O   0  0  0  0  0  0
   -0.1647   29.6946   59.3751 H   0  0  0  0  0  0
   -1.9176   29.7970   59.3301 H   0  0  0  0  0  0
   -1.1392   28.3236   59.8659 H   0  0  0  0  0  0
    1.0533   27.9662   57.8338 H   0  0  0  0  0  0
   -0.0839   26.6919   58.2231 H   0  0  0  0  0  0
    0.1964   27.1423   56.5504 H   0  0  0  0  0  0
   -2.7716   27.3487   58.1830 H   0  0  0  0  0  0
    0.2204   30.2046   56.9348 H   0  0  0  0  0  0
   -0.6445   29.3769   55.6813 H   0  0  0  0  0  0
   -1.8539   31.3443   57.7027 H   0  0  0  0  0  0
   -3.1917   29.9243   55.3704 H   0  0  0  0  0  0
   -4.0137   30.9978   56.4989 H   0  0  0  0  0  0
   -2.2650   25.3255   57.2841 H   0  0  0  0  0  0
   -3.1677   24.3657   55.4720 H   0  0  0  0  0  0
   -5.3253   25.9747   57.0710 H   0  0  0  0  0  0
   -6.4123   24.8742   55.1717 H   0  0  0  0  0  0
   -7.8821   28.6869   53.8370 H   0  0  0  0  0  0
   -6.7444   29.7796   55.6435 H   0  0  0  0  0  0
   -9.6093   25.7700   52.5100 H   0  0  0  0  0  0
   -9.1391   27.4060   52.9414 H   0  0  0  0  0  0
   -6.7390   28.8864   49.0298 H   0  0  0  0  0  0
   -8.4517   28.2534   47.4402 H   0  0  0  0  0  0
  -10.3297   25.8274   50.4045 H   0  0  0  0  0  0
   -5.3554   28.1700   51.3100 H   0  0  0  0  0  0
   -6.6154   28.9700   52.1686 H   0  0  0  0  0  0
   -6.1358   27.2411   52.2956 H   0  0  0  0  0  0
   -2.1378   32.6087   55.9167 H   0  0  0  0  0  0
  1  2  1  0  0  0
  1 33  1  0  0  0
  1 34  1  0  0  0
  1 35  1  0  0  0
  2  3  1  0  0  0
  2  8  1  0  0  0
  2  9  1  0  0  0
  3 36  1  0  0  0
  3 37  1  0  0  0
  3 38  1  0  0  0
  4  5  2  0  0  0
  5  6  2  0  0  0
  5 16  1  0  0  0
  5  7  1  0  0  0
  7  8  1  0  0  0
  7 11  1  0  0  0
  8 12  1  0  0  0
  8 39  1  0  0  0
  9 10  1  0  0  0
  9 40  1  0  0  0
  9 41  1  0  0  0
 10 11  1  0  0  0
 10 32  1  0  0  0
 10 42  1  0  0  0
 11 43  1  0  0  0
 11 44  1  0  0  0
 12 13  2  0  0  0
 12 14  1  0  0  0
 14 15  1  0  0  0
 14 45  1  0  0  0
 15 46  1  0  0  0
 16 17  1  0  0  0
 16 21  2  0  0  0
 17 18  2  0  0  0
 17 47  1  0  0  0
 18 19  1  0  0  0
 18 48  1  0  0  0
 19 20  2  0  0  0
 19 22  1  0  0  0
 20 21  1  0  0  0
 20 49  1  0  0  0
 21 50  1  0  0  0
 22 23  1  0  0  0
 23 24  1  0  0  0
 23 51  1  0  0  0
 23 52  1  0  0  0
 24 25  1  0  0  0
 24 29  2  0  0  0
 25 26  2  0  0  0
 25 30  1  0  0  0
 26 27  1  0  0  0
 26 53  1  0  0  0
 27 28  2  0  0  0
 27 54  1  0  0  0
 28 29  1  0  0  0
 28 31  1  0  0  0
 29 55  1  0  0  0
 30 56  1  0  0  0
 30 57  1  0  0  0
 30 58  1  0  0  0
 32 59  1  0  0  0
M  END
> <s_m_entry_id>
64266

> <s_m_entry_name>
dock_pv.216

> <s_m_Source_Path>
/home/csk/Desktop/cluster/DUD-E-result/mmp13

> <s_m_Source_File>
dock_pv.maegz

> <i_m_Source_File_Index>
216

> <chembl_id>
CHEMBL3968787

> <chembl_pref_name>
None

> <i_lp_mmshare_version>
53161

> <i_f3d_flags>
0

> <r_lp_tautomer_probability>
1

> <s_lp_Force_Field>
OPLS_2005

> <r_lp_Energy>
28.725281

> <b_lp_Chiralities_Consistent>
1

> <s_lp_Variant>
CHEMBL280_lig2140-1

> <s_i_glide_gridfile>
glide-grid_830c

> <i_i_glide_lignum>
2985

> <i_i_glide_rotatable_bonds>
9

> <r_i_docking_score>
-7.12251208451291

> <r_i_glide_ligand_efficiency>
-0.222578502641028

> <r_i_glide_ligand_efficiency_sa>
-0.706642697659405

> <r_i_glide_ligand_efficiency_ln>
-1.59492460806909

> <r_i_glide_gscore>
-7.12251208451291

> <r_i_glide_lipo>
-3.35511296697264

> <r_i_glide_hbond>
0

> <r_i_glide_metal>
0

> <r_i_glide_rewards>
-0.0808265771886319

> <r_i_glide_evdw>
-34.9507369995117

> <r_i_glide_ecoul>
-15.5144701004028

> <r_i_glide_erotb>
0.609093758552981

> <r_i_glide_esite>
-0.220958933868613

> <r_i_glide_emodel>
-56.1639783554908

> <r_i_glide_energy>
-50.4652070999146

> <r_i_glide_einternal>
14.0833168029785

> <i_i_glide_confnum>
23

> <i_i_glide_posenum>
164

> <r_i_glide_eff_state_penalty>
0

> <s_user_duplicate_titles>
CHEMBL280_lig2140

> <s_m_subgroup_title>
dock_pv

> <s_m_subgroupid>
dock_pv

> <b_m_subgroup_collapsed>
1

$$$$
CHEMBL280_lig659
                    3D
 Schrodinger Suite 2021-1.
 46 48  0  0  1  0            999 V2000
   -5.5422   28.7711   57.1751 S   0  0  0  0  0  0
   -2.7082   28.7267   56.6425 C   0  0  0  0  0  0
   -4.0037   29.4665   56.6687 N   0  0  1  0  0  0
   -2.7773   27.3833   55.8428 C   0  0  0  0  0  0
   -6.1874   27.9410   55.7320 C   0  0  0  0  0  0
   -5.3080   27.7636   58.2162 O   0  0  0  0  0  0
   -6.4378   29.9046   57.4212 O   0  0  0  0  0  0
   -8.2694   26.5705   51.2804 C   0  0  0  0  0  0
   -9.4576   26.1750   50.7555 N   0  0  0  0  0  0
   -3.1363   27.3744   54.6569 O   0  0  0  0  0  0
   -2.3779   26.2552   56.4560 N   0  0  0  0  0  0
   -7.9770   26.0074   52.5048 O   0  0  0  0  0  0
   -1.7087   29.6449   55.8946 C   0  0  0  0  0  0
   -2.2012   28.5659   58.1106 C   0  0  0  0  0  0
   -0.9302   30.6315   57.9594 O   0  0  0  0  0  0
   -6.7419   28.7123   54.7116 C   0  0  0  0  0  0
   -6.1760   26.5495   55.6369 C   0  0  0  0  0  0
   -7.3336   26.6929   53.5160 C   0  0  0  0  0  0
   -6.7393   25.9332   54.5229 C   0  0  0  0  0  0
   -7.3311   28.0895   53.6182 C   0  0  0  0  0  0
   -2.3390   25.0739   55.7105 O   0  0  0  0  0  0
   -1.8778   29.9301   58.7607 C   0  0  0  0  0  0
   -1.4037   30.9525   56.6549 C   0  0  0  0  0  0
   -9.7969   26.6357   49.5239 C   0  0  0  0  0  0
   -7.3815   27.3948   50.5768 C   0  0  0  0  0  0
   -8.9775   27.4802   48.7749 C   0  0  0  0  0  0
   -7.7491   27.8579   49.3140 C   0  0  0  0  0  0
   -4.0941   30.1896   55.9485 H   0  0  0  0  0  0
   -2.1391   26.1311   57.4325 H   0  0  0  0  0  0
   -2.0998   29.8812   54.9109 H   0  0  0  0  0  0
   -0.7612   29.1314   55.7315 H   0  0  0  0  0  0
   -1.2819   27.9789   58.1357 H   0  0  0  0  0  0
   -2.9151   28.0284   58.7334 H   0  0  0  0  0  0
   -6.7510   29.7910   54.7819 H   0  0  0  0  0  0
   -5.7421   25.9399   56.4183 H   0  0  0  0  0  0
   -6.7393   24.8545   54.4551 H   0  0  0  0  0  0
   -7.8027   28.6970   52.8627 H   0  0  0  0  0  0
   -3.1022   24.5582   56.0367 H   0  0  0  0  0  0
   -2.7785   30.5293   58.9103 H   0  0  0  0  0  0
   -1.4392   29.7787   59.7459 H   0  0  0  0  0  0
   -2.2784   31.6032   56.7128 H   0  0  0  0  0  0
   -0.6313   31.5177   56.1325 H   0  0  0  0  0  0
  -10.7399   26.3021   49.1245 H   0  0  0  0  0  0
   -6.4207   27.6656   50.9905 H   0  0  0  0  0  0
   -9.2776   27.8216   47.7942 H   0  0  0  0  0  0
   -7.0783   28.4961   48.7564 H   0  0  0  0  0  0
  1  3  1  0  0  0
  1  5  1  0  0  0
  1  6  2  0  0  0
  1  7  2  0  0  0
  2  3  1  0  0  0
  2  4  1  0  0  0
  2 13  1  0  0  0
  2 14  1  0  0  0
  3 28  1  0  0  0
  4 10  2  0  0  0
  4 11  1  0  0  0
  5 16  1  0  0  0
  5 17  2  0  0  0
  8 12  1  0  0  0
  8  9  1  0  0  0
  8 25  2  0  0  0
  9 24  2  0  0  0
 11 21  1  0  0  0
 11 29  1  0  0  0
 12 18  1  0  0  0
 13 23  1  0  0  0
 13 30  1  0  0  0
 13 31  1  0  0  0
 14 22  1  0  0  0
 14 32  1  0  0  0
 14 33  1  0  0  0
 15 22  1  0  0  0
 15 23  1  0  0  0
 16 20  2  0  0  0
 16 34  1  0  0  0
 17 19  1  0  0  0
 17 35  1  0  0  0
 18 19  2  0  0  0
 18 20  1  0  0  0
 19 36  1  0  0  0
 20 37  1  0  0  0
 21 38  1  0  0  0
 22 39  1  0  0  0
 22 40  1  0  0  0
 23 41  1  0  0  0
 23 42  1  0  0  0
 24 26  1  0  0  0
 24 43  1  0  0  0
 25 27  1  0  0  0
 25 44  1  0  0  0
 26 27  2  0  0  0
 26 45  1  0  0  0
 27 46  1  0  0  0
M  END
> <s_m_entry_id>
64267

> <s_m_entry_name>
dock_pv.217

> <s_m_Source_Path>
/home/csk/Desktop/cluster/DUD-E-result/mmp13

> <s_m_Source_File>
dock_pv.maegz

> <i_m_Source_File_Index>
217

> <chembl_id>
CHEMBL115666

> <chembl_pref_name>
None

> <i_lp_mmshare_version>
53161

> <i_f3d_flags>
0

> <r_lp_tautomer_probability>
1

> <s_lp_Force_Field>
OPLS_2005

> <r_lp_Energy>
21.1153

> <b_lp_Chiralities_Consistent>
1

> <s_lp_Variant>
CHEMBL280_lig659-1

> <s_i_glide_gridfile>
glide-grid_830c

> <i_i_glide_lignum>
984

> <i_i_glide_rotatable_bonds>
8

> <r_i_docking_score>
-7.09180308073006

> <r_i_glide_ligand_efficiency>
-0.262659373360373

> <r_i_glide_ligand_efficiency_sa>
-0.787978119215436

> <r_i_glide_ligand_efficiency_ln>
-1.65085483968257

> <r_i_glide_gscore>
-7.09180308073006

> <r_i_glide_lipo>
-2.68102037350812

> <r_i_glide_hbond>
-0.106169364959139

> <r_i_glide_metal>
0

> <r_i_glide_rewards>
-0.630929253954874

> <r_i_glide_evdw>
-46.8823623657227

> <r_i_glide_ecoul>
-13.3366765975952

> <r_i_glide_erotb>
0.883487371078295

> <r_i_glide_esite>
-0.212551851460815

> <r_i_glide_emodel>
-76.8673477287973

> <r_i_glide_energy>
-60.2190389633179

> <r_i_glide_einternal>
23.9305820465088

> <i_i_glide_confnum>
114

> <i_i_glide_posenum>
391

> <r_i_glide_eff_state_penalty>
0

> <s_user_duplicate_titles>
CHEMBL280_lig659,188094

> <s_m_subgroup_title>
dock_pv

> <s_m_subgroupid>
dock_pv

> <b_m_subgroup_collapsed>
1

$$$$
CHEMBL280_lig1495
                    3D
 Schrodinger Suite 2021-1.
 46 48  0  0  1  0            999 V2000
   -4.9151   29.7559   56.6170 C   0  0  0  0  0  0
   -5.2949   30.9981   57.1526 C   0  0  0  0  0  0
   -6.5434   31.5556   56.8980 C   0  0  0  0  0  0
   -7.4415   30.8864   56.0797 C   0  0  0  0  0  0
   -7.0903   29.6588   55.5282 C   0  0  0  0  0  0
   -5.8426   29.0698   55.7824 C   0  0  0  0  0  0
   -5.5640   27.4378   55.0416 S   0  0  0  0  0  0
   -6.5846   27.3177   53.5774 C   0  0  0  0  0  0
   -4.1787   27.3672   54.5475 O   0  0  0  0  0  0
   -6.0857   26.4613   56.0024 O   0  0  0  0  0  0
   -6.0861   27.8921   52.4227 C   0  0  0  0  0  0
   -6.7845   27.7723   51.2388 C   0  0  0  0  0  0
   -8.0268   27.1533   51.1709 C   0  0  0  0  0  0
   -8.5249   26.5686   52.3457 C   0  0  0  0  0  0
   -7.8068   26.6394   53.5465 C   0  0  0  0  0  0
   -3.4654   29.3183   56.9373 C   0  0  1  0  0  0
   -3.3037   27.8407   57.3625 C   0  0  0  0  0  0
   -2.3157   27.1313   56.7755 N   0  0  0  0  0  0
   -4.0833   27.3711   58.1927 O   0  0  0  0  0  0
   -2.3389   25.7429   56.9650 O   0  0  0  0  0  0
   -8.7670   27.1641   49.8664 C   0  0  0  0  0  0
   -9.6931   26.1694   49.5463 C   0  0  0  0  0  0
  -10.3392   26.1704   48.3121 C   0  0  0  0  0  0
  -10.0926   27.1793   47.3891 C   0  0  0  0  0  0
   -9.1881   28.1877   47.6886 C   0  0  0  0  0  0
   -8.5345   28.1741   48.9153 C   0  0  0  0  0  0
   -2.4799   29.8309   55.8541 C   0  0  0  0  0  0
   -4.6109   31.5513   57.7802 H   0  0  0  0  0  0
   -6.8110   32.5066   57.3346 H   0  0  0  0  0  0
   -8.4151   31.3114   55.8825 H   0  0  0  0  0  0
   -7.8202   29.1595   54.9107 H   0  0  0  0  0  0
   -5.1378   28.4040   52.4205 H   0  0  0  0  0  0
   -6.3439   28.1741   50.3485 H   0  0  0  0  0  0
   -9.4778   26.0636   52.3358 H   0  0  0  0  0  0
   -8.1951   26.1737   54.4415 H   0  0  0  0  0  0
   -3.1760   29.8356   57.8540 H   0  0  0  0  0  0
   -1.3712   27.4701   56.8958 H   0  0  0  0  0  0
   -3.0721   25.6092   57.5868 H   0  0  0  0  0  0
   -9.8970   25.3700   50.2396 H   0  0  0  0  0  0
  -11.0245   25.3782   48.0621 H   0  0  0  0  0  0
  -10.5985   27.1757   46.4349 H   0  0  0  0  0  0
   -8.9868   28.9724   46.9734 H   0  0  0  0  0  0
   -7.8355   28.9701   49.1108 H   0  0  0  0  0  0
   -2.6550   29.3659   54.8853 H   0  0  0  0  0  0
   -2.5884   30.9066   55.7109 H   0  0  0  0  0  0
   -1.4400   29.6556   56.1284 H   0  0  0  0  0  0
  1  2  2  0  0  0
  1 16  1  0  0  0
  1  6  1  0  0  0
  2  3  1  0  0  0
  2 28  1  0  0  0
  3  4  2  0  0  0
  3 29  1  0  0  0
  4  5  1  0  0  0
  4 30  1  0  0  0
  5  6  2  0  0  0
  5 31  1  0  0  0
  6  7  1  0  0  0
  7  8  1  0  0  0
  7  9  2  0  0  0
  7 10  2  0  0  0
  8 15  1  0  0  0
  8 11  2  0  0  0
 11 12  1  0  0  0
 11 32  1  0  0  0
 12 13  2  0  0  0
 12 33  1  0  0  0
 13 14  1  0  0  0
 13 21  1  0  0  0
 14 15  2  0  0  0
 14 34  1  0  0  0
 15 35  1  0  0  0
 16 17  1  0  0  0
 16 27  1  0  0  0
 16 36  1  0  0  0
 17 18  1  0  0  0
 17 19  2  0  0  0
 18 20  1  0  0  0
 18 37  1  0  0  0
 20 38  1  0  0  0
 21 22  2  0  0  0
 21 26  1  0  0  0
 22 23  1  0  0  0
 22 39  1  0  0  0
 23 24  2  0  0  0
 23 40  1  0  0  0
 24 25  1  0  0  0
 24 41  1  0  0  0
 25 26  2  0  0  0
 25 42  1  0  0  0
 26 43  1  0  0  0
 27 44  1  0  0  0
 27 45  1  0  0  0
 27 46  1  0  0  0
M  END
> <s_m_entry_id>
64268

> <s_m_entry_name>
dock_pv.218

> <s_m_Source_Path>
/home/csk/Desktop/cluster/DUD-E-result/mmp13

> <s_m_Source_File>
dock_pv.maegz

> <i_m_Source_File_Index>
218

> <chembl_id>
CHEMBL574605

> <chembl_pref_name>
None

> <i_lp_mmshare_version>
53161

> <i_f3d_flags>
0

> <r_lp_tautomer_probability>
1

> <s_lp_Force_Field>
OPLS_2005

> <r_lp_Energy>
30.086172

> <b_lp_Chiralities_Consistent>
1

> <s_lp_Variant>
CHEMBL280_lig1495-2

> <s_i_glide_gridfile>
glide-grid_830c

> <i_i_glide_lignum>
2226

> <i_i_glide_rotatable_bonds>
7

> <r_i_docking_score>
-7.09079529636787

> <r_i_glide_ligand_efficiency>
-0.262622048013625

> <r_i_glide_ligand_efficiency_sa>
-0.787866143175315

> <r_i_glide_ligand_efficiency_ln>
-1.65062024409768

> <r_i_glide_gscore>
-7.09079529636787

> <r_i_glide_lipo>
-3.7144511706438

> <r_i_glide_hbond>
0

> <r_i_glide_metal>
0

> <r_i_glide_rewards>
-0.85301704567303

> <r_i_glide_evdw>
-46.5214309692383

> <r_i_glide_ecoul>
-5.43480587005615

> <r_i_glide_erotb>
0.800455093630853

> <r_i_glide_esite>
-0.182489744711556

> <r_i_glide_emodel>
-68.6293344483216

> <r_i_glide_energy>
-51.9562368392944

> <r_i_glide_einternal>
14.4205093383789

> <i_i_glide_confnum>
2

> <i_i_glide_posenum>
10

> <r_i_glide_eff_state_penalty>
0

> <s_user_duplicate_titles>
CHEMBL280_lig1495,570851

> <s_m_subgroup_title>
dock_pv

> <s_m_subgroupid>
dock_pv

> <b_m_subgroup_collapsed>
1

$$$$
CHEMBL280_lig611
                    3D
 Schrodinger Suite 2021-1.
 42 43  0  0  1  0            999 V2000
   -4.3100   27.3881   55.7065 S   0  0  0  0  0  0
   -4.8112   29.9191   57.1278 C   0  0  0  0  0  0
   -4.1381   29.1202   56.0491 N   0  0  3  0  0  0
   -6.2825   30.2991   56.7495 C   0  0  0  0  0  0
   -5.7099   27.1827   54.6172 C   0  0  0  0  0  0
   -3.1391   26.9700   54.9100 O   0  0  0  0  0  0
   -4.6305   26.6886   56.9510 O   0  0  0  0  0  0
   -6.7390   30.0803   55.6249 O   0  0  0  0  0  0
   -7.0003   30.9239   57.7100 N   0  0  0  0  0  0
   -8.5576   26.2454   51.7094 O   0  0  0  0  0  0
   -5.9619   28.0799   53.5929 C   0  0  0  0  0  0
   -6.4930   26.0505   54.7166 C   0  0  0  0  0  0
   -7.6270   26.6435   52.6476 C   0  0  0  0  0  0
   -8.7097   26.7961   50.4526 C   0  0  0  0  0  0
   -9.2106   27.7701   47.8849 C   0  0  0  0  0  0
   -4.7389   29.1792   58.4835 C   0  0  0  0  0  0
   -3.9747   31.2156   57.2507 C   0  0  0  0  0  0
   -7.4093   25.7821   53.7099 C   0  0  0  0  0  0
   -6.9283   27.8422   52.6307 C   0  0  0  0  0  0
   -9.4594   28.2402   46.6426 F   0  0  0  0  0  0
   -8.2980   31.3700   57.4083 O   0  0  0  0  0  0
   -9.9669   26.6536   49.8785 C   0  0  0  0  0  0
   -7.6886   27.4007   49.7100 C   0  0  0  0  0  0
   -7.9482   27.9266   48.4470 C   0  0  0  0  0  0
  -10.2150   27.1141   48.5888 C   0  0  0  0  0  0
   -3.7453   29.6836   55.2878 H   0  0  0  0  0  0
   -6.7389   31.0959   58.6741 H   0  0  0  0  0  0
   -5.4168   28.9700   53.5513 H   0  0  0  0  0  0
   -6.3390   25.3696   55.5341 H   0  0  0  0  0  0
   -4.9527   29.8547   59.3100 H   0  0  0  0  0  0
   -5.4622   28.3666   58.5477 H   0  0  0  0  0  0
   -3.7482   28.7583   58.6608 H   0  0  0  0  0  0
   -4.3508   31.8796   58.0308 H   0  0  0  0  0  0
   -2.9340   30.9975   57.4968 H   0  0  0  0  0  0
   -3.9702   31.7845   56.3183 H   0  0  0  0  0  0
   -7.9390   24.8772   53.7099 H   0  0  0  0  0  0
   -7.0980   28.5700   51.8633 H   0  0  0  0  0  0
   -8.8668   30.7595   57.8868 H   0  0  0  0  0  0
  -10.7390   26.1700   50.4518 H   0  0  0  0  0  0
   -6.6870   27.4659   50.0939 H   0  0  0  0  0  0
   -7.1637   28.4194   47.8903 H   0  0  0  0  0  0
  -11.1794   26.9700   48.1311 H   0  0  0  0  0  0
  1  3  1  0  0  0
  1  5  1  0  0  0
  1  6  2  0  0  0
  1  7  2  0  0  0
  2  3  1  0  0  0
  2  4  1  0  0  0
  2 16  1  0  0  0
  2 17  1  0  0  0
  3 26  1  0  0  0
  4  8  2  0  0  0
  4  9  1  0  0  0
  5 11  1  0  0  0
  5 12  2  0  0  0
  9 21  1  0  0  0
  9 27  1  0  0  0
 10 13  1  0  0  0
 10 14  1  0  0  0
 11 19  2  0  0  0
 11 28  1  0  0  0
 12 18  1  0  0  0
 12 29  1  0  0  0
 13 18  2  0  0  0
 13 19  1  0  0  0
 14 22  1  0  0  0
 14 23  2  0  0  0
 15 24  2  0  0  0
 15 20  1  0  0  0
 15 25  1  0  0  0
 16 30  1  0  0  0
 16 31  1  0  0  0
 16 32  1  0  0  0
 17 33  1  0  0  0
 17 34  1  0  0  0
 17 35  1  0  0  0
 18 36  1  0  0  0
 19 37  1  0  0  0
 21 38  1  0  0  0
 22 25  2  0  0  0
 22 39  1  0  0  0
 23 24  1  0  0  0
 23 40  1  0  0  0
 24 41  1  0  0  0
 25 42  1  0  0  0
M  END
> <s_m_entry_id>
64269

> <s_m_entry_name>
dock_pv.219

> <s_m_Source_Path>
/home/csk/Desktop/cluster/DUD-E-result/mmp13

> <s_m_Source_File>
dock_pv.maegz

> <i_m_Source_File_Index>
219

> <chembl_id>
CHEMBL323612

> <chembl_pref_name>
None

> <i_lp_mmshare_version>
53161

> <i_f3d_flags>
0

> <r_lp_tautomer_probability>
1

> <s_lp_Force_Field>
OPLS_2005

> <r_lp_Energy>
21.931173

> <b_lp_Chiralities_Consistent>
1

> <s_lp_Variant>
CHEMBL280_lig611-1

> <s_i_glide_gridfile>
glide-grid_830c

> <i_i_glide_lignum>
884

> <i_i_glide_rotatable_bonds>
8

> <r_i_docking_score>
-7.09007467608646

> <r_i_glide_ligand_efficiency>
-0.283602987043458

> <r_i_glide_ligand_efficiency_sa>
-0.829260163835464

> <r_i_glide_ligand_efficiency_ln>
-1.68056017062506

> <r_i_glide_gscore>
-7.09007467608646

> <r_i_glide_lipo>
-3.26631450122451

> <r_i_glide_hbond>
-0.474111011704656

> <r_i_glide_metal>
0

> <r_i_glide_rewards>
-0.580079053025851

> <r_i_glide_evdw>
-38.1859359741211

> <r_i_glide_ecoul>
-10.611289024353

> <r_i_glide_erotb>
0.993957163897962

> <r_i_glide_esite>
-0.262537121670389

> <r_i_glide_emodel>
-57.1537773623659

> <r_i_glide_energy>
-48.7972249984741

> <r_i_glide_einternal>
15.1242113113403

> <i_i_glide_confnum>
123

> <i_i_glide_posenum>
305

> <r_i_glide_eff_state_penalty>
0

> <s_user_duplicate_titles>
CHEMBL280_lig611

> <s_m_subgroup_title>
dock_pv

> <s_m_subgroupid>
dock_pv

> <b_m_subgroup_collapsed>
1

$$$$
CHEMBL280_lig2421
                    3D
 Schrodinger Suite 2021-1.
 64 67  0  0  1  0            999 V2000
   -5.1086   28.1190   56.6041 C   0  0  0  0  0  0
   -4.6013   26.8941   57.4052 C   0  0  0  0  0  0
   -3.4213   26.1868   56.6976 C   0  0  0  0  0  0
   -2.3178   27.1455   56.5855 N   0  0  2  0  0  0
   -2.6408   28.3817   55.8622 C   0  0  0  0  0  0
   -3.8594   29.0458   56.5470 C   0  0  0  0  0  0
   -7.6792   32.3107   57.2678 O   0  0  0  0  0  0
   -7.1438   31.0912   57.7100 N   0  0  0  0  0  0
   -6.7974   30.1700   56.7936 C   0  0  0  0  0  0
   -6.2808   28.8291   57.3574 C   0  0  0  0  0  0
   -6.9162   30.3371   55.5778 O   0  0  0  0  0  0
   -5.5594   27.7602   55.2501 N   0  0  0  0  0  0
   -6.5583   26.9285   54.8710 C   0  0  0  0  0  0
   -6.9897   27.0514   53.4255 C   0  0  0  0  0  0
   -7.1379   26.1700   55.6467 O   0  0  0  0  0  0
   -6.3436   27.9501   52.5820 C   0  0  0  0  0  0
   -6.8163   28.1699   51.3108 C   0  0  0  0  0  0
   -7.9293   27.5131   50.7890 C   0  0  0  0  0  0
   -8.5538   26.5706   51.6118 C   0  0  0  0  0  0
   -8.0883   26.3403   52.9161 C   0  0  0  0  0  0
   -8.4807   27.8257   49.5486 O   0  0  0  0  0  0
   -7.6716   28.5016   48.5567 C   0  0  0  0  0  0
   -8.4543   29.2774   47.5043 C   0  0  0  0  0  0
   -9.5394   30.6734   45.3093 N   0  0  0  0  0  0
   -8.7439   31.2905   46.2157 C   0  0  0  0  0  0
   -8.1726   30.6323   47.2993 C   0  0  0  0  0  0
   -9.8796   29.3730   45.5202 C   0  0  0  0  0  0
   -9.3795   28.6250   46.6340 C   0  0  0  0  0  0
   -9.8428   27.2973   46.8160 C   0  0  0  0  0  0
  -10.7730   26.7532   45.9403 C   0  0  0  0  0  0
  -11.2354   27.4734   44.8457 C   0  0  0  0  0  0
  -10.7948   28.7731   44.6236 C   0  0  0  0  0  0
   -8.6818   32.7990   46.0751 C   0  0  0  0  0  0
   -1.0056   26.5679   56.3437 C   0  0  0  0  0  0
   -5.4102   26.1732   57.5240 H   0  0  0  0  0  0
   -4.3115   27.1550   58.4244 H   0  0  0  0  0  0
   -3.6856   25.7725   55.7245 H   0  0  0  0  0  0
   -3.0909   25.3508   57.3098 H   0  0  0  0  0  0
   -2.7961   28.1867   54.8002 H   0  0  0  0  0  0
   -1.7931   29.0650   55.9379 H   0  0  0  0  0  0
   -3.5682   29.3939   57.5399 H   0  0  0  0  0  0
   -4.1008   29.9558   55.9980 H   0  0  0  0  0  0
   -8.6167   32.2345   57.4666 H   0  0  0  0  0  0
   -7.1391   30.9963   58.7210 H   0  0  0  0  0  0
   -7.1390   28.1646   57.3782 H   0  0  0  0  0  0
   -5.9954   28.9741   58.4006 H   0  0  0  0  0  0
   -5.1881   28.3602   54.5318 H   0  0  0  0  0  0
   -5.5107   28.5576   52.8998 H   0  0  0  0  0  0
   -6.3390   28.9735   50.8061 H   0  0  0  0  0  0
   -9.4220   26.0399   51.2500 H   0  0  0  0  0  0
   -8.6113   25.6390   53.5470 H   0  0  0  0  0  0
   -6.9090   29.1748   48.9284 H   0  0  0  0  0  0
   -7.1284   27.7696   47.9846 H   0  0  0  0  0  0
   -7.5345   31.1719   47.9832 H   0  0  0  0  0  0
   -9.5015   26.7091   47.6532 H   0  0  0  0  0  0
  -11.1347   25.7542   46.1109 H   0  0  0  0  0  0
  -11.9477   27.0259   44.1681 H   0  0  0  0  0  0
  -11.1669   29.3401   43.7821 H   0  0  0  0  0  0
   -7.7714   33.2110   46.5109 H   0  0  0  0  0  0
   -8.7391   33.0909   45.0277 H   0  0  0  0  0  0
   -9.5393   33.2855   46.5161 H   0  0  0  0  0  0
   -0.8977   26.1654   55.3393 H   0  0  0  0  0  0
   -0.2330   27.3187   56.5113 H   0  0  0  0  0  0
   -0.8114   25.7695   57.0587 H   0  0  0  0  0  0
  1 10  1  0  0  0
  1 12  1  0  0  0
  1  2  1  0  0  0
  1  6  1  0  0  0
  2  3  1  0  0  0
  2 35  1  0  0  0
  2 36  1  0  0  0
  3  4  1  0  0  0
  3 37  1  0  0  0
  3 38  1  0  0  0
  4  5  1  0  0  0
  4 34  1  0  0  0
  5  6  1  0  0  0
  5 39  1  0  0  0
  5 40  1  0  0  0
  6 41  1  0  0  0
  6 42  1  0  0  0
  7  8  1  0  0  0
  7 43  1  0  0  0
  8  9  1  0  0  0
  8 44  1  0  0  0
  9 10  1  0  0  0
  9 11  2  0  0  0
 10 45  1  0  0  0
 10 46  1  0  0  0
 12 13  1  0  0  0
 12 47  1  0  0  0
 13 14  1  0  0  0
 13 15  2  0  0  0
 14 20  1  0  0  0
 14 16  2  0  0  0
 16 17  1  0  0  0
 16 48  1  0  0  0
 17 18  2  0  0  0
 17 49  1  0  0  0
 18 19  1  0  0  0
 18 21  1  0  0  0
 19 20  2  0  0  0
 19 50  1  0  0  0
 20 51  1  0  0  0
 21 22  1  0  0  0
 22 23  1  0  0  0
 22 52  1  0  0  0
 22 53  1  0  0  0
 23 26  1  0  0  0
 23 28  2  0  0  0
 24 27  2  0  0  0
 24 25  1  0  0  0
 25 26  2  0  0  0
 25 33  1  0  0  0
 26 54  1  0  0  0
 27 28  1  0  0  0
 27 32  1  0  0  0
 28 29  1  0  0  0
 29 30  2  0  0  0
 29 55  1  0  0  0
 30 31  1  0  0  0
 30 56  1  0  0  0
 31 32  2  0  0  0
 31 57  1  0  0  0
 32 58  1  0  0  0
 33 59  1  0  0  0
 33 60  1  0  0  0
 33 61  1  0  0  0
 34 62  1  0  0  0
 34 63  1  0  0  0
 34 64  1  0  0  0
M  END
> <s_m_entry_id>
64270

> <s_m_entry_name>
dock_pv.220

> <s_m_Source_Path>
/home/csk/Desktop/cluster/DUD-E-result/mmp13

> <s_m_Source_File>
dock_pv.maegz

> <i_m_Source_File_Index>
220

> <chembl_id>
CHEMBL380895

> <chembl_pref_name>
None

> <i_lp_mmshare_version>
53161

> <i_f3d_flags>
0

> <r_lp_tautomer_probability>
1

> <s_lp_Force_Field>
OPLS_2005

> <r_lp_Energy>
43.640418

> <b_lp_Chiralities_Consistent>
1

> <s_lp_Variant>
CHEMBL280_lig2421-1

> <s_i_glide_gridfile>
glide-grid_830c

> <i_i_glide_lignum>
3488

> <i_i_glide_rotatable_bonds>
10

> <r_i_docking_score>
-7.08596937122982

> <r_i_glide_ligand_efficiency>
-0.208410863859701

> <r_i_glide_ligand_efficiency_sa>
-0.67517029328069

> <r_i_glide_ligand_efficiency_ln>
-1.56548938881326

> <r_i_glide_gscore>
-7.08596937122982

> <r_i_glide_lipo>
-3.82204797804248

> <r_i_glide_hbond>
-0.32

> <r_i_glide_metal>
0

> <r_i_glide_rewards>
-0.221290916645763

> <r_i_glide_evdw>
-51.2494888305664

> <r_i_glide_ecoul>
-6.60921096801758

> <r_i_glide_erotb>
0.847431337939331

> <r_i_glide_esite>
-0.0162057277499453

> <r_i_glide_emodel>
-70.5293197668114

> <r_i_glide_energy>
-57.858699798584

> <r_i_glide_einternal>
8.09433650970459

> <i_i_glide_confnum>
58

> <i_i_glide_posenum>
400

> <r_i_glide_eff_state_penalty>
0

> <s_user_duplicate_titles>
CHEMBL280_lig2421

> <s_m_subgroup_title>
dock_pv

> <s_m_subgroupid>
dock_pv

> <b_m_subgroup_collapsed>
1

$$$$
CHEMBL280_lig1891
                    3D
 Schrodinger Suite 2021-1.
 32 34  0  0  1  0            999 V2000
   -6.3397   25.3698   54.2915 O   0  0  0  0  0  0
   -6.4318   26.6897   54.6025 C   0  0  0  0  0  0
   -6.9143   27.6310   53.7593 C   0  0  0  0  0  0
   -7.0977   28.9310   54.1097 O   0  0  0  0  0  0
   -6.7349   29.3272   55.3828 C   0  0  0  0  0  0
   -6.9930   30.6523   55.7111 C   0  0  0  0  0  0
   -6.6342   31.1298   56.9636 C   0  0  0  0  0  0
   -6.8994   32.4240   57.2970 O   0  0  0  0  0  0
   -6.0095   30.2915   57.8775 C   0  0  0  0  0  0
   -5.7729   28.9576   57.5639 C   0  0  0  0  0  0
   -5.1746   28.1656   58.5094 O   0  0  0  0  0  0
   -6.1493   28.4491   56.3132 C   0  0  0  0  0  0
   -5.9872   27.0060   55.9581 C   0  0  0  0  0  0
   -5.5495   26.1749   56.7594 O   0  0  0  0  0  0
   -7.5182   27.3489   52.4378 C   0  0  0  0  0  0
   -8.5110   26.3775   52.3429 C   0  0  0  0  0  0
   -9.1933   26.1633   51.1481 C   0  0  0  0  0  0
   -8.8378   26.8628   50.0018 C   0  0  0  0  0  0
   -9.5396   26.6568   48.8443 O   0  0  0  0  0  0
   -7.7771   27.7700   50.0508 C   0  0  0  0  0  0
   -7.3834   28.4283   48.9111 O   0  0  0  0  0  0
   -7.1385   28.0220   51.2721 C   0  0  0  0  0  0
   -5.8852   24.8715   54.9952 H   0  0  0  0  0  0
   -7.4668   31.3086   55.0026 H   0  0  0  0  0  0
   -6.6622   32.5969   58.2098 H   0  0  0  0  0  0
   -5.7252   30.6613   58.8515 H   0  0  0  0  0  0
   -5.0436   27.2754   58.1539 H   0  0  0  0  0  0
   -8.7558   25.8003   53.2197 H   0  0  0  0  0  0
   -9.9863   25.4306   51.1076 H   0  0  0  0  0  0
   -9.1631   27.1806   48.1315 H   0  0  0  0  0  0
   -6.6016   28.9725   49.0606 H   0  0  0  0  0  0
   -6.3427   28.7524   51.3149 H   0  0  0  0  0  0
  1  2  1  0  0  0
  1 23  1  0  0  0
  2  3  2  0  0  0
  2 13  1  0  0  0
  3  4  1  0  0  0
  3 15  1  0  0  0
  4  5  1  0  0  0
  5  6  2  0  0  0
  5 12  1  0  0  0
  6  7  1  0  0  0
  6 24  1  0  0  0
  7  8  1  0  0  0
  7  9  2  0  0  0
  8 25  1  0  0  0
  9 10  1  0  0  0
  9 26  1  0  0  0
 10 11  1  0  0  0
 10 12  2  0  0  0
 11 27  1  0  0  0
 12 13  1  0  0  0
 13 14  2  0  0  0
 15 16  2  0  0  0
 15 22  1  0  0  0
 16 17  1  0  0  0
 16 28  1  0  0  0
 17 18  2  0  0  0
 17 29  1  0  0  0
 18 19  1  0  0  0
 18 20  1  0  0  0
 19 30  1  0  0  0
 20 21  1  0  0  0
 20 22  2  0  0  0
 21 31  1  0  0  0
 22 32  1  0  0  0
M  END
> <s_m_entry_id>
64271

> <s_m_entry_name>
dock_pv.221

> <s_m_Source_Path>
/home/csk/Desktop/cluster/DUD-E-result/mmp13

> <s_m_Source_File>
dock_pv.maegz

> <i_m_Source_File_Index>
221

> <chembl_id>
CHEMBL50

> <chembl_pref_name>
QUERCETIN

> <i_lp_mmshare_version>
53161

> <i_f3d_flags>
0

> <r_lp_tautomer_probability>
0.999999999999776

> <s_lp_Force_Field>
OPLS_2005

> <r_lp_Energy>
20.019118

> <b_lp_Chiralities_Consistent>
1

> <s_lp_Variant>
CHEMBL280_lig1891-1

> <s_i_glide_gridfile>
glide-grid_830c

> <i_i_glide_lignum>
2654

> <i_i_glide_rotatable_bonds>
6

> <r_i_docking_score>
-7.08563205472862

> <r_i_glide_ligand_efficiency>
-0.322074184305846

> <r_i_glide_ligand_efficiency_sa>
-0.902464530883881

> <r_i_glide_ligand_efficiency_ln>
-1.73198692888461

> <r_i_glide_gscore>
-7.08563205472862

> <r_i_glide_lipo>
-3.02939341080037

> <r_i_glide_hbond>
0

> <r_i_glide_metal>
0

> <r_i_glide_rewards>
-1.34839295454545

> <r_i_glide_evdw>
-38.3935279846191

> <r_i_glide_ecoul>
-6.59799528121948

> <r_i_glide_erotb>
0.20153000203109

> <r_i_glide_esite>
0

> <r_i_glide_emodel>
-63.9653003836862

> <r_i_glide_energy>
-44.9915232658386

> <r_i_glide_einternal>
4.43226671218872

> <i_i_glide_confnum>
4

> <i_i_glide_posenum>
46

> <r_i_glide_eff_state_penalty>
0

> <s_user_duplicate_titles>
CHEMBL280_lig1891

> <s_m_subgroup_title>
dock_pv

> <s_m_subgroupid>
dock_pv

> <b_m_subgroup_collapsed>
1

$$$$
CHEMBL280_lig443
                    3D
 Schrodinger Suite 2021-1.
 47 48  0  0  1  0            999 V2000
   -4.9083   28.7635   57.5021 S   0  0  0  0  0  0
   -2.2231   27.5069   57.6374 C   0  0  2  0  0  0
   -3.6485   27.5487   58.2689 C   0  0  0  0  0  0
   -2.3418   27.1220   56.1303 C   0  0  0  0  0  0
   -5.7661   27.9561   56.1393 C   0  0  0  0  0  0
   -0.0486   25.7699   60.1000 C   0  0  0  0  0  0
    0.9184   25.0948   60.4188 C   0  0  0  0  0  0
   -5.9403   28.9696   58.5103 O   0  0  0  0  0  0
   -4.2013   29.9184   56.9393 O   0  0  0  0  0  0
   -2.1787   25.9644   55.7100 O   0  0  0  0  0  0
   -1.4857   26.4237   58.3140 N   0  0  1  0  0  0
   -2.7380   28.1172   55.3253 N   0  0  0  0  0  0
   -5.9253   26.5700   56.0874 C   0  0  0  0  0  0
   -6.3392   28.7561   55.1457 C   0  0  0  0  0  0
   -7.9312   26.1134   53.0735 O   0  0  0  0  0  0
   -7.1976   26.7823   54.0347 C   0  0  0  0  0  0
   -1.4297   28.8384   57.8270 C   0  0  0  0  0  0
   -7.0596   28.1746   54.1024 C   0  0  0  0  0  0
   -6.6316   25.9974   55.0353 C   0  0  0  0  0  0
   -8.1638   26.5849   51.7976 C   0  0  0  0  0  0
   -1.2299   26.5711   59.7491 C   0  0  0  0  0  0
   -3.2807   27.7700   54.1053 O   0  0  0  0  0  0
   -9.3400   26.1700   51.1721 C   0  0  0  0  0  0
   -7.2507   27.3707   51.0856 C   0  0  0  0  0  0
   -7.5390   27.7700   49.7832 C   0  0  0  0  0  0
   -9.6322   26.5704   49.8714 C   0  0  0  0  0  0
   -8.7303   27.3750   49.1830 C   0  0  0  0  0  0
   -4.1150   26.5703   58.2787 H   0  0  0  0  0  0
   -3.5807   27.8521   59.3100 H   0  0  0  0  0  0
    1.7651   24.5057   60.6938 H   0  0  0  0  0  0
   -2.0225   25.5745   58.1792 H   0  0  0  0  0  0
   -2.9769   29.0652   55.6083 H   0  0  0  0  0  0
   -5.5192   25.9113   56.8397 H   0  0  0  0  0  0
   -6.2414   29.8321   55.1907 H   0  0  0  0  0  0
   -1.7503   29.6434   57.1679 H   0  0  0  0  0  0
   -1.5327   29.2394   58.8347 H   0  0  0  0  0  0
   -0.3640   28.6963   57.6394 H   0  0  0  0  0  0
   -7.5204   28.8093   53.3605 H   0  0  0  0  0  0
   -6.7382   24.9230   54.9983 H   0  0  0  0  0  0
   -2.0795   26.2191   60.3364 H   0  0  0  0  0  0
   -1.0054   27.5914   60.0540 H   0  0  0  0  0  0
   -4.2269   27.9239   54.2260 H   0  0  0  0  0  0
  -10.0342   25.5353   51.7024 H   0  0  0  0  0  0
   -6.3092   27.6635   51.5250 H   0  0  0  0  0  0
   -6.8336   28.3796   49.2361 H   0  0  0  0  0  0
  -10.5482   26.2550   49.3955 H   0  0  0  0  0  0
   -8.9463   27.6842   48.1707 H   0  0  0  0  0  0
  1  3  1  0  0  0
  1  5  1  0  0  0
  1  8  2  0  0  0
  1  9  2  0  0  0
  2  3  1  0  0  0
  2  4  1  0  0  0
  2 11  1  0  0  0
  2 17  1  0  0  0
  3 28  1  0  0  0
  3 29  1  0  0  0
  4 10  2  0  0  0
  4 12  1  0  0  0
  5 13  1  0  0  0
  5 14  2  0  0  0
  6 21  1  0  0  0
  6  7  3  0  0  0
  7 30  1  0  0  0
 11 21  1  0  0  0
 11 31  1  0  0  0
 12 22  1  0  0  0
 12 32  1  0  0  0
 13 19  2  0  0  0
 13 33  1  0  0  0
 14 18  1  0  0  0
 14 34  1  0  0  0
 15 16  1  0  0  0
 15 20  1  0  0  0
 16 18  2  0  0  0
 16 19  1  0  0  0
 17 35  1  0  0  0
 17 36  1  0  0  0
 17 37  1  0  0  0
 18 38  1  0  0  0
 19 39  1  0  0  0
 20 23  2  0  0  0
 20 24  1  0  0  0
 21 40  1  0  0  0
 21 41  1  0  0  0
 22 42  1  0  0  0
 23 26  1  0  0  0
 23 43  1  0  0  0
 24 25  2  0  0  0
 24 44  1  0  0  0
 25 27  1  0  0  0
 25 45  1  0  0  0
 26 27  2  0  0  0
 26 46  1  0  0  0
 27 47  1  0  0  0
M  END
> <s_m_entry_id>
64272

> <s_m_entry_name>
dock_pv.222

> <s_m_Source_Path>
/home/csk/Desktop/cluster/DUD-E-result/mmp13

> <s_m_Source_File>
dock_pv.maegz

> <i_m_Source_File_Index>
222

> <chembl_id>
CHEMBL94248

> <chembl_pref_name>
None

> <i_lp_mmshare_version>
53161

> <i_f3d_flags>
0

> <r_lp_tautomer_probability>
1

> <s_lp_Force_Field>
OPLS_2005

> <r_lp_Energy>
35.929579

> <b_lp_Chiralities_Consistent>
1

> <s_lp_Variant>
CHEMBL280_lig443-2

> <s_i_glide_gridfile>
glide-grid_830c

> <i_i_glide_lignum>
628

> <i_i_glide_rotatable_bonds>
11

> <r_i_docking_score>
-7.07843976694774

> <r_i_glide_ligand_efficiency>
-0.262164435812879

> <r_i_glide_ligand_efficiency_sa>
-0.786493306574587

> <r_i_glide_ligand_efficiency_ln>
-1.6477440805455

> <r_i_glide_gscore>
-7.07843976694774

> <r_i_glide_lipo>
-3.1535660244849

> <r_i_glide_hbond>
0

> <r_i_glide_metal>
0

> <r_i_glide_rewards>
-0.782837585251043

> <r_i_glide_evdw>
-49.044189453125

> <r_i_glide_ecoul>
-11.5992975234985

> <r_i_glide_erotb>
1.29132014776795

> <r_i_glide_esite>
-0.241252203798726

> <r_i_glide_emodel>
-82.9390275771246

> <r_i_glide_energy>
-60.6434869766235

> <r_i_glide_einternal>
16.9278583526611

> <i_i_glide_confnum>
188

> <i_i_glide_posenum>
267

> <r_i_glide_eff_state_penalty>
0

> <s_user_duplicate_titles>
CHEMBL280_lig443

> <s_m_subgroup_title>
dock_pv

> <s_m_subgroupid>
dock_pv

> <b_m_subgroup_collapsed>
1

$$$$
CHEMBL280_lig193
                    3D
 Schrodinger Suite 2021-1.
 61 64  0  0  1  0            999 V2000
   -5.5144   27.9046   56.6648 S   0  0  0  0  0  0
   -3.7565   27.7934   56.3879 N   0  0  2  0  0  0
   -2.8851   27.5988   57.5790 C   0  0  2  0  0  0
   -1.5277   29.5432   56.9240 N   0  0  0  0  0  0
   -2.2857   28.9682   58.0576 C   0  0  1  0  0  0
   -1.7589   26.5659   57.2703 C   0  0  0  0  0  0
   -3.1265   28.5833   55.2885 C   0  0  0  0  0  0
   -0.1877   29.7809   56.9364 C   0  0  0  0  0  0
   -2.3394   29.8425   55.7266 C   0  0  0  0  0  0
   -6.2488   27.4742   55.0973 C   0  0  0  0  0  0
   -5.8957   26.8783   57.6402 O   0  0  0  0  0  0
   -5.8471   29.3094   56.9197 O   0  0  0  0  0  0
   -8.6372   28.2312   47.9459 C   0  0  0  0  0  0
  -10.4182   26.8640   46.9947 N   0  0  0  0  0  0
   -1.5494   26.1619   56.1134 O   0  0  0  0  0  0
    0.4305   30.1707   55.9460 O   0  0  0  0  0  0
   -8.6087   27.3690   49.0982 C   0  0  0  0  0  0
   -1.0167   26.1965   58.3304 N   0  0  0  0  0  0
   -9.5816   27.9275   46.9130 C   0  0  0  0  0  0
   -7.6272   27.6125   50.2320 C   0  0  0  0  0  0
   -6.6685   26.1793   54.7848 C   0  0  0  0  0  0
   -6.3393   28.4855   54.1524 C   0  0  0  0  0  0
   -7.6842   26.6091   51.2643 O   0  0  0  0  0  0
   -7.2069   26.9224   52.5273 C   0  0  0  0  0  0
   -3.3089   29.9617   58.6516 C   0  0  0  0  0  0
  -10.3599   26.1006   48.1067 C   0  0  0  0  0  0
   -7.1712   25.9196   53.5060 C   0  0  0  0  0  0
   -6.7535   28.1955   52.8694 C   0  0  0  0  0  0
    0.0928   25.3701   58.1166 O   0  0  0  0  0  0
    0.6096   29.5672   58.2242 C   0  0  0  0  0  0
   -9.5216   26.3234   49.1814 C   0  0  0  0  0  0
   -7.8060   29.3697   47.7627 C   0  0  0  0  0  0
   -9.6640   28.7452   45.7596 C   0  0  0  0  0  0
   -7.9389   30.1798   46.6375 C   0  0  0  0  0  0
   -8.8476   29.8641   45.6367 C   0  0  0  0  0  0
   -3.4687   27.1211   58.3687 H   0  0  0  0  0  0
   -1.6151   28.7400   58.8853 H   0  0  0  0  0  0
   -3.9355   28.9596   54.6766 H   0  0  0  0  0  0
   -2.5445   27.9321   54.6416 H   0  0  0  0  0  0
   -3.0342   30.6507   55.9548 H   0  0  0  0  0  0
   -1.6973   30.1564   54.9101 H   0  0  0  0  0  0
   -1.1027   26.5048   59.2899 H   0  0  0  0  0  0
   -7.9392   28.5714   50.6115 H   0  0  0  0  0  0
   -6.6112   27.6939   49.8463 H   0  0  0  0  0  0
   -6.5911   25.3833   55.5135 H   0  0  0  0  0  0
   -6.0311   29.4897   54.3970 H   0  0  0  0  0  0
   -4.0147   29.4557   59.3097 H   0  0  0  0  0  0
   -2.8068   30.7177   59.2569 H   0  0  0  0  0  0
   -3.9004   30.4796   57.9011 H   0  0  0  0  0  0
  -11.0238   25.2538   48.1099 H   0  0  0  0  0  0
   -7.5047   24.9228   53.2628 H   0  0  0  0  0  0
   -6.7052   28.9972   52.1581 H   0  0  0  0  0  0
    0.8481   25.9610   58.1893 H   0  0  0  0  0  0
    0.6545   28.5109   58.4823 H   0  0  0  0  0  0
    1.6324   29.9216   58.0978 H   0  0  0  0  0  0
    0.1661   30.1224   59.0511 H   0  0  0  0  0  0
   -9.5468   25.6513   50.0276 H   0  0  0  0  0  0
   -7.0700   29.6266   48.5097 H   0  0  0  0  0  0
  -10.3719   28.5017   44.9788 H   0  0  0  0  0  0
   -7.3049   31.0466   46.5203 H   0  0  0  0  0  0
   -8.9110   30.4926   44.7587 H   0  0  0  0  0  0
  1  2  1  0  0  0
  1 10  1  0  0  0
  1 11  2  0  0  0
  1 12  2  0  0  0
  2  3  1  0  0  0
  2  7  1  0  0  0
  3  5  1  0  0  0
  3  6  1  0  0  0
  3 36  1  0  0  0
  4  9  1  0  0  0
  4  8  1  0  0  0
  4  5  1  0  0  0
  5 25  1  0  0  0
  5 37  1  0  0  0
  6 15  2  0  0  0
  6 18  1  0  0  0
  7  9  1  0  0  0
  7 38  1  0  0  0
  7 39  1  0  0  0
  8 16  2  0  0  0
  8 30  1  0  0  0
  9 40  1  0  0  0
  9 41  1  0  0  0
 10 21  1  0  0  0
 10 22  2  0  0  0
 13 17  1  0  0  0
 13 19  1  0  0  0
 13 32  2  0  0  0
 14 26  2  0  0  0
 14 19  1  0  0  0
 17 20  1  0  0  0
 17 31  2  0  0  0
 18 29  1  0  0  0
 18 42  1  0  0  0
 19 33  2  0  0  0
 20 23  1  0  0  0
 20 43  1  0  0  0
 20 44  1  0  0  0
 21 27  2  0  0  0
 21 45  1  0  0  0
 22 28  1  0  0  0
 22 46  1  0  0  0
 23 24  1  0  0  0
 24 28  2  0  0  0
 24 27  1  0  0  0
 25 47  1  0  0  0
 25 48  1  0  0  0
 25 49  1  0  0  0
 26 31  1  0  0  0
 26 50  1  0  0  0
 27 51  1  0  0  0
 28 52  1  0  0  0
 29 53  1  0  0  0
 30 54  1  0  0  0
 30 55  1  0  0  0
 30 56  1  0  0  0
 31 57  1  0  0  0
 32 34  1  0  0  0
 32 58  1  0  0  0
 33 35  1  0  0  0
 33 59  1  0  0  0
 34 35  2  0  0  0
 34 60  1  0  0  0
 35 61  1  0  0  0
M  END
> <s_m_entry_id>
64273

> <s_m_entry_name>
dock_pv.223

> <s_m_Source_Path>
/home/csk/Desktop/cluster/DUD-E-result/mmp13

> <s_m_Source_File>
dock_pv.maegz

> <i_m_Source_File_Index>
223

> <chembl_id>
CHEMBL109326

> <chembl_pref_name>
None

> <i_lp_mmshare_version>
53161

> <i_f3d_flags>
0

> <r_lp_tautomer_probability>
1

> <s_lp_Force_Field>
OPLS_2005

> <r_lp_Energy>
43.808012

> <b_lp_Chiralities_Consistent>
1

> <s_lp_Variant>
CHEMBL280_lig193-1

> <s_i_glide_gridfile>
glide-grid_830c

> <i_i_glide_lignum>
253

> <i_i_glide_rotatable_bonds>
9

> <r_i_docking_score>
-7.07748173755828

> <r_i_glide_ligand_efficiency>
-0.202213763930237

> <r_i_glide_ligand_efficiency_sa>
-0.661454629864725

> <r_i_glide_ligand_efficiency_ln>
-1.55366431763816

> <r_i_glide_gscore>
-7.07748173755828

> <r_i_glide_lipo>
-4.00925687358634

> <r_i_glide_hbond>
-0.0249719410499737

> <r_i_glide_metal>
0

> <r_i_glide_rewards>
1.17034716745168

> <r_i_glide_evdw>
-55.848747253418

> <r_i_glide_ecoul>
-12.345796585083

> <r_i_glide_erotb>
0.574713068477893

> <r_i_glide_esite>
-0.144006308418191

> <r_i_glide_emodel>
-84.6347716147198

> <r_i_glide_energy>
-68.194543838501

> <r_i_glide_einternal>
12.5749006271362

> <i_i_glide_confnum>
3

> <i_i_glide_posenum>
23

> <r_i_glide_eff_state_penalty>
0

> <s_user_duplicate_titles>
CHEMBL280_lig193

> <s_m_subgroup_title>
dock_pv

> <s_m_subgroupid>
dock_pv

> <b_m_subgroup_collapsed>
1

$$$$
CHEMBL280_lig52
                    3D
 Schrodinger Suite 2021-1.
 46 47  0  0  1  0            999 V2000
   -5.8421   28.6984   57.0888 S   0  0  0  0  0  0
   -4.0835   28.6854   57.2118 N   0  0  2  0  0  0
   -3.2362   29.6060   56.4065 C   0  0  1  0  0  0
   -3.2395   31.0394   56.9821 C   0  0  0  0  0  0
   -3.3865   27.3962   57.4367 C   0  0  0  0  0  0
   -2.2364   27.4790   56.4645 C   0  0  0  0  0  0
   -1.8601   28.9323   56.5384 C   0  0  0  0  0  0
   -6.2781   27.9443   55.5274 C   0  0  0  0  0  0
   -6.3004   30.0911   57.0543 O   0  0  0  0  0  0
   -6.3235   27.7701   58.1100 O   0  0  0  0  0  0
   -1.7048   26.6091   55.7100 N   0  0  0  0  0  0
   -2.9191   31.2366   58.1572 O   0  0  0  0  0  0
   -3.5389   32.0194   56.1100 N   0  0  0  0  0  0
   -6.2626   26.5542   55.4097 C   0  0  0  0  0  0
   -6.7390   28.7321   54.4744 C   0  0  0  0  0  0
   -7.2629   26.7268   53.2155 C   0  0  0  0  0  0
   -2.3390   25.3700   55.7100 O   0  0  0  0  0  0
   -7.2409   28.1238   53.3280 C   0  0  0  0  0  0
   -6.7390   25.9550   54.2500 C   0  0  0  0  0  0
   -3.5303   33.3505   56.5544 O   0  0  0  0  0  0
   -7.7987   26.0275   52.1520 O   0  0  0  0  0  0
   -8.4995   26.6964   51.1075 C   0  0  0  0  0  0
   -7.5652   27.4038   50.1077 C   0  0  0  0  0  0
   -8.3309   28.0895   48.9599 C   0  0  0  0  0  0
   -7.4148   28.8462   47.9889 C   0  0  0  0  0  0
   -3.5532   29.6090   55.3614 H   0  0  0  0  0  0
   -3.0142   27.3386   58.4609 H   0  0  0  0  0  0
   -4.0447   26.5427   57.2816 H   0  0  0  0  0  0
   -1.3744   29.1468   57.4941 H   0  0  0  0  0  0
   -1.1790   29.2264   55.7388 H   0  0  0  0  0  0
   -3.8166   31.9120   55.1383 H   0  0  0  0  0  0
   -5.9245   25.9251   56.2212 H   0  0  0  0  0  0
   -6.7550   29.8094   54.5579 H   0  0  0  0  0  0
   -3.0061   25.4347   56.4087 H   0  0  0  0  0  0
   -7.6327   28.7538   52.5490 H   0  0  0  0  0  0
   -6.7390   24.8769   54.1711 H   0  0  0  0  0  0
   -2.7127   33.7075   56.1971 H   0  0  0  0  0  0
   -9.2443   27.3700   51.5243 H   0  0  0  0  0  0
   -9.0663   25.9301   50.5767 H   0  0  0  0  0  0
   -6.8765   26.6633   49.7100 H   0  0  0  0  0  0
   -6.9365   28.1414   50.6039 H   0  0  0  0  0  0
   -9.0547   28.7944   49.3706 H   0  0  0  0  0  0
   -8.9076   27.3481   48.4048 H   0  0  0  0  0  0
   -7.9951   29.3718   47.2301 H   0  0  0  0  0  0
   -6.7390   28.1700   47.4690 H   0  0  0  0  0  0
   -6.8064   29.5859   48.5100 H   0  0  0  0  0  0
  1  2  1  0  0  0
  1  8  1  0  0  0
  1  9  2  0  0  0
  1 10  2  0  0  0
  2  3  1  0  0  0
  2  5  1  0  0  0
  3  4  1  0  0  0
  3  7  1  0  0  0
  3 26  1  0  0  0
  4 12  2  0  0  0
  4 13  1  0  0  0
  5  6  1  0  0  0
  5 27  1  0  0  0
  5 28  1  0  0  0
  6 11  2  0  0  0
  6  7  1  0  0  0
  7 29  1  0  0  0
  7 30  1  0  0  0
  8 14  2  0  0  0
  8 15  1  0  0  0
 11 17  1  0  0  0
 13 20  1  0  0  0
 13 31  1  0  0  0
 14 19  1  0  0  0
 14 32  1  0  0  0
 15 18  2  0  0  0
 15 33  1  0  0  0
 16 18  1  0  0  0
 16 21  1  0  0  0
 16 19  2  0  0  0
 17 34  1  0  0  0
 18 35  1  0  0  0
 19 36  1  0  0  0
 20 37  1  0  0  0
 21 22  1  0  0  0
 22 23  1  0  0  0
 22 38  1  0  0  0
 22 39  1  0  0  0
 23 24  1  0  0  0
 23 40  1  0  0  0
 23 41  1  0  0  0
 24 25  1  0  0  0
 24 42  1  0  0  0
 24 43  1  0  0  0
 25 44  1  0  0  0
 25 45  1  0  0  0
 25 46  1  0  0  0
M  END
> <s_m_entry_id>
64274

> <s_m_entry_name>
dock_pv.224

> <s_m_Source_Path>
/home/csk/Desktop/cluster/DUD-E-result/mmp13

> <s_m_Source_File>
dock_pv.maegz

> <i_m_Source_File_Index>
224

> <chembl_id>
CHEMBL150077

> <chembl_pref_name>
None

> <i_lp_mmshare_version>
53161

> <i_f3d_flags>
0

> <r_lp_tautomer_probability>
1

> <s_lp_Force_Field>
OPLS_2005

> <r_lp_Energy>
18.518953

> <b_lp_Chiralities_Consistent>
1

> <s_lp_Variant>
CHEMBL280_lig52-1

> <s_i_glide_gridfile>
glide-grid_830c

> <i_i_glide_lignum>
72

> <i_i_glide_rotatable_bonds>
10

> <r_i_docking_score>
-7.06908139784715

> <r_i_glide_ligand_efficiency>
-0.282763255913886

> <r_i_glide_ligand_efficiency_sa>
-0.826804775119899

> <r_i_glide_ligand_efficiency_ln>
-1.67558413456456

> <r_i_glide_gscore>
-7.06908139784715

> <r_i_glide_lipo>
-2.59660253057732

> <r_i_glide_hbond>
-0.32

> <r_i_glide_metal>
0

> <r_i_glide_rewards>
-0.726246796346683

> <r_i_glide_evdw>
-35.1722984313965

> <r_i_glide_ecoul>
-16.3949489593506

> <r_i_glide_erotb>
1.11944879002458

> <r_i_glide_esite>
-0.327823595475314

> <r_i_glide_emodel>
-68.0301617954744

> <r_i_glide_energy>
-51.5672473907471

> <r_i_glide_einternal>
7.71465444564819

> <i_i_glide_confnum>
247

> <i_i_glide_posenum>
304

> <r_i_glide_eff_state_penalty>
0

> <s_user_duplicate_titles>
CHEMBL280_lig52,251224

> <s_m_subgroup_title>
dock_pv

> <s_m_subgroupid>
dock_pv

> <b_m_subgroup_collapsed>
1

$$$$
CHEMBL280_lig2
                    3D
 Schrodinger Suite 2021-1.
 32 33  0  0  1  0            999 V2000
   -4.1054   28.2345   56.1592 C   0  0  0  0  0  0
   -5.3670   28.7027   56.0065 C   0  0  0  0  0  0
   -6.3402   27.9645   55.3901 N   0  0  0  0  0  0
   -6.0908   26.7454   55.0327 C   0  0  0  0  0  0
   -4.8593   26.2210   55.2854 N   0  0  0  0  0  0
   -3.7686   26.9378   55.6255 C   0  0  0  0  0  0
   -7.2703   25.7703   54.0875 S   0  0  0  0  0  0
   -8.3140   27.0578   53.3330 C   0  0  0  0  0  0
   -8.3387   26.9701   51.8156 C   0  0  0  0  0  0
   -9.2977   26.1971   51.1569 C   0  0  0  0  0  0
   -9.4632   26.3255   49.7804 C   0  0  0  0  0  0
   -8.6670   27.2070   49.0514 C   0  0  0  0  0  0
   -7.6273   27.8827   49.7019 C   0  0  0  0  0  0
   -7.4671   27.7699   51.0774 C   0  0  0  0  0  0
   -8.9797   27.3700   47.7167 O   0  0  0  0  0  0
   -2.6388   26.5580   55.3101 O   0  0  0  0  0  0
   -8.3387   28.4082   46.9806 C   0  0  0  0  0  0
   -5.8579   30.0397   56.5166 C   0  0  0  0  0  0
   -3.3413   28.8115   56.6522 H   0  0  0  0  0  0
   -8.0088   28.0686   53.5980 H   0  0  0  0  0  0
   -9.3157   26.9700   53.7424 H   0  0  0  0  0  0
   -9.9693   25.5584   51.7101 H   0  0  0  0  0  0
  -10.2447   25.7746   49.2795 H   0  0  0  0  0  0
   -6.9689   28.5516   49.1686 H   0  0  0  0  0  0
   -6.7065   28.3610   51.5681 H   0  0  0  0  0  0
   -4.7388   25.2111   55.1915 H   0  0  0  0  0  0
   -8.7211   28.4204   45.9601 H   0  0  0  0  0  0
   -7.2612   28.2519   46.9247 H   0  0  0  0  0  0
   -8.5320   29.3884   47.4199 H   0  0  0  0  0  0
   -5.0806   30.5531   57.0831 H   0  0  0  0  0  0
   -6.1438   30.6782   55.6801 H   0  0  0  0  0  0
   -6.7236   29.9091   57.1672 H   0  0  0  0  0  0
  1  6  1  0  0  0
  1 19  1  0  0  0
  1  2  2  0  0  0
  2 18  1  0  0  0
  2  3  1  0  0  0
  3  4  2  0  0  0
  4  7  1  0  0  0
  4  5  1  0  0  0
  5 26  1  0  0  0
  5  6  1  0  0  0
  6 16  2  0  0  0
  7  8  1  0  0  0
  8  9  1  0  0  0
  8 20  1  0  0  0
  8 21  1  0  0  0
  9 10  2  0  0  0
  9 14  1  0  0  0
 10 11  1  0  0  0
 10 22  1  0  0  0
 11 12  2  0  0  0
 11 23  1  0  0  0
 12 13  1  0  0  0
 12 15  1  0  0  0
 13 14  2  0  0  0
 13 24  1  0  0  0
 14 25  1  0  0  0
 15 17  1  0  0  0
 17 27  1  0  0  0
 17 28  1  0  0  0
 17 29  1  0  0  0
 18 30  1  0  0  0
 18 31  1  0  0  0
 18 32  1  0  0  0
M  END
> <s_m_entry_id>
64275

> <s_m_entry_name>
dock_pv.225

> <s_m_Source_Path>
/home/csk/Desktop/cluster/DUD-E-result/mmp13

> <s_m_Source_File>
dock_pv.maegz

> <i_m_Source_File_Index>
225

> <chembl_id>
CHEMBL500351

> <chembl_pref_name>
None

> <i_lp_mmshare_version>
53161

> <i_f3d_flags>
0

> <r_lp_tautomer_probability>
0.660323467326753

> <s_lp_Force_Field>
OPLS_2005

> <r_lp_Energy>
14.179968

> <b_lp_Chiralities_Consistent>
1

> <s_lp_Variant>
CHEMBL280_lig2-1

> <s_i_glide_gridfile>
glide-grid_830c

> <i_i_glide_lignum>
4

> <i_i_glide_rotatable_bonds>
4

> <r_i_docking_score>
-7.06720391481185

> <r_i_glide_ligand_efficiency>
-0.392622439711769

> <r_i_glide_ligand_efficiency_sa>
-1.02896187905656

> <r_i_glide_ligand_efficiency_ln>
-1.81658832487352

> <r_i_glide_gscore>
-7.06720391481185

> <r_i_glide_lipo>
-2.35799145863822

> <r_i_glide_hbond>
-0.16

> <r_i_glide_metal>
0

> <r_i_glide_rewards>
-1.66361758361138

> <r_i_glide_evdw>
-31.3541011810303

> <r_i_glide_ecoul>
-13.399263381958

> <r_i_glide_erotb>
0.773284813592594

> <r_i_glide_esite>
-0.0812851198096322

> <r_i_glide_emodel>
-64.384904087334

> <r_i_glide_energy>
-44.7533645629883

> <r_i_glide_einternal>
6.29138994216919

> <i_i_glide_confnum>
3

> <i_i_glide_posenum>
262

> <r_i_glide_eff_state_penalty>
0

> <s_user_duplicate_titles>
CHEMBL280_lig2,CHEMBL280_lig2

> <s_m_subgroup_title>
dock_pv

> <s_m_subgroupid>
dock_pv

> <b_m_subgroup_collapsed>
1

$$$$
CHEMBL280_lig1747
                    3D
 Schrodinger Suite 2021-1.
 45 47  0  0  1  0            999 V2000
   -3.1542   28.3036   57.6435 C   0  0  0  0  0  0
   -2.6963   26.9700   58.2938 C   0  0  0  0  0  0
   -1.1749   26.7167   58.2456 C   0  0  0  0  0  0
   -0.4684   27.8511   58.7303 O   0  0  0  0  0  0
   -0.6805   29.0198   57.9476 C   0  0  0  0  0  0
   -2.1570   29.4398   58.0588 C   0  0  0  0  0  0
   -3.1694   28.0969   55.7203 S   0  0  0  0  0  0
   -2.7390   29.3700   55.1543 O   0  0  0  0  0  0
   -2.4137   26.8961   55.3100 O   0  0  0  0  0  0
   -4.8841   27.8097   55.1821 C   0  0  0  0  0  0
   -5.2135   26.5246   54.7996 C   0  0  0  0  0  0
   -6.4279   26.2253   54.1994 C   0  0  0  0  0  0
   -7.3361   27.2460   53.9659 C   0  0  0  0  0  0
   -7.0818   28.5286   54.4561 C   0  0  0  0  0  0
   -5.8622   28.8041   55.0763 C   0  0  0  0  0  0
   -8.4577   26.9701   53.2251 O   0  0  0  0  0  0
   -4.5996   28.6567   58.1100 C   0  0  0  0  0  0
   -5.3649   27.7709   58.5100 O   0  0  0  0  0  0
   -4.9800   29.9437   57.9778 N   0  0  0  0  0  0
   -6.3391   30.2619   58.1100 O   0  0  0  0  0  0
   -8.3942   26.9700   51.8416 C   0  0  0  0  0  0
   -7.4315   27.6789   51.1069 C   0  0  0  0  0  0
   -7.5390   27.7700   49.7201 C   0  0  0  0  0  0
   -8.6035   27.1639   49.0644 C   0  0  0  0  0  0
   -9.5252   26.4067   49.7738 C   0  0  0  0  0  0
   -9.4116   26.3052   51.1559 C   0  0  0  0  0  0
   -8.8003   27.3702   47.3641 Cl  0  0  0  0  0  0
   -3.2057   26.1698   57.7701 H   0  0  0  0  0  0
   -3.0120   26.9110   59.3380 H   0  0  0  0  0  0
   -0.8350   26.4701   57.2395 H   0  0  0  0  0  0
   -0.9225   25.8573   58.8677 H   0  0  0  0  0  0
   -0.3936   28.8506   56.9077 H   0  0  0  0  0  0
   -0.0331   29.8132   58.3227 H   0  0  0  0  0  0
   -2.3346   29.7428   59.0926 H   0  0  0  0  0  0
   -2.3131   30.3418   57.4656 H   0  0  0  0  0  0
   -4.4710   25.7700   54.9101 H   0  0  0  0  0  0
   -6.6462   25.2220   53.8643 H   0  0  0  0  0  0
   -7.8029   29.3173   54.3232 H   0  0  0  0  0  0
   -5.6646   29.8023   55.4230 H   0  0  0  0  0  0
   -4.4324   30.7072   57.6052 H   0  0  0  0  0  0
   -6.4389   30.5479   59.0297 H   0  0  0  0  0  0
   -6.6262   28.2011   51.6009 H   0  0  0  0  0  0
   -6.8243   28.3412   49.1482 H   0  0  0  0  0  0
  -10.3359   25.9271   49.2503 H   0  0  0  0  0  0
  -10.1594   25.7650   51.7098 H   0  0  0  0  0  0
  1  7  1  0  0  0
  1  2  1  0  0  0
  1 17  1  0  0  0
  1  6  1  0  0  0
  2  3  1  0  0  0
  2 28  1  0  0  0
  2 29  1  0  0  0
  3  4  1  0  0  0
  3 30  1  0  0  0
  3 31  1  0  0  0
  4  5  1  0  0  0
  5  6  1  0  0  0
  5 32  1  0  0  0
  5 33  1  0  0  0
  6 34  1  0  0  0
  6 35  1  0  0  0
  7  9  2  0  0  0
  7 10  1  0  0  0
  7  8  2  0  0  0
 10 15  1  0  0  0
 10 11  2  0  0  0
 11 12  1  0  0  0
 11 36  1  0  0  0
 12 13  2  0  0  0
 12 37  1  0  0  0
 13 16  1  0  0  0
 13 14  1  0  0  0
 14 15  2  0  0  0
 14 38  1  0  0  0
 15 39  1  0  0  0
 16 21  1  0  0  0
 17 18  2  0  0  0
 17 19  1  0  0  0
 19 20  1  0  0  0
 19 40  1  0  0  0
 20 41  1  0  0  0
 21 22  2  0  0  0
 21 26  1  0  0  0
 22 23  1  0  0  0
 22 42  1  0  0  0
 23 24  2  0  0  0
 23 43  1  0  0  0
 24 25  1  0  0  0
 24 27  1  0  0  0
 25 26  2  0  0  0
 25 44  1  0  0  0
 26 45  1  0  0  0
M  END
> <s_m_entry_id>
64276

> <s_m_entry_name>
dock_pv.226

> <s_m_Source_Path>
/home/csk/Desktop/cluster/DUD-E-result/mmp13

> <s_m_Source_File>
dock_pv.maegz

> <i_m_Source_File_Index>
226

> <chembl_id>
CHEMBL1801046

> <chembl_pref_name>
None

> <i_lp_mmshare_version>
53161

> <i_f3d_flags>
0

> <r_lp_tautomer_probability>
1

> <s_lp_Force_Field>
OPLS_2005

> <r_lp_Energy>
28.622288

> <b_lp_Chiralities_Consistent>
1

> <s_lp_Variant>
CHEMBL280_lig1747-1

> <s_i_glide_gridfile>
glide-grid_830c

> <i_i_glide_lignum>
2498

> <i_i_glide_rotatable_bonds>
7

> <r_i_docking_score>
-7.05489160446204

> <r_i_glide_ligand_efficiency>
-0.261292281646742

> <r_i_glide_ligand_efficiency_sa>
-0.783876844079051

> <r_i_glide_ligand_efficiency_ln>
-1.64226245654062

> <r_i_glide_gscore>
-7.05489160446204

> <r_i_glide_lipo>
-2.67848695921831

> <r_i_glide_hbond>
-0.304

> <r_i_glide_metal>
0

> <r_i_glide_rewards>
-0.640935976474744

> <r_i_glide_evdw>
-38.6913757324219

> <r_i_glide_ecoul>
-13.0412120819092

> <r_i_glide_erotb>
0.697303150057938

> <r_i_glide_esite>
-0.238021219919458

> <r_i_glide_emodel>
-66.6077292893246

> <r_i_glide_energy>
-51.7325878143311

> <r_i_glide_einternal>
9.12158203125

> <i_i_glide_confnum>
126

> <i_i_glide_posenum>
296

> <r_i_glide_eff_state_penalty>
0

> <s_user_duplicate_titles>
CHEMBL280_lig1747

> <s_m_subgroup_title>
dock_pv

> <s_m_subgroupid>
dock_pv

> <b_m_subgroup_collapsed>
1

$$$$
CHEMBL280_lig1429
                    3D
 Schrodinger Suite 2021-1.
 35 36  0  0  1  0            999 V2000
   -7.9336   26.1484   53.2522 C   0  0  0  0  0  0
   -8.3697   26.2595   51.9386 C   0  0  0  0  0  0
   -7.9125   27.2907   51.1106 C   0  0  0  0  0  0
   -6.9451   28.1652   51.6356 C   0  0  0  0  0  0
   -6.4911   28.0459   52.9475 C   0  0  0  0  0  0
   -7.0001   27.0402   53.7636 C   0  0  0  0  0  0
   -6.5131   26.9473   55.4835 S   0  0  0  0  0  0
   -4.7951   26.6410   55.4862 N   0  0  1  0  0  0
   -3.8730   27.7292   55.7868 C   0  0  0  0  0  0
   -2.5506   27.2473   56.3852 C   0  0  0  0  0  0
   -1.5390   27.8851   56.1101 O   0  0  0  0  0  0
   -2.5476   26.1700   57.1908 N   0  0  0  0  0  0
   -1.3250   25.7704   57.7526 O   0  0  0  0  0  0
   -7.1391   25.7701   56.0882 O   0  0  0  0  0  0
   -6.7323   28.2907   56.0295 O   0  0  0  0  0  0
   -8.4835   27.4692   49.7310 C   0  0  0  0  0  0
   -7.7841   28.1702   48.7373 C   0  0  0  0  0  0
   -8.3366   28.3786   47.4764 C   0  0  0  0  0  0
   -9.5927   27.8636   47.1792 C   0  0  0  0  0  0
  -10.3038   27.1538   48.1397 C   0  0  0  0  0  0
   -9.7572   26.9691   49.4062 C   0  0  0  0  0  0
   -8.3370   25.3703   53.8706 H   0  0  0  0  0  0
   -9.0868   25.5376   51.5799 H   0  0  0  0  0  0
   -6.5539   28.9700   51.0373 H   0  0  0  0  0  0
   -5.7753   28.7546   53.3373 H   0  0  0  0  0  0
   -4.5330   25.6698   55.7088 H   0  0  0  0  0  0
   -4.2996   28.4055   56.5280 H   0  0  0  0  0  0
   -3.6899   28.3246   54.8905 H   0  0  0  0  0  0
   -3.3408   25.6463   57.5559 H   0  0  0  0  0  0
   -1.3797   26.0827   58.6617 H   0  0  0  0  0  0
   -6.7965   28.5647   48.9249 H   0  0  0  0  0  0
   -7.7801   28.9247   46.7272 H   0  0  0  0  0  0
  -10.0168   28.0188   46.1983 H   0  0  0  0  0  0
  -11.2863   26.7672   47.9113 H   0  0  0  0  0  0
  -10.3558   26.4436   50.1339 H   0  0  0  0  0  0
  1  6  1  0  0  0
  1  2  2  0  0  0
  1 22  1  0  0  0
  2  3  1  0  0  0
  2 23  1  0  0  0
  3  4  2  0  0  0
  3 16  1  0  0  0
  4  5  1  0  0  0
  4 24  1  0  0  0
  5  6  2  0  0  0
  5 25  1  0  0  0
  6  7  1  0  0  0
  7 14  2  0  0  0
  7 15  2  0  0  0
  7  8  1  0  0  0
  8  9  1  0  0  0
  8 26  1  0  0  0
  9 10  1  0  0  0
  9 27  1  0  0  0
  9 28  1  0  0  0
 10 11  2  0  0  0
 10 12  1  0  0  0
 12 13  1  0  0  0
 12 29  1  0  0  0
 13 30  1  0  0  0
 16 17  2  0  0  0
 16 21  1  0  0  0
 17 18  1  0  0  0
 17 31  1  0  0  0
 18 19  2  0  0  0
 18 32  1  0  0  0
 19 20  1  0  0  0
 19 33  1  0  0  0
 20 21  2  0  0  0
 20 34  1  0  0  0
 21 35  1  0  0  0
M  END
> <s_m_entry_id>
64277

> <s_m_entry_name>
dock_pv.227

> <s_m_Source_Path>
/home/csk/Desktop/cluster/DUD-E-result/mmp13

> <s_m_Source_File>
dock_pv.maegz

> <i_m_Source_File_Index>
227

> <chembl_id>
CHEMBL550148

> <chembl_pref_name>
None

> <i_lp_mmshare_version>
53161

> <i_f3d_flags>
0

> <r_lp_tautomer_probability>
1

> <s_lp_Force_Field>
OPLS_2005

> <r_lp_Energy>
17.162415

> <b_lp_Chiralities_Consistent>
1

> <s_lp_Variant>
CHEMBL280_lig1429-1

> <s_i_glide_gridfile>
glide-grid_830c

> <i_i_glide_lignum>
2156

> <i_i_glide_rotatable_bonds>
7

> <r_i_docking_score>
-7.04693632713427

> <r_i_glide_ligand_efficiency>
-0.335568396530203

> <r_i_glide_ligand_efficiency_sa>
-0.925807761077077

> <r_i_glide_ligand_efficiency_ln>
-1.74234076720831

> <r_i_glide_gscore>
-7.04693632713427

> <r_i_glide_lipo>
-3.3029412262004

> <r_i_glide_hbond>
-0.415284935984259

> <r_i_glide_metal>
0

> <r_i_glide_rewards>
-0.672539652013715

> <r_i_glide_evdw>
-39.769157409668

> <r_i_glide_ecoul>
-10.3176822662354

> <r_i_glide_erotb>
1.18094350758822

> <r_i_glide_esite>
-0.301003810105409

> <r_i_glide_emodel>
-70.8992304575422

> <r_i_glide_energy>
-50.0868396759033

> <r_i_glide_einternal>
7.46748065948486

> <i_i_glide_confnum>
84

> <i_i_glide_posenum>
389

> <r_i_glide_eff_state_penalty>
0

> <s_user_duplicate_titles>
CHEMBL280_lig1429,565014

> <s_m_subgroup_title>
dock_pv

> <s_m_subgroupid>
dock_pv

> <b_m_subgroup_collapsed>
1

$$$$
CHEMBL280_lig1503
                    3D
 Schrodinger Suite 2021-1.
 44 46  0  0  1  0            999 V2000
   -2.2514   28.5464   57.4936 C   0  0  0  0  0  0
   -1.0820   29.2547   57.1585 C   0  0  0  0  0  0
   -1.1066   30.6184   56.8855 C   0  0  0  0  0  0
   -2.3049   31.3140   56.9625 C   0  0  0  0  0  0
   -3.4688   30.6454   57.3248 C   0  0  0  0  0  0
   -3.4661   29.2702   57.6048 C   0  0  0  0  0  0
   -5.0849   28.5672   58.0321 S   0  0  0  0  0  0
   -5.7734   28.0950   56.4553 C   0  0  0  0  0  0
   -4.9405   27.3700   58.8664 O   0  0  0  0  0  0
   -5.9220   29.6704   58.5100 O   0  0  0  0  0  0
   -6.2323   29.1175   55.6289 C   0  0  0  0  0  0
   -6.7390   28.8174   54.3750 C   0  0  0  0  0  0
   -6.8112   27.4956   53.9356 C   0  0  0  0  0  0
   -6.3730   26.4682   54.7831 C   0  0  0  0  0  0
   -5.8453   26.7633   56.0411 C   0  0  0  0  0  0
   -2.1299   27.0414   57.7990 C   0  0  1  0  0  0
   -1.3152   26.2693   56.7360 C   0  0  0  0  0  0
   -1.8279   25.8234   55.7100 O   0  0  0  0  0  0
    0.0190   26.1700   57.0239 O   0  0  0  0  0  0
   -7.3773   27.2173   52.5922 C   0  0  0  0  0  0
   -6.9486   27.9337   51.4719 C   0  0  0  0  0  0
   -7.5390   27.7344   50.2263 C   0  0  0  0  0  0
   -8.5680   26.8089   50.0954 C   0  0  0  0  0  0
   -9.0003   26.0837   51.2004 C   0  0  0  0  0  0
   -8.3925   26.2769   52.4391 C   0  0  0  0  0  0
   -1.6312   26.8237   59.2455 C   0  0  0  0  0  0
   -0.1283   28.7507   57.1138 H   0  0  0  0  0  0
   -0.1959   31.1366   56.6227 H   0  0  0  0  0  0
   -2.3329   32.3731   56.7511 H   0  0  0  0  0  0
   -4.3839   31.2169   57.3826 H   0  0  0  0  0  0
   -6.1781   30.1499   55.9440 H   0  0  0  0  0  0
   -7.0759   29.6225   53.7401 H   0  0  0  0  0  0
   -6.4209   25.4363   54.4634 H   0  0  0  0  0  0
   -5.4925   25.9614   56.6769 H   0  0  0  0  0  0
   -3.1039   26.5700   57.7109 H   0  0  0  0  0  0
    0.5557   25.7328   56.3491 H   0  0  0  0  0  0
   -6.1618   28.6675   51.5652 H   0  0  0  0  0  0
   -7.1973   28.3012   49.3714 H   0  0  0  0  0  0
   -9.0308   26.6530   49.1319 H   0  0  0  0  0  0
   -9.8035   25.3700   51.0955 H   0  0  0  0  0  0
   -8.7390   25.7357   53.3041 H   0  0  0  0  0  0
   -0.6754   27.3177   59.4270 H   0  0  0  0  0  0
   -2.3438   27.2189   59.9683 H   0  0  0  0  0  0
   -1.5020   25.7700   59.4743 H   0  0  0  0  0  0
  1  2  2  0  0  0
  1 16  1  0  0  0
  1  6  1  0  0  0
  2  3  1  0  0  0
  2 27  1  0  0  0
  3  4  2  0  0  0
  3 28  1  0  0  0
  4  5  1  0  0  0
  4 29  1  0  0  0
  5  6  2  0  0  0
  5 30  1  0  0  0
  6  7  1  0  0  0
  7  8  1  0  0  0
  7  9  2  0  0  0
  7 10  2  0  0  0
  8 15  1  0  0  0
  8 11  2  0  0  0
 11 12  1  0  0  0
 11 31  1  0  0  0
 12 13  2  0  0  0
 12 32  1  0  0  0
 13 14  1  0  0  0
 13 20  1  0  0  0
 14 15  2  0  0  0
 14 33  1  0  0  0
 15 34  1  0  0  0
 16 17  1  0  0  0
 16 26  1  0  0  0
 16 35  1  0  0  0
 17 18  2  0  0  0
 17 19  1  0  0  0
 19 36  1  0  0  0
 20 21  2  0  0  0
 20 25  1  0  0  0
 21 22  1  0  0  0
 21 37  1  0  0  0
 22 23  2  0  0  0
 22 38  1  0  0  0
 23 24  1  0  0  0
 23 39  1  0  0  0
 24 25  2  0  0  0
 24 40  1  0  0  0
 25 41  1  0  0  0
 26 42  1  0  0  0
 26 43  1  0  0  0
 26 44  1  0  0  0
M  END
> <s_m_entry_id>
64278

> <s_m_entry_name>
dock_pv.228

> <s_m_Source_Path>
/home/csk/Desktop/cluster/DUD-E-result/mmp13

> <s_m_Source_File>
dock_pv.maegz

> <i_m_Source_File_Index>
228

> <chembl_id>
CHEMBL579068

> <chembl_pref_name>
None

> <i_lp_mmshare_version>
53161

> <i_f3d_flags>
0

> <r_lp_tautomer_probability>
1

> <s_lp_Force_Field>
OPLS_2005

> <r_lp_Energy>
27.03849

> <b_lp_Chiralities_Consistent>
1

> <s_lp_Variant>
CHEMBL280_lig1503-2

> <s_i_glide_gridfile>
glide-grid_830c

> <i_i_glide_lignum>
2236

> <i_i_glide_rotatable_bonds>
6

> <r_i_docking_score>
-7.04685980524255

> <r_i_glide_ligand_efficiency>
-0.271033069432406

> <r_i_glide_ligand_efficiency_sa>
-0.802934401729872

> <r_i_glide_ligand_efficiency_ln>
-1.65493190262823

> <r_i_glide_gscore>
-7.04685980524255

> <r_i_glide_lipo>
-2.8897464658945

> <r_i_glide_hbond>
-0.0044119528527961

> <r_i_glide_metal>
0

> <r_i_glide_rewards>
-1.06069622727273

> <r_i_glide_evdw>
-42.0964012145996

> <r_i_glide_ecoul>
-10.4245586395264

> <r_i_glide_erotb>
0.716730702157044

> <r_i_glide_esite>
-0.140232004720636

> <r_i_glide_emodel>
-73.4930278049746

> <r_i_glide_energy>
-52.520959854126

> <r_i_glide_einternal>
6.08919858932495

> <i_i_glide_confnum>
143

> <i_i_glide_posenum>
319

> <r_i_glide_eff_state_penalty>
0

> <s_user_duplicate_titles>
CHEMBL280_lig1503

> <s_m_subgroup_title>
dock_pv

> <s_m_subgroupid>
dock_pv

> <b_m_subgroup_collapsed>
1

$$$$
CHEMBL280_lig1336
                    3D
 Schrodinger Suite 2021-1.
 30 32  0  0  1  0            999 V2000
   -6.8361   26.1818   54.4791 C   0  0  0  0  0  0
   -6.3839   26.0361   55.7888 C   0  0  0  0  0  0
   -5.9393   27.1388   56.5050 C   0  0  0  0  0  0
   -5.9779   28.4022   55.9250 C   0  0  0  0  0  0
   -6.4392   28.5472   54.6176 C   0  0  0  0  0  0
   -6.8910   27.4490   53.8750 C   0  0  0  0  0  0
   -5.4354   26.9703   57.7670 O   0  0  0  0  0  0
   -7.2065   27.6704   52.5260 N   0  0  0  0  0  0
   -8.0427   26.9700   51.8624 C   0  0  0  0  0  0
   -8.3015   27.2946   50.4612 C   0  0  0  0  0  0
   -9.6414   26.6199   49.5826 S   0  0  0  0  0  0
   -9.2518   27.5537   48.1505 C   0  0  0  0  0  0
   -8.1077   28.3082   48.3664 C   0  0  0  0  0  0
   -7.5925   28.1698   49.6490 C   0  0  0  0  0  0
  -10.0472   27.4978   46.9289 C   0  0  0  0  0  0
  -11.3200   26.9704   46.7553 C   0  0  0  0  0  0
  -11.7839   27.0323   45.4393 C   0  0  0  0  0  0
  -10.8918   27.6602   44.5885 C   0  0  0  0  0  0
   -9.4672   28.1700   45.4238 S   0  0  0  0  0  0
   -7.1245   25.2990   53.9296 H   0  0  0  0  0  0
   -6.3464   25.0502   56.2301 H   0  0  0  0  0  0
   -5.6250   29.2636   56.4738 H   0  0  0  0  0  0
   -6.4286   29.5286   54.1656 H   0  0  0  0  0  0
   -5.1069   26.0725   57.9093 H   0  0  0  0  0  0
   -8.6039   26.1265   52.2571 H   0  0  0  0  0  0
   -7.6635   28.9603   47.6266 H   0  0  0  0  0  0
   -6.7392   28.7229   49.9959 H   0  0  0  0  0  0
  -11.9009   26.5694   47.5717 H   0  0  0  0  0  0
  -12.7391   26.6457   45.1246 H   0  0  0  0  0  0
  -11.0035   27.8556   43.5322 H   0  0  0  0  0  0
  1  6  1  0  0  0
  1  2  2  0  0  0
  1 20  1  0  0  0
  2  3  1  0  0  0
  2 21  1  0  0  0
  3  7  1  0  0  0
  3  4  2  0  0  0
  4  5  1  0  0  0
  4 22  1  0  0  0
  5  6  2  0  0  0
  5 23  1  0  0  0
  6  8  1  0  0  0
  7 24  1  0  0  0
  8  9  2  0  0  0
  9 10  1  0  0  0
  9 25  1  0  0  0
 10 11  1  0  0  0
 10 14  2  0  0  0
 11 12  1  0  0  0
 12 13  2  0  0  0
 12 15  1  0  0  0
 13 14  1  0  0  0
 13 26  1  0  0  0
 14 27  1  0  0  0
 15 16  2  0  0  0
 15 19  1  0  0  0
 16 17  1  0  0  0
 16 28  1  0  0  0
 17 18  2  0  0  0
 17 29  1  0  0  0
 18 19  1  0  0  0
 18 30  1  0  0  0
M  END
> <s_m_entry_id>
64279

> <s_m_entry_name>
dock_pv.229

> <s_m_Source_Path>
/home/csk/Desktop/cluster/DUD-E-result/mmp13

> <s_m_Source_File>
dock_pv.maegz

> <i_m_Source_File_Index>
229

> <chembl_id>
CHEMBL504791

> <chembl_pref_name>
None

> <i_lp_mmshare_version>
53161

> <i_f3d_flags>
0

> <r_lp_tautomer_probability>
1

> <s_lp_Force_Field>
OPLS_2005

> <r_lp_Energy>
12.053321

> <b_lp_Chiralities_Consistent>
1

> <s_lp_Variant>
CHEMBL280_lig1336-1

> <s_i_glide_gridfile>
glide-grid_830c

> <i_i_glide_lignum>
2063

> <i_i_glide_rotatable_bonds>
4

> <r_i_docking_score>
-7.04515629326383

> <r_i_glide_ligand_efficiency>
-0.370797699645465

> <r_i_glide_ligand_efficiency_sa>
-0.989437192105151

> <r_i_glide_ligand_efficiency_ln>
-1.78609843642521

> <r_i_glide_gscore>
-7.04515629326383

> <r_i_glide_lipo>
-2.9378541552901

> <r_i_glide_hbond>
-0.39473545096506

> <r_i_glide_metal>
0

> <r_i_glide_rewards>
-1.54222917443698

> <r_i_glide_evdw>
-42.3633193969727

> <r_i_glide_ecoul>
-4.80301475524902

> <r_i_glide_erotb>
0.668280670564294

> <r_i_glide_esite>
0

> <r_i_glide_emodel>
-63.7726863305825

> <r_i_glide_energy>
-47.1663341522217

> <r_i_glide_einternal>
6.12485504150391

> <i_i_glide_confnum>
15

> <i_i_glide_posenum>
113

> <r_i_glide_eff_state_penalty>
0

> <s_user_duplicate_titles>
CHEMBL280_lig1336

> <s_m_subgroup_title>
dock_pv

> <s_m_subgroupid>
dock_pv

> <b_m_subgroup_collapsed>
1

$$$$
CHEMBL280_lig665
                    3D
 Schrodinger Suite 2021-1.
 46 48  0  0  1  0            999 V2000
   -5.7814   28.8021   57.0295 S   0  0  0  0  0  0
   -2.9074   29.1942   56.9220 C   0  0  0  0  0  0
   -4.2896   29.5937   56.5100 N   0  0  2  0  0  0
   -2.5337   27.7611   56.4036 C   0  0  0  0  0  0
   -6.3761   27.9794   55.5484 C   0  0  0  0  0  0
   -5.4734   27.7721   58.0296 O   0  0  0  0  0  0
   -6.7390   29.8744   57.3095 O   0  0  0  0  0  0
   -1.4348   27.2739   56.6896 O   0  0  0  0  0  0
   -3.4188   27.0921   55.6468 N   0  0  0  0  0  0
   -7.9256   26.1018   52.1442 O   0  0  0  0  0  0
   -6.5003   26.5898   55.4782 C   0  0  0  0  0  0
   -6.7390   28.7656   54.4553 C   0  0  0  0  0  0
   -7.3812   26.7798   53.2218 C   0  0  0  0  0  0
   -8.3390   26.7110   50.9776 C   0  0  0  0  0  0
   -9.2308   27.8100   48.5756 C   0  0  0  0  0  0
   -1.8558   30.2117   56.3764 C   0  0  0  0  0  0
   -2.7188   29.2390   58.4588 C   0  0  0  0  0  0
   -7.2455   28.1701   53.3033 C   0  0  0  0  0  0
   -6.9782   26.0033   54.3075 C   0  0  0  0  0  0
   -9.6694   28.3500   47.4170 F   0  0  0  0  0  0
   -3.1390   25.7700   55.3100 O   0  0  0  0  0  0
   -9.6235   26.4306   50.5100 C   0  0  0  0  0  0
   -7.4910   27.5203   50.2152 C   0  0  0  0  0  0
   -7.9391   28.0767   49.0190 C   0  0  0  0  0  0
  -10.0750   26.9873   49.3159 C   0  0  0  0  0  0
   -1.3542   29.8827   58.7171 C   0  0  0  0  0  0
   -1.2292   30.9044   57.5932 C   0  0  0  0  0  0
   -4.3941   30.5868   56.2855 H   0  0  0  0  0  0
   -4.3505   27.3963   55.3893 H   0  0  0  0  0  0
   -6.2224   25.9612   56.3138 H   0  0  0  0  0  0
   -6.6437   29.8412   54.5038 H   0  0  0  0  0  0
   -2.3025   30.9522   55.7102 H   0  0  0  0  0  0
   -1.0593   29.7449   55.7921 H   0  0  0  0  0  0
   -2.8030   28.2597   58.9337 H   0  0  0  0  0  0
   -3.4920   29.8632   58.9105 H   0  0  0  0  0  0
   -7.5392   28.8050   52.4843 H   0  0  0  0  0  0
   -7.0555   24.9291   54.2419 H   0  0  0  0  0  0
   -3.7844   25.2291   55.8046 H   0  0  0  0  0  0
  -10.2692   25.7766   51.0778 H   0  0  0  0  0  0
   -6.4812   27.7184   50.5445 H   0  0  0  0  0  0
   -7.2834   28.7089   48.4373 H   0  0  0  0  0  0
  -11.0745   26.7870   48.9585 H   0  0  0  0  0  0
   -1.2897   30.3395   59.7057 H   0  0  0  0  0  0
   -0.5601   29.1369   58.6445 H   0  0  0  0  0  0
   -1.7926   31.8052   57.8442 H   0  0  0  0  0  0
   -0.1949   31.2033   57.4174 H   0  0  0  0  0  0
  1  3  1  0  0  0
  1  5  1  0  0  0
  1  6  2  0  0  0
  1  7  2  0  0  0
  2  3  1  0  0  0
  2  4  1  0  0  0
  2 16  1  0  0  0
  2 17  1  0  0  0
  3 28  1  0  0  0
  4  8  2  0  0  0
  4  9  1  0  0  0
  5 11  2  0  0  0
  5 12  1  0  0  0
  9 21  1  0  0  0
  9 29  1  0  0  0
 10 13  1  0  0  0
 10 14  1  0  0  0
 11 19  1  0  0  0
 11 30  1  0  0  0
 12 18  2  0  0  0
 12 31  1  0  0  0
 13 18  1  0  0  0
 13 19  2  0  0  0
 14 22  1  0  0  0
 14 23  2  0  0  0
 15 24  2  0  0  0
 15 20  1  0  0  0
 15 25  1  0  0  0
 16 27  1  0  0  0
 16 32  1  0  0  0
 16 33  1  0  0  0
 17 26  1  0  0  0
 17 34  1  0  0  0
 17 35  1  0  0  0
 18 36  1  0  0  0
 19 37  1  0  0  0
 21 38  1  0  0  0
 22 25  2  0  0  0
 22 39  1  0  0  0
 23 24  1  0  0  0
 23 40  1  0  0  0
 24 41  1  0  0  0
 25 42  1  0  0  0
 26 27  1  0  0  0
 26 43  1  0  0  0
 26 44  1  0  0  0
 27 45  1  0  0  0
 27 46  1  0  0  0
M  END
> <s_m_entry_id>
64280

> <s_m_entry_name>
dock_pv.230

> <s_m_Source_Path>
/home/csk/Desktop/cluster/DUD-E-result/mmp13

> <s_m_Source_File>
dock_pv.maegz

> <i_m_Source_File_Index>
230

> <chembl_id>
CHEMBL114815

> <chembl_pref_name>
None

> <i_lp_mmshare_version>
53161

> <i_f3d_flags>
0

> <r_lp_tautomer_probability>
1

> <s_lp_Force_Field>
OPLS_2005

> <r_lp_Energy>
34.472928

> <b_lp_Chiralities_Consistent>
1

> <s_lp_Variant>
CHEMBL280_lig665-1

> <s_i_glide_gridfile>
glide-grid_830c

> <i_i_glide_lignum>
999

> <i_i_glide_rotatable_bonds>
8

> <r_i_docking_score>
-7.02653867949999

> <r_i_glide_ligand_efficiency>
-0.260242173314814

> <r_i_glide_ligand_efficiency_sa>
-0.780726519086728

> <r_i_glide_ligand_efficiency_ln>
-1.63566236304396

> <r_i_glide_gscore>
-7.02653867949999

> <r_i_glide_lipo>
-3.35397519952736

> <r_i_glide_hbond>
0

> <r_i_glide_metal>
0

> <r_i_glide_rewards>
-0.0962666259106175

> <r_i_glide_evdw>
-45.7125549316406

> <r_i_glide_ecoul>
-13.1884145736694

> <r_i_glide_erotb>
0.879452937252218

> <r_i_glide_esite>
-0.191859858681784

> <r_i_glide_emodel>
-79.5251172879682

> <r_i_glide_energy>
-58.9009695053101

> <r_i_glide_einternal>
8.74729156494141

> <i_i_glide_confnum>
225

> <i_i_glide_posenum>
79

> <r_i_glide_eff_state_penalty>
0

> <s_user_duplicate_titles>
CHEMBL280_lig665

> <s_m_subgroup_title>
dock_pv

> <s_m_subgroupid>
dock_pv

> <b_m_subgroup_collapsed>
1

$$$$
CHEMBL280_lig1692
                    3D
 Schrodinger Suite 2021-1.
 43 44  0  0  1  0            999 V2000
   -5.4565   28.6467   57.0893 S   0  0  0  0  0  0
   -6.3390   28.1703   58.1466 O   0  0  0  0  0  0
   -5.1165   30.0695   56.9918 O   0  0  0  0  0  0
   -6.6471   26.2697   53.9311 C   0  0  0  0  0  0
   -6.9592   27.3165   52.9245 N   0  0  0  0  0  0
   -6.3391   28.6134   53.2292 C   0  0  0  0  0  0
   -6.7299   29.0578   54.6382 C   0  0  0  0  0  0
   -6.1222   28.0933   55.5531 N   0  0  0  0  0  0
   -6.6825   26.7299   55.4169 C   0  0  0  0  0  0
   -7.6462   27.1042   51.7354 C   0  0  0  0  0  0
   -8.7687   26.2782   51.7098 C   0  0  0  0  0  0
   -9.5391   26.1700   50.5552 C   0  0  0  0  0  0
   -9.1766   26.8596   49.4041 C   0  0  0  0  0  0
   -8.0365   27.6537   49.3978 C   0  0  0  0  0  0
   -7.2797   27.7701   50.5601 C   0  0  0  0  0  0
   -9.9386   26.7569   48.2922 F   0  0  0  0  0  0
   -3.8941   27.6477   57.2949 C   0  0  0  0  0  0
   -2.9931   27.6766   56.0484 C   0  0  2  0  0  0
   -1.9906   26.6309   56.2267 N   0  0  0  0  0  0
   -2.3909   29.0602   55.7160 C   0  0  0  0  0  0
   -0.9138   26.6982   57.0434 C   0  0  0  0  0  0
   -0.1588   25.7700   57.3101 O   0  0  0  0  0  0
   -2.3374   25.3700   55.7100 O   0  0  0  0  0  0
   -5.5942   26.1089   53.7048 H   0  0  0  0  0  0
   -7.1807   25.3340   53.7628 H   0  0  0  0  0  0
   -6.6272   29.3700   52.5096 H   0  0  0  0  0  0
   -5.2601   28.4841   53.1315 H   0  0  0  0  0  0
   -7.8135   29.0820   54.7589 H   0  0  0  0  0  0
   -6.3386   30.0511   54.8543 H   0  0  0  0  0  0
   -6.1293   26.0313   56.0462 H   0  0  0  0  0  0
   -7.7299   26.7553   55.7099 H   0  0  0  0  0  0
   -9.0878   25.7702   52.6043 H   0  0  0  0  0  0
  -10.4201   25.5503   50.5542 H   0  0  0  0  0  0
   -7.7434   28.1843   48.5034 H   0  0  0  0  0  0
   -6.4064   28.3968   50.5513 H   0  0  0  0  0  0
   -4.2367   26.6330   57.5091 H   0  0  0  0  0  0
   -3.3919   28.0229   58.1862 H   0  0  0  0  0  0
   -3.5970   27.3901   55.1849 H   0  0  0  0  0  0
   -3.1655   29.7699   55.4332 H   0  0  0  0  0  0
   -1.8788   29.5016   56.5715 H   0  0  0  0  0  0
   -1.6896   29.0094   54.8834 H   0  0  0  0  0  0
   -0.8002   27.7070   57.4702 H   0  0  0  0  0  0
   -3.0813   25.0767   56.2593 H   0  0  0  0  0  0
  1  2  2  0  0  0
  1  8  1  0  0  0
  1 17  1  0  0  0
  1  3  2  0  0  0
  4  9  1  0  0  0
  4  5  1  0  0  0
  4 24  1  0  0  0
  4 25  1  0  0  0
  5  6  1  0  0  0
  5 10  1  0  0  0
  6  7  1  0  0  0
  6 26  1  0  0  0
  6 27  1  0  0  0
  7  8  1  0  0  0
  7 28  1  0  0  0
  7 29  1  0  0  0
  8  9  1  0  0  0
  9 30  1  0  0  0
  9 31  1  0  0  0
 10 15  1  0  0  0
 10 11  2  0  0  0
 11 12  1  0  0  0
 11 32  1  0  0  0
 12 13  2  0  0  0
 12 33  1  0  0  0
 13 14  1  0  0  0
 13 16  1  0  0  0
 14 15  2  0  0  0
 14 34  1  0  0  0
 15 35  1  0  0  0
 17 18  1  0  0  0
 17 36  1  0  0  0
 17 37  1  0  0  0
 18 19  1  0  0  0
 18 20  1  0  0  0
 18 38  1  0  0  0
 19 21  1  0  0  0
 19 23  1  0  0  0
 20 39  1  0  0  0
 20 40  1  0  0  0
 20 41  1  0  0  0
 21 22  2  0  0  0
 21 42  1  0  0  0
 23 43  1  0  0  0
M  END
> <s_m_entry_id>
64281

> <s_m_entry_name>
dock_pv.231

> <s_m_Source_Path>
/home/csk/Desktop/cluster/DUD-E-result/mmp13

> <s_m_Source_File>
dock_pv.maegz

> <i_m_Source_File_Index>
231

> <chembl_id>
CHEMBL1784368

> <chembl_pref_name>
None

> <i_lp_mmshare_version>
53161

> <i_f3d_flags>
0

> <r_lp_tautomer_probability>
1

> <s_lp_Force_Field>
OPLS_2005

> <r_lp_Energy>
32.930404

> <b_lp_Chiralities_Consistent>
1

> <s_lp_Variant>
CHEMBL280_lig1692-1

> <s_i_glide_gridfile>
glide-grid_830c

> <i_i_glide_lignum>
2438

> <i_i_glide_rotatable_bonds>
7

> <r_i_docking_score>
-7.02174032826611

> <r_i_glide_ligand_efficiency>
-0.3052930577507

> <r_i_glide_ligand_efficiency_sa>
-0.868212845207708

> <r_i_glide_ligand_efficiency_ln>
-1.69792048099588

> <r_i_glide_gscore>
-7.02174032826611

> <r_i_glide_lipo>
-2.55935528720007

> <r_i_glide_hbond>
-0.32

> <r_i_glide_metal>
0

> <r_i_glide_rewards>
-1.05390570875836

> <r_i_glide_evdw>
-36.6176223754883

> <r_i_glide_ecoul>
-12.5243797302246

> <r_i_glide_erotb>
0.796313902500561

> <r_i_glide_esite>
-0.175255156500137

> <r_i_glide_emodel>
-68.3297714781239

> <r_i_glide_energy>
-49.1420021057129

> <r_i_glide_einternal>
10.4487714767456

> <i_i_glide_confnum>
143

> <i_i_glide_posenum>
48

> <r_i_glide_eff_state_penalty>
0

> <s_user_duplicate_titles>
CHEMBL280_lig1692

> <s_m_subgroup_title>
dock_pv

> <s_m_subgroupid>
dock_pv

> <b_m_subgroup_collapsed>
1

$$$$
CHEMBL280_lig887
                    3D
 Schrodinger Suite 2021-1.
 51 53  0  0  1  0            999 V2000
   -3.9017   28.8466   56.9478 C   0  0  2  0  0  0
   -2.7114   28.4060   56.0486 C   0  0  0  0  0  0
   -4.2334   27.7663   58.0281 C   0  0  0  0  0  0
   -3.2013   26.9703   58.4007 N   0  0  0  0  0  0
   -1.9407   26.8279   57.9351 C   0  0  0  0  0  0
   -1.5149   27.7986   56.8075 C   0  0  2  0  0  0
   -5.0825   29.1609   56.1799 O   0  0  0  0  0  0
   -2.7391   28.4240   54.8172 O   0  0  0  0  0  0
   -5.3533   27.5992   58.5102 O   0  0  0  0  0  0
   -1.1948   25.9533   58.3700 O   0  0  0  0  0  0
   -3.5922   30.2117   57.6558 C   0  0  0  0  0  0
   -0.6925   28.8450   57.4116 N   0  0  0  0  0  0
   -8.0101   26.0448   52.6322 O   0  0  0  0  0  0
   -5.7969   28.2932   55.3711 C   0  0  0  0  0  0
   -7.3002   26.7950   53.5478 C   0  0  0  0  0  0
   -8.3232   26.5449   51.3817 C   0  0  0  0  0  0
   -9.0289   27.4741   48.8495 C   0  0  0  0  0  0
   -9.3763   27.9255   47.6240 F   0  0  0  0  0  0
   -6.7917   28.9002   54.6107 C   0  0  0  0  0  0
   -5.5860   26.9128   55.2468 C   0  0  0  0  0  0
   -9.5388   26.1704   50.8101 C   0  0  0  0  0  0
   -7.4500   27.3703   50.6604 C   0  0  0  0  0  0
   -7.5390   28.1582   53.7097 C   0  0  0  0  0  0
   -6.3469   26.1685   54.3474 C   0  0  0  0  0  0
   -9.8984   26.6463   49.5510 C   0  0  0  0  0  0
   -7.8041   27.8346   49.3980 C   0  0  0  0  0  0
   -5.8834   31.2575   57.7228 O   0  0  0  0  0  0
   -4.7324   30.8787   58.4760 C   0  0  0  0  0  0
   -5.6786   32.2668   56.7415 C   0  0  0  0  0  0
   -7.0467   32.7224   56.2292 C   0  0  0  0  0  0
   -3.4604   26.2679   59.0821 H   0  0  0  0  0  0
   -0.9164   27.2147   56.1100 H   0  0  0  0  0  0
   -3.2304   30.9310   56.9196 H   0  0  0  0  0  0
   -2.7593   30.0887   58.3472 H   0  0  0  0  0  0
   -0.0584   28.4293   58.0857 H   0  0  0  0  0  0
   -0.0912   29.2804   56.7233 H   0  0  0  0  0  0
   -6.9624   29.9600   54.7042 H   0  0  0  0  0  0
   -4.8411   26.3936   55.8283 H   0  0  0  0  0  0
  -10.2086   25.5164   51.3494 H   0  0  0  0  0  0
   -6.4921   27.6537   51.0725 H   0  0  0  0  0  0
   -8.3004   28.6330   53.1149 H   0  0  0  0  0  0
   -6.1832   25.1053   54.2583 H   0  0  0  0  0  0
  -10.8402   26.3762   49.1031 H   0  0  0  0  0  0
   -7.1290   28.4757   48.8490 H   0  0  0  0  0  0
   -5.0629   30.2070   59.2700 H   0  0  0  0  0  0
   -4.3494   31.7593   58.9943 H   0  0  0  0  0  0
   -5.0839   31.8790   55.9146 H   0  0  0  0  0  0
   -5.1422   33.1185   57.1620 H   0  0  0  0  0  0
   -6.9430   33.4729   55.4462 H   0  0  0  0  0  0
   -7.6129   31.8887   55.8186 H   0  0  0  0  0  0
   -7.6380   33.1569   57.0349 H   0  0  0  0  0  0
  1  2  1  0  0  0
  1  3  1  0  0  0
  1  7  1  0  0  0
  1 11  1  0  0  0
  2  6  1  0  0  0
  2  8  2  0  0  0
  3  4  1  0  0  0
  3  9  2  0  0  0
  4  5  1  0  0  0
  4 31  1  0  0  0
  5 10  2  0  0  0
  5  6  1  0  0  0
  6 12  1  0  0  0
  6 32  1  0  0  0
  7 14  1  0  0  0
 11 28  1  0  0  0
 11 33  1  0  0  0
 11 34  1  0  0  0
 12 35  1  0  0  0
 12 36  1  0  0  0
 13 15  1  0  0  0
 13 16  1  0  0  0
 14 19  2  0  0  0
 14 20  1  0  0  0
 15 24  1  0  0  0
 15 23  2  0  0  0
 16 21  1  0  0  0
 16 22  2  0  0  0
 17 26  2  0  0  0
 17 18  1  0  0  0
 17 25  1  0  0  0
 19 23  1  0  0  0
 19 37  1  0  0  0
 20 24  2  0  0  0
 20 38  1  0  0  0
 21 25  2  0  0  0
 21 39  1  0  0  0
 22 26  1  0  0  0
 22 40  1  0  0  0
 23 41  1  0  0  0
 24 42  1  0  0  0
 25 43  1  0  0  0
 26 44  1  0  0  0
 27 28  1  0  0  0
 27 29  1  0  0  0
 28 45  1  0  0  0
 28 46  1  0  0  0
 29 30  1  0  0  0
 29 47  1  0  0  0
 29 48  1  0  0  0
 30 49  1  0  0  0
 30 50  1  0  0  0
 30 51  1  0  0  0
M  END
> <s_m_entry_id>
64282

> <s_m_entry_name>
dock_pv.232

> <s_m_Source_Path>
/home/csk/Desktop/cluster/DUD-E-result/mmp13

> <s_m_Source_File>
dock_pv.maegz

> <i_m_Source_File_Index>
232

> <chembl_id>
CHEMBL360916

> <chembl_pref_name>
None

> <i_lp_mmshare_version>
53161

> <i_f3d_flags>
0

> <r_lp_tautomer_probability>
1

> <s_lp_Force_Field>
OPLS_2005

> <r_lp_Energy>
31.071181

> <b_lp_Chiralities_Consistent>
1

> <s_lp_Variant>
CHEMBL280_lig887-3

> <s_i_glide_gridfile>
glide-grid_830c

> <i_i_glide_lignum>
1439

> <i_i_glide_rotatable_bonds>
8

> <r_i_docking_score>
-7.01801020500034

> <r_i_glide_ligand_efficiency>
-0.233933673500011

> <r_i_glide_ligand_efficiency_sa>
-0.726886313712338

> <r_i_glide_ligand_efficiency_ln>
-1.59456838592182

> <r_i_glide_gscore>
-7.01801020500034

> <r_i_glide_lipo>
-3.05170983945072

> <r_i_glide_hbond>
-0.557606955412151

> <r_i_glide_metal>
0

> <r_i_glide_rewards>
-0.610520837934265

> <r_i_glide_evdw>
-50.5276908874512

> <r_i_glide_ecoul>
-6.37581920623779

> <r_i_glide_erotb>
0.797568223358255

> <r_i_glide_esite>
-0.112983370253241

> <r_i_glide_emodel>
-79.0446233619739

> <r_i_glide_energy>
-56.903510093689

> <r_i_glide_einternal>
0.892886579036713

> <i_i_glide_confnum>
20

> <i_i_glide_posenum>
38

> <r_i_glide_eff_state_penalty>
0

> <s_user_duplicate_titles>
CHEMBL280_lig887

> <s_m_subgroup_title>
dock_pv

> <s_m_subgroupid>
dock_pv

> <b_m_subgroup_collapsed>
1

$$$$
CHEMBL280_lig667
                    3D
 Schrodinger Suite 2021-1.
 53 56  0  0  1  0            999 V2000
   -5.9389   28.7780   57.0870 S   0  0  0  0  0  0
   -3.0938   29.2265   56.7901 C   0  0  0  0  0  0
   -4.4772   29.7519   56.8960 N   0  0  1  0  0  0
   -2.9893   28.0542   55.7621 C   0  0  0  0  0  0
   -6.3099   28.0732   55.4836 C   0  0  0  0  0  0
   -8.1015   26.9260   50.9011 C   0  0  0  0  0  0
   -5.6804   27.6882   58.0365 O   0  0  0  0  0  0
   -6.9926   29.7700   57.3099 O   0  0  0  0  0  0
   -6.8735   26.9637   51.5216 O   0  0  0  0  0  0
   -8.3276   27.5397   49.6273 C   0  0  0  0  0  0
   -2.7401   28.2677   54.5700 O   0  0  0  0  0  0
   -3.1977   26.8119   56.2270 N   0  0  0  0  0  0
   -2.2408   30.4465   56.3471 C   0  0  0  0  0  0
   -2.6210   28.8429   58.2200 C   0  0  0  0  0  0
   -0.4014   29.7160   57.7596 O   0  0  0  0  0  0
   -6.4380   26.7040   55.2081 C   0  0  0  0  0  0
   -6.4795   28.9971   54.4706 C   0  0  0  0  0  0
   -6.7750   27.2468   52.8639 C   0  0  0  0  0  0
   -9.6232   27.5150   49.0341 C   0  0  0  0  0  0
   -6.6783   26.2908   53.8866 C   0  0  0  0  0  0
   -6.6889   28.5788   53.1749 C   0  0  0  0  0  0
   -3.1390   25.7700   55.3100 O   0  0  0  0  0  0
   -9.1390   26.2302   51.4963 C   0  0  0  0  0  0
   -1.1002   28.5628   58.2388 C   0  0  0  0  0  0
   -0.7306   30.1310   56.4303 C   0  0  0  0  0  0
  -10.3778   26.1700   50.8936 C   0  0  0  0  0  0
   -7.3135   28.1916   48.9183 C   0  0  0  0  0  0
  -10.6465   26.8437   49.7100 C   0  0  0  0  0  0
   -9.8538   28.1547   47.7886 C   0  0  0  0  0  0
   -7.5502   28.8381   47.7103 C   0  0  0  0  0  0
   -8.8159   28.8181   47.1435 C   0  0  0  0  0  0
   -4.6306   30.6133   56.3656 H   0  0  0  0  0  0
   -3.3750   26.5116   57.1796 H   0  0  0  0  0  0
   -2.4443   31.3090   56.9853 H   0  0  0  0  0  0
   -2.5011   30.7628   55.3355 H   0  0  0  0  0  0
   -3.1636   27.9863   58.6193 H   0  0  0  0  0  0
   -2.8315   29.6623   58.9099 H   0  0  0  0  0  0
   -6.3262   25.9697   55.9940 H   0  0  0  0  0  0
   -6.3876   30.0551   54.6716 H   0  0  0  0  0  0
   -6.7402   25.2386   53.6504 H   0  0  0  0  0  0
   -6.7300   29.3058   52.3835 H   0  0  0  0  0  0
   -3.9192   25.2179   55.5213 H   0  0  0  0  0  0
   -8.9934   25.7699   52.4576 H   0  0  0  0  0  0
   -0.7714   28.3581   59.2581 H   0  0  0  0  0  0
   -0.8349   27.6853   57.6469 H   0  0  0  0  0  0
   -0.1503   31.0230   56.1924 H   0  0  0  0  0  0
   -0.4330   29.3701   55.7098 H   0  0  0  0  0  0
  -11.1712   25.6296   51.3854 H   0  0  0  0  0  0
   -6.3390   28.1700   49.3460 H   0  0  0  0  0  0
  -11.6349   26.8272   49.2786 H   0  0  0  0  0  0
  -10.8391   28.1306   47.3455 H   0  0  0  0  0  0
   -6.7413   29.3455   47.2087 H   0  0  0  0  0  0
   -8.9877   29.3136   46.1988 H   0  0  0  0  0  0
  1  3  1  0  0  0
  1  5  1  0  0  0
  1  7  2  0  0  0
  1  8  2  0  0  0
  2  3  1  0  0  0
  2  4  1  0  0  0
  2 13  1  0  0  0
  2 14  1  0  0  0
  3 32  1  0  0  0
  4 11  2  0  0  0
  4 12  1  0  0  0
  5 16  2  0  0  0
  5 17  1  0  0  0
  6  9  1  0  0  0
  6 10  1  0  0  0
  6 23  2  0  0  0
  9 18  1  0  0  0
 10 19  1  0  0  0
 10 27  2  0  0  0
 12 22  1  0  0  0
 12 33  1  0  0  0
 13 25  1  0  0  0
 13 34  1  0  0  0
 13 35  1  0  0  0
 14 24  1  0  0  0
 14 36  1  0  0  0
 14 37  1  0  0  0
 15 24  1  0  0  0
 15 25  1  0  0  0
 16 20  1  0  0  0
 16 38  1  0  0  0
 17 21  2  0  0  0
 17 39  1  0  0  0
 18 21  1  0  0  0
 18 20  2  0  0  0
 19 29  2  0  0  0
 19 28  1  0  0  0
 20 40  1  0  0  0
 21 41  1  0  0  0
 22 42  1  0  0  0
 23 26  1  0  0  0
 23 43  1  0  0  0
 24 44  1  0  0  0
 24 45  1  0  0  0
 25 46  1  0  0  0
 25 47  1  0  0  0
 26 28  2  0  0  0
 26 48  1  0  0  0
 27 30  1  0  0  0
 27 49  1  0  0  0
 28 50  1  0  0  0
 29 31  1  0  0  0
 29 51  1  0  0  0
 30 31  2  0  0  0
 30 52  1  0  0  0
 31 53  1  0  0  0
M  END
> <s_m_entry_id>
64283

> <s_m_entry_name>
dock_pv.233

> <s_m_Source_Path>
/home/csk/Desktop/cluster/DUD-E-result/mmp13

> <s_m_Source_File>
dock_pv.maegz

> <i_m_Source_File_Index>
233

> <chembl_id>
CHEMBL324555

> <chembl_pref_name>
None

> <i_lp_mmshare_version>
53161

> <i_f3d_flags>
0

> <r_lp_tautomer_probability>
1

> <s_lp_Force_Field>
OPLS_2005

> <r_lp_Energy>
28.532766

> <b_lp_Chiralities_Consistent>
1

> <s_lp_Variant>
CHEMBL280_lig667-1

> <s_i_glide_gridfile>
glide-grid_830c

> <i_i_glide_lignum>
1001

> <i_i_glide_rotatable_bonds>
8

> <r_i_docking_score>
-6.99784263176354

> <r_i_glide_ligand_efficiency>
-0.225736859089146

> <r_i_glide_ligand_efficiency_sa>
-0.709125400862537

> <r_i_glide_ligand_efficiency_ln>
-1.5782279715839

> <r_i_glide_gscore>
-6.99784263176354

> <r_i_glide_lipo>
-4.06437837520639

> <r_i_glide_hbond>
0

> <r_i_glide_metal>
0

> <r_i_glide_rewards>
0.341471947405943

> <r_i_glide_evdw>
-35.0502471923828

> <r_i_glide_ecoul>
-13.6302633285522

> <r_i_glide_erotb>
0.714457285208652

> <r_i_glide_esite>
-0.192341630269764

> <r_i_glide_emodel>
-60.4249870830178

> <r_i_glide_energy>
-48.6805105209351

> <r_i_glide_einternal>
10.9042844772339

> <i_i_glide_confnum>
22

> <i_i_glide_posenum>
195

> <r_i_glide_eff_state_penalty>
0

> <s_user_duplicate_titles>
CHEMBL280_lig667

> <s_m_subgroup_title>
dock_pv

> <s_m_subgroupid>
dock_pv

> <b_m_subgroup_collapsed>
1

$$$$
CHEMBL280_lig1165
                    3D
 Schrodinger Suite 2021-1.
 55 58  0  0  1  0            999 V2000
   -7.6138   27.0793   52.1396 C   0  0  0  0  0  0
   -7.1930   27.7690   51.0038 C   0  0  0  0  0  0
   -7.9080   27.6414   49.8116 C   0  0  0  0  0  0
   -9.1339   26.9536   49.7556 C   0  0  0  0  0  0
   -9.5261   26.2588   50.8916 C   0  0  0  0  0  0
   -8.7429   26.2806   52.0365 C   0  0  0  0  0  0
  -10.1110   26.9215   48.5452 C   0  0  0  0  0  0
   -9.7378   27.4820   47.1597 C   0  0  0  0  0  0
   -9.9298   26.6726   46.0262 C   0  0  0  0  0  0
   -9.5114   27.1273   44.7825 C   0  0  0  0  0  0
   -9.0098   28.3605   44.5588 N   0  0  0  0  0  0
   -9.4658   26.1949   43.5840 C   0  0  0  0  0  0
   -9.2190   28.8062   46.9573 C   0  0  0  0  0  0
   -8.8742   29.1899   45.6231 C   0  0  0  0  0  0
   -8.3465   30.4748   45.3705 C   0  0  0  0  0  0
   -8.1000   31.3546   46.4094 C   0  0  0  0  0  0
   -8.4026   30.9963   47.7094 C   0  0  0  0  0  0
   -9.0178   29.7687   47.9819 C   0  0  0  0  0  0
   -6.9258   27.1208   53.4846 C   0  0  0  0  0  0
   -6.7590   26.0647   54.1126 O   0  0  0  0  0  0
   -6.7003   28.3255   54.0603 N   0  0  0  0  0  0
   -6.5641   28.5148   55.5243 C   0  0  2  0  0  0
   -7.1769   29.8461   55.9625 C   0  0  0  0  0  0
   -6.0165   30.8234   56.1758 C   0  0  0  0  0  0
   -4.7447   29.9788   56.3911 C   0  0  0  0  0  0
   -5.1722   28.5144   56.1963 C   0  0  2  0  0  0
   -4.0933   27.6391   55.5169 C   0  0  0  0  0  0
   -3.5832   26.6773   56.2925 N   0  0  0  0  0  0
   -3.7462   27.8161   54.3498 O   0  0  0  0  0  0
   -2.7275   25.7645   55.7093 O   0  0  0  0  0  0
   -6.3255   28.3969   51.0103 H   0  0  0  0  0  0
   -7.4923   28.1154   48.9399 H   0  0  0  0  0  0
  -10.4517   25.7093   50.8932 H   0  0  0  0  0  0
   -9.1180   25.7662   52.9112 H   0  0  0  0  0  0
  -10.3623   25.8679   48.3901 H   0  0  0  0  0  0
  -11.0712   27.3696   48.8291 H   0  0  0  0  0  0
  -10.3417   25.6887   46.1262 H   0  0  0  0  0  0
   -9.1370   25.1936   43.8523 H   0  0  0  0  0  0
  -10.4387   26.1791   43.1081 H   0  0  0  0  0  0
   -8.7242   26.5343   42.8675 H   0  0  0  0  0  0
   -8.1030   30.7453   44.3519 H   0  0  0  0  0  0
   -7.6843   32.3222   46.1946 H   0  0  0  0  0  0
   -8.2488   31.7094   48.5077 H   0  0  0  0  0  0
   -9.3356   29.5676   48.9907 H   0  0  0  0  0  0
   -6.6156   29.1359   53.4719 H   0  0  0  0  0  0
   -7.1343   27.7281   56.0113 H   0  0  0  0  0  0
   -7.9668   30.2157   55.3043 H   0  0  0  0  0  0
   -7.6480   29.7352   56.9375 H   0  0  0  0  0  0
   -5.9327   31.4723   55.3095 H   0  0  0  0  0  0
   -6.1997   31.4836   57.0259 H   0  0  0  0  0  0
   -4.3573   30.1344   57.3976 H   0  0  0  0  0  0
   -3.9494   30.2949   55.7100 H   0  0  0  0  0  0
   -5.3279   28.1121   57.2037 H   0  0  0  0  0  0
   -3.8696   26.4167   57.2400 H   0  0  0  0  0  0
   -3.2755   24.9448   55.7219 H   0  0  0  0  0  0
  1  2  2  0  0  0
  1  6  1  0  0  0
  1 19  1  0  0  0
  2  3  1  0  0  0
  2 31  1  0  0  0
  3  4  2  0  0  0
  3 32  1  0  0  0
  4  7  1  0  0  0
  4  5  1  0  0  0
  5  6  2  0  0  0
  5 33  1  0  0  0
  6 34  1  0  0  0
  7  8  1  0  0  0
  7 35  1  0  0  0
  7 36  1  0  0  0
  8  9  2  0  0  0
  8 13  1  0  0  0
  9 10  1  0  0  0
  9 37  1  0  0  0
 10 11  2  0  0  0
 10 12  1  0  0  0
 11 14  1  0  0  0
 12 38  1  0  0  0
 12 39  1  0  0  0
 12 40  1  0  0  0
 13 18  1  0  0  0
 13 14  2  0  0  0
 14 15  1  0  0  0
 15 16  2  0  0  0
 15 41  1  0  0  0
 16 17  1  0  0  0
 16 42  1  0  0  0
 17 18  2  0  0  0
 17 43  1  0  0  0
 18 44  1  0  0  0
 19 20  2  0  0  0
 19 21  1  0  0  0
 21 22  1  0  0  0
 21 45  1  0  0  0
 22 23  1  0  0  0
 22 26  1  0  0  0
 22 46  1  0  0  0
 23 24  1  0  0  0
 23 47  1  0  0  0
 23 48  1  0  0  0
 24 25  1  0  0  0
 24 49  1  0  0  0
 24 50  1  0  0  0
 25 26  1  0  0  0
 25 51  1  0  0  0
 25 52  1  0  0  0
 26 27  1  0  0  0
 26 53  1  0  0  0
 27 28  1  0  0  0
 27 29  2  0  0  0
 28 30  1  0  0  0
 28 54  1  0  0  0
 30 55  1  0  0  0
M  END
> <s_m_entry_id>
64284

> <s_m_entry_name>
dock_pv.234

> <s_m_Source_Path>
/home/csk/Desktop/cluster/DUD-E-result/mmp13

> <s_m_Source_File>
dock_pv.maegz

> <i_m_Source_File_Index>
234

> <chembl_id>
CHEMBL401454

> <chembl_pref_name>
None

> <i_lp_mmshare_version>
53161

> <i_f3d_flags>
0

> <r_lp_tautomer_probability>
1

> <s_lp_Force_Field>
OPLS_2005

> <r_lp_Energy>
34.973294

> <b_lp_Chiralities_Consistent>
1

> <s_lp_Variant>
CHEMBL280_lig1165-1

> <s_i_glide_gridfile>
glide-grid_830c

> <i_i_glide_lignum>
1855

> <i_i_glide_rotatable_bonds>
8

> <r_i_docking_score>
-6.99493536190418

> <r_i_glide_ligand_efficiency>
-0.233164512063473

> <r_i_glide_ligand_efficiency_sa>
-0.724496350297108

> <r_i_glide_ligand_efficiency_ln>
-1.58932553014981

> <r_i_glide_gscore>
-6.99493536190418

> <r_i_glide_lipo>
-3.76912783857688

> <r_i_glide_hbond>
0

> <r_i_glide_metal>
0

> <r_i_glide_rewards>
-0.634094819303115

> <r_i_glide_evdw>
-44.6715469360352

> <r_i_glide_ecoul>
-6.89543581008911

> <r_i_glide_erotb>
0.844252388749326

> <r_i_glide_esite>
-0.168072374458381

> <r_i_glide_emodel>
-41.9967832521047

> <r_i_glide_energy>
-51.5669827461243

> <r_i_glide_einternal>
24.6079349517822

> <i_i_glide_confnum>
124

> <i_i_glide_posenum>
90

> <r_i_glide_eff_state_penalty>
0

> <s_user_duplicate_titles>
CHEMBL280_lig1165

> <s_m_subgroup_title>
dock_pv

> <s_m_subgroupid>
dock_pv

> <b_m_subgroup_collapsed>
1

$$$$
CHEMBL280_lig1333
                    3D
 Schrodinger Suite 2021-1.
 38 41  0  0  1  0            999 V2000
   -7.0421   27.2308   53.9039 C   0  0  0  0  0  0
   -6.0386   26.4347   54.3222 N   0  0  0  0  0  0
   -5.1654   26.9142   55.2396 C   0  0  0  0  0  0
   -7.3233   28.4778   54.3494 N   0  0  0  0  0  0
   -6.5031   28.9158   55.3097 C   0  0  0  0  0  0
   -5.3654   28.2004   55.8114 C   0  0  0  0  0  0
   -4.6523   28.9653   56.8043 C   0  0  0  0  0  0
   -5.2932   30.1722   57.0415 C   0  0  0  0  0  0
   -6.7390   30.4549   56.1100 S   0  0  0  0  0  0
   -3.4363   28.5937   57.5238 C   0  0  0  0  0  0
   -2.0999   29.7056   57.6630 S   0  0  0  0  0  0
   -1.1762   28.5518   58.5678 C   0  0  0  0  0  0
   -1.8729   27.3699   58.7600 C   0  0  0  0  0  0
   -3.1424   27.3990   58.1758 C   0  0  0  0  0  0
   -4.0921   26.1700   55.6502 O   0  0  0  0  0  0
   -8.0524   26.5701   52.6254 S   0  0  0  0  0  0
   -7.6171   27.5256   51.1465 C   0  0  0  0  0  0
   -8.5866   27.3583   50.0000 C   0  0  0  0  0  0
   -9.7066   26.5700   49.7704 C   0  0  0  0  0  0
  -10.1842   26.9014   48.5020 C   0  0  0  0  0  0
   -9.3289   27.8682   47.9944 C   0  0  0  0  0  0
   -8.3629   28.1430   48.9135 O   0  0  0  0  0  0
   -9.3232   28.5697   46.7150 C   0  0  0  0  0  0
  -10.1353   28.3343   45.8172 O   0  0  0  0  0  0
   -8.3393   29.4953   46.6622 O   0  0  0  0  0  0
   -8.1456   30.2849   45.4970 C   0  0  0  0  0  0
   -4.9829   30.9305   57.7465 H   0  0  0  0  0  0
   -0.1837   28.8001   58.9143 H   0  0  0  0  0  0
   -1.4836   26.5215   59.3037 H   0  0  0  0  0  0
   -3.8312   26.5700   58.2203 H   0  0  0  0  0  0
   -4.3390   25.2207   55.7100 H   0  0  0  0  0  0
   -6.6160   27.2323   50.8365 H   0  0  0  0  0  0
   -7.5372   28.5705   51.4288 H   0  0  0  0  0  0
  -10.1273   25.8421   50.4490 H   0  0  0  0  0  0
  -11.0495   26.4863   48.0056 H   0  0  0  0  0  0
   -7.2938   30.9503   45.6404 H   0  0  0  0  0  0
   -9.0230   30.8974   45.2857 H   0  0  0  0  0  0
   -7.9406   29.6592   44.6267 H   0  0  0  0  0  0
  1  2  2  0  0  0
  1 16  1  0  0  0
  1  4  1  0  0  0
  2  3  1  0  0  0
  3 15  1  0  0  0
  3  6  2  0  0  0
  4  5  2  0  0  0
  5  9  1  0  0  0
  5  6  1  0  0  0
  6  7  1  0  0  0
  7 10  1  0  0  0
  7  8  2  0  0  0
  8  9  1  0  0  0
  8 27  1  0  0  0
 10 14  2  0  0  0
 10 11  1  0  0  0
 11 12  1  0  0  0
 12 13  2  0  0  0
 12 28  1  0  0  0
 13 14  1  0  0  0
 13 29  1  0  0  0
 14 30  1  0  0  0
 15 31  1  0  0  0
 16 17  1  0  0  0
 17 18  1  0  0  0
 17 32  1  0  0  0
 17 33  1  0  0  0
 18 19  2  0  0  0
 18 22  1  0  0  0
 19 20  1  0  0  0
 19 34  1  0  0  0
 20 21  2  0  0  0
 20 35  1  0  0  0
 21 22  1  0  0  0
 21 23  1  0  0  0
 23 24  2  0  0  0
 23 25  1  0  0  0
 25 26  1  0  0  0
 26 36  1  0  0  0
 26 37  1  0  0  0
 26 38  1  0  0  0
M  END
> <s_m_entry_id>
64285

> <s_m_entry_name>
dock_pv.235

> <s_m_Source_Path>
/home/csk/Desktop/cluster/DUD-E-result/mmp13

> <s_m_Source_File>
dock_pv.maegz

> <i_m_Source_File_Index>
235

> <chembl_id>
CHEMBL503470

> <chembl_pref_name>
None

> <i_lp_mmshare_version>
53161

> <i_f3d_flags>
0

> <r_lp_tautomer_probability>
1

> <s_lp_Force_Field>
OPLS_2005

> <r_lp_Energy>
9.253749

> <b_lp_Chiralities_Consistent>
1

> <s_lp_Variant>
CHEMBL280_lig1333-1

> <s_i_glide_gridfile>
glide-grid_830c

> <i_i_glide_lignum>
2060

> <i_i_glide_rotatable_bonds>
7

> <r_i_docking_score>
-6.99294812907153

> <r_i_glide_ligand_efficiency>
-0.268959543425828

> <r_i_glide_ligand_efficiency_sa>
-0.796791589094316

> <r_i_glide_ligand_efficiency_ln>
-1.6422709223781

> <r_i_glide_gscore>
-6.99294812907153

> <r_i_glide_lipo>
-2.74796986131491

> <r_i_glide_hbond>
-0.16

> <r_i_glide_metal>
0

> <r_i_glide_rewards>
-0.71789605426312

> <r_i_glide_evdw>
-50.4401626586914

> <r_i_glide_ecoul>
-9.63596343994141

> <r_i_glide_erotb>
0.600320435432284

> <r_i_glide_esite>
0

> <r_i_glide_emodel>
-81.911456163515

> <r_i_glide_energy>
-60.0761260986328

> <r_i_glide_einternal>
7.90303182601929

> <i_i_glide_confnum>
16

> <i_i_glide_posenum>
133

> <r_i_glide_eff_state_penalty>
0

> <s_user_duplicate_titles>
CHEMBL280_lig1333

> <s_m_subgroup_title>
dock_pv

> <s_m_subgroupid>
dock_pv

> <b_m_subgroup_collapsed>
1

$$$$
CHEMBL280_lig1180
                    3D
 Schrodinger Suite 2021-1.
 63 65  0  0  1  0            999 V2000
   -3.5908   28.8971   55.5559 C   0  0  0  0  0  0
   -2.7893   29.6850   56.6120 C   0  0  0  0  0  0
   -3.6308   29.7805   57.8232 N   0  0  0  0  0  0
   -4.0626   28.5081   58.4394 C   0  0  0  0  0  0
   -4.8457   27.6959   57.3671 C   0  0  0  0  0  0
   -4.0945   27.4990   56.0011 C   0  0  0  0  0  0
   -2.8193   26.6073   56.1881 C   0  0  0  0  0  0
   -1.9606   26.5712   55.3100 O   0  0  0  0  0  0
   -2.6846   25.8962   57.3099 N   0  0  0  0  0  0
   -1.4374   25.3711   57.6669 O   0  0  0  0  0  0
   -3.8700   30.9630   58.4556 C   0  0  0  0  0  0
   -4.3995   31.0467   59.5631 O   0  0  0  0  0  0
   -3.4838   32.2381   57.7499 C   0  0  0  0  0  0
   -2.2399   32.8157   58.0356 C   0  0  0  0  0  0
   -1.8343   33.9798   57.3851 C   0  0  0  0  0  0
   -2.6696   34.5801   56.4461 C   0  0  0  0  0  0
   -3.9144   34.0213   56.1629 C   0  0  0  0  0  0
   -4.3372   32.8548   56.8099 C   0  0  0  0  0  0
   -5.7161   32.2947   56.4740 C   0  0  0  0  0  0
   -4.9364   26.8539   54.8509 C   0  0  0  0  0  0
   -6.7385   27.4323   54.7888 S   0  0  0  0  0  0
   -7.2593   27.1465   53.1058 C   0  0  0  0  0  0
   -6.8056   28.8861   54.9704 O   0  0  0  0  0  0
   -7.5141   26.5369   55.6510 O   0  0  0  0  0  0
   -6.6802   27.8878   52.0806 C   0  0  0  0  0  0
   -7.1684   27.7705   50.7843 C   0  0  0  0  0  0
   -8.2550   26.9488   50.5102 C   0  0  0  0  0  0
   -8.8044   26.1702   51.5323 C   0  0  0  0  0  0
   -8.3001   26.2653   52.8278 C   0  0  0  0  0  0
   -8.7630   26.9698   49.2055 N   0  0  0  0  0  0
   -9.9828   26.2729   48.8295 C   0  0  0  0  0  0
  -10.3468   26.5709   47.4369 C   0  0  0  0  0  0
  -10.6230   26.8222   46.2741 C   0  0  0  0  0  0
  -10.9233   27.1359   44.8701 C   0  0  0  0  0  0
   -3.0225   28.8528   54.6250 H   0  0  0  0  0  0
   -4.4665   29.4849   55.3104 H   0  0  0  0  0  0
   -1.8741   29.1513   56.8705 H   0  0  0  0  0  0
   -2.5069   30.6484   56.1866 H   0  0  0  0  0  0
   -3.1722   27.9720   58.7666 H   0  0  0  0  0  0
   -4.7080   28.6650   59.3042 H   0  0  0  0  0  0
   -5.7700   28.2505   57.2087 H   0  0  0  0  0  0
   -5.1782   26.7383   57.7710 H   0  0  0  0  0  0
   -3.3945   25.7127   58.0189 H   0  0  0  0  0  0
   -1.1709   25.9122   58.4175 H   0  0  0  0  0  0
   -1.5772   32.3614   58.7589 H   0  0  0  0  0  0
   -0.8720   34.4166   57.6092 H   0  0  0  0  0  0
   -2.3558   35.4824   55.9417 H   0  0  0  0  0  0
   -4.5530   34.5052   55.4388 H   0  0  0  0  0  0
   -6.2339   32.8854   55.7176 H   0  0  0  0  0  0
   -5.6349   31.2746   56.1018 H   0  0  0  0  0  0
   -6.3378   32.2643   57.3695 H   0  0  0  0  0  0
   -5.0042   25.7700   54.9297 H   0  0  0  0  0  0
   -4.5197   27.0878   53.8740 H   0  0  0  0  0  0
   -5.8798   28.5830   52.2853 H   0  0  0  0  0  0
   -6.7400   28.3796   50.0019 H   0  0  0  0  0  0
   -9.6322   25.5055   51.3368 H   0  0  0  0  0  0
   -8.7388   25.6887   53.6253 H   0  0  0  0  0  0
   -8.3019   27.5367   48.5069 H   0  0  0  0  0  0
  -10.8099   26.5798   49.4712 H   0  0  0  0  0  0
   -9.8589   25.1942   48.9338 H   0  0  0  0  0  0
  -11.9539   26.8666   44.6410 H   0  0  0  0  0  0
  -10.2512   26.5786   44.2162 H   0  0  0  0  0  0
  -10.7847   28.2028   44.6937 H   0  0  0  0  0  0
  1  2  1  0  0  0
  1  6  1  0  0  0
  1 35  1  0  0  0
  1 36  1  0  0  0
  2  3  1  0  0  0
  2 37  1  0  0  0
  2 38  1  0  0  0
  3  4  1  0  0  0
  3 11  1  0  0  0
  4  5  1  0  0  0
  4 39  1  0  0  0
  4 40  1  0  0  0
  5  6  1  0  0  0
  5 41  1  0  0  0
  5 42  1  0  0  0
  6 20  1  0  0  0
  6  7  1  0  0  0
  7  8  2  0  0  0
  7  9  1  0  0  0
  9 10  1  0  0  0
  9 43  1  0  0  0
 10 44  1  0  0  0
 11 12  2  0  0  0
 11 13  1  0  0  0
 13 18  1  0  0  0
 13 14  2  0  0  0
 14 15  1  0  0  0
 14 45  1  0  0  0
 15 16  2  0  0  0
 15 46  1  0  0  0
 16 17  1  0  0  0
 16 47  1  0  0  0
 17 18  2  0  0  0
 17 48  1  0  0  0
 18 19  1  0  0  0
 19 49  1  0  0  0
 19 50  1  0  0  0
 19 51  1  0  0  0
 20 21  1  0  0  0
 20 52  1  0  0  0
 20 53  1  0  0  0
 21 22  1  0  0  0
 21 23  2  0  0  0
 21 24  2  0  0  0
 22 25  2  0  0  0
 22 29  1  0  0  0
 25 26  1  0  0  0
 25 54  1  0  0  0
 26 27  2  0  0  0
 26 55  1  0  0  0
 27 28  1  0  0  0
 27 30  1  0  0  0
 28 29  2  0  0  0
 28 56  1  0  0  0
 29 57  1  0  0  0
 30 31  1  0  0  0
 30 58  1  0  0  0
 31 32  1  0  0  0
 31 59  1  0  0  0
 31 60  1  0  0  0
 32 33  3  0  0  0
 33 34  1  0  0  0
 34 61  1  0  0  0
 34 62  1  0  0  0
 34 63  1  0  0  0
M  END
> <s_m_entry_id>
64286

> <s_m_entry_name>
dock_pv.236

> <s_m_Source_Path>
/home/csk/Desktop/cluster/DUD-E-result/mmp13

> <s_m_Source_File>
dock_pv.maegz

> <i_m_Source_File_Index>
236

> <chembl_id>
CHEMBL236400

> <chembl_pref_name>
None

> <i_lp_mmshare_version>
53161

> <i_f3d_flags>
0

> <r_lp_tautomer_probability>
1

> <s_lp_Force_Field>
OPLS_2005

> <r_lp_Energy>
58.879428

> <b_lp_Chiralities_Consistent>
1

> <s_lp_Variant>
CHEMBL280_lig1180-1

> <s_i_glide_gridfile>
glide-grid_830c

> <i_i_glide_lignum>
1872

> <i_i_glide_rotatable_bonds>
11

> <r_i_docking_score>
-6.98585579524115

> <r_i_glide_ligand_efficiency>
-0.205466346918857

> <r_i_glide_ligand_efficiency_sa>
-0.665631201461285

> <r_i_glide_ligand_efficiency_ln>
-1.54337149178667

> <r_i_glide_gscore>
-6.98585579524115

> <r_i_glide_lipo>
-3.03037601289844

> <r_i_glide_hbond>
-0.290384368476241

> <r_i_glide_metal>
0

> <r_i_glide_rewards>
-0.0771858686145595

> <r_i_glide_evdw>
-37.3119277954102

> <r_i_glide_ecoul>
-15.9364366531372

> <r_i_glide_erotb>
0.868152342489178

> <r_i_glide_esite>
-0.2

> <r_i_glide_emodel>
-74.6675919327905

> <r_i_glide_energy>
-53.2483644485474

> <r_i_glide_einternal>
7.97247648239136

> <i_i_glide_confnum>
10

> <i_i_glide_posenum>
180

> <r_i_glide_eff_state_penalty>
0

> <s_user_duplicate_titles>
CHEMBL280_lig1180,402555

> <s_m_subgroup_title>
dock_pv

> <s_m_subgroupid>
dock_pv

> <b_m_subgroup_collapsed>
1

$$$$
CHEMBL280_lig1387
                    3D
 Schrodinger Suite 2021-1.
 44 45  0  0  1  0            999 V2000
   -3.4103   28.5722   57.2257 C   0  0  0  0  0  0
   -5.3161   28.3815   57.5582 S   0  0  0  0  0  0
   -2.7941   27.1961   56.8398 C   0  0  0  0  0  0
   -3.1290   29.6151   56.1092 C   0  0  0  0  0  0
   -3.4280   31.0774   56.5100 C   0  0  0  0  0  0
   -2.7748   31.4534   57.7639 N   0  0  2  0  0  0
   -3.0500   30.5477   58.8800 C   0  0  0  0  0  0
   -2.7159   29.0877   58.5099 C   0  0  0  0  0  0
   -1.9390   26.6528   57.5470 O   0  0  0  0  0  0
   -3.2353   26.6319   55.7041 N   0  0  0  0  0  0
   -2.7390   25.3700   55.3736 O   0  0  0  0  0  0
   -6.0448   27.8636   55.9972 C   0  0  0  0  0  0
   -5.9011   29.6950   57.8425 O   0  0  0  0  0  0
   -5.5371   27.2872   58.5100 O   0  0  0  0  0  0
   -6.3342   26.5203   55.7514 C   0  0  0  0  0  0
   -6.8295   26.1413   54.5063 C   0  0  0  0  0  0
   -7.0516   27.0829   53.5024 C   0  0  0  0  0  0
   -6.7784   28.4318   53.7698 C   0  0  0  0  0  0
   -6.3060   28.8206   55.0183 C   0  0  0  0  0  0
   -7.5396   26.5971   52.3034 O   0  0  0  0  0  0
   -7.6070   27.4441   51.1561 C   0  0  0  0  0  0
   -8.5574   26.9395   50.1534 C   0  0  0  0  0  0
   -9.3667   26.5774   49.3133 C   0  0  0  0  0  0
  -10.3383   26.1766   48.2849 C   0  0  0  0  0  0
   -2.0926   29.5675   55.7679 H   0  0  0  0  0  0
   -3.6987   29.3700   55.2199 H   0  0  0  0  0  0
   -3.0662   31.7467   55.7277 H   0  0  0  0  0  0
   -4.5003   31.2556   56.5888 H   0  0  0  0  0  0
   -3.0221   32.4014   58.0151 H   0  0  0  0  0  0
   -2.4340   30.8608   59.7235 H   0  0  0  0  0  0
   -4.0879   30.6522   59.1968 H   0  0  0  0  0  0
   -2.9736   28.3985   59.3100 H   0  0  0  0  0  0
   -1.6275   29.0137   58.4487 H   0  0  0  0  0  0
   -4.0543   26.9110   55.1757 H   0  0  0  0  0  0
   -3.4260   24.7512   55.7098 H   0  0  0  0  0  0
   -6.1465   25.7642   56.5031 H   0  0  0  0  0  0
   -7.0237   25.0980   54.3052 H   0  0  0  0  0  0
   -6.9172   29.2030   53.0322 H   0  0  0  0  0  0
   -6.1005   29.8649   55.2074 H   0  0  0  0  0  0
   -6.6208   27.5318   50.6991 H   0  0  0  0  0  0
   -7.9377   28.4526   51.3858 H   0  0  0  0  0  0
  -10.3758   25.0888   48.2293 H   0  0  0  0  0  0
  -10.0278   26.5699   47.3170 H   0  0  0  0  0  0
  -11.3257   26.5701   48.5267 H   0  0  0  0  0  0
  1  4  1  0  0  0
  1  8  1  0  0  0
  1  3  1  0  0  0
  1  2  1  0  0  0
  2 12  1  0  0  0
  2 13  2  0  0  0
  2 14  2  0  0  0
  3  9  2  0  0  0
  3 10  1  0  0  0
  4  5  1  0  0  0
  4 25  1  0  0  0
  4 26  1  0  0  0
  5  6  1  0  0  0
  5 27  1  0  0  0
  5 28  1  0  0  0
  6  7  1  0  0  0
  6 29  1  0  0  0
  7  8  1  0  0  0
  7 30  1  0  0  0
  7 31  1  0  0  0
  8 32  1  0  0  0
  8 33  1  0  0  0
 10 11  1  0  0  0
 10 34  1  0  0  0
 11 35  1  0  0  0
 12 15  2  0  0  0
 12 19  1  0  0  0
 15 16  1  0  0  0
 15 36  1  0  0  0
 16 17  2  0  0  0
 16 37  1  0  0  0
 17 18  1  0  0  0
 17 20  1  0  0  0
 18 19  2  0  0  0
 18 38  1  0  0  0
 19 39  1  0  0  0
 20 21  1  0  0  0
 21 22  1  0  0  0
 21 40  1  0  0  0
 21 41  1  0  0  0
 22 23  3  0  0  0
 23 24  1  0  0  0
 24 42  1  0  0  0
 24 43  1  0  0  0
 24 44  1  0  0  0
M  END
> <s_m_entry_id>
64287

> <s_m_entry_name>
dock_pv.237

> <s_m_Source_Path>
/home/csk/Desktop/cluster/DUD-E-result/mmp13

> <s_m_Source_File>
dock_pv.maegz

> <i_m_Source_File_Index>
237

> <chembl_id>
CHEMBL495629

> <chembl_pref_name>
None

> <i_lp_mmshare_version>
53161

> <i_f3d_flags>
0

> <r_lp_tautomer_probability>
1

> <s_lp_Force_Field>
OPLS_2005

> <r_lp_Energy>
22.846024

> <b_lp_Chiralities_Consistent>
1

> <s_lp_Variant>
CHEMBL280_lig1387-1

> <s_i_glide_gridfile>
glide-grid_830c

> <i_i_glide_lignum>
2114

> <i_i_glide_rotatable_bonds>
8

> <r_i_docking_score>
-6.98408470337401

> <r_i_glide_ligand_efficiency>
-0.29100352930725

> <r_i_glide_ligand_efficiency_sa>
-0.839399429313424

> <r_i_glide_ligand_efficiency_ln>
-1.67161194828176

> <r_i_glide_gscore>
-6.98408470337401

> <r_i_glide_lipo>
-2.65607611751496

> <r_i_glide_hbond>
0

> <r_i_glide_metal>
0

> <r_i_glide_rewards>
-1.04999986344046

> <r_i_glide_evdw>
-30.9414310455322

> <r_i_glide_ecoul>
-17.0631275177002

> <r_i_glide_erotb>
1.07570106186708

> <r_i_glide_esite>
-0.247169104354035

> <r_i_glide_emodel>
-72.0658214504862

> <r_i_glide_energy>
-48.0045585632324

> <r_i_glide_einternal>
3.33719706535339

> <i_i_glide_confnum>
109

> <i_i_glide_posenum>
114

> <r_i_glide_eff_state_penalty>
0

> <s_user_duplicate_titles>
CHEMBL280_lig1387

> <s_m_subgroup_title>
dock_pv

> <s_m_subgroupid>
dock_pv

> <b_m_subgroup_collapsed>
1

$$$$
CHEMBL280_lig254
                    3D
 Schrodinger Suite 2021-1.
 39 41  0  0  1  0            999 V2000
   -3.4394   26.7341   56.2515 C   0  0  0  0  0  0
   -2.8360   27.5253   57.1518 N   0  0  0  0  0  0
   -4.9305   26.6788   56.6405 C   0  0  1  0  0  0
   -3.7062   28.1834   58.1278 C   0  0  1  0  0  0
   -3.9089   29.7029   57.8685 C   0  0  0  0  0  0
   -5.0062   27.3837   58.0004 C   0  0  0  0  0  0
   -5.8593   27.2108   55.5373 C   0  0  0  0  0  0
   -2.8829   26.1700   55.3100 O   0  0  0  0  0  0
   -6.3200   26.3668   54.5100 C   0  0  0  0  0  0
   -4.7390   30.3098   58.5477 O   0  0  0  0  0  0
   -3.2082   30.2772   56.8686 N   0  0  0  0  0  0
   -7.1818   26.8467   53.5126 C   0  0  0  0  0  0
   -7.6338   26.0044   52.5100 O   0  0  0  0  0  0
   -8.1232   26.5233   51.3222 C   0  0  0  0  0  0
   -9.1532   27.6043   48.9659 C   0  0  0  0  0  0
   -9.6641   28.1454   47.8378 F   0  0  0  0  0  0
   -3.4933   31.6034   56.5100 O   0  0  0  0  0  0
   -9.4174   26.2003   50.9100 C   0  0  0  0  0  0
   -7.3407   27.3700   50.5295 C   0  0  0  0  0  0
   -7.8505   27.9015   49.3485 C   0  0  0  0  0  0
   -9.9400   26.7622   49.7450 C   0  0  0  0  0  0
   -6.2727   28.5488   55.5420 C   0  0  0  0  0  0
   -7.1390   29.0291   54.5749 C   0  0  0  0  0  0
   -7.5950   28.1778   53.5819 C   0  0  0  0  0  0
   -1.8363   27.6620   57.1649 H   0  0  0  0  0  0
   -5.2000   25.6348   56.7999 H   0  0  0  0  0  0
   -3.2656   28.0650   59.1167 H   0  0  0  0  0  0
   -5.0235   26.6279   58.7852 H   0  0  0  0  0  0
   -5.9177   27.9608   58.1666 H   0  0  0  0  0  0
   -6.0083   25.3322   54.4867 H   0  0  0  0  0  0
   -2.5609   29.8258   56.2391 H   0  0  0  0  0  0
   -3.9390   31.5185   55.6566 H   0  0  0  0  0  0
  -10.0259   25.5432   51.5127 H   0  0  0  0  0  0
   -6.3389   27.6261   50.8375 H   0  0  0  0  0  0
   -7.2416   28.5595   48.7451 H   0  0  0  0  0  0
  -10.9576   26.5700   49.4421 H   0  0  0  0  0  0
   -5.9560   29.2406   56.3016 H   0  0  0  0  0  0
   -7.4616   30.0587   54.6043 H   0  0  0  0  0  0
   -8.2879   28.5700   52.8591 H   0  0  0  0  0  0
  1  2  1  0  0  0
  1  3  1  0  0  0
  1  8  2  0  0  0
  2  4  1  0  0  0
  2 25  1  0  0  0
  3  6  1  0  0  0
  3  7  1  0  0  0
  3 26  1  0  0  0
  4  5  1  0  0  0
  4  6  1  0  0  0
  4 27  1  0  0  0
  5 10  2  0  0  0
  5 11  1  0  0  0
  6 28  1  0  0  0
  6 29  1  0  0  0
  7  9  2  0  0  0
  7 22  1  0  0  0
  9 12  1  0  0  0
  9 30  1  0  0  0
 11 17  1  0  0  0
 11 31  1  0  0  0
 12 13  1  0  0  0
 12 24  2  0  0  0
 13 14  1  0  0  0
 14 18  1  0  0  0
 14 19  2  0  0  0
 15 20  2  0  0  0
 15 16  1  0  0  0
 15 21  1  0  0  0
 17 32  1  0  0  0
 18 21  2  0  0  0
 18 33  1  0  0  0
 19 20  1  0  0  0
 19 34  1  0  0  0
 20 35  1  0  0  0
 21 36  1  0  0  0
 22 23  2  0  0  0
 22 37  1  0  0  0
 23 24  1  0  0  0
 23 38  1  0  0  0
 24 39  1  0  0  0
M  END
> <s_m_entry_id>
64288

> <s_m_entry_name>
dock_pv.238

> <s_m_Source_Path>
/home/csk/Desktop/cluster/DUD-E-result/mmp13

> <s_m_Source_File>
dock_pv.maegz

> <i_m_Source_File_Index>
238

> <chembl_id>
CHEMBL278368

> <chembl_pref_name>
None

> <i_lp_mmshare_version>
53161

> <i_f3d_flags>
0

> <r_lp_tautomer_probability>
1

> <s_lp_Force_Field>
OPLS_2005

> <r_lp_Energy>
31.421989

> <b_lp_Chiralities_Consistent>
1

> <s_lp_Variant>
CHEMBL280_lig254-1

> <s_i_glide_gridfile>
glide-grid_830c

> <i_i_glide_lignum>
352

> <i_i_glide_rotatable_bonds>
6

> <r_i_docking_score>
-6.98012763041846

> <r_i_glide_ligand_efficiency>
-0.290838651267436

> <r_i_glide_ligand_efficiency_sa>
-0.838923838749776

> <r_i_glide_ligand_efficiency_ln>
-1.67066483914525

> <r_i_glide_gscore>
-6.98012763041846

> <r_i_glide_lipo>
-3.12484391785986

> <r_i_glide_hbond>
0

> <r_i_glide_metal>
0

> <r_i_glide_rewards>
-1.22318025012643

> <r_i_glide_evdw>
-40.5937652587891

> <r_i_glide_ecoul>
-8.8602409362793

> <r_i_glide_erotb>
0.861850605992243

> <r_i_glide_esite>
-0.135229665043063

> <r_i_glide_emodel>
-71.3315091886139

> <r_i_glide_energy>
-49.4540061950684

> <r_i_glide_einternal>
8.08149528503418

> <i_i_glide_confnum>
54

> <i_i_glide_posenum>
55

> <r_i_glide_eff_state_penalty>
0

> <s_user_duplicate_titles>
CHEMBL280_lig254

> <s_m_subgroup_title>
dock_pv

> <s_m_subgroupid>
dock_pv

> <b_m_subgroup_collapsed>
1

$$$$
CHEMBL280_lig940
                    3D
 Schrodinger Suite 2021-1.
 49 51  0  0  1  0            999 V2000
   -6.3081   28.5520   55.8371 S   0  0  0  0  0  0
   -4.3897   28.6873   55.7472 C   0  0  1  0  0  0
   -3.7178   29.4041   56.9577 C   0  0  2  0  0  0
   -4.4803   30.6970   57.3878 C   0  0  0  0  0  0
   -8.5681   27.7090   48.3769 C   0  0  0  0  0  0
   -6.8181   27.8052   54.2859 C   0  0  0  0  0  0
   -6.6804   27.6274   56.9079 O   0  0  0  0  0  0
   -6.8928   29.8968   55.8039 O   0  0  0  0  0  0
   -9.7212   27.3322   47.6726 C   0  0  0  0  0  0
   -5.0732   30.7397   58.4706 O   0  0  0  0  0  0
   -7.9029   28.8841   48.0075 C   0  0  0  0  0  0
   -7.9454   26.8030   49.4374 C   0  0  0  0  0  0
   -4.4943   31.7301   56.5154 N   0  0  0  0  0  0
   -2.4285   29.8370   56.5238 O   0  0  0  0  0  0
   -3.7558   27.2982   55.4773 C   0  0  0  0  0  0
   -3.5351   28.4277   58.1476 C   0  0  0  0  0  0
   -2.8697   27.2380   57.7281 O   0  0  0  0  0  0
   -7.8287   26.8487   54.2390 C   0  0  0  0  0  0
   -6.2846   28.2888   53.0999 C   0  0  0  0  0  0
  -10.1487   28.0782   46.5721 C   0  0  0  0  0  0
   -8.6398   26.8111   50.6771 O   0  0  0  0  0  0
   -8.3491   29.6431   46.9257 C   0  0  0  0  0  0
   -7.9226   27.0833   51.8229 C   0  0  0  0  0  0
  -10.6179   25.9253   48.1100 Cl  0  0  0  0  0  0
   -9.4495   29.2186   46.1817 C   0  0  0  0  0  0
   -8.3511   26.4856   52.9999 C   0  0  0  0  0  0
   -6.8422   27.9623   51.8751 C   0  0  0  0  0  0
   -7.5426   31.1088   46.5095 Cl  0  0  0  0  0  0
   -5.3486   32.8052   56.8014 O   0  0  0  0  0  0
   -3.6136   26.4842   56.7770 C   0  0  0  0  0  0
   -4.2581   29.3553   54.9111 H   0  0  0  0  0  0
   -7.0202   29.2049   48.5425 H   0  0  0  0  0  0
   -6.8849   27.0245   49.5206 H   0  0  0  0  0  0
   -7.9576   25.7790   49.0853 H   0  0  0  0  0  0
   -4.3128   31.6289   55.5217 H   0  0  0  0  0  0
   -1.8233   29.7850   57.2672 H   0  0  0  0  0  0
   -2.7606   27.4528   55.0705 H   0  0  0  0  0  0
   -4.3241   26.7377   54.7349 H   0  0  0  0  0  0
   -4.4850   28.1711   58.6200 H   0  0  0  0  0  0
   -2.9174   28.8962   58.9066 H   0  0  0  0  0  0
   -8.2388   26.4363   55.1525 H   0  0  0  0  0  0
   -5.4668   28.9704   53.1220 H   0  0  0  0  0  0
  -11.0196   27.7682   46.0158 H   0  0  0  0  0  0
   -9.7818   29.7943   45.3312 H   0  0  0  0  0  0
   -9.1391   25.7699   52.9200 H   0  0  0  0  0  0
   -6.4676   28.4564   50.9901 H   0  0  0  0  0  0
   -5.9348   32.4379   57.4761 H   0  0  0  0  0  0
   -3.0883   25.5437   56.6179 H   0  0  0  0  0  0
   -4.5870   26.2062   57.1840 H   0  0  0  0  0  0
  1  2  1  0  0  0
  1  6  1  0  0  0
  1  7  2  0  0  0
  1  8  2  0  0  0
  2  3  1  0  0  0
  2 15  1  0  0  0
  2 31  1  0  0  0
  3  4  1  0  0  0
  3 14  1  0  0  0
  3 16  1  0  0  0
  4 10  2  0  0  0
  4 13  1  0  0  0
  5 12  1  0  0  0
  5  9  2  0  0  0
  5 11  1  0  0  0
  6 18  2  0  0  0
  6 19  1  0  0  0
  9 20  1  0  0  0
  9 24  1  0  0  0
 11 22  2  0  0  0
 11 32  1  0  0  0
 12 21  1  0  0  0
 12 33  1  0  0  0
 12 34  1  0  0  0
 13 29  1  0  0  0
 13 35  1  0  0  0
 14 36  1  0  0  0
 15 30  1  0  0  0
 15 37  1  0  0  0
 15 38  1  0  0  0
 16 17  1  0  0  0
 16 39  1  0  0  0
 16 40  1  0  0  0
 17 30  1  0  0  0
 18 26  1  0  0  0
 18 41  1  0  0  0
 19 27  2  0  0  0
 19 42  1  0  0  0
 20 25  2  0  0  0
 20 43  1  0  0  0
 21 23  1  0  0  0
 22 25  1  0  0  0
 22 28  1  0  0  0
 23 27  1  0  0  0
 23 26  2  0  0  0
 25 44  1  0  0  0
 26 45  1  0  0  0
 27 46  1  0  0  0
 29 47  1  0  0  0
 30 48  1  0  0  0
 30 49  1  0  0  0
M  END
> <s_m_entry_id>
64289

> <s_m_entry_name>
dock_pv.239

> <s_m_Source_Path>
/home/csk/Desktop/cluster/DUD-E-result/mmp13

> <s_m_Source_File>
dock_pv.maegz

> <i_m_Source_File_Index>
239

> <chembl_id>
CHEMBL360704

> <chembl_pref_name>
None

> <i_lp_mmshare_version>
53161

> <i_f3d_flags>
0

> <r_lp_tautomer_probability>
1

> <s_lp_Force_Field>
OPLS_2005

> <r_lp_Energy>
33.44242

> <b_lp_Chiralities_Consistent>
1

> <s_lp_Variant>
CHEMBL280_lig940-1

> <s_i_glide_gridfile>
glide-grid_830c

> <i_i_glide_lignum>
1587

> <i_i_glide_rotatable_bonds>
9

> <r_i_docking_score>
-6.9751915796453

> <r_i_glide_ligand_efficiency>
-0.232506385988177

> <r_i_glide_ligand_efficiency_sa>
-0.722451399565251

> <r_i_glide_ligand_efficiency_ln>
-1.58483952769486

> <r_i_glide_gscore>
-6.9751915796453

> <r_i_glide_lipo>
-3.98923894272854

> <r_i_glide_hbond>
-0.32

> <r_i_glide_metal>
0

> <r_i_glide_rewards>
0.016350870183276

> <r_i_glide_evdw>
-42.7494659423828

> <r_i_glide_ecoul>
-7.64767646789551

> <r_i_glide_erotb>
0.624724004167179

> <r_i_glide_esite>
-0.0224027439637482

> <r_i_glide_emodel>
-66.8630043777947

> <r_i_glide_energy>
-50.3971424102783

> <r_i_glide_einternal>
6.73175382614136

> <i_i_glide_confnum>
166

> <i_i_glide_posenum>
251

> <r_i_glide_eff_state_penalty>
0

> <s_user_duplicate_titles>
CHEMBL280_lig940,308270

> <s_m_subgroup_title>
dock_pv

> <s_m_subgroupid>
dock_pv

> <b_m_subgroup_collapsed>
1

$$$$
CHEMBL280_lig995
                    3D
 Schrodinger Suite 2021-1.
 43 44  0  0  1  0            999 V2000
   -5.4434   28.5037   57.5926 S   0  0  0  0  0  0
   -3.7306   28.9394   57.3211 N   0  0  2  0  0  0
   -2.6406   28.1046   57.9680 C   0  0  1  0  0  0
   -2.2338   26.8964   57.0750 C   0  0  0  0  0  0
   -6.0380   27.9251   56.0038 C   0  0  0  0  0  0
   -6.1917   29.7359   57.8563 O   0  0  0  0  0  0
   -5.5187   27.3621   58.5101 O   0  0  0  0  0  0
   -8.5300   26.9336   50.1699 C   0  0  0  0  0  0
   -9.3416   26.5741   49.3317 C   0  0  0  0  0  0
   -1.1735   26.3004   57.2915 O   0  0  0  0  0  0
   -1.4574   30.3432   58.3794 N   0  0  2  0  0  0
   -3.4853   30.3923   57.0917 C   0  0  0  0  0  0
   -3.0630   26.5191   56.0851 N   0  0  0  0  0  0
   -6.2786   28.8639   55.0041 C   0  0  0  0  0  0
   -6.2857   26.5717   55.7646 C   0  0  0  0  0  0
   -1.3429   28.8871   58.3864 C   0  0  0  0  0  0
   -6.9968   27.0998   53.5050 C   0  0  0  0  0  0
   -6.7324   28.4543   53.7563 C   0  0  0  0  0  0
   -6.7664   26.1707   54.5197 C   0  0  0  0  0  0
   -2.7390   25.3705   55.3555 O   0  0  0  0  0  0
   -7.5808   27.4489   51.1663 C   0  0  0  0  0  0
   -2.0049   30.7880   57.1052 C   0  0  0  0  0  0
   -7.4892   26.6018   52.3122 O   0  0  0  0  0  0
  -10.3172   26.1857   48.3035 C   0  0  0  0  0  0
   -3.0689   27.6384   58.8551 H   0  0  0  0  0  0
   -0.5476   30.7507   58.5449 H   0  0  0  0  0  0
   -3.8710   30.6384   56.1053 H   0  0  0  0  0  0
   -4.0175   30.9714   57.8470 H   0  0  0  0  0  0
   -3.9928   26.8736   55.8983 H   0  0  0  0  0  0
   -6.0935   29.9137   55.1863 H   0  0  0  0  0  0
   -6.1128   25.8278   56.5309 H   0  0  0  0  0  0
   -0.5028   28.6559   57.7263 H   0  0  0  0  0  0
   -1.0055   28.5649   59.3732 H   0  0  0  0  0  0
   -6.8688   29.2164   53.0085 H   0  0  0  0  0  0
   -6.9587   25.1241   54.3334 H   0  0  0  0  0  0
   -3.3662   24.7016   55.7106 H   0  0  0  0  0  0
   -6.6008   27.5595   50.7011 H   0  0  0  0  0  0
   -7.9342   28.4486   51.4019 H   0  0  0  0  0  0
   -1.4535   30.2583   56.3240 H   0  0  0  0  0  0
   -1.8568   31.8585   56.9575 H   0  0  0  0  0  0
  -10.3532   25.0980   48.2362 H   0  0  0  0  0  0
  -10.0101   26.5901   47.3391 H   0  0  0  0  0  0
  -11.3014   26.5812   48.5543 H   0  0  0  0  0  0
  1  2  1  0  0  0
  1  5  1  0  0  0
  1  6  2  0  0  0
  1  7  2  0  0  0
  2  3  1  0  0  0
  2 12  1  0  0  0
  3  4  1  0  0  0
  3 16  1  0  0  0
  3 25  1  0  0  0
  4 10  2  0  0  0
  4 13  1  0  0  0
  5 14  2  0  0  0
  5 15  1  0  0  0
  8 21  1  0  0  0
  8  9  3  0  0  0
  9 24  1  0  0  0
 11 22  1  0  0  0
 11 16  1  0  0  0
 11 26  1  0  0  0
 12 22  1  0  0  0
 12 27  1  0  0  0
 12 28  1  0  0  0
 13 20  1  0  0  0
 13 29  1  0  0  0
 14 18  1  0  0  0
 14 30  1  0  0  0
 15 19  2  0  0  0
 15 31  1  0  0  0
 16 32  1  0  0  0
 16 33  1  0  0  0
 17 19  1  0  0  0
 17 23  1  0  0  0
 17 18  2  0  0  0
 18 34  1  0  0  0
 19 35  1  0  0  0
 20 36  1  0  0  0
 21 23  1  0  0  0
 21 37  1  0  0  0
 21 38  1  0  0  0
 22 39  1  0  0  0
 22 40  1  0  0  0
 24 41  1  0  0  0
 24 42  1  0  0  0
 24 43  1  0  0  0
M  END
> <s_m_entry_id>
64290

> <s_m_entry_name>
dock_pv.240

> <s_m_Source_Path>
/home/csk/Desktop/cluster/DUD-E-result/mmp13

> <s_m_Source_File>
dock_pv.maegz

> <i_m_Source_File_Index>
240

> <chembl_id>
CHEMBL436324

> <chembl_pref_name>
None

> <i_lp_mmshare_version>
53161

> <i_f3d_flags>
0

> <r_lp_tautomer_probability>
1

> <s_lp_Force_Field>
OPLS_2005

> <r_lp_Energy>
20.656302

> <b_lp_Chiralities_Consistent>
1

> <s_lp_Variant>
CHEMBL280_lig995-2

> <s_i_glide_gridfile>
glide-grid_830c

> <i_i_glide_lignum>
1645

> <i_i_glide_rotatable_bonds>
8

> <r_i_docking_score>
-6.9721753575991

> <r_i_glide_ligand_efficiency>
-0.290507306566629

> <r_i_glide_ligand_efficiency_sa>
-0.837968075246064

> <r_i_glide_ligand_efficiency_ln>
-1.66876149535356

> <r_i_glide_gscore>
-6.9721753575991

> <r_i_glide_lipo>
-2.57192971617643

> <r_i_glide_hbond>
-0.142567398671502

> <r_i_glide_metal>
0

> <r_i_glide_rewards>
-0.818485866628727

> <r_i_glide_evdw>
-32.7574157714844

> <r_i_glide_ecoul>
-17.4909019470215

> <r_i_glide_erotb>
1.07035582819405

> <r_i_glide_esite>
-0.248042123689046

> <r_i_glide_emodel>
-66.0302451059655

> <r_i_glide_energy>
-50.2483177185059

> <r_i_glide_einternal>
9.88305854797363

> <i_i_glide_confnum>
56

> <i_i_glide_posenum>
221

> <r_i_glide_eff_state_penalty>
0

> <s_user_duplicate_titles>
CHEMBL280_lig995

> <s_m_subgroup_title>
dock_pv

> <s_m_subgroupid>
dock_pv

> <b_m_subgroup_collapsed>
1

$$$$
CHEMBL280_lig968
                    3D
 Schrodinger Suite 2021-1.
 55 57  0  0  1  0            999 V2000
   -4.7984   28.4472   58.2974 S   0  0  0  0  0  0
   -3.0320   28.4766   58.0871 N   0  0  3  0  0  0
   -2.2910   27.2128   57.7174 C   0  0  2  0  0  0
   -0.8468   27.1793   58.3572 C   0  0  0  0  0  0
   -2.3514   26.9744   56.1798 C   0  0  0  0  0  0
   -2.3348   29.7980   57.9852 C   0  0  0  0  0  0
   -5.5755   28.2286   56.6957 C   0  0  0  0  0  0
   -5.1390   27.2329   59.0363 O   0  0  0  0  0  0
   -5.2111   29.7708   58.7726 O   0  0  0  0  0  0
   -0.1293   28.5089   57.9860 C   0  0  0  0  0  0
   -8.1631   27.0091   50.9249 C   0  0  0  0  0  0
   -2.1148   25.8548   55.7100 O   0  0  0  0  0  0
   -0.8726   29.7650   58.4835 C   0  0  1  0  0  0
   -9.4176   26.6623   50.4019 C   0  0  0  0  0  0
   -2.7349   28.0101   55.4127 N   0  0  0  0  0  0
   -8.9298   27.8343   48.3410 N   0  0  0  0  0  0
   -7.7131   26.6571   52.3401 C   0  0  0  0  0  0
   -6.0548   29.3452   56.0136 C   0  0  0  0  0  0
   -5.7764   26.9455   56.1724 C   0  0  0  0  0  0
   -7.6166   27.8710   53.0785 O   0  0  0  0  0  0
   -6.9337   27.9094   54.2749 C   0  0  0  0  0  0
  -10.5681   25.7700   51.3100 Cl  0  0  0  0  0  0
   -0.9841   27.0353   59.8938 C   0  0  0  0  0  0
    0.0392   26.0144   57.8561 C   0  0  0  0  0  0
   -6.4439   26.7865   54.9585 C   0  0  0  0  0  0
   -6.7388   29.1771   54.8165 C   0  0  0  0  0  0
   -3.1390   27.7700   54.1099 O   0  0  0  0  0  0
   -0.1938   30.9237   58.0470 O   0  0  0  0  0  0
   -9.7560   27.0873   49.1150 C   0  0  0  0  0  0
   -7.3060   27.7701   50.1285 C   0  0  0  0  0  0
   -7.7218   28.1699   48.8574 C   0  0  0  0  0  0
   -2.8692   26.3669   58.0938 H   0  0  0  0  0  0
   -2.2964   30.0616   56.9287 H   0  0  0  0  0  0
   -2.9104   30.5663   58.5024 H   0  0  0  0  0  0
    0.8686   28.5131   58.4278 H   0  0  0  0  0  0
    0.0386   28.5699   56.9109 H   0  0  0  0  0  0
   -0.8561   29.7924   59.5741 H   0  0  0  0  0  0
   -2.9806   28.9378   55.7366 H   0  0  0  0  0  0
   -6.7401   26.1699   52.2683 H   0  0  0  0  0  0
   -8.3849   25.9556   52.8351 H   0  0  0  0  0  0
   -5.9175   30.3409   56.4114 H   0  0  0  0  0  0
   -5.4210   26.0682   56.6994 H   0  0  0  0  0  0
   -0.0203   27.1345   60.3955 H   0  0  0  0  0  0
   -1.6519   27.7702   60.3272 H   0  0  0  0  0  0
   -1.3911   26.0617   60.1672 H   0  0  0  0  0  0
    1.0191   26.0292   58.3369 H   0  0  0  0  0  0
   -0.4147   25.0558   58.1094 H   0  0  0  0  0  0
    0.2286   26.0458   56.7825 H   0  0  0  0  0  0
   -6.5876   25.7875   54.5741 H   0  0  0  0  0  0
   -7.1107   30.0441   54.2928 H   0  0  0  0  0  0
   -4.0912   27.9282   54.1382 H   0  0  0  0  0  0
   -0.5681   31.6881   58.4934 H   0  0  0  0  0  0
  -10.7195   26.8462   48.6891 H   0  0  0  0  0  0
   -6.3435   28.0728   50.5108 H   0  0  0  0  0  0
   -7.0749   28.7692   48.2324 H   0  0  0  0  0  0
  1  2  1  0  0  0
  1  7  1  0  0  0
  1  8  2  0  0  0
  1  9  2  0  0  0
  2  3  1  0  0  0
  2  6  1  0  0  0
  3  4  1  0  0  0
  3  5  1  0  0  0
  3 32  1  0  0  0
  4 23  1  0  0  0
  4 24  1  0  0  0
  4 10  1  0  0  0
  5 12  2  0  0  0
  5 15  1  0  0  0
  6 13  1  0  0  0
  6 33  1  0  0  0
  6 34  1  0  0  0
  7 18  2  0  0  0
  7 19  1  0  0  0
 10 13  1  0  0  0
 10 35  1  0  0  0
 10 36  1  0  0  0
 11 17  1  0  0  0
 11 14  1  0  0  0
 11 30  2  0  0  0
 13 28  1  0  0  0
 13 37  1  0  0  0
 14 22  1  0  0  0
 14 29  2  0  0  0
 15 27  1  0  0  0
 15 38  1  0  0  0
 16 31  2  0  0  0
 16 29  1  0  0  0
 17 20  1  0  0  0
 17 39  1  0  0  0
 17 40  1  0  0  0
 18 26  1  0  0  0
 18 41  1  0  0  0
 19 25  2  0  0  0
 19 42  1  0  0  0
 20 21  1  0  0  0
 21 25  1  0  0  0
 21 26  2  0  0  0
 23 43  1  0  0  0
 23 44  1  0  0  0
 23 45  1  0  0  0
 24 46  1  0  0  0
 24 47  1  0  0  0
 24 48  1  0  0  0
 25 49  1  0  0  0
 26 50  1  0  0  0
 27 51  1  0  0  0
 28 52  1  0  0  0
 29 53  1  0  0  0
 30 31  1  0  0  0
 30 54  1  0  0  0
 31 55  1  0  0  0
M  END
> <s_m_entry_id>
64291

> <s_m_entry_name>
dock_pv.241

> <s_m_Source_Path>
/home/csk/Desktop/cluster/DUD-E-result/mmp13

> <s_m_Source_File>
dock_pv.maegz

> <i_m_Source_File_Index>
241

> <chembl_id>
CHEMBL190686

> <chembl_pref_name>
None

> <i_lp_mmshare_version>
53161

> <i_f3d_flags>
0

> <r_lp_tautomer_probability>
1

> <s_lp_Force_Field>
OPLS_2005

> <r_lp_Energy>
21.877016

> <b_lp_Chiralities_Consistent>
1

> <s_lp_Variant>
CHEMBL280_lig968-1

> <s_i_glide_gridfile>
glide-grid_830c

> <i_i_glide_lignum>
1615

> <i_i_glide_rotatable_bonds>
9

> <r_i_docking_score>
-6.96911732042437

> <r_i_glide_ligand_efficiency>
-0.224810236142722

> <r_i_glide_ligand_efficiency_sa>
-0.706214525469909

> <r_i_glide_ligand_efficiency_ln>
-1.57174953355184

> <r_i_glide_gscore>
-6.96911732042437

> <r_i_glide_lipo>
-2.75993792789992

> <r_i_glide_hbond>
0

> <r_i_glide_metal>
0

> <r_i_glide_rewards>
-0.228827124958101

> <r_i_glide_evdw>
-47.0551681518555

> <r_i_glide_ecoul>
-13.4474172592163

> <r_i_glide_erotb>
0.640313971969429

> <r_i_glide_esite>
-0.250795243060554

> <r_i_glide_emodel>
-81.9507578699412

> <r_i_glide_energy>
-60.5025854110718

> <r_i_glide_einternal>
19.1435050964355

> <i_i_glide_confnum>
54

> <i_i_glide_posenum>
345

> <r_i_glide_eff_state_penalty>
0

> <s_user_duplicate_titles>
CHEMBL280_lig968,319912

> <s_m_subgroup_title>
dock_pv

> <s_m_subgroupid>
dock_pv

> <b_m_subgroup_collapsed>
1

$$$$
CHEMBL280_lig274
                    3D
 Schrodinger Suite 2021-1.
 37 37  0  0  1  0            999 V2000
   -5.1833   28.6622   57.8184 S   0  0  0  0  0  0
   -3.5135   29.1349   57.4596 N   0  0  1  0  0  0
   -2.4399   28.1602   57.6367 C   0  0  0  0  0  0
   -2.3657   27.1733   56.4634 C   0  0  0  0  0  0
   -5.8603   28.0166   56.2901 C   0  0  0  0  0  0
   -5.9390   29.8839   58.1100 O   0  0  0  0  0  0
   -5.1397   27.5574   58.7854 O   0  0  0  0  0  0
   -8.4963   27.2135   50.0191 C   0  0  0  0  0  0
   -9.2952   26.9371   49.1378 C   0  0  0  0  0  0
   -2.3390   27.5652   55.2943 O   0  0  0  0  0  0
   -2.3390   25.8723   56.7752 N   0  0  0  0  0  0
   -6.2859   28.9148   55.3100 C   0  0  0  0  0  0
   -6.0011   26.6400   56.0942 C   0  0  0  0  0  0
   -7.0578   27.0711   53.9651 C   0  0  0  0  0  0
   -7.9178   26.4513   52.5494 S   0  0  0  0  0  0
   -6.8751   28.4422   54.1429 C   0  0  0  0  0  0
   -6.6114   26.1701   54.9331 C   0  0  0  0  0  0
   -7.5701   27.5178   51.1194 C   0  0  0  0  0  0
   -2.3390   24.9700   55.7100 O   0  0  0  0  0  0
   -3.2734   30.2878   56.5560 C   0  0  0  0  0  0
  -10.2702   26.5699   48.1013 C   0  0  0  0  0  0
   -1.4760   28.6527   57.7684 H   0  0  0  0  0  0
   -2.5893   27.6118   58.5684 H   0  0  0  0  0  0
   -2.4917   25.4423   57.6817 H   0  0  0  0  0  0
   -6.1708   29.9799   55.4545 H   0  0  0  0  0  0
   -5.6673   25.9326   56.8416 H   0  0  0  0  0  0
   -7.2151   29.1532   53.4087 H   0  0  0  0  0  0
   -6.7390   25.1058   54.7936 H   0  0  0  0  0  0
   -6.5465   27.3700   50.7760 H   0  0  0  0  0  0
   -7.6785   28.5700   51.3670 H   0  0  0  0  0  0
   -3.2076   24.5150   55.7856 H   0  0  0  0  0  0
   -2.3738   30.8213   56.8636 H   0  0  0  0  0  0
   -3.1392   29.9424   55.5313 H   0  0  0  0  0  0
   -4.1222   30.9718   56.5773 H   0  0  0  0  0  0
   -9.9567   26.9736   47.1386 H   0  0  0  0  0  0
  -11.2500   26.9700   48.3575 H   0  0  0  0  0  0
  -10.3390   25.4843   48.0317 H   0  0  0  0  0  0
  1  2  1  0  0  0
  1  5  1  0  0  0
  1  6  2  0  0  0
  1  7  2  0  0  0
  2  3  1  0  0  0
  2 20  1  0  0  0
  3  4  1  0  0  0
  3 22  1  0  0  0
  3 23  1  0  0  0
  4 10  2  0  0  0
  4 11  1  0  0  0
  5 12  2  0  0  0
  5 13  1  0  0  0
  8 18  1  0  0  0
  8  9  3  0  0  0
  9 21  1  0  0  0
 11 19  1  0  0  0
 11 24  1  0  0  0
 12 16  1  0  0  0
 12 25  1  0  0  0
 13 17  2  0  0  0
 13 26  1  0  0  0
 14 17  1  0  0  0
 14 15  1  0  0  0
 14 16  2  0  0  0
 15 18  1  0  0  0
 16 27  1  0  0  0
 17 28  1  0  0  0
 18 29  1  0  0  0
 18 30  1  0  0  0
 19 31  1  0  0  0
 20 32  1  0  0  0
 20 33  1  0  0  0
 20 34  1  0  0  0
 21 35  1  0  0  0
 21 36  1  0  0  0
 21 37  1  0  0  0
M  END
> <s_m_entry_id>
64292

> <s_m_entry_name>
dock_pv.242

> <s_m_Source_Path>
/home/csk/Desktop/cluster/DUD-E-result/mmp13

> <s_m_Source_File>
dock_pv.maegz

> <i_m_Source_File_Index>
242

> <chembl_id>
CHEMBL94518

> <chembl_pref_name>
None

> <i_lp_mmshare_version>
53161

> <i_f3d_flags>
0

> <r_lp_tautomer_probability>
1

> <s_lp_Force_Field>
OPLS_2005

> <r_lp_Energy>
4.396195

> <b_lp_Chiralities_Consistent>
1

> <s_lp_Variant>
CHEMBL280_lig274-1

> <s_i_glide_gridfile>
glide-grid_830c

> <i_i_glide_lignum>
380

> <i_i_glide_rotatable_bonds>
9

> <r_i_docking_score>
-6.96658338988573

> <r_i_glide_ligand_efficiency>
-0.331742066185035

> <r_i_glide_ligand_efficiency_sa>
-0.915251205791684

> <r_i_glide_ligand_efficiency_ln>
-1.72247366584201

> <r_i_glide_gscore>
-6.96658338988573

> <r_i_glide_lipo>
-2.71656005809271

> <r_i_glide_hbond>
-0.11293762198602

> <r_i_glide_metal>
0

> <r_i_glide_rewards>
-1.07228318786028

> <r_i_glide_evdw>
-38.4907608032227

> <r_i_glide_ecoul>
-15.312876701355

> <r_i_glide_erotb>
1.3930994090925

> <r_i_glide_esite>
-0.236432385674841

> <r_i_glide_emodel>
-75.2500181035677

> <r_i_glide_energy>
-53.8036375045776

> <r_i_glide_einternal>
9.61231899261475

> <i_i_glide_confnum>
166

> <i_i_glide_posenum>
154

> <r_i_glide_eff_state_penalty>
0

> <s_user_duplicate_titles>
CHEMBL280_lig274,155254

> <s_m_subgroup_title>
dock_pv

> <s_m_subgroupid>
dock_pv

> <b_m_subgroup_collapsed>
1

$$$$
CHEMBL280_lig2120
                    3D
 Schrodinger Suite 2021-1.
 62 66  0  0  1  0            999 V2000
   -6.3121   27.1614   54.4555 C   0  0  0  0  0  0
   -5.3147   28.1023   54.7694 C   0  0  0  0  0  0
   -4.6177   28.0672   55.9835 C   0  0  0  0  0  0
   -4.9716   27.1147   56.9421 C   0  0  0  0  0  0
   -5.9402   26.1700   56.6539 C   0  0  0  0  0  0
   -6.5771   26.1805   55.4195 C   0  0  0  0  0  0
   -3.3930   28.9606   56.1941 C   0  0  0  0  0  0
   -2.3247   28.3572   57.0066 N   0  0  0  0  0  0
   -1.7348   27.1613   56.7645 C   0  0  0  0  0  0
   -1.9391   26.5338   55.7094 O   0  0  0  0  0  0
    0.0404   25.7697   57.5973 N   0  0  0  0  0  0
   -0.8708   26.6418   57.8520 C   0  0  0  0  0  0
   -1.0885   27.0441   59.1548 N   0  0  0  0  0  0
   -0.4468   26.6125   60.2697 C   0  0  0  0  0  0
    0.6094   25.5803   59.9707 C   0  0  0  0  0  0
    1.3424   24.9685   60.9923 C   0  0  0  0  0  0
    2.2730   23.9813   60.6580 C   0  0  0  0  0  0
    2.4890   23.6241   59.3310 C   0  0  0  0  0  0
    1.7618   24.2532   58.3268 C   0  0  0  0  0  0
    0.8180   25.2275   58.6367 C   0  0  0  0  0  0
   -0.7394   27.0353   61.3804 O   0  0  0  0  0  0
   -6.9518   27.1292   53.2097 N   0  0  0  0  0  0
   -6.6297   28.0862   52.1456 C   0  0  0  0  0  0
   -7.0419   27.7298   50.7027 C   0  0  0  0  0  0
   -8.3908   27.1692   50.6489 N   0  0  0  0  0  0
   -8.7512   26.1702   51.6587 C   0  0  0  0  0  0
   -8.3332   26.6413   53.0656 C   0  0  0  0  0  0
   -9.1960   27.3594   49.5708 C   0  0  0  0  0  0
   -8.6834   28.2174   48.3921 C   0  0  0  0  0  0
  -10.3349   26.8964   49.5177 O   0  0  0  0  0  0
   -9.6827   28.5111   47.2446 C   0  0  2  0  0  0
   -9.9171   27.3700   46.2695 C   0  0  0  0  0  0
   -9.5152   27.8328   45.0768 N   0  0  0  0  0  0
   -9.2019   29.1406   45.0660 C   0  0  0  0  0  0
   -9.1390   29.4922   46.3478 N   0  0  0  0  0  0
  -10.3414   26.2458   46.5247 O   0  0  0  0  0  0
   -9.1448   29.8887   44.1004 O   0  0  0  0  0  0
   -5.0596   28.8797   54.0697 H   0  0  0  0  0  0
   -4.4481   27.0457   57.8848 H   0  0  0  0  0  0
   -6.1543   25.3815   57.3586 H   0  0  0  0  0  0
   -7.2442   25.3715   55.2127 H   0  0  0  0  0  0
   -2.9720   29.2612   55.2319 H   0  0  0  0  0  0
   -3.7235   29.8824   56.6764 H   0  0  0  0  0  0
   -2.0865   28.8570   57.8500 H   0  0  0  0  0  0
   -1.8360   27.6828   59.3636 H   0  0  0  0  0  0
    1.1869   25.2323   62.0305 H   0  0  0  0  0  0
    2.8407   23.4764   61.4230 H   0  0  0  0  0  0
    3.2079   22.8555   59.0855 H   0  0  0  0  0  0
    1.9065   23.9502   57.3086 H   0  0  0  0  0  0
   -7.1944   28.9699   52.4247 H   0  0  0  0  0  0
   -5.5669   28.3224   52.1323 H   0  0  0  0  0  0
   -6.3448   26.9721   50.3579 H   0  0  0  0  0  0
   -6.9003   28.6263   50.1050 H   0  0  0  0  0  0
   -9.8192   25.9473   51.6725 H   0  0  0  0  0  0
   -8.2078   25.2509   51.4493 H   0  0  0  0  0  0
   -8.9611   27.4964   53.3175 H   0  0  0  0  0  0
   -8.5729   25.8510   53.7698 H   0  0  0  0  0  0
   -7.7675   27.7762   47.9943 H   0  0  0  0  0  0
   -8.4101   29.1911   48.8044 H   0  0  0  0  0  0
  -10.6479   28.8273   47.6401 H   0  0  0  0  0  0
   -9.5134   27.2721   44.2396 H   0  0  0  0  0  0
   -8.6172   30.2948   46.6704 H   0  0  0  0  0  0
  1  2  1  0  0  0
  1  6  2  0  0  0
  1 22  1  0  0  0
  2  3  2  0  0  0
  2 38  1  0  0  0
  3  4  1  0  0  0
  3  7  1  0  0  0
  4  5  2  0  0  0
  4 39  1  0  0  0
  5  6  1  0  0  0
  5 40  1  0  0  0
  6 41  1  0  0  0
  7  8  1  0  0  0
  7 42  1  0  0  0
  7 43  1  0  0  0
  8  9  1  0  0  0
  8 44  1  0  0  0
  9 10  2  0  0  0
  9 12  1  0  0  0
 11 12  2  0  0  0
 11 20  1  0  0  0
 12 13  1  0  0  0
 13 14  1  0  0  0
 13 45  1  0  0  0
 14 15  1  0  0  0
 14 21  2  0  0  0
 15 16  1  0  0  0
 15 20  2  0  0  0
 16 17  2  0  0  0
 16 46  1  0  0  0
 17 18  1  0  0  0
 17 47  1  0  0  0
 18 19  2  0  0  0
 18 48  1  0  0  0
 19 20  1  0  0  0
 19 49  1  0  0  0
 22 23  1  0  0  0
 22 27  1  0  0  0
 23 24  1  0  0  0
 23 50  1  0  0  0
 23 51  1  0  0  0
 24 25  1  0  0  0
 24 52  1  0  0  0
 24 53  1  0  0  0
 25 26  1  0  0  0
 25 28  1  0  0  0
 26 27  1  0  0  0
 26 54  1  0  0  0
 26 55  1  0  0  0
 27 56  1  0  0  0
 27 57  1  0  0  0
 28 29  1  0  0  0
 28 30  2  0  0  0
 29 31  1  0  0  0
 29 58  1  0  0  0
 29 59  1  0  0  0
 31 32  1  0  0  0
 31 35  1  0  0  0
 31 60  1  0  0  0
 32 33  1  0  0  0
 32 36  2  0  0  0
 33 34  1  0  0  0
 33 61  1  0  0  0
 34 35  1  0  0  0
 34 37  2  0  0  0
 35 62  1  0  0  0
M  END
> <s_m_entry_id>
64293

> <s_m_entry_name>
dock_pv.243

> <s_m_Source_Path>
/home/csk/Desktop/cluster/DUD-E-result/mmp13

> <s_m_Source_File>
dock_pv.maegz

> <i_m_Source_File_Index>
243

> <chembl_id>
CHEMBL3907881

> <chembl_pref_name>
None

> <i_lp_mmshare_version>
53161

> <i_f3d_flags>
0

> <r_lp_tautomer_probability>
0.883937999806744

> <s_lp_Force_Field>
OPLS_2005

> <r_lp_Energy>
60.9185

> <b_lp_Chiralities_Consistent>
1

> <s_lp_Variant>
CHEMBL280_lig2120-1

> <s_i_glide_gridfile>
glide-grid_830c

> <i_i_glide_lignum>
2952

> <i_i_glide_rotatable_bonds>
8

> <r_i_docking_score>
-6.96084062170008

> <r_i_glide_ligand_efficiency>
-0.188130827613516

> <r_i_glide_ligand_efficiency_sa>
-0.626893653987441

> <r_i_glide_ligand_efficiency_ln>
-1.50964314558969

> <r_i_glide_gscore>
-6.96084062170008

> <r_i_glide_lipo>
-2.21096566840123

> <r_i_glide_hbond>
-0.32

> <r_i_glide_metal>
0

> <r_i_glide_rewards>
-0.138505371021747

> <r_i_glide_evdw>
-61.9325370788574

> <r_i_glide_ecoul>
-11.0200853347778

> <r_i_glide_erotb>
0.564380125315263

> <r_i_glide_esite>
-0.106110053432823

> <r_i_glide_emodel>
-95.7066549188655

> <r_i_glide_energy>
-72.9526224136353

> <r_i_glide_einternal>
10.9341592788696

> <i_i_glide_confnum>
1

> <i_i_glide_posenum>
189

> <r_i_glide_eff_state_penalty>
0

> <s_user_duplicate_titles>
CHEMBL280_lig2120

> <s_m_subgroup_title>
dock_pv

> <s_m_subgroupid>
dock_pv

> <b_m_subgroup_collapsed>
1

$$$$
CHEMBL280_lig1098
                    3D
 Schrodinger Suite 2021-1.
 46 47  0  0  1  0            999 V2000
   -7.4714   26.5656   52.9106 C   0  0  0  0  0  0
   -7.0825   25.7468   53.9622 C   0  0  0  0  0  0
   -6.6273   26.2824   55.1644 C   0  0  0  0  0  0
   -6.5226   27.6662   55.2999 C   0  0  0  0  0  0
   -6.8537   28.5002   54.2299 C   0  0  0  0  0  0
   -7.3213   27.9450   53.0402 C   0  0  0  0  0  0
   -7.9615   25.9397   51.7811 O   0  0  0  0  0  0
   -8.8668   26.6240   50.9128 C   0  0  0  0  0  0
   -8.2152   27.3694   49.8227 C   0  0  0  0  0  0
   -7.7202   28.0306   48.9241 C   0  0  0  0  0  0
   -7.1390   28.8440   47.8480 C   0  0  0  0  0  0
   -5.9051   28.3905   56.8240 S   0  0  0  0  0  0
   -4.0886   28.7547   56.4449 C   0  0  1  0  0  0
   -6.6207   29.6602   56.9862 O   0  0  0  0  0  0
   -5.9390   27.3702   57.8804 O   0  0  0  0  0  0
   -3.3214   29.2674   57.7171 C   0  0  0  0  0  0
   -3.4059   27.5978   55.7080 C   0  0  0  0  0  0
   -3.1855   26.4762   56.4067 N   0  0  0  0  0  0
   -3.1390   27.6910   54.5098 O   0  0  0  0  0  0
   -2.6887   25.3700   55.7100 O   0  0  0  0  0  0
   -1.8216   29.5927   57.4946 C   0  0  0  0  0  0
   -1.6312   30.7275   56.4682 C   0  0  0  0  0  0
   -2.3479   32.3048   57.0433 S   0  0  0  0  0  0
   -4.0112   31.7282   57.5302 C   0  0  0  0  0  0
   -3.9519   30.4836   58.4391 C   0  0  0  0  0  0
   -7.1386   24.6781   53.8231 H   0  0  0  0  0  0
   -6.3450   25.6264   55.9758 H   0  0  0  0  0  0
   -6.7390   29.5711   54.3162 H   0  0  0  0  0  0
   -7.5390   28.5700   52.1971 H   0  0  0  0  0  0
   -9.5082   27.3189   51.4529 H   0  0  0  0  0  0
   -9.5241   25.8836   50.4559 H   0  0  0  0  0  0
   -7.1995   29.9001   48.1100 H   0  0  0  0  0  0
   -7.6757   28.6722   46.9152 H   0  0  0  0  0  0
   -6.0936   28.5700   47.7100 H   0  0  0  0  0  0
   -4.1443   29.5546   55.7100 H   0  0  0  0  0  0
   -3.3526   28.4533   58.4447 H   0  0  0  0  0  0
   -3.4482   26.2704   57.3653 H   0  0  0  0  0  0
   -3.4266   24.7233   55.7507 H   0  0  0  0  0  0
   -1.3419   29.8662   58.4363 H   0  0  0  0  0  0
   -1.2886   28.7140   57.1308 H   0  0  0  0  0  0
   -0.5689   30.9098   56.3039 H   0  0  0  0  0  0
   -2.0639   30.4866   55.4976 H   0  0  0  0  0  0
   -4.4837   32.5535   58.0635 H   0  0  0  0  0  0
   -4.5998   31.5641   56.6276 H   0  0  0  0  0  0
   -4.9624   30.2534   58.7758 H   0  0  0  0  0  0
   -3.3910   30.7248   59.3435 H   0  0  0  0  0  0
  1  6  1  0  0  0
  1  2  2  0  0  0
  1  7  1  0  0  0
  2  3  1  0  0  0
  2 26  1  0  0  0
  3  4  2  0  0  0
  3 27  1  0  0  0
  4  5  1  0  0  0
  4 12  1  0  0  0
  5  6  2  0  0  0
  5 28  1  0  0  0
  6 29  1  0  0  0
  7  8  1  0  0  0
  8  9  1  0  0  0
  8 30  1  0  0  0
  8 31  1  0  0  0
  9 10  3  0  0  0
 10 11  1  0  0  0
 11 32  1  0  0  0
 11 33  1  0  0  0
 11 34  1  0  0  0
 12 13  1  0  0  0
 12 14  2  0  0  0
 12 15  2  0  0  0
 13 16  1  0  0  0
 13 17  1  0  0  0
 13 35  1  0  0  0
 16 21  1  0  0  0
 16 25  1  0  0  0
 16 36  1  0  0  0
 17 18  1  0  0  0
 17 19  2  0  0  0
 18 20  1  0  0  0
 18 37  1  0  0  0
 20 38  1  0  0  0
 21 22  1  0  0  0
 21 39  1  0  0  0
 21 40  1  0  0  0
 22 23  1  0  0  0
 22 41  1  0  0  0
 22 42  1  0  0  0
 23 24  1  0  0  0
 24 25  1  0  0  0
 24 43  1  0  0  0
 24 44  1  0  0  0
 25 45  1  0  0  0
 25 46  1  0  0  0
M  END
> <s_m_entry_id>
64294

> <s_m_entry_name>
dock_pv.244

> <s_m_Source_Path>
/home/csk/Desktop/cluster/DUD-E-result/mmp13

> <s_m_Source_File>
dock_pv.maegz

> <i_m_Source_File_Index>
244

> <chembl_id>
CHEMBL426729

> <chembl_pref_name>
None

> <i_lp_mmshare_version>
53161

> <i_f3d_flags>
0

> <r_lp_tautomer_probability>
1

> <s_lp_Force_Field>
OPLS_2005

> <r_lp_Energy>
20.983422

> <b_lp_Chiralities_Consistent>
1

> <s_lp_Variant>
CHEMBL280_lig1098-2

> <s_i_glide_gridfile>
glide-grid_830c

> <i_i_glide_lignum>
1767

> <i_i_glide_rotatable_bonds>
9

> <r_i_docking_score>
-6.95562308300579

> <r_i_glide_ligand_efficiency>
-0.278224923320231

> <r_i_glide_ligand_efficiency_sa>
-0.813534610128382

> <r_i_glide_ligand_efficiency_ln>
-1.64869111387584

> <r_i_glide_gscore>
-6.95562308300579

> <r_i_glide_lipo>
-2.77295108468931

> <r_i_glide_hbond>
-0.0402659034460224

> <r_i_glide_metal>
0

> <r_i_glide_rewards>
-0.708341043659687

> <r_i_glide_evdw>
-41.3720016479492

> <r_i_glide_ecoul>
-14.8694267272949

> <r_i_glide_erotb>
1.05712422618613

> <r_i_glide_esite>
-0.192175185905198

> <r_i_glide_emodel>
-81.6951085415382

> <r_i_glide_energy>
-56.2414283752441

> <r_i_glide_einternal>
7.41657018661499

> <i_i_glide_confnum>
119

> <i_i_glide_posenum>
24

> <r_i_glide_eff_state_penalty>
0

> <s_user_duplicate_titles>
CHEMBL280_lig1098

> <s_m_subgroup_title>
dock_pv

> <s_m_subgroupid>
dock_pv

> <b_m_subgroup_collapsed>
1

$$$$
CHEMBL280_lig558
                    3D
 Schrodinger Suite 2021-1.
 57 58  0  0  1  0            999 V2000
   -5.0155   28.4578   57.7414 S   0  0  0  0  0  0
   -3.3147   28.5685   57.2118 N   0  0  3  0  0  0
   -2.2506   27.8356   57.9929 C   0  0  1  0  0  0
   -1.9132   26.4994   57.2547 C   0  0  0  0  0  0
   -1.0039   28.7088   58.4443 C   0  0  0  0  0  0
   -5.9028   27.9289   56.2776 C   0  0  0  0  0  0
   -5.4765   29.8100   58.0697 O   0  0  0  0  0  0
   -5.1390   27.3700   58.7199 O   0  0  0  0  0  0
   -1.5076   30.4066   58.9486 S   0  0  0  0  0  0
   -1.0176   25.7700   57.6874 O   0  0  0  0  0  0
   -2.6287   26.1700   56.1593 N   0  0  0  0  0  0
   -2.9983   29.4858   56.0863 C   0  0  0  0  0  0
   -6.0044   26.5701   55.9742 C   0  0  0  0  0  0
   -6.4588   28.8845   55.4246 C   0  0  0  0  0  0
   -7.1390   28.4789   54.2808 C   0  0  0  0  0  0
   -6.6765   26.1700   54.8226 C   0  0  0  0  0  0
   -7.2598   27.1207   53.9795 C   0  0  0  0  0  0
   -2.3390   24.9700   55.4981 O   0  0  0  0  0  0
   -2.8155   30.9577   56.4894 C   0  0  0  0  0  0
   -1.5987   31.2916   57.3608 C   0  0  0  0  0  0
    0.1527   28.7427   57.4061 C   0  0  0  0  0  0
   -0.3991   28.0987   59.7361 C   0  0  0  0  0  0
   -8.0540   26.6754   52.7559 C   0  0  0  0  0  0
   -7.5062   27.2084   51.4163 C   0  0  0  0  0  0
   -9.5974   27.2145   49.8729 C   0  0  0  0  0  0
   -8.2161   26.6130   50.1808 C   0  0  0  0  0  0
  -10.2444   26.5736   48.6360 C   0  0  0  0  0  0
   -2.7335   27.4791   58.9023 H   0  0  0  0  0  0
   -3.4753   26.6308   55.8470 H   0  0  0  0  0  0
   -2.1752   29.0901   55.4937 H   0  0  0  0  0  0
   -3.8408   29.4427   55.3993 H   0  0  0  0  0  0
   -5.5691   25.8205   56.6226 H   0  0  0  0  0  0
   -6.3678   29.9391   55.6448 H   0  0  0  0  0  0
   -7.5726   29.2242   53.6341 H   0  0  0  0  0  0
   -6.7390   25.1145   54.5973 H   0  0  0  0  0  0
   -3.0727   24.3753   55.7567 H   0  0  0  0  0  0
   -2.7398   31.5501   55.5769 H   0  0  0  0  0  0
   -3.7197   31.3194   56.9792 H   0  0  0  0  0  0
   -0.6777   31.1527   56.7984 H   0  0  0  0  0  0
   -1.6194   32.3561   57.5965 H   0  0  0  0  0  0
    0.6503   27.7772   57.3089 H   0  0  0  0  0  0
   -0.1887   29.0183   56.4123 H   0  0  0  0  0  0
    0.9242   29.4573   57.6964 H   0  0  0  0  0  0
    0.0007   27.0970   59.5812 H   0  0  0  0  0  0
    0.4230   28.7042   60.1212 H   0  0  0  0  0  0
   -1.1390   28.0239   60.5327 H   0  0  0  0  0  0
   -9.0895   26.9874   52.8896 H   0  0  0  0  0  0
   -8.0715   25.5854   52.7228 H   0  0  0  0  0  0
   -6.4449   26.9700   51.3586 H   0  0  0  0  0  0
   -7.5518   28.2977   51.3812 H   0  0  0  0  0  0
   -9.5011   28.2885   49.7098 H   0  0  0  0  0  0
  -10.2594   27.0843   50.7287 H   0  0  0  0  0  0
   -8.3390   25.5369   50.3077 H   0  0  0  0  0  0
   -7.5714   26.7462   49.3100 H   0  0  0  0  0  0
  -11.2435   26.9700   48.4622 H   0  0  0  0  0  0
  -10.3368   25.4928   48.7484 H   0  0  0  0  0  0
   -9.6545   26.7654   47.7391 H   0  0  0  0  0  0
  1  2  1  0  0  0
  1  6  1  0  0  0
  1  7  2  0  0  0
  1  8  2  0  0  0
  2  3  1  0  0  0
  2 12  1  0  0  0
  3  4  1  0  0  0
  3  5  1  0  0  0
  3 28  1  0  0  0
  4 10  2  0  0  0
  4 11  1  0  0  0
  5  9  1  0  0  0
  5 21  1  0  0  0
  5 22  1  0  0  0
  6 13  2  0  0  0
  6 14  1  0  0  0
  9 20  1  0  0  0
 11 18  1  0  0  0
 11 29  1  0  0  0
 12 19  1  0  0  0
 12 30  1  0  0  0
 12 31  1  0  0  0
 13 16  1  0  0  0
 13 32  1  0  0  0
 14 15  2  0  0  0
 14 33  1  0  0  0
 15 17  1  0  0  0
 15 34  1  0  0  0
 16 17  2  0  0  0
 16 35  1  0  0  0
 17 23  1  0  0  0
 18 36  1  0  0  0
 19 20  1  0  0  0
 19 37  1  0  0  0
 19 38  1  0  0  0
 20 39  1  0  0  0
 20 40  1  0  0  0
 21 41  1  0  0  0
 21 42  1  0  0  0
 21 43  1  0  0  0
 22 44  1  0  0  0
 22 45  1  0  0  0
 22 46  1  0  0  0
 23 24  1  0  0  0
 23 47  1  0  0  0
 23 48  1  0  0  0
 24 26  1  0  0  0
 24 49  1  0  0  0
 24 50  1  0  0  0
 25 26  1  0  0  0
 25 27  1  0  0  0
 25 51  1  0  0  0
 25 52  1  0  0  0
 26 53  1  0  0  0
 26 54  1  0  0  0
 27 55  1  0  0  0
 27 56  1  0  0  0
 27 57  1  0  0  0
M  END
> <s_m_entry_id>
64295

> <s_m_entry_name>
dock_pv.245

> <s_m_Source_Path>
/home/csk/Desktop/cluster/DUD-E-result/mmp13

> <s_m_Source_File>
dock_pv.maegz

> <i_m_Source_File_Index>
245

> <chembl_id>
CHEMBL343082

> <chembl_pref_name>
None

> <i_lp_mmshare_version>
53161

> <i_f3d_flags>
0

> <r_lp_tautomer_probability>
1

> <s_lp_Force_Field>
OPLS_2005

> <r_lp_Energy>
21.044758

> <b_lp_Chiralities_Consistent>
1

> <s_lp_Variant>
CHEMBL280_lig558-1

> <s_i_glide_gridfile>
glide-grid_830c

> <i_i_glide_lignum>
795

> <i_i_glide_rotatable_bonds>
9

> <r_i_docking_score>
-6.94682589688261

> <r_i_glide_ligand_efficiency>
-0.257289848032689

> <r_i_glide_ligand_efficiency_sa>
-0.771869543250082

> <r_i_glide_ligand_efficiency_ln>
-1.61710654141856

> <r_i_glide_gscore>
-6.94682589688261

> <r_i_glide_lipo>
-2.89802295560215

> <r_i_glide_hbond>
-0.304

> <r_i_glide_metal>
0

> <r_i_glide_rewards>
-0.29701132849965

> <r_i_glide_evdw>
-35.3085594177246

> <r_i_glide_ecoul>
-15.1041097640991

> <r_i_glide_erotb>
0.803885810046751

> <r_i_glide_esite>
-0.220632987326459

> <r_i_glide_emodel>
-68.7789993158847

> <r_i_glide_energy>
-50.4126691818237

> <r_i_glide_einternal>
9.20207500457764

> <i_i_glide_confnum>
31

> <i_i_glide_posenum>
63

> <r_i_glide_eff_state_penalty>
0

> <s_user_duplicate_titles>
CHEMBL280_lig558,233216

> <s_m_subgroup_title>
dock_pv

> <s_m_subgroupid>
dock_pv

> <b_m_subgroup_collapsed>
1

$$$$
CHEMBL280_lig1122
                    3D
 Schrodinger Suite 2021-1.
 48 49  0  0  1  0            999 V2000
   -7.6326   27.0928   52.1626 C   0  0  0  0  0  0
   -8.7429   26.2682   52.0272 C   0  0  0  0  0  0
   -9.4227   26.1701   50.8168 C   0  0  0  0  0  0
   -9.0035   26.9025   49.7102 C   0  0  0  0  0  0
   -7.8537   27.6949   49.8206 C   0  0  0  0  0  0
   -7.1779   27.7766   51.0350 C   0  0  0  0  0  0
   -9.7860   26.8113   48.5765 O   0  0  0  0  0  0
   -9.5214   27.6876   47.4861 C   0  0  0  0  0  0
   -7.0029   27.2828   53.4966 C   0  0  0  0  0  0
   -6.7383   26.1936   54.3350 C   0  0  0  0  0  0
   -6.1543   26.3889   55.5839 C   0  0  0  0  0  0
   -5.8254   27.6785   56.0024 C   0  0  0  0  0  0
   -6.1195   28.7733   55.1941 C   0  0  0  0  0  0
   -6.6968   28.5696   53.9458 C   0  0  0  0  0  0
   -4.9682   27.9158   57.5518 S   0  0  0  0  0  0
   -5.5391   26.9704   58.5100 O   0  0  0  0  0  0
   -4.9451   29.3512   57.8463 O   0  0  0  0  0  0
   -3.3354   27.3565   57.2217 N   0  0  1  0  0  0
   -2.1790   28.2554   57.4836 C   0  0  1  0  0  0
   -0.8444   27.4476   57.5386 C   0  0  0  0  0  0
   -0.9725   26.0704   58.2373 C   0  0  0  0  0  0
    0.2766   28.2456   58.2382 C   0  0  0  0  0  0
   -2.1882   29.6416   56.2093 P   0  0  0  0  0  0
   -0.6519   29.7699   55.7193 O   0  0  0  0  0  0
   -2.7730   30.9537   56.5819 O   0  0  0  0  0  0
   -2.8912   28.9698   54.9122 O   0  0  0  0  0  0
   -9.1342   25.7700   52.8962 H   0  0  0  0  0  0
  -10.3089   25.5576   50.7475 H   0  0  0  0  0  0
   -7.4832   28.2784   48.9911 H   0  0  0  0  0  0
   -6.3376   28.4444   51.1101 H   0  0  0  0  0  0
  -10.2410   27.4996   46.6898 H   0  0  0  0  0  0
   -9.6218   28.7333   47.7823 H   0  0  0  0  0  0
   -8.5249   27.5315   47.0745 H   0  0  0  0  0  0
   -6.9661   25.1873   54.0136 H   0  0  0  0  0  0
   -5.9390   25.5333   56.2099 H   0  0  0  0  0  0
   -5.8737   29.7778   55.5094 H   0  0  0  0  0  0
   -6.8997   29.4205   53.3164 H   0  0  0  0  0  0
   -3.2111   26.4596   57.7025 H   0  0  0  0  0  0
   -2.3394   28.7065   58.4643 H   0  0  0  0  0  0
   -0.5283   27.2493   56.5144 H   0  0  0  0  0  0
   -1.3434   26.1757   59.2574 H   0  0  0  0  0  0
   -0.0083   25.5633   58.2932 H   0  0  0  0  0  0
   -1.6505   25.3985   57.7107 H   0  0  0  0  0  0
    0.0307   28.4427   59.2831 H   0  0  0  0  0  0
    1.2190   27.6957   58.2242 H   0  0  0  0  0  0
    0.4699   29.2097   57.7699 H   0  0  0  0  0  0
   -0.2927   30.6754   55.7876 H   0  0  0  0  0  0
   -3.5555   29.5721   54.5053 H   0  0  0  0  0  0
  1  2  1  0  0  0
  1  6  2  0  0  0
  1  9  1  0  0  0
  2  3  2  0  0  0
  2 27  1  0  0  0
  3  4  1  0  0  0
  3 28  1  0  0  0
  4  5  2  0  0  0
  4  7  1  0  0  0
  5  6  1  0  0  0
  5 29  1  0  0  0
  6 30  1  0  0  0
  7  8  1  0  0  0
  8 31  1  0  0  0
  8 32  1  0  0  0
  8 33  1  0  0  0
  9 10  1  0  0  0
  9 14  2  0  0  0
 10 11  2  0  0  0
 10 34  1  0  0  0
 11 12  1  0  0  0
 11 35  1  0  0  0
 12 13  2  0  0  0
 12 15  1  0  0  0
 13 14  1  0  0  0
 13 36  1  0  0  0
 14 37  1  0  0  0
 15 16  2  0  0  0
 15 17  2  0  0  0
 15 18  1  0  0  0
 18 19  1  0  0  0
 18 38  1  0  0  0
 19 20  1  0  0  0
 19 23  1  0  0  0
 19 39  1  0  0  0
 20 21  1  0  0  0
 20 22  1  0  0  0
 20 40  1  0  0  0
 21 41  1  0  0  0
 21 42  1  0  0  0
 21 43  1  0  0  0
 22 44  1  0  0  0
 22 45  1  0  0  0
 22 46  1  0  0  0
 23 24  1  0  0  0
 23 25  2  0  0  0
 23 26  1  0  0  0
 24 47  1  0  0  0
 26 48  1  0  0  0
M  END
> <s_m_entry_id>
64296

> <s_m_entry_name>
dock_pv.246

> <s_m_Source_Path>
/home/csk/Desktop/cluster/DUD-E-result/mmp13

> <s_m_Source_File>
dock_pv.maegz

> <i_m_Source_File_Index>
246

> <chembl_id>
CHEMBL202932

> <chembl_pref_name>
None

> <i_lp_mmshare_version>
53161

> <i_f3d_flags>
0

> <r_lp_tautomer_probability>
1

> <s_lp_Force_Field>
OPLS_2005

> <r_lp_Energy>
4.835076

> <b_lp_Chiralities_Consistent>
1

> <s_lp_Variant>
CHEMBL280_lig1122-1

> <s_i_glide_gridfile>
glide-grid_830c

> <i_i_glide_lignum>
1807

> <i_i_glide_rotatable_bonds>
9

> <r_i_docking_score>
-6.94428414976635

> <r_i_glide_ligand_efficiency>
-0.26708785191409

> <r_i_glide_ligand_efficiency_sa>
-0.791246710355544

> <r_i_glide_ligand_efficiency_ln>
-1.63084234651782

> <r_i_glide_gscore>
-6.94428414976635

> <r_i_glide_lipo>
-3.11816727749185

> <r_i_glide_hbond>
-0.0158417817314268

> <r_i_glide_metal>
0

> <r_i_glide_rewards>
-0.337457712892306

> <r_i_glide_evdw>
-43.6995010375977

> <r_i_glide_ecoul>
-11.7099180221558

> <r_i_glide_erotb>
0.614158668534749

> <r_i_glide_esite>
-0.145513290982273

> <r_i_glide_emodel>
-72.7664034787012

> <r_i_glide_energy>
-55.4094190597534

> <r_i_glide_einternal>
8.3760404586792

> <i_i_glide_confnum>
48

> <i_i_glide_posenum>
224

> <r_i_glide_eff_state_penalty>
0

> <s_user_duplicate_titles>
CHEMBL280_lig1122,CHEMBL280_lig2102,336945

> <s_m_subgroup_title>
dock_pv

> <s_m_subgroupid>
dock_pv

> <b_m_subgroup_collapsed>
1

$$$$
CHEMBL280_lig452
                    3D
 Schrodinger Suite 2021-1.
 48 49  0  0  1  0            999 V2000
   -7.5921   27.5245   53.7345 S   0  0  0  0  0  0
   -5.2635   27.4884   55.4401 C   0  0  1  0  0  0
   -5.7630   27.2103   53.9867 C   0  0  0  0  0  0
   -3.7741   27.0492   55.4554 C   0  0  0  0  0  0
   -7.8714   27.3700   51.9654 C   0  0  0  0  0  0
   -8.3390   26.4478   54.3818 O   0  0  0  0  0  0
   -7.8166   28.9214   54.1099 O   0  0  0  0  0  0
   -3.0256   27.3700   54.5188 O   0  0  0  0  0  0
   -5.3507   28.9342   55.7100 N   0  0  1  0  0  0
   -3.3794   26.2392   56.4475 N   0  0  0  0  0  0
   -8.8485   26.5300   51.4147 C   0  0  0  0  0  0
   -7.1125   28.1700   51.1266 C   0  0  0  0  0  0
   -8.3526   27.3690   47.8294 O   0  0  0  0  0  0
   -8.3272   27.3749   49.2027 C   0  0  0  0  0  0
   -6.1569   26.7274   56.4585 C   0  0  0  0  0  0
   -7.3433   28.1697   49.7595 C   0  0  0  0  0  0
   -9.0813   26.5344   50.0319 C   0  0  0  0  0  0
   -9.4232   27.7783   47.0788 C   0  0  0  0  0  0
   -2.3390   25.3700   56.1644 O   0  0  0  0  0  0
   -4.6857   29.6218   56.8205 C   0  0  0  0  0  0
  -10.6166   27.0535   47.0217 C   0  0  0  0  0  0
   -9.2170   28.8587   46.2202 C   0  0  0  0  0  0
   -5.2447   29.2784   58.2079 C   0  0  0  0  0  0
  -11.6050   27.4220   46.1100 C   0  0  0  0  0  0
  -10.2028   29.2281   45.3102 C   0  0  0  0  0  0
  -11.3946   28.5095   45.2633 C   0  0  0  0  0  0
   -5.2373   27.8253   53.2570 H   0  0  0  0  0  0
   -5.6148   26.1700   53.7087 H   0  0  0  0  0  0
   -5.5970   29.5235   54.9204 H   0  0  0  0  0  0
   -3.9407   25.9152   57.2277 H   0  0  0  0  0  0
   -9.4369   25.8863   52.0525 H   0  0  0  0  0  0
   -6.3531   28.8303   51.5201 H   0  0  0  0  0  0
   -6.3038   25.6870   56.1628 H   0  0  0  0  0  0
   -5.7660   26.7094   57.4720 H   0  0  0  0  0  0
   -7.1389   27.1884   56.5101 H   0  0  0  0  0  0
   -6.7390   28.7938   49.1171 H   0  0  0  0  0  0
   -9.8130   25.8617   49.6136 H   0  0  0  0  0  0
   -2.8108   24.5224   56.1100 H   0  0  0  0  0  0
   -4.8463   30.6874   56.6512 H   0  0  0  0  0  0
   -3.6052   29.4775   56.7835 H   0  0  0  0  0  0
  -10.7646   26.1883   47.6479 H   0  0  0  0  0  0
   -8.2741   29.3876   46.2376 H   0  0  0  0  0  0
   -4.9455   30.0351   58.9334 H   0  0  0  0  0  0
   -4.8608   28.3278   58.5726 H   0  0  0  0  0  0
   -6.3350   29.2451   58.2080 H   0  0  0  0  0  0
  -12.5269   26.8631   46.0566 H   0  0  0  0  0  0
  -10.0371   30.0587   44.6393 H   0  0  0  0  0  0
  -12.1523   28.7939   44.5487 H   0  0  0  0  0  0
  1  3  1  0  0  0
  1  5  1  0  0  0
  1  6  2  0  0  0
  1  7  2  0  0  0
  2  3  1  0  0  0
  2  4  1  0  0  0
  2  9  1  0  0  0
  2 15  1  0  0  0
  3 27  1  0  0  0
  3 28  1  0  0  0
  4  8  2  0  0  0
  4 10  1  0  0  0
  5 11  1  0  0  0
  5 12  2  0  0  0
  9 20  1  0  0  0
  9 29  1  0  0  0
 10 19  1  0  0  0
 10 30  1  0  0  0
 11 17  2  0  0  0
 11 31  1  0  0  0
 12 16  1  0  0  0
 12 32  1  0  0  0
 13 14  1  0  0  0
 13 18  1  0  0  0
 14 16  2  0  0  0
 14 17  1  0  0  0
 15 33  1  0  0  0
 15 34  1  0  0  0
 15 35  1  0  0  0
 16 36  1  0  0  0
 17 37  1  0  0  0
 18 21  2  0  0  0
 18 22  1  0  0  0
 19 38  1  0  0  0
 20 23  1  0  0  0
 20 39  1  0  0  0
 20 40  1  0  0  0
 21 24  1  0  0  0
 21 41  1  0  0  0
 22 25  2  0  0  0
 22 42  1  0  0  0
 23 43  1  0  0  0
 23 44  1  0  0  0
 23 45  1  0  0  0
 24 26  2  0  0  0
 24 46  1  0  0  0
 25 26  1  0  0  0
 25 47  1  0  0  0
 26 48  1  0  0  0
M  END
> <s_m_entry_id>
64297

> <s_m_entry_name>
dock_pv.247

> <s_m_Source_Path>
/home/csk/Desktop/cluster/DUD-E-result/mmp13

> <s_m_Source_File>
dock_pv.maegz

> <i_m_Source_File_Index>
247

> <chembl_id>
CHEMBL90211

> <chembl_pref_name>
None

> <i_lp_mmshare_version>
53161

> <i_f3d_flags>
0

> <r_lp_tautomer_probability>
1

> <s_lp_Force_Field>
OPLS_2005

> <r_lp_Energy>
31.442815

> <b_lp_Chiralities_Consistent>
1

> <s_lp_Variant>
CHEMBL280_lig452-1

> <s_i_glide_gridfile>
glide-grid_830c

> <i_i_glide_lignum>
645

> <i_i_glide_rotatable_bonds>
10

> <r_i_docking_score>
-6.94124605017763

> <r_i_glide_ligand_efficiency>
-0.266971001929909

> <r_i_glide_ligand_efficiency_sa>
-0.790900542737188

> <r_i_glide_ligand_efficiency_ln>
-1.63012885879822

> <r_i_glide_gscore>
-6.94124605017763

> <r_i_glide_lipo>
-2.65604055853725

> <r_i_glide_hbond>
-0.381748903872354

> <r_i_glide_metal>
0

> <r_i_glide_rewards>
-0.68492788179391

> <r_i_glide_evdw>
-39.3014297485352

> <r_i_glide_ecoul>
-14.239649772644

> <r_i_glide_erotb>
1.08249024734925

> <r_i_glide_esite>
-0.2

> <r_i_glide_emodel>
-66.7470489314328

> <r_i_glide_energy>
-53.5410795211792

> <r_i_glide_einternal>
8.88464260101318

> <i_i_glide_confnum>
95

> <i_i_glide_posenum>
138

> <r_i_glide_eff_state_penalty>
0

> <s_user_duplicate_titles>
CHEMBL280_lig452

> <s_m_subgroup_title>
dock_pv

> <s_m_subgroupid>
dock_pv

> <b_m_subgroup_collapsed>
1

$$$$
CHEMBL280_lig1467
                    3D
 Schrodinger Suite 2021-1.
 43 45  0  0  1  0            999 V2000
   -6.9632   26.2308   54.5340 C   0  0  0  0  0  0
   -5.8848   27.0970   54.3419 C   0  0  0  0  0  0
   -5.7692   27.8266   53.1610 C   0  0  0  0  0  0
   -7.9384   26.0589   53.5434 C   0  0  0  0  0  0
   -7.8214   26.7401   52.3236 C   0  0  0  0  0  0
   -6.7336   27.6149   52.1756 C   0  0  0  0  0  0
   -6.7390   28.1700   50.9337 O   0  0  0  0  0  0
   -8.5377   26.7937   51.1088 C   0  0  0  0  0  0
   -7.8288   27.6888   50.2793 C   0  0  0  0  0  0
   -8.2195   28.0360   48.9850 C   0  0  0  0  0  0
   -9.3970   27.4650   48.5179 C   0  0  0  0  0  0
  -10.1216   26.5704   49.3050 C   0  0  0  0  0  0
   -9.7036   26.2039   50.5927 C   0  0  0  0  0  0
   -4.6024   27.2770   55.5759 S   0  0  0  0  0  0
   -3.3244   26.9620   54.9100 O   0  0  0  0  0  0
   -5.0292   26.5704   56.7873 O   0  0  0  0  0  0
   -5.2945   29.5715   57.1145 C   0  0  2  0  0  0
   -6.6139   30.2580   56.6574 C   0  0  0  0  0  0
   -4.3736   30.5962   57.8548 C   0  0  0  0  0  0
   -4.0084   31.8589   57.0403 C   0  0  0  0  0  0
   -3.0917   29.9157   58.3676 C   0  0  0  0  0  0
   -6.9995   30.2873   55.4876 O   0  0  0  0  0  0
   -4.5932   28.9925   55.9329 N   0  0  3  0  0  0
   -7.2991   30.8012   57.7099 O   0  0  0  0  0  0
   -9.8640   27.8033   47.2513 N   0  0  0  0  0  0
   -7.0380   25.6681   55.4542 H   0  0  0  0  0  0
   -4.9479   28.5037   52.9955 H   0  0  0  0  0  0
   -8.7390   25.3700   53.7100 H   0  0  0  0  0  0
   -7.6420   28.7337   48.3963 H   0  0  0  0  0  0
  -11.0341   26.1700   48.8994 H   0  0  0  0  0  0
  -10.2826   25.5094   51.1830 H   0  0  0  0  0  0
   -5.5848   28.7628   57.7853 H   0  0  0  0  0  0
   -4.8996   30.9392   58.7476 H   0  0  0  0  0  0
   -3.5016   31.6007   56.1101 H   0  0  0  0  0  0
   -3.3418   32.5104   57.6062 H   0  0  0  0  0  0
   -4.8879   32.4498   56.7838 H   0  0  0  0  0  0
   -2.4282   29.6425   57.5462 H   0  0  0  0  0  0
   -2.5352   30.5705   59.0390 H   0  0  0  0  0  0
   -3.3269   29.0009   58.9100 H   0  0  0  0  0  0
   -4.3390   29.6421   55.1778 H   0  0  0  0  0  0
   -6.9164   30.6558   58.5812 H   0  0  0  0  0  0
  -10.7893   27.5104   46.9755 H   0  0  0  0  0  0
   -9.3500   28.4799   46.7042 H   0  0  0  0  0  0
  1  4  1  0  0  0
  1  2  2  0  0  0
  1 26  1  0  0  0
  2 14  1  0  0  0
  2  3  1  0  0  0
  3  6  2  0  0  0
  3 27  1  0  0  0
  4  5  2  0  0  0
  4 28  1  0  0  0
  5  6  1  0  0  0
  5  8  1  0  0  0
  6  7  1  0  0  0
  7  9  1  0  0  0
  8  9  2  0  0  0
  8 13  1  0  0  0
  9 10  1  0  0  0
 10 11  2  0  0  0
 10 29  1  0  0  0
 11 12  1  0  0  0
 11 25  1  0  0  0
 12 13  2  0  0  0
 12 30  1  0  0  0
 13 31  1  0  0  0
 14 15  2  0  0  0
 14 16  2  0  0  0
 14 23  1  0  0  0
 17 18  1  0  0  0
 17 19  1  0  0  0
 17 23  1  0  0  0
 17 32  1  0  0  0
 18 22  2  0  0  0
 18 24  1  0  0  0
 19 20  1  0  0  0
 19 21  1  0  0  0
 19 33  1  0  0  0
 20 34  1  0  0  0
 20 35  1  0  0  0
 20 36  1  0  0  0
 21 37  1  0  0  0
 21 38  1  0  0  0
 21 39  1  0  0  0
 23 40  1  0  0  0
 24 41  1  0  0  0
 25 42  1  0  0  0
 25 43  1  0  0  0
M  END
> <s_m_entry_id>
64299

> <s_m_entry_name>
dock_pv.249

> <s_m_Source_Path>
/home/csk/Desktop/cluster/DUD-E-result/mmp13

> <s_m_Source_File>
dock_pv.maegz

> <i_m_Source_File_Index>
249

> <chembl_id>
CHEMBL553918

> <chembl_pref_name>
None

> <i_lp_mmshare_version>
53161

> <i_f3d_flags>
0

> <r_lp_tautomer_probability>
1

> <s_lp_Force_Field>
OPLS_2005

> <r_lp_Energy>
13.987076

> <b_lp_Chiralities_Consistent>
1

> <s_lp_Variant>
CHEMBL280_lig1467-1

> <s_i_glide_gridfile>
glide-grid_830c

> <i_i_glide_lignum>
2194

> <i_i_glide_rotatable_bonds>
6

> <r_i_docking_score>
-6.9335239764748

> <r_i_glide_ligand_efficiency>
-0.277340959058992

> <r_i_glide_ligand_efficiency_sa>
-0.810949882951345

> <r_i_glide_ligand_efficiency_ln>
-1.64345296337121

> <r_i_glide_gscore>
-6.9335239764748

> <r_i_glide_lipo>
-3.51026285089704

> <r_i_glide_hbond>
-0.308275605374993

> <r_i_glide_metal>
0

> <r_i_glide_rewards>
-0.172497524170454

> <r_i_glide_evdw>
-42.4080657958984

> <r_i_glide_ecoul>
-7.71232080459595

> <r_i_glide_erotb>
0.584813586130368

> <r_i_glide_esite>
-0.25005017167836

> <r_i_glide_emodel>
-67.7944056154278

> <r_i_glide_energy>
-50.1203866004944

> <r_i_glide_einternal>
5.44383525848389

> <i_i_glide_confnum>
1

> <i_i_glide_posenum>
83

> <r_i_glide_eff_state_penalty>
0

> <s_user_duplicate_titles>
CHEMBL280_lig1467

> <s_m_subgroup_title>
dock_pv

> <s_m_subgroupid>
dock_pv

> <b_m_subgroup_collapsed>
1

$$$$
CHEMBL280_lig455
                    3D
 Schrodinger Suite 2021-1.
 39 41  0  0  1  0            999 V2000
   -5.0407   28.1448   57.2787 C   0  0  0  0  0  0
   -4.1058   29.0964   57.4393 N   0  0  0  0  0  0
   -3.2486   29.3727   56.2859 C   0  0  1  0  0  0
   -4.7221   27.4649   55.9427 C   0  0  2  0  0  0
   -1.7512   29.4239   56.6610 C   0  0  0  0  0  0
   -3.5260   28.1983   55.3411 C   0  0  0  0  0  0
   -5.9092   27.2927   54.9890 C   0  0  0  0  0  0
   -5.9387   27.8460   58.0633 O   0  0  0  0  0  0
   -1.2335   28.4784   57.2634 O   0  0  0  0  0  0
   -1.0590   30.4797   56.1956 N   0  0  0  0  0  0
   -8.7392   26.5063   52.0303 O   0  0  0  0  0  0
   -6.5046   28.3725   54.3253 C   0  0  0  0  0  0
   -6.3453   26.0047   54.7051 C   0  0  0  0  0  0
   -7.8202   26.8271   53.0012 C   0  0  0  0  0  0
   -8.6908   27.0170   50.7510 C   0  0  0  0  0  0
   -8.7997   28.0626   48.1698 C   0  0  0  0  0  0
   -7.2723   25.7699   53.7080 C   0  0  0  0  0  0
   -7.4665   28.1394   53.3387 C   0  0  0  0  0  0
   -8.8596   28.5807   46.9241 F   0  0  0  0  0  0
    0.3230   30.5264   56.4233 O   0  0  0  0  0  0
   -9.8580   26.9048   49.9948 C   0  0  0  0  0  0
   -7.5599   27.6320   50.1924 C   0  0  0  0  0  0
   -7.6245   28.1700   48.9081 C   0  0  0  0  0  0
   -9.9158   27.4260   48.7060 C   0  0  0  0  0  0
   -4.1010   29.6901   58.2555 H   0  0  0  0  0  0
   -3.5431   30.3227   55.8346 H   0  0  0  0  0  0
   -4.3913   26.4658   56.2404 H   0  0  0  0  0  0
   -3.7241   28.5637   54.3302 H   0  0  0  0  0  0
   -2.6983   27.4884   55.2829 H   0  0  0  0  0  0
   -1.4090   31.2805   55.6916 H   0  0  0  0  0  0
   -6.1928   29.3834   54.5424 H   0  0  0  0  0  0
   -5.9394   25.1640   55.2271 H   0  0  0  0  0  0
   -7.5388   24.7537   53.4643 H   0  0  0  0  0  0
   -7.9200   28.9699   52.8248 H   0  0  0  0  0  0
    0.4188   31.1745   57.1260 H   0  0  0  0  0  0
  -10.7275   26.4246   50.4202 H   0  0  0  0  0  0
   -6.6388   27.7164   50.7486 H   0  0  0  0  0  0
   -6.7585   28.6551   48.4827 H   0  0  0  0  0  0
  -10.8248   27.3490   48.1286 H   0  0  0  0  0  0
  1  2  1  0  0  0
  1  4  1  0  0  0
  1  8  2  0  0  0
  2  3  1  0  0  0
  2 25  1  0  0  0
  3  5  1  0  0  0
  3  6  1  0  0  0
  3 26  1  0  0  0
  4  6  1  0  0  0
  4  7  1  0  0  0
  4 27  1  0  0  0
  5  9  2  0  0  0
  5 10  1  0  0  0
  6 28  1  0  0  0
  6 29  1  0  0  0
  7 12  1  0  0  0
  7 13  2  0  0  0
 10 20  1  0  0  0
 10 30  1  0  0  0
 11 14  1  0  0  0
 11 15  1  0  0  0
 12 18  2  0  0  0
 12 31  1  0  0  0
 13 17  1  0  0  0
 13 32  1  0  0  0
 14 17  2  0  0  0
 14 18  1  0  0  0
 15 21  2  0  0  0
 15 22  1  0  0  0
 16 23  1  0  0  0
 16 19  1  0  0  0
 16 24  2  0  0  0
 17 33  1  0  0  0
 18 34  1  0  0  0
 20 35  1  0  0  0
 21 24  1  0  0  0
 21 36  1  0  0  0
 22 23  2  0  0  0
 22 37  1  0  0  0
 23 38  1  0  0  0
 24 39  1  0  0  0
M  END
> <s_m_entry_id>
64300

> <s_m_entry_name>
dock_pv.250

> <s_m_Source_Path>
/home/csk/Desktop/cluster/DUD-E-result/mmp13

> <s_m_Source_File>
dock_pv.maegz

> <i_m_Source_File_Index>
250

> <chembl_id>
CHEMBL75046

> <chembl_pref_name>
None

> <i_lp_mmshare_version>
53161

> <i_f3d_flags>
0

> <r_lp_tautomer_probability>
1

> <s_lp_Force_Field>
OPLS_2005

> <r_lp_Energy>
39.560516

> <b_lp_Chiralities_Consistent>
1

> <s_lp_Variant>
CHEMBL280_lig455-1

> <s_i_glide_gridfile>
glide-grid_830c

> <i_i_glide_lignum>
651

> <i_i_glide_rotatable_bonds>
6

> <r_i_docking_score>
-6.92790562443705

> <r_i_glide_ligand_efficiency>
-0.288662734351544

> <r_i_glide_ligand_efficiency_sa>
-0.832647408282485

> <r_i_glide_ligand_efficiency_ln>
-1.65816571680219

> <r_i_glide_gscore>
-6.92790562443705

> <r_i_glide_lipo>
-3.08167658902053

> <r_i_glide_hbond>
-0.32

> <r_i_glide_metal>
0

> <r_i_glide_rewards>
-1.1569737823664

> <r_i_glide_evdw>
-41.8032112121582

> <r_i_glide_ecoul>
-7.53999328613281

> <r_i_glide_erotb>
0.861850605992243

> <r_i_glide_esite>
-0.00994630551453025

> <r_i_glide_emodel>
-70.6818345132172

> <r_i_glide_energy>
-49.343204498291

> <r_i_glide_einternal>
4.71023178100586

> <i_i_glide_confnum>
12

> <i_i_glide_posenum>
256

> <r_i_glide_eff_state_penalty>
0

> <s_user_duplicate_titles>
CHEMBL280_lig455

> <s_m_subgroup_title>
dock_pv

> <s_m_subgroupid>
dock_pv

> <b_m_subgroup_collapsed>
1

$$$$
CHEMBL280_lig185
                    3D
 Schrodinger Suite 2021-1.
 54 57  0  0  1  0            999 V2000
   -5.6268   31.5568   56.1790 N   0  0  0  0  0  0
   -4.6356   31.7172   57.1375 N   0  0  0  0  0  0
   -4.7877   32.3675   58.3385 C   0  0  0  0  0  0
   -6.8141   32.0443   56.3319 N   0  0  0  0  0  0
   -6.1570   32.9941   58.4739 C   0  0  0  0  0  0
   -3.2711   27.5211   55.7318 C   0  0  0  0  0  0
   -7.1132   32.7764   57.4798 C   0  0  0  0  0  0
   -3.9953   28.6725   56.4679 C   0  0  2  0  0  0
   -3.2988   31.1774   56.7911 C   0  0  0  0  0  0
   -3.9132   32.4322   59.2083 O   0  0  0  0  0  0
   -7.4821   26.9983   52.9895 C   0  0  0  0  0  0
   -3.0535   29.6921   57.1744 C   0  0  0  0  0  0
   -3.1359   27.5702   54.5092 O   0  0  0  0  0  0
   -5.1893   28.2087   57.3605 C   0  0  0  0  0  0
   -2.8415   26.4654   56.4389 N   0  0  0  0  0  0
   -7.9805   26.9699   51.5889 C   0  0  0  0  0  0
   -7.2187   28.2216   53.6065 C   0  0  0  0  0  0
   -7.2515   25.8237   53.7099 C   0  0  0  0  0  0
   -5.9208   27.0750   56.8773 O   0  0  0  0  0  0
   -6.4696   27.1048   55.6095 C   0  0  0  0  0  0
   -6.4774   33.7702   59.5941 C   0  0  0  0  0  0
   -6.7470   28.2818   54.9090 C   0  0  0  0  0  0
   -6.7390   25.8813   55.0051 C   0  0  0  0  0  0
   -2.3391   25.3700   55.7141 O   0  0  0  0  0  0
   -8.3950   33.3142   57.6040 C   0  0  0  0  0  0
   -7.3705   27.7700   50.6204 C   0  0  0  0  0  0
   -9.0640   26.1701   51.2129 C   0  0  0  0  0  0
   -7.7574   34.3180   59.7102 C   0  0  0  0  0  0
   -8.7165   34.0838   58.7228 C   0  0  0  0  0  0
   -9.5227   26.1725   49.8990 C   0  0  0  0  0  0
   -7.8367   27.7885   49.3100 C   0  0  0  0  0  0
   -8.9154   26.9894   48.9534 C   0  0  0  0  0  0
   -4.4315   29.2245   55.6382 H   0  0  0  0  0  0
   -3.1689   31.2760   55.7102 H   0  0  0  0  0  0
   -2.4982   31.7929   57.2081 H   0  0  0  0  0  0
   -2.0140   29.4740   56.9192 H   0  0  0  0  0  0
   -3.0885   29.5750   58.2592 H   0  0  0  0  0  0
   -4.8132   27.9266   58.3447 H   0  0  0  0  0  0
   -5.8786   29.0336   57.5469 H   0  0  0  0  0  0
   -2.9857   26.2726   57.4235 H   0  0  0  0  0  0
   -7.3903   29.1423   53.0767 H   0  0  0  0  0  0
   -7.4425   24.8590   53.2658 H   0  0  0  0  0  0
   -5.7471   33.9488   60.3712 H   0  0  0  0  0  0
   -6.5975   29.2514   55.3531 H   0  0  0  0  0  0
   -6.5366   24.9701   55.5461 H   0  0  0  0  0  0
   -3.0332   24.6953   55.8433 H   0  0  0  0  0  0
   -9.1365   33.1427   56.8369 H   0  0  0  0  0  0
   -6.5311   28.3940   50.8899 H   0  0  0  0  0  0
   -9.5728   25.5576   51.9378 H   0  0  0  0  0  0
   -8.0077   34.9193   60.5719 H   0  0  0  0  0  0
   -9.7071   34.5034   58.8200 H   0  0  0  0  0  0
  -10.3390   25.5331   49.6101 H   0  0  0  0  0  0
   -7.3529   28.4163   48.5749 H   0  0  0  0  0  0
   -9.2709   26.9934   47.9333 H   0  0  0  0  0  0
  1  2  1  0  0  0
  1  4  2  0  0  0
  2  3  1  0  0  0
  2  9  1  0  0  0
  3 10  2  0  0  0
  3  5  1  0  0  0
  4  7  1  0  0  0
  5  7  2  0  0  0
  5 21  1  0  0  0
  6  8  1  0  0  0
  6 13  2  0  0  0
  6 15  1  0  0  0
  7 25  1  0  0  0
  8 12  1  0  0  0
  8 14  1  0  0  0
  8 33  1  0  0  0
  9 12  1  0  0  0
  9 34  1  0  0  0
  9 35  1  0  0  0
 11 18  2  0  0  0
 11 16  1  0  0  0
 11 17  1  0  0  0
 12 36  1  0  0  0
 12 37  1  0  0  0
 14 19  1  0  0  0
 14 38  1  0  0  0
 14 39  1  0  0  0
 15 24  1  0  0  0
 15 40  1  0  0  0
 16 26  2  0  0  0
 16 27  1  0  0  0
 17 22  2  0  0  0
 17 41  1  0  0  0
 18 23  1  0  0  0
 18 42  1  0  0  0
 19 20  1  0  0  0
 20 22  1  0  0  0
 20 23  2  0  0  0
 21 28  2  0  0  0
 21 43  1  0  0  0
 22 44  1  0  0  0
 23 45  1  0  0  0
 24 46  1  0  0  0
 25 29  2  0  0  0
 25 47  1  0  0  0
 26 31  1  0  0  0
 26 48  1  0  0  0
 27 30  2  0  0  0
 27 49  1  0  0  0
 28 29  1  0  0  0
 28 50  1  0  0  0
 29 51  1  0  0  0
 30 32  1  0  0  0
 30 52  1  0  0  0
 31 32  2  0  0  0
 31 53  1  0  0  0
 32 54  1  0  0  0
M  END
> <s_m_entry_id>
64301

> <s_m_entry_name>
dock_pv.251

> <s_m_Source_Path>
/home/csk/Desktop/cluster/DUD-E-result/mmp13

> <s_m_Source_File>
dock_pv.maegz

> <i_m_Source_File_Index>
251

> <chembl_id>
CHEMBL323371

> <chembl_pref_name>
None

> <i_lp_mmshare_version>
53161

> <i_f3d_flags>
0

> <r_lp_tautomer_probability>
1

> <s_lp_Force_Field>
OPLS_2005

> <r_lp_Energy>
36.482195

> <b_lp_Chiralities_Consistent>
1

> <s_lp_Variant>
CHEMBL280_lig185-1

> <s_i_glide_gridfile>
glide-grid_830c

> <i_i_glide_lignum>
237

> <i_i_glide_rotatable_bonds>
10

> <r_i_docking_score>
-6.91768175803598

> <r_i_glide_ligand_efficiency>
-0.216177554938624

> <r_i_glide_ligand_efficiency_sa>
-0.686320955450102

> <r_i_glide_ligand_efficiency_ln>
-1.54905751450708

> <r_i_glide_gscore>
-6.91768175803598

> <r_i_glide_lipo>
-3.11203436003561

> <r_i_glide_hbond>
0

> <r_i_glide_metal>
0

> <r_i_glide_rewards>
-0.480537496404753

> <r_i_glide_evdw>
-46.3975791931152

> <r_i_glide_ecoul>
-10.9167613983154

> <r_i_glide_erotb>
0.858377171132199

> <r_i_glide_esite>
-0.226093903324731

> <r_i_glide_emodel>
-84.9781030192155

> <r_i_glide_energy>
-57.3143405914307

> <r_i_glide_einternal>
9.49787998199463

> <i_i_glide_confnum>
6

> <i_i_glide_posenum>
76

> <r_i_glide_eff_state_penalty>
0

> <s_user_duplicate_titles>
CHEMBL280_lig185,165778

> <s_m_subgroup_title>
dock_pv

> <s_m_subgroupid>
dock_pv

> <b_m_subgroup_collapsed>
1

$$$$
CHEMBL280_lig613
                    3D
 Schrodinger Suite 2021-1.
 47 49  0  0  1  0            999 V2000
   -5.9389   26.6449   56.6285 S   0  0  0  0  0  0
   -3.0652   27.2398   56.8685 C   0  0  0  0  0  0
   -4.2076   26.3093   56.6315 N   0  0  3  0  0  0
   -1.7703   26.3662   56.7742 C   0  0  0  0  0  0
   -6.3652   27.0191   54.9531 C   0  0  0  0  0  0
   -6.6036   25.3707   56.9094 O   0  0  0  0  0  0
   -6.2225   27.8351   57.4361 O   0  0  0  0  0  0
   -8.1248   27.5280   50.1633 C   0  0  0  0  0  0
   -7.0380   27.8494   50.9495 O   0  0  0  0  0  0
   -1.5390   25.7715   55.7110 O   0  0  0  0  0  0
   -0.9771   26.2646   57.8621 N   0  0  0  0  0  0
   -8.1436   27.9582   48.8262 C   0  0  0  0  0  0
   -3.0711   28.3415   55.7779 C   0  0  0  0  0  0
   -3.2172   27.9790   58.2399 C   0  0  0  0  0  0
   -2.1891   29.9915   57.3045 O   0  0  0  0  0  0
   -6.7644   25.9821   54.1128 C   0  0  0  0  0  0
   -6.3076   28.3264   54.4904 C   0  0  0  0  0  0
   -6.9500   27.5518   52.2936 C   0  0  0  0  0  0
   -7.1253   28.6845   48.3181 F   0  0  0  0  0  0
   -7.1281   26.2622   52.8033 C   0  0  0  0  0  0
   -6.5460   28.5695   53.1497 C   0  0  0  0  0  0
    0.1771   25.4713   57.8122 O   0  0  0  0  0  0
   -1.9657   29.3877   56.0315 C   0  0  0  0  0  0
   -2.1535   29.0999   58.4182 C   0  0  0  0  0  0
   -9.2454   26.8581   50.6607 C   0  0  0  0  0  0
   -9.2351   27.6794   48.0027 C   0  0  0  0  0  0
  -10.3387   26.6200   49.8527 C   0  0  0  0  0  0
  -10.3389   27.0029   48.5151 C   0  0  0  0  0  0
   -3.9877   25.3026   56.6100 H   0  0  0  0  0  0
   -1.1143   26.7033   58.7623 H   0  0  0  0  0  0
   -4.0152   28.8780   55.8041 H   0  0  0  0  0  0
   -2.9873   27.9303   54.7729 H   0  0  0  0  0  0
   -3.1890   27.2766   59.0747 H   0  0  0  0  0  0
   -4.1778   28.4758   58.3227 H   0  0  0  0  0  0
   -6.7857   24.9606   54.4662 H   0  0  0  0  0  0
   -6.0250   29.1442   55.1363 H   0  0  0  0  0  0
   -7.4193   25.4501   52.1589 H   0  0  0  0  0  0
   -6.3534   29.5505   52.7643 H   0  0  0  0  0  0
    0.8964   26.1014   57.7111 H   0  0  0  0  0  0
   -2.0185   30.1707   55.2804 H   0  0  0  0  0  0
   -0.9615   28.9656   55.9733 H   0  0  0  0  0  0
   -2.3676   29.6890   59.3100 H   0  0  0  0  0  0
   -1.1419   28.7210   58.5536 H   0  0  0  0  0  0
   -9.3287   26.5597   51.6907 H   0  0  0  0  0  0
   -9.2309   28.0143   46.9749 H   0  0  0  0  0  0
  -11.1909   26.1708   50.3183 H   0  0  0  0  0  0
  -11.2037   26.8185   47.8951 H   0  0  0  0  0  0
  1  3  1  0  0  0
  1  5  1  0  0  0
  1  6  2  0  0  0
  1  7  2  0  0  0
  2  3  1  0  0  0
  2  4  1  0  0  0
  2 13  1  0  0  0
  2 14  1  0  0  0
  3 29  1  0  0  0
  4 10  2  0  0  0
  4 11  1  0  0  0
  5 16  1  0  0  0
  5 17  2  0  0  0
  8  9  1  0  0  0
  8 12  1  0  0  0
  8 25  2  0  0  0
  9 18  1  0  0  0
 11 22  1  0  0  0
 11 30  1  0  0  0
 12 19  1  0  0  0
 12 26  2  0  0  0
 13 23  1  0  0  0
 13 31  1  0  0  0
 13 32  1  0  0  0
 14 24  1  0  0  0
 14 33  1  0  0  0
 14 34  1  0  0  0
 15 24  1  0  0  0
 15 23  1  0  0  0
 16 20  2  0  0  0
 16 35  1  0  0  0
 17 21  1  0  0  0
 17 36  1  0  0  0
 18 21  2  0  0  0
 18 20  1  0  0  0
 20 37  1  0  0  0
 21 38  1  0  0  0
 22 39  1  0  0  0
 23 40  1  0  0  0
 23 41  1  0  0  0
 24 42  1  0  0  0
 24 43  1  0  0  0
 25 27  1  0  0  0
 25 44  1  0  0  0
 26 28  1  0  0  0
 26 45  1  0  0  0
 27 28  2  0  0  0
 27 46  1  0  0  0
 28 47  1  0  0  0
M  END
> <s_m_entry_id>
64302

> <s_m_entry_name>
dock_pv.252

> <s_m_Source_Path>
/home/csk/Desktop/cluster/DUD-E-result/mmp13

> <s_m_Source_File>
dock_pv.maegz

> <i_m_Source_File_Index>
252

> <chembl_id>
CHEMBL325678

> <chembl_pref_name>
None

> <i_lp_mmshare_version>
53161

> <i_f3d_flags>
0

> <r_lp_tautomer_probability>
1

> <s_lp_Force_Field>
OPLS_2005

> <r_lp_Energy>
23.844959

> <b_lp_Chiralities_Consistent>
1

> <s_lp_Variant>
CHEMBL280_lig613-1

> <s_i_glide_gridfile>
glide-grid_830c

> <i_i_glide_lignum>
886

> <i_i_glide_rotatable_bonds>
8

> <r_i_docking_score>
-6.91703786485942

> <r_i_glide_ligand_efficiency>
-0.247037066602122

> <r_i_glide_ligand_efficiency_sa>
-0.7501500312553

> <r_i_glide_ligand_efficiency_ln>
-1.59665543226621

> <r_i_glide_gscore>
-6.91703786485942

> <r_i_glide_lipo>
-3.448544425665

> <r_i_glide_hbond>
-0.167518960682647

> <r_i_glide_metal>
0

> <r_i_glide_rewards>
-0.654992516018246

> <r_i_glide_evdw>
-38.0166854858398

> <r_i_glide_ecoul>
-8.24445533752441

> <r_i_glide_erotb>
0.818676617554055

> <r_i_glide_esite>
-0.327156005126934

> <r_i_glide_emodel>
-69.3031905720391

> <r_i_glide_energy>
-46.2611408233643

> <r_i_glide_einternal>
8.10976600646973

> <i_i_glide_confnum>
152

> <i_i_glide_posenum>
285

> <r_i_glide_eff_state_penalty>
0

> <s_user_duplicate_titles>
CHEMBL280_lig613

> <s_m_subgroup_title>
dock_pv

> <s_m_subgroupid>
dock_pv

> <b_m_subgroup_collapsed>
1

$$$$
CHEMBL280_lig997
                    3D
 Schrodinger Suite 2021-1.
 48 49  0  0  1  0            999 V2000
   -4.8556   28.5074   58.0337 S   0  0  0  0  0  0
   -3.1379   28.4759   57.6258 N   0  0  3  0  0  0
   -2.1997   27.5121   58.2756 C   0  0  1  0  0  0
   -0.4472   29.2581   57.9407 N   0  0  0  0  0  0
   -1.7939   26.3716   57.3100 C   0  0  0  0  0  0
   -0.9623   28.2424   58.8934 C   0  0  0  0  0  0
   -2.5400   29.4996   56.7401 C   0  0  0  0  0  0
    0.7501   29.1377   57.3100 C   0  0  0  0  0  0
   -5.7058   28.1660   56.5035 C   0  0  0  0  0  0
   -5.1953   29.8753   58.4370 O   0  0  0  0  0  0
   -5.1390   27.3700   58.9100 O   0  0  0  0  0  0
   -8.8532   26.2953   51.2127 C   0  0  0  0  0  0
   -9.4624   26.3696   50.1574 C   0  0  0  0  0  0
   -1.4354   30.2655   57.4923 C   0  0  0  0  0  0
   -0.7347   25.7700   57.4907 O   0  0  0  0  0  0
    1.0774   29.8540   56.3628 O   0  0  0  0  0  0
   -2.6438   26.0589   56.3118 N   0  0  0  0  0  0
   -5.9628   26.8475   56.1180 C   0  0  0  0  0  0
   -6.1163   29.2286   55.7041 C   0  0  0  0  0  0
   -7.0451   27.6648   54.1100 C   0  0  0  0  0  0
   -6.7766   28.9699   54.5100 C   0  0  0  0  0  0
   -6.6294   26.5965   54.9213 C   0  0  0  0  0  0
   -2.3390   24.9700   55.4837 O   0  0  0  0  0  0
   -8.1067   26.2399   52.4771 C   0  0  0  0  0  0
   -7.7217   27.5336   52.9153 O   0  0  0  0  0  0
    1.8020   28.1709   57.8590 C   0  0  0  0  0  0
  -10.1766   26.4822   48.8782 C   0  0  0  0  0  0
   -2.7325   26.9555   59.0467 H   0  0  0  0  0  0
   -0.2073   27.5363   59.2405 H   0  0  0  0  0  0
   -1.2927   28.7790   59.7828 H   0  0  0  0  0  0
   -2.1305   28.9888   55.8680 H   0  0  0  0  0  0
   -3.3165   30.1825   56.3930 H   0  0  0  0  0  0
   -1.0021   31.0851   56.9158 H   0  0  0  0  0  0
   -1.8568   30.7094   58.3959 H   0  0  0  0  0  0
   -3.5722   26.4359   56.1688 H   0  0  0  0  0  0
   -5.6576   26.0149   56.7389 H   0  0  0  0  0  0
   -5.9173   30.2517   55.9915 H   0  0  0  0  0  0
   -7.0842   29.7874   53.8798 H   0  0  0  0  0  0
   -6.8132   25.5693   54.6445 H   0  0  0  0  0  0
   -3.0157   24.3044   55.7251 H   0  0  0  0  0  0
   -8.7390   25.7700   53.2285 H   0  0  0  0  0  0
   -7.2316   25.6061   52.3401 H   0  0  0  0  0  0
    1.8911   28.2578   58.9417 H   0  0  0  0  0  0
    1.5508   27.1421   57.6018 H   0  0  0  0  0  0
    2.7798   28.3916   57.4301 H   0  0  0  0  0  0
   -9.5855   27.0720   48.1774 H   0  0  0  0  0  0
  -11.1390   26.9700   49.0327 H   0  0  0  0  0  0
  -10.3390   25.4887   48.4603 H   0  0  0  0  0  0
  1  2  1  0  0  0
  1  9  1  0  0  0
  1 10  2  0  0  0
  1 11  2  0  0  0
  2  3  1  0  0  0
  2  7  1  0  0  0
  3  5  1  0  0  0
  3  6  1  0  0  0
  3 28  1  0  0  0
  4 14  1  0  0  0
  4  8  1  0  0  0
  4  6  1  0  0  0
  5 15  2  0  0  0
  5 17  1  0  0  0
  6 29  1  0  0  0
  6 30  1  0  0  0
  7 14  1  0  0  0
  7 31  1  0  0  0
  7 32  1  0  0  0
  8 16  2  0  0  0
  8 26  1  0  0  0
  9 18  2  0  0  0
  9 19  1  0  0  0
 12 24  1  0  0  0
 12 13  3  0  0  0
 13 27  1  0  0  0
 14 33  1  0  0  0
 14 34  1  0  0  0
 17 23  1  0  0  0
 17 35  1  0  0  0
 18 22  1  0  0  0
 18 36  1  0  0  0
 19 21  2  0  0  0
 19 37  1  0  0  0
 20 21  1  0  0  0
 20 25  1  0  0  0
 20 22  2  0  0  0
 21 38  1  0  0  0
 22 39  1  0  0  0
 23 40  1  0  0  0
 24 25  1  0  0  0
 24 41  1  0  0  0
 24 42  1  0  0  0
 26 43  1  0  0  0
 26 44  1  0  0  0
 26 45  1  0  0  0
 27 46  1  0  0  0
 27 47  1  0  0  0
 27 48  1  0  0  0
M  END
> <s_m_entry_id>
64303

> <s_m_entry_name>
dock_pv.253

> <s_m_Source_Path>
/home/csk/Desktop/cluster/DUD-E-result/mmp13

> <s_m_Source_File>
dock_pv.maegz

> <i_m_Source_File_Index>
253

> <chembl_id>
CHEMBL195948

> <chembl_pref_name>
None

> <i_lp_mmshare_version>
53161

> <i_f3d_flags>
0

> <r_lp_tautomer_probability>
1

> <s_lp_Force_Field>
OPLS_2005

> <r_lp_Energy>
38.24875

> <b_lp_Chiralities_Consistent>
1

> <s_lp_Variant>
CHEMBL280_lig997-2

> <s_i_glide_gridfile>
glide-grid_830c

> <i_i_glide_lignum>
1649

> <i_i_glide_rotatable_bonds>
9

> <r_i_docking_score>
-6.9164734859127

> <r_i_glide_ligand_efficiency>
-0.256165684663433

> <r_i_glide_ligand_efficiency_sa>
-0.768497053146019

> <r_i_glide_ligand_efficiency_ln>
-1.61004100054337

> <r_i_glide_gscore>
-6.9164734859127

> <r_i_glide_lipo>
-2.45647128509663

> <r_i_glide_hbond>
-0.304

> <r_i_glide_metal>
0

> <r_i_glide_rewards>
-0.584265856543872

> <r_i_glide_evdw>
-33.1901016235352

> <r_i_glide_ecoul>
-17.1241664886475

> <r_i_glide_erotb>
0.875406883394867

> <r_i_glide_esite>
-0.219013173193181

> <r_i_glide_emodel>
-74.7398906201029

> <r_i_glide_energy>
-50.3142681121826

> <r_i_glide_einternal>
3.86912035942078

> <i_i_glide_confnum>
20

> <i_i_glide_posenum>
232

> <r_i_glide_eff_state_penalty>
0

> <s_user_duplicate_titles>
CHEMBL280_lig997,330927

> <s_m_subgroup_title>
dock_pv

> <s_m_subgroupid>
dock_pv

> <b_m_subgroup_collapsed>
1

$$$$
CHEMBL280_lig2063
                    3D
 Schrodinger Suite 2021-1.
 39 41  0  0  1  0            999 V2000
   -5.5424   28.1695   56.0973 N   0  0  0  0  0  0
   -5.5275   27.0721   55.4190 C   0  0  0  0  0  0
   -4.5067   26.1765   55.5723 N   0  0  0  0  0  0
   -3.2984   26.4356   56.1090 C   0  0  0  0  0  0
   -3.3021   27.6706   56.9979 C   0  0  0  0  0  0
   -2.1958   28.0802   57.7776 C   0  0  0  0  0  0
   -2.2992   29.2701   58.5093 C   0  0  0  0  0  0
   -3.4664   30.0351   58.4846 C   0  0  0  0  0  0
   -4.5476   29.6321   57.7046 C   0  0  0  0  0  0
   -4.4652   28.4630   56.9553 C   0  0  0  0  0  0
   -6.4063   26.8122   54.2774 C   0  0  0  0  0  0
   -6.7460   25.6750   53.9489 O   0  0  0  0  0  0
   -6.6282   27.9056   53.5224 N   0  0  0  0  0  0
   -2.3390   25.7701   55.7100 O   0  0  0  0  0  0
   -6.5730   27.9262   52.0586 C   0  0  0  0  0  0
   -7.7113   27.3727   51.2083 C   0  0  0  0  0  0
   -7.7478   27.7694   49.8686 C   0  0  0  0  0  0
   -8.7924   27.3855   49.0166 C   0  0  0  0  0  0
   -9.8021   26.5740   49.5301 C   0  0  0  0  0  0
   -9.7757   26.1699   50.8639 C   0  0  0  0  0  0
   -8.7392   26.5699   51.7044 C   0  0  0  0  0  0
   -8.8977   27.7691   47.6944 O   0  0  0  0  0  0
   -7.9387   28.6830   47.1670 C   0  0  0  0  0  0
   -0.9469   27.3236   57.8892 C   0  0  0  0  0  0
    0.0386   26.7228   57.9747 N   0  0  0  0  0  0
   -4.6622   25.1954   55.3100 H   0  0  0  0  0  0
   -1.4742   29.6110   59.1212 H   0  0  0  0  0  0
   -3.5276   30.9468   59.0623 H   0  0  0  0  0  0
   -5.4415   30.2374   57.6605 H   0  0  0  0  0  0
   -6.3293   28.7712   53.9528 H   0  0  0  0  0  0
   -6.4494   28.9701   51.7815 H   0  0  0  0  0  0
   -5.6486   27.4567   51.7274 H   0  0  0  0  0  0
   -6.9574   28.4093   49.5064 H   0  0  0  0  0  0
  -10.6158   26.2686   48.8896 H   0  0  0  0  0  0
  -10.5714   25.5555   51.2558 H   0  0  0  0  0  0
   -8.7660   26.2679   52.7386 H   0  0  0  0  0  0
   -8.1008   28.8057   46.0961 H   0  0  0  0  0  0
   -8.0354   29.6648   47.6329 H   0  0  0  0  0  0
   -6.9172   28.3284   47.3092 H   0  0  0  0  0  0
  1  2  2  0  0  0
  1 10  1  0  0  0
  2  3  1  0  0  0
  2 11  1  0  0  0
  3  4  1  0  0  0
  3 26  1  0  0  0
  4  5  1  0  0  0
  4 14  2  0  0  0
  5  6  1  0  0  0
  5 10  2  0  0  0
  6  7  2  0  0  0
  6 24  1  0  0  0
  7  8  1  0  0  0
  7 27  1  0  0  0
  8  9  2  0  0  0
  8 28  1  0  0  0
  9 10  1  0  0  0
  9 29  1  0  0  0
 11 12  2  0  0  0
 11 13  1  0  0  0
 13 15  1  0  0  0
 13 30  1  0  0  0
 15 16  1  0  0  0
 15 31  1  0  0  0
 15 32  1  0  0  0
 16 17  1  0  0  0
 16 21  2  0  0  0
 17 18  2  0  0  0
 17 33  1  0  0  0
 18 19  1  0  0  0
 18 22  1  0  0  0
 19 20  2  0  0  0
 19 34  1  0  0  0
 20 21  1  0  0  0
 20 35  1  0  0  0
 21 36  1  0  0  0
 22 23  1  0  0  0
 23 37  1  0  0  0
 23 38  1  0  0  0
 23 39  1  0  0  0
 24 25  3  0  0  0
M  END
> <s_m_entry_id>
64304

> <s_m_entry_name>
dock_pv.254

> <s_m_Source_Path>
/home/csk/Desktop/cluster/DUD-E-result/mmp13

> <s_m_Source_File>
dock_pv.maegz

> <i_m_Source_File_Index>
254

> <chembl_id>
CHEMBL3359073

> <chembl_pref_name>
None

> <i_lp_mmshare_version>
53161

> <i_f3d_flags>
0

> <r_lp_tautomer_probability>
1

> <s_lp_Force_Field>
OPLS_2005

> <r_lp_Energy>
24.865017

> <b_lp_Chiralities_Consistent>
1

> <s_lp_Variant>
CHEMBL280_lig2063-1

> <s_i_glide_gridfile>
glide-grid_830c

> <i_i_glide_lignum>
2856

> <i_i_glide_rotatable_bonds>
5

> <r_i_docking_score>
-6.90855700234858

> <r_i_glide_ligand_efficiency>
-0.276342280093943

> <r_i_glide_ligand_efficiency_sa>
-0.808029727945896

> <r_i_glide_ligand_efficiency_ln>
-1.63753504230346

> <r_i_glide_gscore>
-6.90855700234858

> <r_i_glide_lipo>
-2.38145728920457

> <r_i_glide_hbond>
-0.16

> <r_i_glide_metal>
0

> <r_i_glide_rewards>
-0.579151271289853

> <r_i_glide_evdw>
-43.2071228027344

> <r_i_glide_ecoul>
-14.7325916290283

> <r_i_glide_erotb>
0.674891176276205

> <r_i_glide_esite>
-0.092594733639395

> <r_i_glide_emodel>
-61.3863760887912

> <r_i_glide_energy>
-57.9397144317627

> <r_i_glide_einternal>
27.976095199585

> <i_i_glide_confnum>
4

> <i_i_glide_posenum>
345

> <r_i_glide_eff_state_penalty>
0

> <s_user_duplicate_titles>
CHEMBL280_lig2063

> <s_m_subgroup_title>
dock_pv

> <s_m_subgroupid>
dock_pv

> <b_m_subgroup_collapsed>
1

$$$$
CHEMBL280_lig259
                    3D
 Schrodinger Suite 2021-1.
 43 45  0  0  1  0            999 V2000
   -4.7505   29.1721   57.9133 S   0  0  0  0  0  0
   -2.1256   28.9533   56.7429 C   0  0  0  0  0  0
   -3.1735   29.7611   57.2465 C   0  0  0  0  0  0
   -5.9532   29.3529   56.6377 N   0  0  0  0  0  0
   -2.2610   27.4811   56.4669 C   0  0  0  0  0  0
   -4.6733   27.7620   58.3044 O   0  0  0  0  0  0
   -5.1392   30.1691   58.9104 O   0  0  0  0  0  0
   -2.3396   27.0477   55.3100 O   0  0  0  0  0  0
   -2.1685   26.6859   57.5355 N   0  0  0  0  0  0
   -6.2672   28.4590   55.6062 C   0  0  0  0  0  0
   -7.6828   25.9952   52.5288 O   0  0  0  0  0  0
   -7.1899   26.8238   53.5224 C   0  0  0  0  0  0
   -0.9038   29.5619   56.4202 C   0  0  0  0  0  0
   -8.1307   26.5151   51.3268 C   0  0  0  0  0  0
   -7.0962   28.9772   54.6182 C   0  0  0  0  0  0
   -5.8822   27.1121   55.5469 C   0  0  0  0  0  0
   -6.3485   26.3007   54.5088 C   0  0  0  0  0  0
   -7.5596   28.1659   53.5979 C   0  0  0  0  0  0
   -2.3389   25.3209   57.3100 O   0  0  0  0  0  0
   -2.9885   31.1512   57.3061 C   0  0  0  0  0  0
   -9.4042   26.1706   50.8705 C   0  0  0  0  0  0
   -7.3303   27.3689   50.5597 C   0  0  0  0  0  0
   -0.7306   30.9396   56.5115 C   0  0  0  0  0  0
   -1.7834   31.7390   56.9353 C   0  0  0  0  0  0
   -7.8080   27.8949   49.3635 C   0  0  0  0  0  0
   -9.8947   26.7219   49.6878 C   0  0  0  0  0  0
   -9.0933   27.5776   48.9369 C   0  0  0  0  0  0
   -6.4352   30.2380   56.6368 H   0  0  0  0  0  0
   -2.1190   26.9416   58.5122 H   0  0  0  0  0  0
   -0.0596   28.9697   56.1098 H   0  0  0  0  0  0
   -7.4117   30.0098   54.6515 H   0  0  0  0  0  0
   -5.2512   26.6632   56.2963 H   0  0  0  0  0  0
   -6.0671   25.2578   54.4787 H   0  0  0  0  0  0
   -8.2369   28.5730   52.8706 H   0  0  0  0  0  0
   -3.1779   25.1113   57.7573 H   0  0  0  0  0  0
   -3.7785   31.7960   57.6643 H   0  0  0  0  0  0
  -10.0212   25.5020   51.4510 H   0  0  0  0  0  0
   -6.3383   27.6324   50.8965 H   0  0  0  0  0  0
    0.2175   31.3862   56.2507 H   0  0  0  0  0  0
   -1.6598   32.8105   57.0003 H   0  0  0  0  0  0
   -7.1851   28.5575   48.7790 H   0  0  0  0  0  0
  -10.8922   26.5009   49.3462 H   0  0  0  0  0  0
   -9.4685   27.9995   48.0157 H   0  0  0  0  0  0
  1  3  1  0  0  0
  1  4  1  0  0  0
  1  6  2  0  0  0
  1  7  2  0  0  0
  2  3  1  0  0  0
  2  5  1  0  0  0
  2 13  2  0  0  0
  3 20  2  0  0  0
  4 10  1  0  0  0
  4 28  1  0  0  0
  5  8  2  0  0  0
  5  9  1  0  0  0
  9 19  1  0  0  0
  9 29  1  0  0  0
 10 15  2  0  0  0
 10 16  1  0  0  0
 11 12  1  0  0  0
 11 14  1  0  0  0
 12 17  1  0  0  0
 12 18  2  0  0  0
 13 23  1  0  0  0
 13 30  1  0  0  0
 14 21  2  0  0  0
 14 22  1  0  0  0
 15 18  1  0  0  0
 15 31  1  0  0  0
 16 17  2  0  0  0
 16 32  1  0  0  0
 17 33  1  0  0  0
 18 34  1  0  0  0
 19 35  1  0  0  0
 20 24  1  0  0  0
 20 36  1  0  0  0
 21 26  1  0  0  0
 21 37  1  0  0  0
 22 25  2  0  0  0
 22 38  1  0  0  0
 23 24  2  0  0  0
 23 39  1  0  0  0
 24 40  1  0  0  0
 25 27  1  0  0  0
 25 41  1  0  0  0
 26 27  2  0  0  0
 26 42  1  0  0  0
 27 43  1  0  0  0
M  END
> <s_m_entry_id>
64305

> <s_m_entry_name>
dock_pv.255

> <s_m_Source_Path>
/home/csk/Desktop/cluster/DUD-E-result/mmp13

> <s_m_Source_File>
dock_pv.maegz

> <i_m_Source_File_Index>
255

> <chembl_id>
CHEMBL94324

> <chembl_pref_name>
None

> <i_lp_mmshare_version>
53161

> <i_f3d_flags>
0

> <r_lp_tautomer_probability>
1

> <s_lp_Force_Field>
OPLS_2005

> <r_lp_Energy>
31.075103

> <b_lp_Chiralities_Consistent>
1

> <s_lp_Variant>
CHEMBL280_lig259-1

> <s_i_glide_gridfile>
glide-grid_830c

> <i_i_glide_lignum>
357

> <i_i_glide_rotatable_bonds>
8

> <r_i_docking_score>
-6.90685627626068

> <r_i_glide_ligand_efficiency>
-0.255809491713359

> <r_i_glide_ligand_efficiency_sa>
-0.76742847429697

> <r_i_glide_ligand_efficiency_ln>
-1.60780227268847

> <r_i_glide_gscore>
-6.90685627626068

> <r_i_glide_lipo>
-2.92086957233035

> <r_i_glide_hbond>
0

> <r_i_glide_metal>
0

> <r_i_glide_rewards>
-0.843552207695277

> <r_i_glide_evdw>
-43.6277351379395

> <r_i_glide_ecoul>
-11.6352968215942

> <r_i_glide_erotb>
0.921007047381644

> <r_i_glide_esite>
-0.136760263480592

> <r_i_glide_emodel>
-81.8334905699427

> <r_i_glide_energy>
-55.2630319595337

> <r_i_glide_einternal>
7.0867977142334

> <i_i_glide_confnum>
30

> <i_i_glide_posenum>
94

> <r_i_glide_eff_state_penalty>
0

> <s_user_duplicate_titles>
CHEMBL280_lig259

> <s_m_subgroup_title>
dock_pv

> <s_m_subgroupid>
dock_pv

> <b_m_subgroup_collapsed>
1

$$$$
CHEMBL280_lig1510
                    3D
 Schrodinger Suite 2021-1.
 38 39  0  0  1  0            999 V2000
   -8.4792   28.4044   47.3100 C   0  0  0  0  0  0
   -9.6782   27.8028   46.9508 C   0  0  0  0  0  0
  -10.3354   26.9700   47.8472 C   0  0  0  0  0  0
   -9.7953   26.7441   49.1097 C   0  0  0  0  0  0
   -8.5852   27.3394   49.5081 C   0  0  0  0  0  0
   -7.9397   28.1674   48.5707 C   0  0  0  0  0  0
   -8.0266   27.1332   50.8966 C   0  0  0  0  0  0
   -8.6467   26.2890   51.8293 C   0  0  0  0  0  0
   -8.1940   26.2104   53.1442 C   0  0  0  0  0  0
   -7.0939   26.9537   53.5684 C   0  0  0  0  0  0
   -6.4211   27.7414   52.6386 C   0  0  0  0  0  0
   -6.8874   27.8225   51.3358 C   0  0  0  0  0  0
   -6.7085   26.9248   55.0462 C   0  0  0  0  0  0
   -5.4745   27.7393   55.4814 C   0  0  0  0  0  0
   -4.1493   26.9615   55.3394 C   0  0  2  0  0  0
   -3.5338   26.6907   56.7289 C   0  0  0  0  0  0
   -3.2476   27.6747   54.5115 O   0  0  0  0  0  0
   -2.2311   25.9026   56.7125 C   0  0  0  0  0  0
   -1.9391   25.3782   57.9295 O   0  0  0  0  0  0
   -1.5372   25.7700   55.7100 O   0  0  0  0  0  0
   -7.9596   29.0447   46.6112 H   0  0  0  0  0  0
  -10.0983   27.9839   45.9724 H   0  0  0  0  0  0
  -11.2734   26.5121   47.5714 H   0  0  0  0  0  0
  -10.3501   26.0994   49.7680 H   0  0  0  0  0  0
   -7.0055   28.6582   48.7884 H   0  0  0  0  0  0
   -9.5130   25.6999   51.5767 H   0  0  0  0  0  0
   -8.7375   25.5875   53.8366 H   0  0  0  0  0  0
   -5.5514   28.3238   52.8982 H   0  0  0  0  0  0
   -6.3422   28.4886   50.6987 H   0  0  0  0  0  0
   -6.6289   25.8901   55.3866 H   0  0  0  0  0  0
   -7.5392   27.3524   55.5879 H   0  0  0  0  0  0
   -5.6255   28.0032   56.5303 H   0  0  0  0  0  0
   -5.4487   28.7168   54.9987 H   0  0  0  0  0  0
   -4.3402   26.0028   54.8518 H   0  0  0  0  0  0
   -4.2669   26.1322   57.3098 H   0  0  0  0  0  0
   -3.3536   27.6274   57.2577 H   0  0  0  0  0  0
   -3.2944   28.6073   54.7535 H   0  0  0  0  0  0
   -2.7141   25.3682   58.5057 H   0  0  0  0  0  0
  1  6  1  0  0  0
  1  2  2  0  0  0
  1 21  1  0  0  0
  2  3  1  0  0  0
  2 22  1  0  0  0
  3  4  2  0  0  0
  3 23  1  0  0  0
  4  5  1  0  0  0
  4 24  1  0  0  0
  5  6  2  0  0  0
  5  7  1  0  0  0
  6 25  1  0  0  0
  7 12  1  0  0  0
  7  8  2  0  0  0
  8  9  1  0  0  0
  8 26  1  0  0  0
  9 10  2  0  0  0
  9 27  1  0  0  0
 10 11  1  0  0  0
 10 13  1  0  0  0
 11 12  2  0  0  0
 11 28  1  0  0  0
 12 29  1  0  0  0
 13 14  1  0  0  0
 13 30  1  0  0  0
 13 31  1  0  0  0
 14 15  1  0  0  0
 14 32  1  0  0  0
 14 33  1  0  0  0
 15 16  1  0  0  0
 15 17  1  0  0  0
 15 34  1  0  0  0
 16 18  1  0  0  0
 16 35  1  0  0  0
 16 36  1  0  0  0
 17 37  1  0  0  0
 18 19  1  0  0  0
 18 20  2  0  0  0
 19 38  1  0  0  0
M  END
> <s_m_entry_id>
64306

> <s_m_entry_name>
dock_pv.256

> <s_m_Source_Path>
/home/csk/Desktop/cluster/DUD-E-result/mmp13

> <s_m_Source_File>
dock_pv.maegz

> <i_m_Source_File_Index>
256

> <chembl_id>
CHEMBL572982

> <chembl_pref_name>
None

> <i_lp_mmshare_version>
53161

> <i_f3d_flags>
0

> <r_lp_tautomer_probability>
1

> <s_lp_Force_Field>
OPLS_2005

> <r_lp_Energy>
14.529319

> <b_lp_Chiralities_Consistent>
1

> <s_lp_Variant>
CHEMBL280_lig1510-1

> <s_i_glide_gridfile>
glide-grid_830c

> <i_i_glide_lignum>
2247

> <i_i_glide_rotatable_bonds>
8

> <r_i_docking_score>
-6.90496732483145

> <r_i_glide_ligand_efficiency>
-0.345248366241572

> <r_i_glide_ligand_efficiency_sa>
-0.937148246490919

> <r_i_glide_ligand_efficiency_ln>
-1.72808558034091

> <r_i_glide_gscore>
-6.90496732483145

> <r_i_glide_lipo>
-3.91180164864465

> <r_i_glide_hbond>
-0.0424160998705995

> <r_i_glide_metal>
0

> <r_i_glide_rewards>
-1.61227345751489

> <r_i_glide_evdw>
-33.9244346618652

> <r_i_glide_ecoul>
-16.5274448394775

> <r_i_glide_erotb>
2.93686234021358

> <r_i_glide_esite>
-0.1

> <r_i_glide_emodel>
-76.7522512960719

> <r_i_glide_energy>
-50.4518795013428

> <r_i_glide_einternal>
6.26438522338867

> <i_i_glide_confnum>
24

> <i_i_glide_posenum>
119

> <r_i_glide_eff_state_penalty>
0

> <s_user_duplicate_titles>
CHEMBL280_lig1510

> <s_m_subgroup_title>
dock_pv

> <s_m_subgroupid>
dock_pv

> <b_m_subgroup_collapsed>
1

$$$$
CHEMBL280_lig332
                    3D
 Schrodinger Suite 2021-1.
 49 50  0  0  1  0            999 V2000
   -5.2848   28.0803   57.4891 S   0  0  0  0  0  0
   -3.3805   28.1929   57.1772 C   0  0  2  0  0  0
   -2.9359   27.1644   56.1062 C   0  0  0  0  0  0
   -6.0172   27.5913   55.9198 C   0  0  0  0  0  0
   -5.5385   26.9817   58.4289 O   0  0  0  0  0  0
   -5.8048   29.4170   57.7942 O   0  0  0  0  0  0
   -2.6625   28.0640   58.6022 C   0  0  0  0  0  0
   -2.7313   27.4536   54.9168 O   0  0  0  0  0  0
   -2.8059   25.9220   56.5608 N   0  0  0  0  0  0
   -6.2415   26.2381   55.6687 C   0  0  0  0  0  0
   -6.3351   28.5436   54.9480 C   0  0  0  0  0  0
   -3.1196   29.6215   56.6289 C   0  0  0  0  0  0
   -7.0505   26.7711   53.4524 C   0  0  0  0  0  0
   -6.8507   28.1358   53.7168 C   0  0  0  0  0  0
   -6.7422   25.8368   54.4371 C   0  0  0  0  0  0
   -2.3389   24.9677   55.6927 O   0  0  0  0  0  0
   -1.4789   27.0900   58.9426 C   0  0  0  0  0  0
   -7.5288   26.2570   52.2646 O   0  0  0  0  0  0
   -7.5653   27.0903   51.1121 C   0  0  0  0  0  0
   -0.2140   27.3330   58.0806 C   0  0  0  0  0  0
   -1.0649   27.1770   60.4449 C   0  0  0  0  0  0
    0.1003   26.2465   60.8396 C   0  0  0  0  0  0
    0.8748   26.2872   58.3778 C   0  0  0  0  0  0
    1.2942   26.3417   59.8619 C   0  0  0  0  0  0
   -3.4340   27.7793   59.3113 H   0  0  0  0  0  0
   -2.3466   29.0554   58.9249 H   0  0  0  0  0  0
   -3.0296   25.5667   57.4866 H   0  0  0  0  0  0
   -5.9894   25.4870   56.4040 H   0  0  0  0  0  0
   -6.1665   29.5944   55.1382 H   0  0  0  0  0  0
   -2.0611   29.7999   56.4349 H   0  0  0  0  0  0
   -3.6773   29.8024   55.7134 H   0  0  0  0  0  0
   -3.4343   30.3874   57.3381 H   0  0  0  0  0  0
   -7.0803   28.8858   52.9756 H   0  0  0  0  0  0
   -6.8626   24.7840   54.2282 H   0  0  0  0  0  0
   -3.0658   24.3116   55.7042 H   0  0  0  0  0  0
   -1.8095   26.0604   58.8136 H   0  0  0  0  0  0
   -7.6992   26.4707   50.2255 H   0  0  0  0  0  0
   -8.4103   27.7700   51.1625 H   0  0  0  0  0  0
   -6.6466   27.6627   50.9728 H   0  0  0  0  0  0
    0.1578   28.3477   58.2396 H   0  0  0  0  0  0
   -0.4390   27.3012   57.0169 H   0  0  0  0  0  0
   -1.9089   26.9874   61.1097 H   0  0  0  0  0  0
   -0.7739   28.2011   60.6872 H   0  0  0  0  0  0
    0.4428   26.5125   61.8420 H   0  0  0  0  0  0
   -0.2610   25.2254   60.9407 H   0  0  0  0  0  0
    1.7423   26.4636   57.7408 H   0  0  0  0  0  0
    0.5130   25.2901   58.1144 H   0  0  0  0  0  0
    1.8109   27.2853   60.0395 H   0  0  0  0  0  0
    2.0245   25.5602   60.0760 H   0  0  0  0  0  0
  1  2  1  0  0  0
  1  4  1  0  0  0
  1  5  2  0  0  0
  1  6  2  0  0  0
  2  3  1  0  0  0
  2  7  1  0  0  0
  2 12  1  0  0  0
  3  8  2  0  0  0
  3  9  1  0  0  0
  4 10  1  0  0  0
  4 11  2  0  0  0
  7 17  1  0  0  0
  7 25  1  0  0  0
  7 26  1  0  0  0
  9 16  1  0  0  0
  9 27  1  0  0  0
 10 15  2  0  0  0
 10 28  1  0  0  0
 11 14  1  0  0  0
 11 29  1  0  0  0
 12 30  1  0  0  0
 12 31  1  0  0  0
 12 32  1  0  0  0
 13 14  2  0  0  0
 13 18  1  0  0  0
 13 15  1  0  0  0
 14 33  1  0  0  0
 15 34  1  0  0  0
 16 35  1  0  0  0
 17 20  1  0  0  0
 17 21  1  0  0  0
 17 36  1  0  0  0
 18 19  1  0  0  0
 19 37  1  0  0  0
 19 38  1  0  0  0
 19 39  1  0  0  0
 20 23  1  0  0  0
 20 40  1  0  0  0
 20 41  1  0  0  0
 21 22  1  0  0  0
 21 42  1  0  0  0
 21 43  1  0  0  0
 22 24  1  0  0  0
 22 44  1  0  0  0
 22 45  1  0  0  0
 23 24  1  0  0  0
 23 46  1  0  0  0
 23 47  1  0  0  0
 24 48  1  0  0  0
 24 49  1  0  0  0
M  END
> <s_m_entry_id>
64307

> <s_m_entry_name>
dock_pv.257

> <s_m_Source_Path>
/home/csk/Desktop/cluster/DUD-E-result/mmp13

> <s_m_Source_File>
dock_pv.maegz

> <i_m_Source_File_Index>
257

> <chembl_id>
CHEMBL80361

> <chembl_pref_name>
None

> <i_lp_mmshare_version>
53161

> <i_f3d_flags>
0

> <r_lp_tautomer_probability>
1

> <s_lp_Force_Field>
OPLS_2005

> <r_lp_Energy>
24.531529

> <b_lp_Chiralities_Consistent>
1

> <s_lp_Variant>
CHEMBL280_lig332-2

> <s_i_glide_gridfile>
glide-grid_830c

> <i_i_glide_lignum>
474

> <i_i_glide_rotatable_bonds>
8

> <r_i_docking_score>
-6.90019434166065

> <r_i_glide_ligand_efficiency>
-0.287508097569194

> <r_i_glide_ligand_efficiency_sa>
-0.829316859479602

> <r_i_glide_ligand_efficiency_ln>
-1.65153313524589

> <r_i_glide_gscore>
-6.90019434166065

> <r_i_glide_lipo>
-1.94691509637007

> <r_i_glide_hbond>
-0.280317694497799

> <r_i_glide_metal>
0

> <r_i_glide_rewards>
-0.976850014938942

> <r_i_glide_evdw>
-31.423318862915

> <r_i_glide_ecoul>
-17.2447185516357

> <r_i_glide_erotb>
0.756687650594643

> <r_i_glide_esite>
-0.294925460557367

> <r_i_glide_emodel>
-74.4896128461959

> <r_i_glide_energy>
-48.6680374145508

> <r_i_glide_einternal>
4.21988582611084

> <i_i_glide_confnum>
3

> <i_i_glide_posenum>
37

> <r_i_glide_eff_state_penalty>
0

> <s_user_duplicate_titles>
CHEMBL280_lig332

> <s_m_subgroup_title>
dock_pv

> <s_m_subgroupid>
dock_pv

> <b_m_subgroup_collapsed>
1

$$$$
CHEMBL280_lig1265
                    3D
 Schrodinger Suite 2021-1.
 53 56  0  0  1  0            999 V2000
   -0.6154   26.7986   60.6855 C   0  0  0  0  0  0
   -1.8549   26.5701   60.0712 C   0  0  0  0  0  0
   -2.1604   27.1547   58.8466 C   0  0  0  0  0  0
   -1.2316   27.9873   58.2140 C   0  0  0  0  0  0
    0.0128   28.2014   58.8071 C   0  0  0  0  0  0
    0.3228   27.6107   60.0294 C   0  0  0  0  0  0
   -0.3277   26.1692   62.0286 C   0  0  0  0  0  0
    0.8506   26.5421   62.6037 O   0  0  0  0  0  0
   -1.1097   25.3891   62.5684 O   0  0  0  0  0  0
   -1.5467   28.7281   56.9124 C   0  0  0  0  0  0
   -2.9726   28.7964   56.5274 N   0  0  0  0  0  0
   -3.4451   27.8466   55.6367 C   0  0  0  0  0  0
   -4.9713   30.0120   56.7562 N   0  0  0  0  0  0
   -3.7381   29.8225   57.0595 C   0  0  0  0  0  0
   -5.5831   29.1563   55.8295 C   0  0  0  0  0  0
   -4.9171   28.0371   55.3138 C   0  0  0  0  0  0
   -5.5946   27.1724   54.4551 C   0  0  0  0  0  0
   -6.8980   27.5050   54.0604 C   0  0  0  0  0  0
   -7.5385   28.6216   54.5100 N   0  0  0  0  0  0
   -6.8875   29.4158   55.4032 C   0  0  0  0  0  0
   -2.7422   26.9701   55.1069 O   0  0  0  0  0  0
   -7.6389   26.5764   53.1459 C   0  0  0  0  0  0
   -7.5373   25.3683   53.3088 O   0  0  0  0  0  0
   -8.3382   27.1281   52.1422 N   0  0  0  0  0  0
   -8.9675   26.3794   51.0468 C   0  0  0  0  0  0
   -8.9154   27.1069   49.7077 C   0  0  0  0  0  0
   -7.7868   27.8417   49.3294 C   0  0  0  0  0  0
   -7.7892   28.5727   48.1435 C   0  0  0  0  0  0
   -8.9180   28.5705   47.3139 C   0  0  0  0  0  0
  -10.0158   27.7911   47.6672 C   0  0  0  0  0  0
  -10.0273   27.0826   48.8650 C   0  0  0  0  0  0
   -9.0359   29.3095   46.1547 O   0  0  0  0  0  0
   -8.1909   30.4424   45.9783 C   0  0  0  0  0  0
   -2.6045   25.9459   60.5387 H   0  0  0  0  0  0
   -3.1313   26.9628   58.4133 H   0  0  0  0  0  0
    0.7416   28.8397   58.3292 H   0  0  0  0  0  0
    1.2995   27.8125   60.4428 H   0  0  0  0  0  0
    1.3058   27.2001   62.0812 H   0  0  0  0  0  0
   -0.9640   28.2488   56.1262 H   0  0  0  0  0  0
   -1.1467   29.7421   56.9806 H   0  0  0  0  0  0
   -3.2530   30.4836   57.7735 H   0  0  0  0  0  0
   -5.1258   26.2723   54.0864 H   0  0  0  0  0  0
   -7.4285   30.2709   55.7763 H   0  0  0  0  0  0
   -8.4745   28.1269   52.1506 H   0  0  0  0  0  0
  -10.0058   26.1792   51.3137 H   0  0  0  0  0  0
   -8.5130   25.3947   50.9165 H   0  0  0  0  0  0
   -6.9092   27.8735   49.9580 H   0  0  0  0  0  0
   -6.9098   29.1450   47.8931 H   0  0  0  0  0  0
  -10.8901   27.7841   47.0328 H   0  0  0  0  0  0
  -10.9217   26.5466   49.1405 H   0  0  0  0  0  0
   -8.4418   30.9460   45.0461 H   0  0  0  0  0  0
   -7.1391   30.1722   45.9274 H   0  0  0  0  0  0
   -8.3250   31.1598   46.7899 H   0  0  0  0  0  0
  1  7  1  0  0  0
  1  6  1  0  0  0
  1  2  2  0  0  0
  2  3  1  0  0  0
  2 34  1  0  0  0
  3  4  2  0  0  0
  3 35  1  0  0  0
  4  5  1  0  0  0
  4 10  1  0  0  0
  5  6  2  0  0  0
  5 36  1  0  0  0
  6 37  1  0  0  0
  7  8  1  0  0  0
  7  9  2  0  0  0
  8 38  1  0  0  0
 10 11  1  0  0  0
 10 39  1  0  0  0
 10 40  1  0  0  0
 11 12  1  0  0  0
 11 14  1  0  0  0
 12 21  2  0  0  0
 12 16  1  0  0  0
 13 15  1  0  0  0
 13 14  2  0  0  0
 14 41  1  0  0  0
 15 20  1  0  0  0
 15 16  2  0  0  0
 16 17  1  0  0  0
 17 18  2  0  0  0
 17 42  1  0  0  0
 18 19  1  0  0  0
 18 22  1  0  0  0
 19 20  2  0  0  0
 20 43  1  0  0  0
 22 23  2  0  0  0
 22 24  1  0  0  0
 24 25  1  0  0  0
 24 44  1  0  0  0
 25 26  1  0  0  0
 25 45  1  0  0  0
 25 46  1  0  0  0
 26 27  2  0  0  0
 26 31  1  0  0  0
 27 28  1  0  0  0
 27 47  1  0  0  0
 28 29  2  0  0  0
 28 48  1  0  0  0
 29 30  1  0  0  0
 29 32  1  0  0  0
 30 31  2  0  0  0
 30 49  1  0  0  0
 31 50  1  0  0  0
 32 33  1  0  0  0
 33 51  1  0  0  0
 33 52  1  0  0  0
 33 53  1  0  0  0
M  END
> <s_m_entry_id>
64308

> <s_m_entry_name>
dock_pv.258

> <s_m_Source_Path>
/home/csk/Desktop/cluster/DUD-E-result/mmp13

> <s_m_Source_File>
dock_pv.maegz

> <i_m_Source_File_Index>
258

> <chembl_id>
CHEMBL270050

> <chembl_pref_name>
None

> <i_lp_mmshare_version>
53161

> <i_f3d_flags>
0

> <r_lp_tautomer_probability>
1

> <s_lp_Force_Field>
OPLS_2005

> <r_lp_Energy>
32.705348

> <b_lp_Chiralities_Consistent>
1

> <s_lp_Variant>
CHEMBL280_lig1265-1

> <s_i_glide_gridfile>
glide-grid_830c

> <i_i_glide_lignum>
1985

> <i_i_glide_rotatable_bonds>
9

> <r_i_docking_score>
-6.89959944414889

> <r_i_glide_ligand_efficiency>
-0.209078771034815

> <r_i_glide_ligand_efficiency_sa>
-0.670627334985888

> <r_i_glide_ligand_efficiency_ln>
-1.53443519216471

> <r_i_glide_gscore>
-6.89959944414889

> <r_i_glide_lipo>
-3.15498743644835

> <r_i_glide_hbond>
-0.0376404961139145

> <r_i_glide_metal>
0

> <r_i_glide_rewards>
-0.392589333724271

> <r_i_glide_evdw>
-54.4375801086426

> <r_i_glide_ecoul>
-8.50402641296387

> <r_i_glide_erotb>
0.708764611324896

> <r_i_glide_esite>
-0.0256638218105436

> <r_i_glide_emodel>
-85.3989597109749

> <r_i_glide_energy>
-62.9416065216064

> <r_i_glide_einternal>
10.3799734115601

> <i_i_glide_confnum>
2

> <i_i_glide_posenum>
45

> <r_i_glide_eff_state_penalty>
0

> <s_user_duplicate_titles>
CHEMBL280_lig1265,440114

> <s_m_subgroup_title>
dock_pv

> <s_m_subgroupid>
dock_pv

> <b_m_subgroup_collapsed>
1

$$$$
CHEMBL280_lig2231
                    3D
 Schrodinger Suite 2021-1.
 67 71  0  0  1  0            999 V2000
   -5.9404   30.4258   57.2033 C   0  0  0  0  0  0
   -6.8390   30.1071   56.1810 C   0  0  0  0  0  0
   -6.4183   28.9036   55.6325 C   0  0  0  0  0  0
   -5.3181   28.4724   56.2912 O   0  0  0  0  0  0
   -4.9940   29.4114   57.2265 C   0  0  0  0  0  0
   -7.6047   26.9134   54.6739 C   0  0  0  0  0  0
   -6.8652   28.0804   54.4878 C   0  0  0  0  0  0
   -6.5663   28.4948   53.1927 C   0  0  0  0  0  0
   -7.0384   27.7784   52.0956 C   0  0  0  0  0  0
   -7.8224   26.6496   52.2750 C   0  0  0  0  0  0
   -8.0975   26.2217   53.5696 C   0  0  0  0  0  0
   -8.3101   25.8701   51.0707 C   0  0  0  0  0  0
   -9.9508   26.3474   50.5095 S   0  0  0  0  0  0
   -9.7718   27.1723   48.9698 C   0  0  0  0  0  0
   -8.8237   28.1335   48.8901 N   0  0  0  0  0  0
  -10.4834   27.4293   46.7714 C   0  0  0  0  0  0
  -10.6081   26.7940   47.9687 N   0  0  0  0  0  0
   -9.5419   28.4548   46.6067 C   0  0  0  0  0  0
   -8.7329   28.7634   47.6979 C   0  0  0  0  0  0
   -7.7241   29.8232   47.3590 C   0  0  0  0  0  0
   -8.1950   30.3422   45.9948 C   0  0  0  0  0  0
   -9.1411   29.2853   45.4045 C   0  0  0  0  0  0
  -11.2592   27.1245   45.6893 O   0  0  0  0  0  0
   -3.7508   29.2847   57.9341 C   0  0  0  0  0  0
   -3.2243   30.2339   58.5108 O   0  0  0  0  0  0
   -3.1994   28.0738   57.7889 N   0  0  0  0  0  0
   -1.8431   27.6579   58.1304 C   0  0  1  0  0  0
   -1.7373   26.9702   59.5172 C   0  0  0  0  0  0
   -1.3372   26.7219   56.9787 C   0  0  0  0  0  0
   -0.4959   26.8809   60.0134 N   0  0  0  0  0  0
   -2.7382   26.5700   60.1106 O   0  0  0  0  0  0
   -2.2781   25.5356   56.6661 C   0  0  0  0  0  0
    0.1187   26.2375   57.1124 C   0  0  0  0  0  0
   -0.0960   26.2449   61.2645 C   0  0  0  0  0  0
   -6.7393   28.1717   50.8478 F   0  0  0  0  0  0
    1.0273   25.2159   61.1039 C   0  0  0  0  0  0
    2.0006   26.1701   61.7097 O   0  0  0  0  0  0
    0.8808   27.0743   62.1013 C   0  0  0  0  0  0
   -5.9479   31.3138   57.8197 H   0  0  0  0  0  0
   -7.6852   30.6974   55.8617 H   0  0  0  0  0  0
   -7.8413   26.5688   55.6702 H   0  0  0  0  0  0
   -5.9599   29.3700   53.0323 H   0  0  0  0  0  0
   -8.7337   25.3699   53.7102 H   0  0  0  0  0  0
   -7.6168   26.0002   50.2411 H   0  0  0  0  0  0
   -8.3392   24.8122   51.3099 H   0  0  0  0  0  0
  -11.8799   26.4328   45.9160 H   0  0  0  0  0  0
   -7.6796   30.6227   48.0991 H   0  0  0  0  0  0
   -6.7391   29.3664   47.3035 H   0  0  0  0  0  0
   -8.7430   31.2757   46.1362 H   0  0  0  0  0  0
   -7.3613   30.5699   45.3277 H   0  0  0  0  0  0
   -8.6094   28.6777   44.6709 H   0  0  0  0  0  0
   -9.9865   29.7542   44.9002 H   0  0  0  0  0  0
   -3.7898   27.3392   57.4295 H   0  0  0  0  0  0
   -1.2163   28.5531   58.1561 H   0  0  0  0  0  0
   -1.3416   27.3499   56.0869 H   0  0  0  0  0  0
    0.2583   27.2610   59.4608 H   0  0  0  0  0  0
   -2.3388   24.8549   57.5132 H   0  0  0  0  0  0
   -3.2972   25.8522   56.4444 H   0  0  0  0  0  0
   -1.9384   24.9699   55.8027 H   0  0  0  0  0  0
    0.2399   25.4934   57.8993 H   0  0  0  0  0  0
    0.4585   25.7748   56.1901 H   0  0  0  0  0  0
    0.7963   27.0666   57.3196 H   0  0  0  0  0  0
   -0.9849   25.8937   61.7931 H   0  0  0  0  0  0
    1.3358   24.9879   60.0832 H   0  0  0  0  0  0
    0.9524   24.3223   61.7251 H   0  0  0  0  0  0
    0.7395   27.0323   63.1829 H   0  0  0  0  0  0
    1.0895   28.0837   61.7443 H   0  0  0  0  0  0
  1  2  1  0  0  0
  1  5  2  0  0  0
  1 39  1  0  0  0
  2  3  2  0  0  0
  2 40  1  0  0  0
  3  4  1  0  0  0
  3  7  1  0  0  0
  4  5  1  0  0  0
  5 24  1  0  0  0
  6  7  2  0  0  0
  6 11  1  0  0  0
  6 41  1  0  0  0
  7  8  1  0  0  0
  8  9  2  0  0  0
  8 42  1  0  0  0
  9 10  1  0  0  0
  9 35  1  0  0  0
 10 11  2  0  0  0
 10 12  1  0  0  0
 11 43  1  0  0  0
 12 44  1  0  0  0
 12 45  1  0  0  0
 12 13  1  0  0  0
 13 14  1  0  0  0
 14 17  1  0  0  0
 14 15  2  0  0  0
 15 19  1  0  0  0
 16 17  2  0  0  0
 16 23  1  0  0  0
 16 18  1  0  0  0
 18 22  1  0  0  0
 18 19  2  0  0  0
 19 20  1  0  0  0
 20 21  1  0  0  0
 20 47  1  0  0  0
 20 48  1  0  0  0
 21 22  1  0  0  0
 21 49  1  0  0  0
 21 50  1  0  0  0
 22 51  1  0  0  0
 22 52  1  0  0  0
 23 46  1  0  0  0
 24 25  2  0  0  0
 24 26  1  0  0  0
 26 27  1  0  0  0
 26 53  1  0  0  0
 27 28  1  0  0  0
 27 29  1  0  0  0
 27 54  1  0  0  0
 28 30  1  0  0  0
 28 31  2  0  0  0
 29 32  1  0  0  0
 29 33  1  0  0  0
 29 55  1  0  0  0
 30 34  1  0  0  0
 30 56  1  0  0  0
 32 57  1  0  0  0
 32 58  1  0  0  0
 32 59  1  0  0  0
 33 60  1  0  0  0
 33 61  1  0  0  0
 33 62  1  0  0  0
 34 36  1  0  0  0
 34 38  1  0  0  0
 34 63  1  0  0  0
 36 37  1  0  0  0
 36 64  1  0  0  0
 36 65  1  0  0  0
 37 38  1  0  0  0
 38 66  1  0  0  0
 38 67  1  0  0  0
M  END
> <s_m_entry_id>
64309

> <s_m_entry_name>
dock_pv.259

> <s_m_Source_Path>
/home/csk/Desktop/cluster/DUD-E-result/mmp13

> <s_m_Source_File>
dock_pv.maegz

> <i_m_Source_File_Index>
259

> <chembl_id>
CHEMBL4170562

> <chembl_pref_name>
None

> <i_lp_mmshare_version>
53161

> <i_f3d_flags>
0

> <r_lp_tautomer_probability>
0.0660144953277732

> <s_lp_Force_Field>
OPLS_2005

> <r_lp_Energy>
25.641776

> <b_lp_Chiralities_Consistent>
1

> <s_lp_Variant>
CHEMBL280_lig2231-3

> <s_i_glide_gridfile>
glide-grid_830c

> <i_i_glide_lignum>
3165

> <i_i_glide_rotatable_bonds>
12

> <r_i_docking_score>
-6.89920941234995

> <r_i_glide_ligand_efficiency>
-0.181558142430262

> <r_i_glide_ligand_efficiency_sa>
-0.610394009014524

> <r_i_glide_ligand_efficiency_ln>
-1.48767250348121

> <r_i_glide_gscore>
-6.89920941234995

> <r_i_glide_lipo>
-4.74866045390511

> <r_i_glide_hbond>
0

> <r_i_glide_metal>
0

> <r_i_glide_rewards>
0.00146278491545382

> <r_i_glide_evdw>
-57.003604888916

> <r_i_glide_ecoul>
0.617345631122589

> <r_i_glide_erotb>
0.636699796896454

> <r_i_glide_esite>
-0.031133140479332

> <r_i_glide_emodel>
-65.416257083053

> <r_i_glide_energy>
-56.3862592577934

> <r_i_glide_einternal>
22.4483108520508

> <i_i_glide_confnum>
2

> <i_i_glide_posenum>
6

> <r_i_glide_eff_state_penalty>
0

> <s_user_duplicate_titles>
CHEMBL280_lig2231

> <s_m_subgroup_title>
dock_pv

> <s_m_subgroupid>
dock_pv

> <b_m_subgroup_collapsed>
1

$$$$
CHEMBL280_lig338
                    3D
 Schrodinger Suite 2021-1.
 45 46  0  0  1  0            999 V2000
   -4.6784   28.5074   58.0634 S   0  0  0  0  0  0
   -2.9893   28.7143   57.5675 N   0  0  3  0  0  0
   -2.0150   27.5994   57.3644 C   0  0  2  0  0  0
   -2.5434   26.6353   56.2693 C   0  0  0  0  0  0
   -5.5640   28.0722   56.5749 C   0  0  0  0  0  0
   -0.4278   26.1086   58.7399 C   0  0  0  0  0  0
    0.5394   25.3654   58.7981 C   0  0  0  0  0  0
   -4.7705   27.3700   58.9790 O   0  0  0  0  0  0
   -5.1597   29.8296   58.4729 O   0  0  0  0  0  0
   -6.7190   27.4647   54.1048 C   0  0  0  0  0  0
   -7.2930   27.1865   52.7616 C   0  0  0  0  0  0
   -2.7390   26.9700   55.1003 O   0  0  0  0  0  0
   -5.8506   26.7423   56.2519 C   0  0  0  0  0  0
   -5.9188   29.0970   55.7060 C   0  0  0  0  0  0
   -6.4941   28.7907   54.4822 C   0  0  0  0  0  0
   -6.4212   26.4423   55.0149 C   0  0  0  0  0  0
   -8.3411   26.2806   52.6111 C   0  0  0  0  0  0
   -6.8475   27.8871   51.6365 C   0  0  0  0  0  0
   -1.6206   26.9774   58.7364 C   0  0  0  0  0  0
   -2.7390   25.3700   56.7216 O   0  0  0  0  0  0
   -8.6251   26.9508   50.3157 C   0  0  0  0  0  0
   -7.5087   27.7700   50.4168 C   0  0  0  0  0  0
   -9.0181   26.1700   51.3967 C   0  0  0  0  0  0
   -9.6645   26.9700   48.7234 Br  0  0  0  0  0  0
    1.6853   24.4521   58.9274 C   0  0  0  0  0  0
    1.6612   23.7700   60.1739 O   0  0  0  0  0  0
    2.7347   22.8571   60.3455 C   0  0  0  0  0  0
   -2.7515   29.6216   57.1580 H   0  0  0  0  0  0
   -1.1210   28.0574   56.9389 H   0  0  0  0  0  0
   -5.5850   25.9375   56.9244 H   0  0  0  0  0  0
   -5.7097   30.1297   55.9488 H   0  0  0  0  0  0
   -6.7389   29.5999   53.8097 H   0  0  0  0  0  0
   -6.5948   25.4073   54.7551 H   0  0  0  0  0  0
   -8.6962   25.7291   53.4666 H   0  0  0  0  0  0
   -6.0156   28.5728   51.7101 H   0  0  0  0  0  0
   -2.4388   26.3925   59.1574 H   0  0  0  0  0  0
   -1.4168   27.7699   59.4579 H   0  0  0  0  0  0
   -3.3438   24.8010   56.2156 H   0  0  0  0  0  0
   -7.1872   28.3657   49.5738 H   0  0  0  0  0  0
   -9.8756   25.5187   51.3100 H   0  0  0  0  0  0
    2.5961   25.0447   58.8271 H   0  0  0  0  0  0
    1.6453   23.7458   58.0961 H   0  0  0  0  0  0
    2.6367   22.3597   61.3099 H   0  0  0  0  0  0
    3.6986   23.3680   60.3307 H   0  0  0  0  0  0
    2.7317   22.0864   59.5728 H   0  0  0  0  0  0
  1  2  1  0  0  0
  1  5  1  0  0  0
  1  8  2  0  0  0
  1  9  2  0  0  0
  2  3  1  0  0  0
  2 28  1  0  0  0
  3  4  1  0  0  0
  3 19  1  0  0  0
  3 29  1  0  0  0
  4 12  2  0  0  0
  4 20  1  0  0  0
  5 13  1  0  0  0
  5 14  2  0  0  0
  6 19  1  0  0  0
  6  7  3  0  0  0
  7 25  1  0  0  0
 10 15  2  0  0  0
 10 11  1  0  0  0
 10 16  1  0  0  0
 11 17  2  0  0  0
 11 18  1  0  0  0
 13 16  2  0  0  0
 13 30  1  0  0  0
 14 15  1  0  0  0
 14 31  1  0  0  0
 15 32  1  0  0  0
 16 33  1  0  0  0
 17 23  1  0  0  0
 17 34  1  0  0  0
 18 22  2  0  0  0
 18 35  1  0  0  0
 19 36  1  0  0  0
 19 37  1  0  0  0
 20 38  1  0  0  0
 21 22  1  0  0  0
 21 24  1  0  0  0
 21 23  2  0  0  0
 22 39  1  0  0  0
 23 40  1  0  0  0
 25 26  1  0  0  0
 25 41  1  0  0  0
 25 42  1  0  0  0
 26 27  1  0  0  0
 27 43  1  0  0  0
 27 44  1  0  0  0
 27 45  1  0  0  0
M  END
> <s_m_entry_id>
64310

> <s_m_entry_name>
dock_pv.260

> <s_m_Source_Path>
/home/csk/Desktop/cluster/DUD-E-result/mmp13

> <s_m_Source_File>
dock_pv.maegz

> <i_m_Source_File_Index>
260

> <chembl_id>
CHEMBL10809

> <chembl_pref_name>
None

> <i_lp_mmshare_version>
53161

> <i_f3d_flags>
0

> <r_lp_tautomer_probability>
1

> <s_lp_Force_Field>
OPLS_2005

> <r_lp_Energy>
12.383719

> <b_lp_Chiralities_Consistent>
1

> <s_lp_Variant>
CHEMBL280_lig338-1

> <s_i_glide_gridfile>
glide-grid_830c

> <i_i_glide_lignum>
484

> <i_i_glide_rotatable_bonds>
10

> <r_i_docking_score>
-6.8963314906601

> <r_i_glide_ligand_efficiency>
-0.255419684839263

> <r_i_glide_ligand_efficiency_sa>
-0.766259053675968

> <r_i_glide_ligand_efficiency_ln>
-1.60535227611531

> <r_i_glide_gscore>
-6.8963314906601

> <r_i_glide_lipo>
-3.02982245670616

> <r_i_glide_hbond>
0

> <r_i_glide_metal>
0

> <r_i_glide_rewards>
-0.303010204159566

> <r_i_glide_evdw>
-48.0218505859375

> <r_i_glide_ecoul>
-12.3130302429199

> <r_i_glide_erotb>
0.784548235940489

> <r_i_glide_esite>
-0.1

> <r_i_glide_emodel>
-82.7274129363834

> <r_i_glide_energy>
-60.3348808288574

> <r_i_glide_einternal>
7.71296167373657

> <i_i_glide_confnum>
96

> <i_i_glide_posenum>
179

> <r_i_glide_eff_state_penalty>
0

> <s_user_duplicate_titles>
CHEMBL280_lig338,7783

> <s_m_subgroup_title>
dock_pv

> <s_m_subgroupid>
dock_pv

> <b_m_subgroup_collapsed>
1

$$$$
CHEMBL280_lig662
                    3D
 Schrodinger Suite 2021-1.
 46 48  0  0  1  0            999 V2000
   -5.7081   28.7697   57.0762 S   0  0  0  0  0  0
   -2.8660   28.9743   56.6221 C   0  0  0  0  0  0
   -4.2177   29.6070   56.6295 N   0  0  1  0  0  0
   -2.8272   27.6381   55.8145 C   0  0  0  0  0  0
   -6.2470   27.9128   55.6042 C   0  0  0  0  0  0
   -8.2108   26.5694   51.0814 C   0  0  0  0  0  0
   -5.4194   27.7691   58.1109 O   0  0  0  0  0  0
   -6.7071   29.8171   57.3087 O   0  0  0  0  0  0
   -9.4284   26.3052   50.4544 C   0  0  0  0  0  0
   -7.2671   27.3700   50.5134 N   0  0  0  0  0  0
   -3.1394   27.6126   54.6153 O   0  0  0  0  0  0
   -7.9398   25.9901   52.3100 O   0  0  0  0  0  0
   -2.4017   26.5339   56.4439 N   0  0  0  0  0  0
   -1.9260   29.9610   55.8904 C   0  0  0  0  0  0
   -2.3743   28.8474   58.0984 C   0  0  0  0  0  0
   -1.2577   31.0056   57.9635 O   0  0  0  0  0  0
   -6.7378   28.6754   54.5486 C   0  0  0  0  0  0
   -6.2344   26.5188   55.5188 C   0  0  0  0  0  0
   -9.6770   26.8679   49.2023 C   0  0  0  0  0  0
   -7.2917   26.6489   53.3414 C   0  0  0  0  0  0
   -7.5398   27.9324   49.3086 C   0  0  0  0  0  0
   -8.7283   27.7044   48.6207 C   0  0  0  0  0  0
   -7.2676   28.0398   53.4366 C   0  0  0  0  0  0
   -6.7407   25.8938   54.3787 C   0  0  0  0  0  0
  -10.8218   26.5933   48.5432 F   0  0  0  0  0  0
   -2.3394   25.3533   55.7106 O   0  0  0  0  0  0
   -2.1613   30.2335   58.7504 C   0  0  0  0  0  0
   -1.7335   31.2887   56.6518 C   0  0  0  0  0  0
   -4.3457   30.3211   55.9054 H   0  0  0  0  0  0
  -10.1636   25.6802   50.9300 H   0  0  0  0  0  0
   -2.1796   26.4205   57.4248 H   0  0  0  0  0  0
   -2.3382   30.1697   54.9102 H   0  0  0  0  0  0
   -0.9419   29.5181   55.7240 H   0  0  0  0  0  0
   -1.4169   28.3255   58.1383 H   0  0  0  0  0  0
   -3.0619   28.2607   58.7061 H   0  0  0  0  0  0
   -6.7490   29.7546   54.6053 H   0  0  0  0  0  0
   -5.8560   25.9175   56.3337 H   0  0  0  0  0  0
   -6.7766   28.5645   48.8781 H   0  0  0  0  0  0
   -8.9022   28.1520   47.6535 H   0  0  0  0  0  0
   -7.6897   28.6182   52.6430 H   0  0  0  0  0  0
   -6.7378   24.8162   54.3122 H   0  0  0  0  0  0
   -3.0656   24.8141   56.0765 H   0  0  0  0  0  0
   -3.1067   30.7630   58.8865 H   0  0  0  0  0  0
   -1.7241   30.1206   59.7408 H   0  0  0  0  0  0
   -2.6582   31.8677   56.6942 H   0  0  0  0  0  0
   -1.0005   31.9131   56.1399 H   0  0  0  0  0  0
  1  3  1  0  0  0
  1  5  1  0  0  0
  1  7  2  0  0  0
  1  8  2  0  0  0
  2  3  1  0  0  0
  2  4  1  0  0  0
  2 14  1  0  0  0
  2 15  1  0  0  0
  3 29  1  0  0  0
  4 11  2  0  0  0
  4 13  1  0  0  0
  5 17  2  0  0  0
  5 18  1  0  0  0
  6 12  1  0  0  0
  6  9  2  0  0  0
  6 10  1  0  0  0
  9 19  1  0  0  0
  9 30  1  0  0  0
 10 21  2  0  0  0
 12 20  1  0  0  0
 13 26  1  0  0  0
 13 31  1  0  0  0
 14 28  1  0  0  0
 14 32  1  0  0  0
 14 33  1  0  0  0
 15 27  1  0  0  0
 15 34  1  0  0  0
 15 35  1  0  0  0
 16 27  1  0  0  0
 16 28  1  0  0  0
 17 23  1  0  0  0
 17 36  1  0  0  0
 18 24  2  0  0  0
 18 37  1  0  0  0
 19 25  1  0  0  0
 19 22  2  0  0  0
 20 24  1  0  0  0
 20 23  2  0  0  0
 21 22  1  0  0  0
 21 38  1  0  0  0
 22 39  1  0  0  0
 23 40  1  0  0  0
 24 41  1  0  0  0
 26 42  1  0  0  0
 27 43  1  0  0  0
 27 44  1  0  0  0
 28 45  1  0  0  0
 28 46  1  0  0  0
M  END
> <s_m_entry_id>
64311

> <s_m_entry_name>
dock_pv.261

> <s_m_Source_Path>
/home/csk/Desktop/cluster/DUD-E-result/mmp13

> <s_m_Source_File>
dock_pv.maegz

> <i_m_Source_File_Index>
261

> <chembl_id>
CHEMBL113705

> <chembl_pref_name>
None

> <i_lp_mmshare_version>
53161

> <i_f3d_flags>
0

> <r_lp_tautomer_probability>
1

> <s_lp_Force_Field>
OPLS_2005

> <r_lp_Energy>
19.293857

> <b_lp_Chiralities_Consistent>
1

> <s_lp_Variant>
CHEMBL280_lig662-1

> <s_i_glide_gridfile>
glide-grid_830c

> <i_i_glide_lignum>
990

> <i_i_glide_rotatable_bonds>
8

> <r_i_docking_score>
-6.89327308912519

> <r_i_glide_ligand_efficiency>
-0.246188324611614

> <r_i_glide_ligand_efficiency_sa>
-0.747572750689818

> <r_i_glide_ligand_efficiency_ln>
-1.59116982426262

> <r_i_glide_gscore>
-6.89327308912519

> <r_i_glide_lipo>
-2.74863593633064

> <r_i_glide_hbond>
-0.17657183160103

> <r_i_glide_metal>
0

> <r_i_glide_rewards>
-0.282062998683541

> <r_i_glide_evdw>
-48.4611129760742

> <r_i_glide_ecoul>
-12.4048280715942

> <r_i_glide_erotb>
0.815132504936229

> <r_i_glide_esite>
-0.217354967903368

> <r_i_glide_emodel>
-77.8919939520544

> <r_i_glide_energy>
-60.8659410476685

> <r_i_glide_einternal>
16.1602058410645

> <i_i_glide_confnum>
114

> <i_i_glide_posenum>
183

> <r_i_glide_eff_state_penalty>
0

> <s_user_duplicate_titles>
CHEMBL280_lig662,187756

> <s_m_subgroup_title>
dock_pv

> <s_m_subgroupid>
dock_pv

> <b_m_subgroup_collapsed>
1

$$$$
CHEMBL280_lig405
                    3D
 Schrodinger Suite 2021-1.
 42 43  0  0  1  0            999 V2000
   -4.6300   28.2541   57.8832 S   0  0  0  0  0  0
   -3.2419   27.1998   57.9353 N   0  0  2  0  0  0
   -1.9735   27.5782   57.2958 C   0  0  2  0  0  0
   -2.0452   26.8652   55.9346 C   0  0  0  0  0  0
   -7.0003   27.7700   51.5651 C   0  0  0  0  0  0
   -7.4343   27.0741   52.6858 C   0  0  0  0  0  0
   -5.4842   27.8965   56.3757 C   0  0  0  0  0  0
   -5.5371   27.7700   58.9100 O   0  0  0  0  0  0
   -4.1681   29.6450   57.8353 O   0  0  0  0  0  0
   -7.6381   27.6531   50.3308 C   0  0  0  0  0  0
   -8.4700   26.1700   52.5303 C   0  0  0  0  0  0
   -6.8142   27.3285   54.0070 C   0  0  0  0  0  0
   -1.5401   25.7700   55.7100 O   0  0  0  0  0  0
   -5.6781   26.5700   55.9935 C   0  0  0  0  0  0
   -6.0023   28.9410   55.6201 C   0  0  0  0  0  0
   -6.3388   26.2849   54.8040 C   0  0  0  0  0  0
   -6.6754   28.6497   54.4450 C   0  0  0  0  0  0
   -0.7409   27.1148   58.1381 C   0  0  0  0  0  0
   -8.7398   26.8093   50.2136 C   0  0  0  0  0  0
   -5.9390   28.5700   51.7100 F   0  0  0  0  0  0
   -2.7390   27.5685   54.9910 O   0  0  0  0  0  0
   -9.1390   26.0490   51.3100 C   0  0  0  0  0  0
   -9.7132   26.7078   48.5822 Br  0  0  0  0  0  0
   -0.7527   27.7322   59.5496 C   0  0  0  0  0  0
    0.6211   27.3859   57.4633 C   0  0  0  0  0  0
   -3.4166   26.2042   58.1182 H   0  0  0  0  0  0
   -1.9515   28.6560   57.1269 H   0  0  0  0  0  0
   -7.2913   28.2340   49.4877 H   0  0  0  0  0  0
   -8.7390   25.5836   53.3914 H   0  0  0  0  0  0
   -5.2966   25.7639   56.6024 H   0  0  0  0  0  0
   -5.8778   29.9706   55.9260 H   0  0  0  0  0  0
   -6.4428   25.2550   54.4917 H   0  0  0  0  0  0
   -7.0534   29.4655   53.8469 H   0  0  0  0  0  0
   -0.8037   26.0343   58.2850 H   0  0  0  0  0  0
   -3.1215   28.3842   55.3333 H   0  0  0  0  0  0
   -9.9730   25.3701   51.2168 H   0  0  0  0  0  0
   -0.7678   28.8217   59.5069 H   0  0  0  0  0  0
    0.1249   27.4331   60.1234 H   0  0  0  0  0  0
   -1.6269   27.4082   60.1148 H   0  0  0  0  0  0
    0.7269   28.4364   57.1906 H   0  0  0  0  0  0
    1.4468   27.1349   58.1301 H   0  0  0  0  0  0
    0.7602   26.7854   56.5644 H   0  0  0  0  0  0
  1  2  1  0  0  0
  1  7  1  0  0  0
  1  8  2  0  0  0
  1  9  2  0  0  0
  2  3  1  0  0  0
  2 26  1  0  0  0
  3  4  1  0  0  0
  3 18  1  0  0  0
  3 27  1  0  0  0
  4 13  2  0  0  0
  4 21  1  0  0  0
  5  6  2  0  0  0
  5 10  1  0  0  0
  5 20  1  0  0  0
  6 12  1  0  0  0
  6 11  1  0  0  0
  7 14  1  0  0  0
  7 15  2  0  0  0
 10 19  2  0  0  0
 10 28  1  0  0  0
 11 22  2  0  0  0
 11 29  1  0  0  0
 12 17  2  0  0  0
 12 16  1  0  0  0
 14 16  2  0  0  0
 14 30  1  0  0  0
 15 17  1  0  0  0
 15 31  1  0  0  0
 16 32  1  0  0  0
 17 33  1  0  0  0
 18 24  1  0  0  0
 18 25  1  0  0  0
 18 34  1  0  0  0
 19 22  1  0  0  0
 19 23  1  0  0  0
 21 35  1  0  0  0
 22 36  1  0  0  0
 24 37  1  0  0  0
 24 38  1  0  0  0
 24 39  1  0  0  0
 25 40  1  0  0  0
 25 41  1  0  0  0
 25 42  1  0  0  0
M  END
> <s_m_entry_id>
64312

> <s_m_entry_name>
dock_pv.262

> <s_m_Source_Path>
/home/csk/Desktop/cluster/DUD-E-result/mmp13

> <s_m_Source_File>
dock_pv.maegz

> <i_m_Source_File_Index>
262

> <chembl_id>
CHEMBL46818

> <chembl_pref_name>
None

> <i_lp_mmshare_version>
53161

> <i_f3d_flags>
0

> <r_lp_tautomer_probability>
1

> <s_lp_Force_Field>
OPLS_2005

> <r_lp_Energy>
17.113787

> <b_lp_Chiralities_Consistent>
1

> <s_lp_Variant>
CHEMBL280_lig405-1

> <s_i_glide_gridfile>
glide-grid_830c

> <i_i_glide_lignum>
579

> <i_i_glide_rotatable_bonds>
7

> <r_i_docking_score>
-6.89277047620895

> <r_i_glide_ligand_efficiency>
-0.275710819048358

> <r_i_glide_ligand_efficiency_sa>
-0.806183324649595

> <r_i_glide_ligand_efficiency_ln>
-1.63379316252435

> <r_i_glide_gscore>
-6.89277047620895

> <r_i_glide_lipo>
-3.09516105773277

> <r_i_glide_hbond>
-0.363934995559911

> <r_i_glide_metal>
0

> <r_i_glide_rewards>
0.0847809462186653

> <r_i_glide_evdw>
-32.4150543212891

> <r_i_glide_ecoul>
-14.5600290298462

> <r_i_glide_erotb>
0.536861376432021

> <r_i_glide_esite>
-0.250559675025575

> <r_i_glide_emodel>
-67.2442818147293

> <r_i_glide_energy>
-46.9750833511353

> <r_i_glide_einternal>
5.75641584396362

> <i_i_glide_confnum>
58

> <i_i_glide_posenum>
99

> <r_i_glide_eff_state_penalty>
0

> <s_user_duplicate_titles>
CHEMBL280_lig405,65365

> <s_m_subgroup_title>
dock_pv

> <s_m_subgroupid>
dock_pv

> <b_m_subgroup_collapsed>
1

$$$$
CHEMBL280_lig1501
                    3D
 Schrodinger Suite 2021-1.
 46 48  0  0  1  0            999 V2000
   -4.8297   31.5753   56.7066 C   0  0  0  0  0  0
   -5.3439   32.8748   56.5815 C   0  0  0  0  0  0
   -6.7025   33.1324   56.7385 C   0  0  0  0  0  0
   -7.5764   32.0886   57.0195 C   0  0  0  0  0  0
   -7.0885   30.7907   57.1183 C   0  0  0  0  0  0
   -5.7294   30.5055   56.9429 C   0  0  0  0  0  0
   -5.2939   28.7408   56.9638 S   0  0  0  0  0  0
   -6.1332   27.9607   55.5877 C   0  0  0  0  0  0
   -3.8691   28.5518   56.6758 O   0  0  0  0  0  0
   -5.8898   28.1671   58.1791 O   0  0  0  0  0  0
   -6.1390   26.5687   55.5235 C   0  0  0  0  0  0
   -6.7407   25.9299   54.4425 C   0  0  0  0  0  0
   -7.3503   26.6693   53.4288 C   0  0  0  0  0  0
   -7.3615   28.0678   53.5195 C   0  0  0  0  0  0
   -6.7356   28.7148   54.5794 C   0  0  0  0  0  0
   -3.3130   31.4151   56.5558 C   0  0  0  0  0  0
   -2.5959   30.9534   57.8316 C   0  0  0  0  0  0
   -3.0780   31.0091   58.9590 O   0  0  0  0  0  0
   -7.9405   25.9672   52.3942 O   0  0  0  0  0  0
   -8.2857   26.5718   51.2037 C   0  0  0  0  0  0
   -7.3858   27.3703   50.4955 C   0  0  0  0  0  0
   -7.7726   27.9774   49.3061 C   0  0  0  0  0  0
   -9.0596   27.7756   48.7940 C   0  0  0  0  0  0
   -9.9438   26.9501   49.4898 C   0  0  0  0  0  0
   -9.5547   26.3405   50.6803 C   0  0  0  0  0  0
   -9.5332   28.3495   47.6308 O   0  0  0  0  0  0
   -8.6805   29.2225   46.8917 C   0  0  0  0  0  0
   -1.3328   30.5267   57.5620 O   0  0  0  0  0  0
   -4.6810   33.7044   56.3790 H   0  0  0  0  0  0
   -7.0727   34.1434   56.6522 H   0  0  0  0  0  0
   -8.6303   32.2849   57.1535 H   0  0  0  0  0  0
   -7.7846   29.9897   57.3050 H   0  0  0  0  0  0
   -5.6672   25.9759   56.2960 H   0  0  0  0  0  0
   -6.7359   24.8518   54.3904 H   0  0  0  0  0  0
   -7.8466   28.6585   52.7601 H   0  0  0  0  0  0
   -6.7209   29.7929   54.5982 H   0  0  0  0  0  0
   -3.0939   30.7626   55.7102 H   0  0  0  0  0  0
   -2.8588   32.3698   56.2870 H   0  0  0  0  0  0
   -6.3878   27.5348   50.8737 H   0  0  0  0  0  0
   -7.0547   28.6056   48.8011 H   0  0  0  0  0  0
  -10.9374   26.7890   49.0990 H   0  0  0  0  0  0
  -10.2471   25.7032   51.2102 H   0  0  0  0  0  0
   -9.2059   29.5789   46.0067 H   0  0  0  0  0  0
   -8.3956   30.0964   47.4815 H   0  0  0  0  0  0
   -7.7794   28.7096   46.5510 H   0  0  0  0  0  0
   -0.9096   30.2520   58.3777 H   0  0  0  0  0  0
  1 16  1  0  0  0
  1  6  1  0  0  0
  1  2  2  0  0  0
  2  3  1  0  0  0
  2 29  1  0  0  0
  3  4  2  0  0  0
  3 30  1  0  0  0
  4  5  1  0  0  0
  4 31  1  0  0  0
  5  6  2  0  0  0
  5 32  1  0  0  0
  6  7  1  0  0  0
  7  8  1  0  0  0
  7  9  2  0  0  0
  7 10  2  0  0  0
  8 15  1  0  0  0
  8 11  2  0  0  0
 11 12  1  0  0  0
 11 33  1  0  0  0
 12 13  2  0  0  0
 12 34  1  0  0  0
 13 14  1  0  0  0
 13 19  1  0  0  0
 14 15  2  0  0  0
 14 35  1  0  0  0
 15 36  1  0  0  0
 16 17  1  0  0  0
 16 37  1  0  0  0
 16 38  1  0  0  0
 17 18  2  0  0  0
 17 28  1  0  0  0
 19 20  1  0  0  0
 20 21  2  0  0  0
 20 25  1  0  0  0
 21 22  1  0  0  0
 21 39  1  0  0  0
 22 23  2  0  0  0
 22 40  1  0  0  0
 23 24  1  0  0  0
 23 26  1  0  0  0
 24 25  2  0  0  0
 24 41  1  0  0  0
 25 42  1  0  0  0
 26 27  1  0  0  0
 27 43  1  0  0  0
 27 44  1  0  0  0
 27 45  1  0  0  0
 28 46  1  0  0  0
M  END
> <s_m_entry_id>
64313

> <s_m_entry_name>
dock_pv.263

> <s_m_Source_Path>
/home/csk/Desktop/cluster/DUD-E-result/mmp13

> <s_m_Source_File>
dock_pv.maegz

> <i_m_Source_File_Index>
263

> <chembl_id>
CHEMBL579067

> <chembl_pref_name>
None

> <i_lp_mmshare_version>
53161

> <i_f3d_flags>
0

> <r_lp_tautomer_probability>
1

> <s_lp_Force_Field>
OPLS_2005

> <r_lp_Energy>
23.762452

> <b_lp_Chiralities_Consistent>
1

> <s_lp_Variant>
CHEMBL280_lig1501-1

> <s_i_glide_gridfile>
glide-grid_830c

> <i_i_glide_lignum>
2233

> <i_i_glide_rotatable_bonds>
8

> <r_i_docking_score>
-6.88982531273417

> <r_i_glide_ligand_efficiency>
-0.246065189740506

> <r_i_glide_ligand_efficiency_sa>
-0.747198840698574

> <r_i_glide_ligand_efficiency_ln>
-1.59037397624046

> <r_i_glide_gscore>
-6.88982531273417

> <r_i_glide_lipo>
-3.48376163758658

> <r_i_glide_hbond>
0

> <r_i_glide_metal>
0

> <r_i_glide_rewards>
-0.692522375504966

> <r_i_glide_evdw>
-48.1997985839844

> <r_i_glide_ecoul>
-6.90240955352783

> <r_i_glide_erotb>
0.740220468374488

> <r_i_glide_esite>
-0.00841040578871905

> <r_i_glide_emodel>
-74.7053993270988

> <r_i_glide_energy>
-55.1022081375122

> <r_i_glide_einternal>
6.06029224395752

> <i_i_glide_confnum>
10

> <i_i_glide_posenum>
108

> <r_i_glide_eff_state_penalty>
0

> <s_user_duplicate_titles>
CHEMBL280_lig1501,570898

> <s_m_subgroup_title>
dock_pv

> <s_m_subgroupid>
dock_pv

> <b_m_subgroup_collapsed>
1

$$$$
CHEMBL280_lig48
                    3D
 Schrodinger Suite 2021-1.
 48 50  0  0  1  0            999 V2000
   -9.6342   26.5904   49.8327 C   0  0  0  0  0  0
   -8.7278   27.3680   49.1249 C   0  0  0  0  0  0
   -7.5389   27.7702   49.7206 C   0  0  0  0  0  0
   -7.2596   27.4152   51.0399 C   0  0  0  0  0  0
   -8.1702   26.6372   51.7634 C   0  0  0  0  0  0
   -9.3456   26.2147   51.1412 C   0  0  0  0  0  0
   -7.9398   26.1742   53.0441 O   0  0  0  0  0  0
   -7.1929   26.8328   54.0028 C   0  0  0  0  0  0
   -7.0614   28.2225   54.0929 C   0  0  0  0  0  0
   -6.3489   28.7919   55.1499 C   0  0  0  0  0  0
   -5.7622   27.9804   56.1257 C   0  0  0  0  0  0
   -5.9158   26.5956   56.0537 C   0  0  0  0  0  0
   -6.6231   26.0390   54.9931 C   0  0  0  0  0  0
   -4.9052   28.7705   57.4989 S   0  0  0  0  0  0
   -5.9390   28.9671   58.5101 O   0  0  0  0  0  0
   -4.1987   29.9308   56.9463 O   0  0  0  0  0  0
   -3.6431   27.5441   58.2568 C   0  0  0  0  0  0
   -2.1915   27.4878   57.6765 C   0  0  0  0  0  0
   -1.3973   28.8190   57.8983 C   0  0  0  0  0  0
    0.1198   28.7035   57.6379 C   0  0  0  0  0  0
    0.6682   27.6355   58.4025 O   0  0  0  0  0  0
    0.1269   26.3583   58.0857 C   0  0  0  0  0  0
   -1.3887   26.3523   58.3932 C   0  0  0  0  0  0
   -2.2821   27.1460   56.1532 C   0  0  0  0  0  0
   -2.6991   28.1341   55.3525 N   0  0  0  0  0  0
   -2.0457   26.0112   55.7100 O   0  0  0  0  0  0
   -3.1898   27.7700   54.1099 O   0  0  0  0  0  0
   -9.0746   27.8234   47.4972 Cl  0  0  0  0  0  0
  -10.5509   26.2820   49.3598 H   0  0  0  0  0  0
   -6.8394   28.3608   49.1495 H   0  0  0  0  0  0
   -6.3309   27.7364   51.4839 H   0  0  0  0  0  0
  -10.0525   25.6134   51.6869 H   0  0  0  0  0  0
   -7.5305   28.8617   53.3634 H   0  0  0  0  0  0
   -6.2835   29.8675   55.2298 H   0  0  0  0  0  0
   -5.5136   25.9347   56.8055 H   0  0  0  0  0  0
   -6.7390   24.9701   54.9390 H   0  0  0  0  0  0
   -4.1089   26.5701   58.2750 H   0  0  0  0  0  0
   -3.5824   27.8254   59.3066 H   0  0  0  0  0  0
   -1.4934   29.0917   58.9508 H   0  0  0  0  0  0
   -1.8081   29.6676   57.3548 H   0  0  0  0  0  0
    0.6194   29.6274   57.9315 H   0  0  0  0  0  0
    0.3313   28.5686   56.5773 H   0  0  0  0  0  0
    0.6352   25.6076   58.6922 H   0  0  0  0  0  0
    0.3350   26.1040   57.0446 H   0  0  0  0  0  0
   -1.8328   25.3692   58.2238 H   0  0  0  0  0  0
   -1.4678   26.5104   59.4704 H   0  0  0  0  0  0
   -2.9868   29.0673   55.6375 H   0  0  0  0  0  0
   -4.1436   27.8920   54.2024 H   0  0  0  0  0  0
  1  2  2  0  0  0
  1  6  1  0  0  0
  1 29  1  0  0  0
  2  3  1  0  0  0
  2 28  1  0  0  0
  3  4  2  0  0  0
  3 30  1  0  0  0
  4  5  1  0  0  0
  4 31  1  0  0  0
  5  6  2  0  0  0
  5  7  1  0  0  0
  6 32  1  0  0  0
  7  8  1  0  0  0
  8  9  2  0  0  0
  8 13  1  0  0  0
  9 10  1  0  0  0
  9 33  1  0  0  0
 10 11  2  0  0  0
 10 34  1  0  0  0
 11 12  1  0  0  0
 11 14  1  0  0  0
 12 13  2  0  0  0
 12 35  1  0  0  0
 13 36  1  0  0  0
 14 15  2  0  0  0
 14 16  2  0  0  0
 14 17  1  0  0  0
 17 18  1  0  0  0
 17 37  1  0  0  0
 17 38  1  0  0  0
 18 19  1  0  0  0
 18 23  1  0  0  0
 18 24  1  0  0  0
 19 20  1  0  0  0
 19 39  1  0  0  0
 19 40  1  0  0  0
 20 21  1  0  0  0
 20 41  1  0  0  0
 20 42  1  0  0  0
 21 22  1  0  0  0
 22 23  1  0  0  0
 22 43  1  0  0  0
 22 44  1  0  0  0
 23 45  1  0  0  0
 23 46  1  0  0  0
 24 25  1  0  0  0
 24 26  2  0  0  0
 25 27  1  0  0  0
 25 47  1  0  0  0
 27 48  1  0  0  0
M  END
> <s_m_entry_id>
64314

> <s_m_entry_name>
dock_pv.264

> <s_m_Source_Path>
/home/csk/Desktop/cluster/DUD-E-result/mmp13

> <s_m_Source_File>
dock_pv.maegz

> <i_m_Source_File_Index>
264

> <chembl_id>
CHEMBL440498

> <chembl_pref_name>
CTS-1027

> <i_lp_mmshare_version>
53161

> <i_f3d_flags>
0

> <r_lp_tautomer_probability>
1

> <s_lp_Force_Field>
OPLS_2005

> <r_lp_Energy>
24.668395

> <b_lp_Chiralities_Consistent>
1

> <s_lp_Variant>
CHEMBL280_lig48-1

> <s_i_glide_gridfile>
glide-grid_830c

> <i_i_glide_lignum>
68

> <i_i_glide_rotatable_bonds>
8

> <r_i_docking_score>
-6.88516361654796

> <r_i_glide_ligand_efficiency>
-0.245898700590998

> <r_i_glide_ligand_efficiency_sa>
-0.746693281583803

> <r_i_glide_ligand_efficiency_ln>
-1.58929791988733

> <r_i_glide_gscore>
-6.88516361654796

> <r_i_glide_lipo>
-3.04898511939851

> <r_i_glide_hbond>
0

> <r_i_glide_metal>
0

> <r_i_glide_rewards>
-0.523761024023978

> <r_i_glide_evdw>
-47.7057952880859

> <r_i_glide_ecoul>
-9.67854881286621

> <r_i_glide_erotb>
0.76574298499813

> <r_i_glide_esite>
-0.241088371789371

> <r_i_glide_emodel>
-75.6518191936638

> <r_i_glide_energy>
-57.3843441009521

> <r_i_glide_einternal>
8.78501224517822

> <i_i_glide_confnum>
132

> <i_i_glide_posenum>
167

> <r_i_glide_eff_state_penalty>
0

> <s_user_duplicate_titles>
CHEMBL280_lig48,126117

> <s_m_subgroup_title>
dock_pv

> <s_m_subgroupid>
dock_pv

> <b_m_subgroup_collapsed>
1

$$$$
CHEMBL280_lig335
                    3D
 Schrodinger Suite 2021-1.
 50 52  0  0  1  0            999 V2000
   -5.8613   27.0765   55.5590 S   0  0  0  0  0  0
   -6.3383   28.5421   56.4261 N   0  0  1  0  0  0
   -5.8784   29.8840   55.9834 C   0  0  1  0  0  0
   -8.5031   27.3710   50.1456 C   0  0  0  0  0  0
   -8.9944   27.5012   49.0350 C   0  0  0  0  0  0
   -7.1182   30.7995   55.8324 C   0  0  0  0  0  0
   -3.5719   29.6170   57.1121 C   0  0  0  0  0  0
   -6.6698   27.1714   53.9609 C   0  0  0  0  0  0
   -2.6075   28.9002   57.3210 C   0  0  0  0  0  0
   -4.4182   27.1196   55.2817 O   0  0  0  0  0  0
   -6.4610   25.9563   56.2872 O   0  0  0  0  0  0
   -8.1628   30.4199   55.3107 O   0  0  0  0  0  0
   -7.8701   27.2857   51.4521 C   0  0  0  0  0  0
   -7.8079   26.4092   53.6986 C   0  0  0  0  0  0
   -6.1322   27.9876   52.9657 C   0  0  0  0  0  0
   -4.7568   30.4653   56.8946 C   0  0  0  0  0  0
   -9.5165   27.6879   47.6904 C   0  0  0  0  0  0
   -1.4832   28.0197   57.5787 C   0  0  0  0  0  0
   -6.9068   32.0942   56.2174 O   0  0  0  0  0  0
   -8.4002   26.4575   52.4389 C   0  0  0  0  0  0
   -6.7391   28.0514   51.7165 C   0  0  0  0  0  0
  -10.6404   26.9697   47.2717 C   0  0  0  0  0  0
   -8.8720   28.5695   46.8171 C   0  0  0  0  0  0
   -0.1797   28.5071   57.4606 C   0  0  0  0  0  0
   -1.7146   26.6928   57.9520 C   0  0  0  0  0  0
   -0.6339   25.8546   58.2125 C   0  0  0  0  0  0
  -11.1223   27.1379   45.9768 C   0  0  0  0  0  0
   -9.3512   28.7289   45.5192 C   0  0  0  0  0  0
    0.8985   27.6630   57.7144 C   0  0  0  0  0  0
    0.6665   26.3419   58.0875 C   0  0  0  0  0  0
  -10.4740   28.0131   45.1061 C   0  0  0  0  0  0
   -7.2927   28.5161   56.7927 H   0  0  0  0  0  0
   -5.5390   29.7678   54.9649 H   0  0  0  0  0  0
   -8.2241   25.7703   54.4592 H   0  0  0  0  0  0
   -5.2446   28.5686   53.1552 H   0  0  0  0  0  0
   -5.1514   30.6922   57.8856 H   0  0  0  0  0  0
   -4.3654   31.3928   56.4720 H   0  0  0  0  0  0
   -6.0301   32.2397   56.5775 H   0  0  0  0  0  0
   -9.2757   25.8589   52.2340 H   0  0  0  0  0  0
   -6.3398   28.6987   50.9534 H   0  0  0  0  0  0
  -11.1395   26.2885   47.9437 H   0  0  0  0  0  0
   -7.9944   29.1194   47.1296 H   0  0  0  0  0  0
    0.0014   29.5334   57.1754 H   0  0  0  0  0  0
   -2.7242   26.3098   58.0527 H   0  0  0  0  0  0
   -0.8036   24.8337   58.5091 H   0  0  0  0  0  0
  -11.9896   26.5881   45.6438 H   0  0  0  0  0  0
   -8.8474   29.3985   44.8354 H   0  0  0  0  0  0
    1.9102   28.0325   57.6250 H   0  0  0  0  0  0
    1.5040   25.6867   58.2806 H   0  0  0  0  0  0
  -10.8407   28.1369   44.0963 H   0  0  0  0  0  0
  1  2  1  0  0  0
  1  8  1  0  0  0
  1 10  2  0  0  0
  1 11  2  0  0  0
  2  3  1  0  0  0
  2 32  1  0  0  0
  3  6  1  0  0  0
  3 16  1  0  0  0
  3 33  1  0  0  0
  4 13  1  0  0  0
  4  5  3  0  0  0
  5 17  1  0  0  0
  6 12  2  0  0  0
  6 19  1  0  0  0
  7 16  1  0  0  0
  7  9  3  0  0  0
  8 14  1  0  0  0
  8 15  2  0  0  0
  9 18  1  0  0  0
 13 21  2  0  0  0
 13 20  1  0  0  0
 14 20  2  0  0  0
 14 34  1  0  0  0
 15 21  1  0  0  0
 15 35  1  0  0  0
 16 36  1  0  0  0
 16 37  1  0  0  0
 17 22  2  0  0  0
 17 23  1  0  0  0
 18 24  1  0  0  0
 18 25  2  0  0  0
 19 38  1  0  0  0
 20 39  1  0  0  0
 21 40  1  0  0  0
 22 27  1  0  0  0
 22 41  1  0  0  0
 23 28  2  0  0  0
 23 42  1  0  0  0
 24 29  2  0  0  0
 24 43  1  0  0  0
 25 26  1  0  0  0
 25 44  1  0  0  0
 26 30  2  0  0  0
 26 45  1  0  0  0
 27 31  2  0  0  0
 27 46  1  0  0  0
 28 31  1  0  0  0
 28 47  1  0  0  0
 29 30  1  0  0  0
 29 48  1  0  0  0
 30 49  1  0  0  0
 31 50  1  0  0  0
M  END
> <s_m_entry_id>
64315

> <s_m_entry_name>
dock_pv.265

> <s_m_Source_Path>
/home/csk/Desktop/cluster/DUD-E-result/mmp13

> <s_m_Source_File>
dock_pv.maegz

> <i_m_Source_File_Index>
265

> <chembl_id>
CHEMBL91639

> <chembl_pref_name>
None

> <i_lp_mmshare_version>
53161

> <i_f3d_flags>
0

> <r_lp_tautomer_probability>
1

> <s_lp_Force_Field>
OPLS_2005

> <r_lp_Energy>
14.320552

> <b_lp_Chiralities_Consistent>
1

> <s_lp_Variant>
CHEMBL280_lig335-2

> <s_i_glide_gridfile>
glide-grid_830c

> <i_i_glide_lignum>
479

> <i_i_glide_rotatable_bonds>
10

> <r_i_docking_score>
-6.88510942987229

> <r_i_glide_ligand_efficiency>
-0.222100304189429

> <r_i_glide_ligand_efficiency_sa>
-0.697701597672282

> <r_i_glide_ligand_efficiency_ln>
-1.55280317969969

> <r_i_glide_gscore>
-6.88510942987229

> <r_i_glide_lipo>
-3.60479353971648

> <r_i_glide_hbond>
-0.137699120204711

> <r_i_glide_metal>
0

> <r_i_glide_rewards>
-0.497248841444812

> <r_i_glide_evdw>
-49.813060760498

> <r_i_glide_ecoul>
-5.81058931350708

> <r_i_glide_erotb>
0.861881793311637

> <r_i_glide_esite>
-0.145008286766958

> <r_i_glide_emodel>
-78.1897492075313

> <r_i_glide_energy>
-55.6236500740051

> <r_i_glide_einternal>
3.83395648002625

> <i_i_glide_confnum>
8

> <i_i_glide_posenum>
313

> <r_i_glide_eff_state_penalty>
0

> <s_user_duplicate_titles>
CHEMBL280_lig335

> <s_m_subgroup_title>
dock_pv

> <s_m_subgroupid>
dock_pv

> <b_m_subgroup_collapsed>
1

$$$$
CHEMBL280_lig964
                    3D
 Schrodinger Suite 2021-1.
 56 58  0  0  1  0            999 V2000
   -4.8866   28.2803   58.2478 S   0  0  0  0  0  0
   -3.1213   28.4736   58.0886 N   0  0  3  0  0  0
   -2.2532   27.2928   57.7054 C   0  0  2  0  0  0
   -0.7898   27.4036   58.3027 C   0  0  0  0  0  0
   -2.2948   27.0513   56.1738 C   0  0  0  0  0  0
   -2.5610   29.8577   57.9975 C   0  0  0  0  0  0
   -5.6204   28.0990   56.6189 C   0  0  0  0  0  0
   -5.1388   27.0071   58.9210 O   0  0  0  0  0  0
   -5.4243   29.5364   58.7757 O   0  0  0  0  0  0
   -0.2343   28.8244   57.9885 C   0  0  0  0  0  0
   -8.1769   27.0350   50.7850 C   0  0  0  0  0  0
   -1.9402   25.9615   55.7102 O   0  0  0  0  0  0
   -1.1205   29.9605   58.5364 C   0  0  1  0  0  0
   -2.7809   28.0467   55.4154 N   0  0  0  0  0  0
   -9.4440   26.7208   50.2758 C   0  0  0  0  0  0
   -7.7162   26.6561   52.1919 C   0  0  0  0  0  0
   -6.0822   29.2346   55.9553 C   0  0  0  0  0  0
   -5.8102   26.8321   56.0534 C   0  0  0  0  0  0
   -7.6085   27.8506   52.9579 O   0  0  0  0  0  0
   -6.9347   27.8506   54.1621 C   0  0  0  0  0  0
  -10.7076   25.7700   51.3100 Br  0  0  0  0  0  0
   -0.8669   27.1728   59.8291 C   0  0  0  0  0  0
    0.2187   26.3859   57.7077 C   0  0  0  0  0  0
   -6.4594   26.7082   54.8240 C   0  0  0  0  0  0
   -6.7400   29.1023   54.7392 C   0  0  0  0  0  0
   -3.1393   27.7701   54.1093 O   0  0  0  0  0  0
   -0.5669   31.2184   58.2154 O   0  0  0  0  0  0
   -7.3063   27.7701   49.9837 C   0  0  0  0  0  0
   -9.8191   27.1267   48.9934 C   0  0  0  0  0  0
   -7.6732   28.1754   48.7006 C   0  0  0  0  0  0
   -8.9324   27.8529   48.2024 C   0  0  0  0  0  0
   -2.7385   26.3914   58.0884 H   0  0  0  0  0  0
   -2.5224   30.1289   56.9434 H   0  0  0  0  0  0
   -3.2173   30.5626   58.5092 H   0  0  0  0  0  0
    0.7646   28.9253   58.4189 H   0  0  0  0  0  0
   -0.0948   28.9467   56.9128 H   0  0  0  0  0  0
   -1.1357   29.9176   59.6267 H   0  0  0  0  0  0
   -3.2727   28.8473   55.7938 H   0  0  0  0  0  0
   -6.7412   26.1736   52.1083 H   0  0  0  0  0  0
   -8.3801   25.9424   52.6783 H   0  0  0  0  0  0
   -5.9539   30.2190   56.3829 H   0  0  0  0  0  0
   -5.4672   25.9398   56.5618 H   0  0  0  0  0  0
    0.0727   27.4223   60.3240 H   0  0  0  0  0  0
   -1.6458   27.7650   60.2911 H   0  0  0  0  0  0
   -1.0895   26.1312   60.0623 H   0  0  0  0  0  0
    1.1712   26.4111   58.2396 H   0  0  0  0  0  0
   -0.1601   25.3704   57.7846 H   0  0  0  0  0  0
    0.4482   26.5697   56.6574 H   0  0  0  0  0  0
   -6.5994   25.7201   54.4113 H   0  0  0  0  0  0
   -7.0988   29.9836   54.2314 H   0  0  0  0  0  0
   -3.1531   28.6415   53.6986 H   0  0  0  0  0  0
   -0.0589   31.1377   57.4052 H   0  0  0  0  0  0
   -6.3403   28.0388   50.3769 H   0  0  0  0  0  0
  -10.8029   26.8872   48.6155 H   0  0  0  0  0  0
   -6.9780   28.7441   48.0989 H   0  0  0  0  0  0
   -9.2197   28.1709   47.2108 H   0  0  0  0  0  0
  1  2  1  0  0  0
  1  7  1  0  0  0
  1  8  2  0  0  0
  1  9  2  0  0  0
  2  3  1  0  0  0
  2  6  1  0  0  0
  3  4  1  0  0  0
  3  5  1  0  0  0
  3 32  1  0  0  0
  4 22  1  0  0  0
  4 23  1  0  0  0
  4 10  1  0  0  0
  5 12  2  0  0  0
  5 14  1  0  0  0
  6 13  1  0  0  0
  6 33  1  0  0  0
  6 34  1  0  0  0
  7 17  1  0  0  0
  7 18  2  0  0  0
 10 13  1  0  0  0
 10 35  1  0  0  0
 10 36  1  0  0  0
 11 16  1  0  0  0
 11 15  1  0  0  0
 11 28  2  0  0  0
 13 27  1  0  0  0
 13 37  1  0  0  0
 14 26  1  0  0  0
 14 38  1  0  0  0
 15 21  1  0  0  0
 15 29  2  0  0  0
 16 19  1  0  0  0
 16 39  1  0  0  0
 16 40  1  0  0  0
 17 25  2  0  0  0
 17 41  1  0  0  0
 18 24  1  0  0  0
 18 42  1  0  0  0
 19 20  1  0  0  0
 20 24  2  0  0  0
 20 25  1  0  0  0
 22 43  1  0  0  0
 22 44  1  0  0  0
 22 45  1  0  0  0
 23 46  1  0  0  0
 23 47  1  0  0  0
 23 48  1  0  0  0
 24 49  1  0  0  0
 25 50  1  0  0  0
 26 51  1  0  0  0
 27 52  1  0  0  0
 28 30  1  0  0  0
 28 53  1  0  0  0
 29 31  1  0  0  0
 29 54  1  0  0  0
 30 31  2  0  0  0
 30 55  1  0  0  0
 31 56  1  0  0  0
M  END
> <s_m_entry_id>
64316

> <s_m_entry_name>
dock_pv.266

> <s_m_Source_Path>
/home/csk/Desktop/cluster/DUD-E-result/mmp13

> <s_m_Source_File>
dock_pv.maegz

> <i_m_Source_File_Index>
266

> <chembl_id>
CHEMBL372261

> <chembl_pref_name>
None

> <i_lp_mmshare_version>
53161

> <i_f3d_flags>
0

> <r_lp_tautomer_probability>
1

> <s_lp_Force_Field>
OPLS_2005

> <r_lp_Energy>
23.503369

> <b_lp_Chiralities_Consistent>
1

> <s_lp_Variant>
CHEMBL280_lig964-1

> <s_i_glide_gridfile>
glide-grid_830c

> <i_i_glide_lignum>
1611

> <i_i_glide_rotatable_bonds>
9

> <r_i_docking_score>
-6.88499596380782

> <r_i_glide_ligand_efficiency>
-0.222096643993801

> <r_i_glide_ligand_efficiency_sa>
-0.697690099604565

> <r_i_glide_ligand_efficiency_ln>
-1.55277758962484

> <r_i_glide_gscore>
-6.88499596380782

> <r_i_glide_lipo>
-3.08371195970899

> <r_i_glide_hbond>
0

> <r_i_glide_metal>
0

> <r_i_glide_rewards>
-0.0291678993461457

> <r_i_glide_evdw>
-43.9201507568359

> <r_i_glide_ecoul>
-12.253589630127

> <r_i_glide_erotb>
0.54457766645157

> <r_i_glide_esite>
-0.28264778884342

> <r_i_glide_emodel>
-73.3376717957588

> <r_i_glide_energy>
-56.1737403869629

> <r_i_glide_einternal>
14.792407989502

> <i_i_glide_confnum>
29

> <i_i_glide_posenum>
257

> <r_i_glide_eff_state_penalty>
0

> <s_user_duplicate_titles>
CHEMBL280_lig964,320209

> <s_m_subgroup_title>
dock_pv

> <s_m_subgroupid>
dock_pv

> <b_m_subgroup_collapsed>
1

$$$$
CHEMBL280_lig1105
                    3D
 Schrodinger Suite 2021-1.
 44 45  0  0  1  0            999 V2000
   -7.2760   27.6350   54.0954 C   0  0  0  0  0  0
   -7.0638   28.8987   54.6438 C   0  0  0  0  0  0
   -6.3385   29.0480   55.8215 C   0  0  0  0  0  0
   -5.8326   27.9194   56.4605 C   0  0  0  0  0  0
   -6.0690   26.6449   55.9485 C   0  0  0  0  0  0
   -6.7770   26.5025   54.7595 C   0  0  0  0  0  0
   -7.9813   27.5998   52.9101 O   0  0  0  0  0  0
   -7.9853   26.4016   52.1449 C   0  0  0  0  0  0
   -8.8355   26.5137   50.9521 C   0  0  0  0  0  0
   -9.5265   26.5977   49.9495 C   0  0  0  0  0  0
  -10.3382   26.6995   48.7297 C   0  0  0  0  0  0
   -4.7919   28.1108   57.8723 S   0  0  0  0  0  0
   -3.1065   28.2917   57.1730 C   0  0  2  0  0  0
   -2.7791   27.2130   56.1178 C   0  0  0  0  0  0
   -2.5673   25.9762   56.5836 N   0  0  0  0  0  0
   -2.7390   27.4763   54.9100 O   0  0  0  0  0  0
   -2.3390   24.9700   55.6602 O   0  0  0  0  0  0
   -2.0224   28.3541   58.2619 C   0  0  0  0  0  0
   -1.0791   29.3851   58.2399 C   0  0  0  0  0  0
   -0.0467   29.4089   59.1740 C   0  0  0  0  0  0
    0.0668   28.4058   60.1359 C   0  0  0  0  0  0
   -0.8778   27.3700   60.1600 C   0  0  0  0  0  0
   -1.9202   27.3539   59.2390 C   0  0  0  0  0  0
    1.1244   28.5143   61.0173 O   0  0  0  0  0  0
    1.2842   27.5343   62.0381 C   0  0  0  0  0  0
   -7.4388   29.7700   54.1320 H   0  0  0  0  0  0
   -6.1443   30.0356   56.2144 H   0  0  0  0  0  0
   -5.6690   25.7700   56.4426 H   0  0  0  0  0  0
   -6.9155   25.5054   54.3721 H   0  0  0  0  0  0
   -8.3390   25.5549   52.7290 H   0  0  0  0  0  0
   -6.9709   26.1700   51.8235 H   0  0  0  0  0  0
  -11.3599   26.9700   48.9928 H   0  0  0  0  0  0
  -10.3401   25.7424   48.2080 H   0  0  0  0  0  0
   -9.9231   27.4647   48.0737 H   0  0  0  0  0  0
   -3.1200   29.2490   56.6483 H   0  0  0  0  0  0
   -2.6938   25.6391   57.5312 H   0  0  0  0  0  0
   -3.1656   24.4376   55.7100 H   0  0  0  0  0  0
   -1.1331   30.1648   57.4937 H   0  0  0  0  0  0
    0.6786   30.2089   59.1503 H   0  0  0  0  0  0
   -0.8279   26.5811   60.8941 H   0  0  0  0  0  0
   -2.6484   26.5573   59.2882 H   0  0  0  0  0  0
    2.1591   27.7804   62.6397 H   0  0  0  0  0  0
    0.4220   27.5082   62.7065 H   0  0  0  0  0  0
    1.4433   26.5397   61.6184 H   0  0  0  0  0  0
  1  6  1  0  0  0
  1  2  2  0  0  0
  1  7  1  0  0  0
  2  3  1  0  0  0
  2 26  1  0  0  0
  3  4  2  0  0  0
  3 27  1  0  0  0
  4  5  1  0  0  0
  4 12  1  0  0  0
  5  6  2  0  0  0
  5 28  1  0  0  0
  6 29  1  0  0  0
  7  8  1  0  0  0
  8  9  1  0  0  0
  8 30  1  0  0  0
  8 31  1  0  0  0
  9 10  3  0  0  0
 10 11  1  0  0  0
 11 32  1  0  0  0
 11 33  1  0  0  0
 11 34  1  0  0  0
 12 13  1  0  0  0
 13 14  1  0  0  0
 13 18  1  0  0  0
 13 35  1  0  0  0
 14 15  1  0  0  0
 14 16  2  0  0  0
 15 17  1  0  0  0
 15 36  1  0  0  0
 17 37  1  0  0  0
 18 19  2  0  0  0
 18 23  1  0  0  0
 19 20  1  0  0  0
 19 38  1  0  0  0
 20 21  2  0  0  0
 20 39  1  0  0  0
 21 22  1  0  0  0
 21 24  1  0  0  0
 22 23  2  0  0  0
 22 40  1  0  0  0
 23 41  1  0  0  0
 24 25  1  0  0  0
 25 42  1  0  0  0
 25 43  1  0  0  0
 25 44  1  0  0  0
M  END
> <s_m_entry_id>
64317

> <s_m_entry_name>
dock_pv.267

> <s_m_Source_Path>
/home/csk/Desktop/cluster/DUD-E-result/mmp13

> <s_m_Source_File>
dock_pv.maegz

> <i_m_Source_File_Index>
267

> <chembl_id>
CHEMBL373438

> <chembl_pref_name>
None

> <i_lp_mmshare_version>
53161

> <i_f3d_flags>
0

> <r_lp_tautomer_probability>
1

> <s_lp_Force_Field>
OPLS_2005

> <r_lp_Energy>
31.772347

> <b_lp_Chiralities_Consistent>
1

> <s_lp_Variant>
CHEMBL280_lig1105-1

> <s_i_glide_gridfile>
glide-grid_830c

> <i_i_glide_lignum>
1780

> <i_i_glide_rotatable_bonds>
10

> <r_i_docking_score>
-6.88458681831571

> <r_i_glide_ligand_efficiency>
-0.275383472732628

> <r_i_glide_ligand_efficiency_sa>
-0.80522615821689

> <r_i_glide_ligand_efficiency_ln>
-1.63185339035922

> <r_i_glide_gscore>
-6.88458681831571

> <r_i_glide_lipo>
-3.05351639821024

> <r_i_glide_hbond>
-0.105827601149537

> <r_i_glide_metal>
0

> <r_i_glide_rewards>
-0.965451071707909

> <r_i_glide_evdw>
-35.4802131652832

> <r_i_glide_ecoul>
-13.2306451797485

> <r_i_glide_erotb>
1.19881568797842

> <r_i_glide_esite>
-0.2

> <r_i_glide_emodel>
-72.7241326630119

> <r_i_glide_energy>
-48.7108583450317

> <r_i_glide_einternal>
9.39129447937012

> <i_i_glide_confnum>
99

> <i_i_glide_posenum>
348

> <r_i_glide_eff_state_penalty>
0

> <s_user_duplicate_titles>
CHEMBL280_lig1105

> <s_m_subgroup_title>
dock_pv

> <s_m_subgroupid>
dock_pv

> <b_m_subgroup_collapsed>
1

$$$$
CHEMBL280_lig1109
                    3D
 Schrodinger Suite 2021-1.
 40 41  0  0  1  0            999 V2000
   -7.0027   27.1313   53.6632 C   0  0  0  0  0  0
   -6.7404   26.1354   54.6020 C   0  0  0  0  0  0
   -6.2093   26.4504   55.8473 C   0  0  0  0  0  0
   -5.9356   27.7789   56.1590 C   0  0  0  0  0  0
   -6.2164   28.7909   55.2455 C   0  0  0  0  0  0
   -6.7390   28.4690   53.9959 C   0  0  0  0  0  0
   -7.5371   26.7052   52.4647 O   0  0  0  0  0  0
   -7.3978   27.5050   51.2931 C   0  0  0  0  0  0
   -8.3779   27.1251   50.2663 C   0  0  0  0  0  0
   -9.2186   26.8511   49.4244 C   0  0  0  0  0  0
  -10.2466   26.5602   48.4161 C   0  0  0  0  0  0
   -5.1914   28.1828   57.7093 S   0  0  0  0  0  0
   -3.3680   28.0617   57.5308 C   0  0  1  0  0  0
   -2.8944   27.1429   56.3782 C   0  0  0  0  0  0
   -2.6753   25.8675   56.7214 N   0  0  0  0  0  0
   -2.7390   27.5466   55.2166 O   0  0  0  0  0  0
   -2.3390   24.9701   55.7098 O   0  0  0  0  0  0
   -2.7090   29.4461   57.5092 C   0  0  0  0  0  0
   -1.7972   29.7944   58.5122 C   0  0  0  0  0  0
   -1.2027   31.0541   58.5166 C   0  0  0  0  0  0
   -1.5187   31.9692   57.5163 C   0  0  0  0  0  0
   -2.4201   31.6340   56.5104 C   0  0  0  0  0  0
   -3.0121   30.3751   56.5082 C   0  0  0  0  0  0
   -6.9283   25.1013   54.3516 H   0  0  0  0  0  0
   -5.9841   25.6587   56.5490 H   0  0  0  0  0  0
   -6.0084   29.8224   55.4883 H   0  0  0  0  0  0
   -6.9313   29.2793   53.3127 H   0  0  0  0  0  0
   -6.3954   27.3761   50.8828 H   0  0  0  0  0  0
   -7.5387   28.5692   51.4617 H   0  0  0  0  0  0
  -10.3389   25.4811   48.2857 H   0  0  0  0  0  0
   -9.9735   27.0185   47.4652 H   0  0  0  0  0  0
  -11.2028   26.9655   48.7466 H   0  0  0  0  0  0
   -3.0634   27.5841   58.4646 H   0  0  0  0  0  0
   -2.8689   25.4224   57.6140 H   0  0  0  0  0  0
   -3.1043   24.3594   55.7100 H   0  0  0  0  0  0
   -1.5434   29.0936   59.2934 H   0  0  0  0  0  0
   -0.4994   31.3191   59.2915 H   0  0  0  0  0  0
   -1.0579   32.9463   57.5180 H   0  0  0  0  0  0
   -2.6581   32.3412   55.7290 H   0  0  0  0  0  0
   -3.6963   30.1184   55.7126 H   0  0  0  0  0  0
  1  6  1  0  0  0
  1  2  2  0  0  0
  1  7  1  0  0  0
  2  3  1  0  0  0
  2 24  1  0  0  0
  3  4  2  0  0  0
  3 25  1  0  0  0
  4 12  1  0  0  0
  4  5  1  0  0  0
  5  6  2  0  0  0
  5 26  1  0  0  0
  6 27  1  0  0  0
  7  8  1  0  0  0
  8  9  1  0  0  0
  8 28  1  0  0  0
  8 29  1  0  0  0
  9 10  3  0  0  0
 10 11  1  0  0  0
 11 30  1  0  0  0
 11 31  1  0  0  0
 11 32  1  0  0  0
 12 13  1  0  0  0
 13 14  1  0  0  0
 13 18  1  0  0  0
 13 33  1  0  0  0
 14 15  1  0  0  0
 14 16  2  0  0  0
 15 17  1  0  0  0
 15 34  1  0  0  0
 17 35  1  0  0  0
 18 19  2  0  0  0
 18 23  1  0  0  0
 19 20  1  0  0  0
 19 36  1  0  0  0
 20 21  2  0  0  0
 20 37  1  0  0  0
 21 22  1  0  0  0
 21 38  1  0  0  0
 22 23  2  0  0  0
 22 39  1  0  0  0
 23 40  1  0  0  0
M  END
> <s_m_entry_id>
64319

> <s_m_entry_name>
dock_pv.269

> <s_m_Source_Path>
/home/csk/Desktop/cluster/DUD-E-result/mmp13

> <s_m_Source_File>
dock_pv.maegz

> <i_m_Source_File_Index>
269

> <chembl_id>
CHEMBL373694

> <chembl_pref_name>
None

> <i_lp_mmshare_version>
53161

> <i_f3d_flags>
0

> <r_lp_tautomer_probability>
1

> <s_lp_Force_Field>
OPLS_2005

> <r_lp_Energy>
22.006462

> <b_lp_Chiralities_Consistent>
1

> <s_lp_Variant>
CHEMBL280_lig1109-2

> <s_i_glide_gridfile>
glide-grid_830c

> <i_i_glide_lignum>
1789

> <i_i_glide_rotatable_bonds>
9

> <r_i_docking_score>
-6.87849702690737

> <r_i_glide_ligand_efficiency>
-0.299065088126407

> <r_i_glide_ligand_efficiency_sa>
-0.850501328060174

> <r_i_glide_ligand_efficiency_ln>
-1.66328295186889

> <r_i_glide_gscore>
-6.87849702690737

> <r_i_glide_lipo>
-2.77704287530446

> <r_i_glide_hbond>
-0.300476667053727

> <r_i_glide_metal>
0

> <r_i_glide_rewards>
-1.12367730236095

> <r_i_glide_evdw>
-35.9752235412598

> <r_i_glide_ecoul>
-13.8629426956177

> <r_i_glide_erotb>
1.40070422699856

> <r_i_glide_esite>
-0.199801827781143

> <r_i_glide_emodel>
-73.953355898979

> <r_i_glide_energy>
-49.8381662368774

> <r_i_glide_einternal>
5.28602838516235

> <i_i_glide_confnum>
54

> <i_i_glide_posenum>
62

> <r_i_glide_eff_state_penalty>
0

> <s_user_duplicate_titles>
CHEMBL280_lig1109

> <s_m_subgroup_title>
dock_pv

> <s_m_subgroupid>
dock_pv

> <b_m_subgroup_collapsed>
1

$$$$
CHEMBL280_lig2079
                    3D
 Schrodinger Suite 2021-1.
 35 36  0  0  1  0            999 V2000
   -5.0426   28.2589   54.6901 N   0  0  0  0  0  0
   -4.3550   27.1258   54.9100 C   0  0  0  0  0  0
   -5.2833   26.1700   54.9100 N   0  0  0  0  0  0
   -6.5962   26.6062   54.5324 C   0  0  1  0  0  0
   -6.3396   28.0969   54.3928 C   0  0  0  0  0  0
   -7.0413   25.9705   53.1888 C   0  0  0  0  0  0
   -8.3179   26.3841   52.5776 N   0  0  0  0  0  0
   -8.4820   26.5700   51.2495 C   0  0  0  0  0  0
   -9.9251   26.7263   50.7263 C   0  0  0  0  0  0
   -7.5391   26.5700   50.4612 O   0  0  0  0  0  0
  -10.0459   26.4045   49.3338 O   0  0  0  0  0  0
   -9.7139   27.3169   48.3479 C   0  0  0  0  0  0
  -10.0714   26.9703   47.0438 C   0  0  0  0  0  0
   -9.7726   27.8160   45.9786 C   0  0  0  0  0  0
   -9.1055   29.0144   46.2193 C   0  0  0  0  0  0
   -8.7361   29.3700   47.5131 C   0  0  0  0  0  0
   -9.0475   28.5297   48.5764 C   0  0  0  0  0  0
   -8.7393   30.0746   44.9100 Cl  0  0  0  0  0  0
   -7.1560   28.9700   54.1100 O   0  0  0  0  0  0
   -3.1333   26.9700   54.9100 O   0  0  0  0  0  0
   -7.5863   26.3778   55.6796 C   0  0  0  0  0  0
   -4.6091   29.1723   54.6437 H   0  0  0  0  0  0
   -5.1390   25.2480   55.3285 H   0  0  0  0  0  0
   -6.2321   26.1700   52.4938 H   0  0  0  0  0  0
   -7.0742   24.8863   53.3100 H   0  0  0  0  0  0
   -9.1260   26.4003   53.1800 H   0  0  0  0  0  0
  -10.5702   26.0299   51.2631 H   0  0  0  0  0  0
  -10.3170   27.7254   50.9100 H   0  0  0  0  0  0
  -10.5816   26.0366   46.8612 H   0  0  0  0  0  0
  -10.0513   27.5431   44.9715 H   0  0  0  0  0  0
   -8.2134   30.2982   47.6958 H   0  0  0  0  0  0
   -8.7390   28.8298   49.5654 H   0  0  0  0  0  0
   -8.6120   26.5699   55.3621 H   0  0  0  0  0  0
   -7.5320   25.3700   56.0867 H   0  0  0  0  0  0
   -7.3461   27.0322   56.5100 H   0  0  0  0  0  0
  1  2  1  0  0  0
  1  5  1  0  0  0
  1 22  1  0  0  0
  2  3  1  0  0  0
  2 20  2  0  0  0
  3  4  1  0  0  0
  3 23  1  0  0  0
  4  5  1  0  0  0
  4  6  1  0  0  0
  4 21  1  0  0  0
  5 19  2  0  0  0
  6  7  1  0  0  0
  6 24  1  0  0  0
  6 25  1  0  0  0
  7  8  1  0  0  0
  7 26  1  0  0  0
  8  9  1  0  0  0
  8 10  2  0  0  0
  9 11  1  0  0  0
  9 27  1  0  0  0
  9 28  1  0  0  0
 11 12  1  0  0  0
 12 13  2  0  0  0
 12 17  1  0  0  0
 13 14  1  0  0  0
 13 29  1  0  0  0
 14 15  2  0  0  0
 14 30  1  0  0  0
 15 16  1  0  0  0
 15 18  1  0  0  0
 16 17  2  0  0  0
 16 31  1  0  0  0
 17 32  1  0  0  0
 21 33  1  0  0  0
 21 34  1  0  0  0
 21 35  1  0  0  0
M  END
> <s_m_entry_id>
64320

> <s_m_entry_name>
dock_pv.270

> <s_m_Source_Path>
/home/csk/Desktop/cluster/DUD-E-result/mmp13

> <s_m_Source_File>
dock_pv.maegz

> <i_m_Source_File_Index>
270

> <chembl_id>
CHEMBL3358151

> <chembl_pref_name>
None

> <i_lp_mmshare_version>
53161

> <i_f3d_flags>
0

> <r_lp_tautomer_probability>
0.99999999978137

> <s_lp_Force_Field>
OPLS_2005

> <r_lp_Energy>
21.882506

> <b_lp_Chiralities_Consistent>
1

> <s_lp_Variant>
CHEMBL280_lig2079-1

> <s_i_glide_gridfile>
glide-grid_830c

> <i_i_glide_lignum>
2885

> <i_i_glide_rotatable_bonds>
6

> <r_i_docking_score>
-6.87649982262596

> <r_i_glide_ligand_efficiency>
-0.327452372505998

> <r_i_glide_ligand_efficiency_sa>
-0.903416266203331

> <r_i_glide_ligand_efficiency_ln>
-1.70020068586802

> <r_i_glide_gscore>
-6.87649982262596

> <r_i_glide_lipo>
-2.53465964460429

> <r_i_glide_hbond>
-0.44851448511071

> <r_i_glide_metal>
0

> <r_i_glide_rewards>
-1.27843094412404

> <r_i_glide_evdw>
-38.200611114502

> <r_i_glide_ecoul>
-8.48404121398926

> <r_i_glide_erotb>
0.763585773376563

> <r_i_glide_esite>
-0.195843784339992

> <r_i_glide_emodel>
-65.4701839376812

> <r_i_glide_energy>
-46.6846523284912

> <r_i_glide_einternal>
11.0258836746216

> <i_i_glide_confnum>
18

> <i_i_glide_posenum>
364

> <r_i_glide_eff_state_penalty>
0

> <s_user_duplicate_titles>
CHEMBL280_lig2079

> <s_m_subgroup_title>
dock_pv

> <s_m_subgroupid>
dock_pv

> <b_m_subgroup_collapsed>
1

$$$$
CHEMBL280_lig852
                    3D
 Schrodinger Suite 2021-1.
 46 47  0  0  1  0            999 V2000
   -5.5248   28.5323   57.6134 S   0  0  0  0  0  0
   -3.8444   29.0840   57.4162 N   0  0  3  0  0  0
   -2.7445   28.1061   57.6700 C   0  0  1  0  0  0
   -2.6319   27.1524   56.4564 C   0  0  0  0  0  0
   -6.0489   27.9500   56.0055 C   0  0  0  0  0  0
   -6.3390   29.7132   57.9114 O   0  0  0  0  0  0
   -5.5390   27.3700   58.5100 O   0  0  0  0  0  0
   -8.4885   26.9277   50.1716 C   0  0  0  0  0  0
   -9.3075   26.5634   49.3427 C   0  0  0  0  0  0
   -2.7390   27.5353   55.2819 O   0  0  0  0  0  0
   -0.6130   29.4086   57.0131 N   0  0  1  0  0  0
   -2.4136   25.8700   56.7656 N   0  0  0  0  0  0
   -6.1906   26.5853   55.7420 C   0  0  0  0  0  0
   -6.3306   28.8869   55.0166 C   0  0  0  0  0  0
   -1.3829   28.7429   58.0588 C   0  0  0  0  0  0
   -3.6281   30.5254   57.1117 C   0  0  0  0  0  0
   -6.9231   27.1005   53.4881 C   0  0  0  0  0  0
   -6.7391   28.4650   53.7582 C   0  0  0  0  0  0
   -6.6391   26.1701   54.4900 C   0  0  0  0  0  0
   -2.3390   24.9700   55.7099 O   0  0  0  0  0  0
   -7.5397   27.4605   51.1593 C   0  0  0  0  0  0
   -2.5281   30.8026   56.0752 C   0  0  0  0  0  0
   -7.3840   26.5957   52.2855 O   0  0  0  0  0  0
   -1.0840   30.7191   56.5936 C   0  0  0  0  0  0
  -10.2968   26.1700   48.3300 C   0  0  0  0  0  0
   -3.0567   27.5152   58.5324 H   0  0  0  0  0  0
    0.3538   29.4850   57.3014 H   0  0  0  0  0  0
   -2.4508   25.4324   57.6794 H   0  0  0  0  0  0
   -5.9651   25.8445   56.4974 H   0  0  0  0  0  0
   -6.2093   29.9428   55.2131 H   0  0  0  0  0  0
   -0.7438   27.9453   58.4414 H   0  0  0  0  0  0
   -1.5112   29.4228   58.9034 H   0  0  0  0  0  0
   -4.5609   30.9385   56.7270 H   0  0  0  0  0  0
   -3.4056   31.0491   58.0420 H   0  0  0  0  0  0
   -6.9074   29.2281   53.0191 H   0  0  0  0  0  0
   -6.7515   25.1141   54.2903 H   0  0  0  0  0  0
   -3.1828   24.4682   55.7791 H   0  0  0  0  0  0
   -6.5755   27.6283   50.6782 H   0  0  0  0  0  0
   -7.9389   28.4359   51.4201 H   0  0  0  0  0  0
   -2.6599   30.1647   55.2032 H   0  0  0  0  0  0
   -2.6765   31.8189   55.7095 H   0  0  0  0  0  0
   -0.4040   31.0952   55.8280 H   0  0  0  0  0  0
   -0.9744   31.3932   57.4448 H   0  0  0  0  0  0
  -11.2770   26.5700   48.5901 H   0  0  0  0  0  0
  -10.3394   25.0823   48.2746 H   0  0  0  0  0  0
  -10.0003   26.5657   47.3585 H   0  0  0  0  0  0
  1  2  1  0  0  0
  1  5  1  0  0  0
  1  6  2  0  0  0
  1  7  2  0  0  0
  2  3  1  0  0  0
  2 16  1  0  0  0
  3  4  1  0  0  0
  3 15  1  0  0  0
  3 26  1  0  0  0
  4 10  2  0  0  0
  4 12  1  0  0  0
  5 13  2  0  0  0
  5 14  1  0  0  0
  8 21  1  0  0  0
  8  9  3  0  0  0
  9 25  1  0  0  0
 11 15  1  0  0  0
 11 24  1  0  0  0
 11 27  1  0  0  0
 12 20  1  0  0  0
 12 28  1  0  0  0
 13 19  1  0  0  0
 13 29  1  0  0  0
 14 18  2  0  0  0
 14 30  1  0  0  0
 15 31  1  0  0  0
 15 32  1  0  0  0
 16 22  1  0  0  0
 16 33  1  0  0  0
 16 34  1  0  0  0
 17 18  1  0  0  0
 17 23  1  0  0  0
 17 19  2  0  0  0
 18 35  1  0  0  0
 19 36  1  0  0  0
 20 37  1  0  0  0
 21 23  1  0  0  0
 21 38  1  0  0  0
 21 39  1  0  0  0
 22 24  1  0  0  0
 22 40  1  0  0  0
 22 41  1  0  0  0
 24 42  1  0  0  0
 24 43  1  0  0  0
 25 44  1  0  0  0
 25 45  1  0  0  0
 25 46  1  0  0  0
M  END
> <s_m_entry_id>
64321

> <s_m_entry_name>
dock_pv.271

> <s_m_Source_Path>
/home/csk/Desktop/cluster/DUD-E-result/mmp13

> <s_m_Source_File>
dock_pv.maegz

> <i_m_Source_File_Index>
271

> <chembl_id>
CHEMBL359920

> <chembl_pref_name>
None

> <i_lp_mmshare_version>
53161

> <i_f3d_flags>
0

> <r_lp_tautomer_probability>
1

> <s_lp_Force_Field>
OPLS_2005

> <r_lp_Energy>
20.549444

> <b_lp_Chiralities_Consistent>
1

> <s_lp_Variant>
CHEMBL280_lig852-2

> <s_i_glide_gridfile>
glide-grid_830c

> <i_i_glide_lignum>
1344

> <i_i_glide_rotatable_bonds>
8

> <r_i_docking_score>
-6.87431638199099

> <r_i_glide_ligand_efficiency>
-0.27497265527964

> <r_i_glide_ligand_efficiency_sa>
-0.804024920698473

> <r_i_glide_ligand_efficiency_ln>
-1.62941898917012

> <r_i_glide_gscore>
-6.87431638199099

> <r_i_glide_lipo>
-2.50379546238982

> <r_i_glide_hbond>
-0.0778074575725316

> <r_i_glide_metal>
0

> <r_i_glide_rewards>
-0.765882744664611

> <r_i_glide_evdw>
-38.2536392211914

> <r_i_glide_ecoul>
-15.5333452224731

> <r_i_glide_erotb>
0.998600651098145

> <r_i_glide_esite>
-0.282747624031634

> <r_i_glide_emodel>
-80.2041245239082

> <r_i_glide_energy>
-53.7869844436646

> <r_i_glide_einternal>
3.66054558753967

> <i_i_glide_confnum>
270

> <i_i_glide_posenum>
45

> <r_i_glide_eff_state_penalty>
0

> <s_user_duplicate_titles>
CHEMBL280_lig852,302239

> <s_m_subgroup_title>
dock_pv

> <s_m_subgroupid>
dock_pv

> <b_m_subgroup_collapsed>
1

$$$$
CHEMBL280_lig1748
                    3D
 Schrodinger Suite 2021-1.
 45 47  0  0  1  0            999 V2000
   -2.8052   28.4974   57.0673 C   0  0  0  0  0  0
   -2.6339   29.8223   56.2415 C   0  0  0  0  0  0
   -2.2629   31.0647   57.0734 C   0  0  0  0  0  0
   -1.1568   30.7655   57.9142 O   0  0  0  0  0  0
   -1.4744   29.7850   58.8931 C   0  0  0  0  0  0
   -1.7316   28.4288   58.2031 C   0  0  0  0  0  0
   -4.5770   28.4436   57.8294 S   0  0  0  0  0  0
   -4.6403   27.3714   58.8308 O   0  0  0  0  0  0
   -4.9820   29.8036   58.2033 O   0  0  0  0  0  0
   -5.6553   27.9402   56.4873 C   0  0  0  0  0  0
   -6.2854   28.8824   55.6677 C   0  0  0  0  0  0
   -7.1117   28.4537   54.6282 C   0  0  0  0  0  0
   -7.2826   27.0837   54.3973 C   0  0  0  0  0  0
   -6.6355   26.1625   55.2091 C   0  0  0  0  0  0
   -5.8394   26.5778   56.2617 C   0  0  0  0  0  0
   -8.1580   26.5762   53.4648 O   0  0  0  0  0  0
   -2.6394   27.2739   56.1085 C   0  0  0  0  0  0
   -2.7394   27.4103   54.8859 O   0  0  0  0  0  0
   -2.4357   26.0503   56.6255 N   0  0  0  0  0  0
   -2.3391   24.9737   55.7173 O   0  0  0  0  0  0
   -8.1022   26.8696   52.1193 C   0  0  0  0  0  0
   -8.9839   26.1670   51.2969 C   0  0  0  0  0  0
   -8.9836   26.3621   49.9189 C   0  0  0  0  0  0
   -8.1796   27.3311   49.3485 C   0  0  0  0  0  0
   -7.3155   28.0522   50.1568 C   0  0  0  0  0  0
   -7.2326   27.7940   51.5261 C   0  0  0  0  0  0
   -9.9400   25.3734   48.9094 Cl  0  0  0  0  0  0
   -3.5569   30.0413   55.7097 H   0  0  0  0  0  0
   -1.8604   29.7196   55.4775 H   0  0  0  0  0  0
   -3.1052   31.4242   57.6622 H   0  0  0  0  0  0
   -1.9874   31.8880   56.4149 H   0  0  0  0  0  0
   -2.3388   30.1143   59.4742 H   0  0  0  0  0  0
   -0.6429   29.7031   59.5913 H   0  0  0  0  0  0
   -0.7735   28.0916   57.8030 H   0  0  0  0  0  0
   -2.0120   27.6929   58.9590 H   0  0  0  0  0  0
   -6.1458   29.9389   55.8416 H   0  0  0  0  0  0
   -7.6296   29.1783   54.0211 H   0  0  0  0  0  0
   -6.7408   25.1013   55.0344 H   0  0  0  0  0  0
   -5.3568   25.8352   56.8828 H   0  0  0  0  0  0
   -2.4786   25.7690   57.6007 H   0  0  0  0  0  0
   -3.1794   24.4826   55.8421 H   0  0  0  0  0  0
   -9.6497   25.4272   51.7116 H   0  0  0  0  0  0
   -8.1995   27.5117   48.2823 H   0  0  0  0  0  0
   -6.7390   28.8336   49.7035 H   0  0  0  0  0  0
   -6.5160   28.3559   52.1035 H   0  0  0  0  0  0
  1  7  1  0  0  0
  1  2  1  0  0  0
  1 17  1  0  0  0
  1  6  1  0  0  0
  2  3  1  0  0  0
  2 28  1  0  0  0
  2 29  1  0  0  0
  3  4  1  0  0  0
  3 30  1  0  0  0
  3 31  1  0  0  0
  4  5  1  0  0  0
  5  6  1  0  0  0
  5 32  1  0  0  0
  5 33  1  0  0  0
  6 34  1  0  0  0
  6 35  1  0  0  0
  7  9  2  0  0  0
  7 10  1  0  0  0
  7  8  2  0  0  0
 10 15  1  0  0  0
 10 11  2  0  0  0
 11 12  1  0  0  0
 11 36  1  0  0  0
 12 13  2  0  0  0
 12 37  1  0  0  0
 13 16  1  0  0  0
 13 14  1  0  0  0
 14 15  2  0  0  0
 14 38  1  0  0  0
 15 39  1  0  0  0
 16 21  1  0  0  0
 17 18  2  0  0  0
 17 19  1  0  0  0
 19 20  1  0  0  0
 19 40  1  0  0  0
 20 41  1  0  0  0
 21 22  2  0  0  0
 21 26  1  0  0  0
 22 23  1  0  0  0
 22 42  1  0  0  0
 23 24  2  0  0  0
 23 27  1  0  0  0
 24 25  1  0  0  0
 24 43  1  0  0  0
 25 26  2  0  0  0
 25 44  1  0  0  0
 26 45  1  0  0  0
M  END
> <s_m_entry_id>
64322

> <s_m_entry_name>
dock_pv.272

> <s_m_Source_Path>
/home/csk/Desktop/cluster/DUD-E-result/mmp13

> <s_m_Source_File>
dock_pv.maegz

> <i_m_Source_File_Index>
272

> <chembl_id>
CHEMBL1801045

> <chembl_pref_name>
None

> <i_lp_mmshare_version>
53161

> <i_f3d_flags>
0

> <r_lp_tautomer_probability>
1

> <s_lp_Force_Field>
OPLS_2005

> <r_lp_Energy>
21.441343

> <b_lp_Chiralities_Consistent>
1

> <s_lp_Variant>
CHEMBL280_lig1748-1

> <s_i_glide_gridfile>
glide-grid_830c

> <i_i_glide_lignum>
2499

> <i_i_glide_rotatable_bonds>
7

> <r_i_docking_score>
-6.86726360135796

> <r_i_glide_ligand_efficiency>
-0.254343096346591

> <r_i_glide_ligand_efficiency_sa>
-0.7630292882015

> <r_i_glide_ligand_efficiency_ln>
-1.59858575070738

> <r_i_glide_gscore>
-6.86726360135796

> <r_i_glide_lipo>
-2.52992036785123

> <r_i_glide_hbond>
0

> <r_i_glide_metal>
0

> <r_i_glide_rewards>
-0.600972811024383

> <r_i_glide_evdw>
-38.7114753723145

> <r_i_glide_ecoul>
-15.3206653594971

> <r_i_glide_erotb>
0.697303150057938

> <r_i_glide_esite>
-0.2

> <r_i_glide_emodel>
-75.7255678621293

> <r_i_glide_energy>
-54.0321407318115

> <r_i_glide_einternal>
10.3160314559937

> <i_i_glide_confnum>
116

> <i_i_glide_posenum>
146

> <r_i_glide_eff_state_penalty>
0

> <s_user_duplicate_titles>
CHEMBL280_lig1748

> <s_m_subgroup_title>
dock_pv

> <s_m_subgroupid>
dock_pv

> <b_m_subgroup_collapsed>
1

$$$$
CHEMBL280_lig2560
                    3D
 Schrodinger Suite 2021-1.
 41 43  0  0  1  0            999 V2000
   -4.5245   26.5877   55.2447 O   0  0  0  0  0  0
   -5.9775   26.6831   55.4498 S   0  0  0  0  0  0
   -6.7389   25.6025   56.0818 O   0  0  0  0  0  0
   -5.2419   31.5800   57.1308 C   0  0  0  0  0  0
   -6.3018   30.5953   56.6413 C   0  0  0  0  0  0
   -5.5108   29.3290   56.2801 C   0  0  1  0  0  0
   -4.2267   29.3650   57.1420 C   0  0  2  0  0  0
   -4.2745   30.6940   57.9171 C   0  0  0  0  0  0
   -6.3164   28.1071   56.4209 N   0  0  1  0  0  0
   -6.7121   26.9696   53.8340 C   0  0  0  0  0  0
   -7.7679   26.1699   53.4068 C   0  0  0  0  0  0
   -8.3171   26.3387   52.1413 C   0  0  0  0  0  0
   -7.8293   27.3126   51.2618 C   0  0  0  0  0  0
   -6.7623   28.1101   51.7103 C   0  0  0  0  0  0
   -6.2058   27.9420   52.9760 C   0  0  0  0  0  0
   -2.7338   29.2493   56.1098 S   0  0  0  0  0  0
   -8.4387   27.4835   49.8943 C   0  0  0  0  0  0
   -9.7163   26.9743   49.5962 C   0  0  0  0  0  0
  -10.2812   27.1321   48.3337 C   0  0  0  0  0  0
   -9.5865   27.8253   47.3493 C   0  0  0  0  0  0
   -8.3286   28.3491   47.6188 C   0  0  0  0  0  0
   -7.7585   28.1700   48.8757 C   0  0  0  0  0  0
   -4.7317   32.0420   56.2825 H   0  0  0  0  0  0
   -5.6653   32.3788   57.7415 H   0  0  0  0  0  0
   -7.0140   30.3998   57.4471 H   0  0  0  0  0  0
   -6.8571   30.9924   55.7900 H   0  0  0  0  0  0
   -5.3140   29.3701   55.2127 H   0  0  0  0  0  0
   -4.1798   28.5251   57.8377 H   0  0  0  0  0  0
   -3.2965   31.1603   58.0459 H   0  0  0  0  0  0
   -4.6751   30.5189   58.9183 H   0  0  0  0  0  0
   -7.3124   28.2712   56.5789 H   0  0  0  0  0  0
   -8.1534   25.3916   54.0413 H   0  0  0  0  0  0
   -9.1157   25.6784   51.8478 H   0  0  0  0  0  0
   -6.3455   28.8849   51.0877 H   0  0  0  0  0  0
   -5.3700   28.5588   53.2670 H   0  0  0  0  0  0
   -3.0403   30.2875   55.3238 H   0  0  0  0  0  0
  -10.3062   26.4574   50.3362 H   0  0  0  0  0  0
  -11.2641   26.7353   48.1235 H   0  0  0  0  0  0
  -10.0251   27.9593   46.3715 H   0  0  0  0  0  0
   -7.7840   28.8813   46.8517 H   0  0  0  0  0  0
   -6.7692   28.5705   49.0322 H   0  0  0  0  0  0
  1  2  2  0  0  0
  2  3  2  0  0  0
  2  9  1  0  0  0
  2 10  1  0  0  0
  4  5  1  0  0  0
  4  8  1  0  0  0
  4 23  1  0  0  0
  4 24  1  0  0  0
  5  6  1  0  0  0
  5 25  1  0  0  0
  5 26  1  0  0  0
  6  7  1  0  0  0
  6  9  1  0  0  0
  6 27  1  0  0  0
  7  8  1  0  0  0
  7 16  1  0  0  0
  7 28  1  0  0  0
  8 29  1  0  0  0
  8 30  1  0  0  0
  9 31  1  0  0  0
 10 11  2  0  0  0
 10 15  1  0  0  0
 11 12  1  0  0  0
 11 32  1  0  0  0
 12 13  2  0  0  0
 12 33  1  0  0  0
 13 14  1  0  0  0
 13 17  1  0  0  0
 14 15  2  0  0  0
 14 34  1  0  0  0
 15 35  1  0  0  0
 16 36  1  0  0  0
 17 18  2  0  0  0
 17 22  1  0  0  0
 18 19  1  0  0  0
 18 37  1  0  0  0
 19 20  2  0  0  0
 19 38  1  0  0  0
 20 21  1  0  0  0
 20 39  1  0  0  0
 21 22  2  0  0  0
 21 40  1  0  0  0
 22 41  1  0  0  0
M  END
> <s_m_entry_id>
64323

> <s_m_entry_name>
dock_pv.273

> <s_m_Source_Path>
/home/csk/Desktop/cluster/DUD-E-result/mmp13

> <s_m_Source_File>
dock_pv.maegz

> <i_m_Source_File_Index>
273

> <chembl_id>
CHEMBL2380394

> <chembl_pref_name>
None

> <i_lp_mmshare_version>
53161

> <i_f3d_flags>
0

> <r_lp_tautomer_probability>
1

> <s_lp_Force_Field>
OPLS_2005

> <r_lp_Energy>
25.995133

> <b_lp_Chiralities_Consistent>
1

> <s_lp_Variant>
CHEMBL280_lig2560-1

> <s_i_glide_gridfile>
glide-grid_830c

> <i_i_glide_lignum>
3679

> <i_i_glide_rotatable_bonds>
5

> <r_i_docking_score>
-6.85576724497113

> <r_i_glide_ligand_efficiency>
-0.311625783862324

> <r_i_glide_ligand_efficiency_sa>
-0.87318770192886

> <r_i_glide_ligand_efficiency_ln>
-1.67579958485722

> <r_i_glide_gscore>
-6.85576724497113

> <r_i_glide_lipo>
-3.61126531132742

> <r_i_glide_hbond>
-0.201889361162728

> <r_i_glide_metal>
0

> <r_i_glide_rewards>
-0.728732498114985

> <r_i_glide_evdw>
-43.8326148986816

> <r_i_glide_ecoul>
-3.93615317344666

> <r_i_glide_erotb>
0.677968726780128

> <r_i_glide_esite>
-0.209795080195044

> <r_i_glide_emodel>
-67.2410556834344

> <r_i_glide_energy>
-47.7687680721283

> <r_i_glide_einternal>
1.00448000431061

> <i_i_glide_confnum>
116

> <i_i_glide_posenum>
351

> <r_i_glide_eff_state_penalty>
0

> <s_user_duplicate_titles>
CHEMBL280_lig2560

> <s_m_subgroup_title>
dock_pv

> <s_m_subgroupid>
dock_pv

> <b_m_subgroup_collapsed>
1

$$$$
CHEMBL280_lig1975
                    3D
 Schrodinger Suite 2021-1.
 56 58  0  0  1  0            999 V2000
   -3.1390   27.3699   54.3179 O   0  0  0  0  0  0
   -3.4926   28.0857   55.5423 S   0  0  0  0  0  0
   -3.1398   29.4986   55.6598 O   0  0  0  0  0  0
   -9.5795   26.4747   49.7662 C   0  0  0  0  0  0
   -8.6859   27.3043   49.1022 C   0  0  0  0  0  0
   -7.5406   27.7610   49.7709 C   0  0  0  0  0  0
   -7.3582   27.4642   51.1222 C   0  0  0  0  0  0
   -8.3355   26.7415   51.8169 C   0  0  0  0  0  0
   -9.3997   26.1847   51.1105 C   0  0  0  0  0  0
   -8.4065   26.5465   53.1774 O   0  0  0  0  0  0
   -7.5220   27.0713   54.1647 C   0  0  0  0  0  0
   -6.3713   26.1055   54.4494 C   0  0  0  0  0  0
   -5.7503   26.4645   55.8022 C   0  0  0  0  0  0
   -5.2394   27.8496   55.7751 N   0  0  2  0  0  0
   -6.2442   28.9010   55.4555 C   0  0  0  0  0  0
   -7.0559   28.5602   54.1710 C   0  0  0  0  0  0
   -2.6724   27.1487   56.9761 C   0  0  0  0  0  0
   -2.7670   27.8695   58.3462 C   0  0  2  0  0  0
   -4.2263   28.1730   58.6861 C   0  0  0  0  0  0
   -4.3207   29.5119   58.7188 N   0  0  0  0  0  0
   -3.1620   30.1661   58.5102 C   0  0  0  0  0  0
   -2.2362   29.2079   58.3623 N   0  0  0  0  0  0
   -2.1281   26.9703   59.4386 C   0  0  0  0  0  0
   -5.1383   27.3696   58.8715 O   0  0  0  0  0  0
   -3.0070   31.3762   58.3879 O   0  0  0  0  0  0
   -9.0259   27.6102   47.8039 O   0  0  0  0  0  0
   -8.3464   28.6507   47.1202 C   0  0  0  0  0  0
   -9.2288   29.0812   45.9312 C   0  0  0  0  0  0
   -9.5004   28.0346   44.8353 C   0  0  0  0  0  0
   -8.4170   27.7701   44.1132 F   0  0  0  0  0  0
  -10.4297   28.4849   43.9929 F   0  0  0  0  0  0
   -9.9480   26.8828   45.3322 F   0  0  0  0  0  0
  -10.4403   26.0946   49.2390 H   0  0  0  0  0  0
   -6.7946   28.3534   49.2611 H   0  0  0  0  0  0
   -6.4615   27.8214   51.5932 H   0  0  0  0  0  0
  -10.1367   25.5887   51.6278 H   0  0  0  0  0  0
   -8.1715   26.9693   55.0325 H   0  0  0  0  0  0
   -6.7297   25.0756   54.4853 H   0  0  0  0  0  0
   -5.6174   26.1702   53.6679 H   0  0  0  0  0  0
   -6.4706   26.3707   56.6156 H   0  0  0  0  0  0
   -4.9402   25.7719   56.0222 H   0  0  0  0  0  0
   -6.8941   29.0151   56.3240 H   0  0  0  0  0  0
   -5.7281   29.8535   55.3337 H   0  0  0  0  0  0
   -6.3936   28.7997   53.3461 H   0  0  0  0  0  0
   -7.9208   29.2218   54.1195 H   0  0  0  0  0  0
   -3.1091   26.1510   57.0295 H   0  0  0  0  0  0
   -1.6269   27.0299   56.6966 H   0  0  0  0  0  0
   -5.1842   29.9977   58.9074 H   0  0  0  0  0  0
   -1.2533   29.3769   58.5112 H   0  0  0  0  0  0
   -2.7389   26.1013   59.6751 H   0  0  0  0  0  0
   -1.1593   26.5922   59.1106 H   0  0  0  0  0  0
   -1.9398   27.4858   60.3773 H   0  0  0  0  0  0
   -7.3583   28.3083   46.8209 H   0  0  0  0  0  0
   -8.2044   29.5139   47.7737 H   0  0  0  0  0  0
   -8.8029   29.9733   45.4710 H   0  0  0  0  0  0
  -10.1976   29.3700   46.3324 H   0  0  0  0  0  0
  1  2  2  0  0  0
  2  3  2  0  0  0
  2 14  1  0  0  0
  2 17  1  0  0  0
  4  5  2  0  0  0
  4  9  1  0  0  0
  4 33  1  0  0  0
  5  6  1  0  0  0
  5 26  1  0  0  0
  6  7  2  0  0  0
  6 34  1  0  0  0
  7  8  1  0  0  0
  7 35  1  0  0  0
  8  9  2  0  0  0
  8 10  1  0  0  0
  9 36  1  0  0  0
 10 11  1  0  0  0
 11 12  1  0  0  0
 11 16  1  0  0  0
 11 37  1  0  0  0
 12 13  1  0  0  0
 12 38  1  0  0  0
 12 39  1  0  0  0
 13 14  1  0  0  0
 13 40  1  0  0  0
 13 41  1  0  0  0
 14 15  1  0  0  0
 15 16  1  0  0  0
 15 42  1  0  0  0
 15 43  1  0  0  0
 16 44  1  0  0  0
 16 45  1  0  0  0
 17 18  1  0  0  0
 17 46  1  0  0  0
 17 47  1  0  0  0
 18 19  1  0  0  0
 18 22  1  0  0  0
 18 23  1  0  0  0
 19 20  1  0  0  0
 19 24  2  0  0  0
 20 21  1  0  0  0
 20 48  1  0  0  0
 21 22  1  0  0  0
 21 25  2  0  0  0
 22 49  1  0  0  0
 23 50  1  0  0  0
 23 51  1  0  0  0
 23 52  1  0  0  0
 26 27  1  0  0  0
 27 28  1  0  0  0
 27 53  1  0  0  0
 27 54  1  0  0  0
 28 29  1  0  0  0
 28 55  1  0  0  0
 28 56  1  0  0  0
 29 30  1  0  0  0
 29 31  1  0  0  0
 29 32  1  0  0  0
M  END
> <s_m_entry_id>
64324

> <s_m_entry_name>
dock_pv.274

> <s_m_Source_Path>
/home/csk/Desktop/cluster/DUD-E-result/mmp13

> <s_m_Source_File>
dock_pv.maegz

> <i_m_Source_File_Index>
274

> <chembl_id>
CHEMBL2409704

> <chembl_pref_name>
None

> <i_lp_mmshare_version>
53161

> <i_f3d_flags>
0

> <r_lp_tautomer_probability>
0.99999999978137

> <s_lp_Force_Field>
OPLS_2005

> <r_lp_Energy>
28.207561

> <b_lp_Chiralities_Consistent>
1

> <s_lp_Variant>
CHEMBL280_lig1975-1

> <s_i_glide_gridfile>
glide-grid_830c

> <i_i_glide_lignum>
2744

> <i_i_glide_rotatable_bonds>
9

> <r_i_docking_score>
-6.85345331265443

> <r_i_glide_ligand_efficiency>
-0.214170416020451

> <r_i_glide_ligand_efficiency_sa>
-0.679948686597154

> <r_i_glide_ligand_efficiency_ln>
-1.53467501478486

> <r_i_glide_gscore>
-6.85345331265443

> <r_i_glide_lipo>
-3.05991136995051

> <r_i_glide_hbond>
-0.470210742550506

> <r_i_glide_metal>
0

> <r_i_glide_rewards>
-0.13504487396554

> <r_i_glide_evdw>
-45.8475799560547

> <r_i_glide_ecoul>
-9.08200740814209

> <r_i_glide_erotb>
0.705441619492156

> <r_i_glide_esite>
-0.239047836655984

> <r_i_glide_emodel>
-68.3354896214179

> <r_i_glide_energy>
-54.9295873641968

> <r_i_glide_einternal>
13.3403406143188

> <i_i_glide_confnum>
5

> <i_i_glide_posenum>
57

> <r_i_glide_eff_state_penalty>
0

> <s_user_duplicate_titles>
CHEMBL280_lig1975

> <s_m_subgroup_title>
dock_pv

> <s_m_subgroupid>
dock_pv

> <b_m_subgroup_collapsed>
1

$$$$
CHEMBL280_lig1737
                    3D
 Schrodinger Suite 2021-1.
 44 46  0  0  1  0            999 V2000
   -3.4899   28.6014   57.1239 C   0  0  0  0  0  0
   -2.6773   27.3510   57.5952 C   0  0  0  0  0  0
   -2.7501   26.1697   56.6164 C   0  0  0  0  0  0
   -2.3383   26.5701   55.3102 O   0  0  0  0  0  0
   -3.1680   27.5767   54.7453 C   0  0  0  0  0  0
   -3.2458   28.8322   55.6119 C   0  0  0  0  0  0
   -5.3875   28.3970   57.4789 S   0  0  0  0  0  0
   -5.5402   27.3689   58.5101 O   0  0  0  0  0  0
   -5.9975   29.7171   57.6736 O   0  0  0  0  0  0
   -6.1606   27.7274   55.9949 C   0  0  0  0  0  0
   -6.6441   28.5781   54.9954 C   0  0  0  0  0  0
   -7.1971   28.0419   53.8328 C   0  0  0  0  0  0
   -7.2520   26.6557   53.6453 C   0  0  0  0  0  0
   -6.7391   25.8217   54.6378 C   0  0  0  0  0  0
   -6.2594   26.3473   55.8324 C   0  0  0  0  0  0
   -7.8672   26.0358   52.5730 O   0  0  0  0  0  0
   -3.0026   29.8745   57.8903 C   0  0  0  0  0  0
   -2.2748   29.7715   58.8809 O   0  0  0  0  0  0
   -3.4287   31.0697   57.4307 N   0  0  0  0  0  0
   -3.0536   32.2341   58.1202 O   0  0  0  0  0  0
   -8.2296   26.6742   51.4053 C   0  0  0  0  0  0
   -7.3633   27.5117   50.6922 C   0  0  0  0  0  0
   -7.7856   28.0332   49.4654 C   0  0  0  0  0  0
   -9.0065   27.7783   48.9358 N   0  0  0  0  0  0
   -9.8377   26.9688   49.6347 C   0  0  0  0  0  0
   -9.4842   26.3957   50.8568 C   0  0  0  0  0  0
   -3.0072   27.0269   58.5839 H   0  0  0  0  0  0
   -1.6202   27.5993   57.7131 H   0  0  0  0  0  0
   -3.7543   25.7549   56.5925 H   0  0  0  0  0  0
   -2.1016   25.3639   56.9618 H   0  0  0  0  0  0
   -4.1423   27.1569   54.5140 H   0  0  0  0  0  0
   -2.7607   27.8616   53.7749 H   0  0  0  0  0  0
   -2.3538   29.4339   55.4191 H   0  0  0  0  0  0
   -4.0952   29.3741   55.2360 H   0  0  0  0  0  0
   -6.5928   29.6509   55.1173 H   0  0  0  0  0  0
   -7.5836   28.7051   53.0810 H   0  0  0  0  0  0
   -6.7386   24.7516   54.4959 H   0  0  0  0  0  0
   -5.9380   25.6795   56.6165 H   0  0  0  0  0  0
   -4.0780   31.2432   56.6750 H   0  0  0  0  0  0
   -3.8448   32.4727   58.6126 H   0  0  0  0  0  0
   -6.3794   27.7467   51.0682 H   0  0  0  0  0  0
   -7.1390   28.6739   48.8839 H   0  0  0  0  0  0
  -10.8013   26.7785   49.1871 H   0  0  0  0  0  0
  -10.1758   25.7518   51.3719 H   0  0  0  0  0  0
  1  7  1  0  0  0
  1  2  1  0  0  0
  1 17  1  0  0  0
  1  6  1  0  0  0
  2  3  1  0  0  0
  2 27  1  0  0  0
  2 28  1  0  0  0
  3  4  1  0  0  0
  3 29  1  0  0  0
  3 30  1  0  0  0
  4  5  1  0  0  0
  5  6  1  0  0  0
  5 31  1  0  0  0
  5 32  1  0  0  0
  6 33  1  0  0  0
  6 34  1  0  0  0
  7  9  2  0  0  0
  7 10  1  0  0  0
  7  8  2  0  0  0
 10 15  1  0  0  0
 10 11  2  0  0  0
 11 12  1  0  0  0
 11 35  1  0  0  0
 12 13  2  0  0  0
 12 36  1  0  0  0
 13 14  1  0  0  0
 13 16  1  0  0  0
 14 15  2  0  0  0
 14 37  1  0  0  0
 15 38  1  0  0  0
 16 21  1  0  0  0
 17 18  2  0  0  0
 17 19  1  0  0  0
 19 20  1  0  0  0
 19 39  1  0  0  0
 20 40  1  0  0  0
 21 22  2  0  0  0
 21 26  1  0  0  0
 22 23  1  0  0  0
 22 41  1  0  0  0
 23 24  2  0  0  0
 23 42  1  0  0  0
 24 25  1  0  0  0
 25 26  2  0  0  0
 25 43  1  0  0  0
 26 44  1  0  0  0
M  END
> <s_m_entry_id>
64325

> <s_m_entry_name>
dock_pv.275

> <s_m_Source_Path>
/home/csk/Desktop/cluster/DUD-E-result/mmp13

> <s_m_Source_File>
dock_pv.maegz

> <i_m_Source_File_Index>
275

> <chembl_id>
CHEMBL1801055

> <chembl_pref_name>
None

> <i_lp_mmshare_version>
53161

> <i_f3d_flags>
0

> <r_lp_tautomer_probability>
1

> <s_lp_Force_Field>
OPLS_2005

> <r_lp_Energy>
24.122719

> <b_lp_Chiralities_Consistent>
1

> <s_lp_Variant>
CHEMBL280_lig1737-1

> <s_i_glide_gridfile>
glide-grid_830c

> <i_i_glide_lignum>
2488

> <i_i_glide_rotatable_bonds>
7

> <r_i_docking_score>
-6.85285632843473

> <r_i_glide_ligand_efficiency>
-0.26357139724749

> <r_i_glide_ligand_efficiency_sa>
-0.780829227242319

> <r_i_glide_ligand_efficiency_ln>
-1.60937082267724

> <r_i_glide_gscore>
-6.85285632843473

> <r_i_glide_lipo>
-2.49455101832315

> <r_i_glide_hbond>
0

> <r_i_glide_metal>
0

> <r_i_glide_rewards>
-0.829085114158073

> <r_i_glide_evdw>
-43.1365661621094

> <r_i_glide_ecoul>
-13.9990158081055

> <r_i_glide_erotb>
0.812033154884473

> <r_i_glide_esite>
-0.0845726715166924

> <r_i_glide_emodel>
-56.4608372938418

> <r_i_glide_energy>
-57.1355819702148

> <r_i_glide_einternal>
13.4968338012695

> <i_i_glide_confnum>
34

> <i_i_glide_posenum>
28

> <r_i_glide_eff_state_penalty>
0

> <s_user_duplicate_titles>
CHEMBL280_lig1737

> <s_m_subgroup_title>
dock_pv

> <s_m_subgroupid>
dock_pv

> <b_m_subgroup_collapsed>
1

$$$$
CHEMBL280_lig785
                    3D
 Schrodinger Suite 2021-1.
 56 57  0  0  1  0            999 V2000
   -5.9066   28.8429   56.9621 S   0  0  0  0  0  0
   -4.2181   29.1631   56.5816 N   0  0  2  0  0  0
   -3.1612   28.2952   57.1576 C   0  0  1  0  0  0
   -2.8071   27.2058   56.1249 C   0  0  0  0  0  0
   -3.6817   30.5237   56.3266 C   0  0  0  0  0  0
   -2.0219   29.2952   57.4638 C   0  0  0  0  0  0
   -6.4818   27.9574   55.5172 C   0  0  0  0  0  0
   -2.6857   30.6723   57.4683 C   0  0  2  0  0  0
   -5.9390   27.9122   58.0991 O   0  0  0  0  0  0
   -6.6242   30.1217   57.0104 O   0  0  0  0  0  0
   -3.3826   30.9569   58.7304 N   0  0  0  0  0  0
   -3.6963   32.1969   59.1478 C   0  0  0  0  0  0
   -2.7390   27.4400   54.9100 O   0  0  0  0  0  0
   -2.5563   25.9928   56.6270 N   0  0  0  0  0  0
   -3.2497   33.2139   58.6155 O   0  0  0  0  0  0
   -6.3670   26.5685   55.4324 C   0  0  0  0  0  0
   -7.0345   28.6775   54.4618 C   0  0  0  0  0  0
   -7.4197   26.6141   53.2462 C   0  0  0  0  0  0
   -7.5059   28.0043   53.3415 C   0  0  0  0  0  0
   -6.8240   25.9078   54.2917 C   0  0  0  0  0  0
   -2.3390   24.9700   55.7100 O   0  0  0  0  0  0
   -7.9086   25.8826   52.1775 O   0  0  0  0  0  0
   -4.6949   32.3018   60.3143 C   0  0  0  0  0  0
   -4.4618   33.4567   61.1236 O   0  0  0  0  0  0
   -8.5934   26.5220   51.0940 C   0  0  0  0  0  0
   -3.3506   33.3670   62.0082 C   0  0  0  0  0  0
   -7.6641   27.2692   50.1097 C   0  0  0  0  0  0
   -8.4337   27.9230   48.9435 C   0  0  0  0  0  0
   -7.5492   28.7550   47.9993 C   0  0  0  0  0  0
   -3.4918   27.7894   58.0667 H   0  0  0  0  0  0
   -4.4599   31.2806   56.2201 H   0  0  0  0  0  0
   -3.1390   30.5259   55.3806 H   0  0  0  0  0  0
   -1.2380   29.2640   56.7034 H   0  0  0  0  0  0
   -1.5213   29.0903   58.4115 H   0  0  0  0  0  0
   -1.9184   31.4289   57.2803 H   0  0  0  0  0  0
   -3.8567   30.1786   59.1627 H   0  0  0  0  0  0
   -2.6829   25.6680   57.5799 H   0  0  0  0  0  0
   -5.9341   25.9992   56.2428 H   0  0  0  0  0  0
   -7.1069   29.7545   54.5101 H   0  0  0  0  0  0
   -7.9390   28.5700   52.5439 H   0  0  0  0  0  0
   -6.7390   24.8335   54.2220 H   0  0  0  0  0  0
   -3.1699   24.4441   55.7604 H   0  0  0  0  0  0
   -4.7390   31.3900   60.9098 H   0  0  0  0  0  0
   -5.6809   32.4209   59.8658 H   0  0  0  0  0  0
   -9.1147   25.7324   50.5511 H   0  0  0  0  0  0
   -9.3772   27.1790   51.4701 H   0  0  0  0  0  0
   -3.2623   34.2953   62.5723 H   0  0  0  0  0  0
   -2.4120   33.2139   61.4740 H   0  0  0  0  0  0
   -3.4826   32.5557   62.7250 H   0  0  0  0  0  0
   -7.0755   28.0304   50.6202 H   0  0  0  0  0  0
   -6.9413   26.5626   49.7100 H   0  0  0  0  0  0
   -8.9407   27.1491   48.3653 H   0  0  0  0  0  0
   -9.2180   28.5701   49.3376 H   0  0  0  0  0  0
   -8.1340   29.1551   47.1707 H   0  0  0  0  0  0
   -7.0945   29.6023   48.5100 H   0  0  0  0  0  0
   -6.7390   28.1700   47.5697 H   0  0  0  0  0  0
  1  2  1  0  0  0
  1  7  1  0  0  0
  1  9  2  0  0  0
  1 10  2  0  0  0
  2  3  1  0  0  0
  2  5  1  0  0  0
  3  4  1  0  0  0
  3  6  1  0  0  0
  3 30  1  0  0  0
  4 13  2  0  0  0
  4 14  1  0  0  0
  5  8  1  0  0  0
  5 31  1  0  0  0
  5 32  1  0  0  0
  6  8  1  0  0  0
  6 33  1  0  0  0
  6 34  1  0  0  0
  7 16  1  0  0  0
  7 17  2  0  0  0
  8 11  1  0  0  0
  8 35  1  0  0  0
 11 12  1  0  0  0
 11 36  1  0  0  0
 12 15  2  0  0  0
 12 23  1  0  0  0
 14 21  1  0  0  0
 14 37  1  0  0  0
 16 20  2  0  0  0
 16 38  1  0  0  0
 17 19  1  0  0  0
 17 39  1  0  0  0
 18 19  2  0  0  0
 18 22  1  0  0  0
 18 20  1  0  0  0
 19 40  1  0  0  0
 20 41  1  0  0  0
 21 42  1  0  0  0
 22 25  1  0  0  0
 23 24  1  0  0  0
 23 43  1  0  0  0
 23 44  1  0  0  0
 24 26  1  0  0  0
 25 27  1  0  0  0
 25 45  1  0  0  0
 25 46  1  0  0  0
 26 47  1  0  0  0
 26 48  1  0  0  0
 26 49  1  0  0  0
 27 28  1  0  0  0
 27 50  1  0  0  0
 27 51  1  0  0  0
 28 29  1  0  0  0
 28 52  1  0  0  0
 28 53  1  0  0  0
 29 54  1  0  0  0
 29 55  1  0  0  0
 29 56  1  0  0  0
M  END
> <s_m_entry_id>
64326

> <s_m_entry_name>
dock_pv.276

> <s_m_Source_Path>
/home/csk/Desktop/cluster/DUD-E-result/mmp13

> <s_m_Source_File>
dock_pv.maegz

> <i_m_Source_File_Index>
276

> <chembl_id>
CHEMBL149983

> <chembl_pref_name>
None

> <i_lp_mmshare_version>
53161

> <i_f3d_flags>
0

> <r_lp_tautomer_probability>
1

> <s_lp_Force_Field>
OPLS_2005

> <r_lp_Energy>
22.738487

> <b_lp_Chiralities_Consistent>
1

> <s_lp_Variant>
CHEMBL280_lig785-1

> <s_i_glide_gridfile>
glide-grid_830c

> <i_i_glide_lignum>
1234

> <i_i_glide_rotatable_bonds>
13

> <r_i_docking_score>
-6.8408751266825

> <r_i_glide_ligand_efficiency>
-0.235892245747672

> <r_i_glide_ligand_efficiency_sa>
-0.724735714845928

> <r_i_glide_ligand_efficiency_ln>
-1.56638693438445

> <r_i_glide_gscore>
-6.8408751266825

> <r_i_glide_lipo>
-2.85725289102171

> <r_i_glide_hbond>
-0.107506064604592

> <r_i_glide_metal>
0

> <r_i_glide_rewards>
-0.442529556190002

> <r_i_glide_evdw>
-39.8253898620605

> <r_i_glide_ecoul>
-15.398063659668

> <r_i_glide_erotb>
1.07735124214583

> <r_i_glide_esite>
-0.209958814958802

> <r_i_glide_emodel>
-80.8462339735447

> <r_i_glide_energy>
-55.2234535217285

> <r_i_glide_einternal>
7.56671190261841

> <i_i_glide_confnum>
2

> <i_i_glide_posenum>
14

> <r_i_glide_eff_state_penalty>
0

> <s_user_duplicate_titles>
CHEMBL280_lig785,243741

> <s_m_subgroup_title>
dock_pv

> <s_m_subgroupid>
dock_pv

> <b_m_subgroup_collapsed>
1

$$$$
CHEMBL280_lig1427
                    3D
 Schrodinger Suite 2021-1.
 45 46  0  0  1  0            999 V2000
   -6.6947   26.4794   55.4706 C   0  0  0  0  0  0
   -7.1672   26.2540   54.1781 C   0  0  0  0  0  0
   -7.2207   27.2967   53.2462 C   0  0  0  0  0  0
   -6.7761   28.5624   53.6353 C   0  0  0  0  0  0
   -6.3273   28.8047   54.9244 C   0  0  0  0  0  0
   -6.2779   27.7616   55.8404 C   0  0  0  0  0  0
   -5.5390   28.0675   57.4429 S   0  0  0  0  0  0
   -3.8095   27.8404   57.1749 N   0  0  1  0  0  0
   -3.4897   26.5821   56.5088 C   0  0  0  0  0  0
   -2.0453   26.1542   56.7064 C   0  0  0  0  0  0
   -1.4366   25.7700   55.7100 O   0  0  0  0  0  0
   -1.5390   26.1700   57.9518 N   0  0  0  0  0  0
   -0.2088   25.7689   58.1386 O   0  0  0  0  0  0
   -3.3127   28.9299   56.3932 O   0  0  0  0  0  0
   -2.7449   29.9642   57.2072 C   0  0  0  0  0  0
   -2.3390   31.1107   56.2709 C   0  0  0  0  0  0
   -1.5423   29.4923   58.0497 C   0  0  0  0  0  0
   -5.9390   26.9700   58.3226 O   0  0  0  0  0  0
   -5.8050   29.4618   57.8128 O   0  0  0  0  0  0
   -7.7619   27.0944   51.8714 C   0  0  0  0  0  0
   -8.8747   26.2776   51.6536 C   0  0  0  0  0  0
   -9.4470   26.1700   50.3892 C   0  0  0  0  0  0
   -8.9037   26.8818   49.3246 C   0  0  0  0  0  0
   -7.7811   27.6800   49.5144 C   0  0  0  0  0  0
   -7.2076   27.7700   50.7787 C   0  0  0  0  0  0
   -6.6283   25.6532   56.1657 H   0  0  0  0  0  0
   -7.4742   25.2595   53.8926 H   0  0  0  0  0  0
   -6.7787   29.3700   52.9263 H   0  0  0  0  0  0
   -5.9729   29.7898   55.1943 H   0  0  0  0  0  0
   -3.7331   26.6264   55.4461 H   0  0  0  0  0  0
   -4.0976   25.7700   56.9100 H   0  0  0  0  0  0
   -2.0068   26.4479   58.8047 H   0  0  0  0  0  0
    0.2633   26.5897   58.3080 H   0  0  0  0  0  0
   -3.5025   30.3541   57.8880 H   0  0  0  0  0  0
   -1.9265   31.9511   56.8299 H   0  0  0  0  0  0
   -1.5826   30.7873   55.5560 H   0  0  0  0  0  0
   -3.1949   31.4866   55.7100 H   0  0  0  0  0  0
   -1.0750   30.3294   58.5692 H   0  0  0  0  0  0
   -1.8481   28.7815   58.8168 H   0  0  0  0  0  0
   -0.7797   29.0207   57.4291 H   0  0  0  0  0  0
   -9.3379   25.7700   52.4826 H   0  0  0  0  0  0
  -10.3188   25.5519   50.2393 H   0  0  0  0  0  0
   -9.3505   26.8094   48.3439 H   0  0  0  0  0  0
   -7.3482   28.2239   48.6867 H   0  0  0  0  0  0
   -6.3390   28.3974   50.9100 H   0  0  0  0  0  0
  1  6  1  0  0  0
  1  2  2  0  0  0
  1 26  1  0  0  0
  2  3  1  0  0  0
  2 27  1  0  0  0
  3  4  2  0  0  0
  3 20  1  0  0  0
  4  5  1  0  0  0
  4 28  1  0  0  0
  5  6  2  0  0  0
  5 29  1  0  0  0
  6  7  1  0  0  0
  7  8  1  0  0  0
  7 18  2  0  0  0
  7 19  2  0  0  0
  8 14  1  0  0  0
  8  9  1  0  0  0
  9 10  1  0  0  0
  9 30  1  0  0  0
  9 31  1  0  0  0
 10 11  2  0  0  0
 10 12  1  0  0  0
 12 13  1  0  0  0
 12 32  1  0  0  0
 13 33  1  0  0  0
 14 15  1  0  0  0
 15 16  1  0  0  0
 15 17  1  0  0  0
 15 34  1  0  0  0
 16 35  1  0  0  0
 16 36  1  0  0  0
 16 37  1  0  0  0
 17 38  1  0  0  0
 17 39  1  0  0  0
 17 40  1  0  0  0
 20 21  2  0  0  0
 20 25  1  0  0  0
 21 22  1  0  0  0
 21 41  1  0  0  0
 22 23  2  0  0  0
 22 42  1  0  0  0
 23 24  1  0  0  0
 23 43  1  0  0  0
 24 25  2  0  0  0
 24 44  1  0  0  0
 25 45  1  0  0  0
M  END
> <s_m_entry_id>
64327

> <s_m_entry_name>
dock_pv.277

> <s_m_Source_Path>
/home/csk/Desktop/cluster/DUD-E-result/mmp13

> <s_m_Source_File>
dock_pv.maegz

> <i_m_Source_File_Index>
277

> <chembl_id>
CHEMBL181244

> <chembl_pref_name>
None

> <i_lp_mmshare_version>
53161

> <i_f3d_flags>
0

> <r_lp_tautomer_probability>
1

> <s_lp_Force_Field>
OPLS_2005

> <r_lp_Energy>
21.67621

> <b_lp_Chiralities_Consistent>
1

> <s_lp_Variant>
CHEMBL280_lig1427-1

> <s_i_glide_gridfile>
glide-grid_830c

> <i_i_glide_lignum>
2154

> <i_i_glide_rotatable_bonds>
9

> <r_i_docking_score>
-6.84076717456591

> <r_i_glide_ligand_efficiency>
-0.273630686982636

> <r_i_glide_ligand_efficiency_sa>
-0.800100981598126

> <r_i_glide_ligand_efficiency_ln>
-1.62146682162176

> <r_i_glide_gscore>
-6.84076717456591

> <r_i_glide_lipo>
-3.04664814850895

> <r_i_glide_hbond>
-0.0547141261217827

> <r_i_glide_metal>
0

> <r_i_glide_rewards>
-0.524552221368223

> <r_i_glide_evdw>
-40.9452514648438

> <r_i_glide_ecoul>
-13.2085981369019

> <r_i_glide_erotb>
1.01334463940732

> <r_i_glide_esite>
-0.199645024196806

> <r_i_glide_emodel>
-74.6729381357914

> <r_i_glide_energy>
-54.1538496017456

> <r_i_glide_einternal>
4.70499181747437

> <i_i_glide_confnum>
1

> <i_i_glide_posenum>
325

> <r_i_glide_eff_state_penalty>
0

> <s_user_duplicate_titles>
CHEMBL280_lig1427

> <s_m_subgroup_title>
dock_pv

> <s_m_subgroupid>
dock_pv

> <b_m_subgroup_collapsed>
1

$$$$
CHEMBL280_lig2072
                    3D
 Schrodinger Suite 2021-1.
 52 55  0  0  1  0            999 V2000
   -5.2553   26.6179   55.7768 N   0  0  0  0  0  0
   -4.7207   27.8082   56.2790 C   0  0  0  0  0  0
   -5.2918   28.9591   56.1464 N   0  0  0  0  0  0
   -6.4708   29.1378   55.4215 C   0  0  0  0  0  0
   -6.8852   27.9339   54.6040 C   0  0  0  0  0  0
   -7.7661   28.0790   53.5343 C   0  0  0  0  0  0
   -8.0276   27.0328   52.6734 C   0  0  0  0  0  0
   -7.5433   25.7724   53.0060 C   0  0  0  0  0  0
   -6.7363   25.5781   54.1260 C   0  0  0  0  0  0
   -6.3230   26.6807   54.8680 C   0  0  0  0  0  0
   -3.3727   27.7840   56.8865 C   0  0  0  0  0  0
   -2.9513   26.8524   57.5741 O   0  0  0  0  0  0
   -2.6027   28.8428   56.5489 N   0  0  0  0  0  0
   -8.7450   27.3465   51.5419 O   0  0  0  0  0  0
   -8.8256   26.4252   50.4565 C   0  0  0  0  0  0
   -8.9271   27.2144   49.1618 C   0  0  0  0  0  0
   -7.9518   28.1692   48.8631 C   0  0  0  0  0  0
   -8.0187   28.8856   47.6729 C   0  0  0  0  0  0
   -9.0584   28.6408   46.7793 C   0  0  0  0  0  0
  -10.0345   27.6891   47.0689 C   0  0  0  0  0  0
   -9.9694   26.9741   48.2633 C   0  0  0  0  0  0
   -7.1523   30.1618   55.3872 O   0  0  0  0  0  0
   -1.2673   29.1684   57.0471 C   0  0  0  0  0  0
   -1.2318   30.2101   58.1690 C   0  0  0  0  0  0
   -2.3959   30.8158   58.6652 C   0  0  0  0  0  0
   -2.3371   31.7774   59.6878 C   0  0  0  0  0  0
   -1.0904   32.1226   60.2116 C   0  0  0  0  0  0
    0.0740   31.5302   59.7282 C   0  0  0  0  0  0
    0.0027   30.5777   58.7131 C   0  0  0  0  0  0
   -3.4372   32.4131   60.2260 O   0  0  0  0  0  0
   -4.7347   32.0946   59.7331 C   0  0  0  0  0  0
   -4.8289   25.7123   55.9668 H   0  0  0  0  0  0
   -8.2810   28.9875   53.3105 H   0  0  0  0  0  0
   -7.8019   24.9701   52.3614 H   0  0  0  0  0  0
   -6.3398   24.5978   54.3428 H   0  0  0  0  0  0
   -3.0537   29.5554   55.9886 H   0  0  0  0  0  0
   -7.9453   25.7896   50.3635 H   0  0  0  0  0  0
   -9.6926   25.7756   50.5960 H   0  0  0  0  0  0
   -7.1403   28.3612   49.5526 H   0  0  0  0  0  0
   -7.2631   29.6215   47.4413 H   0  0  0  0  0  0
   -9.1024   29.1940   45.8529 H   0  0  0  0  0  0
  -10.8377   27.5077   46.3707 H   0  0  0  0  0  0
  -10.7271   26.2365   48.4833 H   0  0  0  0  0  0
   -0.6921   29.5481   56.1978 H   0  0  0  0  0  0
   -0.7471   28.2734   57.3978 H   0  0  0  0  0  0
   -3.3534   30.5373   58.2525 H   0  0  0  0  0  0
   -1.0297   32.8566   61.0016 H   0  0  0  0  0  0
    1.0321   31.8081   60.1419 H   0  0  0  0  0  0
    0.9138   30.1315   58.3438 H   0  0  0  0  0  0
   -5.4798   32.6521   60.2988 H   0  0  0  0  0  0
   -4.8433   32.3700   58.6852 H   0  0  0  0  0  0
   -4.9624   31.0346   59.8511 H   0  0  0  0  0  0
  1 10  1  0  0  0
  1 32  1  0  0  0
  1  2  1  0  0  0
  2 11  1  0  0  0
  2  3  2  0  0  0
  3  4  1  0  0  0
  4 22  2  0  0  0
  4  5  1  0  0  0
  5  6  1  0  0  0
  5 10  2  0  0  0
  6 33  1  0  0  0
  6  7  2  0  0  0
  7 14  1  0  0  0
  7  8  1  0  0  0
  8 34  1  0  0  0
  8  9  2  0  0  0
  9 35  1  0  0  0
  9 10  1  0  0  0
 11 12  2  0  0  0
 11 13  1  0  0  0
 13 23  1  0  0  0
 13 36  1  0  0  0
 14 15  1  0  0  0
 15 16  1  0  0  0
 15 37  1  0  0  0
 15 38  1  0  0  0
 16 17  1  0  0  0
 16 21  2  0  0  0
 17 18  2  0  0  0
 17 39  1  0  0  0
 18 19  1  0  0  0
 18 40  1  0  0  0
 19 20  2  0  0  0
 19 41  1  0  0  0
 20 21  1  0  0  0
 20 42  1  0  0  0
 21 43  1  0  0  0
 23 24  1  0  0  0
 23 44  1  0  0  0
 23 45  1  0  0  0
 24 25  1  0  0  0
 24 29  2  0  0  0
 25 26  2  0  0  0
 25 46  1  0  0  0
 26 27  1  0  0  0
 26 30  1  0  0  0
 27 28  2  0  0  0
 27 47  1  0  0  0
 28 29  1  0  0  0
 28 48  1  0  0  0
 29 49  1  0  0  0
 30 31  1  0  0  0
 31 50  1  0  0  0
 31 51  1  0  0  0
 31 52  1  0  0  0
M  END
> <s_m_entry_id>
64328

> <s_m_entry_name>
dock_pv.278

> <s_m_Source_Path>
/home/csk/Desktop/cluster/DUD-E-result/mmp13

> <s_m_Source_File>
dock_pv.maegz

> <i_m_Source_File_Index>
278

> <chembl_id>
CHEMBL3359064

> <chembl_pref_name>
None

> <i_lp_mmshare_version>
53161

> <i_f3d_flags>
0

> <r_lp_tautomer_probability>
0.116051

> <s_lp_Force_Field>
OPLS_2005

> <r_lp_Energy>
27.023464

> <b_lp_Chiralities_Consistent>
1

> <s_lp_Variant>
CHEMBL280_lig2072-2

> <s_i_glide_gridfile>
glide-grid_830c

> <i_i_glide_lignum>
2873

> <i_i_glide_rotatable_bonds>
8

> <r_i_docking_score>
-6.82432685156725

> <r_i_glide_ligand_efficiency>
-0.220139575857008

> <r_i_glide_ligand_efficiency_sa>
-0.69154220363127

> <r_i_glide_ligand_efficiency_ln>
-1.53909484552959

> <r_i_glide_gscore>
-6.82432685156725

> <r_i_glide_lipo>
-3.75709413545383

> <r_i_glide_hbond>
-0.113690341637113

> <r_i_glide_metal>
0

> <r_i_glide_rewards>
-0.784919272398893

> <r_i_glide_evdw>
-44.0159683227539

> <r_i_glide_ecoul>
-4.44548034667969

> <r_i_glide_erotb>
0.800894581435427

> <r_i_glide_esite>
-0.101897215373195

> <r_i_glide_emodel>
-54.1974930260673

> <r_i_glide_energy>
-48.4614486694336

> <r_i_glide_einternal>
13.6904783248901

> <i_i_glide_confnum>
10

> <i_i_glide_posenum>
8

> <r_i_glide_eff_state_penalty>
0

> <s_user_duplicate_titles>
CHEMBL280_lig2072

> <s_m_subgroup_title>
dock_pv

> <s_m_subgroupid>
dock_pv

> <b_m_subgroup_collapsed>
1

$$$$
CHEMBL280_lig1107
                    3D
 Schrodinger Suite 2021-1.
 41 42  0  0  1  0            999 V2000
   -7.3031   27.5636   53.8212 C   0  0  0  0  0  0
   -6.9785   28.8046   54.3662 C   0  0  0  0  0  0
   -6.3390   28.8973   55.5956 C   0  0  0  0  0  0
   -6.0066   27.7323   56.2812 C   0  0  0  0  0  0
   -6.3304   26.4804   55.7608 C   0  0  0  0  0  0
   -6.9730   26.3955   54.5273 C   0  0  0  0  0  0
   -7.9390   27.5877   52.5963 O   0  0  0  0  0  0
   -8.3120   26.3635   51.9753 C   0  0  0  0  0  0
   -9.0504   26.5852   50.7241 C   0  0  0  0  0  0
   -9.6465   26.7748   49.6755 C   0  0  0  0  0  0
  -10.3390   27.0137   48.4014 C   0  0  0  0  0  0
   -5.0597   27.8591   57.8340 S   0  0  1  0  0  0
   -3.4448   28.2833   57.0101 C   0  0  2  0  0  0
   -2.9269   27.1920   56.0683 C   0  0  0  0  0  0
   -2.7390   25.9724   56.5829 N   0  0  0  0  0  0
   -2.7390   27.4342   54.8748 O   0  0  0  0  0  0
   -2.3390   24.9700   55.7100 O   0  0  0  0  0  0
   -5.5554   29.1357   58.5100 O   0  0  0  0  0  0
   -2.3779   28.7439   58.0167 C   0  0  0  0  0  0
   -1.7327   27.8425   58.8783 C   0  0  0  0  0  0
   -0.7055   28.2782   59.7100 C   0  0  0  0  0  0
   -0.3390   29.6214   59.7100 C   0  0  0  0  0  0
   -0.9995   30.5345   58.8922 C   0  0  0  0  0  0
   -2.0167   30.0962   58.0486 C   0  0  0  0  0  0
   -7.2026   29.7067   53.8204 H   0  0  0  0  0  0
   -6.0763   29.8664   55.9959 H   0  0  0  0  0  0
   -6.0587   25.5768   56.2895 H   0  0  0  0  0  0
   -7.1911   25.4159   54.1305 H   0  0  0  0  0  0
   -8.9440   25.7700   52.6346 H   0  0  0  0  0  0
   -7.4272   25.7700   51.7507 H   0  0  0  0  0  0
  -10.4275   28.0858   48.2263 H   0  0  0  0  0  0
  -11.3343   26.5700   48.4303 H   0  0  0  0  0  0
   -9.7727   26.5700   47.5832 H   0  0  0  0  0  0
   -3.6729   29.1396   56.3730 H   0  0  0  0  0  0
   -2.9599   25.6389   57.5160 H   0  0  0  0  0  0
   -3.1046   24.3592   55.7100 H   0  0  0  0  0  0
   -2.0107   26.8008   58.9100 H   0  0  0  0  0  0
   -0.2014   27.5796   60.3617 H   0  0  0  0  0  0
    0.4538   29.9607   60.3607 H   0  0  0  0  0  0
   -0.7185   31.5774   58.9059 H   0  0  0  0  0  0
   -2.5101   30.8118   57.4066 H   0  0  0  0  0  0
  1  6  1  0  0  0
  1  2  2  0  0  0
  1  7  1  0  0  0
  2  3  1  0  0  0
  2 25  1  0  0  0
  3  4  2  0  0  0
  3 26  1  0  0  0
  4 12  1  0  0  0
  4  5  1  0  0  0
  5  6  2  0  0  0
  5 27  1  0  0  0
  6 28  1  0  0  0
  7  8  1  0  0  0
  8  9  1  0  0  0
  8 29  1  0  0  0
  8 30  1  0  0  0
  9 10  3  0  0  0
 10 11  1  0  0  0
 11 31  1  0  0  0
 11 32  1  0  0  0
 11 33  1  0  0  0
 12 13  1  0  0  0
 12 18  2  0  0  0
 13 14  1  0  0  0
 13 19  1  0  0  0
 13 34  1  0  0  0
 14 15  1  0  0  0
 14 16  2  0  0  0
 15 17  1  0  0  0
 15 35  1  0  0  0
 17 36  1  0  0  0
 19 20  2  0  0  0
 19 24  1  0  0  0
 20 21  1  0  0  0
 20 37  1  0  0  0
 21 22  2  0  0  0
 21 38  1  0  0  0
 22 23  1  0  0  0
 22 39  1  0  0  0
 23 24  2  0  0  0
 23 40  1  0  0  0
 24 41  1  0  0  0
M  END
> <s_m_entry_id>
64329

> <s_m_entry_name>
dock_pv.279

> <s_m_Source_Path>
/home/csk/Desktop/cluster/DUD-E-result/mmp13

> <s_m_Source_File>
dock_pv.maegz

> <i_m_Source_File_Index>
279

> <chembl_id>
CHEMBL2096854

> <chembl_pref_name>
None

> <i_lp_mmshare_version>
53161

> <i_f3d_flags>
0

> <r_lp_tautomer_probability>
1

> <s_lp_Force_Field>
OPLS_2005

> <r_lp_Energy>
26.895195

> <b_lp_Chiralities_Consistent>
1

> <s_lp_Variant>
CHEMBL280_lig1107-1

> <s_i_glide_gridfile>
glide-grid_830c

> <i_i_glide_lignum>
1784

> <i_i_glide_rotatable_bonds>
9

> <r_i_docking_score>
-6.81773278329362

> <r_i_glide_ligand_efficiency>
-0.284072199303901

> <r_i_glide_ligand_efficiency_sa>
-0.819406013896623

> <r_i_glide_ligand_efficiency_ln>
-1.63179630041431

> <r_i_glide_gscore>
-6.81773278329362

> <r_i_glide_lipo>
-2.80862818349576

> <r_i_glide_hbond>
-0.253312304286169

> <r_i_glide_metal>
0

> <r_i_glide_rewards>
-1.06774132264805

> <r_i_glide_evdw>
-36.7754516601562

> <r_i_glide_ecoul>
-12.9102277755737

> <r_i_glide_erotb>
1.28725577648024

> <r_i_glide_esite>
-0.2

> <r_i_glide_emodel>
-76.333095643337

> <r_i_glide_energy>
-49.68567943573

> <r_i_glide_einternal>
2.9976065158844

> <i_i_glide_confnum>
33

> <i_i_glide_posenum>
277

> <r_i_glide_eff_state_penalty>
0

> <s_user_duplicate_titles>
CHEMBL280_lig1107

> <s_m_subgroup_title>
dock_pv

> <s_m_subgroupid>
dock_pv

> <b_m_subgroup_collapsed>
1

$$$$
CHEMBL280_lig2182
                    3D
 Schrodinger Suite 2021-1.
 30 32  0  0  1  0            999 V2000
   -9.7745   26.7408   49.5786 S   0  0  0  0  0  0
   -7.0869   28.1232   53.7648 S   0  0  0  0  0  0
   -7.5808   27.5974   50.6020 N   0  0  0  0  0  0
   -7.9919   28.5697   48.5103 N   0  0  0  0  0  0
   -4.4243   28.1700   54.5691 N   0  0  0  0  0  0
   -5.5946   26.5699   55.4538 N   0  0  0  0  0  0
   -3.5418   27.4989   55.3091 N   0  0  0  0  0  0
   -8.0902   26.7808   51.5089 C   0  0  0  0  0  0
   -8.3277   27.7065   49.5302 C   0  0  0  0  0  0
   -9.2834   26.1704   51.1388 C   0  0  0  0  0  0
   -5.6615   27.6012   54.6536 C   0  0  0  0  0  0
   -7.3175   26.5929   52.7993 C   0  0  0  0  0  0
   -8.5682   28.8484   47.2581 C   0  0  0  0  0  0
   -4.3200   26.5700   55.8189 C   0  0  0  0  0  0
   -8.2532   30.0827   46.6835 C   0  0  0  0  0  0
   -9.3772   27.9494   46.5494 C   0  0  0  0  0  0
   -8.7402   30.4205   45.4236 C   0  0  0  0  0  0
   -9.8673   28.2868   45.2901 C   0  0  0  0  0  0
   -9.5465   29.5213   44.7325 C   0  0  0  0  0  0
   -7.2527   29.2261   48.7228 H   0  0  0  0  0  0
   -4.2150   29.0431   54.0952 H   0  0  0  0  0  0
   -9.8841   25.4601   51.6860 H   0  0  0  0  0  0
   -6.3393   26.1702   52.5801 H   0  0  0  0  0  0
   -7.8154   25.8683   53.4440 H   0  0  0  0  0  0
   -3.9529   25.8204   56.5094 H   0  0  0  0  0  0
   -7.6190   30.7857   47.2039 H   0  0  0  0  0  0
   -9.5990   26.9669   46.9290 H   0  0  0  0  0  0
   -8.4786   31.3691   44.9783 H   0  0  0  0  0  0
  -10.4771   27.5861   44.7389 H   0  0  0  0  0  0
   -9.9101   29.7782   43.7483 H   0  0  0  0  0  0
  1  9  1  0  0  0
  1 10  1  0  0  0
  2 11  1  0  0  0
  2 12  1  0  0  0
  3  8  1  0  0  0
  3  9  2  0  0  0
  4  9  1  0  0  0
  4 13  1  0  0  0
  4 20  1  0  0  0
  5  7  1  0  0  0
  5 21  1  0  0  0
  5 11  1  0  0  0
  6 11  2  0  0  0
  6 14  1  0  0  0
  7 14  2  0  0  0
  8 10  2  0  0  0
  8 12  1  0  0  0
 10 22  1  0  0  0
 12 23  1  0  0  0
 12 24  1  0  0  0
 13 15  2  0  0  0
 13 16  1  0  0  0
 14 25  1  0  0  0
 15 17  1  0  0  0
 15 26  1  0  0  0
 16 18  2  0  0  0
 16 27  1  0  0  0
 17 19  2  0  0  0
 17 28  1  0  0  0
 18 19  1  0  0  0
 18 29  1  0  0  0
 19 30  1  0  0  0
M  END
> <s_m_entry_id>
64330

> <s_m_entry_name>
dock_pv.280

> <s_m_Source_Path>
/home/csk/Desktop/cluster/DUD-E-result/mmp13

> <s_m_Source_File>
dock_pv.maegz

> <i_m_Source_File_Index>
280

> <chembl_id>
CHEMBL1511860

> <chembl_pref_name>
None

> <i_lp_mmshare_version>
53161

> <i_f3d_flags>
0

> <r_lp_tautomer_probability>
0.5726006379666

> <s_lp_Force_Field>
OPLS_2005

> <r_lp_Energy>
5.107982

> <b_lp_Chiralities_Consistent>
1

> <s_lp_Variant>
CHEMBL280_lig2182-1

> <s_i_glide_gridfile>
glide-grid_830c

> <i_i_glide_lignum>
3060

> <i_i_glide_rotatable_bonds>
5

> <r_i_docking_score>
-6.81482711362106

> <r_i_glide_ligand_efficiency>
-0.358675111243214

> <r_i_glide_ligand_efficiency_sa>
-0.957089257257555

> <r_i_glide_ligand_efficiency_ln>
-1.72770504236859

> <r_i_glide_gscore>
-6.81482711362106

> <r_i_glide_lipo>
-2.82255907809578

> <r_i_glide_hbond>
-0.351240977305253

> <r_i_glide_metal>
0

> <r_i_glide_rewards>
-1.436037

> <r_i_glide_evdw>
-46.4662284851074

> <r_i_glide_ecoul>
-5.21081161499023

> <r_i_glide_erotb>
1.08715305755887

> <r_i_glide_esite>
-0.187209949274994

> <r_i_glide_emodel>
-72.5799165601116

> <r_i_glide_energy>
-51.6770401000977

> <r_i_glide_einternal>
3.97759413719177

> <i_i_glide_confnum>
57

> <i_i_glide_posenum>
219

> <r_i_glide_eff_state_penalty>
0

> <s_user_duplicate_titles>
CHEMBL280_lig2182

> <s_m_subgroup_title>
dock_pv

> <s_m_subgroupid>
dock_pv

> <b_m_subgroup_collapsed>
1

$$$$
CHEMBL280_lig2655
                    3D
 Schrodinger Suite 2021-1.
 44 45  0  0  1  0            999 V2000
   -2.8720   28.6188   54.9100 N   0  0  0  0  0  0
   -3.4036   27.4669   55.3053 C   0  0  0  0  0  0
   -2.7390   26.4291   55.3100 O   0  0  0  0  0  0
   -4.8813   27.4807   55.7495 C   0  0  2  0  0  0
   -5.0764   26.9225   57.1814 C   0  0  0  0  0  0
   -4.2962   27.6446   58.3049 C   0  0  0  0  0  0
   -4.6053   29.1381   58.3844 C   0  0  0  0  0  0
   -3.7532   30.0202   58.3587 O   0  0  0  0  0  0
   -5.9390   29.3700   58.5100 O   0  0  0  0  0  0
   -5.6958   26.6705   54.8397 N   0  0  0  0  0  0
   -6.6420   27.1559   54.0153 C   0  0  0  0  0  0
   -6.9063   28.3541   53.9189 O   0  0  0  0  0  0
   -7.3981   26.1139   53.1811 C   0  0  0  0  0  0
   -8.7071   26.5712   52.4891 C   0  0  0  0  0  0
   -8.5628   26.9700   51.0400 C   0  0  0  0  0  0
   -7.4156   27.5756   50.6527 O   0  0  0  0  0  0
   -7.5390   27.9396   49.3108 N   0  0  0  0  0  0
   -8.7419   27.5693   48.9207 C   0  0  0  0  0  0
   -9.4198   26.9363   49.9640 C   0  0  0  0  0  0
   -9.2491   27.8450   47.5377 C   0  0  0  0  0  0
  -10.3394   27.1219   47.0382 C   0  0  0  0  0  0
  -10.8227   27.3700   45.7557 C   0  0  0  0  0  0
  -10.2125   28.3394   44.9641 C   0  0  0  0  0  0
   -9.1280   29.0666   45.4468 C   0  0  0  0  0  0
   -8.6501   28.8223   46.7315 C   0  0  0  0  0  0
   -3.4478   29.4541   54.8607 H   0  0  0  0  0  0
   -1.8996   28.6823   54.6535 H   0  0  0  0  0  0
   -5.2400   28.5123   55.7349 H   0  0  0  0  0  0
   -4.8132   25.8641   57.1910 H   0  0  0  0  0  0
   -6.1394   26.9425   57.4269 H   0  0  0  0  0  0
   -3.2224   27.5152   58.1668 H   0  0  0  0  0  0
   -4.5290   27.1893   59.2676 H   0  0  0  0  0  0
   -6.1430   30.2992   58.6497 H   0  0  0  0  0  0
   -5.5390   25.6700   54.8921 H   0  0  0  0  0  0
   -6.7390   25.5783   52.5100 H   0  0  0  0  0  0
   -7.6976   25.3700   53.9141 H   0  0  0  0  0  0
   -9.4422   25.7700   52.5100 H   0  0  0  0  0  0
   -9.1390   27.4090   53.0357 H   0  0  0  0  0  0
  -10.4238   26.5417   49.9493 H   0  0  0  0  0  0
  -10.8179   26.3628   47.6389 H   0  0  0  0  0  0
  -11.6633   26.8095   45.3748 H   0  0  0  0  0  0
  -10.5791   28.5287   43.9657 H   0  0  0  0  0  0
   -8.6508   29.8123   44.8264 H   0  0  0  0  0  0
   -7.8038   29.3912   47.0909 H   0  0  0  0  0  0
  1  2  1  0  0  0
  1 26  1  0  0  0
  1 27  1  0  0  0
  2  3  2  0  0  0
  2  4  1  0  0  0
  4  5  1  0  0  0
  4 10  1  0  0  0
  4 28  1  0  0  0
  5  6  1  0  0  0
  5 29  1  0  0  0
  5 30  1  0  0  0
  6  7  1  0  0  0
  6 31  1  0  0  0
  6 32  1  0  0  0
  7  8  2  0  0  0
  7  9  1  0  0  0
  9 33  1  0  0  0
 10 11  1  0  0  0
 10 34  1  0  0  0
 11 12  2  0  0  0
 11 13  1  0  0  0
 13 14  1  0  0  0
 13 35  1  0  0  0
 13 36  1  0  0  0
 14 15  1  0  0  0
 14 37  1  0  0  0
 14 38  1  0  0  0
 15 16  1  0  0  0
 15 19  2  0  0  0
 16 17  1  0  0  0
 17 18  2  0  0  0
 18 19  1  0  0  0
 18 20  1  0  0  0
 19 39  1  0  0  0
 20 21  2  0  0  0
 20 25  1  0  0  0
 21 22  1  0  0  0
 21 40  1  0  0  0
 22 23  2  0  0  0
 22 41  1  0  0  0
 23 24  1  0  0  0
 23 42  1  0  0  0
 24 25  2  0  0  0
 24 43  1  0  0  0
 25 44  1  0  0  0
M  END
> <s_m_entry_id>
64331

> <s_m_entry_name>
dock_pv.281

> <s_m_Source_Path>
/home/csk/Desktop/cluster/DUD-E-result/mmp13

> <s_m_Source_File>
dock_pv.maegz

> <i_m_Source_File_Index>
281

> <chembl_id>
CHEMBL3670700

> <chembl_pref_name>
None

> <i_lp_mmshare_version>
53161

> <i_f3d_flags>
0

> <r_lp_tautomer_probability>
1

> <s_lp_Force_Field>
OPLS_2005

> <r_lp_Energy>
3.488281

> <b_lp_Chiralities_Consistent>
1

> <s_lp_Variant>
CHEMBL280_lig2655-1

> <s_i_glide_gridfile>
glide-grid_830c

> <i_i_glide_lignum>
3784

> <i_i_glide_rotatable_bonds>
11

> <r_i_docking_score>
-6.80903410461724

> <r_i_glide_ligand_efficiency>
-0.27236136418469

> <r_i_glide_ligand_efficiency_sa>
-0.796389459225394

> <r_i_glide_ligand_efficiency_ln>
-1.61394513308055

> <r_i_glide_gscore>
-6.80903410461724

> <r_i_glide_lipo>
-2.96941052391624

> <r_i_glide_hbond>
-0.325404607734428

> <r_i_glide_metal>
0

> <r_i_glide_rewards>
-1.0544299560115

> <r_i_glide_evdw>
-46.76806640625

> <r_i_glide_ecoul>
-9.03367805480957

> <r_i_glide_erotb>
1.43366601157886

> <r_i_glide_esite>
-0.2

> <r_i_glide_emodel>
-79.3752577340924

> <r_i_glide_energy>
-55.8017444610596

> <r_i_glide_einternal>
6.04388999938965

> <i_i_glide_confnum>
41

> <i_i_glide_posenum>
266

> <r_i_glide_eff_state_penalty>
0

> <s_user_duplicate_titles>
CHEMBL280_lig2655

> <s_m_subgroup_title>
dock_pv

> <s_m_subgroupid>
dock_pv

> <b_m_subgroup_collapsed>
1

$$$$
CHEMBL280_lig1692
                    3D
 Schrodinger Suite 2021-1.
 43 44  0  0  1  0            999 V2000
   -7.6622   27.4752   53.6292 S   0  0  0  0  0  0
   -8.7389   26.9700   54.4776 O   0  0  0  0  0  0
   -7.2308   28.8736   53.7098 O   0  0  0  0  0  0
   -9.8989   26.7997   50.3197 C   0  0  0  0  0  0
   -9.0512   27.2754   49.1892 N   0  0  0  0  0  0
   -7.8715   28.0415   49.6626 C   0  0  0  0  0  0
   -7.1392   27.4087   50.8541 C   0  0  0  0  0  0
   -8.0834   27.1504   51.9299 N   0  0  0  0  0  0
   -9.0989   26.1784   51.5001 C   0  0  0  0  0  0
   -9.5913   27.5379   47.9215 C   0  0  0  0  0  0
  -10.6165   26.7345   47.3973 C   0  0  0  0  0  0
  -11.1385   26.9700   46.1253 C   0  0  0  0  0  0
  -10.6307   28.0027   45.3482 C   0  0  0  0  0  0
   -9.6039   28.8026   45.8316 C   0  0  0  0  0  0
   -9.0922   28.5720   47.1057 C   0  0  0  0  0  0
  -11.1383   28.2256   44.1157 F   0  0  0  0  0  0
   -6.1257   26.4545   54.0051 C   0  0  0  0  0  0
   -5.4789   26.7414   55.4076 C   0  0  1  0  0  0
   -4.0192   26.8684   55.3167 N   0  0  0  0  0  0
   -6.0470   27.9059   56.2495 C   0  0  0  0  0  0
   -3.1074   26.1700   56.0191 C   0  0  0  0  0  0
   -1.9148   26.1050   55.7100 O   0  0  0  0  0  0
   -3.5141   27.7700   54.3630 O   0  0  0  0  0  0
  -10.7145   26.1501   50.0167 H   0  0  0  0  0  0
  -10.3393   27.7277   50.6847 H   0  0  0  0  0  0
   -8.3227   28.9700   50.0002 H   0  0  0  0  0  0
   -7.1482   28.2280   48.8681 H   0  0  0  0  0  0
   -6.3367   28.0473   51.2232 H   0  0  0  0  0  0
   -6.7390   26.4581   50.5284 H   0  0  0  0  0  0
   -8.6256   25.2492   51.1822 H   0  0  0  0  0  0
   -9.7376   25.9440   52.3452 H   0  0  0  0  0  0
  -11.0116   25.9070   47.9634 H   0  0  0  0  0  0
  -11.9266   26.3494   45.7266 H   0  0  0  0  0  0
   -9.2062   29.6011   45.2220 H   0  0  0  0  0  0
   -8.3048   29.2293   47.4407 H   0  0  0  0  0  0
   -5.4604   26.6889   53.1809 H   0  0  0  0  0  0
   -6.3986   25.4048   53.8965 H   0  0  0  0  0  0
   -5.7104   25.8529   56.0033 H   0  0  0  0  0  0
   -7.1297   27.8413   56.3450 H   0  0  0  0  0  0
   -5.6571   27.8850   57.2678 H   0  0  0  0  0  0
   -5.8192   28.8801   55.8157 H   0  0  0  0  0  0
   -3.5721   25.5937   56.8382 H   0  0  0  0  0  0
   -3.8828   28.6191   54.6370 H   0  0  0  0  0  0
  1  2  2  0  0  0
  1  8  1  0  0  0
  1 17  1  0  0  0
  1  3  2  0  0  0
  4  9  1  0  0  0
  4  5  1  0  0  0
  4 24  1  0  0  0
  4 25  1  0  0  0
  5  6  1  0  0  0
  5 10  1  0  0  0
  6  7  1  0  0  0
  6 26  1  0  0  0
  6 27  1  0  0  0
  7  8  1  0  0  0
  7 28  1  0  0  0
  7 29  1  0  0  0
  8  9  1  0  0  0
  9 30  1  0  0  0
  9 31  1  0  0  0
 10 15  1  0  0  0
 10 11  2  0  0  0
 11 12  1  0  0  0
 11 32  1  0  0  0
 12 13  2  0  0  0
 12 33  1  0  0  0
 13 14  1  0  0  0
 13 16  1  0  0  0
 14 15  2  0  0  0
 14 34  1  0  0  0
 15 35  1  0  0  0
 17 18  1  0  0  0
 17 36  1  0  0  0
 17 37  1  0  0  0
 18 19  1  0  0  0
 18 20  1  0  0  0
 18 38  1  0  0  0
 19 21  1  0  0  0
 19 23  1  0  0  0
 20 39  1  0  0  0
 20 40  1  0  0  0
 20 41  1  0  0  0
 21 22  2  0  0  0
 21 42  1  0  0  0
 23 43  1  0  0  0
M  END
> <s_m_entry_id>
64332

> <s_m_entry_name>
dock_pv.282

> <s_m_Source_Path>
/home/csk/Desktop/cluster/DUD-E-result/mmp13

> <s_m_Source_File>
dock_pv.maegz

> <i_m_Source_File_Index>
282

> <chembl_id>
CHEMBL1784368

> <chembl_pref_name>
None

> <i_lp_mmshare_version>
53161

> <i_f3d_flags>
0

> <r_lp_tautomer_probability>
1

> <s_lp_Force_Field>
OPLS_2005

> <r_lp_Energy>
36.457268

> <b_lp_Chiralities_Consistent>
1

> <s_lp_Variant>
CHEMBL280_lig1692-2

> <s_i_glide_gridfile>
glide-grid_830c

> <i_i_glide_lignum>
2439

> <i_i_glide_rotatable_bonds>
7

> <r_i_docking_score>
-6.80511380776468

> <r_i_glide_ligand_efficiency>
-0.295874513381073

> <r_i_glide_ligand_efficiency_sa>
-0.841427757904653

> <r_i_glide_ligand_efficiency_ln>
-1.64553822407795

> <r_i_glide_gscore>
-6.80511380776468

> <r_i_glide_lipo>
-2.58210213111524

> <r_i_glide_hbond>
0

> <r_i_glide_metal>
0

> <r_i_glide_rewards>
-1.04012554977683

> <r_i_glide_evdw>
-41.4279670715332

> <r_i_glide_ecoul>
-11.3853445053101

> <r_i_glide_erotb>
0.796313902500561

> <r_i_glide_esite>
-0.2

> <r_i_glide_emodel>
-69.8411258138865

> <r_i_glide_energy>
-52.8133115768433

> <r_i_glide_einternal>
9.85078239440918

> <i_i_glide_confnum>
33

> <i_i_glide_posenum>
249

> <r_i_glide_eff_state_penalty>
0

> <s_user_duplicate_titles>
CHEMBL280_lig1692

> <s_m_subgroup_title>
dock_pv

> <s_m_subgroupid>
dock_pv

> <b_m_subgroup_collapsed>
1

$$$$
303898
                    3D
 Schrodinger Suite 2021-1.
 58 61  0  0  1  0            999 V2000
   -6.7957   31.7026   57.2552 C   0  0  0  0  0  0
   -5.2719   31.7668   57.1230 C   0  0  0  0  0  0
   -4.7142   30.9437   58.1388 O   0  0  0  0  0  0
   -3.3008   30.7963   58.1042 C   0  0  0  0  0  0
   -2.8025   29.8250   57.0009 C   0  0  0  0  0  0
   -3.5446   28.4458   56.8612 C   0  0  2  0  0  0
   -3.8150   27.7781   58.2263 C   0  0  0  0  0  0
   -4.9435   27.5914   58.6909 O   0  0  0  0  0  0
   -2.4890   27.3627   58.9127 C   0  0  2  0  0  0
   -1.5496   26.5570   57.9653 C   0  0  0  0  0  0
   -0.6725   25.7701   58.3172 O   0  0  0  0  0  0
   -1.7167   26.7911   56.6488 N   0  0  0  0  0  0
   -2.6542   27.5012   55.9769 C   0  0  0  0  0  0
   -2.7390   27.3700   54.7581 O   0  0  0  0  0  0
   -2.7390   26.5700   60.1100 N   0  0  0  0  0  0
   -4.7468   28.8693   56.1847 O   0  0  0  0  0  0
   -5.6596   28.0888   55.5030 C   0  0  0  0  0  0
   -5.7025   26.6890   55.4781 C   0  0  0  0  0  0
   -6.5913   26.0416   54.6193 C   0  0  0  0  0  0
   -7.4481   26.7822   53.8055 C   0  0  0  0  0  0
   -7.4784   28.1706   53.9208 C   0  0  0  0  0  0
   -6.5828   28.8166   54.7576 C   0  0  0  0  0  0
   -8.2641   26.1286   52.9090 O   0  0  0  0  0  0
   -8.3974   26.5632   51.6023 C   0  0  0  0  0  0
   -7.4410   27.3502   50.9489 C   0  0  0  0  0  0
   -7.6528   27.7701   49.6428 C   0  0  0  0  0  0
   -8.8227   27.4192   48.9613 C   0  0  0  0  0  0
   -9.7604   26.6045   49.6027 C   0  0  0  0  0  0
   -9.5392   26.1700   50.9079 C   0  0  0  0  0  0
   -9.0624   27.9019   47.5620 C   0  0  0  0  0  0
  -10.0102   27.4346   46.6315 C   0  0  0  0  0  0
   -9.8096   28.1685   45.4773 C   0  0  0  0  0  0
   -8.7844   29.0184   45.7845 N   0  0  0  0  0  0
   -8.3391   28.8729   47.0350 N   0  0  0  0  0  0
   -8.3725   29.6889   45.1494 H   0  0  0  0  0  0
   -7.2825   32.3117   56.4937 H   0  0  0  0  0  0
   -7.1537   30.6781   57.1477 H   0  0  0  0  0  0
   -7.1187   32.0624   58.2328 H   0  0  0  0  0  0
   -4.9763   31.4350   56.1268 H   0  0  0  0  0  0
   -4.9275   32.7953   57.2426 H   0  0  0  0  0  0
   -2.8142   31.7692   58.0131 H   0  0  0  0  0  0
   -3.0009   30.4163   59.0807 H   0  0  0  0  0  0
   -2.8508   30.3514   56.0445 H   0  0  0  0  0  0
   -1.7337   29.6802   57.1690 H   0  0  0  0  0  0
   -1.9390   28.2568   59.2076 H   0  0  0  0  0  0
   -1.0747   26.2506   56.0954 H   0  0  0  0  0  0
   -3.1128   27.1399   60.8561 H   0  0  0  0  0  0
   -3.4410   25.8649   59.8829 H   0  0  0  0  0  0
   -5.0349   26.0931   56.0814 H   0  0  0  0  0  0
   -6.5875   24.9629   54.5605 H   0  0  0  0  0  0
   -8.1539   28.7478   53.3112 H   0  0  0  0  0  0
   -6.5635   29.8959   54.7879 H   0  0  0  0  0  0
   -6.5238   27.6383   51.4404 H   0  0  0  0  0  0
   -6.8993   28.3816   49.1661 H   0  0  0  0  0  0
  -10.6669   26.3114   49.0958 H   0  0  0  0  0  0
  -10.2717   25.5433   51.3939 H   0  0  0  0  0  0
  -10.7359   26.6492   46.7792 H   0  0  0  0  0  0
  -10.2716   28.1644   44.5004 H   0  0  0  0  0  0
  1  2  1  0  0  0
  1 36  1  0  0  0
  1 37  1  0  0  0
  1 38  1  0  0  0
  2  3  1  0  0  0
  2 39  1  0  0  0
  2 40  1  0  0  0
  3  4  1  0  0  0
  4  5  1  0  0  0
  4 41  1  0  0  0
  4 42  1  0  0  0
  5  6  1  0  0  0
  5 43  1  0  0  0
  5 44  1  0  0  0
  6 13  1  0  0  0
  6  7  1  0  0  0
  6 16  1  0  0  0
  7  8  2  0  0  0
  7  9  1  0  0  0
  9 10  1  0  0  0
  9 15  1  0  0  0
  9 45  1  0  0  0
 10 11  2  0  0  0
 10 12  1  0  0  0
 12 13  1  0  0  0
 12 46  1  0  0  0
 13 14  2  0  0  0
 15 47  1  0  0  0
 15 48  1  0  0  0
 16 17  1  0  0  0
 17 22  1  0  0  0
 17 18  2  0  0  0
 18 19  1  0  0  0
 18 49  1  0  0  0
 19 20  2  0  0  0
 19 50  1  0  0  0
 20 21  1  0  0  0
 20 23  1  0  0  0
 21 22  2  0  0  0
 21 51  1  0  0  0
 22 52  1  0  0  0
 23 24  1  0  0  0
 24 29  1  0  0  0
 24 25  2  0  0  0
 25 26  1  0  0  0
 25 53  1  0  0  0
 26 27  2  0  0  0
 26 54  1  0  0  0
 27 28  1  0  0  0
 27 30  1  0  0  0
 28 29  2  0  0  0
 28 55  1  0  0  0
 29 56  1  0  0  0
 30 34  2  0  0  0
 30 31  1  0  0  0
 31 32  2  0  0  0
 31 57  1  0  0  0
 32 33  1  0  0  0
 32 58  1  0  0  0
 33 35  1  0  0  0
 33 34  1  0  0  0
M  END
> <s_m_entry_id>
65261

> <s_m_entry_name>
ligand_docking-pose.11

> <s_m_Source_Path>
/home/csk/Desktop/cluster/DUD-E-result/mmp13

> <s_m_Source_File>
ligand_docking-pose.sdf

> <i_m_Source_File_Index>
11

> <i_lp_mmshare_version>
53161

> <r_lp_tautomer_probability>
0.5

> <s_lp_Force_Field>
OPLS_2005

> <r_lp_Energy>
33.560995

> <b_lp_Chiralities_Consistent>
1

> <s_lp_Variant>
303898-3

> <s_i_glide_gridfile>
glide-grid_830c

> <i_i_glide_lignum>
1648

> <i_i_glide_rotatable_bonds>
9

> <r_i_docking_score>
-8.86549589848426

> <r_i_glide_ligand_efficiency>
-0.260749879367184

> <r_i_glide_ligand_efficiency_sa>
-0.844728385386671

> <r_i_glide_ligand_efficiency_ln>
-1.95863671271215

> <r_i_glide_gscore>
-8.86549589848426

> <r_i_glide_lipo>
-3.54170561041382

> <r_i_glide_hbond>
-0.792497567438041

> <r_i_glide_metal>
0

> <r_i_glide_rewards>
-0.439789249604466

> <r_i_glide_evdw>
-58.8817405700684

> <r_i_glide_ecoul>
-11.0857915878296

> <r_i_glide_erotb>
0.747578122153033

> <r_i_glide_esite>
-0.232125826503116

> <r_i_glide_emodel>
-102.572803012167

> <r_i_glide_energy>
-69.9675321578979

> <r_i_glide_einternal>
2.75202608108521

> <i_i_glide_confnum>
1

> <i_i_glide_posenum>
71

> <r_i_glide_eff_state_penalty>
0

> <i_f3d_flags>
0

> <s_user_duplicate_titles>
303898

> <s_m_subgroup_title>
dock_pv

> <s_m_subgroupid>
dock_pv1

> <b_m_subgroup_collapsed>
0

$$$$
304075
                    3D
 Schrodinger Suite 2021-1.
 57 60  0  0  1  0            999 V2000
   -3.7123   32.8107   60.2063 C   0  0  0  0  0  0
   -3.4140   33.0995   58.7255 C   0  0  0  0  0  0
   -2.7964   32.0026   58.0567 O   0  0  0  0  0  0
   -3.6142   30.8518   57.8989 C   0  0  0  0  0  0
   -2.8633   29.8232   57.0242 C   0  0  0  0  0  0
   -3.5783   28.4403   56.8535 C   0  0  2  0  0  0
   -3.8441   27.7702   58.2190 C   0  0  0  0  0  0
   -4.9712   27.5802   58.6841 O   0  0  0  0  0  0
   -2.5146   27.3654   58.9109 C   0  0  2  0  0  0
   -1.5694   26.5687   57.9647 C   0  0  0  0  0  0
   -0.7055   25.7693   58.3158 O   0  0  0  0  0  0
   -1.7209   26.8177   56.6489 N   0  0  0  0  0  0
   -2.6637   27.5139   55.9721 C   0  0  0  0  0  0
   -2.7393   27.3708   54.7550 O   0  0  0  0  0  0
   -2.7426   26.5700   60.1103 N   0  0  0  0  0  0
   -4.7764   28.8677   56.1700 O   0  0  0  0  0  0
   -5.6853   28.0900   55.4798 C   0  0  0  0  0  0
   -5.7137   26.6909   55.4362 C   0  0  0  0  0  0
   -6.6052   26.0431   54.5796 C   0  0  0  0  0  0
   -7.4814   26.7826   53.7850 C   0  0  0  0  0  0
   -7.5245   28.1702   53.9167 C   0  0  0  0  0  0
   -6.6258   28.8177   54.7532 C   0  0  0  0  0  0
   -8.3024   26.1320   52.8917 O   0  0  0  0  0  0
   -8.4473   26.5700   51.5869 C   0  0  0  0  0  0
   -9.5927   26.1701   50.9031 C   0  0  0  0  0  0
   -9.8243   26.5966   49.5981 C   0  0  0  0  0  0
   -8.8953   27.4093   48.9404 C   0  0  0  0  0  0
   -7.7239   27.7710   49.6159 C   0  0  0  0  0  0
   -7.5015   27.3633   50.9256 C   0  0  0  0  0  0
   -9.1560   27.8777   47.5351 C   0  0  0  0  0  0
  -10.1480   27.3942   46.6718 C   0  0  0  0  0  0
  -10.0622   28.1946   45.1329 S   0  0  0  0  0  0
   -8.7407   29.1084   45.7630 C   0  0  0  0  0  0
   -8.4046   28.8289   46.9947 N   0  0  0  0  0  0
   -4.0329   33.7187   60.7230 H   0  0  0  0  0  0
   -4.5071   32.0722   60.3242 H   0  0  0  0  0  0
   -2.8239   32.4346   60.7177 H   0  0  0  0  0  0
   -4.3182   33.4114   58.2014 H   0  0  0  0  0  0
   -2.7220   33.9383   58.6650 H   0  0  0  0  0  0
   -3.8413   30.4308   58.8784 H   0  0  0  0  0  0
   -4.5588   31.1253   57.4242 H   0  0  0  0  0  0
   -2.7198   30.2795   56.0412 H   0  0  0  0  0  0
   -1.8544   29.7057   57.4247 H   0  0  0  0  0  0
   -1.9768   28.2656   59.2065 H   0  0  0  0  0  0
   -1.0704   26.2829   56.1004 H   0  0  0  0  0  0
   -3.1155   27.1334   60.8611 H   0  0  0  0  0  0
   -3.4376   25.8553   59.8864 H   0  0  0  0  0  0
   -5.0349   26.0949   56.0265 H   0  0  0  0  0  0
   -6.5907   24.9654   54.5106 H   0  0  0  0  0  0
   -8.2169   28.7442   53.3250 H   0  0  0  0  0  0
   -6.6229   29.8967   54.8018 H   0  0  0  0  0  0
  -10.3177   25.5422   51.3976 H   0  0  0  0  0  0
  -10.7382   26.2997   49.1055 H   0  0  0  0  0  0
   -6.9744   28.3844   49.1354 H   0  0  0  0  0  0
   -6.5844   27.6631   51.4107 H   0  0  0  0  0  0
  -10.8890   26.6316   46.8485 H   0  0  0  0  0  0
   -8.2151   29.8351   45.1616 H   0  0  0  0  0  0
  1  2  1  0  0  0
  1 35  1  0  0  0
  1 36  1  0  0  0
  1 37  1  0  0  0
  2  3  1  0  0  0
  2 38  1  0  0  0
  2 39  1  0  0  0
  3  4  1  0  0  0
  4  5  1  0  0  0
  4 40  1  0  0  0
  4 41  1  0  0  0
  5  6  1  0  0  0
  5 42  1  0  0  0
  5 43  1  0  0  0
  6 13  1  0  0  0
  6  7  1  0  0  0
  6 16  1  0  0  0
  7  8  2  0  0  0
  7  9  1  0  0  0
  9 10  1  0  0  0
  9 15  1  0  0  0
  9 44  1  0  0  0
 10 11  2  0  0  0
 10 12  1  0  0  0
 12 13  1  0  0  0
 12 45  1  0  0  0
 13 14  2  0  0  0
 15 46  1  0  0  0
 15 47  1  0  0  0
 16 17  1  0  0  0
 17 22  1  0  0  0
 17 18  2  0  0  0
 18 19  1  0  0  0
 18 48  1  0  0  0
 19 20  2  0  0  0
 19 49  1  0  0  0
 20 21  1  0  0  0
 20 23  1  0  0  0
 21 22  2  0  0  0
 21 50  1  0  0  0
 22 51  1  0  0  0
 23 24  1  0  0  0
 24 29  1  0  0  0
 24 25  2  0  0  0
 25 26  1  0  0  0
 25 52  1  0  0  0
 26 27  2  0  0  0
 26 53  1  0  0  0
 27 28  1  0  0  0
 27 30  1  0  0  0
 28 29  2  0  0  0
 28 54  1  0  0  0
 29 55  1  0  0  0
 30 34  1  0  0  0
 30 31  2  0  0  0
 31 32  1  0  0  0
 31 56  1  0  0  0
 32 33  1  0  0  0
 33 34  2  0  0  0
 33 57  1  0  0  0
M  END
> <s_m_entry_id>
65262

> <s_m_entry_name>
ligand_docking-pose.12

> <s_m_Source_Path>
/home/csk/Desktop/cluster/DUD-E-result/mmp13

> <s_m_Source_File>
ligand_docking-pose.sdf

> <i_m_Source_File_Index>
12

> <i_lp_mmshare_version>
53161

> <r_lp_tautomer_probability>
1

> <s_lp_Force_Field>
OPLS_2005

> <r_lp_Energy>
33.379283

> <b_lp_Chiralities_Consistent>
1

> <s_lp_Variant>
304075-3

> <s_i_glide_gridfile>
glide-grid_830c

> <i_i_glide_lignum>
1668

> <i_i_glide_rotatable_bonds>
9

> <r_i_docking_score>
-8.85574038189457

> <r_i_glide_ligand_efficiency>
-0.260462952408664

> <r_i_glide_ligand_efficiency_sa>
-0.843798853426836

> <r_i_glide_ligand_efficiency_ln>
-1.95648144546452

> <r_i_glide_gscore>
-8.85574038189457

> <r_i_glide_lipo>
-3.56581155250494

> <r_i_glide_hbond>
-0.804342130122088

> <r_i_glide_metal>
0

> <r_i_glide_rewards>
-0.317176903515857

> <r_i_glide_evdw>
-58.8634452819824

> <r_i_glide_ecoul>
-11.4299955368042

> <r_i_glide_erotb>
0.699961123558015

> <r_i_glide_esite>
-0.210699324689944

> <r_i_glide_emodel>
-103.973940322154

> <r_i_glide_energy>
-70.2934408187866

> <r_i_glide_einternal>
5.14890336990356

> <i_i_glide_confnum>
4

> <i_i_glide_posenum>
9

> <r_i_glide_eff_state_penalty>
0

> <i_f3d_flags>
0

> <s_user_duplicate_titles>
304075

> <s_m_subgroup_title>
dock_pv

> <s_m_subgroupid>
dock_pv1

> <b_m_subgroup_collapsed>
0

$$$$
304061
                    3D
 Schrodinger Suite 2021-1.
 57 60  0  0  1  0            999 V2000
   -6.8084   31.6737   57.2957 C   0  0  0  0  0  0
   -5.2855   31.7554   57.1620 C   0  0  0  0  0  0
   -4.7142   30.9283   58.1662 O   0  0  0  0  0  0
   -3.3004   30.7915   58.1161 C   0  0  0  0  0  0
   -2.8078   29.8251   57.0056 C   0  0  0  0  0  0
   -3.5487   28.4453   56.8652 C   0  0  2  0  0  0
   -3.8148   27.7769   58.2309 C   0  0  0  0  0  0
   -4.9412   27.5938   58.7034 O   0  0  0  0  0  0
   -2.4874   27.3606   58.9118 C   0  0  2  0  0  0
   -1.5499   26.5559   57.9609 C   0  0  0  0  0  0
   -0.6711   25.7701   58.3108 O   0  0  0  0  0  0
   -1.7202   26.7920   56.6446 N   0  0  0  0  0  0
   -2.6591   27.5029   55.9768 C   0  0  0  0  0  0
   -2.7451   27.3716   54.7578 O   0  0  0  0  0  0
   -2.7381   26.5699   60.1100 N   0  0  0  0  0  0
   -4.7531   28.8681   56.1928 O   0  0  0  0  0  0
   -5.6601   28.0871   55.5049 C   0  0  0  0  0  0
   -6.5817   28.8148   54.7582 C   0  0  0  0  0  0
   -7.4708   28.1688   53.9149 C   0  0  0  0  0  0
   -7.4359   26.7806   53.7949 C   0  0  0  0  0  0
   -6.5816   26.0404   54.6112 C   0  0  0  0  0  0
   -5.6998   26.6874   55.4770 C   0  0  0  0  0  0
   -8.2475   26.1238   52.8966 O   0  0  0  0  0  0
   -8.3932   26.5642   51.5935 C   0  0  0  0  0  0
   -7.4458   27.3549   50.9332 C   0  0  0  0  0  0
   -7.6736   27.7804   49.6310 C   0  0  0  0  0  0
   -8.8510   27.4356   48.9587 C   0  0  0  0  0  0
   -9.7772   26.6115   49.6095 C   0  0  0  0  0  0
   -9.5400   26.1700   50.9093 C   0  0  0  0  0  0
   -9.0870   27.9635   47.5698 C   0  0  0  0  0  0
   -8.3645   28.9139   47.0188 N   0  0  0  0  0  0
   -8.7468   29.1883   45.7880 C   0  0  0  0  0  0
   -9.8176   28.4509   45.2976 C   0  0  0  0  0  0
  -10.3417   27.3420   46.5272 S   0  0  0  0  0  0
   -7.3008   32.2880   56.5428 H   0  0  0  0  0  0
   -7.1581   30.6479   57.1747 H   0  0  0  0  0  0
   -7.1342   32.0185   58.2774 H   0  0  0  0  0  0
   -4.9893   31.4371   56.1622 H   0  0  0  0  0  0
   -4.9523   32.7865   57.2924 H   0  0  0  0  0  0
   -2.8232   31.7680   58.0191 H   0  0  0  0  0  0
   -2.9857   30.4132   59.0882 H   0  0  0  0  0  0
   -2.8636   30.3547   56.0514 H   0  0  0  0  0  0
   -1.7373   29.6818   57.1654 H   0  0  0  0  0  0
   -1.9356   28.2542   59.2049 H   0  0  0  0  0  0
   -1.0812   26.2551   56.0830 H   0  0  0  0  0  0
   -3.0597   27.1494   60.8743 H   0  0  0  0  0  0
   -3.4772   25.8999   59.8994 H   0  0  0  0  0  0
   -6.5666   29.8944   54.7931 H   0  0  0  0  0  0
   -8.1482   28.7466   53.3090 H   0  0  0  0  0  0
   -6.5752   24.9616   54.5507 H   0  0  0  0  0  0
   -5.0345   26.0916   56.0826 H   0  0  0  0  0  0
   -6.5246   27.6431   51.4171 H   0  0  0  0  0  0
   -6.9254   28.3987   49.1544 H   0  0  0  0  0  0
  -10.6924   26.3166   49.1190 H   0  0  0  0  0  0
  -10.2659   25.5392   51.4001 H   0  0  0  0  0  0
   -8.2064   29.9443   45.2349 H   0  0  0  0  0  0
  -10.2889   28.4970   44.3267 H   0  0  0  0  0  0
  1  2  1  0  0  0
  1 35  1  0  0  0
  1 36  1  0  0  0
  1 37  1  0  0  0
  2  3  1  0  0  0
  2 38  1  0  0  0
  2 39  1  0  0  0
  3  4  1  0  0  0
  4  5  1  0  0  0
  4 40  1  0  0  0
  4 41  1  0  0  0
  5  6  1  0  0  0
  5 42  1  0  0  0
  5 43  1  0  0  0
  6 13  1  0  0  0
  6  7  1  0  0  0
  6 16  1  0  0  0
  7  8  2  0  0  0
  7  9  1  0  0  0
  9 10  1  0  0  0
  9 15  1  0  0  0
  9 44  1  0  0  0
 10 11  2  0  0  0
 10 12  1  0  0  0
 12 13  1  0  0  0
 12 45  1  0  0  0
 13 14  2  0  0  0
 15 46  1  0  0  0
 15 47  1  0  0  0
 16 17  1  0  0  0
 17 22  1  0  0  0
 17 18  2  0  0  0
 18 19  1  0  0  0
 18 48  1  0  0  0
 19 20  2  0  0  0
 19 49  1  0  0  0
 20 21  1  0  0  0
 20 23  1  0  0  0
 21 22  2  0  0  0
 21 50  1  0  0  0
 22 51  1  0  0  0
 23 24  1  0  0  0
 24 29  1  0  0  0
 24 25  2  0  0  0
 25 26  1  0  0  0
 25 52  1  0  0  0
 26 27  2  0  0  0
 26 53  1  0  0  0
 27 28  1  0  0  0
 27 30  1  0  0  0
 28 29  2  0  0  0
 28 54  1  0  0  0
 29 55  1  0  0  0
 30 34  1  0  0  0
 30 31  2  0  0  0
 31 32  1  0  0  0
 32 33  2  0  0  0
 32 56  1  0  0  0
 33 34  1  0  0  0
 33 57  1  0  0  0
M  END
> <s_m_entry_id>
65264

> <s_m_entry_name>
ligand_docking-pose.14

> <s_m_Source_Path>
/home/csk/Desktop/cluster/DUD-E-result/mmp13

> <s_m_Source_File>
ligand_docking-pose.sdf

> <i_m_Source_File_Index>
14

> <i_lp_mmshare_version>
53161

> <r_lp_tautomer_probability>
1

> <s_lp_Force_Field>
OPLS_2005

> <r_lp_Energy>
34.153227

> <b_lp_Chiralities_Consistent>
1

> <s_lp_Variant>
304061-3

> <s_i_glide_gridfile>
glide-grid_830c

> <i_i_glide_lignum>
1676

> <i_i_glide_rotatable_bonds>
9

> <r_i_docking_score>
-8.79950297152417

> <r_i_glide_ligand_efficiency>
-0.258808910927181

> <r_i_glide_ligand_efficiency_sa>
-0.838440401129922

> <r_i_glide_ligand_efficiency_ln>
-1.94405702410777

> <r_i_glide_gscore>
-8.79950297152417

> <r_i_glide_lipo>
-3.52318027169908

> <r_i_glide_hbond>
-0.798095910719378

> <r_i_glide_metal>
0

> <r_i_glide_rewards>
-0.323242553216992

> <r_i_glide_evdw>
-60.6697731018066

> <r_i_glide_ecoul>
-10.7239122390747

> <r_i_glide_erotb>
0.699961123558015

> <r_i_glide_esite>
-0.212869868495199

> <r_i_glide_emodel>
-97.9051223165138

> <r_i_glide_energy>
-71.3936853408813

> <r_i_glide_einternal>
9.13788604736328

> <i_i_glide_confnum>
1

> <i_i_glide_posenum>
19

> <r_i_glide_eff_state_penalty>
0

> <i_f3d_flags>
0

> <s_user_duplicate_titles>
304061

> <s_m_subgroup_title>
dock_pv

> <s_m_subgroupid>
dock_pv1

> <b_m_subgroup_collapsed>
0

$$$$
303892
                    3D
 Schrodinger Suite 2021-1.
 57 60  0  0  1  0            999 V2000
   -6.8067   31.6835   57.2679 C   0  0  0  0  0  0
   -5.2828   31.7572   57.1387 C   0  0  0  0  0  0
   -4.7199   30.9334   58.1510 O   0  0  0  0  0  0
   -3.3054   30.7928   58.1136 C   0  0  0  0  0  0
   -2.8054   29.8268   57.0065 C   0  0  0  0  0  0
   -3.5444   28.4461   56.8629 C   0  0  2  0  0  0
   -3.8158   27.7758   58.2262 C   0  0  0  0  0  0
   -4.9448   27.5851   58.6882 O   0  0  0  0  0  0
   -2.4894   27.3635   58.9137 C   0  0  2  0  0  0
   -1.5476   26.5593   57.9671 C   0  0  0  0  0  0
   -0.6727   25.7699   58.3197 O   0  0  0  0  0  0
   -1.7122   26.7962   56.6508 N   0  0  0  0  0  0
   -2.6517   27.5037   55.9787 C   0  0  0  0  0  0
   -2.7390   27.3700   54.7603 O   0  0  0  0  0  0
   -2.7389   26.5700   60.1097 N   0  0  0  0  0  0
   -4.7467   28.8679   56.1858 O   0  0  0  0  0  0
   -5.6532   28.0874   55.4961 C   0  0  0  0  0  0
   -5.6912   26.6878   55.4644 C   0  0  0  0  0  0
   -6.5728   26.0415   54.5977 C   0  0  0  0  0  0
   -7.4294   26.7819   53.7839 C   0  0  0  0  0  0
   -7.4649   28.1698   53.9066 C   0  0  0  0  0  0
   -6.5758   28.8151   54.7505 C   0  0  0  0  0  0
   -8.2448   26.1249   52.8892 O   0  0  0  0  0  0
   -8.3974   26.5639   51.5862 C   0  0  0  0  0  0
   -9.5504   26.1710   50.9097 C   0  0  0  0  0  0
   -9.7949   26.6078   49.6104 C   0  0  0  0  0  0
   -8.8655   27.4214   48.9612 C   0  0  0  0  0  0
   -7.6825   27.7709   49.6148 C   0  0  0  0  0  0
   -7.4503   27.3507   50.9184 C   0  0  0  0  0  0
   -9.1403   27.9113   47.5818 C   0  0  0  0  0  0
  -10.1769   27.7704   46.6694 C   0  0  0  0  0  0
   -9.9243   28.4237   45.5500 N   0  0  0  0  0  0
   -8.7515   28.9714   45.7636 C   0  0  0  0  0  0
   -8.2189   28.7036   46.9817 O   0  0  0  0  0  0
   -7.2946   32.2911   56.5062 H   0  0  0  0  0  0
   -7.1578   30.6572   57.1580 H   0  0  0  0  0  0
   -7.1340   32.0403   58.2454 H   0  0  0  0  0  0
   -4.9840   31.4302   56.1421 H   0  0  0  0  0  0
   -4.9446   32.7871   57.2612 H   0  0  0  0  0  0
   -2.8232   31.7683   58.0246 H   0  0  0  0  0  0
   -3.0015   30.4111   59.0884 H   0  0  0  0  0  0
   -2.8563   30.3563   56.0518 H   0  0  0  0  0  0
   -1.7361   29.6845   57.1731 H   0  0  0  0  0  0
   -1.9415   28.2584   59.2098 H   0  0  0  0  0  0
   -1.0695   26.2571   56.0971 H   0  0  0  0  0  0
   -3.1105   27.1393   60.8572 H   0  0  0  0  0  0
   -3.4418   25.8655   59.8837 H   0  0  0  0  0  0
   -5.0256   26.0917   56.0695 H   0  0  0  0  0  0
   -6.5652   24.9631   54.5354 H   0  0  0  0  0  0
   -8.1463   28.7488   53.3065 H   0  0  0  0  0  0
   -6.5623   29.8945   54.7882 H   0  0  0  0  0  0
  -10.2740   25.5430   51.4073 H   0  0  0  0  0  0
  -10.7085   26.3188   49.1128 H   0  0  0  0  0  0
   -6.9420   28.3861   49.1224 H   0  0  0  0  0  0
   -6.5263   27.6383   51.3977 H   0  0  0  0  0  0
  -11.0898   27.2132   46.8154 H   0  0  0  0  0  0
   -8.1510   29.5861   45.1077 H   0  0  0  0  0  0
  1  2  1  0  0  0
  1 35  1  0  0  0
  1 36  1  0  0  0
  1 37  1  0  0  0
  2  3  1  0  0  0
  2 38  1  0  0  0
  2 39  1  0  0  0
  3  4  1  0  0  0
  4  5  1  0  0  0
  4 40  1  0  0  0
  4 41  1  0  0  0
  5  6  1  0  0  0
  5 42  1  0  0  0
  5 43  1  0  0  0
  6 13  1  0  0  0
  6  7  1  0  0  0
  6 16  1  0  0  0
  7  8  2  0  0  0
  7  9  1  0  0  0
  9 10  1  0  0  0
  9 15  1  0  0  0
  9 44  1  0  0  0
 10 11  2  0  0  0
 10 12  1  0  0  0
 12 13  1  0  0  0
 12 45  1  0  0  0
 13 14  2  0  0  0
 15 46  1  0  0  0
 15 47  1  0  0  0
 16 17  1  0  0  0
 17 22  1  0  0  0
 17 18  2  0  0  0
 18 19  1  0  0  0
 18 48  1  0  0  0
 19 20  2  0  0  0
 19 49  1  0  0  0
 20 21  1  0  0  0
 20 23  1  0  0  0
 21 22  2  0  0  0
 21 50  1  0  0  0
 22 51  1  0  0  0
 23 24  1  0  0  0
 24 29  1  0  0  0
 24 25  2  0  0  0
 25 26  1  0  0  0
 25 52  1  0  0  0
 26 27  2  0  0  0
 26 53  1  0  0  0
 27 28  1  0  0  0
 27 30  1  0  0  0
 28 29  2  0  0  0
 28 54  1  0  0  0
 29 55  1  0  0  0
 30 34  1  0  0  0
 30 31  2  0  0  0
 31 32  1  0  0  0
 31 56  1  0  0  0
 32 33  2  0  0  0
 33 34  1  0  0  0
 33 57  1  0  0  0
M  END
> <s_m_entry_id>
65267

> <s_m_entry_name>
ligand_docking-pose.17

> <s_m_Source_Path>
/home/csk/Desktop/cluster/DUD-E-result/mmp13

> <s_m_Source_File>
ligand_docking-pose.sdf

> <i_m_Source_File_Index>
17

> <i_lp_mmshare_version>
53161

> <r_lp_tautomer_probability>
1

> <s_lp_Force_Field>
OPLS_2005

> <r_lp_Energy>
33.658551

> <b_lp_Chiralities_Consistent>
1

> <s_lp_Variant>
303892-3

> <s_i_glide_gridfile>
glide-grid_830c

> <i_i_glide_lignum>
1656

> <i_i_glide_rotatable_bonds>
9

> <r_i_docking_score>
-8.62009421665453

> <r_i_glide_ligand_efficiency>
-0.25353218284278

> <r_i_glide_ligand_efficiency_sa>
-0.821345850575658

> <r_i_glide_ligand_efficiency_ln>
-1.90442059791194

> <r_i_glide_gscore>
-8.62009421665453

> <r_i_glide_lipo>
-3.38522246134576

> <r_i_glide_hbond>
-0.791583719516617

> <r_i_glide_metal>
0

> <r_i_glide_rewards>
-0.433667093669795

> <r_i_glide_evdw>
-57.9771995544434

> <r_i_glide_ecoul>
-10.9636526107788

> <r_i_glide_erotb>
0.744697298585585

> <r_i_glide_esite>
-0.210910371368959

> <r_i_glide_emodel>
-101.159783889113

> <r_i_glide_energy>
-68.9408521652222

> <r_i_glide_einternal>
3.09548783302307

> <i_i_glide_confnum>
2

> <i_i_glide_posenum>
12

> <r_i_glide_eff_state_penalty>
0

> <i_f3d_flags>
0

> <s_user_duplicate_titles>
303892

> <s_m_subgroup_title>
dock_pv

> <s_m_subgroupid>
dock_pv1

> <b_m_subgroup_collapsed>
0

$$$$
304007
                    3D
 Schrodinger Suite 2021-1.
 57 60  0  0  1  0            999 V2000
    0.8610   31.3702   54.5183 C   0  0  0  0  0  0
   -0.1590   31.4488   55.6566 C   0  0  0  0  0  0
   -0.4394   30.1286   56.1094 O   0  0  0  0  0  0
   -1.2337   30.0754   57.2878 C   0  0  0  0  0  0
   -2.7522   29.9353   56.9860 C   0  0  0  0  0  0
   -3.4457   28.5220   56.8697 C   0  0  2  0  0  0
   -3.7310   27.8833   58.2484 C   0  0  0  0  0  0
   -4.8639   27.7704   58.7253 O   0  0  0  0  0  0
   -2.4428   27.3718   58.9349 C   0  0  2  0  0  0
   -1.5135   26.5639   57.9778 C   0  0  0  0  0  0
   -0.6442   25.7681   58.3272 O   0  0  0  0  0  0
   -1.6741   26.8103   56.6613 N   0  0  0  0  0  0
   -2.5986   27.5389   55.9901 C   0  0  0  0  0  0
   -2.7390   27.3700   54.7800 O   0  0  0  0  0  0
   -2.7390   26.5700   60.1103 N   0  0  0  0  0  0
   -4.6647   28.9391   56.2090 O   0  0  0  0  0  0
   -5.5839   28.1480   55.5416 C   0  0  0  0  0  0
   -5.6355   26.7476   55.5441 C   0  0  0  0  0  0
   -6.5137   26.0856   54.6856 C   0  0  0  0  0  0
   -7.3556   26.8085   53.8412 C   0  0  0  0  0  0
   -7.3825   28.1999   53.9327 C   0  0  0  0  0  0
   -6.4999   28.8606   54.7741 C   0  0  0  0  0  0
   -8.1640   26.1296   52.9528 O   0  0  0  0  0  0
   -8.3453   26.5630   51.6508 C   0  0  0  0  0  0
   -7.4105   27.3466   50.9638 C   0  0  0  0  0  0
   -7.6697   27.7711   49.6671 C   0  0  0  0  0  0
   -8.8709   27.4363   49.0342 C   0  0  0  0  0  0
   -9.7830   26.6155   49.7038 C   0  0  0  0  0  0
   -9.5117   26.1699   50.9947 C   0  0  0  0  0  0
   -9.1883   27.9528   47.6641 C   0  0  0  0  0  0
  -10.3387   27.7585   46.9076 C   0  0  0  0  0  0
  -10.1884   28.4138   45.7338 O   0  0  0  0  0  0
   -8.9593   28.9719   45.8458 C   0  0  0  0  0  0
   -8.3509   28.7204   46.9797 N   0  0  0  0  0  0
    1.0702   32.3586   54.1088 H   0  0  0  0  0  0
    1.8019   30.9421   54.8645 H   0  0  0  0  0  0
    0.4858   30.7447   53.7099 H   0  0  0  0  0  0
    0.2584   32.0595   56.4596 H   0  0  0  0  0  0
   -1.0734   31.9334   55.3111 H   0  0  0  0  0  0
   -0.8373   29.2442   57.8557 H   0  0  0  0  0  0
   -1.0585   30.9439   57.9275 H   0  0  0  0  0  0
   -3.2876   30.5082   57.7461 H   0  0  0  0  0  0
   -2.9363   30.5022   56.0696 H   0  0  0  0  0  0
   -1.8871   28.2263   59.3103 H   0  0  0  0  0  0
   -1.0486   26.2539   56.1052 H   0  0  0  0  0  0
   -3.1316   27.1335   60.8518 H   0  0  0  0  0  0
   -3.4375   25.8707   59.8553 H   0  0  0  0  0  0
   -4.9778   26.1589   56.1653 H   0  0  0  0  0  0
   -6.5127   25.0053   54.6515 H   0  0  0  0  0  0
   -8.0487   28.7723   53.3091 H   0  0  0  0  0  0
   -6.4804   29.9406   54.7865 H   0  0  0  0  0  0
   -6.4761   27.6309   51.4249 H   0  0  0  0  0  0
   -6.9360   28.3882   49.1677 H   0  0  0  0  0  0
  -10.7104   26.3291   49.2321 H   0  0  0  0  0  0
  -10.2266   25.5420   51.5048 H   0  0  0  0  0  0
  -11.2689   27.2338   47.0636 H   0  0  0  0  0  0
   -8.6093   29.5507   45.0027 H   0  0  0  0  0  0
  1  2  1  0  0  0
  1 35  1  0  0  0
  1 36  1  0  0  0
  1 37  1  0  0  0
  2  3  1  0  0  0
  2 38  1  0  0  0
  2 39  1  0  0  0
  3  4  1  0  0  0
  4  5  1  0  0  0
  4 40  1  0  0  0
  4 41  1  0  0  0
  5  6  1  0  0  0
  5 42  1  0  0  0
  5 43  1  0  0  0
  6 13  1  0  0  0
  6  7  1  0  0  0
  6 16  1  0  0  0
  7  8  2  0  0  0
  7  9  1  0  0  0
  9 10  1  0  0  0
  9 15  1  0  0  0
  9 44  1  0  0  0
 10 11  2  0  0  0
 10 12  1  0  0  0
 12 13  1  0  0  0
 12 45  1  0  0  0
 13 14  2  0  0  0
 15 46  1  0  0  0
 15 47  1  0  0  0
 16 17  1  0  0  0
 17 22  1  0  0  0
 17 18  2  0  0  0
 18 19  1  0  0  0
 18 48  1  0  0  0
 19 20  2  0  0  0
 19 49  1  0  0  0
 20 21  1  0  0  0
 20 23  1  0  0  0
 21 22  2  0  0  0
 21 50  1  0  0  0
 22 51  1  0  0  0
 23 24  1  0  0  0
 24 29  1  0  0  0
 24 25  2  0  0  0
 25 26  1  0  0  0
 25 52  1  0  0  0
 26 27  2  0  0  0
 26 53  1  0  0  0
 27 28  1  0  0  0
 27 30  1  0  0  0
 28 29  2  0  0  0
 28 54  1  0  0  0
 29 55  1  0  0  0
 30 34  1  0  0  0
 30 31  2  0  0  0
 31 32  1  0  0  0
 31 56  1  0  0  0
 32 33  1  0  0  0
 33 34  2  0  0  0
 33 57  1  0  0  0
M  END
> <s_m_entry_id>
65270

> <s_m_entry_name>
ligand_docking-pose.20

> <s_m_Source_Path>
/home/csk/Desktop/cluster/DUD-E-result/mmp13

> <s_m_Source_File>
ligand_docking-pose.sdf

> <i_m_Source_File_Index>
20

> <i_lp_mmshare_version>
53161

> <r_lp_tautomer_probability>
1

> <s_lp_Force_Field>
OPLS_2005

> <r_lp_Energy>
33.973572

> <b_lp_Chiralities_Consistent>
1

> <s_lp_Variant>
304007-3

> <s_i_glide_gridfile>
glide-grid_830c

> <i_i_glide_lignum>
1664

> <i_i_glide_rotatable_bonds>
9

> <r_i_docking_score>
-8.52869951160478

> <r_i_glide_ligand_efficiency>
-0.250844103282493

> <r_i_glide_ligand_efficiency_sa>
-0.812637516319616

> <r_i_glide_ligand_efficiency_ln>
-1.88422894403181

> <r_i_glide_gscore>
-8.52869951160478

> <r_i_glide_lipo>
-3.33370534076965

> <r_i_glide_hbond>
-0.747229861499611

> <r_i_glide_metal>
0

> <r_i_glide_rewards>
-0.4226627095523

> <r_i_glide_evdw>
-56.5122833251953

> <r_i_glide_ecoul>
-11.5815238952637

> <r_i_glide_erotb>
0.744697298585585

> <r_i_glide_esite>
-0.206956147819483

> <r_i_glide_emodel>
-97.941422821431

> <r_i_glide_energy>
-68.093807220459

> <r_i_glide_einternal>
6.76491546630859

> <i_i_glide_confnum>
7

> <i_i_glide_posenum>
5

> <r_i_glide_eff_state_penalty>
0

> <i_f3d_flags>
0

> <s_user_duplicate_titles>
304007

> <s_m_subgroup_title>
dock_pv

> <s_m_subgroupid>
dock_pv1

> <b_m_subgroup_collapsed>
0

$$$$
303985
                    3D
 Schrodinger Suite 2021-1.
 57 60  0  0  1  0            999 V2000
   -6.8304   31.6249   57.3098 C   0  0  0  0  0  0
   -5.3105   31.7430   57.1833 C   0  0  0  0  0  0
   -4.7264   30.9161   58.1805 O   0  0  0  0  0  0
   -3.3122   30.7879   58.1278 C   0  0  0  0  0  0
   -2.8148   29.8273   57.0134 C   0  0  0  0  0  0
   -3.5506   28.4447   56.8657 C   0  0  2  0  0  0
   -3.8214   27.7707   58.2283 C   0  0  0  0  0  0
   -4.9504   27.5721   58.6885 O   0  0  0  0  0  0
   -2.4938   27.3625   58.9166 C   0  0  2  0  0  0
   -1.5506   26.5607   57.9697 C   0  0  0  0  0  0
   -0.6764   25.7710   58.3229 O   0  0  0  0  0  0
   -1.7114   26.8020   56.6530 N   0  0  0  0  0  0
   -2.6537   27.5061   55.9811 C   0  0  0  0  0  0
   -2.7394   27.3719   54.7634 O   0  0  0  0  0  0
   -2.7389   26.5696   60.1171 N   0  0  0  0  0  0
   -4.7534   28.8659   56.1900 O   0  0  0  0  0  0
   -5.6507   28.0872   55.4864 C   0  0  0  0  0  0
   -5.6876   26.6875   55.4506 C   0  0  0  0  0  0
   -6.5587   26.0414   54.5728 C   0  0  0  0  0  0
   -7.4066   26.7823   53.7505 C   0  0  0  0  0  0
   -7.4400   28.1705   53.8715 C   0  0  0  0  0  0
   -6.5638   28.8149   54.7295 C   0  0  0  0  0  0
   -8.2224   26.1240   52.8584 O   0  0  0  0  0  0
   -8.4015   26.5701   51.5616 C   0  0  0  0  0  0
   -9.5628   26.1703   50.9056 C   0  0  0  0  0  0
   -9.8239   26.5882   49.6028 C   0  0  0  0  0  0
   -8.9105   27.4033   48.9306 C   0  0  0  0  0  0
   -7.7270   27.7743   49.5734 C   0  0  0  0  0  0
   -7.4732   27.3651   50.8775 C   0  0  0  0  0  0
   -9.1926   27.8712   47.5395 C   0  0  0  0  0  0
  -10.2018   27.5302   46.7644 N   0  0  0  0  0  0
   -9.9996   28.2032   45.6463 C   0  0  0  0  0  0
   -8.8519   28.9695   45.7372 C   0  0  0  0  0  0
   -8.3328   28.7560   46.9669 O   0  0  0  0  0  0
   -7.3393   32.2376   56.5656 H   0  0  0  0  0  0
   -7.1541   30.5921   57.1748 H   0  0  0  0  0  0
   -7.1655   31.9474   58.2961 H   0  0  0  0  0  0
   -5.0011   31.4448   56.1794 H   0  0  0  0  0  0
   -5.0002   32.7780   57.3262 H   0  0  0  0  0  0
   -2.8396   31.7679   58.0359 H   0  0  0  0  0  0
   -2.9955   30.4090   59.0985 H   0  0  0  0  0  0
   -2.8680   30.3623   56.0615 H   0  0  0  0  0  0
   -1.7449   29.6853   57.1795 H   0  0  0  0  0  0
   -1.9470   28.2586   59.2111 H   0  0  0  0  0  0
   -1.0651   26.2681   56.0983 H   0  0  0  0  0  0
   -3.1092   27.1408   60.8641 H   0  0  0  0  0  0
   -3.4421   25.8651   59.8945 H   0  0  0  0  0  0
   -5.0290   26.0898   56.0615 H   0  0  0  0  0  0
   -6.5517   24.9623   54.5130 H   0  0  0  0  0  0
   -8.1144   28.7511   53.2652 H   0  0  0  0  0  0
   -6.5518   29.8941   54.7699 H   0  0  0  0  0  0
  -10.2728   25.5382   51.4164 H   0  0  0  0  0  0
  -10.7387   26.2827   49.1171 H   0  0  0  0  0  0
   -6.9973   28.3926   49.0682 H   0  0  0  0  0  0
   -6.5453   27.6646   51.3433 H   0  0  0  0  0  0
  -10.6604   28.1305   44.7948 H   0  0  0  0  0  0
   -8.3172   29.6408   45.0775 H   0  0  0  0  0  0
  1  2  1  0  0  0
  1 35  1  0  0  0
  1 36  1  0  0  0
  1 37  1  0  0  0
  2  3  1  0  0  0
  2 38  1  0  0  0
  2 39  1  0  0  0
  3  4  1  0  0  0
  4  5  1  0  0  0
  4 40  1  0  0  0
  4 41  1  0  0  0
  5  6  1  0  0  0
  5 42  1  0  0  0
  5 43  1  0  0  0
  6 13  1  0  0  0
  6  7  1  0  0  0
  6 16  1  0  0  0
  7  8  2  0  0  0
  7  9  1  0  0  0
  9 10  1  0  0  0
  9 15  1  0  0  0
  9 44  1  0  0  0
 10 11  2  0  0  0
 10 12  1  0  0  0
 12 13  1  0  0  0
 12 45  1  0  0  0
 13 14  2  0  0  0
 15 46  1  0  0  0
 15 47  1  0  0  0
 16 17  1  0  0  0
 17 22  1  0  0  0
 17 18  2  0  0  0
 18 19  1  0  0  0
 18 48  1  0  0  0
 19 20  2  0  0  0
 19 49  1  0  0  0
 20 21  1  0  0  0
 20 23  1  0  0  0
 21 22  2  0  0  0
 21 50  1  0  0  0
 22 51  1  0  0  0
 23 24  1  0  0  0
 24 29  1  0  0  0
 24 25  2  0  0  0
 25 26  1  0  0  0
 25 52  1  0  0  0
 26 27  2  0  0  0
 26 53  1  0  0  0
 27 28  1  0  0  0
 27 30  1  0  0  0
 28 29  2  0  0  0
 28 54  1  0  0  0
 29 55  1  0  0  0
 30 34  1  0  0  0
 30 31  2  0  0  0
 31 32  1  0  0  0
 32 33  2  0  0  0
 32 56  1  0  0  0
 33 34  1  0  0  0
 33 57  1  0  0  0
M  END
> <s_m_entry_id>
65276

> <s_m_entry_name>
ligand_docking-pose.26

> <s_m_Source_Path>
/home/csk/Desktop/cluster/DUD-E-result/mmp13

> <s_m_Source_File>
ligand_docking-pose.sdf

> <i_m_Source_File_Index>
26

> <i_lp_mmshare_version>
53161

> <r_lp_tautomer_probability>
1

> <s_lp_Force_Field>
OPLS_2005

> <r_lp_Energy>
33.140134

> <b_lp_Chiralities_Consistent>
1

> <s_lp_Variant>
303985-3

> <s_i_glide_gridfile>
glide-grid_830c

> <i_i_glide_lignum>
1672

> <i_i_glide_rotatable_bonds>
9

> <r_i_docking_score>
-8.44578873181623

> <r_i_glide_ligand_efficiency>
-0.248405550935772

> <r_i_glide_ligand_efficiency_sa>
-0.804737553368429

> <r_i_glide_ligand_efficiency_ln>
-1.86591162720792

> <r_i_glide_gscore>
-8.44578873181623

> <r_i_glide_lipo>
-3.26289062308155

> <r_i_glide_hbond>
-0.793225621793868

> <r_i_glide_metal>
0

> <r_i_glide_rewards>
-0.425180959732431

> <r_i_glide_evdw>
-58.2414741516113

> <r_i_glide_ecoul>
-10.5795888900757

> <r_i_glide_erotb>
0.744697298585585

> <r_i_glide_esite>
-0.210176784702048

> <r_i_glide_emodel>
-99.6416600391286

> <r_i_glide_energy>
-68.821063041687

> <r_i_glide_einternal>
3.72298216819763

> <i_i_glide_confnum>
2

> <i_i_glide_posenum>
12

> <r_i_glide_eff_state_penalty>
0

> <i_f3d_flags>
0

> <s_user_duplicate_titles>
303985

> <s_m_subgroup_title>
dock_pv

> <s_m_subgroupid>
dock_pv1

> <b_m_subgroup_collapsed>
0

$$$$
304054
                    3D
 Schrodinger Suite 2021-1.
 58 61  0  0  1  0            999 V2000
   -6.6645   32.3953   58.0443 C   0  0  0  0  0  0
   -5.2278   32.1538   58.5114 C   0  0  0  0  0  0
   -4.6327   31.2053   57.6418 O   0  0  0  0  0  0
   -3.3040   30.8543   57.9914 C   0  0  0  0  0  0
   -2.7512   29.8166   56.9878 C   0  0  0  0  0  0
   -3.5268   28.4570   56.8567 C   0  0  2  0  0  0
   -3.8015   27.8054   58.2289 C   0  0  0  0  0  0
   -4.9305   27.6503   58.7029 O   0  0  0  0  0  0
   -2.4819   27.3686   58.9161 C   0  0  2  0  0  0
   -1.5469   26.5574   57.9682 C   0  0  0  0  0  0
   -0.6705   25.7703   58.3218 O   0  0  0  0  0  0
   -1.7181   26.7822   56.6507 N   0  0  0  0  0  0
   -2.6485   27.4995   55.9766 C   0  0  0  0  0  0
   -2.7390   27.3700   54.7579 O   0  0  0  0  0  0
   -2.7390   26.5700   60.1100 N   0  0  0  0  0  0
   -4.7276   28.8857   56.1773 O   0  0  0  0  0  0
   -5.6355   28.1024   55.4891 C   0  0  0  0  0  0
   -6.5509   28.8228   54.7271 C   0  0  0  0  0  0
   -7.4254   28.1699   53.8708 C   0  0  0  0  0  0
   -7.3863   26.7808   53.7574 C   0  0  0  0  0  0
   -6.5455   26.0490   54.5953 C   0  0  0  0  0  0
   -5.6782   26.7024   55.4711 C   0  0  0  0  0  0
   -8.1770   26.1062   52.8520 O   0  0  0  0  0  0
   -8.3703   26.5660   51.5613 C   0  0  0  0  0  0
   -7.4379   27.3536   50.8754 C   0  0  0  0  0  0
   -7.6918   27.7710   49.5744 C   0  0  0  0  0  0
   -8.8865   27.4166   48.9383 C   0  0  0  0  0  0
   -9.8096   26.6088   49.6147 C   0  0  0  0  0  0
   -9.5390   26.1762   50.9100 C   0  0  0  0  0  0
   -9.1433   27.8686   47.6182 N   0  0  0  0  0  0
   -8.6128   28.9700   46.9831 C   0  0  0  0  0  0
   -9.1389   28.9768   45.7060 C   0  0  0  0  0  0
   -9.9783   27.8632   45.6659 C   0  0  0  0  0  0
   -9.9876   27.2038   46.8021 N   0  0  0  0  0  0
   -7.1667   33.1208   58.6837 H   0  0  0  0  0  0
   -6.6874   32.7723   57.0218 H   0  0  0  0  0  0
   -7.2417   31.4705   58.0749 H   0  0  0  0  0  0
   -4.6671   33.0900   58.4944 H   0  0  0  0  0  0
   -5.2296   31.7825   59.5381 H   0  0  0  0  0  0
   -2.6737   31.7451   57.9703 H   0  0  0  0  0  0
   -3.2659   30.4631   59.0095 H   0  0  0  0  0  0
   -2.7205   30.2998   56.0078 H   0  0  0  0  0  0
   -1.7033   29.6485   57.2432 H   0  0  0  0  0  0
   -1.9289   28.2585   59.2182 H   0  0  0  0  0  0
   -1.0804   26.2355   56.0984 H   0  0  0  0  0  0
   -3.1139   27.1370   60.8578 H   0  0  0  0  0  0
   -3.4407   25.8662   59.8783 H   0  0  0  0  0  0
   -6.5369   29.9026   54.7600 H   0  0  0  0  0  0
   -8.0953   28.7456   53.2550 H   0  0  0  0  0  0
   -6.5371   24.9695   54.5429 H   0  0  0  0  0  0
   -5.0226   26.1098   56.0907 H   0  0  0  0  0  0
   -6.5027   27.6338   51.3374 H   0  0  0  0  0  0
   -6.9435   28.3686   49.0731 H   0  0  0  0  0  0
  -10.7367   26.3154   49.1434 H   0  0  0  0  0  0
  -10.2511   25.5464   51.4217 H   0  0  0  0  0  0
   -7.9191   29.6326   47.4799 H   0  0  0  0  0  0
   -8.9369   29.6848   44.9138 H   0  0  0  0  0  0
  -10.5647   27.5413   44.8175 H   0  0  0  0  0  0
  1  2  1  0  0  0
  1 35  1  0  0  0
  1 36  1  0  0  0
  1 37  1  0  0  0
  2  3  1  0  0  0
  2 38  1  0  0  0
  2 39  1  0  0  0
  3  4  1  0  0  0
  4  5  1  0  0  0
  4 40  1  0  0  0
  4 41  1  0  0  0
  5  6  1  0  0  0
  5 42  1  0  0  0
  5 43  1  0  0  0
  6 13  1  0  0  0
  6  7  1  0  0  0
  6 16  1  0  0  0
  7  8  2  0  0  0
  7  9  1  0  0  0
  9 10  1  0  0  0
  9 15  1  0  0  0
  9 44  1  0  0  0
 10 11  2  0  0  0
 10 12  1  0  0  0
 12 13  1  0  0  0
 12 45  1  0  0  0
 13 14  2  0  0  0
 15 46  1  0  0  0
 15 47  1  0  0  0
 16 17  1  0  0  0
 17 22  1  0  0  0
 17 18  2  0  0  0
 18 19  1  0  0  0
 18 48  1  0  0  0
 19 20  2  0  0  0
 19 49  1  0  0  0
 20 21  1  0  0  0
 20 23  1  0  0  0
 21 22  2  0  0  0
 21 50  1  0  0  0
 22 51  1  0  0  0
 23 24  1  0  0  0
 24 29  1  0  0  0
 24 25  2  0  0  0
 25 26  1  0  0  0
 25 52  1  0  0  0
 26 27  2  0  0  0
 26 53  1  0  0  0
 27 28  1  0  0  0
 27 30  1  0  0  0
 28 29  2  0  0  0
 28 54  1  0  0  0
 29 55  1  0  0  0
 30 34  1  0  0  0
 30 31  1  0  0  0
 31 32  2  0  0  0
 31 56  1  0  0  0
 32 33  1  0  0  0
 32 57  1  0  0  0
 33 34  2  0  0  0
 33 58  1  0  0  0
M  END
> <s_m_entry_id>
65277

> <s_m_entry_name>
ligand_docking-pose.27

> <s_m_Source_Path>
/home/csk/Desktop/cluster/DUD-E-result/mmp13

> <s_m_Source_File>
ligand_docking-pose.sdf

> <i_m_Source_File_Index>
27

> <i_lp_mmshare_version>
53161

> <r_lp_tautomer_probability>
1

> <s_lp_Force_Field>
OPLS_2005

> <r_lp_Energy>
32.907748

> <b_lp_Chiralities_Consistent>
1

> <s_lp_Variant>
304054-3

> <s_i_glide_gridfile>
glide-grid_830c

> <i_i_glide_lignum>
1748

> <i_i_glide_rotatable_bonds>
9

> <r_i_docking_score>
-8.4030357016987

> <r_i_glide_ligand_efficiency>
-0.247148108873491

> <r_i_glide_ligand_efficiency_sa>
-0.800663929228831

> <r_i_glide_ligand_efficiency_ln>
-1.85646628367308

> <r_i_glide_gscore>
-8.4030357016987

> <r_i_glide_lipo>
-3.18637977381946

> <r_i_glide_hbond>
-0.784763010114015

> <r_i_glide_metal>
0

> <r_i_glide_rewards>
-0.389560665116276

> <r_i_glide_evdw>
-58.5683746337891

> <r_i_glide_ecoul>
-10.9989709854126

> <r_i_glide_erotb>
0.747578122153034

> <r_i_glide_esite>
-0.211645995300632

> <r_i_glide_emodel>
-101.430469968889

> <r_i_glide_energy>
-69.5673456192017

> <r_i_glide_einternal>
3.21594190597534

> <i_i_glide_confnum>
1

> <i_i_glide_posenum>
65

> <r_i_glide_eff_state_penalty>
0

> <i_f3d_flags>
0

> <s_user_duplicate_titles>
304054

> <s_m_subgroup_title>
dock_pv

> <s_m_subgroupid>
dock_pv1

> <b_m_subgroup_collapsed>
0

$$$$
372954
                    3D
 Schrodinger Suite 2021-1.
 40 40  0  0  1  0            999 V2000
  -10.7078   26.5700   47.8750 C   0  0  0  0  0  0
   -9.6376   26.8392   48.8450 C   0  0  0  0  0  0
   -8.7497   27.0913   49.6440 C   0  0  0  0  0  0
   -7.7118   27.4554   50.6185 C   0  0  0  0  0  0
   -7.6900   26.5515   51.7237 O   0  0  0  0  0  0
   -7.1853   26.9485   52.9476 C   0  0  0  0  0  0
   -7.1390   25.9777   53.9480 C   0  0  0  0  0  0
   -6.6753   26.2892   55.2280 C   0  0  0  0  0  0
   -6.2682   27.5947   55.5090 C   0  0  0  0  0  0
   -6.3138   28.5700   54.5209 C   0  0  0  0  0  0
   -6.7390   28.2422   53.2396 C   0  0  0  0  0  0
   -5.7001   28.0741   57.1848 S   0  0  1  0  0  0
   -5.9390   26.8815   58.1100 O   0  0  0  0  0  0
   -3.8534   28.2241   56.9176 C   0  0  2  0  0  0
   -3.4601   29.7068   56.6020 C   0  0  0  0  0  0
   -1.9557   29.9223   56.3066 C   0  0  0  0  0  0
   -3.8833   30.6773   57.7288 C   0  0  0  0  0  0
   -3.2379   27.1658   55.9736 C   0  0  0  0  0  0
   -3.1390   27.3700   54.7566 O   0  0  0  0  0  0
   -2.8246   26.0244   56.5442 N   0  0  0  0  0  0
   -2.3390   25.0089   55.7100 O   0  0  0  0  0  0
  -10.7094   27.3418   47.1054 H   0  0  0  0  0  0
  -11.6727   26.5700   48.3804 H   0  0  0  0  0  0
  -10.5463   25.5984   47.4098 H   0  0  0  0  0  0
   -6.7394   27.4648   50.1236 H   0  0  0  0  0  0
   -7.9390   28.4810   50.8998 H   0  0  0  0  0  0
   -7.4561   24.9723   53.7111 H   0  0  0  0  0  0
   -6.6334   25.5243   55.9913 H   0  0  0  0  0  0
   -6.0043   29.5803   54.7399 H   0  0  0  0  0  0
   -6.7197   29.0159   52.4934 H   0  0  0  0  0  0
   -3.4385   28.0165   57.9052 H   0  0  0  0  0  0
   -4.0010   30.0086   55.7100 H   0  0  0  0  0  0
   -1.3337   29.5852   57.1366 H   0  0  0  0  0  0
   -1.6298   29.3977   55.4089 H   0  0  0  0  0  0
   -1.7343   30.9769   56.1372 H   0  0  0  0  0  0
   -3.4064   30.4236   58.6764 H   0  0  0  0  0  0
   -3.6091   31.7055   57.4891 H   0  0  0  0  0  0
   -4.9608   30.6785   57.8921 H   0  0  0  0  0  0
   -2.9857   25.7216   57.5002 H   0  0  0  0  0  0
   -3.0631   24.3506   55.7317 H   0  0  0  0  0  0
  1  2  1  0  0  0
  1 22  1  0  0  0
  1 23  1  0  0  0
  1 24  1  0  0  0
  2  3  3  0  0  0
  3  4  1  0  0  0
  4  5  1  0  0  0
  4 25  1  0  0  0
  4 26  1  0  0  0
  5  6  1  0  0  0
  6 11  1  0  0  0
  6  7  2  0  0  0
  7  8  1  0  0  0
  7 27  1  0  0  0
  8  9  2  0  0  0
  8 28  1  0  0  0
  9 10  1  0  0  0
  9 12  1  0  0  0
 10 11  2  0  0  0
 10 29  1  0  0  0
 11 30  1  0  0  0
 12 13  2  0  0  0
 12 14  1  0  0  0
 14 15  1  0  0  0
 14 18  1  0  0  0
 14 31  1  0  0  0
 15 16  1  0  0  0
 15 17  1  0  0  0
 15 32  1  0  0  0
 16 33  1  0  0  0
 16 34  1  0  0  0
 16 35  1  0  0  0
 17 36  1  0  0  0
 17 37  1  0  0  0
 17 38  1  0  0  0
 18 19  2  0  0  0
 18 20  1  0  0  0
 20 21  1  0  0  0
 20 39  1  0  0  0
 21 40  1  0  0  0
M  END
> <s_m_entry_id>
65281

> <s_m_entry_name>
ligand_docking-pose.31

> <s_m_Source_Path>
/home/csk/Desktop/cluster/DUD-E-result/mmp13

> <s_m_Source_File>
ligand_docking-pose.sdf

> <i_m_Source_File_Index>
31

> <i_lp_mmshare_version>
53161

> <r_lp_tautomer_probability>
1

> <s_lp_Force_Field>
OPLS_2005

> <r_lp_Energy>
24.454594

> <b_lp_Chiralities_Consistent>
1

> <s_lp_Variant>
372954-2

> <s_i_glide_gridfile>
glide-grid_830c

> <i_i_glide_lignum>
1112

> <i_i_glide_rotatable_bonds>
9

> <r_i_docking_score>
-8.20954319388816

> <r_i_glide_ligand_efficiency>
-0.390930628280388

> <r_i_glide_ligand_efficiency_sa>
-1.07854796055607

> <r_i_glide_ligand_efficiency_ln>
-2.02979296574484

> <r_i_glide_gscore>
-8.20954319388816

> <r_i_glide_lipo>
-2.91141980803189

> <r_i_glide_hbond>
-0.83081915153716

> <r_i_glide_metal>
0

> <r_i_glide_rewards>
-1.34120932167935

> <r_i_glide_evdw>
-35.7685165405273

> <r_i_glide_ecoul>
-16.6115951538086

> <r_i_glide_erotb>
1.35407018745791

> <r_i_glide_esite>
-0.2

> <r_i_glide_emodel>
-85.041791835792

> <r_i_glide_energy>
-52.3801116943359

> <r_i_glide_einternal>
3.98087882995605

> <i_i_glide_confnum>
125

> <i_i_glide_posenum>
216

> <r_i_glide_eff_state_penalty>
0

> <i_f3d_flags>
0

> <s_user_duplicate_titles>
372954

> <s_m_subgroup_title>
dock_pv

> <s_m_subgroupid>
dock_pv1

> <b_m_subgroup_collapsed>
0

$$$$
187731
                    3D
 Schrodinger Suite 2021-1.
 47 49  0  0  1  0            999 V2000
   -9.9069   28.1090   48.0577 C   0  0  0  0  0  0
   -9.9038   27.3659   49.2350 C   0  0  0  0  0  0
   -8.7192   27.2116   49.9566 C   0  0  0  0  0  0
   -7.5390   27.7863   49.4924 C   0  0  0  0  0  0
   -7.5476   28.5526   48.3279 C   0  0  0  0  0  0
   -8.7309   28.7075   47.6136 C   0  0  0  0  0  0
   -8.7389   29.4317   46.4731 F   0  0  0  0  0  0
   -8.7390   26.1679   51.3859 S   0  0  0  0  0  0
   -7.6697   26.8266   52.6483 C   0  0  0  0  0  0
   -7.3070   28.1698   52.6753 C   0  0  0  0  0  0
   -6.7215   28.7067   53.8124 C   0  0  0  0  0  0
   -6.4591   27.9018   54.9160 C   0  0  0  0  0  0
   -6.7051   26.5296   54.8521 C   0  0  0  0  0  0
   -7.3076   25.9946   53.7131 C   0  0  0  0  0  0
   -5.9492   28.7054   56.4328 S   0  0  0  0  0  0
   -5.8202   27.6765   57.4719 O   0  0  0  0  0  0
   -6.8772   29.8267   56.6086 O   0  0  0  0  0  0
   -4.3717   29.4310   56.1102 N   0  0  1  0  0  0
   -3.0758   28.7809   56.4593 C   0  0  0  0  0  0
   -1.9302   29.6845   55.9397 C   0  0  0  0  0  0
   -1.9476   31.0863   56.5808 C   0  0  0  0  0  0
   -1.8457   30.9350   57.9924 O   0  0  0  0  0  0
   -2.9054   30.1831   58.5805 C   0  0  0  0  0  0
   -2.9186   28.7410   58.0098 C   0  0  0  0  0  0
   -2.9261   27.4207   55.7267 C   0  0  0  0  0  0
   -3.1389   27.3700   54.5099 O   0  0  0  0  0  0
   -2.5164   26.3447   56.4171 N   0  0  0  0  0  0
   -2.3390   25.1501   55.7101 O   0  0  0  0  0  0
  -10.8154   28.2229   47.4866 H   0  0  0  0  0  0
  -10.8173   26.8985   49.5735 H   0  0  0  0  0  0
   -6.6076   27.6387   50.0181 H   0  0  0  0  0  0
   -6.6322   28.9934   47.9653 H   0  0  0  0  0  0
   -7.5393   28.8307   51.8594 H   0  0  0  0  0  0
   -6.5207   29.7666   53.8559 H   0  0  0  0  0  0
   -6.4892   25.8875   55.6953 H   0  0  0  0  0  0
   -7.5392   24.9381   53.6991 H   0  0  0  0  0  0
   -4.3375   30.0305   55.2728 H   0  0  0  0  0  0
   -1.9896   29.7712   54.8662 H   0  0  0  0  0  0
   -0.9581   29.2309   56.1460 H   0  0  0  0  0  0
   -2.8445   31.6485   56.3154 H   0  0  0  0  0  0
   -1.0983   31.6731   56.2305 H   0  0  0  0  0  0
   -3.8627   30.6880   58.4374 H   0  0  0  0  0  0
   -2.7269   30.1721   59.6526 H   0  0  0  0  0  0
   -1.9778   28.2633   58.2880 H   0  0  0  0  0  0
   -3.6966   28.1584   58.4988 H   0  0  0  0  0  0
   -2.3912   26.2531   57.4180 H   0  0  0  0  0  0
   -3.0955   24.6005   55.9917 H   0  0  0  0  0  0
  1  6  1  0  0  0
  1  2  2  0  0  0
  1 29  1  0  0  0
  2  3  1  0  0  0
  2 30  1  0  0  0
  3  4  2  0  0  0
  3  8  1  0  0  0
  4  5  1  0  0  0
  4 31  1  0  0  0
  5  6  2  0  0  0
  5 32  1  0  0  0
  6  7  1  0  0  0
  8  9  1  0  0  0
  9 14  1  0  0  0
  9 10  2  0  0  0
 10 11  1  0  0  0
 10 33  1  0  0  0
 11 12  2  0  0  0
 11 34  1  0  0  0
 12 13  1  0  0  0
 12 15  1  0  0  0
 13 14  2  0  0  0
 13 35  1  0  0  0
 14 36  1  0  0  0
 15 16  2  0  0  0
 15 17  2  0  0  0
 15 18  1  0  0  0
 18 19  1  0  0  0
 18 37  1  0  0  0
 19 24  1  0  0  0
 19 20  1  0  0  0
 19 25  1  0  0  0
 20 21  1  0  0  0
 20 38  1  0  0  0
 20 39  1  0  0  0
 21 22  1  0  0  0
 21 40  1  0  0  0
 21 41  1  0  0  0
 22 23  1  0  0  0
 23 24  1  0  0  0
 23 42  1  0  0  0
 23 43  1  0  0  0
 24 44  1  0  0  0
 24 45  1  0  0  0
 25 26  2  0  0  0
 25 27  1  0  0  0
 27 28  1  0  0  0
 27 46  1  0  0  0
 28 47  1  0  0  0
M  END
> <s_m_entry_id>
65291

> <s_m_entry_name>
ligand_docking-pose.41

> <s_m_Source_Path>
/home/csk/Desktop/cluster/DUD-E-result/mmp13

> <s_m_Source_File>
ligand_docking-pose.sdf

> <i_m_Source_File_Index>
41

> <i_lp_mmshare_version>
53161

> <r_lp_tautomer_probability>
1

> <s_lp_Force_Field>
OPLS_2005

> <r_lp_Energy>
26.310145

> <b_lp_Chiralities_Consistent>
1

> <s_lp_Variant>
187731-1

> <s_i_glide_gridfile>
glide-grid_830c

> <i_i_glide_lignum>
229

> <i_i_glide_rotatable_bonds>
8

> <r_i_docking_score>
-8.0654275079624

> <r_i_glide_ligand_efficiency>
-0.288050982427229

> <r_i_glide_ligand_efficiency_sa>
-0.874692435604921

> <r_i_glide_ligand_efficiency_ln>
-1.86173748007945

> <r_i_glide_gscore>
-8.0654275079624

> <r_i_glide_lipo>
-3.74815108115421

> <r_i_glide_hbond>
-0.30396021126787

> <r_i_glide_metal>
0

> <r_i_glide_rewards>
0.0941606884392191

> <r_i_glide_evdw>
-46.5358428955078

> <r_i_glide_ecoul>
-15.3449726104736

> <r_i_glide_erotb>
0.763793080191345

> <r_i_glide_esite>
-0.242731947824455

> <r_i_glide_emodel>
-81.1450120685035

> <r_i_glide_energy>
-61.8808155059814

> <r_i_glide_einternal>
13.9076080322266

> <i_i_glide_confnum>
87

> <i_i_glide_posenum>
116

> <r_i_glide_eff_state_penalty>
0

> <i_f3d_flags>
0

> <s_user_duplicate_titles>
187731

> <s_m_subgroup_title>
dock_pv

> <s_m_subgroupid>
dock_pv1

> <b_m_subgroup_collapsed>
0

$$$$
307258
                    3D
 Schrodinger Suite 2021-1.
 63 66  0  0  1  0            999 V2000
  -11.7909   26.5784   44.9654 C   0  0  0  0  0  0
  -10.7857   27.5341   45.5389 C   0  0  0  0  0  0
  -10.0747   27.2294   46.6987 C   0  0  0  0  0  0
   -9.2145   28.1914   47.2200 C   0  0  0  0  0  0
   -9.0853   29.4469   46.5483 C   0  0  0  0  0  0
   -8.2742   30.5209   47.0229 C   0  0  0  0  0  0
   -8.3416   31.7688   46.4269 C   0  0  0  0  0  0
   -9.1396   31.9708   45.3093 C   0  0  0  0  0  0
   -9.8725   30.9291   44.7517 C   0  0  0  0  0  0
   -9.8738   29.6607   45.3728 C   0  0  0  0  0  0
  -10.6914   28.7045   44.8706 N   0  0  0  0  0  0
   -8.4105   27.9768   48.4887 C   0  0  0  0  0  0
   -8.8945   26.9923   49.4097 O   0  0  0  0  0  0
   -8.2559   26.9790   50.6461 C   0  0  0  0  0  0
   -8.7505   26.1698   51.6660 C   0  0  0  0  0  0
   -8.1473   26.1702   52.9290 C   0  0  0  0  0  0
   -7.0344   26.9739   53.1763 C   0  0  0  0  0  0
   -6.5226   27.7702   52.1679 C   0  0  0  0  0  0
   -7.1390   27.7760   50.9306 C   0  0  0  0  0  0
   -6.2210   27.0232   54.7653 S   0  0  0  0  0  0
   -4.7981   26.7638   54.5101 O   0  0  0  0  0  0
   -6.9997   26.1699   55.6686 O   0  0  0  0  0  0
   -6.4530   28.8356   55.2960 C   0  0  0  0  0  0
   -5.5465   29.3221   56.4714 C   0  0  1  0  0  0
   -5.7214   28.3729   57.7027 C   0  0  0  0  0  0
   -4.6198   28.5071   58.7715 C   0  0  0  0  0  0
   -3.2264   28.4586   58.1376 C   0  0  0  0  0  0
   -3.0992   29.4605   56.9831 C   0  0  0  0  0  0
   -4.1571   29.2204   56.0035 N   0  0  2  0  0  0
   -5.8530   30.8084   56.8826 C   0  0  0  0  0  0
   -7.3275   31.2526   56.9002 C   0  0  0  0  0  0
   -7.8934   31.4900   55.8288 O   0  0  0  0  0  0
   -7.9186   31.3706   58.1040 N   0  0  0  0  0  0
   -9.2626   31.7731   58.1419 O   0  0  0  0  0  0
  -11.9390   25.7704   45.6656 H   0  0  0  0  0  0
  -12.7387   27.0810   44.8471 H   0  0  0  0  0  0
  -11.4822   26.2110   43.9865 H   0  0  0  0  0  0
  -10.2034   26.2812   47.2003 H   0  0  0  0  0  0
   -7.6277   30.4108   47.8806 H   0  0  0  0  0  0
   -7.7515   32.5853   46.8149 H   0  0  0  0  0  0
   -9.1564   32.9473   44.8462 H   0  0  0  0  0  0
  -10.4758   31.0961   43.8714 H   0  0  0  0  0  0
   -8.4724   28.9186   49.0335 H   0  0  0  0  0  0
   -7.3766   27.7773   48.2044 H   0  0  0  0  0  0
   -9.6116   25.5482   51.4728 H   0  0  0  0  0  0
   -8.5364   25.5351   53.7105 H   0  0  0  0  0  0
   -5.6600   28.3992   52.3338 H   0  0  0  0  0  0
   -6.7387   28.4553   50.1989 H   0  0  0  0  0  0
   -7.5115   28.9286   55.5230 H   0  0  0  0  0  0
   -6.2788   29.4492   54.4166 H   0  0  0  0  0  0
   -5.7304   27.3263   57.4058 H   0  0  0  0  0  0
   -6.6788   28.5743   58.1776 H   0  0  0  0  0  0
   -4.7076   27.6999   59.4958 H   0  0  0  0  0  0
   -4.7382   29.4479   59.3098 H   0  0  0  0  0  0
   -2.9918   27.4531   57.7827 H   0  0  0  0  0  0
   -2.4724   28.6815   58.8934 H   0  0  0  0  0  0
   -2.1339   29.3488   56.4902 H   0  0  0  0  0  0
   -3.1575   30.4859   57.3511 H   0  0  0  0  0  0
   -4.0530   29.8458   55.2029 H   0  0  0  0  0  0
   -5.3916   31.0549   57.8385 H   0  0  0  0  0  0
   -5.3689   31.4784   56.1702 H   0  0  0  0  0  0
   -7.5391   31.1777   59.0297 H   0  0  0  0  0  0
   -9.2233   32.6864   58.4390 H   0  0  0  0  0  0
  1  2  1  0  0  0
  1 35  1  0  0  0
  1 36  1  0  0  0
  1 37  1  0  0  0
  2 11  1  0  0  0
  2  3  2  0  0  0
  3  4  1  0  0  0
  3 38  1  0  0  0
  4  5  2  0  0  0
  4 12  1  0  0  0
  5 10  1  0  0  0
  5  6  1  0  0  0
  6  7  2  0  0  0
  6 39  1  0  0  0
  7  8  1  0  0  0
  7 40  1  0  0  0
  8  9  2  0  0  0
  8 41  1  0  0  0
  9 10  1  0  0  0
  9 42  1  0  0  0
 10 11  2  0  0  0
 12 13  1  0  0  0
 12 43  1  0  0  0
 12 44  1  0  0  0
 13 14  1  0  0  0
 14 19  1  0  0  0
 14 15  2  0  0  0
 15 16  1  0  0  0
 15 45  1  0  0  0
 16 17  2  0  0  0
 16 46  1  0  0  0
 17 18  1  0  0  0
 17 20  1  0  0  0
 18 19  2  0  0  0
 18 47  1  0  0  0
 19 48  1  0  0  0
 20 21  2  0  0  0
 20 22  2  0  0  0
 20 23  1  0  0  0
 23 24  1  0  0  0
 23 49  1  0  0  0
 23 50  1  0  0  0
 24 29  1  0  0  0
 24 25  1  0  0  0
 24 30  1  0  0  0
 25 26  1  0  0  0
 25 51  1  0  0  0
 25 52  1  0  0  0
 26 27  1  0  0  0
 26 53  1  0  0  0
 26 54  1  0  0  0
 27 28  1  0  0  0
 27 55  1  0  0  0
 27 56  1  0  0  0
 28 29  1  0  0  0
 28 57  1  0  0  0
 28 58  1  0  0  0
 29 59  1  0  0  0
 30 31  1  0  0  0
 30 60  1  0  0  0
 30 61  1  0  0  0
 31 32  2  0  0  0
 31 33  1  0  0  0
 33 34  1  0  0  0
 33 62  1  0  0  0
 34 63  1  0  0  0
M  END
> <s_m_entry_id>
65292

> <s_m_entry_name>
ligand_docking-pose.42

> <s_m_Source_Path>
/home/csk/Desktop/cluster/DUD-E-result/mmp13

> <s_m_Source_File>
ligand_docking-pose.sdf

> <i_m_Source_File_Index>
42

> <i_lp_mmshare_version>
53161

> <r_lp_tautomer_probability>
1

> <s_lp_Force_Field>
OPLS_2005

> <r_lp_Energy>
33.977516

> <b_lp_Chiralities_Consistent>
1

> <s_lp_Variant>
307258-2

> <s_i_glide_gridfile>
glide-grid_830c

> <i_i_glide_lignum>
379

> <i_i_glide_rotatable_bonds>
10

> <r_i_docking_score>
-8.06514863284591

> <r_i_glide_ligand_efficiency>
-0.237210253907233

> <r_i_glide_ligand_efficiency_sa>
-0.7684691370386

> <r_i_glide_ligand_efficiency_ln>
-1.78181755275224

> <r_i_glide_gscore>
-8.06514863284591

> <r_i_glide_lipo>
-4.11096371585474

> <r_i_glide_hbond>
-0.608

> <r_i_glide_metal>
0

> <r_i_glide_rewards>
-0.111534099011257

> <r_i_glide_evdw>
-48.6976089477539

> <r_i_glide_ecoul>
-10.0038928985596

> <r_i_glide_erotb>
0.78133710824026

> <r_i_glide_esite>
-0.0805235440485449

> <r_i_glide_emodel>
-77.3479087877609

> <r_i_glide_energy>
-58.7015018463135

> <r_i_glide_einternal>
15.0518798828125

> <i_i_glide_confnum>
2

> <i_i_glide_posenum>
90

> <r_i_glide_eff_state_penalty>
0

> <i_f3d_flags>
0

> <s_user_duplicate_titles>
307258

> <s_m_subgroup_title>
dock_pv

> <s_m_subgroupid>
dock_pv1

> <b_m_subgroup_collapsed>
0

$$$$
310913
                    3D
 Schrodinger Suite 2021-1.
 53 55  0  0  1  0            999 V2000
    0.2976   27.7576   57.8970 C   0  0  0  0  0  0
   -0.9012   28.7346   57.9124 C   0  0  1  0  0  0
   -0.6879   29.9211   56.9357 C   0  0  0  0  0  0
   -1.8396   30.9469   56.9625 C   0  0  0  0  0  0
   -3.2116   30.2880   56.7352 C   0  0  0  0  0  0
   -3.4124   29.0818   57.5846 N   0  0  3  0  0  0
   -2.3126   28.0751   57.7016 C   0  0  1  0  0  0
   -2.3349   27.1409   56.4688 C   0  0  0  0  0  0
   -2.3390   27.5741   55.3100 O   0  0  0  0  0  0
   -2.3390   25.8301   56.7330 N   0  0  0  0  0  0
   -2.3390   24.9700   55.6428 O   0  0  0  0  0  0
   -5.0703   28.6165   57.9985 S   0  0  0  0  0  0
   -5.0555   27.3700   58.7740 O   0  0  0  0  0  0
   -5.7348   29.8159   58.5100 O   0  0  0  0  0  0
   -5.8654   28.2623   56.4422 C   0  0  0  0  0  0
   -5.9156   26.9715   55.9053 C   0  0  0  0  0  0
   -6.5787   26.7578   54.6941 C   0  0  0  0  0  0
   -7.1999   27.8333   54.0383 C   0  0  0  0  0  0
   -7.1390   29.1034   54.5958 C   0  0  0  0  0  0
   -6.4653   29.3279   55.7799 C   0  0  0  0  0  0
   -7.9018   27.7542   52.8573 O   0  0  0  0  0  0
   -7.7881   26.6000   52.0424 C   0  0  0  0  0  0
   -8.3127   26.9649   50.6628 C   0  0  0  0  0  0
   -7.5390   27.7700   49.8243 C   0  0  0  0  0  0
   -8.0219   28.1700   48.5779 C   0  0  0  0  0  0
   -9.2880   27.7614   48.1613 C   0  0  0  0  0  0
  -10.0637   26.9515   48.9905 C   0  0  0  0  0  0
   -9.5767   26.5518   50.2353 C   0  0  0  0  0  0
  -10.3390   25.7700   51.0292 F   0  0  0  0  0  0
   -9.8967   28.2553   46.6246 Cl  0  0  0  0  0  0
   -0.9013   29.2623   59.2285 O   0  0  0  0  0  0
   -2.5429   27.4422   58.5607 H   0  0  0  0  0  0
    0.4574   27.3247   56.9100 H   0  0  0  0  0  0
    1.2263   28.2597   58.1735 H   0  0  0  0  0  0
    0.1554   26.9316   58.5951 H   0  0  0  0  0  0
    0.2736   30.4013   57.1238 H   0  0  0  0  0  0
   -0.5855   29.5334   55.9217 H   0  0  0  0  0  0
   -1.6732   31.7180   56.2095 H   0  0  0  0  0  0
   -1.8477   31.4660   57.9221 H   0  0  0  0  0  0
   -3.2300   29.9611   55.6963 H   0  0  0  0  0  0
   -4.0276   30.9944   56.8909 H   0  0  0  0  0  0
   -2.4494   25.3647   57.6276 H   0  0  0  0  0  0
   -3.2028   24.5047   55.7121 H   0  0  0  0  0  0
   -5.4563   26.1382   56.4204 H   0  0  0  0  0  0
   -6.6194   25.7570   54.2904 H   0  0  0  0  0  0
   -7.6085   29.9365   54.1100 H   0  0  0  0  0  0
   -6.4290   30.3303   56.1824 H   0  0  0  0  0  0
   -6.7444   26.2953   51.9520 H   0  0  0  0  0  0
   -8.3402   25.7674   52.4776 H   0  0  0  0  0  0
   -6.5717   28.1103   50.1558 H   0  0  0  0  0  0
   -7.4140   28.8000   47.9438 H   0  0  0  0  0  0
  -11.0467   26.6375   48.6721 H   0  0  0  0  0  0
   -1.0109   28.5448   59.8553 H   0  0  0  0  0  0
  1  2  1  0  0  0
  1 33  1  0  0  0
  1 34  1  0  0  0
  1 35  1  0  0  0
  2  7  1  0  0  0
  2  3  1  0  0  0
  2 31  1  0  0  0
  3  4  1  0  0  0
  3 36  1  0  0  0
  3 37  1  0  0  0
  4  5  1  0  0  0
  4 38  1  0  0  0
  4 39  1  0  0  0
  5  6  1  0  0  0
  5 40  1  0  0  0
  5 41  1  0  0  0
  6  7  1  0  0  0
  6 12  1  0  0  0
  7 32  1  0  0  0
  7  8  1  0  0  0
  8  9  2  0  0  0
  8 10  1  0  0  0
 10 11  1  0  0  0
 10 42  1  0  0  0
 11 43  1  0  0  0
 12 13  2  0  0  0
 12 14  2  0  0  0
 12 15  1  0  0  0
 15 20  1  0  0  0
 15 16  2  0  0  0
 16 17  1  0  0  0
 16 44  1  0  0  0
 17 18  2  0  0  0
 17 45  1  0  0  0
 18 19  1  0  0  0
 18 21  1  0  0  0
 19 20  2  0  0  0
 19 46  1  0  0  0
 20 47  1  0  0  0
 21 22  1  0  0  0
 22 23  1  0  0  0
 22 48  1  0  0  0
 22 49  1  0  0  0
 23 28  1  0  0  0
 23 24  2  0  0  0
 24 25  1  0  0  0
 24 50  1  0  0  0
 25 26  2  0  0  0
 25 51  1  0  0  0
 26 27  1  0  0  0
 26 30  1  0  0  0
 27 28  2  0  0  0
 27 52  1  0  0  0
 28 29  1  0  0  0
 31 53  1  0  0  0
M  END
> <s_m_entry_id>
65294

> <s_m_entry_name>
ligand_docking-pose.44

> <s_m_Source_Path>
/home/csk/Desktop/cluster/DUD-E-result/mmp13

> <s_m_Source_File>
ligand_docking-pose.sdf

> <i_m_Source_File_Index>
44

> <i_lp_mmshare_version>
53161

> <r_lp_tautomer_probability>
1

> <s_lp_Force_Field>
OPLS_2005

> <r_lp_Energy>
29.753229

> <b_lp_Chiralities_Consistent>
1

> <s_lp_Variant>
310913-1

> <s_i_glide_gridfile>
glide-grid_830c

> <i_i_glide_lignum>
584

> <i_i_glide_rotatable_bonds>
9

> <r_i_docking_score>
-8.05892156614478

> <r_i_glide_ligand_efficiency>
-0.259965211811122

> <r_i_glide_ligand_efficiency_sa>
-0.816649685743501

> <r_i_glide_ligand_efficiency_ln>
-1.81753378945092

> <r_i_glide_gscore>
-8.05892156614478

> <r_i_glide_lipo>
-3.55994131331411

> <r_i_glide_hbond>
-0.0862514606081162

> <r_i_glide_metal>
0

> <r_i_glide_rewards>
-0.155338022992791

> <r_i_glide_evdw>
-47.3590126037598

> <r_i_glide_ecoul>
-15.0887794494629

> <r_i_glide_erotb>
0.63297982032394

> <r_i_glide_esite>
-0.259103041946285

> <r_i_glide_emodel>
-94.2469891276281

> <r_i_glide_energy>
-62.4477920532227

> <r_i_glide_einternal>
9.8970251083374

> <i_i_glide_confnum>
57

> <i_i_glide_posenum>
8

> <r_i_glide_eff_state_penalty>
0

> <i_f3d_flags>
0

> <s_user_duplicate_titles>
310913

> <s_m_subgroup_title>
dock_pv

> <s_m_subgroupid>
dock_pv1

> <b_m_subgroup_collapsed>
0

$$$$
188574
                    3D
 Schrodinger Suite 2021-1.
 43 45  0  0  1  0            999 V2000
   -9.7004   26.3500   50.5100 C   0  0  0  0  0  0
  -10.1749   26.9700   49.3563 C   0  0  0  0  0  0
   -9.3272   27.7845   48.6101 C   0  0  0  0  0  0
   -8.0098   27.9878   49.0104 C   0  0  0  0  0  0
   -7.5390   27.3700   50.1659 C   0  0  0  0  0  0
   -8.3856   26.5557   50.9247 C   0  0  0  0  0  0
   -7.9390   25.9000   52.0540 O   0  0  0  0  0  0
   -7.4109   26.5741   53.1384 C   0  0  0  0  0  0
   -7.4757   27.9637   53.2781 C   0  0  0  0  0  0
   -6.9471   28.5842   54.4001 C   0  0  0  0  0  0
   -6.3769   27.8176   55.4136 C   0  0  0  0  0  0
   -6.3100   26.4290   55.2946 C   0  0  0  0  0  0
   -6.8150   25.8155   54.1488 C   0  0  0  0  0  0
   -5.7620   28.6752   56.8530 S   0  0  0  0  0  0
   -5.4558   27.6891   57.8976 O   0  0  0  0  0  0
   -6.7040   29.7700   57.1048 O   0  0  0  0  0  0
   -4.2639   29.4161   56.3005 N   0  0  1  0  0  0
   -2.9356   28.7909   56.4883 C   0  0  0  0  0  0
   -1.7153   29.6689   56.1293 C   0  0  0  0  0  0
   -1.0270   29.2421   57.4353 C   0  0  0  0  0  0
   -2.3939   28.7637   57.9437 C   0  0  0  0  0  0
   -2.8765   27.4278   55.7187 C   0  0  0  0  0  0
   -3.1390   27.3700   54.5100 O   0  0  0  0  0  0
   -2.4831   26.3386   56.4008 N   0  0  0  0  0  0
   -2.3390   25.1351   55.7100 O   0  0  0  0  0  0
   -9.7896   28.3828   47.4901 F   0  0  0  0  0  0
  -10.3498   25.7085   51.0863 H   0  0  0  0  0  0
  -11.1945   26.8239   49.0332 H   0  0  0  0  0  0
   -7.3544   28.6200   48.4284 H   0  0  0  0  0  0
   -6.5139   27.5235   50.4707 H   0  0  0  0  0  0
   -7.9390   28.5700   52.5182 H   0  0  0  0  0  0
   -6.9971   29.6603   54.4876 H   0  0  0  0  0  0
   -5.8641   25.8243   56.0728 H   0  0  0  0  0  0
   -6.7496   24.7411   54.0514 H   0  0  0  0  0  0
   -4.3486   30.0448   55.4923 H   0  0  0  0  0  0
   -1.9543   30.7339   56.0930 H   0  0  0  0  0  0
   -1.1782   29.4141   55.2138 H   0  0  0  0  0  0
   -0.5721   30.0502   58.0103 H   0  0  0  0  0  0
   -0.3056   28.4335   57.3030 H   0  0  0  0  0  0
   -2.3996   27.8136   58.4778 H   0  0  0  0  0  0
   -2.8913   29.4941   58.5854 H   0  0  0  0  0  0
   -2.3144   26.2577   57.3956 H   0  0  0  0  0  0
   -3.1009   24.6025   56.0074 H   0  0  0  0  0  0
  1  6  1  0  0  0
  1  2  2  0  0  0
  1 27  1  0  0  0
  2  3  1  0  0  0
  2 28  1  0  0  0
  3  4  2  0  0  0
  3 26  1  0  0  0
  4  5  1  0  0  0
  4 29  1  0  0  0
  5  6  2  0  0  0
  5 30  1  0  0  0
  6  7  1  0  0  0
  7  8  1  0  0  0
  8 13  1  0  0  0
  8  9  2  0  0  0
  9 10  1  0  0  0
  9 31  1  0  0  0
 10 11  2  0  0  0
 10 32  1  0  0  0
 11 12  1  0  0  0
 11 14  1  0  0  0
 12 13  2  0  0  0
 12 33  1  0  0  0
 13 34  1  0  0  0
 14 15  2  0  0  0
 14 16  2  0  0  0
 14 17  1  0  0  0
 17 18  1  0  0  0
 17 35  1  0  0  0
 18 21  1  0  0  0
 18 19  1  0  0  0
 18 22  1  0  0  0
 19 20  1  0  0  0
 19 36  1  0  0  0
 19 37  1  0  0  0
 20 21  1  0  0  0
 20 38  1  0  0  0
 20 39  1  0  0  0
 21 40  1  0  0  0
 21 41  1  0  0  0
 22 23  2  0  0  0
 22 24  1  0  0  0
 24 25  1  0  0  0
 24 42  1  0  0  0
 25 43  1  0  0  0
M  END
> <s_m_entry_id>
65295

> <s_m_entry_name>
ligand_docking-pose.45

> <s_m_Source_Path>
/home/csk/Desktop/cluster/DUD-E-result/mmp13

> <s_m_Source_File>
ligand_docking-pose.sdf

> <i_m_Source_File_Index>
45

> <i_lp_mmshare_version>
53161

> <r_lp_tautomer_probability>
1

> <s_lp_Force_Field>
OPLS_2005

> <r_lp_Energy>
33.368164

> <b_lp_Chiralities_Consistent>
1

> <s_lp_Variant>
188574-1

> <s_i_glide_gridfile>
glide-grid_830c

> <i_i_glide_lignum>
270

> <i_i_glide_rotatable_bonds>
8

> <r_i_docking_score>
-8.02762567110009

> <r_i_glide_ligand_efficiency>
-0.30875483350385

> <r_i_glide_ligand_efficiency_sa>
-0.914684979363549

> <r_i_glide_ligand_efficiency_ln>
-1.88526154806958

> <r_i_glide_gscore>
-8.02762567110009

> <r_i_glide_lipo>
-3.25064915569497

> <r_i_glide_hbond>
-0.303977390038741

> <r_i_glide_metal>
0

> <r_i_glide_rewards>
-0.700390268888051

> <r_i_glide_evdw>
-46.7037315368652

> <r_i_glide_ecoul>
-14.2961587905884

> <r_i_glide_erotb>
0.938507249508032

> <r_i_glide_esite>
-0.231505710554839

> <r_i_glide_emodel>
-95.0118262254456

> <r_i_glide_energy>
-60.9998903274536

> <r_i_glide_einternal>
6.87248659133911

> <i_i_glide_confnum>
21

> <i_i_glide_posenum>
25

> <r_i_glide_eff_state_penalty>
0

> <i_f3d_flags>
0

> <s_user_duplicate_titles>
188574

> <s_m_subgroup_title>
dock_pv

> <s_m_subgroupid>
dock_pv1

> <b_m_subgroup_collapsed>
0

$$$$
303920
                    3D
 Schrodinger Suite 2021-1.
 51 53  0  0  1  0            999 V2000
   -6.7935   31.6528   57.2811 C   0  0  0  0  0  0
   -5.2686   31.7399   57.1803 C   0  0  0  0  0  0
   -4.7164   30.9277   58.2078 O   0  0  0  0  0  0
   -3.3025   30.7815   58.1818 C   0  0  0  0  0  0
   -2.8010   29.7950   57.0931 C   0  0  0  0  0  0
   -3.5444   28.4148   56.9698 C   0  0  2  0  0  0
   -3.8139   27.7680   58.3417 C   0  0  0  0  0  0
   -4.9427   27.5808   58.8058 O   0  0  0  0  0  0
   -2.4866   27.3560   59.0326 C   0  0  2  0  0  0
   -1.5386   26.5434   58.1000 C   0  0  0  0  0  0
   -0.6551   25.7695   58.4644 O   0  0  0  0  0  0
   -1.7090   26.7572   56.7826 N   0  0  0  0  0  0
   -2.6517   27.4541   56.1095 C   0  0  0  0  0  0
   -2.7391   27.2918   54.8999 O   0  0  0  0  0  0
   -2.7410   26.5697   60.2316 N   0  0  0  0  0  0
   -4.7459   28.8305   56.2809 O   0  0  0  0  0  0
   -5.6239   28.0606   55.5407 C   0  0  0  0  0  0
   -5.6958   26.6621   55.5182 C   0  0  0  0  0  0
   -6.5508   26.0302   54.6122 C   0  0  0  0  0  0
   -7.3447   26.7790   53.7422 C   0  0  0  0  0  0
   -7.3367   28.1701   53.8405 C   0  0  0  0  0  0
   -6.4804   28.8002   54.7306 C   0  0  0  0  0  0
   -8.1558   26.1187   52.8417 O   0  0  0  0  0  0
   -8.3611   26.5696   51.5489 C   0  0  0  0  0  0
   -7.4413   27.3643   50.8503 C   0  0  0  0  0  0
   -7.7129   27.7707   49.5479 C   0  0  0  0  0  0
   -8.9063   27.3963   48.9386 C   0  0  0  0  0  0
   -9.8191   26.5917   49.6137 C   0  0  0  0  0  0
   -9.5368   26.1701   50.9102 C   0  0  0  0  0  0
   -9.2565   27.9311   47.3365 Cl  0  0  0  0  0  0
   -7.2730   32.2614   56.5146 H   0  0  0  0  0  0
   -7.1347   30.6235   57.1577 H   0  0  0  0  0  0
   -7.1417   31.9997   58.2548 H   0  0  0  0  0  0
   -4.9481   31.4091   56.1920 H   0  0  0  0  0  0
   -4.9415   32.7738   57.3028 H   0  0  0  0  0  0
   -2.8158   31.7533   58.0806 H   0  0  0  0  0  0
   -3.0062   30.4134   59.1642 H   0  0  0  0  0  0
   -2.8442   30.3081   56.1290 H   0  0  0  0  0  0
   -1.7327   29.6507   57.2678 H   0  0  0  0  0  0
   -1.9398   28.2560   59.3129 H   0  0  0  0  0  0
   -1.0751   26.2142   56.2200 H   0  0  0  0  0  0
   -3.0746   27.1515   60.9885 H   0  0  0  0  0  0
   -3.4719   25.8931   60.0164 H   0  0  0  0  0  0
   -5.0807   26.0564   56.1667 H   0  0  0  0  0  0
   -6.5756   24.9512   54.5687 H   0  0  0  0  0  0
   -7.9632   28.7665   53.1988 H   0  0  0  0  0  0
   -6.4393   29.8788   54.7594 H   0  0  0  0  0  0
   -6.5051   27.6582   51.3014 H   0  0  0  0  0  0
   -6.9987   28.3841   49.0159 H   0  0  0  0  0  0
  -10.7390   26.2960   49.1309 H   0  0  0  0  0  0
  -10.2410   25.5399   51.4321 H   0  0  0  0  0  0
  1  2  1  0  0  0
  1 31  1  0  0  0
  1 32  1  0  0  0
  1 33  1  0  0  0
  2  3  1  0  0  0
  2 34  1  0  0  0
  2 35  1  0  0  0
  3  4  1  0  0  0
  4  5  1  0  0  0
  4 36  1  0  0  0
  4 37  1  0  0  0
  5  6  1  0  0  0
  5 38  1  0  0  0
  5 39  1  0  0  0
  6 13  1  0  0  0
  6  7  1  0  0  0
  6 16  1  0  0  0
  7  8  2  0  0  0
  7  9  1  0  0  0
  9 10  1  0  0  0
  9 15  1  0  0  0
  9 40  1  0  0  0
 10 11  2  0  0  0
 10 12  1  0  0  0
 12 13  1  0  0  0
 12 41  1  0  0  0
 13 14  2  0  0  0
 15 42  1  0  0  0
 15 43  1  0  0  0
 16 17  1  0  0  0
 17 22  1  0  0  0
 17 18  2  0  0  0
 18 19  1  0  0  0
 18 44  1  0  0  0
 19 20  2  0  0  0
 19 45  1  0  0  0
 20 21  1  0  0  0
 20 23  1  0  0  0
 21 22  2  0  0  0
 21 46  1  0  0  0
 22 47  1  0  0  0
 23 24  1  0  0  0
 24 29  1  0  0  0
 24 25  2  0  0  0
 25 26  1  0  0  0
 25 48  1  0  0  0
 26 27  2  0  0  0
 26 49  1  0  0  0
 27 28  1  0  0  0
 27 30  1  0  0  0
 28 29  2  0  0  0
 28 50  1  0  0  0
 29 51  1  0  0  0
M  END
> <s_m_entry_id>
65296

> <s_m_entry_name>
ligand_docking-pose.46

> <s_m_Source_Path>
/home/csk/Desktop/cluster/DUD-E-result/mmp13

> <s_m_Source_File>
ligand_docking-pose.sdf

> <i_m_Source_File_Index>
46

> <i_lp_mmshare_version>
53161

> <r_lp_tautomer_probability>
1

> <s_lp_Force_Field>
OPLS_2005

> <r_lp_Energy>
30.415831

> <b_lp_Chiralities_Consistent>
1

> <s_lp_Variant>
303920-3

> <s_i_glide_gridfile>
glide-grid_830c

> <i_i_glide_lignum>
1708

> <i_i_glide_rotatable_bonds>
8

> <r_i_docking_score>
-8.02401806896384

> <r_i_glide_ligand_efficiency>
-0.267467268965461

> <r_i_glide_ligand_efficiency_sa>
-0.831082991465959

> <r_i_glide_ligand_efficiency_ln>
-1.82314433394793

> <r_i_glide_gscore>
-8.02401806896384

> <r_i_glide_lipo>
-3.03954161178318

> <r_i_glide_hbond>
-0.759006404727237

> <r_i_glide_metal>
0

> <r_i_glide_rewards>
-0.641605708950869

> <r_i_glide_evdw>
-51.4708061218262

> <r_i_glide_ecoul>
-10.4162693023682

> <r_i_glide_erotb>
0.743557516223693

> <r_i_glide_esite>
-0.191441158279712

> <r_i_glide_emodel>
-80.686409770981

> <r_i_glide_energy>
-61.8870754241943

> <r_i_glide_einternal>
10.1794691085815

> <i_i_glide_confnum>
6

> <i_i_glide_posenum>
284

> <r_i_glide_eff_state_penalty>
0

> <i_f3d_flags>
0

> <s_user_duplicate_titles>
303920

> <s_m_subgroup_title>
dock_pv

> <s_m_subgroupid>
dock_pv1

> <b_m_subgroup_collapsed>
0

$$$$
304046
                    3D
 Schrodinger Suite 2021-1.
 52 54  0  0  1  0            999 V2000
   -6.8235   31.6040   57.3089 C   0  0  0  0  0  0
   -5.3028   31.7399   57.2058 C   0  0  0  0  0  0
   -4.7210   30.9077   58.1995 O   0  0  0  0  0  0
   -3.3056   30.7871   58.1457 C   0  0  0  0  0  0
   -2.8066   29.8338   57.0260 C   0  0  0  0  0  0
   -3.5414   28.4512   56.8722 C   0  0  2  0  0  0
   -3.8145   27.7741   58.2309 C   0  0  0  0  0  0
   -4.9436   27.5728   58.6891 O   0  0  0  0  0  0
   -2.4872   27.3672   58.9186 C   0  0  2  0  0  0
   -1.5424   26.5665   57.9734 C   0  0  0  0  0  0
   -0.6732   25.7701   58.3242 O   0  0  0  0  0  0
   -1.7005   26.8119   56.6586 N   0  0  0  0  0  0
   -2.6462   27.5111   55.9868 C   0  0  0  0  0  0
   -2.7395   27.3700   54.7693 O   0  0  0  0  0  0
   -2.7382   26.5700   60.1099 N   0  0  0  0  0  0
   -4.7426   28.8717   56.1936 O   0  0  0  0  0  0
   -5.6319   28.0909   55.4829 C   0  0  0  0  0  0
   -5.6870   26.6914   55.4682 C   0  0  0  0  0  0
   -6.5497   26.0465   54.5818 C   0  0  0  0  0  0
   -7.3665   26.7865   53.7279 C   0  0  0  0  0  0
   -7.3802   28.1762   53.8265 C   0  0  0  0  0  0
   -6.5148   28.8204   54.6947 C   0  0  0  0  0  0
   -8.1794   26.1254   52.8348 O   0  0  0  0  0  0
   -8.3684   26.5715   51.5399 C   0  0  0  0  0  0
   -7.4501   27.3694   50.8428 C   0  0  0  0  0  0
   -7.7227   27.7794   49.5410 C   0  0  0  0  0  0
   -8.9157   27.3986   48.9270 C   0  0  0  0  0  0
   -9.8207   26.5837   49.6046 C   0  0  0  0  0  0
   -9.5394   26.1702   50.9028 C   0  0  0  0  0  0
   -9.2216   27.8469   47.5769 C   0  0  0  0  0  0
   -9.4702   28.2006   46.5040 N   0  0  0  0  0  0
   -7.3258   32.2220   56.5659 H   0  0  0  0  0  0
   -7.1336   30.5706   57.1533 H   0  0  0  0  0  0
   -7.1749   31.9077   58.2949 H   0  0  0  0  0  0
   -4.9787   31.4548   56.2052 H   0  0  0  0  0  0
   -5.0038   32.7767   57.3662 H   0  0  0  0  0  0
   -2.8362   31.7690   58.0598 H   0  0  0  0  0  0
   -2.9885   30.4022   59.1153 H   0  0  0  0  0  0
   -2.8642   30.3720   56.0769 H   0  0  0  0  0  0
   -1.7355   29.6943   57.1848 H   0  0  0  0  0  0
   -1.9416   28.2625   59.2176 H   0  0  0  0  0  0
   -1.0571   26.2704   56.1081 H   0  0  0  0  0  0
   -3.1198   27.1354   60.8554 H   0  0  0  0  0  0
   -3.4353   25.8622   59.8770 H   0  0  0  0  0  0
   -5.0519   26.0937   56.1048 H   0  0  0  0  0  0
   -6.5617   24.9670   54.5401 H   0  0  0  0  0  0
   -8.0272   28.7614   53.1959 H   0  0  0  0  0  0
   -6.4857   29.8995   54.7194 H   0  0  0  0  0  0
   -6.5169   27.6693   51.2967 H   0  0  0  0  0  0
   -7.0021   28.4007   49.0250 H   0  0  0  0  0  0
  -10.7389   26.2695   49.1310 H   0  0  0  0  0  0
  -10.2414   25.5377   51.4249 H   0  0  0  0  0  0
  1  2  1  0  0  0
  1 32  1  0  0  0
  1 33  1  0  0  0
  1 34  1  0  0  0
  2  3  1  0  0  0
  2 35  1  0  0  0
  2 36  1  0  0  0
  3  4  1  0  0  0
  4  5  1  0  0  0
  4 37  1  0  0  0
  4 38  1  0  0  0
  5  6  1  0  0  0
  5 39  1  0  0  0
  5 40  1  0  0  0
  6 13  1  0  0  0
  6  7  1  0  0  0
  6 16  1  0  0  0
  7  8  2  0  0  0
  7  9  1  0  0  0
  9 10  1  0  0  0
  9 15  1  0  0  0
  9 41  1  0  0  0
 10 11  2  0  0  0
 10 12  1  0  0  0
 12 13  1  0  0  0
 12 42  1  0  0  0
 13 14  2  0  0  0
 15 43  1  0  0  0
 15 44  1  0  0  0
 16 17  1  0  0  0
 17 22  1  0  0  0
 17 18  2  0  0  0
 18 19  1  0  0  0
 18 45  1  0  0  0
 19 20  2  0  0  0
 19 46  1  0  0  0
 20 21  1  0  0  0
 20 23  1  0  0  0
 21 22  2  0  0  0
 21 47  1  0  0  0
 22 48  1  0  0  0
 23 24  1  0  0  0
 24 29  1  0  0  0
 24 25  2  0  0  0
 25 26  1  0  0  0
 25 49  1  0  0  0
 26 27  2  0  0  0
 26 50  1  0  0  0
 27 28  1  0  0  0
 27 30  1  0  0  0
 28 29  2  0  0  0
 28 51  1  0  0  0
 29 52  1  0  0  0
 30 31  3  0  0  0
M  END
> <s_m_entry_id>
65298

> <s_m_entry_name>
ligand_docking-pose.48

> <s_m_Source_Path>
/home/csk/Desktop/cluster/DUD-E-result/mmp13

> <s_m_Source_File>
ligand_docking-pose.sdf

> <i_m_Source_File_Index>
48

> <i_lp_mmshare_version>
53161

> <r_lp_tautomer_probability>
1

> <s_lp_Force_Field>
OPLS_2005

> <r_lp_Energy>
31.811105

> <b_lp_Chiralities_Consistent>
1

> <s_lp_Variant>
304046-3

> <s_i_glide_gridfile>
glide-grid_830c

> <i_i_glide_lignum>
1716

> <i_i_glide_rotatable_bonds>
8

> <r_i_docking_score>
-8.00600531274209

> <r_i_glide_ligand_efficiency>
-0.258258235894906

> <r_i_glide_ligand_efficiency_sa>
-0.81128742463234

> <r_i_glide_ligand_efficiency_ln>
-1.8055995526202

> <r_i_glide_gscore>
-8.00600531274209

> <r_i_glide_lipo>
-2.78219022965843

> <r_i_glide_hbond>
-0.789942901755248

> <r_i_glide_metal>
0

> <r_i_glide_rewards>
-0.709540821657994

> <r_i_glide_evdw>
-53.5226974487305

> <r_i_glide_ecoul>
-10.761646270752

> <r_i_glide_erotb>
0.773828938532775

> <r_i_glide_esite>
-0.207778485153877

> <r_i_glide_emodel>
-83.8305711132308

> <r_i_glide_energy>
-64.2843437194824

> <r_i_glide_einternal>
9.64763355255127

> <i_i_glide_confnum>
1

> <i_i_glide_posenum>
5

> <r_i_glide_eff_state_penalty>
0

> <i_f3d_flags>
0

> <s_user_duplicate_titles>
304046

> <s_m_subgroup_title>
dock_pv

> <s_m_subgroupid>
dock_pv1

> <b_m_subgroup_collapsed>
0

$$$$
308978
                    3D
 Schrodinger Suite 2021-1.
 56 58  0  0  1  0            999 V2000
    1.6566   28.3140   58.3045 C   0  0  0  0  0  0
    0.2744   27.7527   57.9158 C   0  0  0  0  0  0
   -0.9205   28.7582   57.9331 C   0  0  1  0  0  0
   -0.7204   29.9549   56.9602 C   0  0  0  0  0  0
   -1.8943   30.9569   56.9522 C   0  0  0  0  0  0
   -3.2522   30.2768   56.7194 C   0  0  0  0  0  0
   -3.4434   29.0890   57.5932 N   0  0  2  0  0  0
   -2.3346   28.0937   57.7196 C   0  0  1  0  0  0
   -2.3489   27.1504   56.4923 C   0  0  0  0  0  0
   -2.3409   27.5729   55.3283 O   0  0  0  0  0  0
   -2.3516   25.8421   56.7709 N   0  0  0  0  0  0
   -2.3390   24.9700   55.6907 O   0  0  0  0  0  0
   -5.1006   28.6131   58.0038 S   0  0  0  0  0  0
   -5.0812   27.3712   58.7863 O   0  0  0  0  0  0
   -5.7767   29.8086   58.5101 O   0  0  0  0  0  0
   -5.8874   28.2518   56.4445 C   0  0  0  0  0  0
   -6.4701   29.3225   55.7781 C   0  0  0  0  0  0
   -7.1372   29.1059   54.5909 C   0  0  0  0  0  0
   -7.2149   27.8388   54.0300 C   0  0  0  0  0  0
   -6.6088   26.7565   54.6892 C   0  0  0  0  0  0
   -5.9457   26.9633   55.9043 C   0  0  0  0  0  0
   -7.9124   27.7752   52.8446 O   0  0  0  0  0  0
   -7.9298   26.5831   52.0749 C   0  0  0  0  0  0
   -8.4724   26.9370   50.6980 C   0  0  0  0  0  0
   -7.7067   27.7367   49.8443 C   0  0  0  0  0  0
   -8.2058   28.1075   48.5986 C   0  0  0  0  0  0
   -9.4723   27.6826   48.2094 C   0  0  0  0  0  0
  -10.2410   26.8867   49.0548 C   0  0  0  0  0  0
   -9.7415   26.5082   50.2989 C   0  0  0  0  0  0
   -9.9624   28.0477   47.0039 F   0  0  0  0  0  0
   -0.9613   29.2918   59.2482 O   0  0  0  0  0  0
   -2.5666   27.4646   58.5809 H   0  0  0  0  0  0
    2.4072   27.5232   58.3017 H   0  0  0  0  0  0
    1.6516   28.7532   59.3022 H   0  0  0  0  0  0
    1.9951   29.0783   57.6049 H   0  0  0  0  0  0
    0.3700   27.3096   56.9253 H   0  0  0  0  0  0
    0.0479   26.9182   58.5809 H   0  0  0  0  0  0
    0.2121   30.4754   57.1821 H   0  0  0  0  0  0
   -0.5692   29.5709   55.9511 H   0  0  0  0  0  0
   -1.7298   31.7198   56.1901 H   0  0  0  0  0  0
   -1.9246   31.4904   57.9032 H   0  0  0  0  0  0
   -3.2511   29.9279   55.6861 H   0  0  0  0  0  0
   -4.0806   30.9750   56.8507 H   0  0  0  0  0  0
   -2.4765   25.3836   57.6687 H   0  0  0  0  0  0
   -3.2046   24.5074   55.7518 H   0  0  0  0  0  0
   -6.4256   30.3250   56.1781 H   0  0  0  0  0  0
   -7.5815   29.9543   54.1126 H   0  0  0  0  0  0
   -6.6565   25.7578   54.2837 H   0  0  0  0  0  0
   -5.4955   26.1257   56.4208 H   0  0  0  0  0  0
   -6.9217   26.1856   51.9547 H   0  0  0  0  0  0
   -8.5362   25.8152   52.5591 H   0  0  0  0  0  0
   -6.7309   28.0861   50.1500 H   0  0  0  0  0  0
   -7.6146   28.7289   47.9417 H   0  0  0  0  0  0
  -11.2239   26.5712   48.7398 H   0  0  0  0  0  0
  -10.3431   25.8898   50.9496 H   0  0  0  0  0  0
   -1.0500   28.5733   59.8760 H   0  0  0  0  0  0
  1  2  1  0  0  0
  1 33  1  0  0  0
  1 34  1  0  0  0
  1 35  1  0  0  0
  2  3  1  0  0  0
  2 36  1  0  0  0
  2 37  1  0  0  0
  3  8  1  0  0  0
  3  4  1  0  0  0
  3 31  1  0  0  0
  4  5  1  0  0  0
  4 38  1  0  0  0
  4 39  1  0  0  0
  5  6  1  0  0  0
  5 40  1  0  0  0
  5 41  1  0  0  0
  6  7  1  0  0  0
  6 42  1  0  0  0
  6 43  1  0  0  0
  7  8  1  0  0  0
  7 13  1  0  0  0
  8 32  1  0  0  0
  8  9  1  0  0  0
  9 10  2  0  0  0
  9 11  1  0  0  0
 11 12  1  0  0  0
 11 44  1  0  0  0
 12 45  1  0  0  0
 13 14  2  0  0  0
 13 15  2  0  0  0
 13 16  1  0  0  0
 16 21  1  0  0  0
 16 17  2  0  0  0
 17 18  1  0  0  0
 17 46  1  0  0  0
 18 19  2  0  0  0
 18 47  1  0  0  0
 19 20  1  0  0  0
 19 22  1  0  0  0
 20 21  2  0  0  0
 20 48  1  0  0  0
 21 49  1  0  0  0
 22 23  1  0  0  0
 23 24  1  0  0  0
 23 50  1  0  0  0
 23 51  1  0  0  0
 24 29  1  0  0  0
 24 25  2  0  0  0
 25 26  1  0  0  0
 25 52  1  0  0  0
 26 27  2  0  0  0
 26 53  1  0  0  0
 27 28  1  0  0  0
 27 30  1  0  0  0
 28 29  2  0  0  0
 28 54  1  0  0  0
 29 55  1  0  0  0
 31 56  1  0  0  0
M  END
> <s_m_entry_id>
65309

> <s_m_entry_name>
ligand_docking-pose.59

> <s_m_Source_Path>
/home/csk/Desktop/cluster/DUD-E-result/mmp13

> <s_m_Source_File>
ligand_docking-pose.sdf

> <i_m_Source_File_Index>
59

> <i_lp_mmshare_version>
53161

> <r_lp_tautomer_probability>
1

> <s_lp_Force_Field>
OPLS_2005

> <r_lp_Energy>
28.523183

> <b_lp_Chiralities_Consistent>
1

> <s_lp_Variant>
308978-1

> <s_i_glide_gridfile>
glide-grid_830c

> <i_i_glide_lignum>
718

> <i_i_glide_rotatable_bonds>
10

> <r_i_docking_score>
-7.79408586959047

> <r_i_glide_ligand_efficiency>
-0.251422124825499

> <r_i_glide_ligand_efficiency_sa>
-0.789812597605888

> <r_i_glide_ligand_efficiency_ln>
-1.75780522363855

> <r_i_glide_gscore>
-7.79408586959047

> <r_i_glide_lipo>
-3.3747308392711

> <r_i_glide_hbond>
-0.109644689774922

> <r_i_glide_metal>
0

> <r_i_glide_rewards>
-0.238595216464211

> <r_i_glide_evdw>
-48.3125

> <r_i_glide_ecoul>
-13.8740797042847

> <r_i_glide_erotb>
0.68599001192576

> <r_i_glide_esite>
-0.260368180363295

> <r_i_glide_emodel>
-90.7349962897515

> <r_i_glide_energy>
-62.1865797042847

> <r_i_glide_einternal>
14.204571723938

> <i_i_glide_confnum>
67

> <i_i_glide_posenum>
146

> <r_i_glide_eff_state_penalty>
0

> <i_f3d_flags>
0

> <s_user_duplicate_titles>
308978

> <s_m_subgroup_title>
dock_pv

> <s_m_subgroupid>
dock_pv1

> <b_m_subgroup_collapsed>
0

$$$$
303907
                    3D
 Schrodinger Suite 2021-1.
 54 56  0  0  1  0            999 V2000
   -5.8532   34.0260   56.4219 C   0  0  0  0  0  0
   -6.3610   33.1370   57.5685 C   0  0  0  0  0  0
   -6.7580   31.8527   57.1014 O   0  0  0  0  0  0
   -5.6943   30.9457   56.8441 C   0  0  0  0  0  0
   -6.3186   29.6539   56.2919 C   0  0  0  0  0  0
   -5.4713   28.3293   56.1349 C   0  0  1  0  0  0
   -4.0707   28.3808   55.4333 C   0  0  0  0  0  0
   -3.7803   27.7283   54.4243 O   0  0  0  0  0  0
   -3.0208   29.2111   56.2226 C   0  0  1  0  0  0
   -3.0023   28.8407   57.7370 C   0  0  0  0  0  0
   -2.0935   29.1467   58.5078 O   0  0  0  0  0  0
   -4.0792   28.1674   58.1947 N   0  0  0  0  0  0
   -5.2022   27.7481   57.5665 C   0  0  0  0  0  0
   -5.9390   26.9702   58.1562 O   0  0  0  0  0  0
   -1.6711   28.9806   55.7096 N   0  0  0  0  0  0
   -6.4184   27.4026   55.5283 O   0  0  0  0  0  0
   -6.8333   27.4393   54.1963 C   0  0  0  0  0  0
   -7.6733   26.4181   53.7594 C   0  0  0  0  0  0
   -7.9582   26.2332   52.4005 C   0  0  0  0  0  0
   -7.4340   27.1255   51.4651 C   0  0  0  0  0  0
   -6.7208   28.2189   51.9130 C   0  0  0  0  0  0
   -6.4525   28.3999   53.2615 C   0  0  0  0  0  0
   -7.4077   26.8815   50.1140 O   0  0  0  0  0  0
   -8.4788   27.1077   49.2892 C   0  0  0  0  0  0
   -9.5195   26.1801   49.2812 C   0  0  0  0  0  0
  -10.4201   26.1853   48.2181 C   0  0  0  0  0  0
  -10.4021   27.1838   47.2533 C   0  0  0  0  0  0
   -9.4129   28.1533   47.2988 C   0  0  0  0  0  0
   -8.4207   28.0891   48.2769 C   0  0  0  0  0  0
   -7.2261   28.9948   48.0944 C   0  0  0  0  0  0
   -5.6471   35.0356   56.7782 H   0  0  0  0  0  0
   -4.9346   33.6416   55.9809 H   0  0  0  0  0  0
   -6.6003   34.1012   55.6324 H   0  0  0  0  0  0
   -5.6203   33.0561   58.3682 H   0  0  0  0  0  0
   -7.2414   33.6051   58.0139 H   0  0  0  0  0  0
   -5.0207   31.3799   56.1084 H   0  0  0  0  0  0
   -5.1457   30.7621   57.7683 H   0  0  0  0  0  0
   -7.1662   29.4200   56.9380 H   0  0  0  0  0  0
   -6.7998   29.9311   55.3585 H   0  0  0  0  0  0
   -3.2252   30.2730   56.1173 H   0  0  0  0  0  0
   -3.9915   27.8554   59.1488 H   0  0  0  0  0  0
   -1.6599   29.1862   54.7171 H   0  0  0  0  0  0
   -1.0480   29.6638   56.1253 H   0  0  0  0  0  0
   -8.0679   25.7678   54.5113 H   0  0  0  0  0  0
   -8.5114   25.3718   52.0668 H   0  0  0  0  0  0
   -6.3397   28.9331   51.2006 H   0  0  0  0  0  0
   -5.9155   29.2800   53.5492 H   0  0  0  0  0  0
   -9.5383   25.3709   49.9933 H   0  0  0  0  0  0
  -11.1379   25.3935   48.1098 H   0  0  0  0  0  0
  -11.1282   27.1856   46.4532 H   0  0  0  0  0  0
   -9.3690   28.9004   46.5193 H   0  0  0  0  0  0
   -7.0321   29.1285   47.0326 H   0  0  0  0  0  0
   -7.3873   29.9829   48.5100 H   0  0  0  0  0  0
   -6.3391   28.5370   48.5098 H   0  0  0  0  0  0
  1  2  1  0  0  0
  1 31  1  0  0  0
  1 32  1  0  0  0
  1 33  1  0  0  0
  2  3  1  0  0  0
  2 34  1  0  0  0
  2 35  1  0  0  0
  3  4  1  0  0  0
  4  5  1  0  0  0
  4 36  1  0  0  0
  4 37  1  0  0  0
  5  6  1  0  0  0
  5 38  1  0  0  0
  5 39  1  0  0  0
  6 13  1  0  0  0
  6  7  1  0  0  0
  6 16  1  0  0  0
  7  8  2  0  0  0
  7  9  1  0  0  0
  9 10  1  0  0  0
  9 15  1  0  0  0
  9 40  1  0  0  0
 10 11  2  0  0  0
 10 12  1  0  0  0
 12 13  1  0  0  0
 12 41  1  0  0  0
 13 14  2  0  0  0
 15 42  1  0  0  0
 15 43  1  0  0  0
 16 17  1  0  0  0
 17 22  1  0  0  0
 17 18  2  0  0  0
 18 19  1  0  0  0
 18 44  1  0  0  0
 19 20  2  0  0  0
 19 45  1  0  0  0
 20 21  1  0  0  0
 20 23  1  0  0  0
 21 22  2  0  0  0
 21 46  1  0  0  0
 22 47  1  0  0  0
 23 24  1  0  0  0
 24 29  1  0  0  0
 24 25  2  0  0  0
 25 26  1  0  0  0
 25 48  1  0  0  0
 26 27  2  0  0  0
 26 49  1  0  0  0
 27 28  1  0  0  0
 27 50  1  0  0  0
 28 29  2  0  0  0
 28 51  1  0  0  0
 29 30  1  0  0  0
 30 52  1  0  0  0
 30 53  1  0  0  0
 30 54  1  0  0  0
M  END
> <s_m_entry_id>
65317

> <s_m_entry_name>
ligand_docking-pose.67

> <s_m_Source_Path>
/home/csk/Desktop/cluster/DUD-E-result/mmp13

> <s_m_Source_File>
ligand_docking-pose.sdf

> <i_m_Source_File_Index>
67

> <i_lp_mmshare_version>
53161

> <r_lp_tautomer_probability>
1

> <s_lp_Force_Field>
OPLS_2005

> <r_lp_Energy>
31.305907

> <b_lp_Chiralities_Consistent>
1

> <s_lp_Variant>
303907-2

> <s_i_glide_gridfile>
glide-grid_830c

> <i_i_glide_lignum>
1631

> <i_i_glide_rotatable_bonds>
8

> <r_i_docking_score>
-7.70608129893098

> <r_i_glide_ligand_efficiency>
-0.256869376631032

> <r_i_glide_ligand_efficiency_sa>
-0.798152875947157

> <r_i_glide_ligand_efficiency_ln>
-1.7509056355979

> <r_i_glide_gscore>
-7.70608129893098

> <r_i_glide_lipo>
-3.95226724102263

> <r_i_glide_hbond>
-0.601322754115194

> <r_i_glide_metal>
0

> <r_i_glide_rewards>
-0.644299975165509

> <r_i_glide_evdw>
-41.598560333252

> <r_i_glide_ecoul>
-7.84705924987793

> <r_i_glide_erotb>
0.811462363898242

> <r_i_glide_esite>
-0.0626667883815925

> <r_i_glide_emodel>
-49.1060963957632

> <r_i_glide_energy>
-49.4456195831299

> <r_i_glide_einternal>
14.6719360351562

> <i_i_glide_confnum>
9

> <i_i_glide_posenum>
1

> <r_i_glide_eff_state_penalty>
0

> <i_f3d_flags>
0

> <s_user_duplicate_titles>
303907

> <s_m_subgroup_title>
dock_pv

> <s_m_subgroupid>
dock_pv1

> <b_m_subgroup_collapsed>
0

$$$$
303885
                    3D
 Schrodinger Suite 2021-1.
 54 56  0  0  1  0            999 V2000
    0.9885   25.3340   58.5173 C   0  0  0  0  0  0
   -0.4316   25.9038   58.4805 C   0  0  0  0  0  0
   -0.9211   25.8035   57.1443 O   0  0  0  0  0  0
   -2.3356   25.7850   56.9651 C   0  0  0  0  0  0
   -3.0971   26.9792   57.6063 C   0  0  0  0  0  0
   -4.0165   27.8060   56.6496 C   0  0  2  0  0  0
   -3.1088   28.5696   55.6580 C   0  0  0  0  0  0
   -2.7433   28.0627   54.5909 O   0  0  0  0  0  0
   -2.6263   29.9613   56.1282 C   0  0  1  0  0  0
   -3.4035   30.6139   57.3078 C   0  0  0  0  0  0
   -3.0911   31.6939   57.8056 O   0  0  0  0  0  0
   -4.4949   29.9595   57.7486 N   0  0  0  0  0  0
   -4.9278   28.7020   57.5425 C   0  0  0  0  0  0
   -5.9389   28.2941   58.1092 O   0  0  0  0  0  0
   -1.2144   29.8786   56.5018 N   0  0  0  0  0  0
   -4.8360   26.7924   56.0397 O   0  0  0  0  0  0
   -5.7959   26.9871   55.0566 C   0  0  0  0  0  0
   -6.5100   25.8430   54.7476 C   0  0  0  0  0  0
   -7.4240   25.8145   53.7105 C   0  0  0  0  0  0
   -7.7049   26.9642   52.9984 C   0  0  0  0  0  0
   -7.0365   28.1505   53.3273 C   0  0  0  0  0  0
   -6.0762   28.1640   54.3483 C   0  0  0  0  0  0
   -8.7362   26.8696   52.0906 O   0  0  0  0  0  0
   -8.6170   27.1287   50.7414 C   0  0  0  0  0  0
   -7.5229   27.7707   50.1542 C   0  0  0  0  0  0
   -7.5669   28.1662   48.8172 C   0  0  0  0  0  0
   -8.6685   27.8403   48.0299 C   0  0  0  0  0  0
   -9.7365   27.1310   48.5812 C   0  0  0  0  0  0
   -9.7137   26.7994   49.9395 C   0  0  0  0  0  0
  -10.9186   26.7506   47.7101 C   0  0  0  0  0  0
    1.4322   25.4554   59.5062 H   0  0  0  0  0  0
    0.9928   24.2700   58.2832 H   0  0  0  0  0  0
    1.6335   25.8363   57.7957 H   0  0  0  0  0  0
   -1.0564   25.3711   59.1985 H   0  0  0  0  0  0
   -0.4081   26.9499   58.7876 H   0  0  0  0  0  0
   -2.4972   25.7560   55.8872 H   0  0  0  0  0  0
   -2.7350   24.8339   57.3097 H   0  0  0  0  0  0
   -3.6796   26.5743   58.4336 H   0  0  0  0  0  0
   -2.3917   27.6552   58.0907 H   0  0  0  0  0  0
   -2.7383   30.6649   55.3094 H   0  0  0  0  0  0
   -5.0426   30.4746   58.4210 H   0  0  0  0  0  0
   -0.6540   30.3528   55.8070 H   0  0  0  0  0  0
   -1.0708   30.4078   57.3550 H   0  0  0  0  0  0
   -6.3389   24.9687   55.3390 H   0  0  0  0  0  0
   -7.9388   24.9035   53.4764 H   0  0  0  0  0  0
   -7.2610   29.0527   52.7912 H   0  0  0  0  0  0
   -5.5633   29.0823   54.5750 H   0  0  0  0  0  0
   -6.6520   28.0352   50.7319 H   0  0  0  0  0  0
   -6.7362   28.7036   48.3858 H   0  0  0  0  0  0
   -8.6782   28.1267   46.9880 H   0  0  0  0  0  0
  -10.5560   26.2923   50.3867 H   0  0  0  0  0  0
  -11.8141   26.5701   48.3042 H   0  0  0  0  0  0
  -11.1569   27.5601   47.0192 H   0  0  0  0  0  0
  -10.6907   25.8599   47.1250 H   0  0  0  0  0  0
  1  2  1  0  0  0
  1 31  1  0  0  0
  1 32  1  0  0  0
  1 33  1  0  0  0
  2  3  1  0  0  0
  2 34  1  0  0  0
  2 35  1  0  0  0
  3  4  1  0  0  0
  4  5  1  0  0  0
  4 36  1  0  0  0
  4 37  1  0  0  0
  5  6  1  0  0  0
  5 38  1  0  0  0
  5 39  1  0  0  0
  6 13  1  0  0  0
  6  7  1  0  0  0
  6 16  1  0  0  0
  7  8  2  0  0  0
  7  9  1  0  0  0
  9 10  1  0  0  0
  9 15  1  0  0  0
  9 40  1  0  0  0
 10 11  2  0  0  0
 10 12  1  0  0  0
 12 13  1  0  0  0
 12 41  1  0  0  0
 13 14  2  0  0  0
 15 42  1  0  0  0
 15 43  1  0  0  0
 16 17  1  0  0  0
 17 22  1  0  0  0
 17 18  2  0  0  0
 18 19  1  0  0  0
 18 44  1  0  0  0
 19 20  2  0  0  0
 19 45  1  0  0  0
 20 21  1  0  0  0
 20 23  1  0  0  0
 21 22  2  0  0  0
 21 46  1  0  0  0
 22 47  1  0  0  0
 23 24  1  0  0  0
 24 29  1  0  0  0
 24 25  2  0  0  0
 25 26  1  0  0  0
 25 48  1  0  0  0
 26 27  2  0  0  0
 26 49  1  0  0  0
 27 28  1  0  0  0
 27 50  1  0  0  0
 28 29  2  0  0  0
 28 30  1  0  0  0
 29 51  1  0  0  0
 30 52  1  0  0  0
 30 53  1  0  0  0
 30 54  1  0  0  0
M  END
> <s_m_entry_id>
65321

> <s_m_entry_name>
ligand_docking-pose.71

> <s_m_Source_Path>
/home/csk/Desktop/cluster/DUD-E-result/mmp13

> <s_m_Source_File>
ligand_docking-pose.sdf

> <i_m_Source_File_Index>
71

> <i_lp_mmshare_version>
53161

> <r_lp_tautomer_probability>
1

> <s_lp_Force_Field>
OPLS_2005

> <r_lp_Energy>
32.453163

> <b_lp_Chiralities_Consistent>
1

> <s_lp_Variant>
303885-1

> <s_i_glide_gridfile>
glide-grid_830c

> <i_i_glide_lignum>
1638

> <i_i_glide_rotatable_bonds>
8

> <r_i_docking_score>
-7.68349908507603

> <r_i_glide_ligand_efficiency>
-0.256116636169201

> <r_i_glide_ligand_efficiency_sa>
-0.795813936318259

> <r_i_glide_ligand_efficiency_ln>
-1.74577471055713

> <r_i_glide_gscore>
-7.68349908507603

> <r_i_glide_lipo>
-3.1043298593579

> <r_i_glide_hbond>
-0.591817831013808

> <r_i_glide_metal>
0

> <r_i_glide_rewards>
-0.798540576690947

> <r_i_glide_evdw>
-46.3751335144043

> <r_i_glide_ecoul>
-10.7813243865967

> <r_i_glide_erotb>
0.811462363898242

> <r_i_glide_esite>
-0.0643178482019003

> <r_i_glide_emodel>
-68.5749763149212

> <r_i_glide_energy>
-57.156457901001

> <r_i_glide_einternal>
14.3061962127686

> <i_i_glide_confnum>
13

> <i_i_glide_posenum>
32

> <r_i_glide_eff_state_penalty>
0

> <i_f3d_flags>
0

> <s_user_duplicate_titles>
303885

> <s_m_subgroup_title>
dock_pv

> <s_m_subgroupid>
dock_pv1

> <b_m_subgroup_collapsed>
0

$$$$
110575
                    3D
 Schrodinger Suite 2021-1.
 58 61  0  0  1  0            999 V2000
   -2.1536   31.3126   59.4568 C   0  0  0  0  0  0
   -1.4885   30.0457   58.9263 C   0  0  0  0  0  0
   -0.2754   29.6582   59.5000 C   0  0  0  0  0  0
    0.3487   28.4806   59.1073 C   0  0  0  0  0  0
   -0.2325   27.6796   58.1313 C   0  0  0  0  0  0
   -1.4503   28.0400   57.5343 C   0  0  0  0  0  0
   -2.0861   29.2362   57.9355 C   0  0  0  0  0  0
   -3.3192   29.5913   57.3627 N   0  0  0  0  0  0
   -3.3765   30.8241   56.5836 C   0  0  0  0  0  0
   -4.8449   28.9097   57.9796 S   0  0  0  0  0  0
   -4.5227   27.7466   58.8146 O   0  0  0  0  0  0
   -5.6050   30.0429   58.5099 O   0  0  0  0  0  0
   -5.6996   28.3277   56.5254 C   0  0  0  0  0  0
   -5.6406   26.9870   56.1307 C   0  0  0  0  0  0
   -6.1987   26.6021   54.9102 C   0  0  0  0  0  0
   -6.7851   27.5611   54.0768 C   0  0  0  0  0  0
   -6.8667   28.8863   54.5079 C   0  0  0  0  0  0
   -6.3377   29.2708   55.7274 C   0  0  0  0  0  0
   -7.3039   27.2340   52.7287 C   0  0  0  0  0  0
   -6.8045   27.9206   51.6235 C   0  0  0  0  0  0
   -7.3889   27.7700   50.3727 C   0  0  0  0  0  0
   -8.4893   26.9232   50.2008 C   0  0  0  0  0  0
   -8.9313   26.1700   51.2879 C   0  0  0  0  0  0
   -8.3388   26.3183   52.5431 C   0  0  0  0  0  0
   -9.1862   26.8018   49.0130 O   0  0  0  0  0  0
   -8.8826   27.7115   47.9503 C   0  0  0  0  0  0
   -9.8604   27.5626   46.8021 C   0  0  0  0  0  0
  -11.0270   26.9701   46.9050 N   0  0  0  0  0  0
  -11.7138   27.0092   45.7800 C   0  0  0  0  0  0
  -11.0972   27.6302   44.7030 C   0  0  0  0  0  0
   -9.5393   28.1975   45.2136 S   0  0  0  0  0  0
   -2.0124   27.1548   56.4468 C   0  0  0  0  0  0
   -2.3390   27.5933   55.3367 O   0  0  0  0  0  0
   -2.0825   25.8557   56.7566 N   0  0  0  0  0  0
   -2.3390   24.9700   55.7100 O   0  0  0  0  0  0
    1.9962   27.9620   59.9060 Br  0  0  0  0  0  0
   -3.2265   31.1616   59.5822 H   0  0  0  0  0  0
   -1.7721   31.5917   60.4393 H   0  0  0  0  0  0
   -2.0022   32.1454   58.7709 H   0  0  0  0  0  0
    0.1842   30.2651   60.2668 H   0  0  0  0  0  0
    0.2883   26.7790   57.8354 H   0  0  0  0  0  0
   -2.3945   31.1049   56.2002 H   0  0  0  0  0  0
   -4.0268   30.6924   55.7235 H   0  0  0  0  0  0
   -3.7653   31.6501   57.1797 H   0  0  0  0  0  0
   -5.1423   26.2507   56.7468 H   0  0  0  0  0  0
   -6.1321   25.5698   54.5954 H   0  0  0  0  0  0
   -7.3171   29.6349   53.8766 H   0  0  0  0  0  0
   -6.3789   30.3095   56.0230 H   0  0  0  0  0  0
   -5.9866   28.6183   51.7335 H   0  0  0  0  0  0
   -6.9889   28.3542   49.5579 H   0  0  0  0  0  0
   -9.7641   25.4937   51.1626 H   0  0  0  0  0  0
   -8.7303   25.7702   53.3859 H   0  0  0  0  0  0
   -8.9212   28.7425   48.3078 H   0  0  0  0  0  0
   -7.8745   27.5113   47.5882 H   0  0  0  0  0  0
  -12.6990   26.5693   45.7589 H   0  0  0  0  0  0
  -11.4568   27.7831   43.6953 H   0  0  0  0  0  0
   -1.9300   25.4148   57.6549 H   0  0  0  0  0  0
   -3.1950   24.5501   55.9436 H   0  0  0  0  0  0
  1  2  1  0  0  0
  1 37  1  0  0  0
  1 38  1  0  0  0
  1 39  1  0  0  0
  2  7  1  0  0  0
  2  3  2  0  0  0
  3  4  1  0  0  0
  3 40  1  0  0  0
  4  5  2  0  0  0
  4 36  1  0  0  0
  5  6  1  0  0  0
  5 41  1  0  0  0
  6  7  2  0  0  0
  6 32  1  0  0  0
  7  8  1  0  0  0
  8  9  1  0  0  0
  8 10  1  0  0  0
  9 42  1  0  0  0
  9 43  1  0  0  0
  9 44  1  0  0  0
 10 11  2  0  0  0
 10 12  2  0  0  0
 10 13  1  0  0  0
 13 18  1  0  0  0
 13 14  2  0  0  0
 14 15  1  0  0  0
 14 45  1  0  0  0
 15 16  2  0  0  0
 15 46  1  0  0  0
 16 17  1  0  0  0
 16 19  1  0  0  0
 17 18  2  0  0  0
 17 47  1  0  0  0
 18 48  1  0  0  0
 19 24  1  0  0  0
 19 20  2  0  0  0
 20 21  1  0  0  0
 20 49  1  0  0  0
 21 22  2  0  0  0
 21 50  1  0  0  0
 22 23  1  0  0  0
 22 25  1  0  0  0
 23 24  2  0  0  0
 23 51  1  0  0  0
 24 52  1  0  0  0
 25 26  1  0  0  0
 26 27  1  0  0  0
 26 53  1  0  0  0
 26 54  1  0  0  0
 27 31  1  0  0  0
 27 28  2  0  0  0
 28 29  1  0  0  0
 29 30  2  0  0  0
 29 55  1  0  0  0
 30 31  1  0  0  0
 30 56  1  0  0  0
 32 33  2  0  0  0
 32 34  1  0  0  0
 34 35  1  0  0  0
 34 57  1  0  0  0
 35 58  1  0  0  0
M  END
> <s_m_entry_id>
65329

> <s_m_entry_name>
ligand_docking-pose.79

> <s_m_Source_Path>
/home/csk/Desktop/cluster/DUD-E-result/mmp13

> <s_m_Source_File>
ligand_docking-pose.sdf

> <i_m_Source_File_Index>
79

> <i_lp_mmshare_version>
53161

> <r_lp_tautomer_probability>
1

> <s_lp_Force_Field>
OPLS_2005

> <r_lp_Energy>
33.817279

> <b_lp_Chiralities_Consistent>
1

> <s_lp_Variant>
110575-1

> <s_i_glide_gridfile>
glide-grid_830c

> <i_i_glide_lignum>
503

> <i_i_glide_rotatable_bonds>
10

> <r_i_docking_score>
-7.64066501672712

> <r_i_glide_ligand_efficiency>
-0.212240694909087

> <r_i_glide_ligand_efficiency_sa>
-0.700803333007531

> <r_i_glide_ligand_efficiency_ln>
-1.66698667973668

> <r_i_glide_gscore>
-7.64066501672712

> <r_i_glide_lipo>
-3.86563889703951

> <r_i_glide_hbond>
0

> <r_i_glide_metal>
0

> <r_i_glide_rewards>
0.320089743691014

> <r_i_glide_evdw>
-55.4415435791016

> <r_i_glide_ecoul>
-10.2376146316528

> <r_i_glide_erotb>
0.43718585377756

> <r_i_glide_esite>
-0.224582343453185

> <r_i_glide_emodel>
-91.6937773224693

> <r_i_glide_energy>
-65.6791582107544

> <r_i_glide_einternal>
5.20861864089966

> <i_i_glide_confnum>
3

> <i_i_glide_posenum>
37

> <r_i_glide_eff_state_penalty>
0

> <i_f3d_flags>
0

> <s_user_duplicate_titles>
110575

> <s_m_subgroup_title>
dock_pv

> <s_m_subgroupid>
dock_pv1

> <b_m_subgroup_collapsed>
0

$$$$
311472
                    3D
 Schrodinger Suite 2021-1.
 52 54  0  0  1  0            999 V2000
    0.3296   27.6340   57.8963 C   0  0  0  0  0  0
   -0.8202   28.6687   57.9096 C   0  0  1  0  0  0
   -0.5426   29.8515   56.9437 C   0  0  0  0  0  0
   -1.6527   30.9233   56.9472 C   0  0  0  0  0  0
   -3.0464   30.3191   56.7024 C   0  0  0  0  0  0
   -3.3052   29.1365   57.5691 N   0  0  3  0  0  0
   -2.2596   28.0755   57.6979 C   0  0  1  0  0  0
   -2.3220   27.1405   56.4681 C   0  0  0  0  0  0
   -2.3389   27.5741   55.3100 O   0  0  0  0  0  0
   -2.3388   25.8293   56.7301 N   0  0  0  0  0  0
   -2.3390   24.9700   55.6379 O   0  0  0  0  0  0
   -4.9698   28.7983   58.0624 S   0  0  0  0  0  0
   -5.0008   27.5965   58.9072 O   0  0  0  0  0  0
   -5.5390   30.0667   58.5224 O   0  0  0  0  0  0
   -5.8255   28.4014   56.5435 C   0  0  0  0  0  0
   -5.9069   27.0898   56.0650 C   0  0  0  0  0  0
   -6.5790   26.8337   54.8674 C   0  0  0  0  0  0
   -7.1763   27.8899   54.1600 C   0  0  0  0  0  0
   -7.0913   29.1832   54.6588 C   0  0  0  0  0  0
   -6.4132   29.4468   55.8362 C   0  0  0  0  0  0
   -7.8742   27.7702   52.9796 O   0  0  0  0  0  0
   -7.8448   26.5525   52.2549 C   0  0  0  0  0  0
   -8.3492   26.8342   50.8501 C   0  0  0  0  0  0
   -9.5265   26.2516   50.3702 C   0  0  0  0  0  0
   -9.9538   26.5796   49.0816 C   0  0  0  0  0  0
   -9.2774   27.4294   48.2711 N   0  0  0  0  0  0
   -8.1317   27.9818   48.7418 C   0  0  0  0  0  0
   -7.6434   27.7129   50.0214 C   0  0  0  0  0  0
   -7.2472   29.0402   47.7100 Cl  0  0  0  0  0  0
   -0.8155   29.1716   59.2337 O   0  0  0  0  0  0
   -2.5205   27.4569   58.5589 H   0  0  0  0  0  0
    0.4735   27.1950   56.9097 H   0  0  0  0  0  0
    1.2819   28.0849   58.1815 H   0  0  0  0  0  0
    0.1390   26.8161   58.5931 H   0  0  0  0  0  0
    0.4349   30.2923   57.1436 H   0  0  0  0  0  0
   -0.4415   29.4596   55.9313 H   0  0  0  0  0  0
   -1.4446   31.6821   56.1919 H   0  0  0  0  0  0
   -1.6567   31.4492   57.9031 H   0  0  0  0  0  0
   -3.0780   29.9829   55.6664 H   0  0  0  0  0  0
   -3.8361   31.0586   56.8367 H   0  0  0  0  0  0
   -2.4337   25.3631   57.6259 H   0  0  0  0  0  0
   -3.2012   24.5017   55.7110 H   0  0  0  0  0  0
   -5.4530   26.2738   56.6102 H   0  0  0  0  0  0
   -6.6362   25.8165   54.5094 H   0  0  0  0  0  0
   -7.5379   29.9966   54.1151 H   0  0  0  0  0  0
   -6.3480   30.4659   56.1906 H   0  0  0  0  0  0
   -6.8266   26.1704   52.1784 H   0  0  0  0  0  0
   -8.4532   25.7954   52.7520 H   0  0  0  0  0  0
  -10.1010   25.5703   50.9804 H   0  0  0  0  0  0
  -10.8625   26.1699   48.6688 H   0  0  0  0  0  0
   -6.7385   28.1906   50.3656 H   0  0  0  0  0  0
   -0.0712   29.7699   59.3277 H   0  0  0  0  0  0
  1  2  1  0  0  0
  1 32  1  0  0  0
  1 33  1  0  0  0
  1 34  1  0  0  0
  2  7  1  0  0  0
  2  3  1  0  0  0
  2 30  1  0  0  0
  3  4  1  0  0  0
  3 35  1  0  0  0
  3 36  1  0  0  0
  4  5  1  0  0  0
  4 37  1  0  0  0
  4 38  1  0  0  0
  5  6  1  0  0  0
  5 39  1  0  0  0
  5 40  1  0  0  0
  6  7  1  0  0  0
  6 12  1  0  0  0
  7 31  1  0  0  0
  7  8  1  0  0  0
  8  9  2  0  0  0
  8 10  1  0  0  0
 10 11  1  0  0  0
 10 41  1  0  0  0
 11 42  1  0  0  0
 12 13  2  0  0  0
 12 14  2  0  0  0
 12 15  1  0  0  0
 15 20  1  0  0  0
 15 16  2  0  0  0
 16 17  1  0  0  0
 16 43  1  0  0  0
 17 18  2  0  0  0
 17 44  1  0  0  0
 18 19  1  0  0  0
 18 21  1  0  0  0
 19 20  2  0  0  0
 19 45  1  0  0  0
 20 46  1  0  0  0
 21 22  1  0  0  0
 22 23  1  0  0  0
 22 47  1  0  0  0
 22 48  1  0  0  0
 23 28  1  0  0  0
 23 24  2  0  0  0
 24 25  1  0  0  0
 24 49  1  0  0  0
 25 26  2  0  0  0
 25 50  1  0  0  0
 26 27  1  0  0  0
 27 28  2  0  0  0
 27 29  1  0  0  0
 28 51  1  0  0  0
 30 52  1  0  0  0
M  END
> <s_m_entry_id>
65336

> <s_m_entry_name>
ligand_docking-pose.86

> <s_m_Source_Path>
/home/csk/Desktop/cluster/DUD-E-result/mmp13

> <s_m_Source_File>
ligand_docking-pose.sdf

> <i_m_Source_File_Index>
86

> <i_lp_mmshare_version>
53161

> <r_lp_tautomer_probability>
1

> <s_lp_Force_Field>
OPLS_2005

> <r_lp_Energy>
27.523693

> <b_lp_Chiralities_Consistent>
1

> <s_lp_Variant>
311472-1

> <s_i_glide_gridfile>
glide-grid_830c

> <i_i_glide_lignum>
590

> <i_i_glide_rotatable_bonds>
9

> <r_i_docking_score>
-7.5867966895869

> <r_i_glide_ligand_efficiency>
-0.25289322298623

> <r_i_glide_ligand_efficiency_sa>
-0.785798042107367

> <r_i_glide_ligand_efficiency_ln>
-1.72380287264501

> <r_i_glide_gscore>
-7.5867966895869

> <r_i_glide_lipo>
-3.23689243344834

> <r_i_glide_hbond>
-0.0765893951101585

> <r_i_glide_metal>
0

> <r_i_glide_rewards>
-0.294468650355663

> <r_i_glide_evdw>
-48.4286575317383

> <r_i_glide_ecoul>
-13.3111934661865

> <r_i_glide_erotb>
0.676667014185016

> <r_i_glide_esite>
-0.237401328342862

> <r_i_glide_emodel>
-90.1966517665878

> <r_i_glide_energy>
-61.7398509979248

> <r_i_glide_einternal>
12.1608276367188

> <i_i_glide_confnum>
37

> <i_i_glide_posenum>
232

> <r_i_glide_eff_state_penalty>
0

> <i_f3d_flags>
0

> <s_user_duplicate_titles>
311472

> <s_m_subgroup_title>
dock_pv

> <s_m_subgroupid>
dock_pv1

> <b_m_subgroup_collapsed>
0

$$$$
188868
                    3D
 Schrodinger Suite 2021-1.
 47 49  0  0  1  0            999 V2000
  -10.1903   26.9814   49.3439 C   0  0  0  0  0  0
   -9.7042   26.3899   50.5100 C   0  0  0  0  0  0
   -8.3825   26.5906   50.9107 C   0  0  0  0  0  0
   -7.5390   27.3700   50.1100 C   0  0  0  0  0  0
   -8.0208   27.9588   48.9397 C   0  0  0  0  0  0
   -9.3484   27.7699   48.5612 C   0  0  0  0  0  0
   -7.2026   28.7062   48.1660 F   0  0  0  0  0  0
   -7.9390   25.9572   52.0518 O   0  0  0  0  0  0
   -7.3502   26.6278   53.1080 C   0  0  0  0  0  0
   -6.8526   25.8488   54.1537 C   0  0  0  0  0  0
   -6.3390   26.4429   55.3046 C   0  0  0  0  0  0
   -6.3002   27.8346   55.4001 C   0  0  0  0  0  0
   -6.7390   28.6224   54.3374 C   0  0  0  0  0  0
   -7.2692   28.0220   53.2016 C   0  0  0  0  0  0
   -5.7634   28.6518   56.8986 S   0  0  0  0  0  0
   -5.5390   27.6301   57.9293 O   0  0  0  0  0  0
   -6.7233   29.7374   57.1205 O   0  0  0  0  0  0
   -4.2282   29.4304   56.5067 N   0  0  1  0  0  0
   -2.8994   28.7487   56.5542 C   0  0  0  0  0  0
   -1.8900   29.6620   55.8171 C   0  0  0  0  0  0
   -1.7213   31.0316   56.5066 C   0  0  0  0  0  0
   -1.3036   30.8111   57.8519 O   0  0  0  0  0  0
   -2.2368   30.0776   58.6446 C   0  0  0  0  0  0
   -2.4541   28.6649   58.0463 C   0  0  0  0  0  0
   -2.8696   27.3949   55.7803 C   0  0  0  0  0  0
   -3.1390   27.3700   54.5707 O   0  0  0  0  0  0
   -2.4695   26.2927   56.4355 N   0  0  0  0  0  0
   -2.3390   25.1060   55.7100 O   0  0  0  0  0  0
  -11.2170   26.8330   49.0439 H   0  0  0  0  0  0
  -10.3541   25.7700   51.1097 H   0  0  0  0  0  0
   -6.5060   27.5181   50.3874 H   0  0  0  0  0  0
   -9.7177   28.2289   47.6560 H   0  0  0  0  0  0
   -6.8873   24.7712   54.0846 H   0  0  0  0  0  0
   -5.9874   25.8178   56.1143 H   0  0  0  0  0  0
   -6.7027   29.7008   54.4039 H   0  0  0  0  0  0
   -7.6361   28.6503   52.4079 H   0  0  0  0  0  0
   -4.3056   30.1643   55.7953 H   0  0  0  0  0  0
   -2.1966   29.7700   54.7800 H   0  0  0  0  0  0
   -0.9041   29.1947   55.7819 H   0  0  0  0  0  0
   -2.6389   31.6220   56.4763 H   0  0  0  0  0  0
   -0.9583   31.6189   55.9949 H   0  0  0  0  0  0
   -3.1775   30.6249   58.7314 H   0  0  0  0  0  0
   -1.8331   30.0016   59.6543 H   0  0  0  0  0  0
   -1.5115   28.1229   58.1375 H   0  0  0  0  0  0
   -3.1764   28.1186   58.6525 H   0  0  0  0  0  0
   -2.2860   26.1893   57.4260 H   0  0  0  0  0  0
   -3.1025   24.5703   55.9996 H   0  0  0  0  0  0
  1  6  1  0  0  0
  1  2  2  0  0  0
  1 29  1  0  0  0
  2  3  1  0  0  0
  2 30  1  0  0  0
  3  4  2  0  0  0
  3  8  1  0  0  0
  4  5  1  0  0  0
  4 31  1  0  0  0
  5  6  2  0  0  0
  5  7  1  0  0  0
  6 32  1  0  0  0
  8  9  1  0  0  0
  9 14  1  0  0  0
  9 10  2  0  0  0
 10 11  1  0  0  0
 10 33  1  0  0  0
 11 12  2  0  0  0
 11 34  1  0  0  0
 12 13  1  0  0  0
 12 15  1  0  0  0
 13 14  2  0  0  0
 13 35  1  0  0  0
 14 36  1  0  0  0
 15 16  2  0  0  0
 15 17  2  0  0  0
 15 18  1  0  0  0
 18 19  1  0  0  0
 18 37  1  0  0  0
 19 24  1  0  0  0
 19 20  1  0  0  0
 19 25  1  0  0  0
 20 21  1  0  0  0
 20 38  1  0  0  0
 20 39  1  0  0  0
 21 22  1  0  0  0
 21 40  1  0  0  0
 21 41  1  0  0  0
 22 23  1  0  0  0
 23 24  1  0  0  0
 23 42  1  0  0  0
 23 43  1  0  0  0
 24 44  1  0  0  0
 24 45  1  0  0  0
 25 26  2  0  0  0
 25 27  1  0  0  0
 27 28  1  0  0  0
 27 46  1  0  0  0
 28 47  1  0  0  0
M  END
> <s_m_entry_id>
65342

> <s_m_entry_name>
ligand_docking-pose.92

> <s_m_Source_Path>
/home/csk/Desktop/cluster/DUD-E-result/mmp13

> <s_m_Source_File>
ligand_docking-pose.sdf

> <i_m_Source_File_Index>
92

> <i_lp_mmshare_version>
53161

> <r_lp_tautomer_probability>
1

> <s_lp_Force_Field>
OPLS_2005

> <r_lp_Energy>
28.747406

> <b_lp_Chiralities_Consistent>
1

> <s_lp_Variant>
188868-1

> <s_i_glide_gridfile>
glide-grid_830c

> <i_i_glide_lignum>
228

> <i_i_glide_rotatable_bonds>
8

> <r_i_docking_score>
-7.51740748493908

> <r_i_glide_ligand_efficiency>
-0.268478838747824

> <r_i_glide_ligand_efficiency_sa>
-0.815259880018089

> <r_i_glide_ligand_efficiency_ln>
-1.73523836819861

> <r_i_glide_gscore>
-7.51740748493908

> <r_i_glide_lipo>
-3.32920455665439

> <r_i_glide_hbond>
-0.222522429639868

> <r_i_glide_metal>
0

> <r_i_glide_rewards>
-0.294582479330752

> <r_i_glide_evdw>
-47.887523651123

> <r_i_glide_ecoul>
-12.5000352859497

> <r_i_glide_erotb>
0.818676617554055

> <r_i_glide_esite>
-0.220393161419515

> <r_i_glide_emodel>
-87.2421402574846

> <r_i_glide_energy>
-60.3875589370728

> <r_i_glide_einternal>
7.98220825195312

> <i_i_glide_confnum>
113

> <i_i_glide_posenum>
382

> <r_i_glide_eff_state_penalty>
0

> <i_f3d_flags>
0

> <s_user_duplicate_titles>
188868

> <s_m_subgroup_title>
dock_pv

> <s_m_subgroupid>
dock_pv1

> <b_m_subgroup_collapsed>
0

$$$$
65393
                    3D
 Schrodinger Suite 2021-1.
 63 65  0  0  1  0            999 V2000
    2.6626   21.5218   59.3098 C   0  0  0  0  0  0
    2.0611   21.7371   60.5453 C   0  0  0  0  0  0
    1.6756   23.0247   60.9100 C   0  0  0  0  0  0
    1.9114   24.0942   60.0439 C   0  0  0  0  0  0
    2.5175   23.8736   58.8048 C   0  0  0  0  0  0
    2.8892   22.5838   58.4364 C   0  0  0  0  0  0
    1.5152   25.5029   60.4626 C   0  0  0  0  0  0
    0.1493   25.7812   60.1555 O   0  0  0  0  0  0
   -0.2281   26.1737   58.9209 C   0  0  0  0  0  0
    0.5194   26.2574   57.9431 O   0  0  0  0  0  0
   -1.5789   26.4729   58.9346 N   0  0  0  0  0  0
   -2.2837   26.9611   57.7511 C   0  0  0  0  0  0
   -3.1181   28.2242   58.0248 C   0  0  0  0  0  0
   -4.5067   27.9353   58.6468 C   0  0  0  0  0  0
   -5.5629   29.0554   58.4101 C   0  0  0  0  0  0
   -6.3084   29.0421   57.0332 C   0  0  1  0  0  0
   -6.9781   30.3843   56.6361 C   0  0  0  0  0  0
   -7.2154   30.6967   55.4680 O   0  0  0  0  0  0
   -7.3384   31.1493   57.7102 O   0  0  0  0  0  0
   -5.3922   28.6689   55.9256 N   0  0  1  0  0  0
   -5.3855   27.0165   55.3126 S   0  0  0  0  0  0
   -6.1125   26.1701   56.2653 O   0  0  0  0  0  0
   -4.0023   26.7104   54.9102 O   0  0  0  0  0  0
   -6.3477   27.0938   53.8140 C   0  0  0  0  0  0
   -6.0566   28.1003   52.9114 C   0  0  0  0  0  0
   -6.7390   28.1699   51.7089 C   0  0  0  0  0  0
   -7.7278   27.2441   51.3697 C   0  0  0  0  0  0
   -8.0153   26.2346   52.2993 C   0  0  0  0  0  0
   -7.3358   26.1612   53.5171 C   0  0  0  0  0  0
   -8.4426   27.3526   50.0534 C   0  0  0  0  0  0
   -9.7316   26.8245   49.8855 C   0  0  0  0  0  0
  -10.3991   26.9555   48.6716 C   0  0  0  0  0  0
   -9.7965   27.6088   47.6048 C   0  0  0  0  0  0
   -8.5223   28.1455   47.7457 C   0  0  0  0  0  0
   -7.8557   28.0118   48.9591 C   0  0  0  0  0  0
  -10.7210   27.7603   45.9482 Br  0  0  0  0  0  0
   -7.1192   28.3116   57.0592 H   0  0  0  0  0  0
    2.9486   20.5221   59.0222 H   0  0  0  0  0  0
    1.8820   20.9073   61.2155 H   0  0  0  0  0  0
    1.1963   23.1903   61.8637 H   0  0  0  0  0  0
    2.6949   24.6972   58.1267 H   0  0  0  0  0  0
    3.3456   22.4051   57.4738 H   0  0  0  0  0  0
    2.1846   26.2362   60.0090 H   0  0  0  0  0  0
    1.6545   25.5994   61.5396 H   0  0  0  0  0  0
   -2.1021   26.2982   59.7793 H   0  0  0  0  0  0
   -2.9222   26.1582   57.3786 H   0  0  0  0  0  0
   -1.6081   27.1742   56.9190 H   0  0  0  0  0  0
   -3.2182   28.7578   57.0819 H   0  0  0  0  0  0
   -2.5584   28.9157   58.6595 H   0  0  0  0  0  0
   -4.3407   27.7690   59.7097 H   0  0  0  0  0  0
   -4.9012   26.9861   58.2857 H   0  0  0  0  0  0
   -5.0637   30.0147   58.5665 H   0  0  0  0  0  0
   -6.3342   28.9932   59.1810 H   0  0  0  0  0  0
   -7.1389   30.7759   58.5749 H   0  0  0  0  0  0
   -5.2763   29.3950   55.2112 H   0  0  0  0  0  0
   -5.2905   28.8183   53.1383 H   0  0  0  0  0  0
   -6.4806   28.9698   51.0388 H   0  0  0  0  0  0
   -8.7470   25.4813   52.0641 H   0  0  0  0  0  0
   -7.5391   25.3699   54.2155 H   0  0  0  0  0  0
  -10.2410   26.3250   50.6961 H   0  0  0  0  0  0
  -11.4019   26.5695   48.5553 H   0  0  0  0  0  0
   -8.0463   28.6501   46.9172 H   0  0  0  0  0  0
   -6.8576   28.4198   49.0246 H   0  0  0  0  0  0
  1  6  1  0  0  0
  1  2  2  0  0  0
  1 38  1  0  0  0
  2  3  1  0  0  0
  2 39  1  0  0  0
  3  4  2  0  0  0
  3 40  1  0  0  0
  4  5  1  0  0  0
  4  7  1  0  0  0
  5  6  2  0  0  0
  5 41  1  0  0  0
  6 42  1  0  0  0
  7  8  1  0  0  0
  7 43  1  0  0  0
  7 44  1  0  0  0
  8  9  1  0  0  0
  9 10  2  0  0  0
  9 11  1  0  0  0
 11 12  1  0  0  0
 11 45  1  0  0  0
 12 13  1  0  0  0
 12 46  1  0  0  0
 12 47  1  0  0  0
 13 14  1  0  0  0
 13 48  1  0  0  0
 13 49  1  0  0  0
 14 15  1  0  0  0
 14 50  1  0  0  0
 14 51  1  0  0  0
 15 16  1  0  0  0
 15 52  1  0  0  0
 15 53  1  0  0  0
 16 37  1  0  0  0
 16 17  1  0  0  0
 16 20  1  0  0  0
 17 18  2  0  0  0
 17 19  1  0  0  0
 19 54  1  0  0  0
 20 21  1  0  0  0
 20 55  1  0  0  0
 21 22  2  0  0  0
 21 23  2  0  0  0
 21 24  1  0  0  0
 24 29  1  0  0  0
 24 25  2  0  0  0
 25 26  1  0  0  0
 25 56  1  0  0  0
 26 27  2  0  0  0
 26 57  1  0  0  0
 27 28  1  0  0  0
 27 30  1  0  0  0
 28 29  2  0  0  0
 28 58  1  0  0  0
 29 59  1  0  0  0
 30 35  1  0  0  0
 30 31  2  0  0  0
 31 32  1  0  0  0
 31 60  1  0  0  0
 32 33  2  0  0  0
 32 61  1  0  0  0
 33 34  1  0  0  0
 33 36  1  0  0  0
 34 35  2  0  0  0
 34 62  1  0  0  0
 35 63  1  0  0  0
M  END
> <s_m_entry_id>
65347

> <s_m_entry_name>
ligand_docking-pose.97

> <s_m_Source_Path>
/home/csk/Desktop/cluster/DUD-E-result/mmp13

> <s_m_Source_File>
ligand_docking-pose.sdf

> <i_m_Source_File_Index>
97

> <i_lp_mmshare_version>
53161

> <r_lp_tautomer_probability>
1

> <s_lp_Force_Field>
OPLS_2005

> <r_lp_Energy>
17.095735

> <b_lp_Chiralities_Consistent>
1

> <s_lp_Variant>
65393-1

> <s_i_glide_gridfile>
glide-grid_830c

> <i_i_glide_lignum>
198

> <i_i_glide_rotatable_bonds>
15

> <r_i_docking_score>
-7.46056490965862

> <r_i_glide_ligand_efficiency>
-0.207237914157184

> <r_i_glide_ligand_efficiency_sa>
-0.684284514942309

> <r_i_glide_ligand_efficiency_ln>
-1.62769370211692

> <r_i_glide_gscore>
-7.46056490965862

> <r_i_glide_lipo>
-3.89382957602513

> <r_i_glide_hbond>
-0.167919954015011

> <r_i_glide_metal>
0

> <r_i_glide_rewards>
0.596400130200151

> <r_i_glide_evdw>
-64.2212066650391

> <r_i_glide_ecoul>
-9.03670978546143

> <r_i_glide_erotb>
0.724227334128744

> <r_i_glide_esite>
-0.152876042876206

> <r_i_glide_emodel>
-98.866220364357

> <r_i_glide_energy>
-73.2579164505005

> <r_i_glide_einternal>
12.6847047805786

> <i_i_glide_confnum>
1

> <i_i_glide_posenum>
130

> <r_i_glide_eff_state_penalty>
0

> <i_f3d_flags>
0

> <s_user_duplicate_titles>
65393

> <s_m_subgroup_title>
dock_pv

> <s_m_subgroupid>
dock_pv1

> <b_m_subgroup_collapsed>
0

$$$$
303936
                    3D
 Schrodinger Suite 2021-1.
 51 53  0  0  1  0            999 V2000
   -3.6423   32.9525   59.7317 C   0  0  0  0  0  0
   -4.3383   31.5999   59.5346 C   0  0  0  0  0  0
   -3.5167   30.6702   58.8354 O   0  0  0  0  0  0
   -3.4189   30.9122   57.4377 C   0  0  0  0  0  0
   -2.7556   29.7160   56.7240 C   0  0  0  0  0  0
   -3.5369   28.3543   56.7356 C   0  0  2  0  0  0
   -3.7472   27.7745   58.1593 C   0  0  0  0  0  0
   -4.8393   27.7701   58.7303 O   0  0  0  0  0  0
   -2.4813   27.1368   58.7885 C   0  0  1  0  0  0
   -1.7011   26.2558   57.7805 C   0  0  0  0  0  0
   -0.9151   25.3705   58.1101 O   0  0  0  0  0  0
   -1.8966   26.5116   56.4722 N   0  0  0  0  0  0
   -2.7146   27.3771   55.8305 C   0  0  0  0  0  0
   -2.7405   27.3701   54.6019 O   0  0  0  0  0  0
   -1.5391   28.1691   59.2267 N   0  0  0  0  0  0
   -4.7733   28.7812   56.1122 O   0  0  0  0  0  0
   -5.7009   28.0196   55.4213 C   0  0  0  0  0  0
   -5.7468   26.6211   55.3378 C   0  0  0  0  0  0
   -6.6357   26.0078   54.4487 C   0  0  0  0  0  0
   -7.4926   26.7778   53.6584 C   0  0  0  0  0  0
   -7.5384   28.1576   53.8589 C   0  0  0  0  0  0
   -6.6426   28.7708   54.7227 C   0  0  0  0  0  0
   -8.2811   26.1713   52.6955 O   0  0  0  0  0  0
   -8.3408   26.6552   51.3942 C   0  0  0  0  0  0
   -7.3917   27.5410   50.8572 C   0  0  0  0  0  0
   -7.5250   28.0326   49.5614 C   0  0  0  0  0  0
   -8.5763   27.6208   48.7599 C   0  0  0  0  0  0
   -9.4975   26.7060   49.2525 C   0  0  0  0  0  0
   -9.3873   26.2283   50.5652 C   0  0  0  0  0  0
  -10.7391   26.1698   48.1893 Cl  0  0  0  0  0  0
   -4.2437   33.6083   60.3609 H   0  0  0  0  0  0
   -2.6734   32.8261   60.2142 H   0  0  0  0  0  0
   -3.4829   33.4650   58.7836 H   0  0  0  0  0  0
   -4.5611   31.1714   60.5096 H   0  0  0  0  0  0
   -5.3050   31.7209   59.0427 H   0  0  0  0  0  0
   -4.4025   31.0994   57.0025 H   0  0  0  0  0  0
   -2.8231   31.8095   57.2647 H   0  0  0  0  0  0
   -2.6222   30.0314   55.6858 H   0  0  0  0  0  0
   -1.7382   29.6044   57.0997 H   0  0  0  0  0  0
   -2.7832   26.5173   59.6346 H   0  0  0  0  0  0
   -1.3193   25.9228   55.8999 H   0  0  0  0  0  0
   -1.9930   29.0785   59.2409 H   0  0  0  0  0  0
   -1.2319   27.9910   60.1744 H   0  0  0  0  0  0
   -5.0775   26.0021   55.9153 H   0  0  0  0  0  0
   -6.6226   24.9323   54.3407 H   0  0  0  0  0  0
   -8.2252   28.7590   53.2882 H   0  0  0  0  0  0
   -6.6335   29.8475   54.8057 H   0  0  0  0  0  0
   -6.5401   27.8678   51.4350 H   0  0  0  0  0  0
   -6.7952   28.7257   49.1699 H   0  0  0  0  0  0
   -8.6566   27.9925   47.7486 H   0  0  0  0  0  0
  -10.1102   25.5218   50.9427 H   0  0  0  0  0  0
  1  2  1  0  0  0
  1 31  1  0  0  0
  1 32  1  0  0  0
  1 33  1  0  0  0
  2  3  1  0  0  0
  2 34  1  0  0  0
  2 35  1  0  0  0
  3  4  1  0  0  0
  4  5  1  0  0  0
  4 36  1  0  0  0
  4 37  1  0  0  0
  5  6  1  0  0  0
  5 38  1  0  0  0
  5 39  1  0  0  0
  6 13  1  0  0  0
  6  7  1  0  0  0
  6 16  1  0  0  0
  7  8  2  0  0  0
  7  9  1  0  0  0
  9 10  1  0  0  0
  9 15  1  0  0  0
  9 40  1  0  0  0
 10 11  2  0  0  0
 10 12  1  0  0  0
 12 13  1  0  0  0
 12 41  1  0  0  0
 13 14  2  0  0  0
 15 42  1  0  0  0
 15 43  1  0  0  0
 16 17  1  0  0  0
 17 22  1  0  0  0
 17 18  2  0  0  0
 18 19  1  0  0  0
 18 44  1  0  0  0
 19 20  2  0  0  0
 19 45  1  0  0  0
 20 21  1  0  0  0
 20 23  1  0  0  0
 21 22  2  0  0  0
 21 46  1  0  0  0
 22 47  1  0  0  0
 23 24  1  0  0  0
 24 29  1  0  0  0
 24 25  2  0  0  0
 25 26  1  0  0  0
 25 48  1  0  0  0
 26 27  2  0  0  0
 26 49  1  0  0  0
 27 28  1  0  0  0
 27 50  1  0  0  0
 28 29  2  0  0  0
 28 30  1  0  0  0
 29 51  1  0  0  0
M  END
> <s_m_entry_id>
65348

> <s_m_entry_name>
ligand_docking-pose.98

> <s_m_Source_Path>
/home/csk/Desktop/cluster/DUD-E-result/mmp13

> <s_m_Source_File>
ligand_docking-pose.sdf

> <i_m_Source_File_Index>
98

> <i_lp_mmshare_version>
53161

> <r_lp_tautomer_probability>
1

> <s_lp_Force_Field>
OPLS_2005

> <r_lp_Energy>
31.497621

> <b_lp_Chiralities_Consistent>
1

> <s_lp_Variant>
303936-1

> <s_i_glide_gridfile>
glide-grid_830c

> <i_i_glide_lignum>
1710

> <i_i_glide_rotatable_bonds>
8

> <r_i_docking_score>
-7.45414063421573

> <r_i_glide_ligand_efficiency>
-0.248471354473858

> <r_i_glide_ligand_efficiency_sa>
-0.772058268544247

> <r_i_glide_ligand_efficiency_ln>
-1.69366197146119

> <r_i_glide_gscore>
-7.45414063421573

> <r_i_glide_lipo>
-3.08632485442163

> <r_i_glide_hbond>
-0.519212845230011

> <r_i_glide_metal>
0

> <r_i_glide_rewards>
-0.540142984125609

> <r_i_glide_evdw>
-45.4598236083984

> <r_i_glide_ecoul>
-10.1475696563721

> <r_i_glide_erotb>
0.743557516223693

> <r_i_glide_esite>
-0.256890837786443

> <r_i_glide_emodel>
-73.8964131085839

> <r_i_glide_energy>
-55.6073932647705

> <r_i_glide_einternal>
7.67032480239868

> <i_i_glide_confnum>
5

> <i_i_glide_posenum>
150

> <r_i_glide_eff_state_penalty>
0

> <i_f3d_flags>
0

> <s_user_duplicate_titles>
303936

> <s_m_subgroup_title>
dock_pv

> <s_m_subgroupid>
dock_pv1

> <b_m_subgroup_collapsed>
0

$$$$
303952
                    3D
 Schrodinger Suite 2021-1.
 51 53  0  0  1  0            999 V2000
   -3.3884   33.3700   55.7099 C   0  0  0  0  0  0
   -3.1363   33.3869   57.2251 C   0  0  0  0  0  0
   -3.2785   32.0938   57.8014 O   0  0  0  0  0  0
   -4.6200   31.6577   57.9896 C   0  0  0  0  0  0
   -4.6247   30.1911   58.4708 C   0  0  0  0  0  0
   -4.3232   29.0912   57.3956 C   0  0  1  0  0  0
   -2.9194   29.3019   56.7698 C   0  0  0  0  0  0
   -2.7364   29.8898   55.7100 O   0  0  0  0  0  0
   -1.7701   28.7116   57.6171 C   0  0  1  0  0  0
   -2.0629   27.2117   57.9051 C   0  0  0  0  0  0
   -1.2344   26.2993   57.9085 O   0  0  0  0  0  0
   -3.3487   26.9700   58.2322 N   0  0  0  0  0  0
   -4.4693   27.7142   58.1100 C   0  0  0  0  0  0
   -5.5390   27.2730   58.5100 O   0  0  0  0  0  0
   -0.4940   28.8444   56.9100 N   0  0  0  0  0  0
   -5.4054   29.3031   56.4510 O   0  0  0  0  0  0
   -5.8938   28.4587   55.4541 C   0  0  0  0  0  0
   -6.7390   29.1025   54.5557 C   0  0  0  0  0  0
   -7.3336   28.4165   53.5058 C   0  0  0  0  0  0
   -7.1538   27.0451   53.3458 C   0  0  0  0  0  0
   -6.3302   26.3803   54.2573 C   0  0  0  0  0  0
   -5.6722   27.0791   55.2794 C   0  0  0  0  0  0
   -7.8126   26.3268   52.3563 O   0  0  0  0  0  0
   -8.1081   26.8753   51.1138 C   0  0  0  0  0  0
   -7.1653   27.6249   50.4052 C   0  0  0  0  0  0
   -7.4784   28.1700   49.1570 C   0  0  0  0  0  0
   -8.7304   27.9702   48.5884 C   0  0  0  0  0  0
   -9.6745   27.2148   49.2717 C   0  0  0  0  0  0
   -9.3629   26.6709   50.5179 C   0  0  0  0  0  0
  -10.5810   25.7700   51.3100 Cl  0  0  0  0  0  0
   -3.1778   34.3446   55.2698 H   0  0  0  0  0  0
   -2.7482   32.6383   55.2167 H   0  0  0  0  0  0
   -4.4204   33.1189   55.4676 H   0  0  0  0  0  0
   -2.1101   33.7086   57.4042 H   0  0  0  0  0  0
   -3.7766   34.1151   57.7265 H   0  0  0  0  0  0
   -5.0905   32.2893   58.7454 H   0  0  0  0  0  0
   -5.2142   31.7542   57.0804 H   0  0  0  0  0  0
   -3.9331   30.1139   59.3100 H   0  0  0  0  0  0
   -5.6124   30.0089   58.9021 H   0  0  0  0  0  0
   -1.7208   29.2501   58.5650 H   0  0  0  0  0  0
   -3.5377   26.0211   58.5482 H   0  0  0  0  0  0
   -0.6200   29.5048   56.1514 H   0  0  0  0  0  0
    0.2072   29.2424   57.5211 H   0  0  0  0  0  0
   -6.9089   30.1639   54.6603 H   0  0  0  0  0  0
   -7.9390   28.9653   52.8105 H   0  0  0  0  0  0
   -6.1892   25.3128   54.1665 H   0  0  0  0  0  0
   -5.0393   26.5027   55.9319 H   0  0  0  0  0  0
   -6.1825   27.7700   50.8263 H   0  0  0  0  0  0
   -6.7390   28.7515   48.6264 H   0  0  0  0  0  0
   -8.9621   28.3963   47.6230 H   0  0  0  0  0  0
  -10.6506   27.0541   48.8360 H   0  0  0  0  0  0
  1  2  1  0  0  0
  1 31  1  0  0  0
  1 32  1  0  0  0
  1 33  1  0  0  0
  2  3  1  0  0  0
  2 34  1  0  0  0
  2 35  1  0  0  0
  3  4  1  0  0  0
  4  5  1  0  0  0
  4 36  1  0  0  0
  4 37  1  0  0  0
  5  6  1  0  0  0
  5 38  1  0  0  0
  5 39  1  0  0  0
  6 13  1  0  0  0
  6  7  1  0  0  0
  6 16  1  0  0  0
  7  8  2  0  0  0
  7  9  1  0  0  0
  9 10  1  0  0  0
  9 15  1  0  0  0
  9 40  1  0  0  0
 10 11  2  0  0  0
 10 12  1  0  0  0
 12 13  1  0  0  0
 12 41  1  0  0  0
 13 14  2  0  0  0
 15 42  1  0  0  0
 15 43  1  0  0  0
 16 17  1  0  0  0
 17 22  1  0  0  0
 17 18  2  0  0  0
 18 19  1  0  0  0
 18 44  1  0  0  0
 19 20  2  0  0  0
 19 45  1  0  0  0
 20 21  1  0  0  0
 20 23  1  0  0  0
 21 22  2  0  0  0
 21 46  1  0  0  0
 22 47  1  0  0  0
 23 24  1  0  0  0
 24 29  1  0  0  0
 24 25  2  0  0  0
 25 26  1  0  0  0
 25 48  1  0  0  0
 26 27  2  0  0  0
 26 49  1  0  0  0
 27 28  1  0  0  0
 27 50  1  0  0  0
 28 29  2  0  0  0
 28 51  1  0  0  0
 29 30  1  0  0  0
M  END
> <s_m_entry_id>
65351

> <s_m_entry_name>
ligand_docking-pose.101

> <s_m_Source_Path>
/home/csk/Desktop/cluster/DUD-E-result/mmp13

> <s_m_Source_File>
ligand_docking-pose.sdf

> <i_m_Source_File_Index>
101

> <i_lp_mmshare_version>
53161

> <r_lp_tautomer_probability>
1

> <s_lp_Force_Field>
OPLS_2005

> <r_lp_Energy>
31.266866

> <b_lp_Chiralities_Consistent>
1

> <s_lp_Variant>
303952-2

> <s_i_glide_gridfile>
glide-grid_830c

> <i_i_glide_lignum>
1703

> <i_i_glide_rotatable_bonds>
8

> <r_i_docking_score>
-7.42403703227897

> <r_i_glide_ligand_efficiency>
-0.247467901075966

> <r_i_glide_ligand_efficiency_sa>
-0.768940305531642

> <r_i_glide_ligand_efficiency_ln>
-1.68682210509614

> <r_i_glide_gscore>
-7.42403703227897

> <r_i_glide_lipo>
-3.00682064812403

> <r_i_glide_hbond>
-0.814354618340551

> <r_i_glide_metal>
0

> <r_i_glide_rewards>
-0.543836453507776

> <r_i_glide_evdw>
-41.3810157775879

> <r_i_glide_ecoul>
-11.1646013259888

> <r_i_glide_erotb>
0.743557516223693

> <r_i_glide_esite>
-0.0588418407525904

> <r_i_glide_emodel>
-67.9010270152456

> <r_i_glide_energy>
-52.5456171035767

> <r_i_glide_einternal>
9.84551048278809

> <i_i_glide_confnum>
1

> <i_i_glide_posenum>
182

> <r_i_glide_eff_state_penalty>
0

> <i_f3d_flags>
0

> <s_user_duplicate_titles>
303952

> <s_m_subgroup_title>
dock_pv

> <s_m_subgroupid>
dock_pv1

> <b_m_subgroup_collapsed>
0

$$$$
309975
                    3D
 Schrodinger Suite 2021-1.
 57 59  0  0  1  0            999 V2000
   -5.0465   32.9134   56.1634 C   0  0  0  0  0  0
   -4.8867   31.5523   56.8764 C   0  0  1  0  0  0
   -4.8638   31.7205   58.4120 C   0  0  0  0  0  0
   -4.6699   30.3907   59.1497 C   0  0  0  0  0  0
   -5.6597   29.2887   58.7095 C   0  0  0  0  0  0
   -5.8329   29.1666   57.2400 N   0  0  1  0  0  0
   -5.9008   30.4334   56.4303 C   0  0  1  0  0  0
   -7.3641   30.9535   56.3977 C   0  0  0  0  0  0
   -7.9392   31.0575   55.3101 O   0  0  0  0  0  0
   -7.9371   31.2864   57.5728 N   0  0  0  0  0  0
   -9.2468   31.7842   57.5742 O   0  0  0  0  0  0
   -5.1759   27.6795   56.5129 S   0  0  0  0  0  0
   -3.7662   27.9153   56.1757 O   0  0  0  0  0  0
   -5.5392   26.5721   57.4027 O   0  0  0  0  0  0
   -6.0432   27.4107   54.9736 C   0  0  0  0  0  0
   -5.5278   27.9727   53.8130 C   0  0  0  0  0  0
   -6.1732   27.7800   52.6032 C   0  0  0  0  0  0
   -7.3466   27.0230   52.5390 C   0  0  0  0  0  0
   -7.8421   26.4380   53.7033 C   0  0  0  0  0  0
   -7.1945   26.6262   54.9226 C   0  0  0  0  0  0
   -8.0564   26.8160   51.3753 O   0  0  0  0  0  0
   -7.6500   27.5224   50.1994 C   0  0  0  0  0  0
   -8.6723   27.4017   49.0850 C   0  0  0  0  0  0
   -9.6052   26.3670   49.1227 C   0  0  0  0  0  0
  -10.4842   26.1874   48.0687 C   0  0  0  0  0  0
  -10.4797   27.0575   46.9835 C   0  0  0  0  0  0
   -9.5758   28.1157   46.9532 C   0  0  0  0  0  0
   -8.6589   28.2998   48.0029 C   0  0  0  0  0  0
   -7.7366   29.3303   48.0248 O   0  0  0  0  0  0
   -7.8202   30.3642   47.0472 C   0  0  0  0  0  0
   -3.6056   31.0850   56.5031 O   0  0  0  0  0  0
   -5.7289   30.1712   55.3887 H   0  0  0  0  0  0
   -5.9620   33.4215   56.4688 H   0  0  0  0  0  0
   -4.2183   33.5847   56.3942 H   0  0  0  0  0  0
   -5.0854   32.8018   55.0802 H   0  0  0  0  0  0
   -4.0939   32.4395   58.7000 H   0  0  0  0  0  0
   -5.7852   32.1959   58.7480 H   0  0  0  0  0  0
   -4.7391   30.5698   60.2212 H   0  0  0  0  0  0
   -3.6539   30.0348   58.9761 H   0  0  0  0  0  0
   -6.6457   29.3703   59.1577 H   0  0  0  0  0  0
   -5.2731   28.3373   59.0745 H   0  0  0  0  0  0
   -7.5410   31.1981   58.4999 H   0  0  0  0  0  0
   -9.7705   31.0580   57.9225 H   0  0  0  0  0  0
   -4.6297   28.5688   53.8467 H   0  0  0  0  0  0
   -5.7447   28.2354   51.7213 H   0  0  0  0  0  0
   -8.7365   25.8383   53.6565 H   0  0  0  0  0  0
   -7.5857   26.1671   55.8192 H   0  0  0  0  0  0
   -7.5439   28.5706   50.4436 H   0  0  0  0  0  0
   -6.6908   27.1614   49.8341 H   0  0  0  0  0  0
   -9.6204   25.6570   49.9388 H   0  0  0  0  0  0
  -11.1388   25.3387   48.1029 H   0  0  0  0  0  0
  -11.1680   26.9109   46.1650 H   0  0  0  0  0  0
   -9.5889   28.7725   46.0963 H   0  0  0  0  0  0
   -7.1392   31.1703   47.3109 H   0  0  0  0  0  0
   -7.5414   30.0017   46.0562 H   0  0  0  0  0  0
   -8.8169   30.8049   47.0034 H   0  0  0  0  0  0
   -3.6109   30.9699   55.5464 H   0  0  0  0  0  0
  1  2  1  0  0  0
  1 33  1  0  0  0
  1 34  1  0  0  0
  1 35  1  0  0  0
  2  7  1  0  0  0
  2  3  1  0  0  0
  2 31  1  0  0  0
  3  4  1  0  0  0
  3 36  1  0  0  0
  3 37  1  0  0  0
  4  5  1  0  0  0
  4 38  1  0  0  0
  4 39  1  0  0  0
  5  6  1  0  0  0
  5 40  1  0  0  0
  5 41  1  0  0  0
  6  7  1  0  0  0
  6 12  1  0  0  0
  7 32  1  0  0  0
  7  8  1  0  0  0
  8  9  2  0  0  0
  8 10  1  0  0  0
 10 11  1  0  0  0
 10 42  1  0  0  0
 11 43  1  0  0  0
 12 13  2  0  0  0
 12 14  2  0  0  0
 12 15  1  0  0  0
 15 20  1  0  0  0
 15 16  2  0  0  0
 16 17  1  0  0  0
 16 44  1  0  0  0
 17 18  2  0  0  0
 17 45  1  0  0  0
 18 19  1  0  0  0
 18 21  1  0  0  0
 19 20  2  0  0  0
 19 46  1  0  0  0
 20 47  1  0  0  0
 21 22  1  0  0  0
 22 23  1  0  0  0
 22 48  1  0  0  0
 22 49  1  0  0  0
 23 28  1  0  0  0
 23 24  2  0  0  0
 24 25  1  0  0  0
 24 50  1  0  0  0
 25 26  2  0  0  0
 25 51  1  0  0  0
 26 27  1  0  0  0
 26 52  1  0  0  0
 27 28  2  0  0  0
 27 53  1  0  0  0
 28 29  1  0  0  0
 29 30  1  0  0  0
 30 54  1  0  0  0
 30 55  1  0  0  0
 30 56  1  0  0  0
 31 57  1  0  0  0
M  END
> <s_m_entry_id>
65360

> <s_m_entry_name>
ligand_docking-pose.110

> <s_m_Source_Path>
/home/csk/Desktop/cluster/DUD-E-result/mmp13

> <s_m_Source_File>
ligand_docking-pose.sdf

> <i_m_Source_File_Index>
110

> <i_lp_mmshare_version>
53161

> <r_lp_tautomer_probability>
1

> <s_lp_Force_Field>
OPLS_2005

> <r_lp_Energy>
35.880189

> <b_lp_Chiralities_Consistent>
1

> <s_lp_Variant>
309975-1

> <s_i_glide_gridfile>
glide-grid_830c

> <i_i_glide_lignum>
589

> <i_i_glide_rotatable_bonds>
10

> <r_i_docking_score>
-7.39178204386534

> <r_i_glide_ligand_efficiency>
-0.238444582060172

> <r_i_glide_ligand_efficiency_sa>
-0.749045195893973

> <r_i_glide_ligand_efficiency_ln>
-1.66707338180595

> <r_i_glide_gscore>
-7.39178204386534

> <r_i_glide_lipo>
-4.10246315856309

> <r_i_glide_hbond>
-0.44561282006038

> <r_i_glide_metal>
0

> <r_i_glide_rewards>
0.662649036522363

> <r_i_glide_evdw>
-50.4694862365723

> <r_i_glide_ecoul>
-10.4303684234619

> <r_i_glide_erotb>
0.691513864966274

> <r_i_glide_esite>
-0.109839391382616

> <r_i_glide_emodel>
-76.5553083679986

> <r_i_glide_energy>
-60.8998546600342

> <r_i_glide_einternal>
11.7335805892944

> <i_i_glide_confnum>
72

> <i_i_glide_posenum>
350

> <r_i_glide_eff_state_penalty>
0

> <i_f3d_flags>
0

> <s_user_duplicate_titles>
309975

> <s_m_subgroup_title>
dock_pv

> <s_m_subgroupid>
dock_pv1

> <b_m_subgroup_collapsed>
0

$$$$
310885
                    3D
 Schrodinger Suite 2021-1.
 52 54  0  0  1  0            999 V2000
    0.3472   27.7155   57.8814 C   0  0  0  0  0  0
   -0.8148   28.7359   57.8682 C   0  0  1  0  0  0
   -0.5641   29.8806   56.8500 C   0  0  0  0  0  0
   -1.6780   30.9481   56.8423 C   0  0  0  0  0  0
   -3.0748   30.3319   56.6488 C   0  0  0  0  0  0
   -3.3088   29.1679   57.5479 N   0  0  3  0  0  0
   -2.2504   28.1220   57.6869 C   0  0  1  0  0  0
   -2.3186   27.1578   56.4786 C   0  0  0  0  0  0
   -2.3390   27.5635   55.3100 O   0  0  0  0  0  0
   -2.3390   25.8533   56.7725 N   0  0  0  0  0  0
   -2.3390   24.9700   55.7008 O   0  0  0  0  0  0
   -4.9669   28.8120   58.0498 S   0  0  0  0  0  0
   -4.9775   27.6135   58.8997 O   0  0  0  0  0  0
   -5.5464   30.0751   58.5103 O   0  0  0  0  0  0
   -5.8254   28.4038   56.5361 C   0  0  0  0  0  0
   -6.4162   29.4469   55.8290 C   0  0  0  0  0  0
   -7.0927   29.1815   54.6519 C   0  0  0  0  0  0
   -7.1740   27.8882   54.1525 C   0  0  0  0  0  0
   -6.5751   26.8334   54.8597 C   0  0  0  0  0  0
   -5.9036   27.0916   56.0577 C   0  0  0  0  0  0
   -7.8708   27.7699   52.9717 O   0  0  0  0  0  0
   -7.8383   26.5568   52.2378 C   0  0  0  0  0  0
   -8.3391   26.8550   50.8345 C   0  0  0  0  0  0
   -7.6493   27.7700   50.0314 C   0  0  0  0  0  0
   -8.1553   28.0728   48.7667 C   0  0  0  0  0  0
   -9.2872   27.5101   48.2735 N   0  0  0  0  0  0
   -9.9390   26.6130   49.0558 C   0  0  0  0  0  0
   -9.5019   26.2579   50.3349 C   0  0  0  0  0  0
   -0.7895   29.3078   59.1658 O   0  0  0  0  0  0
   -2.4979   27.5184   58.5620 H   0  0  0  0  0  0
    0.4857   27.2421   56.9100 H   0  0  0  0  0  0
    1.2951   28.1929   58.1354 H   0  0  0  0  0  0
    0.1793   26.9209   58.6093 H   0  0  0  0  0  0
    0.4149   30.3323   57.0181 H   0  0  0  0  0  0
   -0.4804   29.4545   55.8501 H   0  0  0  0  0  0
   -1.4886   31.6834   56.0596 H   0  0  0  0  0  0
   -1.6608   31.5034   57.7813 H   0  0  0  0  0  0
   -3.1241   29.9693   55.6221 H   0  0  0  0  0  0
   -3.8642   31.0720   56.7838 H   0  0  0  0  0  0
   -2.4341   25.4054   57.6776 H   0  0  0  0  0  0
   -3.2033   24.5082   55.7775 H   0  0  0  0  0  0
   -6.3538   30.4665   56.1820 H   0  0  0  0  0  0
   -7.5389   29.9956   54.1100 H   0  0  0  0  0  0
   -6.6302   25.8165   54.5005 H   0  0  0  0  0  0
   -5.4476   26.2763   56.6030 H   0  0  0  0  0  0
   -6.8214   26.1700   52.1626 H   0  0  0  0  0  0
   -8.4519   25.7988   52.7269 H   0  0  0  0  0  0
   -6.7512   28.2557   50.3866 H   0  0  0  0  0  0
   -7.6484   28.7840   48.1300 H   0  0  0  0  0  0
  -10.8287   26.1767   48.6287 H   0  0  0  0  0  0
  -10.0582   25.5434   50.9233 H   0  0  0  0  0  0
   -0.9252   28.6171   59.8170 H   0  0  0  0  0  0
  1  2  1  0  0  0
  1 31  1  0  0  0
  1 32  1  0  0  0
  1 33  1  0  0  0
  2  7  1  0  0  0
  2  3  1  0  0  0
  2 29  1  0  0  0
  3  4  1  0  0  0
  3 34  1  0  0  0
  3 35  1  0  0  0
  4  5  1  0  0  0
  4 36  1  0  0  0
  4 37  1  0  0  0
  5  6  1  0  0  0
  5 38  1  0  0  0
  5 39  1  0  0  0
  6  7  1  0  0  0
  6 12  1  0  0  0
  7 30  1  0  0  0
  7  8  1  0  0  0
  8  9  2  0  0  0
  8 10  1  0  0  0
 10 11  1  0  0  0
 10 40  1  0  0  0
 11 41  1  0  0  0
 12 13  2  0  0  0
 12 14  2  0  0  0
 12 15  1  0  0  0
 15 20  1  0  0  0
 15 16  2  0  0  0
 16 17  1  0  0  0
 16 42  1  0  0  0
 17 18  2  0  0  0
 17 43  1  0  0  0
 18 19  1  0  0  0
 18 21  1  0  0  0
 19 20  2  0  0  0
 19 44  1  0  0  0
 20 45  1  0  0  0
 21 22  1  0  0  0
 22 23  1  0  0  0
 22 46  1  0  0  0
 22 47  1  0  0  0
 23 28  1  0  0  0
 23 24  2  0  0  0
 24 25  1  0  0  0
 24 48  1  0  0  0
 25 26  2  0  0  0
 25 49  1  0  0  0
 26 27  1  0  0  0
 27 28  2  0  0  0
 27 50  1  0  0  0
 28 51  1  0  0  0
 29 52  1  0  0  0
M  END
> <s_m_entry_id>
65361

> <s_m_entry_name>
ligand_docking-pose.111

> <s_m_Source_Path>
/home/csk/Desktop/cluster/DUD-E-result/mmp13

> <s_m_Source_File>
ligand_docking-pose.sdf

> <i_m_Source_File_Index>
111

> <i_lp_mmshare_version>
53161

> <r_lp_tautomer_probability>
1

> <s_lp_Force_Field>
OPLS_2005

> <r_lp_Energy>
23.756681

> <b_lp_Chiralities_Consistent>
1

> <s_lp_Variant>
310885-1

> <s_i_glide_gridfile>
glide-grid_830c

> <i_i_glide_lignum>
591

> <i_i_glide_rotatable_bonds>
9

> <r_i_docking_score>
-7.38974691908777

> <r_i_glide_ligand_efficiency>
-0.254818859278889

> <r_i_glide_ligand_efficiency_sa>
-0.782884267985869

> <r_i_glide_ligand_efficiency_ln>
-1.69206465665749

> <r_i_glide_gscore>
-7.38974691908777

> <r_i_glide_lipo>
-2.90089217757074

> <r_i_glide_hbond>
-0.082801831724441

> <r_i_glide_metal>
0

> <r_i_glide_rewards>
-0.53946513782233

> <r_i_glide_evdw>
-47.0442161560059

> <r_i_glide_ecoul>
-13.7594375610352

> <r_i_glide_erotb>
0.780317006970454

> <r_i_glide_esite>
-0.230778336985143

> <r_i_glide_emodel>
-87.8794455304156

> <r_i_glide_energy>
-60.803653717041

> <r_i_glide_einternal>
11.5893926620483

> <i_i_glide_confnum>
81

> <i_i_glide_posenum>
49

> <r_i_glide_eff_state_penalty>
0

> <i_f3d_flags>
0

> <s_user_duplicate_titles>
310885

> <s_m_subgroup_title>
dock_pv

> <s_m_subgroupid>
dock_pv1

> <b_m_subgroup_collapsed>
0

$$$$
187849
                    3D
 Schrodinger Suite 2021-1.
 50 52  0  0  1  0            999 V2000
   -8.8838   28.1547   46.9448 C   0  0  0  0  0  0
  -10.0626   27.4116   46.9550 C   0  0  0  0  0  0
  -10.4375   26.7172   48.1056 C   0  0  0  0  0  0
   -9.6421   26.7640   49.2531 C   0  0  0  0  0  0
   -8.4330   27.4670   49.2297 C   0  0  0  0  0  0
   -8.0676   28.1699   48.0736 C   0  0  0  0  0  0
   -7.5542   27.6372   50.4544 C   0  0  0  0  0  0
   -7.6403   26.6236   51.4683 O   0  0  0  0  0  0
   -7.1388   26.9592   52.7234 C   0  0  0  0  0  0
   -6.6350   28.2315   53.0207 C   0  0  0  0  0  0
   -6.2478   28.5698   54.2999 C   0  0  0  0  0  0
   -6.2494   27.6212   55.3042 C   0  0  0  0  0  0
   -6.6792   26.3177   55.0317 C   0  0  0  0  0  0
   -7.1395   26.0005   53.7443 C   0  0  0  0  0  0
   -5.7360   28.1984   56.9164 S   0  0  0  0  0  0
   -5.4391   27.0409   57.7676 O   0  0  0  0  0  0
   -6.7390   29.1856   57.3097 O   0  0  0  0  0  0
   -4.2707   29.1571   56.6800 N   0  0  1  0  0  0
   -2.9011   28.5992   56.5425 C   0  0  0  0  0  0
   -2.0915   29.6248   55.7105 C   0  0  0  0  0  0
   -1.8982   30.9680   56.4433 C   0  0  0  0  0  0
   -1.2791   30.7157   57.7017 O   0  0  0  0  0  0
   -2.0684   29.9224   58.5854 C   0  0  0  0  0  0
   -2.3019   28.5192   57.9798 C   0  0  0  0  0  0
   -2.8617   27.2621   55.7500 C   0  0  0  0  0  0
   -3.1390   27.2487   54.5407 O   0  0  0  0  0  0
   -2.4813   26.1612   56.4169 N   0  0  0  0  0  0
   -2.3390   24.9700   55.7100 O   0  0  0  0  0  0
  -10.0737   26.1686   50.3870 F   0  0  0  0  0  0
   -8.5900   28.7032   46.0605 H   0  0  0  0  0  0
  -10.6923   27.3870   46.0780 H   0  0  0  0  0  0
  -11.3679   26.1716   48.1120 H   0  0  0  0  0  0
   -7.1527   28.7472   48.0510 H   0  0  0  0  0  0
   -7.9386   28.5699   50.8472 H   0  0  0  0  0  0
   -6.5121   27.7699   50.1617 H   0  0  0  0  0  0
   -6.5450   29.0060   52.2813 H   0  0  0  0  0  0
   -5.9390   29.5808   54.5100 H   0  0  0  0  0  0
   -6.6784   25.5642   55.8078 H   0  0  0  0  0  0
   -7.4970   25.0035   53.5344 H   0  0  0  0  0  0
   -4.4294   29.9737   56.0833 H   0  0  0  0  0  0
   -2.5780   29.7699   54.7478 H   0  0  0  0  0  0
   -1.0991   29.2356   55.4815 H   0  0  0  0  0  0
   -2.8432   31.4983   56.5752 H   0  0  0  0  0  0
   -1.2532   31.6259   55.8601 H   0  0  0  0  0  0
   -3.0139   30.4227   58.8054 H   0  0  0  0  0  0
   -1.5392   29.8367   59.5350 H   0  0  0  0  0  0
   -1.3389   28.0063   57.9677 H   0  0  0  0  0  0
   -2.9507   27.9433   58.6423 H   0  0  0  0  0  0
   -2.3571   26.0574   57.4164 H   0  0  0  0  0  0
   -3.1623   24.4756   55.9181 H   0  0  0  0  0  0
  1  6  1  0  0  0
  1  2  2  0  0  0
  1 30  1  0  0  0
  2  3  1  0  0  0
  2 31  1  0  0  0
  3  4  2  0  0  0
  3 32  1  0  0  0
  4  5  1  0  0  0
  4 29  1  0  0  0
  5  6  2  0  0  0
  5  7  1  0  0  0
  6 33  1  0  0  0
  7  8  1  0  0  0
  7 34  1  0  0  0
  7 35  1  0  0  0
  8  9  1  0  0  0
  9 14  1  0  0  0
  9 10  2  0  0  0
 10 11  1  0  0  0
 10 36  1  0  0  0
 11 12  2  0  0  0
 11 37  1  0  0  0
 12 13  1  0  0  0
 12 15  1  0  0  0
 13 14  2  0  0  0
 13 38  1  0  0  0
 14 39  1  0  0  0
 15 16  2  0  0  0
 15 17  2  0  0  0
 15 18  1  0  0  0
 18 19  1  0  0  0
 18 40  1  0  0  0
 19 24  1  0  0  0
 19 20  1  0  0  0
 19 25  1  0  0  0
 20 21  1  0  0  0
 20 41  1  0  0  0
 20 42  1  0  0  0
 21 22  1  0  0  0
 21 43  1  0  0  0
 21 44  1  0  0  0
 22 23  1  0  0  0
 23 24  1  0  0  0
 23 45  1  0  0  0
 23 46  1  0  0  0
 24 47  1  0  0  0
 24 48  1  0  0  0
 25 26  2  0  0  0
 25 27  1  0  0  0
 27 28  1  0  0  0
 27 49  1  0  0  0
 28 50  1  0  0  0
M  END
> <s_m_entry_id>
65363

> <s_m_entry_name>
ligand_docking-pose.113

> <s_m_Source_Path>
/home/csk/Desktop/cluster/DUD-E-result/mmp13

> <s_m_Source_File>
ligand_docking-pose.sdf

> <i_m_Source_File_Index>
113

> <i_lp_mmshare_version>
53161

> <r_lp_tautomer_probability>
1

> <s_lp_Force_Field>
OPLS_2005

> <r_lp_Energy>
27.956445

> <b_lp_Chiralities_Consistent>
1

> <s_lp_Variant>
187849-1

> <s_i_glide_gridfile>
glide-grid_830c

> <i_i_glide_lignum>
197

> <i_i_glide_rotatable_bonds>
9

> <r_i_docking_score>
-7.3572990551187

> <r_i_glide_ligand_efficiency>
-0.253699967417886

> <r_i_glide_ligand_efficiency_sa>
-0.779446677699047

> <r_i_glide_ligand_efficiency_ln>
-1.68463491861541

> <r_i_glide_gscore>
-7.3572990551187

> <r_i_glide_lipo>
-3.63954040477764

> <r_i_glide_hbond>
0

> <r_i_glide_metal>
0

> <r_i_glide_rewards>
0.102677356999921

> <r_i_glide_evdw>
-43.9523773193359

> <r_i_glide_ecoul>
-15.2804899215698

> <r_i_glide_erotb>
0.880513667639532

> <r_i_glide_esite>
-0.211257320778241

> <r_i_glide_emodel>
-84.3501142353842

> <r_i_glide_energy>
-59.2328672409058

> <r_i_glide_einternal>
9.23961067199707

> <i_i_glide_confnum>
167

> <i_i_glide_posenum>
321

> <r_i_glide_eff_state_penalty>
0

> <i_f3d_flags>
0

> <s_user_duplicate_titles>
187849

> <s_m_subgroup_title>
dock_pv

> <s_m_subgroupid>
dock_pv1

> <b_m_subgroup_collapsed>
0

$$$$
309052
                    3D
 Schrodinger Suite 2021-1.
 53 55  0  0  1  0            999 V2000
    0.5552   28.0825   58.7845 C   0  0  0  0  0  0
   -0.7160   28.7593   58.2158 C   0  0  1  0  0  0
   -0.3847   29.7221   57.0474 C   0  0  0  0  0  0
   -1.6014   30.5517   56.5897 C   0  0  0  0  0  0
   -2.8036   29.6549   56.2478 C   0  0  0  0  0  0
   -3.0867   28.6291   57.2911 N   0  0  3  0  0  0
   -1.9416   27.8313   57.8574 C   0  0  1  0  0  0
   -1.6076   26.6399   56.9100 C   0  0  0  0  0  0
   -0.4729   26.1700   56.8763 O   0  0  0  0  0  0
   -2.5984   26.1275   56.1528 N   0  0  0  0  0  0
   -2.3390   24.9700   55.3972 O   0  0  0  0  0  0
   -4.7144   28.5397   57.9940 S   0  0  0  0  0  0
   -4.7979   27.3700   58.8753 O   0  0  0  0  0  0
   -5.0455   29.8715   58.5100 O   0  0  0  0  0  0
   -5.7655   28.2255   56.5829 C   0  0  0  0  0  0
   -6.3390   29.3131   55.9275 C   0  0  0  0  0  0
   -7.0733   29.1067   54.7696 C   0  0  0  0  0  0
   -7.2298   27.8280   54.2455 C   0  0  0  0  0  0
   -6.6807   26.7289   54.9249 C   0  0  0  0  0  0
   -5.9557   26.9271   56.1005 C   0  0  0  0  0  0
   -7.9394   27.7581   53.0673 O   0  0  0  0  0  0
   -7.9024   26.5700   52.2893 C   0  0  0  0  0  0
   -8.3390   26.9206   50.8769 C   0  0  0  0  0  0
   -7.5391   27.7700   50.1099 C   0  0  0  0  0  0
   -7.9411   28.1472   48.8318 C   0  0  0  0  0  0
   -9.1421   27.6659   48.3197 C   0  0  0  0  0  0
   -9.9393   26.8092   49.0746 C   0  0  0  0  0  0
   -9.5390   26.4320   50.3549 C   0  0  0  0  0  0
   -9.5398   28.0308   47.0806 F   0  0  0  0  0  0
   -1.1392   29.5482   59.3100 O   0  0  0  0  0  0
   -2.2816   27.3083   58.7524 H   0  0  0  0  0  0
    1.1514   27.6069   58.0067 H   0  0  0  0  0  0
    1.2239   28.7977   59.2669 H   0  0  0  0  0  0
    0.3047   27.3214   59.5248 H   0  0  0  0  0  0
    0.4599   30.3641   57.3026 H   0  0  0  0  0  0
   -0.0144   29.1372   56.2065 H   0  0  0  0  0  0
   -1.3403   31.1638   55.7257 H   0  0  0  0  0  0
   -1.8912   31.2544   57.3725 H   0  0  0  0  0  0
   -2.6516   29.1384   55.2997 H   0  0  0  0  0  0
   -3.6927   30.2706   56.1099 H   0  0  0  0  0  0
   -3.5722   26.4046   56.1582 H   0  0  0  0  0  0
   -2.9626   24.3111   55.7623 H   0  0  0  0  0  0
   -6.1965   30.3208   56.2920 H   0  0  0  0  0  0
   -7.4971   29.9513   54.2525 H   0  0  0  0  0  0
   -6.8062   25.7220   54.5551 H   0  0  0  0  0  0
   -5.5329   26.0739   56.6151 H   0  0  0  0  0  0
   -6.8896   26.1684   52.2368 H   0  0  0  0  0  0
   -8.5447   25.8048   52.7282 H   0  0  0  0  0  0
   -6.6181   28.1630   50.5136 H   0  0  0  0  0  0
   -7.3256   28.8132   48.2446 H   0  0  0  0  0  0
  -10.8694   26.4487   48.6624 H   0  0  0  0  0  0
  -10.1652   25.7713   50.9372 H   0  0  0  0  0  0
   -0.5352   30.2880   59.4011 H   0  0  0  0  0  0
  1  2  1  0  0  0
  1 32  1  0  0  0
  1 33  1  0  0  0
  1 34  1  0  0  0
  2  7  1  0  0  0
  2  3  1  0  0  0
  2 30  1  0  0  0
  3  4  1  0  0  0
  3 35  1  0  0  0
  3 36  1  0  0  0
  4  5  1  0  0  0
  4 37  1  0  0  0
  4 38  1  0  0  0
  5  6  1  0  0  0
  5 39  1  0  0  0
  5 40  1  0  0  0
  6  7  1  0  0  0
  6 12  1  0  0  0
  7 31  1  0  0  0
  7  8  1  0  0  0
  8  9  2  0  0  0
  8 10  1  0  0  0
 10 11  1  0  0  0
 10 41  1  0  0  0
 11 42  1  0  0  0
 12 13  2  0  0  0
 12 14  2  0  0  0
 12 15  1  0  0  0
 15 20  1  0  0  0
 15 16  2  0  0  0
 16 17  1  0  0  0
 16 43  1  0  0  0
 17 18  2  0  0  0
 17 44  1  0  0  0
 18 19  1  0  0  0
 18 21  1  0  0  0
 19 20  2  0  0  0
 19 45  1  0  0  0
 20 46  1  0  0  0
 21 22  1  0  0  0
 22 23  1  0  0  0
 22 47  1  0  0  0
 22 48  1  0  0  0
 23 28  1  0  0  0
 23 24  2  0  0  0
 24 25  1  0  0  0
 24 49  1  0  0  0
 25 26  2  0  0  0
 25 50  1  0  0  0
 26 27  1  0  0  0
 26 29  1  0  0  0
 27 28  2  0  0  0
 27 51  1  0  0  0
 28 52  1  0  0  0
 30 53  1  0  0  0
M  END
> <s_m_entry_id>
65365

> <s_m_entry_name>
ligand_docking-pose.115

> <s_m_Source_Path>
/home/csk/Desktop/cluster/DUD-E-result/mmp13

> <s_m_Source_File>
ligand_docking-pose.sdf

> <i_m_Source_File_Index>
115

> <i_lp_mmshare_version>
53161

> <r_lp_tautomer_probability>
1

> <s_lp_Force_Field>
OPLS_2005

> <r_lp_Energy>
24.703626

> <b_lp_Chiralities_Consistent>
1

> <s_lp_Variant>
309052-1

> <s_i_glide_gridfile>
glide-grid_830c

> <i_i_glide_lignum>
585

> <i_i_glide_rotatable_bonds>
9

> <r_i_docking_score>
-7.34759323012302

> <r_i_glide_ligand_efficiency>
-0.244919774337434

> <r_i_glide_ligand_efficiency_sa>
-0.761022683309362

> <r_i_glide_ligand_efficiency_ln>
-1.66945324032437

> <r_i_glide_gscore>
-7.34759323012302

> <r_i_glide_lipo>
-3.21900687532378

> <r_i_glide_hbond>
-0.29870095556814

> <r_i_glide_metal>
0

> <r_i_glide_rewards>
-0.1289417811889

> <r_i_glide_evdw>
-43.4609909057617

> <r_i_glide_ecoul>
-13.8442211151123

> <r_i_glide_erotb>
0.726375602625198

> <r_i_glide_esite>
-0.177636508112461

> <r_i_glide_emodel>
-86.1502571263266

> <r_i_glide_energy>
-57.305212020874

> <r_i_glide_einternal>
7.77408123016357

> <i_i_glide_confnum>
33

> <i_i_glide_posenum>
284

> <r_i_glide_eff_state_penalty>
0

> <i_f3d_flags>
0

> <s_user_duplicate_titles>
309052

> <s_m_subgroup_title>
dock_pv

> <s_m_subgroupid>
dock_pv1

> <b_m_subgroup_collapsed>
0

$$$$
188013
                    3D
 Schrodinger Suite 2021-1.
 51 54  0  0  1  0            999 V2000
  -10.0551   26.8528   49.9202 C   0  0  0  0  0  0
  -10.2622   27.2693   48.6099 C   0  0  0  0  0  0
   -9.2162   27.8567   47.9025 C   0  0  0  0  0  0
   -7.9576   27.9972   48.4847 C   0  0  0  0  0  0
   -7.7426   27.5244   49.7774 C   0  0  0  0  0  0
   -8.8028   26.9824   50.5191 C   0  0  0  0  0  0
   -8.7119   26.5090   51.8136 O   0  0  0  0  0  0
   -7.7034   26.8000   52.7102 C   0  0  0  0  0  0
   -7.4882   25.8550   53.7062 C   0  0  0  0  0  0
   -6.4925   26.0207   54.6611 C   0  0  0  0  0  0
   -5.6689   27.1427   54.5992 C   0  0  0  0  0  0
   -5.9086   28.1178   53.6377 C   0  0  0  0  0  0
   -6.9379   27.9696   52.7150 C   0  0  0  0  0  0
   -4.2410   27.2521   55.6762 S   0  0  0  0  0  0
   -3.1394   26.6579   54.9104 O   0  0  0  0  0  0
   -4.6377   26.6750   56.9607 O   0  0  0  0  0  0
   -3.7944   28.9603   55.8832 N   0  0  2  0  0  0
   -4.1147   29.8349   57.0580 C   0  0  2  0  0  0
   -3.4167   31.2107   56.7458 C   0  0  0  0  0  0
   -1.9006   31.2648   57.0727 C   0  0  2  0  0  0
   -1.0076   30.2190   56.3873 C   0  0  0  0  0  0
   -1.0419   29.0242   57.3395 C   0  0  0  0  0  0
   -1.9416   29.4925   58.4930 C   0  0  2  0  0  0
   -3.4650   29.2168   58.3410 C   0  0  0  0  0  0
   -1.7248   30.8980   58.4364 O   0  0  0  0  0  0
   -5.6582   29.9832   57.2668 C   0  0  0  0  0  0
   -6.4228   29.0825   56.9150 O   0  0  0  0  0  0
   -6.1048   31.1015   57.8678 N   0  0  0  0  0  0
   -7.4795   31.2289   58.1090 O   0  0  0  0  0  0
   -9.4215   28.2774   46.6358 F   0  0  0  0  0  0
  -10.8724   26.4202   50.4788 H   0  0  0  0  0  0
  -11.2373   27.1506   48.1548 H   0  0  0  0  0  0
   -7.1428   28.4298   47.9209 H   0  0  0  0  0  0
   -6.7429   27.5846   50.1779 H   0  0  0  0  0  0
   -8.0840   24.9654   53.7097 H   0  0  0  0  0  0
   -6.3368   25.2425   55.3985 H   0  0  0  0  0  0
   -5.2688   28.9706   53.5887 H   0  0  0  0  0  0
   -7.1095   28.7527   51.9943 H   0  0  0  0  0  0
   -3.6763   29.4863   55.0103 H   0  0  0  0  0  0
   -3.8554   32.0214   57.3276 H   0  0  0  0  0  0
   -3.5695   31.5086   55.7132 H   0  0  0  0  0  0
   -1.5226   32.2751   56.9022 H   0  0  0  0  0  0
    0.0126   30.5967   56.3014 H   0  0  0  0  0  0
   -1.3438   29.9722   55.3786 H   0  0  0  0  0  0
   -0.0375   28.8135   57.7096 H   0  0  0  0  0  0
   -1.4097   28.1117   56.8707 H   0  0  0  0  0  0
   -1.5734   29.0960   59.4421 H   0  0  0  0  0  0
   -3.6304   28.1494   58.4372 H   0  0  0  0  0  0
   -3.9494   29.6469   59.2208 H   0  0  0  0  0  0
   -5.5616   31.8606   58.2519 H   0  0  0  0  0  0
   -7.5590   31.0177   59.0543 H   0  0  0  0  0  0
  1  6  1  0  0  0
  1  2  2  0  0  0
  1 31  1  0  0  0
  2  3  1  0  0  0
  2 32  1  0  0  0
  3  4  2  0  0  0
  3 30  1  0  0  0
  4  5  1  0  0  0
  4 33  1  0  0  0
  5  6  2  0  0  0
  5 34  1  0  0  0
  6  7  1  0  0  0
  7  8  1  0  0  0
  8 13  1  0  0  0
  8  9  2  0  0  0
  9 10  1  0  0  0
  9 35  1  0  0  0
 10 11  2  0  0  0
 10 36  1  0  0  0
 11 12  1  0  0  0
 11 14  1  0  0  0
 12 13  2  0  0  0
 12 37  1  0  0  0
 13 38  1  0  0  0
 14 15  2  0  0  0
 14 16  2  0  0  0
 14 17  1  0  0  0
 17 18  1  0  0  0
 17 39  1  0  0  0
 18 24  1  0  0  0
 18 19  1  0  0  0
 18 26  1  0  0  0
 19 20  1  0  0  0
 19 40  1  0  0  0
 19 41  1  0  0  0
 20 25  1  0  0  0
 20 21  1  0  0  0
 20 42  1  0  0  0
 21 22  1  0  0  0
 21 43  1  0  0  0
 21 44  1  0  0  0
 22 23  1  0  0  0
 22 45  1  0  0  0
 22 46  1  0  0  0
 23 24  1  0  0  0
 23 25  1  0  0  0
 23 47  1  0  0  0
 24 48  1  0  0  0
 24 49  1  0  0  0
 26 27  2  0  0  0
 26 28  1  0  0  0
 28 29  1  0  0  0
 28 50  1  0  0  0
 29 51  1  0  0  0
M  END
> <s_m_entry_id>
65368

> <s_m_entry_name>
ligand_docking-pose.118

> <s_m_Source_Path>
/home/csk/Desktop/cluster/DUD-E-result/mmp13

> <s_m_Source_File>
ligand_docking-pose.sdf

> <i_m_Source_File_Index>
118

> <i_lp_mmshare_version>
53161

> <r_lp_tautomer_probability>
1

> <s_lp_Force_Field>
OPLS_2005

> <r_lp_Energy>
46.786266

> <b_lp_Chiralities_Consistent>
1

> <s_lp_Variant>
188013-1

> <s_i_glide_gridfile>
glide-grid_830c

> <i_i_glide_lignum>
268

> <i_i_glide_rotatable_bonds>
8

> <r_i_docking_score>
-7.33886117496055

> <r_i_glide_ligand_efficiency>
-0.244628705832018

> <r_i_glide_ligand_efficiency_sa>
-0.760118265788901

> <r_i_glide_ligand_efficiency_ln>
-1.6674692222481

> <r_i_glide_gscore>
-7.33886117496055

> <r_i_glide_lipo>
-3.11148886094152

> <r_i_glide_hbond>
-0.294772350309791

> <r_i_glide_metal>
0

> <r_i_glide_rewards>
0.0663925190914639

> <r_i_glide_evdw>
-40.7771339416504

> <r_i_glide_ecoul>
-16.0830173492432

> <r_i_glide_erotb>
0.732472723508512

> <r_i_glide_esite>
-0.280155906840214

> <r_i_glide_emodel>
-80.0196997570799

> <r_i_glide_energy>
-56.8601512908936

> <r_i_glide_einternal>
6.25219678878784

> <i_i_glide_confnum>
89

> <i_i_glide_posenum>
189

> <r_i_glide_eff_state_penalty>
0

> <i_f3d_flags>
0

> <s_user_duplicate_titles>
188013

> <s_m_subgroup_title>
dock_pv

> <s_m_subgroupid>
dock_pv1

> <b_m_subgroup_collapsed>
0

$$$$
309918
                    3D
 Schrodinger Suite 2021-1.
 53 55  0  0  1  0            999 V2000
    0.0245   27.9955   59.2566 C   0  0  0  0  0  0
   -1.0663   28.6999   58.4156 C   0  0  1  0  0  0
   -0.4625   29.4245   57.1887 C   0  0  0  0  0  0
   -1.4945   30.2977   56.4441 C   0  0  0  0  0  0
   -2.7548   29.5007   56.0570 C   0  0  0  0  0  0
   -3.2822   28.6566   57.1656 N   0  0  3  0  0  0
   -2.3150   27.8362   57.9904 C   0  0  1  0  0  0
   -1.9459   26.5057   57.2591 C   0  0  0  0  0  0
   -1.0660   25.7700   57.7100 O   0  0  0  0  0  0
   -2.6403   26.1745   56.1517 N   0  0  0  0  0  0
   -2.3390   24.9700   55.5005 O   0  0  0  0  0  0
   -5.0228   28.6763   57.5263 S   0  0  0  0  0  0
   -5.2776   27.7518   58.6357 O   0  0  0  0  0  0
   -5.4546   30.0758   57.6001 O   0  0  0  0  0  0
   -5.8032   27.9575   56.0828 C   0  0  0  0  0  0
   -6.3271   28.7739   55.0765 C   0  0  0  0  0  0
   -6.8945   28.1980   53.9410 C   0  0  0  0  0  0
   -6.9389   26.8056   53.8116 C   0  0  0  0  0  0
   -6.4188   26.0043   54.8216 C   0  0  0  0  0  0
   -5.8702   26.5700   55.9658 C   0  0  0  0  0  0
   -7.4387   26.1682   52.6996 O   0  0  0  0  0  0
   -8.6974   26.5977   52.1944 C   0  0  0  0  0  0
   -8.6149   26.9700   50.7242 C   0  0  0  0  0  0
   -7.5552   27.7434   50.2377 C   0  0  0  0  0  0
   -7.5525   28.1700   48.9100 C   0  0  0  0  0  0
   -8.5966   27.8164   48.0572 C   0  0  0  0  0  0
   -9.6450   27.0288   48.5308 C   0  0  0  0  0  0
   -9.6553   26.6109   49.8613 C   0  0  0  0  0  0
  -10.9258   26.5700   47.4710 Cl  0  0  0  0  0  0
   -1.5388   29.6944   59.3061 O   0  0  0  0  0  0
   -2.8275   27.4653   58.8786 H   0  0  0  0  0  0
    0.6335   27.3235   58.6525 H   0  0  0  0  0  0
    0.7212   28.7050   59.7064 H   0  0  0  0  0  0
   -0.4131   27.4108   60.0669 H   0  0  0  0  0  0
    0.4176   30.0033   57.4735 H   0  0  0  0  0  0
   -0.0618   28.6732   56.5100 H   0  0  0  0  0  0
   -1.0444   30.7355   55.5529 H   0  0  0  0  0  0
   -1.7876   31.1426   57.0691 H   0  0  0  0  0  0
   -2.5314   28.8439   55.2166 H   0  0  0  0  0  0
   -3.5432   30.1699   55.7117 H   0  0  0  0  0  0
   -3.4809   26.6337   55.8210 H   0  0  0  0  0  0
   -3.0754   24.3761   55.7514 H   0  0  0  0  0  0
   -6.2757   29.8506   55.1599 H   0  0  0  0  0  0
   -7.2726   28.8345   53.1552 H   0  0  0  0  0  0
   -6.4429   24.9298   54.7174 H   0  0  0  0  0  0
   -5.4816   25.9224   56.7413 H   0  0  0  0  0  0
   -9.3934   25.7700   52.3135 H   0  0  0  0  0  0
   -9.1316   27.4324   52.7464 H   0  0  0  0  0  0
   -6.7425   28.0391   50.8857 H   0  0  0  0  0  0
   -6.7390   28.7780   48.5419 H   0  0  0  0  0  0
   -8.5836   28.1480   47.0290 H   0  0  0  0  0  0
  -10.4806   26.0188   50.2258 H   0  0  0  0  0  0
   -0.8635   30.3706   59.3907 H   0  0  0  0  0  0
  1  2  1  0  0  0
  1 32  1  0  0  0
  1 33  1  0  0  0
  1 34  1  0  0  0
  2  7  1  0  0  0
  2  3  1  0  0  0
  2 30  1  0  0  0
  3  4  1  0  0  0
  3 35  1  0  0  0
  3 36  1  0  0  0
  4  5  1  0  0  0
  4 37  1  0  0  0
  4 38  1  0  0  0
  5  6  1  0  0  0
  5 39  1  0  0  0
  5 40  1  0  0  0
  6  7  1  0  0  0
  6 12  1  0  0  0
  7 31  1  0  0  0
  7  8  1  0  0  0
  8  9  2  0  0  0
  8 10  1  0  0  0
 10 11  1  0  0  0
 10 41  1  0  0  0
 11 42  1  0  0  0
 12 13  2  0  0  0
 12 14  2  0  0  0
 12 15  1  0  0  0
 15 20  1  0  0  0
 15 16  2  0  0  0
 16 17  1  0  0  0
 16 43  1  0  0  0
 17 18  2  0  0  0
 17 44  1  0  0  0
 18 19  1  0  0  0
 18 21  1  0  0  0
 19 20  2  0  0  0
 19 45  1  0  0  0
 20 46  1  0  0  0
 21 22  1  0  0  0
 22 23  1  0  0  0
 22 47  1  0  0  0
 22 48  1  0  0  0
 23 28  1  0  0  0
 23 24  2  0  0  0
 24 25  1  0  0  0
 24 49  1  0  0  0
 25 26  2  0  0  0
 25 50  1  0  0  0
 26 27  1  0  0  0
 26 51  1  0  0  0
 27 28  2  0  0  0
 27 29  1  0  0  0
 28 52  1  0  0  0
 30 53  1  0  0  0
M  END
> <s_m_entry_id>
65371

> <s_m_entry_name>
ligand_docking-pose.121

> <s_m_Source_Path>
/home/csk/Desktop/cluster/DUD-E-result/mmp13

> <s_m_Source_File>
ligand_docking-pose.sdf

> <i_m_Source_File_Index>
121

> <i_lp_mmshare_version>
53161

> <r_lp_tautomer_probability>
1

> <s_lp_Force_Field>
OPLS_2005

> <r_lp_Energy>
26.053862

> <b_lp_Chiralities_Consistent>
1

> <s_lp_Variant>
309918-1

> <s_i_glide_gridfile>
glide-grid_830c

> <i_i_glide_lignum>
581

> <i_i_glide_rotatable_bonds>
9

> <r_i_docking_score>
-7.32926954445514

> <r_i_glide_ligand_efficiency>
-0.244308984815171

> <r_i_glide_ligand_efficiency_sa>
-0.759124818253644

> <r_i_glide_ligand_efficiency_ln>
-1.66528989928808

> <r_i_glide_gscore>
-7.32926954445514

> <r_i_glide_lipo>
-3.23140265278912

> <r_i_glide_hbond>
-0.304

> <r_i_glide_metal>
0

> <r_i_glide_rewards>
0.328389783957398

> <r_i_glide_evdw>
-43.2692642211914

> <r_i_glide_ecoul>
-16.1257038116455

> <r_i_glide_erotb>
0.679344121063541

> <r_i_glide_esite>
-0.219282013880562

> <r_i_glide_emodel>
-81.0256575700608

> <r_i_glide_energy>
-59.3949680328369

> <r_i_glide_einternal>
12.9849739074707

> <i_i_glide_confnum>
26

> <i_i_glide_posenum>
184

> <r_i_glide_eff_state_penalty>
0

> <i_f3d_flags>
0

> <s_user_duplicate_titles>
309918

> <s_m_subgroup_title>
dock_pv

> <s_m_subgroupid>
dock_pv1

> <b_m_subgroup_collapsed>
0

$$$$
165149
                    3D
 Schrodinger Suite 2021-1.
 46 48  0  0  1  0            999 V2000
   -9.6258   28.2796   45.2059 C   0  0  0  0  0  0
  -10.2847   27.6444   46.2985 O   0  0  0  0  0  0
   -9.6501   27.5881   47.5245 C   0  0  0  0  0  0
   -8.3764   28.1048   47.7806 C   0  0  0  0  0  0
   -7.8167   27.9857   49.0480 C   0  0  0  0  0  0
   -8.5028   27.3700   50.1096 C   0  0  0  0  0  0
   -9.7812   26.8606   49.8321 C   0  0  0  0  0  0
  -10.3391   26.9659   48.5606 C   0  0  0  0  0  0
   -7.9050   27.3013   51.4947 C   0  0  0  0  0  0
   -8.4588   26.5091   52.5093 C   0  0  0  0  0  0
   -7.9407   26.5153   53.8043 C   0  0  0  0  0  0
   -6.8170   27.2744   54.1188 C   0  0  0  0  0  0
   -6.2044   28.0018   53.0997 C   0  0  0  0  0  0
   -6.7739   28.0539   51.8326 C   0  0  0  0  0  0
   -6.2294   27.2100   55.5336 C   0  0  0  0  0  0
   -6.2145   28.4763   56.3415 N   0  0  2  0  0  0
   -5.6832   29.7551   55.7968 C   0  0  2  0  0  0
   -4.1416   29.7529   56.1102 C   0  0  0  0  0  0
   -3.8161   28.8560   57.3350 C   0  0  0  0  0  0
   -5.4989   28.3438   57.9369 S   0  0  0  0  0  0
   -5.5187   26.9699   58.4270 O   0  0  0  0  0  0
   -5.9391   29.4032   58.8358 O   0  0  0  0  0  0
   -6.4415   31.0021   56.3531 C   0  0  0  0  0  0
   -5.9251   32.1152   56.2323 O   0  0  0  0  0  0
   -7.6491   30.8213   56.9179 N   0  0  0  0  0  0
   -8.2995   31.9177   57.5031 O   0  0  0  0  0  0
  -10.2723   28.2514   44.3290 H   0  0  0  0  0  0
   -9.4098   29.3275   45.4210 H   0  0  0  0  0  0
   -8.6971   27.7707   44.9440 H   0  0  0  0  0  0
   -7.7953   28.5871   47.0084 H   0  0  0  0  0  0
   -6.8217   28.3831   49.1674 H   0  0  0  0  0  0
  -10.3787   26.3873   50.5943 H   0  0  0  0  0  0
  -11.3282   26.5730   48.3773 H   0  0  0  0  0  0
   -9.3123   25.8801   52.3172 H   0  0  0  0  0  0
   -8.4128   25.9117   54.5617 H   0  0  0  0  0  0
   -5.2917   28.5491   53.2738 H   0  0  0  0  0  0
   -6.3390   28.7228   51.1152 H   0  0  0  0  0  0
   -5.2061   26.8420   55.4512 H   0  0  0  0  0  0
   -6.7734   26.4598   56.1101 H   0  0  0  0  0  0
   -5.9390   29.8441   54.7541 H   0  0  0  0  0  0
   -3.5900   29.3699   55.2525 H   0  0  0  0  0  0
   -3.7622   30.7611   56.2904 H   0  0  0  0  0  0
   -3.2557   27.9596   57.0750 H   0  0  0  0  0  0
   -3.3058   29.3899   58.1359 H   0  0  0  0  0  0
   -8.1067   29.9388   57.1026 H   0  0  0  0  0  0
   -8.1582   31.7828   58.4467 H   0  0  0  0  0  0
  1  2  1  0  0  0
  1 27  1  0  0  0
  1 28  1  0  0  0
  1 29  1  0  0  0
  2  3  1  0  0  0
  3  8  1  0  0  0
  3  4  2  0  0  0
  4  5  1  0  0  0
  4 30  1  0  0  0
  5  6  2  0  0  0
  5 31  1  0  0  0
  6  7  1  0  0  0
  6  9  1  0  0  0
  7  8  2  0  0  0
  7 32  1  0  0  0
  8 33  1  0  0  0
  9 14  1  0  0  0
  9 10  2  0  0  0
 10 11  1  0  0  0
 10 34  1  0  0  0
 11 12  2  0  0  0
 11 35  1  0  0  0
 12 13  1  0  0  0
 12 15  1  0  0  0
 13 14  2  0  0  0
 13 36  1  0  0  0
 14 37  1  0  0  0
 15 16  1  0  0  0
 15 38  1  0  0  0
 15 39  1  0  0  0
 16 20  1  0  0  0
 16 17  1  0  0  0
 17 18  1  0  0  0
 17 23  1  0  0  0
 17 40  1  0  0  0
 18 19  1  0  0  0
 18 41  1  0  0  0
 18 42  1  0  0  0
 19 20  1  0  0  0
 19 43  1  0  0  0
 19 44  1  0  0  0
 20 21  2  0  0  0
 20 22  2  0  0  0
 23 24  2  0  0  0
 23 25  1  0  0  0
 25 26  1  0  0  0
 25 45  1  0  0  0
 26 46  1  0  0  0
M  END
> <s_m_entry_id>
65373

> <s_m_entry_name>
ligand_docking-pose.123

> <s_m_Source_Path>
/home/csk/Desktop/cluster/DUD-E-result/mmp13

> <s_m_Source_File>
ligand_docking-pose.sdf

> <i_m_Source_File_Index>
123

> <i_lp_mmshare_version>
53161

> <r_lp_tautomer_probability>
1

> <s_lp_Force_Field>
OPLS_2005

> <r_lp_Energy>
31.633792

> <b_lp_Chiralities_Consistent>
1

> <s_lp_Variant>
165149-2

> <s_i_glide_gridfile>
glide-grid_830c

> <i_i_glide_lignum>
1947

> <i_i_glide_rotatable_bonds>
7

> <r_i_docking_score>
-7.31169992052283

> <r_i_glide_ligand_efficiency>
-0.281219227712417

> <r_i_glide_ligand_efficiency_sa>
-0.833110855553806

> <r_i_glide_ligand_efficiency_ln>
-1.7171287346905

> <r_i_glide_gscore>
-7.31169992052283

> <r_i_glide_lipo>
-3.77931877476314

> <r_i_glide_hbond>
0

> <r_i_glide_metal>
0

> <r_i_glide_rewards>
-0.932787267453031

> <r_i_glide_evdw>
-41.3988380432129

> <r_i_glide_ecoul>
-7.18157148361206

> <r_i_glide_erotb>
0.683057562724116

> <r_i_glide_esite>
-0.135473816328322

> <r_i_glide_emodel>
-69.7395782041277

> <r_i_glide_energy>
-48.580409526825

> <r_i_glide_einternal>
1.78411114215851

> <i_i_glide_confnum>
2

> <i_i_glide_posenum>
25

> <r_i_glide_eff_state_penalty>
0

> <i_f3d_flags>
0

> <s_user_duplicate_titles>
165149

> <s_m_subgroup_title>
dock_pv

> <s_m_subgroupid>
dock_pv1

> <b_m_subgroup_collapsed>
0

$$$$
165148
                    3D
 Schrodinger Suite 2021-1.
 39 41  0  0  1  0            999 V2000
   -9.4390   26.8280   49.3075 C   0  0  0  0  0  0
   -8.2545   27.5554   49.3012 C   0  0  0  0  0  0
   -7.4879   27.6198   50.4608 C   0  0  0  0  0  0
   -7.8934   26.9700   51.6340 C   0  0  0  0  0  0
   -9.0746   26.2392   51.6131 C   0  0  0  0  0  0
   -9.8411   26.1700   50.4634 C   0  0  0  0  0  0
   -7.1077   27.0829   52.8904 C   0  0  0  0  0  0
   -6.4956   28.2940   53.1927 C   0  0  0  0  0  0
   -5.7419   28.4263   54.3421 C   0  0  0  0  0  0
   -5.5129   27.3576   55.1796 C   0  0  0  0  0  0
   -6.1931   26.1700   54.9488 C   0  0  0  0  0  0
   -6.9819   26.0243   53.8037 C   0  0  0  0  0  0
   -4.7202   27.5681   56.3143 N   0  0  0  0  0  0
   -3.2748   27.8237   56.2339 C   0  0  1  0  0  0
   -2.8975   29.1122   57.0355 C   0  0  0  0  0  0
   -4.1807   29.8394   57.4293 C   0  0  0  0  0  0
   -5.4142   28.4573   57.6482 S   0  0  0  0  0  0
   -5.1382   27.7700   58.9100 O   0  0  0  0  0  0
   -6.7390   28.9731   57.3100 O   0  0  0  0  0  0
   -2.4004   26.5993   56.5856 C   0  0  0  0  0  0
   -2.1527   25.7700   55.7100 O   0  0  0  0  0  0
   -1.9390   26.4799   57.8409 N   0  0  0  0  0  0
   -1.1492   25.3700   58.1490 O   0  0  0  0  0  0
  -10.0419   26.7681   48.4131 H   0  0  0  0  0  0
   -7.9244   28.0620   48.4055 H   0  0  0  0  0  0
   -6.5672   28.1789   50.4436 H   0  0  0  0  0  0
   -9.4337   25.7700   52.5100 H   0  0  0  0  0  0
  -10.7390   25.5923   50.5011 H   0  0  0  0  0  0
   -6.6169   29.1498   52.5487 H   0  0  0  0  0  0
   -5.3382   29.3700   54.6258 H   0  0  0  0  0  0
   -6.0933   25.3700   55.6599 H   0  0  0  0  0  0
   -7.4649   25.0766   53.6175 H   0  0  0  0  0  0
   -3.0120   28.0299   55.1945 H   0  0  0  0  0  0
   -2.3240   28.9272   57.9440 H   0  0  0  0  0  0
   -2.2747   29.7737   56.4299 H   0  0  0  0  0  0
   -4.0992   30.3877   58.3677 H   0  0  0  0  0  0
   -4.5485   30.5213   56.6619 H   0  0  0  0  0  0
   -2.1537   27.0583   58.6417 H   0  0  0  0  0  0
   -1.7573   24.8130   58.6466 H   0  0  0  0  0  0
  1  6  1  0  0  0
  1  2  2  0  0  0
  1 24  1  0  0  0
  2  3  1  0  0  0
  2 25  1  0  0  0
  3  4  2  0  0  0
  3 26  1  0  0  0
  4  5  1  0  0  0
  4  7  1  0  0  0
  5  6  2  0  0  0
  5 27  1  0  0  0
  6 28  1  0  0  0
  7 12  1  0  0  0
  7  8  2  0  0  0
  8  9  1  0  0  0
  8 29  1  0  0  0
  9 10  2  0  0  0
  9 30  1  0  0  0
 10 11  1  0  0  0
 10 13  1  0  0  0
 11 12  2  0  0  0
 11 31  1  0  0  0
 12 32  1  0  0  0
 13 17  1  0  0  0
 13 14  1  0  0  0
 14 15  1  0  0  0
 14 20  1  0  0  0
 14 33  1  0  0  0
 15 16  1  0  0  0
 15 34  1  0  0  0
 15 35  1  0  0  0
 16 17  1  0  0  0
 16 36  1  0  0  0
 16 37  1  0  0  0
 17 18  2  0  0  0
 17 19  2  0  0  0
 20 21  2  0  0  0
 20 22  1  0  0  0
 22 23  1  0  0  0
 22 38  1  0  0  0
 23 39  1  0  0  0
M  END
> <s_m_entry_id>
65378

> <s_m_entry_name>
ligand_docking-pose.128

> <s_m_Source_Path>
/home/csk/Desktop/cluster/DUD-E-result/mmp13

> <s_m_Source_File>
ligand_docking-pose.sdf

> <i_m_Source_File_Index>
128

> <i_lp_mmshare_version>
53161

> <r_lp_tautomer_probability>
1

> <s_lp_Force_Field>
OPLS_2005

> <r_lp_Energy>
32.534936

> <b_lp_Chiralities_Consistent>
1

> <s_lp_Variant>
165148-1

> <s_i_glide_gridfile>
glide-grid_830c

> <i_i_glide_lignum>
58

> <i_i_glide_rotatable_bonds>
5

> <r_i_docking_score>
-7.28525226493413

> <r_i_glide_ligand_efficiency>
-0.316750098475397

> <r_i_glide_ligand_efficiency_sa>
-0.900795144977434

> <r_i_glide_ligand_efficiency_ln>
-1.76164005667635

> <r_i_glide_gscore>
-7.28525226493413

> <r_i_glide_lipo>
-2.81854029621056

> <r_i_glide_hbond>
0

> <r_i_glide_metal>
0

> <r_i_glide_rewards>
-1.33387764114439

> <r_i_glide_evdw>
-35.5708656311035

> <r_i_glide_ecoul>
-12.4196157455444

> <r_i_glide_erotb>
0.681924973775413

> <r_i_glide_esite>
-0.173273657967759

> <r_i_glide_emodel>
-65.0534567664546

> <r_i_glide_energy>
-47.9904813766479

> <r_i_glide_einternal>
7.72591257095337

> <i_i_glide_confnum>
25

> <i_i_glide_posenum>
269

> <r_i_glide_eff_state_penalty>
0

> <i_f3d_flags>
0

> <s_user_duplicate_titles>
165148

> <s_m_subgroup_title>
dock_pv

> <s_m_subgroupid>
dock_pv1

> <b_m_subgroup_collapsed>
0

$$$$
319362
                    3D
 Schrodinger Suite 2021-1.
 59 61  0  0  1  0            999 V2000
   -9.6457   25.7746   51.3345 C   0  0  0  0  0  0
   -9.2025   26.6655   50.2088 C   0  0  0  0  0  0
   -9.9782   26.7432   49.0472 C   0  0  0  0  0  0
   -9.5737   27.5387   47.9796 C   0  0  0  0  0  0
   -8.3906   28.2613   48.0735 C   0  0  0  0  0  0
   -7.6157   28.1697   49.2279 C   0  0  0  0  0  0
   -7.9964   27.3715   50.3070 C   0  0  0  0  0  0
   -7.0869   27.2618   51.5404 C   0  0  0  0  0  0
   -7.5392   28.1198   52.5837 O   0  0  0  0  0  0
   -6.9406   28.0519   53.8293 C   0  0  0  0  0  0
   -6.4851   26.8732   54.4400 C   0  0  0  0  0  0
   -5.9407   26.9114   55.7273 C   0  0  0  0  0  0
   -5.8137   28.1361   56.3968 C   0  0  0  0  0  0
   -6.2616   29.3050   55.7887 C   0  0  0  0  0  0
   -6.8324   29.2502   54.5270 C   0  0  0  0  0  0
   -5.1683   28.2361   58.0726 S   0  0  0  0  0  0
   -5.5389   26.9699   58.6918 O   0  0  0  0  0  0
   -5.6634   29.5117   58.5911 O   0  0  0  0  0  0
   -3.3894   28.3159   58.0446 N   0  0  3  0  0  0
   -2.7297   29.6582   58.0275 C   0  0  0  0  0  0
   -1.3373   29.6617   58.6903 C   0  0  1  0  0  0
   -0.4846   28.4209   58.3492 C   0  0  0  0  0  0
   -1.2182   27.0606   58.5601 C   0  0  0  0  0  0
   -2.5510   27.0938   57.7064 C   0  0  2  0  0  0
   -2.3296   27.0341   56.1831 C   0  0  0  0  0  0
   -1.6016   26.1675   55.7058 O   0  0  0  0  0  0
   -3.0165   27.9212   55.4427 N   0  0  0  0  0  0
   -3.1391   27.7698   54.0869 O   0  0  0  0  0  0
   -1.6348   26.8543   60.0290 C   0  0  0  0  0  0
   -0.2137   25.9388   58.1862 C   0  0  0  0  0  0
   -0.6439   30.8407   58.3381 O   0  0  0  0  0  0
  -10.3270   27.6052   46.8590 F   0  0  0  0  0  0
   -1.4771   29.7059   59.7611 H   0  0  0  0  0  0
   -3.1340   26.1702   57.8584 H   0  0  0  0  0  0
  -10.6710   25.4175   51.2335 H   0  0  0  0  0  0
   -8.9525   24.9417   51.3099 H   0  0  0  0  0  0
   -9.5378   26.2513   52.3062 H   0  0  0  0  0  0
  -10.8854   26.1714   48.9473 H   0  0  0  0  0  0
   -8.0731   28.8926   47.2555 H   0  0  0  0  0  0
   -6.7396   28.7795   49.2904 H   0  0  0  0  0  0
   -6.0700   27.5512   51.2778 H   0  0  0  0  0  0
   -7.0381   26.2204   51.8508 H   0  0  0  0  0  0
   -6.5692   25.9200   53.9442 H   0  0  0  0  0  0
   -5.6167   25.9903   56.1969 H   0  0  0  0  0  0
   -6.1874   30.2606   56.2890 H   0  0  0  0  0  0
   -7.1652   30.1685   54.0813 H   0  0  0  0  0  0
   -2.5780   29.9319   56.9824 H   0  0  0  0  0  0
   -3.3812   30.4043   58.4792 H   0  0  0  0  0  0
    0.4148   28.4416   58.9678 H   0  0  0  0  0  0
   -0.1194   28.4984   57.3225 H   0  0  0  0  0  0
   -3.6477   28.6229   55.8096 H   0  0  0  0  0  0
   -2.8440   28.6156   53.7364 H   0  0  0  0  0  0
   -0.8948   27.2346   60.7350 H   0  0  0  0  0  0
   -2.5749   27.3581   60.2045 H   0  0  0  0  0  0
   -1.8069   25.7975   60.2577 H   0  0  0  0  0  0
    0.5670   25.8455   58.9419 H   0  0  0  0  0  0
   -0.7116   24.9752   58.1279 H   0  0  0  0  0  0
    0.3070   26.1182   57.2445 H   0  0  0  0  0  0
    0.1605   30.8945   58.8595 H   0  0  0  0  0  0
  1  2  1  0  0  0
  1 35  1  0  0  0
  1 36  1  0  0  0
  1 37  1  0  0  0
  2  7  1  0  0  0
  2  3  2  0  0  0
  3  4  1  0  0  0
  3 38  1  0  0  0
  4  5  2  0  0  0
  4 32  1  0  0  0
  5  6  1  0  0  0
  5 39  1  0  0  0
  6  7  2  0  0  0
  6 40  1  0  0  0
  7  8  1  0  0  0
  8  9  1  0  0  0
  8 41  1  0  0  0
  8 42  1  0  0  0
  9 10  1  0  0  0
 10 15  1  0  0  0
 10 11  2  0  0  0
 11 12  1  0  0  0
 11 43  1  0  0  0
 12 13  2  0  0  0
 12 44  1  0  0  0
 13 14  1  0  0  0
 13 16  1  0  0  0
 14 15  2  0  0  0
 14 45  1  0  0  0
 15 46  1  0  0  0
 16 17  2  0  0  0
 16 18  2  0  0  0
 16 19  1  0  0  0
 19 24  1  0  0  0
 19 20  1  0  0  0
 20 21  1  0  0  0
 20 47  1  0  0  0
 20 48  1  0  0  0
 21 33  1  0  0  0
 21 22  1  0  0  0
 21 31  1  0  0  0
 22 23  1  0  0  0
 22 49  1  0  0  0
 22 50  1  0  0  0
 23 24  1  0  0  0
 23 29  1  0  0  0
 23 30  1  0  0  0
 24 34  1  0  0  0
 24 25  1  0  0  0
 25 26  2  0  0  0
 25 27  1  0  0  0
 27 28  1  0  0  0
 27 51  1  0  0  0
 28 52  1  0  0  0
 29 53  1  0  0  0
 29 54  1  0  0  0
 29 55  1  0  0  0
 30 56  1  0  0  0
 30 57  1  0  0  0
 30 58  1  0  0  0
 31 59  1  0  0  0
M  END
> <s_m_entry_id>
65380

> <s_m_entry_name>
ligand_docking-pose.130

> <s_m_Source_Path>
/home/csk/Desktop/cluster/DUD-E-result/mmp13

> <s_m_Source_File>
ligand_docking-pose.sdf

> <i_m_Source_File_Index>
130

> <i_lp_mmshare_version>
53161

> <r_lp_tautomer_probability>
1

> <s_lp_Force_Field>
OPLS_2005

> <r_lp_Energy>
29.09536

> <b_lp_Chiralities_Consistent>
1

> <s_lp_Variant>
319362-1

> <s_i_glide_gridfile>
glide-grid_830c

> <i_i_glide_lignum>
457

> <i_i_glide_rotatable_bonds>
9

> <r_i_docking_score>
-7.25847324068114

> <r_i_glide_ligand_efficiency>
-0.226827288771286

> <r_i_glide_ligand_efficiency_sa>
-0.720131752789338

> <r_i_glide_ligand_efficiency_ln>
-1.6253700170963

> <r_i_glide_gscore>
-7.25847324068114

> <r_i_glide_lipo>
-3.35345745988239

> <r_i_glide_hbond>
0

> <r_i_glide_metal>
0

> <r_i_glide_rewards>
-0.0364662357748911

> <r_i_glide_evdw>
-43.6180610656738

> <r_i_glide_ecoul>
-13.3772869110107

> <r_i_glide_erotb>
0.648891148096714

> <r_i_glide_esite>
-0.329944603185271

> <r_i_glide_emodel>
-70.3318066461552

> <r_i_glide_energy>
-56.9953479766846

> <r_i_glide_einternal>
18.7097873687744

> <i_i_glide_confnum>
29

> <i_i_glide_posenum>
378

> <r_i_glide_eff_state_penalty>
0

> <i_f3d_flags>
0

> <s_user_duplicate_titles>
319362

> <s_m_subgroup_title>
dock_pv

> <s_m_subgroupid>
dock_pv1

> <b_m_subgroup_collapsed>
0

$$$$
310617
                    3D
 Schrodinger Suite 2021-1.
 51 53  0  0  1  0            999 V2000
    0.2934   27.8480   57.8896 C   0  0  0  0  0  0
   -0.9233   28.8031   57.8979 C   0  0  1  0  0  0
   -0.7356   29.9930   56.9203 C   0  0  0  0  0  0
   -1.9141   30.9884   56.9357 C   0  0  0  0  0  0
   -3.2692   30.2920   56.7179 C   0  0  0  0  0  0
   -3.4399   29.0955   57.5873 N   0  0  2  0  0  0
   -2.3201   28.1119   57.7058 C   0  0  1  0  0  0
   -2.3360   27.1587   56.4872 C   0  0  0  0  0  0
   -2.3396   27.5728   55.3204 O   0  0  0  0  0  0
   -2.3404   25.8523   56.7755 N   0  0  0  0  0  0
   -2.3449   24.9718   55.7021 O   0  0  0  0  0  0
   -5.0870   28.6051   58.0127 S   0  0  0  0  0  0
   -5.0469   27.3722   58.8077 O   0  0  0  0  0  0
   -5.7754   29.7960   58.5113 O   0  0  0  0  0  0
   -5.8705   28.2100   56.4609 C   0  0  0  0  0  0
   -6.4520   29.2634   55.7646 C   0  0  0  0  0  0
   -7.1354   29.0112   54.5918 C   0  0  0  0  0  0
   -7.2244   27.7260   54.0786 C   0  0  0  0  0  0
   -6.5978   26.6643   54.7509 C   0  0  0  0  0  0
   -5.9288   26.9061   55.9556 C   0  0  0  0  0  0
   -7.9817   27.6137   52.9358 O   0  0  0  0  0  0
   -7.6866   26.5931   52.0022 C   0  0  0  0  0  0
   -8.3636   26.9614   50.6929 C   0  0  0  0  0  0
   -7.7268   27.7706   49.7457 C   0  0  0  0  0  0
   -8.3475   28.1593   48.6023 N   0  0  0  0  0  0
   -9.6247   27.7374   48.4208 C   0  0  0  0  0  0
  -10.2697   26.9399   49.3700 C   0  0  0  0  0  0
   -9.6437   26.5396   50.5116 N   0  0  0  0  0  0
   -0.9410   29.3197   59.2167 O   0  0  0  0  0  0
   -2.5264   27.4908   58.5807 H   0  0  0  0  0  0
    0.4552   27.4025   56.9097 H   0  0  0  0  0  0
    1.2158   28.3665   58.1570 H   0  0  0  0  0  0
    0.1644   27.0311   58.6013 H   0  0  0  0  0  0
    0.2133   30.4976   57.1073 H   0  0  0  0  0  0
   -0.6191   29.6014   55.9094 H   0  0  0  0  0  0
   -1.7697   31.7544   56.1733 H   0  0  0  0  0  0
   -1.9383   31.5206   57.8876 H   0  0  0  0  0  0
   -3.2824   29.9473   55.6852 H   0  0  0  0  0  0
   -4.1026   30.9807   56.8633 H   0  0  0  0  0  0
   -2.4456   25.4040   57.6798 H   0  0  0  0  0  0
   -3.2041   24.5055   55.7826 H   0  0  0  0  0  0
   -6.4016   30.2771   56.1377 H   0  0  0  0  0  0
   -7.5933   29.8320   54.0783 H   0  0  0  0  0  0
   -6.6558   25.6537   54.3729 H   0  0  0  0  0  0
   -5.4783   26.0821   56.4925 H   0  0  0  0  0  0
   -6.6099   26.5600   51.8383 H   0  0  0  0  0  0
   -8.0117   25.6136   52.3582 H   0  0  0  0  0  0
   -6.7359   28.1581   49.9056 H   0  0  0  0  0  0
  -10.1227   28.0557   47.5164 H   0  0  0  0  0  0
  -11.2899   26.6218   49.2258 H   0  0  0  0  0  0
   -0.2378   29.9684   59.2964 H   0  0  0  0  0  0
  1  2  1  0  0  0
  1 31  1  0  0  0
  1 32  1  0  0  0
  1 33  1  0  0  0
  2  7  1  0  0  0
  2  3  1  0  0  0
  2 29  1  0  0  0
  3  4  1  0  0  0
  3 34  1  0  0  0
  3 35  1  0  0  0
  4  5  1  0  0  0
  4 36  1  0  0  0
  4 37  1  0  0  0
  5  6  1  0  0  0
  5 38  1  0  0  0
  5 39  1  0  0  0
  6  7  1  0  0  0
  6 12  1  0  0  0
  7 30  1  0  0  0
  7  8  1  0  0  0
  8  9  2  0  0  0
  8 10  1  0  0  0
 10 11  1  0  0  0
 10 40  1  0  0  0
 11 41  1  0  0  0
 12 13  2  0  0  0
 12 14  2  0  0  0
 12 15  1  0  0  0
 15 20  1  0  0  0
 15 16  2  0  0  0
 16 17  1  0  0  0
 16 42  1  0  0  0
 17 18  2  0  0  0
 17 43  1  0  0  0
 18 19  1  0  0  0
 18 21  1  0  0  0
 19 20  2  0  0  0
 19 44  1  0  0  0
 20 45  1  0  0  0
 21 22  1  0  0  0
 22 23  1  0  0  0
 22 46  1  0  0  0
 22 47  1  0  0  0
 23 28  1  0  0  0
 23 24  2  0  0  0
 24 25  1  0  0  0
 24 48  1  0  0  0
 25 26  2  0  0  0
 26 27  1  0  0  0
 26 49  1  0  0  0
 27 28  2  0  0  0
 27 50  1  0  0  0
 29 51  1  0  0  0
M  END
> <s_m_entry_id>
65386

> <s_m_entry_name>
ligand_docking-pose.136

> <s_m_Source_Path>
/home/csk/Desktop/cluster/DUD-E-result/mmp13

> <s_m_Source_File>
ligand_docking-pose.sdf

> <i_m_Source_File_Index>
136

> <i_lp_mmshare_version>
53161

> <r_lp_tautomer_probability>
1

> <s_lp_Force_Field>
OPLS_2005

> <r_lp_Energy>
27.491732

> <b_lp_Chiralities_Consistent>
1

> <s_lp_Variant>
310617-1

> <s_i_glide_gridfile>
glide-grid_830c

> <i_i_glide_lignum>
592

> <i_i_glide_rotatable_bonds>
9

> <r_i_docking_score>
-7.19491085179014

> <r_i_glide_ligand_efficiency>
-0.24810037419966

> <r_i_glide_ligand_efficiency_sa>
-0.762242953257004

> <r_i_glide_ligand_efficiency_ln>
-1.64745213786271

> <r_i_glide_gscore>
-7.19491085179014

> <r_i_glide_lipo>
-2.74918923401103

> <r_i_glide_hbond>
-0.0903787699674274

> <r_i_glide_metal>
0

> <r_i_glide_rewards>
-0.330456793046895

> <r_i_glide_evdw>
-47.5161743164062

> <r_i_glide_ecoul>
-14.4771347045898

> <r_i_glide_erotb>
0.777019697296049

> <r_i_glide_esite>
-0.254526830552047

> <r_i_glide_emodel>
-88.4039326771743

> <r_i_glide_energy>
-61.9933090209961

> <r_i_glide_einternal>
11.0055713653564

> <i_i_glide_confnum>
61

> <i_i_glide_posenum>
369

> <r_i_glide_eff_state_penalty>
0

> <i_f3d_flags>
0

> <s_user_duplicate_titles>
310617

> <s_m_subgroup_title>
dock_pv

> <s_m_subgroupid>
dock_pv1

> <b_m_subgroup_collapsed>
0

$$$$
187848
                    3D
 Schrodinger Suite 2021-1.
 50 52  0  0  1  0            999 V2000
  -10.3395   26.4628   48.1483 C   0  0  0  0  0  0
   -9.5169   26.5243   49.2758 C   0  0  0  0  0  0
   -8.4351   27.4073   49.2880 C   0  0  0  0  0  0
   -8.2061   28.2338   48.1798 C   0  0  0  0  0  0
   -9.0429   28.1807   47.0681 C   0  0  0  0  0  0
  -10.1102   27.2894   47.0499 C   0  0  0  0  0  0
   -8.8205   28.9905   46.0095 F   0  0  0  0  0  0
   -7.5389   27.5937   50.4963 C   0  0  0  0  0  0
   -7.6746   26.6187   51.5453 O   0  0  0  0  0  0
   -7.1452   26.9564   52.7880 C   0  0  0  0  0  0
   -7.1387   26.0065   53.8182 C   0  0  0  0  0  0
   -6.6558   26.3300   55.0967 C   0  0  0  0  0  0
   -6.2162   27.6335   55.3537 C   0  0  0  0  0  0
   -6.2261   28.5700   54.3397 C   0  0  0  0  0  0
   -6.6291   28.2263   53.0676 C   0  0  0  0  0  0
   -5.7253   28.2394   56.9650 S   0  0  0  0  0  0
   -5.4523   27.0970   57.8437 O   0  0  0  0  0  0
   -6.7390   29.2329   57.3096 O   0  0  0  0  0  0
   -4.2559   29.2023   56.7665 N   0  0  1  0  0  0
   -2.8780   28.6652   56.6227 C   0  0  0  0  0  0
   -2.0934   29.7470   55.8266 C   0  0  0  0  0  0
   -1.8500   31.0396   56.6301 C   0  0  0  0  0  0
   -1.2181   30.7110   57.8621 O   0  0  0  0  0  0
   -2.0283   29.9117   58.7177 C   0  0  0  0  0  0
   -2.2926   28.5373   58.0640 C   0  0  0  0  0  0
   -2.8225   27.3460   55.7966 C   0  0  0  0  0  0
   -3.0659   27.3699   54.5818 O   0  0  0  0  0  0
   -2.4785   26.2163   56.4420 N   0  0  0  0  0  0
   -2.3390   25.0366   55.7100 O   0  0  0  0  0  0
  -11.1599   25.7691   48.1099 H   0  0  0  0  0  0
   -9.7153   25.8845   50.1242 H   0  0  0  0  0  0
   -7.3841   28.9363   48.1835 H   0  0  0  0  0  0
  -10.7554   27.2411   46.1857 H   0  0  0  0  0  0
   -7.8592   28.5698   50.8449 H   0  0  0  0  0  0
   -6.4957   27.6536   50.1825 H   0  0  0  0  0  0
   -7.5080   25.0111   53.6227 H   0  0  0  0  0  0
   -6.6556   25.5849   55.8806 H   0  0  0  0  0  0
   -5.9390   29.5892   54.5389 H   0  0  0  0  0  0
   -6.5516   29.0004   52.3269 H   0  0  0  0  0  0
   -4.4150   30.0606   56.2328 H   0  0  0  0  0  0
   -2.6264   29.9956   54.9101 H   0  0  0  0  0  0
   -1.1198   29.3673   55.5128 H   0  0  0  0  0  0
   -2.7807   31.5824   56.8069 H   0  0  0  0  0  0
   -1.2013   31.7145   56.0709 H   0  0  0  0  0  0
   -2.9638   30.4254   58.9491 H   0  0  0  0  0  0
   -1.5067   29.7825   59.6667 H   0  0  0  0  0  0
   -1.3401   28.0052   58.0444 H   0  0  0  0  0  0
   -2.9568   27.9547   58.7052 H   0  0  0  0  0  0
   -2.3794   26.0858   57.4416 H   0  0  0  0  0  0
   -3.1558   24.5343   55.9201 H   0  0  0  0  0  0
  1  6  1  0  0  0
  1  2  2  0  0  0
  1 30  1  0  0  0
  2  3  1  0  0  0
  2 31  1  0  0  0
  3  4  2  0  0  0
  3  8  1  0  0  0
  4  5  1  0  0  0
  4 32  1  0  0  0
  5  6  2  0  0  0
  5  7  1  0  0  0
  6 33  1  0  0  0
  8  9  1  0  0  0
  8 34  1  0  0  0
  8 35  1  0  0  0
  9 10  1  0  0  0
 10 15  1  0  0  0
 10 11  2  0  0  0
 11 12  1  0  0  0
 11 36  1  0  0  0
 12 13  2  0  0  0
 12 37  1  0  0  0
 13 14  1  0  0  0
 13 16  1  0  0  0
 14 15  2  0  0  0
 14 38  1  0  0  0
 15 39  1  0  0  0
 16 17  2  0  0  0
 16 18  2  0  0  0
 16 19  1  0  0  0
 19 20  1  0  0  0
 19 40  1  0  0  0
 20 25  1  0  0  0
 20 21  1  0  0  0
 20 26  1  0  0  0
 21 22  1  0  0  0
 21 41  1  0  0  0
 21 42  1  0  0  0
 22 23  1  0  0  0
 22 43  1  0  0  0
 22 44  1  0  0  0
 23 24  1  0  0  0
 24 25  1  0  0  0
 24 45  1  0  0  0
 24 46  1  0  0  0
 25 47  1  0  0  0
 25 48  1  0  0  0
 26 27  2  0  0  0
 26 28  1  0  0  0
 28 29  1  0  0  0
 28 49  1  0  0  0
 29 50  1  0  0  0
M  END
> <s_m_entry_id>
65391

> <s_m_entry_name>
ligand_docking-pose.141

> <s_m_Source_Path>
/home/csk/Desktop/cluster/DUD-E-result/mmp13

> <s_m_Source_File>
ligand_docking-pose.sdf

> <i_m_Source_File_Index>
141

> <i_lp_mmshare_version>
53161

> <r_lp_tautomer_probability>
1

> <s_lp_Force_Field>
OPLS_2005

> <r_lp_Energy>
26.939318

> <b_lp_Chiralities_Consistent>
1

> <s_lp_Variant>
187848-1

> <s_i_glide_gridfile>
glide-grid_830c

> <i_i_glide_lignum>
226

> <i_i_glide_rotatable_bonds>
9

> <r_i_docking_score>
-7.1614221799062

> <r_i_glide_ligand_efficiency>
-0.246945592410559

> <r_i_glide_ligand_efficiency_sa>
-0.758695097740335

> <r_i_glide_ligand_efficiency_ln>
-1.63978408120074

> <r_i_glide_gscore>
-7.1614221799062

> <r_i_glide_lipo>
-3.66465265915214

> <r_i_glide_hbond>
0

> <r_i_glide_metal>
0

> <r_i_glide_rewards>
0.111400025391956

> <r_i_glide_evdw>
-45.5256538391113

> <r_i_glide_ecoul>
-13.35276222229

> <r_i_glide_erotb>
0.880513667639532

> <r_i_glide_esite>
-0.209486188486473

> <r_i_glide_emodel>
-84.9858148748023

> <r_i_glide_energy>
-58.8784160614014

> <r_i_glide_einternal>
7.7922248840332

> <i_i_glide_confnum>
61

> <i_i_glide_posenum>
83

> <r_i_glide_eff_state_penalty>
0

> <i_f3d_flags>
0

> <s_user_duplicate_titles>
187848

> <s_m_subgroup_title>
dock_pv

> <s_m_subgroupid>
dock_pv1

> <b_m_subgroup_collapsed>
0

$$$$
84080
                    3D
 Schrodinger Suite 2021-1.
 47 48  0  0  1  0            999 V2000
   -1.1386   27.3184   60.0918 C   0  0  0  0  0  0
   -1.0054   28.3315   58.9628 C   0  0  0  0  0  0
   -0.6478   29.6425   59.3057 C   0  0  0  0  0  0
   -0.5357   30.6320   58.3326 C   0  0  0  0  0  0
   -0.7842   30.3248   56.9987 C   0  0  0  0  0  0
   -1.1392   29.0259   56.6428 C   0  0  0  0  0  0
   -1.2481   28.0147   57.6086 C   0  0  0  0  0  0
   -1.7502   26.3821   57.0215 S   0  0  0  0  0  0
   -1.5398   25.3800   58.0704 O   0  0  0  0  0  0
   -1.1390   26.1699   55.7099 O   0  0  0  0  0  0
   -3.4653   26.5700   56.7388 N   0  0  0  0  0  0
   -4.0394   27.1344   55.5781 C   0  0  0  0  0  0
   -3.3856   27.3695   54.5516 O   0  0  0  0  0  0
   -5.3497   27.4278   55.7158 N   0  0  0  0  0  0
   -6.3434   26.5364   55.0999 C   0  0  0  0  0  0
   -6.8617   26.9043   53.7058 C   0  0  0  0  0  0
   -7.9160   26.1586   53.1848 C   0  0  0  0  0  0
   -8.3829   26.3811   51.8953 C   0  0  0  0  0  0
   -7.8053   27.3701   51.0992 C   0  0  0  0  0  0
   -6.7750   28.1514   51.6396 C   0  0  0  0  0  0
   -6.3075   27.9254   52.9309 C   0  0  0  0  0  0
   -8.2827   27.5873   49.7129 N   0  3  0  0  0  0
   -7.5493   28.1698   48.9219 O   0  5  0  0  0  0
   -9.3981   27.1687   49.4123 O   0  0  0  0  0  0
   -5.7684   28.7601   56.1947 C   0  0  0  0  0  0
   -5.4366   29.0108   57.6808 C   0  0  0  0  0  0
   -5.5391   28.0977   58.5077 O   0  0  0  0  0  0
   -5.1029   30.2756   57.9892 N   0  0  0  0  0  0
   -4.7392   30.5710   59.3101 O   0  0  0  0  0  0
   -1.0061   27.7695   61.0761 H   0  0  0  0  0  0
   -2.1274   26.8582   60.0791 H   0  0  0  0  0  0
   -0.3930   26.5298   59.9861 H   0  0  0  0  0  0
   -0.4584   29.9036   60.3367 H   0  0  0  0  0  0
   -0.2621   31.6381   58.6160 H   0  0  0  0  0  0
   -0.7033   31.0930   56.2432 H   0  0  0  0  0  0
   -1.3421   28.8155   55.6037 H   0  0  0  0  0  0
   -4.0598   26.2833   57.5247 H   0  0  0  0  0  0
   -7.1957   26.4641   55.7783 H   0  0  0  0  0  0
   -5.9369   25.5248   55.0266 H   0  0  0  0  0  0
   -8.3590   25.3701   53.7620 H   0  0  0  0  0  0
   -9.1851   25.7657   51.5102 H   0  0  0  0  0  0
   -6.3392   28.9454   51.0528 H   0  0  0  0  0  0
   -5.5019   28.5407   53.3046 H   0  0  0  0  0  0
   -5.3540   29.5531   55.5709 H   0  0  0  0  0  0
   -6.8480   28.8659   56.0799 H   0  0  0  0  0  0
   -5.0335   31.0726   57.3722 H   0  0  0  0  0  0
   -5.5624   30.8978   59.7019 H   0  0  0  0  0  0
  1  2  1  0  0  0
  1 30  1  0  0  0
  1 31  1  0  0  0
  1 32  1  0  0  0
  2  7  1  0  0  0
  2  3  2  0  0  0
  3  4  1  0  0  0
  3 33  1  0  0  0
  4  5  2  0  0  0
  4 34  1  0  0  0
  5  6  1  0  0  0
  5 35  1  0  0  0
  6  7  2  0  0  0
  6 36  1  0  0  0
  7  8  1  0  0  0
  8  9  2  0  0  0
  8 10  2  0  0  0
  8 11  1  0  0  0
 11 12  1  0  0  0
 11 37  1  0  0  0
 12 13  2  0  0  0
 12 14  1  0  0  0
 14 15  1  0  0  0
 14 25  1  0  0  0
 15 16  1  0  0  0
 15 38  1  0  0  0
 15 39  1  0  0  0
 16 21  1  0  0  0
 16 17  2  0  0  0
 17 18  1  0  0  0
 17 40  1  0  0  0
 18 19  2  0  0  0
 18 41  1  0  0  0
 19 20  1  0  0  0
 19 22  1  0  0  0
 20 21  2  0  0  0
 20 42  1  0  0  0
 21 43  1  0  0  0
 22 23  1  0  0  0
 22 24  2  0  0  0
 25 26  1  0  0  0
 25 44  1  0  0  0
 25 45  1  0  0  0
 26 27  2  0  0  0
 26 28  1  0  0  0
 28 29  1  0  0  0
 28 46  1  0  0  0
 29 47  1  0  0  0
M  CHG  2  22   1  23  -1
M  END
> <s_m_entry_id>
65392

> <s_m_entry_name>
ligand_docking-pose.142

> <s_m_Source_Path>
/home/csk/Desktop/cluster/DUD-E-result/mmp13

> <s_m_Source_File>
ligand_docking-pose.sdf

> <i_m_Source_File_Index>
142

> <i_lp_mmshare_version>
53161

> <r_lp_tautomer_probability>
1

> <s_lp_Force_Field>
OPLS_2005

> <r_lp_Energy>
26.178999

> <b_lp_Chiralities_Consistent>
1

> <s_lp_Variant>
84080-1

> <s_i_glide_gridfile>
glide-grid_830c

> <i_i_glide_lignum>
537

> <i_i_glide_rotatable_bonds>
11

> <r_i_docking_score>
-7.15773331924461

> <r_i_glide_ligand_efficiency>
-0.24681839031878

> <r_i_glide_ligand_efficiency_sa>
-0.758304292613939

> <r_i_glide_ligand_efficiency_ln>
-1.63893942565067

> <r_i_glide_gscore>
-7.15773331924461

> <r_i_glide_lipo>
-2.23012024050227

> <r_i_glide_hbond>
-0.450086016721372

> <r_i_glide_metal>
0

> <r_i_glide_rewards>
-0.402592431671172

> <r_i_glide_evdw>
-46.5268058776855

> <r_i_glide_ecoul>
-15.2524366378784

> <r_i_glide_erotb>
0.999209516985411

> <r_i_glide_esite>
-0.459938357769166

> <r_i_glide_emodel>
-85.0875121333542

> <r_i_glide_energy>
-61.779242515564

> <r_i_glide_einternal>
18.3196773529053

> <i_i_glide_confnum>
153

> <i_i_glide_posenum>
380

> <r_i_glide_eff_state_penalty>
0

> <i_f3d_flags>
0

> <s_user_duplicate_titles>
84080

> <s_m_subgroup_title>
dock_pv

> <s_m_subgroupid>
dock_pv1

> <b_m_subgroup_collapsed>
0

$$$$
563240
                    3D
 Schrodinger Suite 2021-1.
 49 50  0  0  1  0            999 V2000
   -2.2416   31.2449   56.2676 C   0  0  0  0  0  0
   -2.5347   30.1236   57.2721 C   0  0  0  0  0  0
   -1.2896   29.8136   58.1260 C   0  0  0  0  0  0
   -3.0226   28.9986   56.5259 O   0  0  0  0  0  0
   -3.4420   27.9221   57.3718 N   0  0  2  0  0  0
   -3.0781   26.6475   56.7496 C   0  0  0  0  0  0
   -1.5820   26.3421   56.7157 C   0  0  0  0  0  0
   -1.1433   25.7810   55.7099 O   0  0  0  0  0  0
   -0.8369   26.6643   57.7860 N   0  0  0  0  0  0
    0.5503   26.4674   57.7194 O   0  0  0  0  0  0
   -5.1808   28.0891   57.6767 S   0  0  0  0  0  0
   -5.5397   26.9700   58.5443 O   0  0  0  0  0  0
   -5.4895   29.4674   58.0725 O   0  0  0  0  0  0
   -5.9656   27.7782   56.0956 C   0  0  0  0  0  0
   -6.1967   28.8434   55.2326 C   0  0  0  0  0  0
   -6.7258   28.5995   53.9719 C   0  0  0  0  0  0
   -7.0297   27.3027   53.5532 C   0  0  0  0  0  0
   -6.8015   26.2380   54.4329 C   0  0  0  0  0  0
   -6.2757   26.4732   55.7027 C   0  0  0  0  0  0
   -7.6246   27.0908   52.2063 C   0  0  0  0  0  0
   -7.1394   27.7703   51.0884 C   0  0  0  0  0  0
   -7.8053   27.7141   49.8669 C   0  0  0  0  0  0
   -8.9678   26.9525   49.7521 C   0  0  0  0  0  0
   -9.4115   26.1964   50.8339 C   0  0  0  0  0  0
   -8.7392   26.2739   52.0505 C   0  0  0  0  0  0
   -9.9397   26.9701   48.2722 S   0  0  0  0  0  0
   -9.3168   28.2983   47.2007 C   0  0  0  0  0  0
   -1.8910   32.1466   56.7721 H   0  0  0  0  0  0
   -1.4699   30.9493   55.5561 H   0  0  0  0  0  0
   -3.1377   31.5181   55.7097 H   0  0  0  0  0  0
   -3.3120   30.4939   57.9404 H   0  0  0  0  0  0
   -0.9172   30.7138   58.6159 H   0  0  0  0  0  0
   -1.5162   29.1002   58.9178 H   0  0  0  0  0  0
   -0.4766   29.4129   57.5184 H   0  0  0  0  0  0
   -3.4845   26.5775   55.7398 H   0  0  0  0  0  0
   -3.5295   25.8277   57.3094 H   0  0  0  0  0  0
   -1.1448   27.0913   58.6487 H   0  0  0  0  0  0
    0.7142   25.7086   58.2892 H   0  0  0  0  0  0
   -5.9433   29.8539   55.5203 H   0  0  0  0  0  0
   -6.8924   29.4335   53.3103 H   0  0  0  0  0  0
   -7.0168   25.2223   54.1299 H   0  0  0  0  0  0
   -6.0815   25.6350   56.3586 H   0  0  0  0  0  0
   -6.2848   28.4188   51.1850 H   0  0  0  0  0  0
   -7.4258   28.3003   49.0439 H   0  0  0  0  0  0
  -10.3074   25.5994   50.7530 H   0  0  0  0  0  0
   -9.1348   25.7700   52.9100 H   0  0  0  0  0  0
   -9.9386   28.3854   46.3105 H   0  0  0  0  0  0
   -9.3386   29.2527   47.7280 H   0  0  0  0  0  0
   -8.2924   28.1003   46.8863 H   0  0  0  0  0  0
  1  2  1  0  0  0
  1 28  1  0  0  0
  1 29  1  0  0  0
  1 30  1  0  0  0
  2  3  1  0  0  0
  2  4  1  0  0  0
  2 31  1  0  0  0
  3 32  1  0  0  0
  3 33  1  0  0  0
  3 34  1  0  0  0
  4  5  1  0  0  0
  5  6  1  0  0  0
  5 11  1  0  0  0
  6  7  1  0  0  0
  6 35  1  0  0  0
  6 36  1  0  0  0
  7  8  2  0  0  0
  7  9  1  0  0  0
  9 10  1  0  0  0
  9 37  1  0  0  0
 10 38  1  0  0  0
 11 12  2  0  0  0
 11 13  2  0  0  0
 11 14  1  0  0  0
 14 19  1  0  0  0
 14 15  2  0  0  0
 15 16  1  0  0  0
 15 39  1  0  0  0
 16 17  2  0  0  0
 16 40  1  0  0  0
 17 18  1  0  0  0
 17 20  1  0  0  0
 18 19  2  0  0  0
 18 41  1  0  0  0
 19 42  1  0  0  0
 20 25  1  0  0  0
 20 21  2  0  0  0
 21 22  1  0  0  0
 21 43  1  0  0  0
 22 23  2  0  0  0
 22 44  1  0  0  0
 23 24  1  0  0  0
 23 26  1  0  0  0
 24 25  2  0  0  0
 24 45  1  0  0  0
 25 46  1  0  0  0
 26 27  1  0  0  0
 27 47  1  0  0  0
 27 48  1  0  0  0
 27 49  1  0  0  0
M  END
> <s_m_entry_id>
65396

> <s_m_entry_name>
ligand_docking-pose.146

> <s_m_Source_Path>
/home/csk/Desktop/cluster/DUD-E-result/mmp13

> <s_m_Source_File>
ligand_docking-pose.sdf

> <i_m_Source_File_Index>
146

> <i_lp_mmshare_version>
53161

> <r_lp_tautomer_probability>
1

> <s_lp_Force_Field>
OPLS_2005

> <r_lp_Energy>
16.018799

> <b_lp_Chiralities_Consistent>
1

> <s_lp_Variant>
563240-1

> <s_i_glide_gridfile>
glide-grid_830c

> <i_i_glide_lignum>
1477

> <i_i_glide_rotatable_bonds>
10

> <r_i_docking_score>
-7.10015925526643

> <r_i_glide_ligand_efficiency>
-0.262968861306164

> <r_i_glide_ligand_efficiency_sa>
-0.78890658305179

> <r_i_glide_ligand_efficiency_ln>
-1.65280001935234

> <r_i_glide_gscore>
-7.10015925526643

> <r_i_glide_lipo>
-3.4385145738848

> <r_i_glide_hbond>
-0.0798370753912956

> <r_i_glide_metal>
0

> <r_i_glide_rewards>
-0.272623482539789

> <r_i_glide_evdw>
-47.4314956665039

> <r_i_glide_ecoul>
-10.2218790054321

> <r_i_glide_erotb>
0.818345579103597

> <r_i_glide_esite>
-0.22267306841413

> <r_i_glide_emodel>
-79.1088676442155

> <r_i_glide_energy>
-57.653374671936

> <r_i_glide_einternal>
6.44620370864868

> <i_i_glide_confnum>
20

> <i_i_glide_posenum>
381

> <r_i_glide_eff_state_penalty>
0

> <i_f3d_flags>
0

> <s_user_duplicate_titles>
563240

> <s_m_subgroup_title>
dock_pv

> <s_m_subgroupid>
dock_pv1

> <b_m_subgroup_collapsed>
0

$$$$
187851
                    3D
 Schrodinger Suite 2021-1.
 50 52  0  0  1  0            999 V2000
   -9.4422   27.7336   48.1824 C   0  0  0  0  0  0
   -8.1883   28.1700   48.6014 C   0  0  0  0  0  0
   -7.7012   27.7700   49.8426 C   0  0  0  0  0  0
   -8.4649   26.9361   50.6631 C   0  0  0  0  0  0
   -9.7189   26.4954   50.2330 C   0  0  0  0  0  0
  -10.2083   26.8979   48.9920 C   0  0  0  0  0  0
   -7.9390   26.5590   52.0398 C   0  0  0  0  0  0
   -7.9570   27.7297   52.8404 O   0  0  0  0  0  0
   -7.2191   27.7970   53.9999 C   0  0  0  0  0  0
   -6.5787   26.7188   54.6328 C   0  0  0  0  0  0
   -5.8669   26.9314   55.8174 C   0  0  0  0  0  0
   -5.7786   28.2254   56.3409 C   0  0  0  0  0  0
   -6.4085   29.2898   55.7096 C   0  0  0  0  0  0
   -7.1390   29.0648   54.5607 C   0  0  0  0  0  0
   -4.9222   28.6126   57.8503 S   0  0  0  0  0  0
   -4.5745   27.3700   58.5404 O   0  0  0  0  0  0
   -5.7520   29.6199   58.5100 O   0  0  0  0  0  0
   -3.4447   29.4402   57.3716 N   0  0  1  0  0  0
   -2.1867   28.7543   56.9559 C   0  0  0  0  0  0
   -1.4121   29.8187   56.1233 C   0  0  0  0  0  0
   -0.9015   30.9948   56.9825 C   0  0  0  0  0  0
   -0.1412   30.4880   58.0759 O   0  0  0  0  0  0
   -0.9008   29.6938   58.9839 C   0  0  0  0  0  0
   -1.4050   28.4245   58.2654 C   0  0  0  0  0  0
   -2.4159   27.4945   56.0532 C   0  0  0  0  0  0
   -2.7390   27.6241   54.8676 O   0  0  0  0  0  0
   -2.2165   26.2706   56.5722 N   0  0  0  0  0  0
   -2.3390   25.1708   55.7100 O   0  0  0  0  0  0
   -9.8233   28.0478   47.2218 H   0  0  0  0  0  0
   -7.5967   28.8209   47.9734 H   0  0  0  0  0  0
   -6.7390   28.1310   50.1745 H   0  0  0  0  0  0
  -10.3197   25.8527   50.8604 H   0  0  0  0  0  0
  -11.1814   26.5700   48.6573 H   0  0  0  0  0  0
   -6.9268   26.1700   51.9298 H   0  0  0  0  0  0
   -8.5469   25.7765   52.4965 H   0  0  0  0  0  0
   -6.6375   25.7186   54.2301 H   0  0  0  0  0  0
   -5.3896   26.0984   56.3159 H   0  0  0  0  0  0
   -6.3544   30.2905   56.1148 H   0  0  0  0  0  0
   -7.6409   29.8979   54.1100 H   0  0  0  0  0  0
   -3.6272   30.3033   56.8543 H   0  0  0  0  0  0
   -2.0309   30.2036   55.3100 H   0  0  0  0  0  0
   -0.5414   29.3700   55.6461 H   0  0  0  0  0  0
   -1.7244   31.6149   57.3435 H   0  0  0  0  0  0
   -0.2640   31.6478   56.3855 H   0  0  0  0  0  0
   -1.7296   30.2717   59.3977 H   0  0  0  0  0  0
   -0.2656   29.4217   59.8275 H   0  0  0  0  0  0
   -0.5313   27.8099   58.0419 H   0  0  0  0  0  0
   -2.0175   27.8442   58.9570 H   0  0  0  0  0  0
   -2.0364   26.0234   57.5375 H   0  0  0  0  0  0
   -3.1292   24.7005   56.0354 H   0  0  0  0  0  0
  1  6  1  0  0  0
  1  2  2  0  0  0
  1 29  1  0  0  0
  2  3  1  0  0  0
  2 30  1  0  0  0
  3  4  2  0  0  0
  3 31  1  0  0  0
  4  5  1  0  0  0
  4  7  1  0  0  0
  5  6  2  0  0  0
  5 32  1  0  0  0
  6 33  1  0  0  0
  7  8  1  0  0  0
  7 34  1  0  0  0
  7 35  1  0  0  0
  8  9  1  0  0  0
  9 14  1  0  0  0
  9 10  2  0  0  0
 10 11  1  0  0  0
 10 36  1  0  0  0
 11 12  2  0  0  0
 11 37  1  0  0  0
 12 13  1  0  0  0
 12 15  1  0  0  0
 13 14  2  0  0  0
 13 38  1  0  0  0
 14 39  1  0  0  0
 15 16  2  0  0  0
 15 17  2  0  0  0
 15 18  1  0  0  0
 18 19  1  0  0  0
 18 40  1  0  0  0
 19 24  1  0  0  0
 19 20  1  0  0  0
 19 25  1  0  0  0
 20 21  1  0  0  0
 20 41  1  0  0  0
 20 42  1  0  0  0
 21 22  1  0  0  0
 21 43  1  0  0  0
 21 44  1  0  0  0
 22 23  1  0  0  0
 23 24  1  0  0  0
 23 45  1  0  0  0
 23 46  1  0  0  0
 24 47  1  0  0  0
 24 48  1  0  0  0
 25 26  2  0  0  0
 25 27  1  0  0  0
 27 28  1  0  0  0
 27 49  1  0  0  0
 28 50  1  0  0  0
M  END
> <s_m_entry_id>
65400

> <s_m_entry_name>
ligand_docking-pose.150

> <s_m_Source_Path>
/home/csk/Desktop/cluster/DUD-E-result/mmp13

> <s_m_Source_File>
ligand_docking-pose.sdf

> <i_m_Source_File_Index>
150

> <i_lp_mmshare_version>
53161

> <r_lp_tautomer_probability>
1

> <s_lp_Force_Field>
OPLS_2005

> <r_lp_Energy>
27.882342

> <b_lp_Chiralities_Consistent>
1

> <s_lp_Variant>
187851-1

> <s_i_glide_gridfile>
glide-grid_830c

> <i_i_glide_lignum>
195

> <i_i_glide_rotatable_bonds>
9

> <r_i_docking_score>
-7.01313005196022

> <r_i_glide_ligand_efficiency>
-0.250468930427151

> <r_i_glide_ligand_efficiency_sa>
-0.760571191087785

> <r_i_glide_ligand_efficiency_ln>
-1.61883633043829

> <r_i_glide_gscore>
-7.01313005196022

> <r_i_glide_lipo>
-3.3537541058557

> <r_i_glide_hbond>
0

> <r_i_glide_metal>
0

> <r_i_glide_rewards>
-0.510414669633346

> <r_i_glide_evdw>
-48.4459457397461

> <r_i_glide_ecoul>
-9.69721221923828

> <r_i_glide_erotb>
0.952149377085329

> <r_i_glide_esite>
-0.224231533683456

> <r_i_glide_emodel>
-84.7704751812683

> <r_i_glide_energy>
-58.1431579589844

> <r_i_glide_einternal>
7.4072790145874

> <i_i_glide_confnum>
14

> <i_i_glide_posenum>
152

> <r_i_glide_eff_state_penalty>
0

> <i_f3d_flags>
0

> <s_user_duplicate_titles>
187851

> <s_m_subgroup_title>
dock_pv

> <s_m_subgroupid>
dock_pv1

> <b_m_subgroup_collapsed>
0

$$$$
165777
                    3D
 Schrodinger Suite 2021-1.
 55 58  0  0  1  0            999 V2000
   -9.8205   28.4320   45.3330 C   0  0  0  0  0  0
   -8.8792   29.1944   46.0150 C   0  0  0  0  0  0
   -8.5164   28.8430   47.3124 C   0  0  0  0  0  0
   -9.0730   27.7175   47.9447 C   0  0  0  0  0  0
  -10.0250   26.9701   47.2337 C   0  0  0  0  0  0
  -10.3983   27.3219   45.9398 C   0  0  0  0  0  0
   -8.6646   27.3400   49.3404 C   0  0  0  0  0  0
   -9.4882   26.5701   50.1707 C   0  0  0  0  0  0
   -9.1390   26.3323   51.4980 C   0  0  0  0  0  0
   -7.9916   26.8802   52.0591 C   0  0  0  0  0  0
   -7.1211   27.5660   51.2136 C   0  0  0  0  0  0
   -7.4462   27.7700   49.8762 C   0  0  0  0  0  0
   -7.8240   26.7493   53.4276 O   0  0  0  0  0  0
   -6.5083   26.6568   53.9804 C   0  0  0  0  0  0
   -5.8091   27.9877   54.3666 C   0  0  2  0  0  0
   -4.3442   27.7884   54.8376 C   0  0  0  0  0  0
   -4.1211   26.7887   56.0043 C   0  0  0  0  0  0
   -2.9905   27.1716   56.8636 N   0  0  0  0  0  0
   -1.7633   26.5760   56.6308 C   0  0  0  0  0  0
   -1.5509   25.7705   55.7103 O   0  0  0  0  0  0
   -0.6959   27.1097   57.5883 C   0  0  0  0  0  0
    0.5956   26.5692   57.5678 C   0  0  0  0  0  0
    1.5867   27.0723   58.4116 C   0  0  0  0  0  0
    1.3015   28.1275   59.2785 C   0  0  0  0  0  0
    0.0251   28.6890   59.3007 C   0  0  0  0  0  0
   -0.9674   28.1864   58.4545 C   0  0  0  0  0  0
   -2.3162   28.7282   58.4350 C   0  0  0  0  0  0
   -3.2538   28.2379   57.7242 N   0  0  0  0  0  0
   -6.6249   28.8161   55.3763 C   0  0  0  0  0  0
   -6.7390   28.4353   56.5419 O   0  0  0  0  0  0
   -7.1473   29.9607   54.9100 N   0  0  0  0  0  0
   -7.9301   30.7572   55.7586 O   0  0  0  0  0  0
  -10.1006   28.7035   44.3255 H   0  0  0  0  0  0
   -8.4295   30.0561   45.5417 H   0  0  0  0  0  0
   -7.7962   29.4688   47.8167 H   0  0  0  0  0  0
  -10.4759   26.0912   47.6673 H   0  0  0  0  0  0
  -11.1262   26.7313   45.4036 H   0  0  0  0  0  0
  -10.4322   26.1863   49.8196 H   0  0  0  0  0  0
   -9.8230   25.7700   52.1105 H   0  0  0  0  0  0
   -6.1858   27.9684   51.5581 H   0  0  0  0  0  0
   -6.7392   28.3154   49.2691 H   0  0  0  0  0  0
   -5.8852   26.1032   53.2961 H   0  0  0  0  0  0
   -6.5851   26.0154   54.8597 H   0  0  0  0  0  0
   -5.7240   28.5888   53.4656 H   0  0  0  0  0  0
   -3.9345   28.7676   55.1003 H   0  0  0  0  0  0
   -3.7377   27.4772   53.9887 H   0  0  0  0  0  0
   -4.0546   25.7700   55.6240 H   0  0  0  0  0  0
   -4.9898   26.7434   56.6607 H   0  0  0  0  0  0
    0.8526   25.7558   56.9093 H   0  0  0  0  0  0
    2.5782   26.6446   58.3905 H   0  0  0  0  0  0
    2.0725   28.5147   59.9290 H   0  0  0  0  0  0
   -0.1833   29.5097   59.9745 H   0  0  0  0  0  0
   -2.5761   29.5946   59.0346 H   0  0  0  0  0  0
   -7.0205   30.3499   53.9891 H   0  0  0  0  0  0
   -7.3201   31.4311   56.0688 H   0  0  0  0  0  0
  1  6  1  0  0  0
  1  2  2  0  0  0
  1 33  1  0  0  0
  2  3  1  0  0  0
  2 34  1  0  0  0
  3  4  2  0  0  0
  3 35  1  0  0  0
  4  5  1  0  0  0
  4  7  1  0  0  0
  5  6  2  0  0  0
  5 36  1  0  0  0
  6 37  1  0  0  0
  7 12  1  0  0  0
  7  8  2  0  0  0
  8  9  1  0  0  0
  8 38  1  0  0  0
  9 10  2  0  0  0
  9 39  1  0  0  0
 10 11  1  0  0  0
 10 13  1  0  0  0
 11 12  2  0  0  0
 11 40  1  0  0  0
 12 41  1  0  0  0
 13 14  1  0  0  0
 14 15  1  0  0  0
 14 42  1  0  0  0
 14 43  1  0  0  0
 15 16  1  0  0  0
 15 29  1  0  0  0
 15 44  1  0  0  0
 16 17  1  0  0  0
 16 45  1  0  0  0
 16 46  1  0  0  0
 17 18  1  0  0  0
 17 47  1  0  0  0
 17 48  1  0  0  0
 18 28  1  0  0  0
 18 19  1  0  0  0
 19 20  2  0  0  0
 19 21  1  0  0  0
 21 26  2  0  0  0
 21 22  1  0  0  0
 22 23  2  0  0  0
 22 49  1  0  0  0
 23 24  1  0  0  0
 23 50  1  0  0  0
 24 25  2  0  0  0
 24 51  1  0  0  0
 25 26  1  0  0  0
 25 52  1  0  0  0
 26 27  1  0  0  0
 27 28  2  0  0  0
 27 53  1  0  0  0
 29 30  2  0  0  0
 29 31  1  0  0  0
 31 32  1  0  0  0
 31 54  1  0  0  0
 32 55  1  0  0  0
M  END
> <s_m_entry_id>
65401

> <s_m_entry_name>
ligand_docking-pose.151

> <s_m_Source_Path>
/home/csk/Desktop/cluster/DUD-E-result/mmp13

> <s_m_Source_File>
ligand_docking-pose.sdf

> <i_m_Source_File_Index>
151

> <i_lp_mmshare_version>
53161

> <r_lp_tautomer_probability>
1

> <s_lp_Force_Field>
OPLS_2005

> <r_lp_Energy>
42.192983

> <b_lp_Chiralities_Consistent>
1

> <s_lp_Variant>
165777-1

> <s_i_glide_gridfile>
glide-grid_830c

> <i_i_glide_lignum>
65

> <i_i_glide_rotatable_bonds>
10

> <r_i_docking_score>
-7.01290854639456

> <r_i_glide_ligand_efficiency>
-0.21915339207483

> <r_i_glide_ligand_efficiency_sa>
-0.695768649440186

> <r_i_glide_ligand_efficiency_ln>
-1.57038138820478

> <r_i_glide_gscore>
-7.01290854639456

> <r_i_glide_lipo>
-3.39369258955809

> <r_i_glide_hbond>
-0.0427848566172028

> <r_i_glide_metal>
0

> <r_i_glide_rewards>
-0.309903907956355

> <r_i_glide_evdw>
-51.1239547729492

> <r_i_glide_ecoul>
-10.1047115325928

> <r_i_glide_erotb>
0.861957541826429

> <r_i_glide_esite>
-0.0565802655529721

> <r_i_glide_emodel>
-83.8531801248951

> <r_i_glide_energy>
-61.228666305542

> <r_i_glide_einternal>
8.31211185455322

> <i_i_glide_confnum>
1

> <i_i_glide_posenum>
70

> <r_i_glide_eff_state_penalty>
0

> <i_f3d_flags>
0

> <s_user_duplicate_titles>
165777

> <s_m_subgroup_title>
dock_pv

> <s_m_subgroupid>
dock_pv1

> <b_m_subgroup_collapsed>
0

$$$$
309541
                    3D
 Schrodinger Suite 2021-1.
 53 55  0  0  1  0            999 V2000
   -0.0276   27.7500   57.8813 C   0  0  0  0  0  0
   -1.1861   28.7684   57.7573 C   0  0  1  0  0  0
   -0.8451   29.8874   56.7409 C   0  0  0  0  0  0
   -1.9392   30.9688   56.6523 C   0  0  0  0  0  0
   -3.3118   30.3526   56.3364 C   0  0  0  0  0  0
   -3.6548   29.2165   57.2318 N   0  0  2  0  0  0
   -2.6128   28.1637   57.4697 C   0  0  1  0  0  0
   -2.5727   27.1679   56.2842 C   0  0  0  0  0  0
   -2.7382   27.5136   55.1061 O   0  0  0  0  0  0
   -2.3507   25.8933   56.6208 N   0  0  0  0  0  0
   -2.3390   24.9700   55.5883 O   0  0  0  0  0  0
   -5.3743   28.8156   57.4756 S   0  0  0  0  0  0
   -5.4671   27.7781   58.5099 O   0  0  0  0  0  0
   -6.1239   30.0710   57.5926 O   0  0  0  0  0  0
   -5.9369   28.0396   55.9583 C   0  0  0  0  0  0
   -6.4244   28.8275   54.9145 C   0  0  0  0  0  0
   -6.9262   28.2225   53.7644 C   0  0  0  0  0  0
   -6.9411   26.8277   53.6530 C   0  0  0  0  0  0
   -6.4107   26.0517   54.6791 C   0  0  0  0  0  0
   -5.9233   26.6480   55.8371 C   0  0  0  0  0  0
   -7.4478   26.1706   52.5528 O   0  0  0  0  0  0
   -8.7154   26.5974   52.0587 C   0  0  0  0  0  0
   -8.6552   26.9987   50.5939 C   0  0  0  0  0  0
   -7.5729   27.7300   50.0943 C   0  0  0  0  0  0
   -7.5761   28.1705   48.7712 C   0  0  0  0  0  0
   -8.6498   27.8713   47.9342 C   0  0  0  0  0  0
   -9.7250   27.1323   48.4218 C   0  0  0  0  0  0
   -9.7340   26.7097   49.7504 C   0  0  0  0  0  0
  -10.7560   26.8220   47.6052 F   0  0  0  0  0  0
   -1.2457   29.3666   59.0393 O   0  0  0  0  0  0
   -2.9391   27.5786   58.3318 H   0  0  0  0  0  0
    0.1992   27.2744   56.9270 H   0  0  0  0  0  0
    0.8939   28.2301   58.2158 H   0  0  0  0  0  0
   -0.2578   26.9593   58.5963 H   0  0  0  0  0  0
    0.1308   30.3232   56.9608 H   0  0  0  0  0  0
   -0.7114   29.4388   55.7554 H   0  0  0  0  0  0
   -1.6813   31.7017   55.8871 H   0  0  0  0  0  0
   -1.9973   31.5239   57.5898 H   0  0  0  0  0  0
   -3.2179   29.9569   55.3233 H   0  0  0  0  0  0
   -4.1056   31.0997   56.3557 H   0  0  0  0  0  0
   -2.3327   25.4791   57.5457 H   0  0  0  0  0  0
   -3.1808   24.4749   55.7106 H   0  0  0  0  0  0
   -6.4213   29.9054   54.9945 H   0  0  0  0  0  0
   -7.3008   28.8398   52.9621 H   0  0  0  0  0  0
   -6.3974   24.9746   54.5874 H   0  0  0  0  0  0
   -5.5413   26.0207   56.6311 H   0  0  0  0  0  0
   -9.4130   25.7705   52.1713 H   0  0  0  0  0  0
   -9.1388   27.4246   52.6272 H   0  0  0  0  0  0
   -6.7355   27.9797   50.7295 H   0  0  0  0  0  0
   -6.7416   28.7437   48.3947 H   0  0  0  0  0  0
   -8.6426   28.2056   46.9071 H   0  0  0  0  0  0
  -10.5897   26.1683   50.1224 H   0  0  0  0  0  0
   -1.4345   28.6914   59.6937 H   0  0  0  0  0  0
  1  2  1  0  0  0
  1 32  1  0  0  0
  1 33  1  0  0  0
  1 34  1  0  0  0
  2  7  1  0  0  0
  2  3  1  0  0  0
  2 30  1  0  0  0
  3  4  1  0  0  0
  3 35  1  0  0  0
  3 36  1  0  0  0
  4  5  1  0  0  0
  4 37  1  0  0  0
  4 38  1  0  0  0
  5  6  1  0  0  0
  5 39  1  0  0  0
  5 40  1  0  0  0
  6  7  1  0  0  0
  6 12  1  0  0  0
  7 31  1  0  0  0
  7  8  1  0  0  0
  8  9  2  0  0  0
  8 10  1  0  0  0
 10 11  1  0  0  0
 10 41  1  0  0  0
 11 42  1  0  0  0
 12 13  2  0  0  0
 12 14  2  0  0  0
 12 15  1  0  0  0
 15 20  1  0  0  0
 15 16  2  0  0  0
 16 17  1  0  0  0
 16 43  1  0  0  0
 17 18  2  0  0  0
 17 44  1  0  0  0
 18 19  1  0  0  0
 18 21  1  0  0  0
 19 20  2  0  0  0
 19 45  1  0  0  0
 20 46  1  0  0  0
 21 22  1  0  0  0
 22 23  1  0  0  0
 22 47  1  0  0  0
 22 48  1  0  0  0
 23 28  1  0  0  0
 23 24  2  0  0  0
 24 25  1  0  0  0
 24 49  1  0  0  0
 25 26  2  0  0  0
 25 50  1  0  0  0
 26 27  1  0  0  0
 26 51  1  0  0  0
 27 28  2  0  0  0
 27 29  1  0  0  0
 28 52  1  0  0  0
 30 53  1  0  0  0
M  END
> <s_m_entry_id>
65411

> <s_m_entry_name>
ligand_docking-pose.161

> <s_m_Source_Path>
/home/csk/Desktop/cluster/DUD-E-result/mmp13

> <s_m_Source_File>
ligand_docking-pose.sdf

> <i_m_Source_File_Index>
161

> <i_lp_mmshare_version>
53161

> <r_lp_tautomer_probability>
1

> <s_lp_Force_Field>
OPLS_2005

> <r_lp_Energy>
30.415403

> <b_lp_Chiralities_Consistent>
1

> <s_lp_Variant>
309541-1

> <s_i_glide_gridfile>
glide-grid_830c

> <i_i_glide_lignum>
586

> <i_i_glide_rotatable_bonds>
9

> <r_i_docking_score>
-6.89598682533896

> <r_i_glide_ligand_efficiency>
-0.229866227511299

> <r_i_glide_ligand_efficiency_sa>
-0.714247813334326

> <r_i_glide_ligand_efficiency_ln>
-1.56684334451154

> <r_i_glide_gscore>
-6.89598682533896

> <r_i_glide_lipo>
-2.97860390483405

> <r_i_glide_hbond>
0

> <r_i_glide_metal>
0

> <r_i_glide_rewards>
0.107433707968759

> <r_i_glide_evdw>
-44.6742515563965

> <r_i_glide_ecoul>
-15.0824670791626

> <r_i_glide_erotb>
0.726375602625198

> <r_i_glide_esite>
-0.255109591404651

> <r_i_glide_emodel>
-79.680615632783

> <r_i_glide_energy>
-59.7567186355591

> <r_i_glide_einternal>
14.1010522842407

> <i_i_glide_confnum>
62

> <i_i_glide_posenum>
395

> <r_i_glide_eff_state_penalty>
0

> <i_f3d_flags>
0

> <s_user_duplicate_titles>
309541

> <s_m_subgroup_title>
dock_pv

> <s_m_subgroupid>
dock_pv1

> <b_m_subgroup_collapsed>
0

$$$$
154712
                    3D
 Schrodinger Suite 2021-1.
 41 41  0  0  1  0            999 V2000
   -7.2829   28.5876   48.0766 C   0  0  0  0  0  0
   -7.7777   27.7700   49.1933 C   0  0  0  0  0  0
   -8.2257   27.0984   50.1090 C   0  0  0  0  0  0
   -8.8542   26.3512   51.2126 C   0  0  0  0  0  0
   -7.9390   25.7700   52.1419 O   0  0  0  0  0  0
   -7.4276   26.5114   53.1924 C   0  0  0  0  0  0
   -7.4958   27.9073   53.2761 C   0  0  0  0  0  0
   -6.9941   28.5704   54.3894 C   0  0  0  0  0  0
   -6.4360   27.8442   55.4404 C   0  0  0  0  0  0
   -6.3283   26.4561   55.3532 C   0  0  0  0  0  0
   -6.8085   25.8003   54.2216 C   0  0  0  0  0  0
   -5.9097   28.7184   56.9100 S   0  0  0  0  0  0
   -6.6929   29.9569   56.9638 O   0  0  0  0  0  0
   -5.9213   27.7700   58.0316 O   0  0  0  0  0  0
   -4.2447   29.1779   56.5817 N   0  0  1  0  0  0
   -3.0976   28.3734   57.0794 C   0  0  2  0  0  0
   -1.8402   29.2702   57.3082 C   0  0  1  0  0  0
   -0.7046   28.5676   58.0733 C   0  0  0  0  0  0
   -1.2898   29.7938   56.1100 O   0  0  0  0  0  0
   -2.7970   27.2281   56.0807 C   0  0  0  0  0  0
   -2.7390   27.4401   54.8658 O   0  0  0  0  0  0
   -2.6013   26.0123   56.6063 N   0  0  0  0  0  0
   -2.3390   24.9700   55.7100 O   0  0  0  0  0  0
   -3.3901   27.9532   58.0435 H   0  0  0  0  0  0
   -6.1951   28.5700   48.0575 H   0  0  0  0  0  0
   -7.6188   29.6182   48.1895 H   0  0  0  0  0  0
   -7.6576   28.1922   47.1332 H   0  0  0  0  0  0
   -9.5390   27.0314   51.7099 H   0  0  0  0  0  0
   -9.4576   25.5554   50.7757 H   0  0  0  0  0  0
   -7.9316   28.4972   52.4862 H   0  0  0  0  0  0
   -7.0615   29.6478   54.4411 H   0  0  0  0  0  0
   -5.8890   25.8799   56.1560 H   0  0  0  0  0  0
   -6.7345   24.7239   54.1591 H   0  0  0  0  0  0
   -4.0859   29.8123   55.7931 H   0  0  0  0  0  0
   -2.1458   30.1286   57.9095 H   0  0  0  0  0  0
   -1.0528   28.1945   59.0368 H   0  0  0  0  0  0
   -0.2980   27.7244   57.5143 H   0  0  0  0  0  0
    0.1181   29.2564   58.2684 H   0  0  0  0  0  0
   -1.9431   30.3654   55.6973 H   0  0  0  0  0  0
   -2.7664   25.7020   57.5586 H   0  0  0  0  0  0
   -3.1685   24.4400   55.7392 H   0  0  0  0  0  0
  1  2  1  0  0  0
  1 25  1  0  0  0
  1 26  1  0  0  0
  1 27  1  0  0  0
  2  3  3  0  0  0
  3  4  1  0  0  0
  4  5  1  0  0  0
  4 28  1  0  0  0
  4 29  1  0  0  0
  5  6  1  0  0  0
  6 11  1  0  0  0
  6  7  2  0  0  0
  7  8  1  0  0  0
  7 30  1  0  0  0
  8  9  2  0  0  0
  8 31  1  0  0  0
  9 10  1  0  0  0
  9 12  1  0  0  0
 10 11  2  0  0  0
 10 32  1  0  0  0
 11 33  1  0  0  0
 12 13  2  0  0  0
 12 14  2  0  0  0
 12 15  1  0  0  0
 15 16  1  0  0  0
 15 34  1  0  0  0
 16 24  1  0  0  0
 16 17  1  0  0  0
 16 20  1  0  0  0
 17 18  1  0  0  0
 17 19  1  0  0  0
 17 35  1  0  0  0
 18 36  1  0  0  0
 18 37  1  0  0  0
 18 38  1  0  0  0
 19 39  1  0  0  0
 20 21  2  0  0  0
 20 22  1  0  0  0
 22 23  1  0  0  0
 22 40  1  0  0  0
 23 41  1  0  0  0
M  END
> <s_m_entry_id>
65413

> <s_m_entry_name>
ligand_docking-pose.163

> <s_m_Source_Path>
/home/csk/Desktop/cluster/DUD-E-result/mmp13

> <s_m_Source_File>
ligand_docking-pose.sdf

> <i_m_Source_File_Index>
163

> <i_lp_mmshare_version>
53161

> <r_lp_tautomer_probability>
1

> <s_lp_Force_Field>
OPLS_2005

> <r_lp_Energy>
16.221248

> <b_lp_Chiralities_Consistent>
1

> <s_lp_Variant>
154712-2

> <s_i_glide_gridfile>
glide-grid_830c

> <i_i_glide_lignum>
1363

> <i_i_glide_rotatable_bonds>
11

> <r_i_docking_score>
-6.8858322609007

> <r_i_glide_ligand_efficiency>
-0.299384011343509

> <r_i_glide_ligand_efficiency_sa>
-0.85140830326545

> <r_i_glide_ligand_efficiency_ln>
-1.66505667796071

> <r_i_glide_gscore>
-6.8858322609007

> <r_i_glide_lipo>
-2.54373030671666

> <r_i_glide_hbond>
-0.231072756815702

> <r_i_glide_metal>
0

> <r_i_glide_rewards>
-1.06447511321243

> <r_i_glide_evdw>
-37.219596862793

> <r_i_glide_ecoul>
-16.2137031555176

> <r_i_glide_erotb>
1.45589667564641

> <r_i_glide_esite>
-0.209415443335027

> <r_i_glide_emodel>
-76.6212992374067

> <r_i_glide_energy>
-53.4333000183105

> <r_i_glide_einternal>
11.9144506454468

> <i_i_glide_confnum>
106

> <i_i_glide_posenum>
366

> <r_i_glide_eff_state_penalty>
0

> <i_f3d_flags>
0

> <s_user_duplicate_titles>
154712

> <s_m_subgroup_title>
dock_pv

> <s_m_subgroupid>
dock_pv1

> <b_m_subgroup_collapsed>
0

$$$$
308197
                    3D
 Schrodinger Suite 2021-1.
 49 51  0  0  1  0            999 V2000
   -7.9044   28.5705   48.0956 C   0  0  0  0  0  0
   -8.3392   29.3024   46.9943 C   0  0  0  0  0  0
   -9.5412   28.9705   46.3758 C   0  0  0  0  0  0
  -10.3379   27.9425   46.8769 C   0  0  0  0  0  0
   -9.9100   27.2152   47.9834 C   0  0  0  0  0  0
   -8.6776   27.5095   48.5731 C   0  0  0  0  0  0
   -8.1288   26.6083   49.6643 C   0  0  0  0  0  0
   -8.7802   26.8305   50.9048 O   0  0  0  0  0  0
   -7.9802   27.0485   52.0018 C   0  0  0  0  0  0
   -8.3260   26.3978   53.1731 C   0  0  0  0  0  0
   -7.6600   26.6439   54.3688 C   0  0  0  0  0  0
   -6.6311   27.5789   54.3892 C   0  0  0  0  0  0
   -6.2532   28.2086   53.2043 C   0  0  0  0  0  0
   -6.9135   27.9440   52.0105 C   0  0  0  0  0  0
   -5.9385   28.1013   55.9581 S   0  0  0  0  0  0
   -6.1223   27.0026   56.9102 O   0  0  0  0  0  0
   -6.5758   29.3977   56.2077 O   0  0  0  0  0  0
   -4.0571   28.3532   55.6510 C   0  0  2  0  0  0
   -3.3755   27.0269   55.2774 C   0  0  0  0  0  0
   -3.0790   26.1610   56.5092 C   0  0  0  0  0  0
   -2.3296   26.8958   57.4689 O   0  0  0  0  0  0
   -3.0143   28.0422   57.9758 C   0  0  0  0  0  0
   -3.2924   29.0555   56.8241 C   0  0  2  0  0  0
   -4.0278   30.3240   57.3574 C   0  0  0  0  0  0
   -4.4839   30.3434   58.5058 O   0  0  0  0  0  0
   -4.1636   31.3666   56.5105 N   0  0  0  0  0  0
   -4.9989   32.4171   56.9158 O   0  0  0  0  0  0
   -2.0509   29.5262   56.2994 O   0  0  0  0  0  0
  -10.0669   29.8582   44.9920 Cl  0  0  0  0  0  0
   -4.0631   28.9701   54.7682 H   0  0  0  0  0  0
   -6.9497   28.8053   48.5452 H   0  0  0  0  0  0
   -7.7294   30.1045   46.6030 H   0  0  0  0  0  0
  -11.2802   27.7046   46.4059 H   0  0  0  0  0  0
  -10.5141   26.4005   48.3554 H   0  0  0  0  0  0
   -7.0412   26.6789   49.7109 H   0  0  0  0  0  0
   -8.3365   25.5796   49.3687 H   0  0  0  0  0  0
   -9.1390   25.7140   53.1227 H   0  0  0  0  0  0
   -7.9863   26.1690   55.2824 H   0  0  0  0  0  0
   -5.4997   28.9678   53.2051 H   0  0  0  0  0  0
   -6.6459   28.4910   51.1176 H   0  0  0  0  0  0
   -2.4261   27.3033   54.8223 H   0  0  0  0  0  0
   -3.9728   26.4792   54.5473 H   0  0  0  0  0  0
   -2.4971   25.2847   56.2229 H   0  0  0  0  0  0
   -4.0011   25.7697   56.9316 H   0  0  0  0  0  0
   -3.9393   27.7237   58.4627 H   0  0  0  0  0  0
   -2.3967   28.4901   58.7558 H   0  0  0  0  0  0
   -4.1040   31.2848   55.4988 H   0  0  0  0  0  0
   -5.4902   32.0280   57.6488 H   0  0  0  0  0  0
   -1.6372   30.0972   56.9529 H   0  0  0  0  0  0
  1  6  1  0  0  0
  1  2  2  0  0  0
  1 31  1  0  0  0
  2  3  1  0  0  0
  2 32  1  0  0  0
  3  4  2  0  0  0
  3 29  1  0  0  0
  4  5  1  0  0  0
  4 33  1  0  0  0
  5  6  2  0  0  0
  5 34  1  0  0  0
  6  7  1  0  0  0
  7  8  1  0  0  0
  7 35  1  0  0  0
  7 36  1  0  0  0
  8  9  1  0  0  0
  9 14  1  0  0  0
  9 10  2  0  0  0
 10 11  1  0  0  0
 10 37  1  0  0  0
 11 12  2  0  0  0
 11 38  1  0  0  0
 12 13  1  0  0  0
 12 15  1  0  0  0
 13 14  2  0  0  0
 13 39  1  0  0  0
 14 40  1  0  0  0
 15 16  2  0  0  0
 15 17  2  0  0  0
 15 18  1  0  0  0
 18 30  1  0  0  0
 18 23  1  0  0  0
 18 19  1  0  0  0
 19 20  1  0  0  0
 19 41  1  0  0  0
 19 42  1  0  0  0
 20 21  1  0  0  0
 20 43  1  0  0  0
 20 44  1  0  0  0
 21 22  1  0  0  0
 22 23  1  0  0  0
 22 45  1  0  0  0
 22 46  1  0  0  0
 23 24  1  0  0  0
 23 28  1  0  0  0
 24 25  2  0  0  0
 24 26  1  0  0  0
 26 27  1  0  0  0
 26 47  1  0  0  0
 27 48  1  0  0  0
 28 49  1  0  0  0
M  END
> <s_m_entry_id>
65417

> <s_m_entry_name>
ligand_docking-pose.167

> <s_m_Source_Path>
/home/csk/Desktop/cluster/DUD-E-result/mmp13

> <s_m_Source_File>
ligand_docking-pose.sdf

> <i_m_Source_File_Index>
167

> <i_lp_mmshare_version>
53161

> <r_lp_tautomer_probability>
1

> <s_lp_Force_Field>
OPLS_2005

> <r_lp_Energy>
31.888011

> <b_lp_Chiralities_Consistent>
1

> <s_lp_Variant>
308197-1

> <s_i_glide_gridfile>
glide-grid_830c

> <i_i_glide_lignum>
192

> <i_i_glide_rotatable_bonds>
9

> <r_i_docking_score>
-6.83906165752676

> <r_i_glide_ligand_efficiency>
-0.235829712328509

> <r_i_glide_ligand_efficiency_sa>
-0.72454359237028

> <r_i_glide_ligand_efficiency_ln>
-1.56597169593339

> <r_i_glide_gscore>
-6.83906165752676

> <r_i_glide_lipo>
-3.77123990804688

> <r_i_glide_hbond>
-0.32

> <r_i_glide_metal>
0

> <r_i_glide_rewards>
0.162779506269381

> <r_i_glide_evdw>
-48.4374656677246

> <r_i_glide_ecoul>
-7.87371349334717

> <r_i_glide_erotb>
0.71622713184271

> <r_i_glide_esite>
-0.0238980802036679

> <r_i_glide_emodel>
-73.4708553852186

> <r_i_glide_energy>
-56.3111791610718

> <r_i_glide_einternal>
9.31021118164062

> <i_i_glide_confnum>
120

> <i_i_glide_posenum>
271

> <r_i_glide_eff_state_penalty>
0

> <i_f3d_flags>
0

> <s_user_duplicate_titles>
308197

> <s_m_subgroup_title>
dock_pv

> <s_m_subgroupid>
dock_pv1

> <b_m_subgroup_collapsed>
0

$$$$
187954
                    3D
 Schrodinger Suite 2021-1.
 44 46  0  0  1  0            999 V2000
   -8.1803   26.9701   52.5494 C   0  0  0  0  0  0
   -7.9517   26.7645   53.9171 C   0  0  0  0  0  0
   -6.7073   27.0741   54.4742 C   0  0  0  0  0  0
   -5.7119   27.6285   53.6918 C   0  0  0  0  0  0
   -5.9435   27.8120   52.3503 C   0  0  0  0  0  0
   -7.1472   27.4803   51.7519 C   0  0  0  0  0  0
   -7.1393   27.7007   50.3913 O   0  0  0  0  0  0
   -8.1896   27.6322   49.5126 C   0  0  0  0  0  0
   -9.1236   26.5962   49.4746 C   0  0  0  0  0  0
  -10.0630   26.5698   48.4466 C   0  0  0  0  0  0
  -10.0718   27.5503   47.4601 C   0  0  0  0  0  0
   -9.1311   28.5721   47.4867 C   0  0  0  0  0  0
   -8.1872   28.5977   48.5064 C   0  0  0  0  0  0
  -11.2330   27.4733   46.1843 Cl  0  0  0  0  0  0
   -6.3391   26.7470   56.1815 S   0  0  0  0  0  0
   -6.9002   25.4303   56.4946 O   0  0  0  0  0  0
   -6.7381   27.9455   56.9230 O   0  0  0  0  0  0
   -4.6041   26.5700   56.2825 N   0  0  1  0  0  0
   -3.6801   27.5951   56.8405 C   0  0  1  0  0  0
   -3.8402   29.0145   56.2730 C   0  0  0  0  0  0
   -3.5370   29.9233   57.4547 C   0  0  0  0  0  0
   -4.0971   29.2068   58.5428 O   0  0  0  0  0  0
   -3.8811   27.8066   58.3678 C   0  0  0  0  0  0
   -2.2585   27.0855   56.4335 C   0  0  0  0  0  0
   -2.1040   26.5700   55.3142 O   0  0  0  0  0  0
   -1.2309   27.2731   57.2863 N   0  0  0  0  0  0
    0.0470   26.8308   56.9113 O   0  0  0  0  0  0
   -9.1378   26.7148   52.1289 H   0  0  0  0  0  0
   -8.7289   26.3666   54.5498 H   0  0  0  0  0  0
   -4.7393   27.8740   54.0828 H   0  0  0  0  0  0
   -5.1392   28.1705   51.7468 H   0  0  0  0  0  0
   -9.0862   25.7815   50.1813 H   0  0  0  0  0  0
  -10.7390   25.7435   48.3627 H   0  0  0  0  0  0
   -9.1124   29.3251   46.7122 H   0  0  0  0  0  0
   -7.4267   29.3652   48.5091 H   0  0  0  0  0  0
   -4.3098   25.5876   56.3695 H   0  0  0  0  0  0
   -4.8617   29.2174   55.9566 H   0  0  0  0  0  0
   -3.2123   29.2543   55.4117 H   0  0  0  0  0  0
   -3.9968   30.9080   57.3631 H   0  0  0  0  0  0
   -2.4718   30.0918   57.6219 H   0  0  0  0  0  0
   -3.0453   27.4856   58.9876 H   0  0  0  0  0  0
   -4.7552   27.2751   58.7448 H   0  0  0  0  0  0
   -1.2504   27.7112   58.1977 H   0  0  0  0  0  0
    0.2595   26.1385   57.5437 H   0  0  0  0  0  0
  1  6  1  0  0  0
  1  2  2  0  0  0
  1 28  1  0  0  0
  2  3  1  0  0  0
  2 29  1  0  0  0
  3  4  2  0  0  0
  3 15  1  0  0  0
  4  5  1  0  0  0
  4 30  1  0  0  0
  5  6  2  0  0  0
  5 31  1  0  0  0
  6  7  1  0  0  0
  7  8  1  0  0  0
  8 13  1  0  0  0
  8  9  2  0  0  0
  9 10  1  0  0  0
  9 32  1  0  0  0
 10 11  2  0  0  0
 10 33  1  0  0  0
 11 12  1  0  0  0
 11 14  1  0  0  0
 12 13  2  0  0  0
 12 34  1  0  0  0
 13 35  1  0  0  0
 15 16  2  0  0  0
 15 17  2  0  0  0
 15 18  1  0  0  0
 18 19  1  0  0  0
 18 36  1  0  0  0
 19 23  1  0  0  0
 19 20  1  0  0  0
 19 24  1  0  0  0
 20 21  1  0  0  0
 20 37  1  0  0  0
 20 38  1  0  0  0
 21 22  1  0  0  0
 21 39  1  0  0  0
 21 40  1  0  0  0
 22 23  1  0  0  0
 23 41  1  0  0  0
 23 42  1  0  0  0
 24 25  2  0  0  0
 24 26  1  0  0  0
 26 27  1  0  0  0
 26 43  1  0  0  0
 27 44  1  0  0  0
M  END
> <s_m_entry_id>
65419

> <s_m_entry_name>
ligand_docking-pose.169

> <s_m_Source_Path>
/home/csk/Desktop/cluster/DUD-E-result/mmp13

> <s_m_Source_File>
ligand_docking-pose.sdf

> <i_m_Source_File_Index>
169

> <i_lp_mmshare_version>
53161

> <r_lp_tautomer_probability>
1

> <s_lp_Force_Field>
OPLS_2005

> <r_lp_Energy>
35.660178

> <b_lp_Chiralities_Consistent>
1

> <s_lp_Variant>
187954-1

> <s_i_glide_gridfile>
glide-grid_830c

> <i_i_glide_lignum>
250

> <i_i_glide_rotatable_bonds>
8

> <r_i_docking_score>
-6.83629140464218

> <r_i_glide_ligand_efficiency>
-0.25319597794971

> <r_i_glide_ligand_efficiency_sa>
-0.759587933014638

> <r_i_glide_ligand_efficiency_ln>
-1.59137593392851

> <r_i_glide_gscore>
-6.83629140464218

> <r_i_glide_lipo>
-3.8951456137191

> <r_i_glide_hbond>
-0.111565039006072

> <r_i_glide_metal>
0

> <r_i_glide_rewards>
0.0810503903291342

> <r_i_glide_evdw>
-38.8879737854004

> <r_i_glide_ecoul>
-10.0536060333252

> <r_i_glide_erotb>
0.810009752764209

> <r_i_glide_esite>
-0.268201300741544

> <r_i_glide_emodel>
-55.8515877215407

> <r_i_glide_energy>
-48.9415798187256

> <r_i_glide_einternal>
12.7601623535156

> <i_i_glide_confnum>
107

> <i_i_glide_posenum>
85

> <r_i_glide_eff_state_penalty>
0

> <i_f3d_flags>
0

> <s_user_duplicate_titles>
187954

> <s_m_subgroup_title>
dock_pv

> <s_m_subgroupid>
dock_pv1

> <b_m_subgroup_collapsed>
0

$$$$
304045
                    3D
 Schrodinger Suite 2021-1.
 51 53  0  0  1  0            999 V2000
    0.4825   25.7701   58.3317 C   0  0  0  0  0  0
   -0.1451   26.8676   57.4620 C   0  0  0  0  0  0
   -1.1069   26.3678   56.5252 O   0  0  0  0  0  0
   -2.3392   25.9118   57.0768 C   0  0  0  0  0  0
   -3.2814   27.0372   57.5868 C   0  0  0  0  0  0
   -4.1077   27.8120   56.5144 C   0  0  2  0  0  0
   -3.1371   28.5708   55.5877 C   0  0  0  0  0  0
   -2.7399   28.0823   54.5243 O   0  0  0  0  0  0
   -2.6702   29.9528   56.1100 C   0  0  1  0  0  0
   -3.5116   30.5917   57.2538 C   0  0  0  0  0  0
   -3.2061   31.6441   57.8110 O   0  0  0  0  0  0
   -4.6602   29.9639   57.5747 N   0  0  0  0  0  0
   -5.1119   28.7288   57.2839 C   0  0  0  0  0  0
   -6.2115   28.3568   57.6869 O   0  0  0  0  0  0
   -1.2778   29.8761   56.5483 N   0  0  0  0  0  0
   -4.8405   26.7570   55.8572 O   0  0  0  0  0  0
   -5.7899   26.9191   54.8591 C   0  0  0  0  0  0
   -6.0633   28.0905   54.1396 C   0  0  0  0  0  0
   -7.0226   28.0802   53.1196 C   0  0  0  0  0  0
   -7.7081   26.9049   52.8053 C   0  0  0  0  0  0
   -7.4358   25.7635   53.5329 C   0  0  0  0  0  0
   -6.5028   25.7701   54.5514 C   0  0  0  0  0  0
   -8.7388   26.8161   51.8947 O   0  0  0  0  0  0
   -8.6433   27.1483   50.5589 C   0  0  0  0  0  0
   -7.5390   27.7703   49.9653 C   0  0  0  0  0  0
   -7.5857   28.1700   48.6291 C   0  0  0  0  0  0
   -8.7118   27.8953   47.8560 C   0  0  0  0  0  0
   -9.7942   27.2282   48.4228 C   0  0  0  0  0  0
   -9.7636   26.8733   49.7707 C   0  0  0  0  0  0
  -10.8682   26.9209   47.6632 F   0  0  0  0  0  0
    1.2974   26.1780   58.9302 H   0  0  0  0  0  0
   -0.2358   25.3354   59.0255 H   0  0  0  0  0  0
    0.8972   24.9711   57.7165 H   0  0  0  0  0  0
   -0.5606   27.6528   58.0912 H   0  0  0  0  0  0
    0.6559   27.3451   56.9007 H   0  0  0  0  0  0
   -2.8449   25.3371   56.3029 H   0  0  0  0  0  0
   -2.1470   25.1935   57.8727 H   0  0  0  0  0  0
   -3.9905   26.5703   58.2680 H   0  0  0  0  0  0
   -2.7276   27.7248   58.2264 H   0  0  0  0  0  0
   -2.7393   30.6755   55.3051 H   0  0  0  0  0  0
   -5.2583   30.4839   58.1992 H   0  0  0  0  0  0
   -0.6738   30.2293   55.8181 H   0  0  0  0  0  0
   -1.1534   30.5219   57.3200 H   0  0  0  0  0  0
   -5.5391   29.0013   54.3588 H   0  0  0  0  0  0
   -7.2400   28.9707   52.5641 H   0  0  0  0  0  0
   -7.9390   24.8458   53.3101 H   0  0  0  0  0  0
   -6.3390   24.8650   55.1092 H   0  0  0  0  0  0
   -6.6465   27.9853   50.5300 H   0  0  0  0  0  0
   -6.7357   28.6717   48.1897 H   0  0  0  0  0  0
   -8.7363   28.1834   46.8150 H   0  0  0  0  0  0
  -10.6184   26.3821   50.2094 H   0  0  0  0  0  0
  1  2  1  0  0  0
  1 31  1  0  0  0
  1 32  1  0  0  0
  1 33  1  0  0  0
  2  3  1  0  0  0
  2 34  1  0  0  0
  2 35  1  0  0  0
  3  4  1  0  0  0
  4  5  1  0  0  0
  4 36  1  0  0  0
  4 37  1  0  0  0
  5  6  1  0  0  0
  5 38  1  0  0  0
  5 39  1  0  0  0
  6 13  1  0  0  0
  6  7  1  0  0  0
  6 16  1  0  0  0
  7  8  2  0  0  0
  7  9  1  0  0  0
  9 10  1  0  0  0
  9 15  1  0  0  0
  9 40  1  0  0  0
 10 11  2  0  0  0
 10 12  1  0  0  0
 12 13  1  0  0  0
 12 41  1  0  0  0
 13 14  2  0  0  0
 15 42  1  0  0  0
 15 43  1  0  0  0
 16 17  1  0  0  0
 17 22  1  0  0  0
 17 18  2  0  0  0
 18 19  1  0  0  0
 18 44  1  0  0  0
 19 20  2  0  0  0
 19 45  1  0  0  0
 20 21  1  0  0  0
 20 23  1  0  0  0
 21 22  2  0  0  0
 21 46  1  0  0  0
 22 47  1  0  0  0
 23 24  1  0  0  0
 24 29  1  0  0  0
 24 25  2  0  0  0
 25 26  1  0  0  0
 25 48  1  0  0  0
 26 27  2  0  0  0
 26 49  1  0  0  0
 27 28  1  0  0  0
 27 50  1  0  0  0
 28 29  2  0  0  0
 28 30  1  0  0  0
 29 51  1  0  0  0
M  END
> <s_m_entry_id>
65421

> <s_m_entry_name>
ligand_docking-pose.171

> <s_m_Source_Path>
/home/csk/Desktop/cluster/DUD-E-result/mmp13

> <s_m_Source_File>
ligand_docking-pose.sdf

> <i_m_Source_File_Index>
171

> <i_lp_mmshare_version>
53161

> <r_lp_tautomer_probability>
1

> <s_lp_Force_Field>
OPLS_2005

> <r_lp_Energy>
31.441765

> <b_lp_Chiralities_Consistent>
1

> <s_lp_Variant>
304045-1

> <s_i_glide_gridfile>
glide-grid_830c

> <i_i_glide_lignum>
1738

> <i_i_glide_rotatable_bonds>
8

> <r_i_docking_score>
-6.81894173660409

> <r_i_glide_ligand_efficiency>
-0.227298057886803

> <r_i_glide_ligand_efficiency_sa>
-0.706267913205337

> <r_i_glide_ligand_efficiency_ln>
-1.5493378608775

> <r_i_glide_gscore>
-6.81894173660409

> <r_i_glide_lipo>
-2.96512581732631

> <r_i_glide_hbond>
-0.125757491850754

> <r_i_glide_metal>
0

> <r_i_glide_rewards>
-0.78754970159118

> <r_i_glide_evdw>
-47.1545333862305

> <r_i_glide_ecoul>
-8.73592376708984

> <r_i_glide_erotb>
0.797568223358255

> <r_i_glide_esite>
-0.069961714819099

> <r_i_glide_emodel>
-71.7370668820434

> <r_i_glide_energy>
-55.8904571533203

> <r_i_glide_einternal>
5.80702972412109

> <i_i_glide_confnum>
20

> <i_i_glide_posenum>
74

> <r_i_glide_eff_state_penalty>
0

> <i_f3d_flags>
0

> <s_user_duplicate_titles>
304045

> <s_m_subgroup_title>
dock_pv

> <s_m_subgroupid>
dock_pv1

> <b_m_subgroup_collapsed>
0

$$$$
