CHEMBL1910_lig31
                    3D
 Schrodinger Suite 2021-1.
 63 66  0  0  1  0            999 V2000
   51.2373   53.4113   21.4329 C   0  0  0  0  0  0
   51.6077   53.5346   22.6931 N   0  0  0  0  0  0
   51.4642   55.5987   21.8372 N   0  0  0  0  0  0
   51.2044   54.6793   20.8457 C   0  0  0  0  0  0
   48.4672   57.7152   19.5279 N   0  0  0  0  0  0
   51.6970   54.8178   22.9357 C   0  0  0  0  0  0
   48.3483   56.8166   18.4798 C   0  0  0  0  0  0
   50.9015   52.1653   20.7821 C   0  0  0  0  0  0
   48.0696   58.9618   19.0970 C   0  0  0  0  0  0
   47.7125   58.9080   17.7655 C   0  0  0  0  0  0
   47.9499   57.5644   17.3308 C   0  0  0  0  0  0
   48.5676   55.4335   18.4276 C   0  0  0  0  0  0
   49.1068   57.4315   20.8062 C   0  0  0  0  0  0
   50.6326   57.6198   20.6310 C   0  0  0  0  0  0
   51.5171   57.0671   21.7708 C   0  0  2  0  0  0
   50.4970   52.1459   19.6244 O   0  0  0  0  0  0
   47.8675   56.9082   16.0961 C   0  0  0  0  0  0
   51.0877   51.0450   21.4930 N   0  0  0  0  0  0
   48.3875   54.7892   17.2062 C   0  0  0  0  0  0
   48.0970   55.5331   16.0493 C   0  0  0  0  0  0
   48.4783   53.4122   17.2386 O   0  0  0  0  0  0
   47.4653   48.3000   17.4175 C   0  0  0  0  0  0
   53.8207   57.1665   22.6930 O   0  0  0  0  0  0
   52.9732   57.5823   21.6399 C   0  0  0  0  0  0
   48.8057   48.9457   17.0762 C   0  0  0  0  0  0
   47.8990   52.6694   16.1699 C   0  0  0  0  0  0
   46.9137   48.4500   18.6930 C   0  0  0  0  0  0
   46.7865   47.5567   16.4477 C   0  0  0  0  0  0
   48.8335   50.4831   17.2130 C   0  0  0  0  0  0
   47.6424   51.2035   16.5485 C   0  0  0  0  0  0
   45.5696   46.9542   16.7551 C   0  0  0  0  0  0
   45.6974   47.8448   19.0008 C   0  0  0  0  0  0
   45.0324   47.0984   18.0319 C   0  0  0  0  0  0
   50.9766   54.9947   19.8399 H   0  0  0  0  0  0
   51.9517   55.2719   23.8825 H   0  0  0  0  0  0
   48.0954   59.7987   19.7803 H   0  0  0  0  0  0
   47.3709   59.7425   17.1712 H   0  0  0  0  0  0
   48.8050   54.8550   19.3075 H   0  0  0  0  0  0
   48.8494   56.4147   21.1084 H   0  0  0  0  0  0
   48.7047   58.0898   21.5790 H   0  0  0  0  0  0
   50.8243   58.6822   20.5205 H   0  0  0  0  0  0
   50.9701   57.1888   19.6870 H   0  0  0  0  0  0
   51.1038   57.4444   22.7055 H   0  0  0  0  0  0
   47.5965   57.4505   15.2019 H   0  0  0  0  0  0
   50.8965   50.1372   21.0826 H   0  0  0  0  0  0
   51.2971   51.0828   22.4881 H   0  0  0  0  0  0
   47.9930   55.0449   15.0932 H   0  0  0  0  0  0
   53.4414   57.4455   23.5540 H   0  0  0  0  0  0
   53.4113   57.2628   20.6929 H   0  0  0  0  0  0
   52.9777   58.6733   21.6366 H   0  0  0  0  0  0
   49.0927   48.6785   16.0582 H   0  0  0  0  0  0
   49.5763   48.5083   17.7143 H   0  0  0  0  0  0
   46.9380   53.1058   15.8929 H   0  0  0  0  0  0
   48.5520   52.7122   15.3015 H   0  0  0  0  0  0
   47.4303   49.0272   19.4477 H   0  0  0  0  0  0
   47.2018   47.4441   15.4571 H   0  0  0  0  0  0
   49.7756   50.8501   16.7998 H   0  0  0  0  0  0
   48.8516   50.7488   18.2697 H   0  0  0  0  0  0
   46.7813   51.1504   17.2161 H   0  0  0  0  0  0
   47.3472   50.6703   15.6436 H   0  0  0  0  0  0
   45.0475   46.3703   16.0122 H   0  0  0  0  0  0
   45.2744   47.9488   19.9879 H   0  0  0  0  0  0
   44.0967   46.6170   18.2742 H   0  0  0  0  0  0
  1  2  1  0  0  0
  1  4  2  0  0  0
  1  8  1  0  0  0
  2  6  2  0  0  0
  3  4  1  0  0  0
  3 15  1  0  0  0
  3  6  1  0  0  0
  4 34  1  0  0  0
  5 13  1  0  0  0
  5  7  1  0  0  0
  5  9  1  0  0  0
  6 35  1  0  0  0
  7 11  1  0  0  0
  7 12  2  0  0  0
  8 16  2  0  0  0
  8 18  1  0  0  0
  9 10  2  0  0  0
  9 36  1  0  0  0
 10 11  1  0  0  0
 10 37  1  0  0  0
 11 17  2  0  0  0
 12 19  1  0  0  0
 12 38  1  0  0  0
 13 14  1  0  0  0
 13 39  1  0  0  0
 13 40  1  0  0  0
 14 15  1  0  0  0
 14 41  1  0  0  0
 14 42  1  0  0  0
 15 24  1  0  0  0
 15 43  1  0  0  0
 17 20  1  0  0  0
 17 44  1  0  0  0
 18 45  1  0  0  0
 18 46  1  0  0  0
 19 20  2  0  0  0
 19 21  1  0  0  0
 20 47  1  0  0  0
 21 26  1  0  0  0
 22 25  1  0  0  0
 22 27  2  0  0  0
 22 28  1  0  0  0
 23 24  1  0  0  0
 23 48  1  0  0  0
 24 49  1  0  0  0
 24 50  1  0  0  0
 25 29  1  0  0  0
 25 51  1  0  0  0
 25 52  1  0  0  0
 26 30  1  0  0  0
 26 53  1  0  0  0
 26 54  1  0  0  0
 27 32  1  0  0  0
 27 55  1  0  0  0
 28 31  2  0  0  0
 28 56  1  0  0  0
 29 30  1  0  0  0
 29 57  1  0  0  0
 29 58  1  0  0  0
 30 59  1  0  0  0
 30 60  1  0  0  0
 31 33  1  0  0  0
 31 61  1  0  0  0
 32 33  2  0  0  0
 32 62  1  0  0  0
 33 63  1  0  0  0
M  END
> <s_m_entry_id>
10565

> <s_m_entry_name>
dock_pv.2

> <s_m_Source_Path>
/home/csk/Desktop/cluster/DUD-E-result/ada

> <s_m_Source_File>
dock_pv.maegz

> <i_m_Source_File_Index>
2

> <chembl_id>
CHEMBL123620

> <chembl_pref_name>
None

> <i_lp_mmshare_version>
53161

> <i_f3d_flags>
0

> <r_lp_tautomer_probability>
1

> <s_lp_Force_Field>
OPLS_2005

> <r_lp_Energy>
22.995453

> <b_lp_Chiralities_Consistent>
1

> <s_lp_Variant>
CHEMBL1910_lig31-1

> <s_i_glide_gridfile>
glide-grid_2e1w

> <i_i_glide_lignum>
41

> <i_i_glide_rotatable_bonds>
13

> <r_i_docking_score>
-8.90039724943023

> <r_i_glide_ligand_efficiency>
-0.269709007558492

> <r_i_glide_ligand_efficiency_sa>
-0.865100899844689

> <r_i_glide_ligand_efficiency_ln>
-1.97940226448268

> <r_i_glide_gscore>
-8.90039724943023

> <r_i_glide_lipo>
-3.40378641748148

> <r_i_glide_hbond>
-0.989554627187117

> <r_i_glide_metal>
0

> <r_i_glide_rewards>
-0.524173820311147

> <r_i_glide_evdw>
-51.2436218261719

> <r_i_glide_ecoul>
-15.0318269729614

> <r_i_glide_erotb>
1.00387881600407

> <r_i_glide_esite>
-0.169806063201755

> <r_i_glide_emodel>
-101.447592757649

> <r_i_glide_energy>
-66.2754487991333

> <r_i_glide_einternal>
8.35487651824951

> <i_i_glide_confnum>
89

> <i_i_glide_posenum>
371

> <r_i_glide_eff_state_penalty>
0

> <s_user_duplicate_titles>
CHEMBL1910_lig31,203939

> <s_m_subgroup_title>
dock_pv

> <s_m_subgroupid>
dock_pv

> <b_m_subgroup_collapsed>
0

$$$$
CHEMBL1910_lig36
                    3D
 Schrodinger Suite 2021-1.
 63 66  0  0  1  0            999 V2000
   51.2905   53.4140   21.4261 C   0  0  0  0  0  0
   47.8450   57.9452   17.1632 N   0  0  0  0  0  0
   51.6288   53.5477   22.6930 N   0  0  0  0  0  0
   51.4838   55.6069   21.8240 N   0  0  0  0  0  0
   48.5702   57.3000   19.2157 C   0  0  0  0  0  0
   48.4624   56.1443   18.3728 C   0  0  0  0  0  0
   51.2753   54.6783   20.8292 C   0  0  0  0  0  0
   48.0970   56.5894   17.0664 C   0  0  0  0  0  0
   48.0970   58.3525   18.4539 C   0  0  0  0  0  0
   51.6970   54.8333   22.9321 C   0  0  0  0  0  0
   50.9609   52.1636   20.7808 C   0  0  0  0  0  0
   47.9802   55.7007   15.9882 C   0  0  0  0  0  0
   48.6319   54.7699   18.5920 C   0  0  0  0  0  0
   49.1324   57.3218   20.6214 C   0  0  0  0  0  0
   51.5017   57.0774   21.7517 C   0  0  2  0  0  0
   50.5690   52.1324   19.6236 O   0  0  0  0  0  0
   50.6521   57.5995   20.5654 C   0  0  0  0  0  0
   51.1220   51.0450   21.4930 N   0  0  0  0  0  0
   48.4123   53.8670   17.5580 C   0  0  0  0  0  0
   48.0970   54.3407   16.2847 C   0  0  0  0  0  0
   47.2957   58.7765   16.1067 C   0  0  0  0  0  0
   48.4998   52.5354   17.8924 O   0  0  0  0  0  0
   47.1472   48.5321   17.0094 C   0  0  0  0  0  0
   53.8030   57.1889   22.6930 O   0  0  0  0  0  0
   52.9492   57.6250   21.6542 C   0  0  0  0  0  0
   48.6064   48.9279   16.8078 C   0  0  0  0  0  0
   48.3797   51.5123   16.9101 C   0  0  0  0  0  0
   46.6813   48.2273   18.2921 C   0  0  0  0  0  0
   46.2793   48.4592   15.9165 C   0  0  0  0  0  0
   48.9946   50.2396   17.5183 C   0  0  0  0  0  0
   44.9526   48.0794   16.1069 C   0  0  0  0  0  0
   45.3558   47.8457   18.4823 C   0  0  0  0  0  0
   44.4974   47.7737   17.3880 C   0  0  0  0  0  0
   51.0678   54.9904   19.8179 H   0  0  0  0  0  0
   47.9668   59.3915   18.7210 H   0  0  0  0  0  0
   51.9140   55.2947   23.8848 H   0  0  0  0  0  0
   47.6997   56.0306   14.9983 H   0  0  0  0  0  0
   48.8655   54.3936   19.5757 H   0  0  0  0  0  0
   48.9247   56.3750   21.1226 H   0  0  0  0  0  0
   48.6430   58.0785   21.2365 H   0  0  0  0  0  0
   51.0526   57.4454   22.6773 H   0  0  0  0  0  0
   50.7895   58.6719   20.4666 H   0  0  0  0  0  0
   51.0772   57.1953   19.6453 H   0  0  0  0  0  0
   50.8971   50.1428   21.0863 H   0  0  0  0  0  0
   51.3133   51.0816   22.4918 H   0  0  0  0  0  0
   47.9174   53.6350   15.4930 H   0  0  0  0  0  0
   47.8874   58.6450   15.2009 H   0  0  0  0  0  0
   46.2699   58.4648   15.9067 H   0  0  0  0  0  0
   47.2970   59.8265   16.4006 H   0  0  0  0  0  0
   53.4233   57.4450   23.5613 H   0  0  0  0  0  0
   53.4005   57.3437   20.7013 H   0  0  0  0  0  0
   52.9315   58.7155   21.6834 H   0  0  0  0  0  0
   48.8471   48.9918   15.7452 H   0  0  0  0  0  0
   49.2257   48.1159   17.1939 H   0  0  0  0  0  0
   47.3247   51.3736   16.6689 H   0  0  0  0  0  0
   48.9145   51.7542   15.9899 H   0  0  0  0  0  0
   47.3486   48.2817   19.1397 H   0  0  0  0  0  0
   46.6311   48.6909   14.9216 H   0  0  0  0  0  0
   50.0810   50.3441   17.5040 H   0  0  0  0  0  0
   48.7288   50.1720   18.5745 H   0  0  0  0  0  0
   44.2801   48.0183   15.2644 H   0  0  0  0  0  0
   44.9963   47.6076   19.4724 H   0  0  0  0  0  0
   43.4702   47.4725   17.5344 H   0  0  0  0  0  0
  1  3  1  0  0  0
  1  7  2  0  0  0
  1 11  1  0  0  0
  2  9  1  0  0  0
  2 21  1  0  0  0
  2  8  1  0  0  0
  3 10  2  0  0  0
  4  7  1  0  0  0
  4 15  1  0  0  0
  4 10  1  0  0  0
  5 14  1  0  0  0
  5  6  1  0  0  0
  5  9  2  0  0  0
  6  8  2  0  0  0
  6 13  1  0  0  0
  7 34  1  0  0  0
  8 12  1  0  0  0
  9 35  1  0  0  0
 10 36  1  0  0  0
 11 16  2  0  0  0
 11 18  1  0  0  0
 12 20  2  0  0  0
 12 37  1  0  0  0
 13 19  2  0  0  0
 13 38  1  0  0  0
 14 17  1  0  0  0
 14 39  1  0  0  0
 14 40  1  0  0  0
 15 17  1  0  0  0
 15 25  1  0  0  0
 15 41  1  0  0  0
 17 42  1  0  0  0
 17 43  1  0  0  0
 18 44  1  0  0  0
 18 45  1  0  0  0
 19 20  1  0  0  0
 19 22  1  0  0  0
 20 46  1  0  0  0
 21 47  1  0  0  0
 21 48  1  0  0  0
 21 49  1  0  0  0
 22 27  1  0  0  0
 23 26  1  0  0  0
 23 28  2  0  0  0
 23 29  1  0  0  0
 24 25  1  0  0  0
 24 50  1  0  0  0
 25 51  1  0  0  0
 25 52  1  0  0  0
 26 30  1  0  0  0
 26 53  1  0  0  0
 26 54  1  0  0  0
 27 30  1  0  0  0
 27 55  1  0  0  0
 27 56  1  0  0  0
 28 32  1  0  0  0
 28 57  1  0  0  0
 29 31  2  0  0  0
 29 58  1  0  0  0
 30 59  1  0  0  0
 30 60  1  0  0  0
 31 33  1  0  0  0
 31 61  1  0  0  0
 32 33  2  0  0  0
 32 62  1  0  0  0
 33 63  1  0  0  0
M  END
> <s_m_entry_id>
10566

> <s_m_entry_name>
dock_pv.3

> <s_m_Source_Path>
/home/csk/Desktop/cluster/DUD-E-result/ada

> <s_m_Source_File>
dock_pv.maegz

> <i_m_Source_File_Index>
3

> <chembl_id>
CHEMBL334172

> <chembl_pref_name>
None

> <i_lp_mmshare_version>
53161

> <i_f3d_flags>
0

> <r_lp_tautomer_probability>
1

> <s_lp_Force_Field>
OPLS_2005

> <r_lp_Energy>
18.915703

> <b_lp_Chiralities_Consistent>
1

> <s_lp_Variant>
CHEMBL1910_lig36-1

> <s_i_glide_gridfile>
glide-grid_2e1w

> <i_i_glide_lignum>
46

> <i_i_glide_rotatable_bonds>
12

> <r_i_docking_score>
-8.88332693833539

> <r_i_glide_ligand_efficiency>
-0.269191725404103

> <r_i_glide_ligand_efficiency_sa>
-0.863441699578126

> <r_i_glide_ligand_efficiency_ln>
-1.97560591568053

> <r_i_glide_gscore>
-8.88332693833539

> <r_i_glide_lipo>
-3.40292279216398

> <r_i_glide_hbond>
-1.00847569604847

> <r_i_glide_metal>
0

> <r_i_glide_rewards>
-0.581049800281817

> <r_i_glide_evdw>
-50.2444686889648

> <r_i_glide_ecoul>
-14.0682544708252

> <r_i_glide_erotb>
0.903490934403666

> <r_i_glide_esite>
-0.171907979172774

> <r_i_glide_emodel>
-94.3755209753086

> <r_i_glide_energy>
-64.31272315979

> <r_i_glide_einternal>
11.6109476089478

> <i_i_glide_confnum>
54

> <i_i_glide_posenum>
159

> <r_i_glide_eff_state_penalty>
0

> <s_user_duplicate_titles>
CHEMBL1910_lig36,203652

> <s_m_subgroup_title>
dock_pv

> <s_m_subgroupid>
dock_pv

> <b_m_subgroup_collapsed>
0

$$$$
CHEMBL1910_lig30
                    3D
 Schrodinger Suite 2021-1.
 60 63  0  0  1  0            999 V2000
   51.3695   53.6376   21.7001 C   0  0  0  0  0  0
   51.6384   53.8521   22.9798 N   0  0  0  0  0  0
   51.5395   55.8426   21.9650 N   0  0  0  0  0  0
   51.3754   54.8558   21.0227 C   0  0  0  0  0  0
   48.5411   57.7090   19.4453 N   0  0  0  0  0  0
   51.6983   55.1486   23.1324 C   0  0  0  0  0  0
   48.4209   56.7621   18.4365 C   0  0  0  0  0  0
   51.1024   52.3543   21.0932 C   0  0  0  0  0  0
   48.0929   58.9231   18.9728 C   0  0  0  0  0  0
   47.7086   58.8023   17.6531 C   0  0  0  0  0  0
   47.9532   57.4442   17.2722 C   0  0  0  0  0  0
   48.6896   55.3875   18.4286 C   0  0  0  0  0  0
   49.1898   57.5016   20.7369 C   0  0  0  0  0  0
   50.7132   57.7498   20.5917 C   0  0  0  0  0  0
   51.5829   57.2980   21.7950 C   0  0  2  0  0  0
   50.8599   52.2447   19.8942 O   0  0  0  0  0  0
   47.8254   56.7267   16.0742 C   0  0  0  0  0  0
   51.1165   51.2890   21.8927 N   0  0  0  0  0  0
   48.4967   54.6823   17.2405 C   0  0  0  0  0  0
   48.0970   55.3576   16.0693 C   0  0  0  0  0  0
   48.7418   53.3255   17.3426 O   0  0  0  0  0  0
   47.6637   49.4752   16.9894 C   0  0  0  0  0  0
   53.9203   57.3172   22.6932 O   0  0  0  0  0  0
   53.0445   57.8104   21.6890 C   0  0  0  0  0  0
   48.9605   50.1737   17.3955 C   0  0  0  0  0  0
   48.5767   52.4682   16.2189 C   0  0  0  0  0  0
   46.6007   49.4102   17.8935 C   0  0  0  0  0  0
   47.5402   48.8743   15.7316 C   0  0  0  0  0  0
   49.4676   51.2228   16.3828 C   0  0  0  0  0  0
   46.3542   48.2362   15.3756 C   0  0  0  0  0  0
   45.4161   48.7683   17.5413 C   0  0  0  0  0  0
   45.2960   48.1881   16.2810 C   0  0  0  0  0  0
   51.2260   55.0923   19.9814 H   0  0  0  0  0  0
   51.8685   55.6766   24.0591 H   0  0  0  0  0  0
   48.1094   59.7898   19.6194 H   0  0  0  0  0  0
   47.3280   59.6004   17.0331 H   0  0  0  0  0  0
   49.0113   54.8621   19.3150 H   0  0  0  0  0  0
   48.9709   56.4865   21.0721 H   0  0  0  0  0  0
   48.7464   58.1647   21.4816 H   0  0  0  0  0  0
   50.8680   58.8099   20.4136 H   0  0  0  0  0  0
   51.0913   57.2721   19.6863 H   0  0  0  0  0  0
   51.1404   57.7274   22.6933 H   0  0  0  0  0  0
   47.4931   57.2196   15.1723 H   0  0  0  0  0  0
   50.8975   50.3820   21.5060 H   0  0  0  0  0  0
   51.2994   51.3383   22.8955 H   0  0  0  0  0  0
   47.9667   54.8523   15.1193 H   0  0  0  0  0  0
   53.5296   57.4515   23.5851 H   0  0  0  0  0  0
   53.4683   57.5479   20.7182 H   0  0  0  0  0  0
   53.0506   58.8996   21.7476 H   0  0  0  0  0  0
   49.7243   49.4043   17.5257 H   0  0  0  0  0  0
   48.8497   50.6470   18.3732 H   0  0  0  0  0  0
   47.5262   52.2041   16.0904 H   0  0  0  0  0  0
   48.8967   52.9635   15.3121 H   0  0  0  0  0  0
   46.6980   49.8479   18.8757 H   0  0  0  0  0  0
   48.3608   48.8933   15.0296 H   0  0  0  0  0  0
   49.6114   50.7521   15.4108 H   0  0  0  0  0  0
   50.4659   51.5460   16.6819 H   0  0  0  0  0  0
   46.2593   47.7754   14.4032 H   0  0  0  0  0  0
   44.5954   48.7179   18.2425 H   0  0  0  0  0  0
   44.3771   47.6886   16.0099 H   0  0  0  0  0  0
  1  2  1  0  0  0
  1  4  2  0  0  0
  1  8  1  0  0  0
  2  6  2  0  0  0
  3  4  1  0  0  0
  3 15  1  0  0  0
  3  6  1  0  0  0
  4 33  1  0  0  0
  5 13  1  0  0  0
  5  7  1  0  0  0
  5  9  1  0  0  0
  6 34  1  0  0  0
  7 11  1  0  0  0
  7 12  2  0  0  0
  8 16  2  0  0  0
  8 18  1  0  0  0
  9 10  2  0  0  0
  9 35  1  0  0  0
 10 11  1  0  0  0
 10 36  1  0  0  0
 11 17  2  0  0  0
 12 19  1  0  0  0
 12 37  1  0  0  0
 13 14  1  0  0  0
 13 38  1  0  0  0
 13 39  1  0  0  0
 14 15  1  0  0  0
 14 40  1  0  0  0
 14 41  1  0  0  0
 15 24  1  0  0  0
 15 42  1  0  0  0
 17 20  1  0  0  0
 17 43  1  0  0  0
 18 44  1  0  0  0
 18 45  1  0  0  0
 19 20  2  0  0  0
 19 21  1  0  0  0
 20 46  1  0  0  0
 21 26  1  0  0  0
 22 25  1  0  0  0
 22 27  2  0  0  0
 22 28  1  0  0  0
 23 24  1  0  0  0
 23 47  1  0  0  0
 24 48  1  0  0  0
 24 49  1  0  0  0
 25 29  1  0  0  0
 25 50  1  0  0  0
 25 51  1  0  0  0
 26 29  1  0  0  0
 26 52  1  0  0  0
 26 53  1  0  0  0
 27 31  1  0  0  0
 27 54  1  0  0  0
 28 30  2  0  0  0
 28 55  1  0  0  0
 29 56  1  0  0  0
 29 57  1  0  0  0
 30 32  1  0  0  0
 30 58  1  0  0  0
 31 32  2  0  0  0
 31 59  1  0  0  0
 32 60  1  0  0  0
M  END
> <s_m_entry_id>
10567

> <s_m_entry_name>
dock_pv.4

> <s_m_Source_Path>
/home/csk/Desktop/cluster/DUD-E-result/ada

> <s_m_Source_File>
dock_pv.maegz

> <i_m_Source_File_Index>
4

> <chembl_id>
CHEMBL332298

> <chembl_pref_name>
None

> <i_lp_mmshare_version>
53161

> <i_f3d_flags>
0

> <r_lp_tautomer_probability>
1

> <s_lp_Force_Field>
OPLS_2005

> <r_lp_Energy>
17.977071

> <b_lp_Chiralities_Consistent>
1

> <s_lp_Variant>
CHEMBL1910_lig30-1

> <s_i_glide_gridfile>
glide-grid_2e1w

> <i_i_glide_lignum>
40

> <i_i_glide_rotatable_bonds>
12

> <r_i_docking_score>
-8.58516426498076

> <r_i_glide_ligand_efficiency>
-0.268286383280649

> <r_i_glide_ligand_efficiency_sa>
-0.851756173112904

> <r_i_glide_ligand_efficiency_ln>
-1.92245230166845

> <r_i_glide_gscore>
-8.58516426498076

> <r_i_glide_lipo>
-3.27650770789293

> <r_i_glide_hbond>
-0.859495291627547

> <r_i_glide_metal>
0

> <r_i_glide_rewards>
-0.626792715299009

> <r_i_glide_evdw>
-44.4501113891602

> <r_i_glide_ecoul>
-15.8915014266968

> <r_i_glide_erotb>
0.957361375461992

> <r_i_glide_esite>
-0.173499142160748

> <r_i_glide_emodel>
-93.354629789635

> <r_i_glide_energy>
-60.3416128158569

> <r_i_glide_einternal>
6.71550798416138

> <i_i_glide_confnum>
60

> <i_i_glide_posenum>
41

> <r_i_glide_eff_state_penalty>
0

> <s_user_duplicate_titles>
CHEMBL1910_lig30,204061

> <s_m_subgroup_title>
dock_pv

> <s_m_subgroupid>
dock_pv

> <b_m_subgroup_collapsed>
0

$$$$
CHEMBL1910_lig44
                    3D
 Schrodinger Suite 2021-1.
 64 67  0  0  1  0            999 V2000
   51.1942   53.4156   21.4472 C   0  0  0  0  0  0
   51.6195   53.5589   22.6930 N   0  0  0  0  0  0
   51.3718   55.6137   21.8171 N   0  0  0  0  0  0
   51.0691   54.6753   20.8582 C   0  0  0  0  0  0
   48.4053   57.9843   19.4089 N   0  0  0  0  0  0
   51.6970   54.8491   22.9081 C   0  0  0  0  0  0
   48.2269   57.2699   18.2335 C   0  0  0  0  0  0
   50.8971   52.1631   20.7893 C   0  0  0  0  0  0
   48.0090   59.2851   19.1922 C   0  0  0  0  0  0
   47.5704   59.4430   17.8942 C   0  0  0  0  0  0
   48.4858   55.9296   17.9380 C   0  0  0  0  0  0
   47.7060   58.1711   17.2533 C   0  0  0  0  0  0
   48.2912   53.0516   17.0803 C   0  0  0  0  0  0
   48.3808   54.1388   16.2930 N   0  0  0  0  0  0
   49.0358   57.4842   20.6323 C   0  0  0  0  0  0
   50.5718   57.6175   20.5192 C   0  0  0  0  0  0
   48.1572   55.4755   16.6523 C   0  0  0  0  0  0
   51.4011   57.0840   21.7210 C   0  0  2  0  0  0
   50.4970   52.1358   19.6298 O   0  0  0  0  0  0
   47.6969   53.0449   18.1542 O   0  0  0  0  0  0
   47.4600   57.6964   15.9551 C   0  0  0  0  0  0
   51.0993   51.0450   21.4930 N   0  0  0  0  0  0
   49.0376   51.8122   16.5667 C   0  0  0  0  0  0
   47.6970   56.3516   15.6683 C   0  0  0  0  0  0
   47.6731   49.6470   16.8504 C   0  0  0  0  0  0
   45.6345   47.9671   15.9496 C   0  0  0  0  0  0
   48.8253   50.4983   17.3576 C   0  0  0  0  0  0
   46.5679   49.4001   17.6654 C   0  0  0  0  0  0
   47.7498   49.0726   15.5808 C   0  0  0  0  0  0
   46.7272   48.2449   15.1333 C   0  0  0  0  0  0
   45.5514   48.5599   17.2200 C   0  0  0  0  0  0
   44.6992   47.0980   15.4293 O   0  0  0  0  0  0
   53.6976   57.1791   22.6930 O   0  0  0  0  0  0
   52.8574   57.6158   21.6420 C   0  0  0  0  0  0
   43.6968   46.5869   16.2930 C   0  0  0  0  0  0
   50.7658   54.9646   19.8649 H   0  0  0  0  0  0
   51.9968   55.3206   23.8329 H   0  0  0  0  0  0
   48.0846   60.0056   19.9929 H   0  0  0  0  0  0
   47.2046   60.3630   17.4628 H   0  0  0  0  0  0
   48.8742   55.2570   18.6868 H   0  0  0  0  0  0
   48.6584   53.9811   15.3363 H   0  0  0  0  0  0
   48.6540   58.0436   21.4883 H   0  0  0  0  0  0
   48.7285   56.4494   20.7920 H   0  0  0  0  0  0
   50.9247   57.1483   19.5999 H   0  0  0  0  0  0
   50.8014   58.6711   20.3842 H   0  0  0  0  0  0
   50.9516   57.4649   22.6409 H   0  0  0  0  0  0
   47.0851   58.3599   15.1896 H   0  0  0  0  0  0
   50.8976   50.1384   21.0839 H   0  0  0  0  0  0
   51.2973   51.0815   22.4906 H   0  0  0  0  0  0
   50.0971   52.0580   16.6382 H   0  0  0  0  0  0
   48.8325   51.6692   15.5053 H   0  0  0  0  0  0
   47.4881   55.9841   14.6733 H   0  0  0  0  0  0
   48.7119   50.6831   18.4273 H   0  0  0  0  0  0
   49.7275   49.8881   17.2815 H   0  0  0  0  0  0
   46.5057   49.8409   18.6503 H   0  0  0  0  0  0
   48.6068   49.2524   14.9480 H   0  0  0  0  0  0
   46.7895   47.7934   14.1558 H   0  0  0  0  0  0
   44.7155   48.3738   17.8762 H   0  0  0  0  0  0
   53.3165   57.4450   23.5596 H   0  0  0  0  0  0
   53.3168   57.3262   20.6954 H   0  0  0  0  0  0
   52.8518   58.7064   21.6664 H   0  0  0  0  0  0
   43.0776   45.8739   15.7494 H   0  0  0  0  0  0
   43.0444   47.3827   16.6525 H   0  0  0  0  0  0
   44.1285   46.0628   17.1473 H   0  0  0  0  0  0
  1  2  1  0  0  0
  1  4  2  0  0  0
  1  8  1  0  0  0
  2  6  2  0  0  0
  3  4  1  0  0  0
  3 18  1  0  0  0
  3  6  1  0  0  0
  4 36  1  0  0  0
  5 15  1  0  0  0
  5  7  1  0  0  0
  5  9  1  0  0  0
  6 37  1  0  0  0
  7 11  2  0  0  0
  7 12  1  0  0  0
  8 19  2  0  0  0
  8 22  1  0  0  0
  9 10  2  0  0  0
  9 38  1  0  0  0
 10 12  1  0  0  0
 10 39  1  0  0  0
 11 17  1  0  0  0
 11 40  1  0  0  0
 12 21  2  0  0  0
 13 14  1  0  0  0
 13 20  2  0  0  0
 13 23  1  0  0  0
 14 17  1  0  0  0
 14 41  1  0  0  0
 15 16  1  0  0  0
 15 42  1  0  0  0
 15 43  1  0  0  0
 16 18  1  0  0  0
 16 44  1  0  0  0
 16 45  1  0  0  0
 17 24  2  0  0  0
 18 34  1  0  0  0
 18 46  1  0  0  0
 21 24  1  0  0  0
 21 47  1  0  0  0
 22 48  1  0  0  0
 22 49  1  0  0  0
 23 27  1  0  0  0
 23 50  1  0  0  0
 23 51  1  0  0  0
 24 52  1  0  0  0
 25 27  1  0  0  0
 25 28  2  0  0  0
 25 29  1  0  0  0
 26 30  1  0  0  0
 26 32  1  0  0  0
 26 31  2  0  0  0
 27 53  1  0  0  0
 27 54  1  0  0  0
 28 31  1  0  0  0
 28 55  1  0  0  0
 29 30  2  0  0  0
 29 56  1  0  0  0
 30 57  1  0  0  0
 31 58  1  0  0  0
 32 35  1  0  0  0
 33 34  1  0  0  0
 33 59  1  0  0  0
 34 60  1  0  0  0
 34 61  1  0  0  0
 35 62  1  0  0  0
 35 63  1  0  0  0
 35 64  1  0  0  0
M  END
> <s_m_entry_id>
10568

> <s_m_entry_name>
dock_pv.5

> <s_m_Source_Path>
/home/csk/Desktop/cluster/DUD-E-result/ada

> <s_m_Source_File>
dock_pv.maegz

> <i_m_Source_File_Index>
5

> <chembl_id>
CHEMBL125208

> <chembl_pref_name>
None

> <i_lp_mmshare_version>
53161

> <i_f3d_flags>
0

> <r_lp_tautomer_probability>
1

> <s_lp_Force_Field>
OPLS_2005

> <r_lp_Energy>
27.220465

> <b_lp_Chiralities_Consistent>
1

> <s_lp_Variant>
CHEMBL1910_lig44-1

> <s_i_glide_gridfile>
glide-grid_2e1w

> <i_i_glide_lignum>
53

> <i_i_glide_rotatable_bonds>
13

> <r_i_docking_score>
-8.50759990461642

> <r_i_glide_ligand_efficiency>
-0.243074282989041

> <r_i_glide_ligand_efficiency_sa>
-0.795112097016398

> <r_i_glide_ligand_efficiency_ln>
-1.86760699507005

> <r_i_glide_gscore>
-8.50759990461642

> <r_i_glide_lipo>
-3.11457981947681

> <r_i_glide_hbond>
-0.954525754393815

> <r_i_glide_metal>
0

> <r_i_glide_rewards>
-0.23416013006672

> <r_i_glide_evdw>
-50.762149810791

> <r_i_glide_ecoul>
-15.9450778961182

> <r_i_glide_erotb>
0.895167388749884

> <r_i_glide_esite>
-0.169632414471685

> <r_i_glide_emodel>
-97.9473360997871

> <r_i_glide_energy>
-66.7072277069092

> <r_i_glide_einternal>
10.3680686950684

> <i_i_glide_confnum>
116

> <i_i_glide_posenum>
300

> <r_i_glide_eff_state_penalty>
0

> <s_user_duplicate_titles>
CHEMBL1910_lig44,203968

> <s_m_subgroup_title>
dock_pv

> <s_m_subgroupid>
dock_pv

> <b_m_subgroup_collapsed>
0

$$$$
CHEMBL1910_lig43
                    3D
 Schrodinger Suite 2021-1.
 66 69  0  0  1  0            999 V2000
   51.4277   55.0732   20.9934 C   0  0  0  0  0  0
   51.6258   56.0442   21.9451 N   0  0  0  0  0  0
   51.6970   55.3349   23.1131 C   0  0  0  0  0  0
   51.5335   54.0465   22.9554 N   0  0  0  0  0  0
   51.3008   53.8569   21.6648 C   0  0  0  0  0  0
   50.9207   52.6077   21.0472 C   0  0  0  0  0  0
   50.4970   52.5690   19.8930 O   0  0  0  0  0  0
   51.0941   51.5013   21.7745 N   0  0  0  0  0  0
   51.7671   57.4957   21.7822 C   0  0  1  0  0  0
   53.2575   57.9109   21.6595 C   0  0  0  0  0  0
   54.0969   57.4067   22.6930 O   0  0  0  0  0  0
   50.8806   58.0255   20.6185 C   0  0  0  0  0  0
   49.3509   58.0096   20.9026 C   0  0  0  0  0  0
   48.6122   58.1718   19.6510 N   0  0  0  0  0  0
   48.0970   59.3515   19.1575 C   0  0  0  0  0  0
   47.6970   59.1791   17.8496 C   0  0  0  0  0  0
   47.9419   57.8099   17.5168 C   0  0  0  0  0  0
   48.4427   57.1814   18.6974 C   0  0  0  0  0  0
   47.7980   57.0450   16.3504 C   0  0  0  0  0  0
   48.0970   55.6831   16.3984 C   0  0  0  0  0  0
   48.4970   55.0663   17.5956 C   0  0  0  0  0  0
   48.7125   55.8104   18.7524 C   0  0  0  0  0  0
   48.8188   53.7015   17.6841 N   0  0  0  0  0  0
   48.2426   52.6973   17.0022 C   0  0  0  0  0  0
   47.2524   52.8485   16.2930 O   0  0  0  0  0  0
   48.8653   51.3054   17.1661 C   0  0  0  0  0  0
   48.6152   50.3906   15.9433 C   0  0  0  0  0  0
   46.6057   47.4721   16.2940 C   0  0  0  0  0  0
   47.3652   47.9474   17.3677 C   0  0  0  0  0  0
   46.7403   48.2450   18.5808 C   0  0  0  0  0  0
   45.3711   48.0433   18.7232 C   0  0  0  0  0  0
   44.6190   47.5825   17.6472 C   0  0  0  0  0  0
   45.2312   47.2958   16.4303 C   0  0  0  0  0  0
   49.2968   49.0119   16.0222 C   0  0  0  0  0  0
   48.8733   48.1383   17.2242 C   0  0  0  0  0  0
   51.3374   55.3239   19.9486 H   0  0  0  0  0  0
   51.8692   55.8450   24.0496 H   0  0  0  0  0  0
   50.8970   50.5959   21.3705 H   0  0  0  0  0  0
   51.2970   51.5429   22.7717 H   0  0  0  0  0  0
   51.3798   57.9422   22.6930 H   0  0  0  0  0  0
   53.6635   57.5898   20.6990 H   0  0  0  0  0  0
   53.3305   58.9993   21.6793 H   0  0  0  0  0  0
   53.6750   57.5251   23.5699 H   0  0  0  0  0  0
   51.1076   57.4563   19.7184 H   0  0  0  0  0  0
   51.1783   59.0371   20.3459 H   0  0  0  0  0  0
   49.0642   58.7894   21.6100 H   0  0  0  0  0  0
   49.0417   57.0651   21.3545 H   0  0  0  0  0  0
   48.0970   60.2412   19.7709 H   0  0  0  0  0  0
   47.2906   59.9487   17.2103 H   0  0  0  0  0  0
   47.4497   57.4976   15.4337 H   0  0  0  0  0  0
   47.9873   55.0990   15.4960 H   0  0  0  0  0  0
   49.0544   55.3399   19.6620 H   0  0  0  0  0  0
   49.4916   53.4368   18.3935 H   0  0  0  0  0  0
   48.4396   50.8598   18.0656 H   0  0  0  0  0  0
   49.9393   51.4066   17.3341 H   0  0  0  0  0  0
   48.9735   50.8911   15.0436 H   0  0  0  0  0  0
   47.5425   50.2504   15.7960 H   0  0  0  0  0  0
   47.0767   47.2502   15.3503 H   0  0  0  0  0  0
   47.3129   48.6196   19.4178 H   0  0  0  0  0  0
   44.8969   48.2450   19.6707 H   0  0  0  0  0  0
   43.5536   47.4450   17.7601 H   0  0  0  0  0  0
   44.6438   46.9331   15.5998 H   0  0  0  0  0  0
   50.3775   49.1539   16.0422 H   0  0  0  0  0  0
   49.0996   48.4691   15.0965 H   0  0  0  0  0  0
   49.2848   48.5674   18.1398 H   0  0  0  0  0  0
   49.3349   47.1533   17.1378 H   0  0  0  0  0  0
  1  2  1  0  0  0
  1  5  2  0  0  0
  1 36  1  0  0  0
  2  3  1  0  0  0
  2  9  1  0  0  0
  3  4  2  0  0  0
  3 37  1  0  0  0
  4  5  1  0  0  0
  5  6  1  0  0  0
  6  7  2  0  0  0
  6  8  1  0  0  0
  8 38  1  0  0  0
  8 39  1  0  0  0
  9 10  1  0  0  0
  9 12  1  0  0  0
  9 40  1  0  0  0
 10 11  1  0  0  0
 10 41  1  0  0  0
 10 42  1  0  0  0
 11 43  1  0  0  0
 12 13  1  0  0  0
 12 44  1  0  0  0
 12 45  1  0  0  0
 13 14  1  0  0  0
 13 46  1  0  0  0
 13 47  1  0  0  0
 14 15  1  0  0  0
 14 18  1  0  0  0
 15 16  2  0  0  0
 15 48  1  0  0  0
 16 17  1  0  0  0
 16 49  1  0  0  0
 17 18  2  0  0  0
 17 19  1  0  0  0
 18 22  1  0  0  0
 19 20  2  0  0  0
 19 50  1  0  0  0
 20 21  1  0  0  0
 20 51  1  0  0  0
 21 22  2  0  0  0
 21 23  1  0  0  0
 22 52  1  0  0  0
 23 24  1  0  0  0
 23 53  1  0  0  0
 24 25  2  0  0  0
 24 26  1  0  0  0
 26 27  1  0  0  0
 26 54  1  0  0  0
 26 55  1  0  0  0
 27 34  1  0  0  0
 27 56  1  0  0  0
 27 57  1  0  0  0
 28 29  2  0  0  0
 28 33  1  0  0  0
 28 58  1  0  0  0
 29 30  1  0  0  0
 29 35  1  0  0  0
 30 31  2  0  0  0
 30 59  1  0  0  0
 31 32  1  0  0  0
 31 60  1  0  0  0
 32 33  2  0  0  0
 32 61  1  0  0  0
 33 62  1  0  0  0
 34 35  1  0  0  0
 34 63  1  0  0  0
 34 64  1  0  0  0
 35 65  1  0  0  0
 35 66  1  0  0  0
M  END
> <s_m_entry_id>
10569

> <s_m_entry_name>
dock_pv.6

> <s_m_Source_Path>
/home/csk/Desktop/cluster/DUD-E-result/ada

> <s_m_Source_File>
dock_pv.maegz

> <i_m_Source_File_Index>
6

> <chembl_id>
CHEMBL121939

> <chembl_pref_name>
None

> <i_lp_mmshare_version>
53161

> <i_f3d_flags>
0

> <r_lp_tautomer_probability>
1

> <s_lp_Force_Field>
OPLS_2005

> <r_lp_Energy>
25.795518

> <b_lp_Chiralities_Consistent>
1

> <s_lp_Variant>
CHEMBL1910_lig43-1

> <s_i_glide_gridfile>
glide-grid_2e1w

> <i_i_glide_lignum>
52

> <i_i_glide_rotatable_bonds>
14

> <r_i_docking_score>
-8.3375715832786

> <r_i_glide_ligand_efficiency>
-0.238216330950817

> <r_i_glide_ligand_efficiency_sa>
-0.779221413786486

> <r_i_glide_ligand_efficiency_ln>
-1.83028200496112

> <r_i_glide_gscore>
-8.3375715832786

> <r_i_glide_lipo>
-3.11967382837293

> <r_i_glide_hbond>
-0.842389432503306

> <r_i_glide_metal>
0

> <r_i_glide_rewards>
-0.309782493087266

> <r_i_glide_evdw>
-55.3116264343262

> <r_i_glide_ecoul>
-14.1598987579346

> <r_i_glide_erotb>
0.99218719319893

> <r_i_glide_esite>
-0.168346887107537

> <r_i_glide_emodel>
-100.522183764821

> <r_i_glide_energy>
-69.4715251922607

> <r_i_glide_einternal>
10.4563865661621

> <i_i_glide_confnum>
78

> <i_i_glide_posenum>
254

> <r_i_glide_eff_state_penalty>
0

> <s_user_duplicate_titles>
CHEMBL1910_lig43,203288

> <s_m_subgroup_title>
dock_pv

> <s_m_subgroupid>
dock_pv

> <b_m_subgroup_collapsed>
0

$$$$
CHEMBL1910_lig9
                    3D
 Schrodinger Suite 2021-1.
 63 66  0  0  1  0            999 V2000
   51.5212   53.8169   21.7745 C   0  0  0  0  0  0
   47.4658   59.4450   17.9801 N   0  0  0  0  0  0
   51.6583   54.0531   23.0699 N   0  0  0  0  0  0
   51.6552   56.0273   22.0062 N   0  0  0  0  0  0
   48.5756   58.2853   19.5949 C   0  0  0  0  0  0
   48.3604   57.4325   18.4627 C   0  0  0  0  0  0
   51.5663   55.0230   21.0758 C   0  0  0  0  0  0
   47.7286   58.1984   17.4369 C   0  0  0  0  0  0
   47.9334   59.4650   19.2736 C   0  0  0  0  0  0
   51.6970   55.3536   23.1982 C   0  0  0  0  0  0
   51.2903   52.5325   21.1649 C   0  0  0  0  0  0
   47.4812   57.6634   16.1654 C   0  0  0  0  0  0
   48.6657   56.0913   18.2169 C   0  0  0  0  0  0
   49.3512   57.9302   20.8529 C   0  0  0  0  0  0
   51.7545   57.4751   21.7981 C   0  0  2  0  0  0
   50.8970   52.4458   20.0116 O   0  0  0  0  0  0
   50.8793   57.9446   20.5985 C   0  0  0  0  0  0
   51.5262   51.4450   21.8930 N   0  0  0  0  0  0
   48.3457   55.5205   16.9776 C   0  0  0  0  0  0
   47.8230   56.3246   15.9618 C   0  0  0  0  0  0
   46.5631   48.2154   17.6505 C   0  0  0  0  0  0
   46.6997   60.5125   17.3571 C   0  0  0  0  0  0
   45.4952   47.0450   18.3317 Cl  0  0  0  0  0  0
   48.2619   50.1403   16.5863 C   0  0  0  0  0  0
   47.9296   47.9541   17.5423 C   0  0  0  0  0  0
   46.0438   49.4316   17.2212 C   0  0  0  0  0  0
   48.7808   48.9145   17.0055 C   0  0  0  0  0  0
   46.8970   50.3931   16.6930 C   0  0  0  0  0  0
   48.4970   54.1795   16.6770 O   0  0  0  0  0  0
   54.0970   57.4358   22.6930 O   0  0  0  0  0  0
   53.2367   57.9217   21.6691 C   0  0  0  0  0  0
   49.1939   51.2393   16.1057 C   0  0  0  0  0  0
   48.6323   53.1986   17.7138 C   0  0  0  0  0  0
   49.6408   52.1214   17.2824 C   0  0  0  0  0  0
   51.5042   55.2395   20.0212 H   0  0  0  0  0  0
   47.7987   60.3581   19.8672 H   0  0  0  0  0  0
   51.7713   55.8891   24.1317 H   0  0  0  0  0  0
   47.0266   58.2449   15.3765 H   0  0  0  0  0  0
   49.1340   55.5350   19.0093 H   0  0  0  0  0  0
   49.0427   56.9496   21.2201 H   0  0  0  0  0  0
   49.1152   58.6243   21.6613 H   0  0  0  0  0  0
   51.3476   57.9389   22.6930 H   0  0  0  0  0  0
   51.1735   58.9488   20.2995 H   0  0  0  0  0  0
   51.1133   57.3471   19.7190 H   0  0  0  0  0  0
   51.2995   50.5358   21.5154 H   0  0  0  0  0  0
   51.6970   51.5008   22.8959 H   0  0  0  0  0  0
   47.6090   55.8719   15.0041 H   0  0  0  0  0  0
   45.6362   60.3082   17.4848 H   0  0  0  0  0  0
   46.9445   61.4698   17.8187 H   0  0  0  0  0  0
   46.9257   60.5645   16.2929 H   0  0  0  0  0  0
   48.3483   47.0275   17.8926 H   0  0  0  0  0  0
   44.9876   49.6333   17.3151 H   0  0  0  0  0  0
   49.8424   48.7171   16.9488 H   0  0  0  0  0  0
   46.5023   51.3482   16.3872 H   0  0  0  0  0  0
   53.6758   57.5398   23.5721 H   0  0  0  0  0  0
   53.6445   57.6080   20.7069 H   0  0  0  0  0  0
   53.2871   59.0113   21.6864 H   0  0  0  0  0  0
   48.7081   51.8337   15.3317 H   0  0  0  0  0  0
   50.0643   50.7851   15.6287 H   0  0  0  0  0  0
   48.9686   53.5783   18.6717 H   0  0  0  0  0  0
   47.6530   52.7641   17.9116 H   0  0  0  0  0  0
   50.5989   52.6009   17.0930 H   0  0  0  0  0  0
   49.8359   51.4525   18.1188 H   0  0  0  0  0  0
  1  3  1  0  0  0
  1  7  2  0  0  0
  1 11  1  0  0  0
  2  9  1  0  0  0
  2 22  1  0  0  0
  2  8  1  0  0  0
  3 10  2  0  0  0
  4  7  1  0  0  0
  4 15  1  0  0  0
  4 10  1  0  0  0
  5 14  1  0  0  0
  5  6  1  0  0  0
  5  9  2  0  0  0
  6  8  2  0  0  0
  6 13  1  0  0  0
  7 35  1  0  0  0
  8 12  1  0  0  0
  9 36  1  0  0  0
 10 37  1  0  0  0
 11 16  2  0  0  0
 11 18  1  0  0  0
 12 20  2  0  0  0
 12 38  1  0  0  0
 13 19  2  0  0  0
 13 39  1  0  0  0
 14 17  1  0  0  0
 14 40  1  0  0  0
 14 41  1  0  0  0
 15 17  1  0  0  0
 15 31  1  0  0  0
 15 42  1  0  0  0
 17 43  1  0  0  0
 17 44  1  0  0  0
 18 45  1  0  0  0
 18 46  1  0  0  0
 19 20  1  0  0  0
 19 29  1  0  0  0
 20 47  1  0  0  0
 21 26  2  0  0  0
 21 23  1  0  0  0
 21 25  1  0  0  0
 22 48  1  0  0  0
 22 49  1  0  0  0
 22 50  1  0  0  0
 24 32  1  0  0  0
 24 27  1  0  0  0
 24 28  2  0  0  0
 25 27  2  0  0  0
 25 51  1  0  0  0
 26 28  1  0  0  0
 26 52  1  0  0  0
 27 53  1  0  0  0
 28 54  1  0  0  0
 29 33  1  0  0  0
 30 31  1  0  0  0
 30 55  1  0  0  0
 31 56  1  0  0  0
 31 57  1  0  0  0
 32 34  1  0  0  0
 32 58  1  0  0  0
 32 59  1  0  0  0
 33 34  1  0  0  0
 33 60  1  0  0  0
 33 61  1  0  0  0
 34 62  1  0  0  0
 34 63  1  0  0  0
M  END
> <s_m_entry_id>
10570

> <s_m_entry_name>
dock_pv.7

> <s_m_Source_Path>
/home/csk/Desktop/cluster/DUD-E-result/ada

> <s_m_Source_File>
dock_pv.maegz

> <i_m_Source_File_Index>
7

> <chembl_id>
CHEMBL340297

> <chembl_pref_name>
None

> <i_lp_mmshare_version>
53161

> <i_f3d_flags>
0

> <r_lp_tautomer_probability>
1

> <s_lp_Force_Field>
OPLS_2005

> <r_lp_Energy>
17.688137

> <b_lp_Chiralities_Consistent>
1

> <s_lp_Variant>
CHEMBL1910_lig9-1

> <s_i_glide_gridfile>
glide-grid_2e1w

> <i_i_glide_lignum>
11

> <i_i_glide_rotatable_bonds>
12

> <r_i_docking_score>
-8.2915218818537

> <r_i_glide_ligand_efficiency>
-0.243868290642756

> <r_i_glide_ligand_efficiency_sa>
-0.790038591394986

> <r_i_glide_ligand_efficiency_ln>
-1.83182975301262

> <r_i_glide_gscore>
-8.2915218818537

> <r_i_glide_lipo>
-3.30114919613724

> <r_i_glide_hbond>
-0.726275931787612

> <r_i_glide_metal>
0

> <r_i_glide_rewards>
-0.400019503412569

> <r_i_glide_evdw>
-49.0258140563965

> <r_i_glide_ecoul>
-13.4782981872559

> <r_i_glide_erotb>
0.789060360913216

> <r_i_glide_esite>
-0.180102180521287

> <r_i_glide_emodel>
-92.6164530918098

> <r_i_glide_energy>
-62.5041122436523

> <r_i_glide_einternal>
5.08083820343018

> <i_i_glide_confnum>
110

> <i_i_glide_posenum>
146

> <r_i_glide_eff_state_penalty>
0

> <s_user_duplicate_titles>
CHEMBL1910_lig9,204013

> <s_m_subgroup_title>
dock_pv

> <s_m_subgroupid>
dock_pv

> <b_m_subgroup_collapsed>
0

$$$$
CHEMBL1910_lig10
                    3D
 Schrodinger Suite 2021-1.
 45 47  0  0  1  0            999 V2000
   51.1875   54.6493   20.8085 C   0  0  0  0  0  0
   51.4435   55.5943   21.7719 N   0  0  0  0  0  0
   51.6969   54.8453   22.8911 C   0  0  0  0  0  0
   51.5928   53.5544   22.6930 N   0  0  0  0  0  0
   51.2299   53.4020   21.4272 C   0  0  0  0  0  0
   50.9000   52.1548   20.7791 C   0  0  0  0  0  0
   50.4970   52.1227   19.6194 O   0  0  0  0  0  0
   51.0941   51.0450   21.4930 N   0  0  0  0  0  0
   51.4782   57.0596   21.6496 C   0  0  1  0  0  0
   52.9495   57.5854   21.5745 C   0  0  1  0  0  0
   53.7334   57.2060   22.6930 O   0  0  0  0  0  0
   50.6120   57.5604   20.4508 C   0  0  0  0  0  0
   49.1104   57.1659   20.4316 C   0  0  0  0  0  0
   48.5153   57.3168   19.0257 C   0  0  0  0  0  0
   48.6273   56.2452   18.1366 C   0  0  0  0  0  0
   48.2287   56.3618   16.8108 C   0  0  0  0  0  0
   47.6779   57.5456   16.3404 C   0  0  0  0  0  0
   47.5044   58.6470   17.2105 C   0  0  0  0  0  0
   47.9353   58.5475   18.5744 C   0  0  0  0  0  0
   46.8969   59.8431   16.7545 C   0  0  0  0  0  0
   47.7602   59.6844   19.4087 C   0  0  0  0  0  0
   46.7364   60.9267   17.6111 C   0  0  0  0  0  0
   47.1725   60.8499   18.9264 C   0  0  0  0  0  0
   53.7475   57.1154   20.3403 C   0  0  0  0  0  0
   50.9417   54.9376   19.7985 H   0  0  0  0  0  0
   51.9525   55.3278   23.8236 H   0  0  0  0  0  0
   50.8972   50.1345   21.0899 H   0  0  0  0  0  0
   51.2971   51.0891   22.4892 H   0  0  0  0  0  0
   51.0239   57.4523   22.5623 H   0  0  0  0  0  0
   52.9230   58.6764   21.5763 H   0  0  0  0  0  0
   53.2969   57.4448   23.5406 H   0  0  0  0  0  0
   50.6817   58.6450   20.3867 H   0  0  0  0  0  0
   51.0697   57.1955   19.5313 H   0  0  0  0  0  0
   48.9730   56.1276   20.7340 H   0  0  0  0  0  0
   48.5410   57.7151   21.1805 H   0  0  0  0  0  0
   49.0585   55.3113   18.4668 H   0  0  0  0  0  0
   48.3402   55.5195   16.1433 H   0  0  0  0  0  0
   47.3595   57.6232   15.3105 H   0  0  0  0  0  0
   46.5576   59.9096   15.7304 H   0  0  0  0  0  0
   48.0970   59.6604   20.4318 H   0  0  0  0  0  0
   46.2709   61.8329   17.2522 H   0  0  0  0  0  0
   47.0492   61.6987   19.5838 H   0  0  0  0  0  0
   53.2911   57.4454   19.4097 H   0  0  0  0  0  0
   54.7651   57.5087   20.3503 H   0  0  0  0  0  0
   53.8171   56.0278   20.2987 H   0  0  0  0  0  0
  1  2  1  0  0  0
  1  5  2  0  0  0
  1 25  1  0  0  0
  2  3  1  0  0  0
  2  9  1  0  0  0
  3  4  2  0  0  0
  3 26  1  0  0  0
  4  5  1  0  0  0
  5  6  1  0  0  0
  6  7  2  0  0  0
  6  8  1  0  0  0
  8 27  1  0  0  0
  8 28  1  0  0  0
  9 10  1  0  0  0
  9 12  1  0  0  0
  9 29  1  0  0  0
 10 11  1  0  0  0
 10 24  1  0  0  0
 10 30  1  0  0  0
 11 31  1  0  0  0
 12 13  1  0  0  0
 12 32  1  0  0  0
 12 33  1  0  0  0
 13 14  1  0  0  0
 13 34  1  0  0  0
 13 35  1  0  0  0
 14 15  2  0  0  0
 14 19  1  0  0  0
 15 16  1  0  0  0
 15 36  1  0  0  0
 16 17  2  0  0  0
 16 37  1  0  0  0
 17 18  1  0  0  0
 17 38  1  0  0  0
 18 19  2  0  0  0
 18 20  1  0  0  0
 19 21  1  0  0  0
 20 22  2  0  0  0
 20 39  1  0  0  0
 21 23  2  0  0  0
 21 40  1  0  0  0
 22 23  1  0  0  0
 22 41  1  0  0  0
 23 42  1  0  0  0
 24 43  1  0  0  0
 24 44  1  0  0  0
 24 45  1  0  0  0
M  END
> <s_m_entry_id>
10571

> <s_m_entry_name>
dock_pv.8

> <s_m_Source_Path>
/home/csk/Desktop/cluster/DUD-E-result/ada

> <s_m_Source_File>
dock_pv.maegz

> <i_m_Source_File_Index>
8

> <chembl_id>
CHEMBL93560

> <chembl_pref_name>
None

> <i_lp_mmshare_version>
53161

> <i_f3d_flags>
0

> <r_lp_tautomer_probability>
1

> <s_lp_Force_Field>
OPLS_2005

> <r_lp_Energy>
22.102731

> <b_lp_Chiralities_Consistent>
1

> <s_lp_Variant>
CHEMBL1910_lig10-1

> <s_i_glide_gridfile>
glide-grid_2e1w

> <i_i_glide_lignum>
12

> <i_i_glide_rotatable_bonds>
7

> <r_i_docking_score>
-8.27614359428363

> <r_i_glide_ligand_efficiency>
-0.344839316428484

> <r_i_glide_ligand_efficiency_sa>
-0.99468871083444

> <r_i_glide_ligand_efficiency_ln>
-1.98086092959563

> <r_i_glide_gscore>
-8.27614359428363

> <r_i_glide_lipo>
-2.43894465423293

> <r_i_glide_hbond>
-0.958429345335248

> <r_i_glide_metal>
0

> <r_i_glide_rewards>
-1.70416631818182

> <r_i_glide_evdw>
-35.4822883605957

> <r_i_glide_ecoul>
-12.9763822555542

> <r_i_glide_erotb>
0.71575007783324

> <r_i_glide_esite>
-0.16978159800396

> <r_i_glide_emodel>
-73.0881301476394

> <r_i_glide_energy>
-48.4586706161499

> <r_i_glide_einternal>
3.58223724365234

> <i_i_glide_confnum>
7

> <i_i_glide_posenum>
110

> <r_i_glide_eff_state_penalty>
0

> <s_user_duplicate_titles>
CHEMBL1910_lig10,149191

> <s_m_subgroup_title>
dock_pv

> <s_m_subgroupid>
dock_pv

> <b_m_subgroup_collapsed>
0

$$$$
CHEMBL1910_lig6
                    3D
 Schrodinger Suite 2021-1.
 51 54  0  0  1  0            999 V2000
   51.4396   53.2651   21.3441 C   0  0  0  0  0  0
   48.3966   54.5172   17.7231 C   0  0  0  0  0  0
   48.1940   55.4947   16.8553 N   0  0  0  0  0  0
   51.3027   55.4464   21.7751 N   0  0  0  0  0  0
   48.4849   54.9185   19.0301 O   0  0  0  0  0  0
   50.8970   53.8406   20.2930 N   0  0  0  0  0  0
   51.6946   54.2396   22.3191 C   0  0  0  0  0  0
   48.3302   56.2761   18.9787 C   0  0  0  0  0  0
   50.9766   55.1201   20.4946 C   0  0  0  0  0  0
   48.1258   56.6185   17.6301 C   0  0  0  0  0  0
   51.7510   51.8603   21.3716 C   0  0  0  0  0  0
   51.2839   56.7931   22.3568 C   0  0  2  0  0  0
   48.4786   53.0504   17.4034 C   0  0  0  0  0  0
   49.9840   57.6177   22.0160 C   0  0  0  0  0  0
   48.3738   57.2235   20.0217 C   0  0  0  0  0  0
   52.8970   51.4450   21.4930 O   0  0  0  0  0  0
   48.6861   56.9220   21.4912 C   0  0  0  0  0  0
   48.9907   52.1026   18.2929 C   0  0  0  0  0  0
   48.0163   52.6088   16.1658 C   0  0  0  0  0  0
   50.7380   51.0450   21.0930 N   0  0  0  0  0  0
   52.5826   57.5929   22.0145 C   0  0  1  0  0  0
   48.6394   50.3434   16.6895 C   0  0  0  0  0  0
   48.0970   51.2663   15.8019 C   0  0  0  0  0  0
   49.0805   50.7572   17.9416 C   0  0  0  0  0  0
   48.7492   48.6807   16.2402 Cl  0  0  0  0  0  0
   47.8925   57.9538   17.2769 C   0  0  0  0  0  0
   53.6971   57.0589   22.6930 O   0  0  0  0  0  0
   47.8726   58.9033   18.3029 C   0  0  0  0  0  0
   48.1122   58.5458   19.6330 C   0  0  0  0  0  0
   52.9440   57.7017   20.5204 C   0  0  0  0  0  0
   52.0970   54.1723   23.3213 H   0  0  0  0  0  0
   50.7245   55.8975   19.7946 H   0  0  0  0  0  0
   51.2563   56.6423   23.4388 H   0  0  0  0  0  0
   49.6969   58.1283   22.9359 H   0  0  0  0  0  0
   50.2384   58.4432   21.3518 H   0  0  0  0  0  0
   48.6798   55.8469   21.6763 H   0  0  0  0  0  0
   47.8338   57.2997   22.0570 H   0  0  0  0  0  0
   49.3040   52.3961   19.2720 H   0  0  0  0  0  0
   47.5754   53.3223   15.4930 H   0  0  0  0  0  0
   50.8970   50.0414   21.0708 H   0  0  0  0  0  0
   49.7951   51.3955   21.0986 H   0  0  0  0  0  0
   52.4653   58.6078   22.3992 H   0  0  0  0  0  0
   47.7404   50.9437   14.8347 H   0  0  0  0  0  0
   49.4916   50.0386   18.6360 H   0  0  0  0  0  0
   47.7207   58.2344   16.2477 H   0  0  0  0  0  0
   53.5089   57.1894   23.6420 H   0  0  0  0  0  0
   47.6804   59.9396   18.0650 H   0  0  0  0  0  0
   48.1046   59.3259   20.3804 H   0  0  0  0  0  0
   52.1133   58.0973   19.9363 H   0  0  0  0  0  0
   53.7931   58.3693   20.3702 H   0  0  0  0  0  0
   53.2162   56.7345   20.0965 H   0  0  0  0  0  0
  1  6  1  0  0  0
  1  7  2  0  0  0
  1 11  1  0  0  0
  2  5  1  0  0  0
  2 13  1  0  0  0
  2  3  2  0  0  0
  3 10  1  0  0  0
  4  7  1  0  0  0
  4 12  1  0  0  0
  4  9  1  0  0  0
  5  8  1  0  0  0
  6  9  2  0  0  0
  7 31  1  0  0  0
  8 15  2  0  0  0
  8 10  1  0  0  0
  9 32  1  0  0  0
 10 26  2  0  0  0
 11 16  2  0  0  0
 11 20  1  0  0  0
 12 14  1  0  0  0
 12 21  1  0  0  0
 12 33  1  0  0  0
 13 18  2  0  0  0
 13 19  1  0  0  0
 14 17  1  0  0  0
 14 34  1  0  0  0
 14 35  1  0  0  0
 15 17  1  0  0  0
 15 29  1  0  0  0
 17 36  1  0  0  0
 17 37  1  0  0  0
 18 24  1  0  0  0
 18 38  1  0  0  0
 19 23  2  0  0  0
 19 39  1  0  0  0
 20 40  1  0  0  0
 20 41  1  0  0  0
 21 27  1  0  0  0
 21 30  1  0  0  0
 21 42  1  0  0  0
 22 23  1  0  0  0
 22 25  1  0  0  0
 22 24  2  0  0  0
 23 43  1  0  0  0
 24 44  1  0  0  0
 26 28  1  0  0  0
 26 45  1  0  0  0
 27 46  1  0  0  0
 28 29  2  0  0  0
 28 47  1  0  0  0
 29 48  1  0  0  0
 30 49  1  0  0  0
 30 50  1  0  0  0
 30 51  1  0  0  0
M  END
> <s_m_entry_id>
10572

> <s_m_entry_name>
dock_pv.9

> <s_m_Source_Path>
/home/csk/Desktop/cluster/DUD-E-result/ada

> <s_m_Source_File>
dock_pv.maegz

> <i_m_Source_File_Index>
9

> <chembl_id>
CHEMBL359803

> <chembl_pref_name>
None

> <i_lp_mmshare_version>
53161

> <i_f3d_flags>
0

> <r_lp_tautomer_probability>
1

> <s_lp_Force_Field>
OPLS_2005

> <r_lp_Energy>
18.363941

> <b_lp_Chiralities_Consistent>
1

> <s_lp_Variant>
CHEMBL1910_lig6-1

> <s_i_glide_gridfile>
glide-grid_2e1w

> <i_i_glide_lignum>
7

> <i_i_glide_rotatable_bonds>
8

> <r_i_docking_score>
-8.2757435960678

> <r_i_glide_ligand_efficiency>
-0.275858119868927

> <r_i_glide_ligand_efficiency_sa>
-0.85715531611626

> <r_i_glide_ligand_efficiency_ln>
-1.88033911647525

> <r_i_glide_gscore>
-8.2757435960678

> <r_i_glide_lipo>
-2.80424458555648

> <r_i_glide_hbond>
-1.03170145705721

> <r_i_glide_metal>
0

> <r_i_glide_rewards>
-0.996701478079182

> <r_i_glide_evdw>
-38.9710960388184

> <r_i_glide_ecoul>
-12.9144010543823

> <r_i_glide_erotb>
0.659160717073086

> <r_i_glide_esite>
-0.216541832349751

> <r_i_glide_emodel>
-77.6852975589207

> <r_i_glide_energy>
-51.8854970932007

> <r_i_glide_einternal>
14.1039590835571

> <i_i_glide_confnum>
55

> <i_i_glide_posenum>
52

> <r_i_glide_eff_state_penalty>
0

> <s_user_duplicate_titles>
CHEMBL1910_lig6,316487

> <s_m_subgroup_title>
dock_pv

> <s_m_subgroupid>
dock_pv

> <b_m_subgroup_collapsed>
0

$$$$
CHEMBL1910_lig12
                    3D
 Schrodinger Suite 2021-1.
 51 54  0  0  1  0            999 V2000
   48.8114   54.5679   18.5268 N   0  0  0  0  0  0
   51.5602   53.5810   21.7420 C   0  0  0  0  0  0
   48.4970   53.9426   17.4030 C   0  0  0  0  0  0
   51.5761   55.7926   21.9504 N   0  0  0  0  0  0
   51.6970   53.8450   23.0334 N   0  0  0  0  0  0
   51.5228   54.7762   21.0331 C   0  0  0  0  0  0
   48.0970   54.7667   16.3824 O   0  0  0  0  0  0
   48.5266   55.8885   18.2746 C   0  0  0  0  0  0
   51.6970   55.1466   23.1489 C   0  0  0  0  0  0
   48.0970   56.0094   16.9389 C   0  0  0  0  0  0
   51.4263   52.2806   21.1355 C   0  0  0  0  0  0
   51.5550   57.2353   21.7180 C   0  0  2  0  0  0
   48.5167   52.4596   17.1345 C   0  0  0  0  0  0
   50.6738   57.5695   20.4710 C   0  0  0  0  0  0
   48.5964   57.0446   19.0889 C   0  0  0  0  0  0
   51.1747   52.1534   19.9492 O   0  0  0  0  0  0
   49.2000   57.0717   20.4926 C   0  0  0  0  0  0
   48.1859   51.9643   15.8757 C   0  0  0  0  0  0
   48.8529   51.5379   18.1238 C   0  0  0  0  0  0
   51.6045   51.2087   21.8930 N   0  0  0  0  0  0
   53.0135   57.8046   21.6419 C   0  0  1  0  0  0
   48.5877   49.7031   16.5932 C   0  0  0  0  0  0
   48.8971   50.1692   17.8673 C   0  0  0  0  0  0
   48.2246   50.6003   15.5937 C   0  0  0  0  0  0
   48.6455   48.0114   16.2529 Cl  0  0  0  0  0  0
   47.6970   57.2165   16.3588 C   0  0  0  0  0  0
   53.8574   57.3613   22.6930 O   0  0  0  0  0  0
   47.6970   58.3312   17.1988 C   0  0  0  0  0  0
   48.1267   58.2448   18.5281 C   0  0  0  0  0  0
   53.7925   57.4369   20.3690 C   0  0  0  0  0  0
   51.4114   54.9856   19.9806 H   0  0  0  0  0  0
   51.7711   55.7106   24.0677 H   0  0  0  0  0  0
   51.0672   57.6764   22.5898 H   0  0  0  0  0  0
   50.6748   58.6450   20.3086 H   0  0  0  0  0  0
   51.1565   57.1551   19.5858 H   0  0  0  0  0  0
   49.1104   56.0717   20.9189 H   0  0  0  0  0  0
   48.6013   57.7108   21.1437 H   0  0  0  0  0  0
   47.9137   52.6450   15.0930 H   0  0  0  0  0  0
   49.0620   51.8922   19.1077 H   0  0  0  0  0  0
   51.4440   50.2945   21.4956 H   0  0  0  0  0  0
   51.6970   51.2549   22.9097 H   0  0  0  0  0  0
   52.9600   58.8920   21.7175 H   0  0  0  0  0  0
   49.1741   49.4789   18.6516 H   0  0  0  0  0  0
   47.9793   50.2446   14.6033 H   0  0  0  0  0  0
   47.3608   57.2695   15.3337 H   0  0  0  0  0  0
   53.4197   57.4468   23.5702 H   0  0  0  0  0  0
   47.3661   59.2851   16.8127 H   0  0  0  0  0  0
   48.1393   59.1465   19.1244 H   0  0  0  0  0  0
   53.3039   57.8450   19.4930 H   0  0  0  0  0  0
   54.8067   57.8393   20.3833 H   0  0  0  0  0  0
   53.8661   56.3566   20.2392 H   0  0  0  0  0  0
  1  3  2  0  0  0
  1  8  1  0  0  0
  2  6  2  0  0  0
  2 11  1  0  0  0
  2  5  1  0  0  0
  3  7  1  0  0  0
  3 13  1  0  0  0
  4 12  1  0  0  0
  4  6  1  0  0  0
  4  9  1  0  0  0
  5  9  2  0  0  0
  6 31  1  0  0  0
  7 10  1  0  0  0
  8 10  1  0  0  0
  8 15  2  0  0  0
  9 32  1  0  0  0
 10 26  2  0  0  0
 11 16  2  0  0  0
 11 20  1  0  0  0
 12 14  1  0  0  0
 12 21  1  0  0  0
 12 33  1  0  0  0
 13 18  2  0  0  0
 13 19  1  0  0  0
 14 17  1  0  0  0
 14 34  1  0  0  0
 14 35  1  0  0  0
 15 17  1  0  0  0
 15 29  1  0  0  0
 17 36  1  0  0  0
 17 37  1  0  0  0
 18 24  1  0  0  0
 18 38  1  0  0  0
 19 23  2  0  0  0
 19 39  1  0  0  0
 20 40  1  0  0  0
 20 41  1  0  0  0
 21 27  1  0  0  0
 21 30  1  0  0  0
 21 42  1  0  0  0
 22 23  1  0  0  0
 22 25  1  0  0  0
 22 24  2  0  0  0
 23 43  1  0  0  0
 24 44  1  0  0  0
 26 28  1  0  0  0
 26 45  1  0  0  0
 27 46  1  0  0  0
 28 29  2  0  0  0
 28 47  1  0  0  0
 29 48  1  0  0  0
 30 49  1  0  0  0
 30 50  1  0  0  0
 30 51  1  0  0  0
M  END
> <s_m_entry_id>
10573

> <s_m_entry_name>
dock_pv.10

> <s_m_Source_Path>
/home/csk/Desktop/cluster/DUD-E-result/ada

> <s_m_Source_File>
dock_pv.maegz

> <i_m_Source_File_Index>
10

> <chembl_id>
CHEMBL436332

> <chembl_pref_name>
None

> <i_lp_mmshare_version>
53161

> <i_f3d_flags>
0

> <r_lp_tautomer_probability>
1

> <s_lp_Force_Field>
OPLS_2005

> <r_lp_Energy>
16.493783

> <b_lp_Chiralities_Consistent>
1

> <s_lp_Variant>
CHEMBL1910_lig12-1

> <s_i_glide_gridfile>
glide-grid_2e1w

> <i_i_glide_lignum>
14

> <i_i_glide_rotatable_bonds>
8

> <r_i_docking_score>
-8.16041812236155

> <r_i_glide_ligand_efficiency>
-0.272013937412052

> <r_i_glide_ligand_efficiency_sa>
-0.845210547440983

> <r_i_glide_ligand_efficiency_ln>
-1.85413591227751

> <r_i_glide_gscore>
-8.16041812236155

> <r_i_glide_lipo>
-2.94646119365185

> <r_i_glide_hbond>
-0.837721506391882

> <r_i_glide_metal>
0

> <r_i_glide_rewards>
-0.795516242424242

> <r_i_glide_evdw>
-38.6013069152832

> <r_i_glide_ecoul>
-14.1481885910034

> <r_i_glide_erotb>
0.659160717073086

> <r_i_glide_esite>
-0.187586262551991

> <r_i_glide_emodel>
-79.6302120085853

> <r_i_glide_energy>
-52.7494955062866

> <r_i_glide_einternal>
5.00480651855469

> <i_i_glide_confnum>
28

> <i_i_glide_posenum>
43

> <r_i_glide_eff_state_penalty>
0

> <s_user_duplicate_titles>
CHEMBL1910_lig12,316174

> <s_m_subgroup_title>
dock_pv

> <s_m_subgroupid>
dock_pv

> <b_m_subgroup_collapsed>
0

$$$$
CHEMBL1910_lig42
                    3D
 Schrodinger Suite 2021-1.
 59 61  0  0  1  0            999 V2000
   51.2870   53.5118   21.4405 C   0  0  0  0  0  0
   51.5662   53.6426   22.7229 N   0  0  0  0  0  0
   51.5699   55.6949   21.8345 N   0  0  0  0  0  0
   51.3541   54.7703   20.8365 C   0  0  0  0  0  0
   48.5576   57.7536   19.6030 N   0  0  0  0  0  0
   51.6970   54.9231   22.9549 C   0  0  0  0  0  0
   48.4335   56.7670   18.6378 C   0  0  0  0  0  0
   50.9235   52.2716   20.7929 C   0  0  0  0  0  0
   48.0966   58.9470   19.0919 C   0  0  0  0  0  0
   47.7226   58.7788   17.7758 C   0  0  0  0  0  0
   47.9778   57.4092   17.4473 C   0  0  0  0  0  0
   48.6934   55.3890   18.6912 C   0  0  0  0  0  0
   49.2429   57.5886   20.8767 C   0  0  0  0  0  0
   50.7668   57.7222   20.6333 C   0  0  0  0  0  0
   51.6621   57.1601   21.7600 C   0  0  2  0  0  0
   50.5019   52.2523   19.6427 O   0  0  0  0  0  0
   47.8540   56.6456   16.2807 C   0  0  0  0  0  0
   51.1079   51.1478   21.4930 N   0  0  0  0  0  0
   48.4968   54.6388   17.5341 C   0  0  0  0  0  0
   48.0971   55.2736   16.3532 C   0  0  0  0  0  0
   48.6896   53.2752   17.6520 O   0  0  0  0  0  0
   53.9624   57.2088   22.6930 O   0  0  0  0  0  0
   53.1301   57.6366   21.6283 C   0  0  0  0  0  0
   48.4479   52.4097   16.5408 C   0  0  0  0  0  0
   49.0889   51.0313   16.7846 C   0  0  0  0  0  0
   46.5639   48.6228   18.6477 C   0  0  0  0  0  0
   47.0507   49.6658   17.6230 C   0  0  0  0  0  0
   48.4725   50.1826   17.9162 C   0  0  0  0  0  0
   45.1555   48.0966   18.3366 C   0  0  0  0  0  0
   51.2098   55.0779   19.8136 H   0  0  0  0  0  0
   51.8820   55.3839   23.9131 H   0  0  0  0  0  0
   48.0970   59.8356   19.7060 H   0  0  0  0  0  0
   47.3385   59.5519   17.1271 H   0  0  0  0  0  0
   48.9851   54.8958   19.6049 H   0  0  0  0  0  0
   48.9800   56.6090   21.2802 H   0  0  0  0  0  0
   48.8795   58.3236   21.5968 H   0  0  0  0  0  0
   50.9943   58.7728   20.4789 H   0  0  0  0  0  0
   51.0564   57.2550   19.6914 H   0  0  0  0  0  0
   51.2655   57.5538   22.6936 H   0  0  0  0  0  0
   47.5110   57.0944   15.3599 H   0  0  0  0  0  0
   50.8974   50.2540   21.0689 H   0  0  0  0  0  0
   51.3060   51.1716   22.4901 H   0  0  0  0  0  0
   47.9003   54.6764   15.4924 H   0  0  0  0  0  0
   53.5562   57.4450   23.5533 H   0  0  0  0  0  0
   53.5619   57.2926   20.6868 H   0  0  0  0  0  0
   53.1614   58.7273   21.6099 H   0  0  0  0  0  0
   47.3760   52.3205   16.3588 H   0  0  0  0  0  0
   48.8970   52.8091   15.6323 H   0  0  0  0  0  0
   49.0626   50.4570   15.8571 H   0  0  0  0  0  0
   50.1476   51.1849   16.9982 H   0  0  0  0  0  0
   47.2613   47.7850   18.6837 H   0  0  0  0  0  0
   46.5761   49.0487   19.6502 H   0  0  0  0  0  0
   46.3565   50.5058   17.6004 H   0  0  0  0  0  0
   47.0261   49.2211   16.6269 H   0  0  0  0  0  0
   49.1291   49.3288   18.0897 H   0  0  0  0  0  0
   48.4773   50.7472   18.8481 H   0  0  0  0  0  0
   44.8248   47.3921   19.1010 H   0  0  0  0  0  0
   44.4285   48.9086   18.2938 H   0  0  0  0  0  0
   45.1302   47.5768   17.3775 H   0  0  0  0  0  0
  1  2  1  0  0  0
  1  4  2  0  0  0
  1  8  1  0  0  0
  2  6  2  0  0  0
  3  4  1  0  0  0
  3 15  1  0  0  0
  3  6  1  0  0  0
  4 30  1  0  0  0
  5 13  1  0  0  0
  5  7  1  0  0  0
  5  9  1  0  0  0
  6 31  1  0  0  0
  7 11  1  0  0  0
  7 12  2  0  0  0
  8 16  2  0  0  0
  8 18  1  0  0  0
  9 10  2  0  0  0
  9 32  1  0  0  0
 10 11  1  0  0  0
 10 33  1  0  0  0
 11 17  2  0  0  0
 12 19  1  0  0  0
 12 34  1  0  0  0
 13 14  1  0  0  0
 13 35  1  0  0  0
 13 36  1  0  0  0
 14 15  1  0  0  0
 14 37  1  0  0  0
 14 38  1  0  0  0
 15 23  1  0  0  0
 15 39  1  0  0  0
 17 20  1  0  0  0
 17 40  1  0  0  0
 18 41  1  0  0  0
 18 42  1  0  0  0
 19 20  2  0  0  0
 19 21  1  0  0  0
 20 43  1  0  0  0
 21 24  1  0  0  0
 22 23  1  0  0  0
 22 44  1  0  0  0
 23 45  1  0  0  0
 23 46  1  0  0  0
 24 25  1  0  0  0
 24 47  1  0  0  0
 24 48  1  0  0  0
 25 28  1  0  0  0
 25 49  1  0  0  0
 25 50  1  0  0  0
 26 27  1  0  0  0
 26 29  1  0  0  0
 26 51  1  0  0  0
 26 52  1  0  0  0
 27 28  1  0  0  0
 27 53  1  0  0  0
 27 54  1  0  0  0
 28 55  1  0  0  0
 28 56  1  0  0  0
 29 57  1  0  0  0
 29 58  1  0  0  0
 29 59  1  0  0  0
M  END
> <s_m_entry_id>
10574

> <s_m_entry_name>
dock_pv.11

> <s_m_Source_Path>
/home/csk/Desktop/cluster/DUD-E-result/ada

> <s_m_Source_File>
dock_pv.maegz

> <i_m_Source_File_Index>
11

> <chembl_id>
CHEMBL333809

> <chembl_pref_name>
None

> <i_lp_mmshare_version>
53161

> <i_f3d_flags>
0

> <r_lp_tautomer_probability>
1

> <s_lp_Force_Field>
OPLS_2005

> <r_lp_Energy>
18.379947

> <b_lp_Chiralities_Consistent>
1

> <s_lp_Variant>
CHEMBL1910_lig42-1

> <s_i_glide_gridfile>
glide-grid_2e1w

> <i_i_glide_lignum>
51

> <i_i_glide_rotatable_bonds>
13

> <r_i_docking_score>
-8.02319512504016

> <r_i_glide_ligand_efficiency>
-0.276661900863454

> <r_i_glide_ligand_efficiency_sa>
-0.84999301209496

> <r_i_glide_ligand_efficiency_ln>
-1.83710823296003

> <r_i_glide_gscore>
-8.02319512504016

> <r_i_glide_lipo>
-2.94364010923582

> <r_i_glide_hbond>
-0.958556642122513

> <r_i_glide_metal>
0

> <r_i_glide_rewards>
-0.892044597417329

> <r_i_glide_evdw>
-44.6289520263672

> <r_i_glide_ecoul>
-13.7366371154785

> <r_i_glide_erotb>
1.23331877086363

> <r_i_glide_esite>
-0.170329378487994

> <r_i_glide_emodel>
-87.5373575760402

> <r_i_glide_energy>
-58.3655891418457

> <r_i_glide_einternal>
5.61680936813354

> <i_i_glide_confnum>
168

> <i_i_glide_posenum>
233

> <r_i_glide_eff_state_penalty>
0

> <s_user_duplicate_titles>
CHEMBL1910_lig42,203938

> <s_m_subgroup_title>
dock_pv

> <s_m_subgroupid>
dock_pv

> <b_m_subgroup_collapsed>
0

$$$$
CHEMBL1910_lig35
                    3D
 Schrodinger Suite 2021-1.
 62 64  0  0  1  0            999 V2000
   45.9557   48.4254   17.6413 C   0  0  0  0  0  0
   47.9176   56.6419   16.0643 N   0  0  0  0  0  0
   46.0085   48.8674   16.3876 N   0  0  0  0  0  0
   47.4172   50.0983   17.6264 N   0  0  0  0  0  0
   48.4650   55.0353   17.5912 C   0  0  0  0  0  0
   48.3604   56.3053   18.2551 C   0  0  0  0  0  0
   46.8490   49.1439   18.4292 C   0  0  0  0  0  0
   48.0370   57.2965   17.2743 C   0  0  0  0  0  0
   48.1049   55.3011   16.2908 C   0  0  0  0  0  0
   46.8847   49.8420   16.3894 C   0  0  0  0  0  0
   45.0856   47.3884   18.1389 C   0  0  0  0  0  0
   47.8657   58.6441   17.6061 C   0  0  0  0  0  0
   48.4899   56.7022   19.5871 C   0  0  0  0  0  0
   48.8400   53.6894   18.1754 C   0  0  0  0  0  0
   48.4092   51.1073   17.9992 C   0  0  2  0  0  0
   44.8982   47.1989   19.3405 O   0  0  0  0  0  0
   47.8814   52.5465   17.7337 C   0  0  0  0  0  0
   44.4969   46.6452   17.2045 N   0  0  0  0  0  0
   48.3902   58.0584   19.9193 C   0  0  0  0  0  0
   48.0702   58.9932   18.9396 C   0  0  0  0  0  0
   47.5193   57.2330   14.7988 C   0  0  0  0  0  0
   48.6062   58.5609   21.1835 O   0  0  0  0  0  0
   49.6966   51.0395   15.8929 O   0  0  0  0  0  0
   49.7371   50.8012   17.2850 C   0  0  0  0  0  0
   49.0298   57.7118   22.2495 C   0  0  0  0  0  0
   50.5568   57.5074   22.2928 C   0  0  0  0  0  0
   53.4573   57.8383   21.2812 C   0  0  0  0  0  0
   52.7085   56.4964   21.3149 C   0  0  0  0  0  0
   51.1920   56.6600   21.1741 C   0  0  0  0  0  0
   54.9562   57.6673   21.0847 C   0  0  0  0  0  0
   47.0938   49.0723   19.4804 H   0  0  0  0  0  0
   47.9974   54.5969   15.4920 H   0  0  0  0  0  0
   47.2105   50.4168   15.5379 H   0  0  0  0  0  0
   47.6025   59.3881   16.8695 H   0  0  0  0  0  0
   48.6909   55.9517   20.3312 H   0  0  0  0  0  0
   48.8970   53.7334   19.2639 H   0  0  0  0  0  0
   49.8571   53.4848   17.8463 H   0  0  0  0  0  0
   48.5839   50.9927   19.0700 H   0  0  0  0  0  0
   47.6714   52.6354   16.6682 H   0  0  0  0  0  0
   46.9189   52.6872   18.2260 H   0  0  0  0  0  0
   43.8582   45.9134   17.4934 H   0  0  0  0  0  0
   44.7000   46.7971   16.2296 H   0  0  0  0  0  0
   47.9750   60.0300   19.2285 H   0  0  0  0  0  0
   48.0942   58.1430   14.6289 H   0  0  0  0  0  0
   47.7020   56.5391   13.9772 H   0  0  0  0  0  0
   46.4581   57.4820   14.8361 H   0  0  0  0  0  0
   50.5924   51.2352   15.5922 H   0  0  0  0  0  0
   50.4969   51.4447   17.7113 H   0  0  0  0  0  0
   50.0626   49.7757   17.4723 H   0  0  0  0  0  0
   48.7475   58.2447   23.1582 H   0  0  0  0  0  0
   48.4844   56.7695   22.2922 H   0  0  0  0  0  0
   51.0097   58.4998   22.2929 H   0  0  0  0  0  0
   50.8096   57.0449   23.2488 H   0  0  0  0  0  0
   53.0670   58.4664   20.4784 H   0  0  0  0  0  0
   53.2824   58.3855   22.2092 H   0  0  0  0  0  0
   52.9296   55.9666   22.2425 H   0  0  0  0  0  0
   53.0606   55.8575   20.5042 H   0  0  0  0  0  0
   50.7400   55.6676   21.1669 H   0  0  0  0  0  0
   50.9966   57.1137   20.2036 H   0  0  0  0  0  0
   55.4422   58.6430   21.0936 H   0  0  0  0  0  0
   55.4020   57.0511   21.8681 H   0  0  0  0  0  0
   55.1764   57.1998   20.1231 H   0  0  0  0  0  0
  1  3  1  0  0  0
  1  7  2  0  0  0
  1 11  1  0  0  0
  2  9  1  0  0  0
  2 21  1  0  0  0
  2  8  1  0  0  0
  3 10  2  0  0  0
  4  7  1  0  0  0
  4 15  1  0  0  0
  4 10  1  0  0  0
  5 14  1  0  0  0
  5  6  1  0  0  0
  5  9  2  0  0  0
  6  8  2  0  0  0
  6 13  1  0  0  0
  7 31  1  0  0  0
  8 12  1  0  0  0
  9 32  1  0  0  0
 10 33  1  0  0  0
 11 16  2  0  0  0
 11 18  1  0  0  0
 12 20  2  0  0  0
 12 34  1  0  0  0
 13 19  2  0  0  0
 13 35  1  0  0  0
 14 17  1  0  0  0
 14 36  1  0  0  0
 14 37  1  0  0  0
 15 17  1  0  0  0
 15 24  1  0  0  0
 15 38  1  0  0  0
 17 39  1  0  0  0
 17 40  1  0  0  0
 18 41  1  0  0  0
 18 42  1  0  0  0
 19 20  1  0  0  0
 19 22  1  0  0  0
 20 43  1  0  0  0
 21 44  1  0  0  0
 21 45  1  0  0  0
 21 46  1  0  0  0
 22 25  1  0  0  0
 23 24  1  0  0  0
 23 47  1  0  0  0
 24 48  1  0  0  0
 24 49  1  0  0  0
 25 26  1  0  0  0
 25 50  1  0  0  0
 25 51  1  0  0  0
 26 29  1  0  0  0
 26 52  1  0  0  0
 26 53  1  0  0  0
 27 28  1  0  0  0
 27 30  1  0  0  0
 27 54  1  0  0  0
 27 55  1  0  0  0
 28 29  1  0  0  0
 28 56  1  0  0  0
 28 57  1  0  0  0
 29 58  1  0  0  0
 29 59  1  0  0  0
 30 60  1  0  0  0
 30 61  1  0  0  0
 30 62  1  0  0  0
M  END
> <s_m_entry_id>
10575

> <s_m_entry_name>
dock_pv.12

> <s_m_Source_Path>
/home/csk/Desktop/cluster/DUD-E-result/ada

> <s_m_Source_File>
dock_pv.maegz

> <i_m_Source_File_Index>
12

> <chembl_id>
CHEMBL125038

> <chembl_pref_name>
None

> <i_lp_mmshare_version>
53161

> <i_f3d_flags>
0

> <r_lp_tautomer_probability>
1

> <s_lp_Force_Field>
OPLS_2005

> <r_lp_Energy>
17.546675

> <b_lp_Chiralities_Consistent>
1

> <s_lp_Variant>
CHEMBL1910_lig35-1

> <s_i_glide_gridfile>
glide-grid_2e1w

> <i_i_glide_lignum>
45

> <i_i_glide_rotatable_bonds>
13

> <r_i_docking_score>
-7.94168437415724

> <r_i_glide_ligand_efficiency>
-0.264722812471908

> <r_i_glide_ligand_efficiency_sa>
-0.822555327047682

> <r_i_glide_ligand_efficiency_ln>
-1.80443722139042

> <r_i_glide_gscore>
-7.94168437415724

> <r_i_glide_lipo>
-3.24291214600905

> <r_i_glide_hbond>
-0.433757860075175

> <r_i_glide_metal>
0

> <r_i_glide_rewards>
-1.93913804653373

> <r_i_glide_evdw>
-47.1703224182129

> <r_i_glide_ecoul>
-7.21056652069092

> <r_i_glide_erotb>
1.15877846362968

> <r_i_glide_esite>
-0.0445536861546723

> <r_i_glide_emodel>
-81.5131512916652

> <r_i_glide_energy>
-54.3808889389038

> <r_i_glide_einternal>
5.47127056121826

> <i_i_glide_confnum>
83

> <i_i_glide_posenum>
170

> <r_i_glide_eff_state_penalty>
0

> <s_user_duplicate_titles>
CHEMBL1910_lig35,203677

> <s_m_subgroup_title>
dock_pv

> <s_m_subgroupid>
dock_pv

> <b_m_subgroup_collapsed>
0

$$$$
CHEMBL1910_lig40
                    3D
 Schrodinger Suite 2021-1.
 60 63  0  0  1  0            999 V2000
   51.4341   53.2574   21.3609 C   0  0  0  0  0  0
   50.8957   53.7861   20.2928 N   0  0  0  0  0  0
   51.3103   55.4590   21.6901 N   0  0  0  0  0  0
   51.6933   54.2742   22.2947 C   0  0  0  0  0  0
   48.4093   57.7450   19.8369 N   0  0  0  0  0  0
   50.9812   55.0698   20.4264 C   0  0  0  0  0  0
   48.3133   56.9843   18.6693 C   0  0  0  0  0  0
   51.7479   51.8569   21.3978 C   0  0  0  0  0  0
   48.0795   59.0458   19.5300 C   0  0  0  0  0  0
   47.7829   59.1718   18.1930 C   0  0  0  0  0  0
   47.9712   57.8824   17.6087 C   0  0  0  0  0  0
   48.4933   55.6125   18.4293 C   0  0  0  0  0  0
   48.8966   57.3134   21.1575 C   0  0  0  0  0  0
   50.3771   57.7728   21.3648 C   0  0  0  0  0  0
   51.3589   56.8446   22.1703 C   0  0  2  0  0  0
   52.8970   51.4451   21.4930 O   0  0  0  0  0  0
   47.8792   57.3921   16.2993 C   0  0  0  0  0  0
   50.7382   51.0449   21.0926 N   0  0  0  0  0  0
   48.3842   55.1461   17.1061 C   0  0  0  0  0  0
   46.0967   48.1278   17.6628 C   0  0  0  0  0  0
   48.0970   56.0355   16.0721 C   0  0  0  0  0  0
   44.9808   47.0449   18.4072 Cl  0  0  0  0  0  0
   47.9061   49.9104   16.5351 C   0  0  0  0  0  0
   45.8108   49.4865   17.6501 C   0  0  0  0  0  0
   47.2778   47.6539   17.0943 C   0  0  0  0  0  0
   46.7177   50.3775   17.0924 C   0  0  0  0  0  0
   48.1881   48.5436   16.5333 C   0  0  0  0  0  0
   48.5164   53.8201   16.7290 O   0  0  0  0  0  0
   52.9626   58.7142   22.2931 O   0  0  0  0  0  0
   52.8323   57.3233   22.0736 C   0  0  0  0  0  0
   48.9098   50.8975   15.9671 C   0  0  0  0  0  0
   48.8995   52.8427   17.6949 C   0  0  0  0  0  0
   49.6566   51.6602   17.0743 C   0  0  0  0  0  0
   52.0994   54.2526   23.2970 H   0  0  0  0  0  0
   50.7471   55.8041   19.6736 H   0  0  0  0  0  0
   48.0965   59.7986   20.3036 H   0  0  0  0  0  0
   47.4986   60.0869   17.6952 H   0  0  0  0  0  0
   48.6545   54.9381   19.2519 H   0  0  0  0  0  0
   48.7602   56.2357   21.2349 H   0  0  0  0  0  0
   48.2504   57.7466   21.9232 H   0  0  0  0  0  0
   50.3441   58.7435   21.8618 H   0  0  0  0  0  0
   50.8387   57.9793   20.3968 H   0  0  0  0  0  0
   51.0417   56.8306   23.2148 H   0  0  0  0  0  0
   47.6319   58.0514   15.4796 H   0  0  0  0  0  0
   50.8977   50.0426   21.0389 H   0  0  0  0  0  0
   49.7959   51.3975   21.0652 H   0  0  0  0  0  0
   48.0073   55.6499   15.0672 H   0  0  0  0  0  0
   44.8967   49.8541   18.0845 H   0  0  0  0  0  0
   47.5025   46.6051   17.0928 H   0  0  0  0  0  0
   46.4970   51.4339   17.0940 H   0  0  0  0  0  0
   49.1131   48.1722   16.1151 H   0  0  0  0  0  0
   52.5882   58.8884   23.1722 H   0  0  0  0  0  0
   53.4467   56.7965   22.8044 H   0  0  0  0  0  0
   53.2470   57.1111   21.0866 H   0  0  0  0  0  0
   48.4093   51.5843   15.2827 H   0  0  0  0  0  0
   49.6329   50.3578   15.3528 H   0  0  0  0  0  0
   49.6105   53.2731   18.3766 H   0  0  0  0  0  0
   48.0420   52.5236   18.2861 H   0  0  0  0  0  0
   50.6011   52.0320   16.6933 H   0  0  0  0  0  0
   49.9484   50.9647   17.8636 H   0  0  0  0  0  0
  1  2  1  0  0  0
  1  4  2  0  0  0
  1  8  1  0  0  0
  2  6  2  0  0  0
  3  4  1  0  0  0
  3 15  1  0  0  0
  3  6  1  0  0  0
  4 34  1  0  0  0
  5 13  1  0  0  0
  5  7  1  0  0  0
  5  9  1  0  0  0
  6 35  1  0  0  0
  7 11  1  0  0  0
  7 12  2  0  0  0
  8 16  2  0  0  0
  8 18  1  0  0  0
  9 10  2  0  0  0
  9 36  1  0  0  0
 10 11  1  0  0  0
 10 37  1  0  0  0
 11 17  2  0  0  0
 12 19  1  0  0  0
 12 38  1  0  0  0
 13 14  1  0  0  0
 13 39  1  0  0  0
 13 40  1  0  0  0
 14 15  1  0  0  0
 14 41  1  0  0  0
 14 42  1  0  0  0
 15 30  1  0  0  0
 15 43  1  0  0  0
 17 21  1  0  0  0
 17 44  1  0  0  0
 18 45  1  0  0  0
 18 46  1  0  0  0
 19 21  2  0  0  0
 19 28  1  0  0  0
 20 25  2  0  0  0
 20 22  1  0  0  0
 20 24  1  0  0  0
 21 47  1  0  0  0
 23 31  1  0  0  0
 23 26  1  0  0  0
 23 27  2  0  0  0
 24 26  2  0  0  0
 24 48  1  0  0  0
 25 27  1  0  0  0
 25 49  1  0  0  0
 26 50  1  0  0  0
 27 51  1  0  0  0
 28 32  1  0  0  0
 29 30  1  0  0  0
 29 52  1  0  0  0
 30 53  1  0  0  0
 30 54  1  0  0  0
 31 33  1  0  0  0
 31 55  1  0  0  0
 31 56  1  0  0  0
 32 33  1  0  0  0
 32 57  1  0  0  0
 32 58  1  0  0  0
 33 59  1  0  0  0
 33 60  1  0  0  0
M  END
> <s_m_entry_id>
10576

> <s_m_entry_name>
dock_pv.13

> <s_m_Source_Path>
/home/csk/Desktop/cluster/DUD-E-result/ada

> <s_m_Source_File>
dock_pv.maegz

> <i_m_Source_File_Index>
13

> <chembl_id>
CHEMBL340557

> <chembl_pref_name>
None

> <i_lp_mmshare_version>
53161

> <i_f3d_flags>
0

> <r_lp_tautomer_probability>
1

> <s_lp_Force_Field>
OPLS_2005

> <r_lp_Energy>
18.637934

> <b_lp_Chiralities_Consistent>
1

> <s_lp_Variant>
CHEMBL1910_lig40-1

> <s_i_glide_gridfile>
glide-grid_2e1w

> <i_i_glide_lignum>
49

> <i_i_glide_rotatable_bonds>
12

> <r_i_docking_score>
-7.91124849202261

> <r_i_glide_ligand_efficiency>
-0.239734802788564

> <r_i_glide_ligand_efficiency_sa>
-0.768957609142876

> <r_i_glide_ligand_efficiency_ln>
-1.75942070237339

> <r_i_glide_gscore>
-7.91124849202261

> <r_i_glide_lipo>
-3.3752885012994

> <r_i_glide_hbond>
-0.74081043299195

> <r_i_glide_metal>
0

> <r_i_glide_rewards>
-0.441815358377074

> <r_i_glide_evdw>
-50.1638259887695

> <r_i_glide_ecoul>
-9.72373867034912

> <r_i_glide_erotb>
0.83286997511309

> <r_i_glide_esite>
-0.219452074476435

> <r_i_glide_emodel>
-87.0856839480725

> <r_i_glide_energy>
-59.8875646591187

> <r_i_glide_einternal>
14.6952953338623

> <i_i_glide_confnum>
36

> <i_i_glide_posenum>
381

> <r_i_glide_eff_state_penalty>
0

> <s_user_duplicate_titles>
CHEMBL1910_lig40,203883

> <s_m_subgroup_title>
dock_pv

> <s_m_subgroupid>
dock_pv

> <b_m_subgroup_collapsed>
0

$$$$
CHEMBL1910_lig11
                    3D
 Schrodinger Suite 2021-1.
 39 40  0  0  1  0            999 V2000
   51.2582   54.6478   20.7949 C   0  0  0  0  0  0
   51.5058   55.5924   21.7605 N   0  0  0  0  0  0
   51.6971   54.8445   22.8914 C   0  0  0  0  0  0
   51.5678   53.5558   22.6930 N   0  0  0  0  0  0
   51.2456   53.4017   21.4186 C   0  0  0  0  0  0
   50.9033   52.1550   20.7759 C   0  0  0  0  0  0
   50.4969   52.1226   19.6175 O   0  0  0  0  0  0
   51.0936   51.0453   21.4930 N   0  0  0  0  0  0
   51.5932   57.0540   21.6295 C   0  0  1  0  0  0
   53.0754   57.5380   21.5421 C   0  0  1  0  0  0
   53.8184   57.1841   22.6929 O   0  0  0  0  0  0
   50.7333   57.5743   20.4407 C   0  0  0  0  0  0
   49.2067   57.3281   20.5294 C   0  0  0  0  0  0
   48.5172   57.7357   19.2258 C   0  0  0  0  0  0
   48.0505   59.0477   19.0943 C   0  0  0  0  0  0
   47.5386   59.4992   17.8800 C   0  0  0  0  0  0
   47.5004   58.6455   16.7794 C   0  0  0  0  0  0
   47.9463   57.3302   16.8960 C   0  0  0  0  0  0
   48.4320   56.8595   18.1261 C   0  0  0  0  0  0
   47.8843   56.3098   15.4981 Cl  0  0  0  0  0  0
   48.8983   55.1971   18.2742 Cl  0  0  0  0  0  0
   53.8629   57.0233   20.3217 C   0  0  0  0  0  0
   51.0663   54.9383   19.7763 H   0  0  0  0  0  0
   51.9362   55.3248   23.8295 H   0  0  0  0  0  0
   50.8976   50.1343   21.0898 H   0  0  0  0  0  0
   51.2991   51.0910   22.4888 H   0  0  0  0  0  0
   51.1590   57.4679   22.5429 H   0  0  0  0  0  0
   53.0751   58.6294   21.5163 H   0  0  0  0  0  0
   53.3184   57.4445   23.4861 H   0  0  0  0  0  0
   50.8995   58.6450   20.3336 H   0  0  0  0  0  0
   51.1094   57.1417   19.5118 H   0  0  0  0  0  0
   48.9759   56.2880   20.7615 H   0  0  0  0  0  0
   48.7880   57.8934   21.3642 H   0  0  0  0  0  0
   48.0972   59.7304   19.9296 H   0  0  0  0  0  0
   47.1842   60.5158   17.7876 H   0  0  0  0  0  0
   47.1198   59.0042   15.8340 H   0  0  0  0  0  0
   53.4193   57.3657   19.3871 H   0  0  0  0  0  0
   54.8945   57.3780   20.3353 H   0  0  0  0  0  0
   53.8906   55.9334   20.2929 H   0  0  0  0  0  0
  1  2  1  0  0  0
  1  5  2  0  0  0
  1 23  1  0  0  0
  2  3  1  0  0  0
  2  9  1  0  0  0
  3  4  2  0  0  0
  3 24  1  0  0  0
  4  5  1  0  0  0
  5  6  1  0  0  0
  6  7  2  0  0  0
  6  8  1  0  0  0
  8 25  1  0  0  0
  8 26  1  0  0  0
  9 10  1  0  0  0
  9 12  1  0  0  0
  9 27  1  0  0  0
 10 11  1  0  0  0
 10 22  1  0  0  0
 10 28  1  0  0  0
 11 29  1  0  0  0
 12 13  1  0  0  0
 12 30  1  0  0  0
 12 31  1  0  0  0
 13 14  1  0  0  0
 13 32  1  0  0  0
 13 33  1  0  0  0
 14 15  2  0  0  0
 14 19  1  0  0  0
 15 16  1  0  0  0
 15 34  1  0  0  0
 16 17  2  0  0  0
 16 35  1  0  0  0
 17 18  1  0  0  0
 17 36  1  0  0  0
 18 19  2  0  0  0
 18 20  1  0  0  0
 19 21  1  0  0  0
 22 37  1  0  0  0
 22 38  1  0  0  0
 22 39  1  0  0  0
M  END
> <s_m_entry_id>
10577

> <s_m_entry_name>
dock_pv.14

> <s_m_Source_Path>
/home/csk/Desktop/cluster/DUD-E-result/ada

> <s_m_Source_File>
dock_pv.maegz

> <i_m_Source_File_Index>
14

> <chembl_id>
CHEMBL328139

> <chembl_pref_name>
None

> <i_lp_mmshare_version>
53161

> <i_f3d_flags>
0

> <r_lp_tautomer_probability>
1

> <s_lp_Force_Field>
OPLS_2005

> <r_lp_Energy>
14.542764

> <b_lp_Chiralities_Consistent>
1

> <s_lp_Variant>
CHEMBL1910_lig11-1

> <s_i_glide_gridfile>
glide-grid_2e1w

> <i_i_glide_lignum>
13

> <i_i_glide_rotatable_bonds>
7

> <r_i_docking_score>
-7.70342470310287

> <r_i_glide_ligand_efficiency>
-0.350155668322858

> <r_i_glide_ligand_efficiency_sa>
-0.981149953481645

> <r_i_glide_ligand_efficiency_ln>
-1.88299798668165

> <r_i_glide_gscore>
-7.70342470310287

> <r_i_glide_lipo>
-2.08060810516574

> <r_i_glide_hbond>
-0.98274890327558

> <r_i_glide_metal>
0

> <r_i_glide_rewards>
-1.41010680138695

> <r_i_glide_evdw>
-35.808162689209

> <r_i_glide_ecoul>
-12.7813959121704

> <r_i_glide_erotb>
0.647564159100394

> <r_i_glide_esite>
-0.169907531088986

> <r_i_glide_emodel>
-71.0794093388286

> <r_i_glide_energy>
-48.5895586013794

> <r_i_glide_einternal>
3.06208205223083

> <i_i_glide_confnum>
25

> <i_i_glide_posenum>
375

> <r_i_glide_eff_state_penalty>
0

> <s_user_duplicate_titles>
CHEMBL1910_lig11,149134

> <s_m_subgroup_title>
dock_pv

> <s_m_subgroupid>
dock_pv

> <b_m_subgroup_collapsed>
0

$$$$
CHEMBL1910_lig38
                    3D
 Schrodinger Suite 2021-1.
 59 61  0  0  1  0            999 V2000
   51.3551   53.7866   21.6748 C   0  0  0  0  0  0
   51.5728   53.9811   22.9660 N   0  0  0  0  0  0
   51.6258   55.9743   21.9502 N   0  0  0  0  0  0
   51.4674   54.9995   20.9979 C   0  0  0  0  0  0
   48.5960   57.8758   19.5459 N   0  0  0  0  0  0
   51.6957   55.2716   23.1206 C   0  0  0  0  0  0
   48.4498   56.8534   18.6193 C   0  0  0  0  0  0
   50.9971   52.5343   21.0627 C   0  0  0  0  0  0
   48.0970   59.0401   19.0028 C   0  0  0  0  0  0
   47.6970   58.8214   17.7014 C   0  0  0  0  0  0
   48.7188   55.4819   18.7162 C   0  0  0  0  0  0
   47.9607   57.4450   17.4146 C   0  0  0  0  0  0
   48.4322   52.2761   16.9836 C   0  0  0  0  0  0
   48.7988   53.3264   17.7454 N   0  0  0  0  0  0
   49.2955   57.7663   20.8246 C   0  0  0  0  0  0
   50.8269   57.9088   20.6024 C   0  0  0  0  0  0
   48.4970   54.6933   17.5860 C   0  0  0  0  0  0
   51.7096   57.4266   21.7878 C   0  0  2  0  0  0
   50.6259   52.4787   19.8930 O   0  0  0  0  0  0
   47.6970   52.3546   16.0026 O   0  0  0  0  0  0
   47.8311   56.6450   16.2718 C   0  0  0  0  0  0
   51.1082   51.4448   21.8211 N   0  0  0  0  0  0
   48.0970   55.2774   16.3735 C   0  0  0  0  0  0
   54.0453   57.3790   22.6930 O   0  0  0  0  0  0
   49.0016   50.9106   17.4050 C   0  0  0  0  0  0
   53.1851   57.8988   21.6851 C   0  0  0  0  0  0
   48.1265   49.6844   17.0506 C   0  0  0  0  0  0
   46.0010   48.3258   17.5287 C   0  0  0  0  0  0
   46.8331   49.5706   17.8841 C   0  0  0  0  0  0
   44.7424   48.1791   18.3947 C   0  0  0  0  0  0
   51.3708   55.2488   19.9533 H   0  0  0  0  0  0
   51.7920   55.7893   24.0596 H   0  0  0  0  0  0
   48.0969   59.9505   19.5824 H   0  0  0  0  0  0
   47.2918   59.5668   17.0334 H   0  0  0  0  0  0
   49.0571   55.0415   19.6424 H   0  0  0  0  0  0
   49.3563   53.0988   18.5606 H   0  0  0  0  0  0
   48.9200   58.5203   21.5187 H   0  0  0  0  0  0
   49.0415   56.8007   21.2656 H   0  0  0  0  0  0
   51.1327   57.3832   19.6984 H   0  0  0  0  0  0
   51.0511   58.9470   20.3719 H   0  0  0  0  0  0
   51.2842   57.8529   22.6930 H   0  0  0  0  0  0
   47.4897   57.0681   15.3386 H   0  0  0  0  0  0
   50.8970   50.5371   21.4295 H   0  0  0  0  0  0
   51.2972   51.4989   22.8207 H   0  0  0  0  0  0
   47.9720   54.6724   15.4930 H   0  0  0  0  0  0
   53.6358   57.4767   23.5796 H   0  0  0  0  0  0
   49.2236   50.8939   18.4719 H   0  0  0  0  0  0
   49.9614   50.8130   16.8956 H   0  0  0  0  0  0
   53.6012   57.6298   20.7130 H   0  0  0  0  0  0
   53.2202   58.9872   21.7474 H   0  0  0  0  0  0
   48.7241   48.7848   17.2098 H   0  0  0  0  0  0
   47.8883   49.6883   15.9851 H   0  0  0  0  0  0
   46.6141   47.4300   17.6399 H   0  0  0  0  0  0
   45.7110   48.3686   16.4778 H   0  0  0  0  0  0
   46.2233   50.4645   17.7440 H   0  0  0  0  0  0
   47.0919   49.5396   18.9440 H   0  0  0  0  0  0
   44.1695   47.2963   18.1078 H   0  0  0  0  0  0
   44.0885   49.0448   18.2928 H   0  0  0  0  0  0
   44.9993   48.0772   19.4497 H   0  0  0  0  0  0
  1  2  1  0  0  0
  1  4  2  0  0  0
  1  8  1  0  0  0
  2  6  2  0  0  0
  3  4  1  0  0  0
  3 18  1  0  0  0
  3  6  1  0  0  0
  4 31  1  0  0  0
  5 15  1  0  0  0
  5  7  1  0  0  0
  5  9  1  0  0  0
  6 32  1  0  0  0
  7 11  2  0  0  0
  7 12  1  0  0  0
  8 19  2  0  0  0
  8 22  1  0  0  0
  9 10  2  0  0  0
  9 33  1  0  0  0
 10 12  1  0  0  0
 10 34  1  0  0  0
 11 17  1  0  0  0
 11 35  1  0  0  0
 12 21  2  0  0  0
 13 14  1  0  0  0
 13 20  2  0  0  0
 13 25  1  0  0  0
 14 17  1  0  0  0
 14 36  1  0  0  0
 15 16  1  0  0  0
 15 37  1  0  0  0
 15 38  1  0  0  0
 16 18  1  0  0  0
 16 39  1  0  0  0
 16 40  1  0  0  0
 17 23  2  0  0  0
 18 26  1  0  0  0
 18 41  1  0  0  0
 21 23  1  0  0  0
 21 42  1  0  0  0
 22 43  1  0  0  0
 22 44  1  0  0  0
 23 45  1  0  0  0
 24 26  1  0  0  0
 24 46  1  0  0  0
 25 27  1  0  0  0
 25 47  1  0  0  0
 25 48  1  0  0  0
 26 49  1  0  0  0
 26 50  1  0  0  0
 27 29  1  0  0  0
 27 51  1  0  0  0
 27 52  1  0  0  0
 28 29  1  0  0  0
 28 30  1  0  0  0
 28 53  1  0  0  0
 28 54  1  0  0  0
 29 55  1  0  0  0
 29 56  1  0  0  0
 30 57  1  0  0  0
 30 58  1  0  0  0
 30 59  1  0  0  0
M  END
> <s_m_entry_id>
10578

> <s_m_entry_name>
dock_pv.15

> <s_m_Source_Path>
/home/csk/Desktop/cluster/DUD-E-result/ada

> <s_m_Source_File>
dock_pv.maegz

> <i_m_Source_File_Index>
15

> <chembl_id>
CHEMBL334197

> <chembl_pref_name>
None

> <i_lp_mmshare_version>
53161

> <i_f3d_flags>
0

> <r_lp_tautomer_probability>
1

> <s_lp_Force_Field>
OPLS_2005

> <r_lp_Energy>
21.366002

> <b_lp_Chiralities_Consistent>
1

> <s_lp_Variant>
CHEMBL1910_lig38-1

> <s_i_glide_gridfile>
glide-grid_2e1w

> <i_i_glide_lignum>
48

> <i_i_glide_rotatable_bonds>
13

> <r_i_docking_score>
-7.67329814756491

> <r_i_glide_ligand_efficiency>
-0.25577660491883

> <r_i_glide_ligand_efficiency_sa>
-0.794757380165265

> <r_i_glide_ligand_efficiency_ln>
-1.74345694640648

> <r_i_glide_gscore>
-7.67329814756491

> <r_i_glide_lipo>
-2.59050254109066

> <r_i_glide_hbond>
-0.848045314511936

> <r_i_glide_metal>
0

> <r_i_glide_rewards>
-0.767393629917696

> <r_i_glide_evdw>
-45.4574546813965

> <r_i_glide_ecoul>
-14.6028738021851

> <r_i_glide_erotb>
1.16400711390771

> <r_i_glide_esite>
-0.168059971554747

> <r_i_glide_emodel>
-84.9222542287818

> <r_i_glide_energy>
-60.0603284835815

> <r_i_glide_einternal>
4.7655143737793

> <i_i_glide_confnum>
137

> <i_i_glide_posenum>
81

> <r_i_glide_eff_state_penalty>
0

> <s_user_duplicate_titles>
CHEMBL1910_lig38,203238

> <s_m_subgroup_title>
dock_pv

> <s_m_subgroupid>
dock_pv

> <b_m_subgroup_collapsed>
0

$$$$
CHEMBL1910_lig47
                    3D
 Schrodinger Suite 2021-1.
 53 55  0  0  1  0            999 V2000
   51.2815   53.4346   21.4449 C   0  0  0  0  0  0
   51.6251   53.5469   22.7111 N   0  0  0  0  0  0
   51.4947   55.6175   21.8742 N   0  0  0  0  0  0
   51.2776   54.7077   20.8644 C   0  0  0  0  0  0
   48.5177   57.4567   19.5019 N   0  0  0  0  0  0
   51.6969   54.8268   22.9699 C   0  0  0  0  0  0
   48.4194   56.4347   18.5694 C   0  0  0  0  0  0
   50.9245   52.1960   20.7946 C   0  0  0  0  0  0
   48.1643   58.6464   18.9043 C   0  0  0  0  0  0
   47.9102   58.4411   17.5661 C   0  0  0  0  0  0
   48.0973   57.0452   17.3187 C   0  0  0  0  0  0
   48.5882   55.0474   18.6966 C   0  0  0  0  0  0
   49.1018   57.3328   20.8299 C   0  0  0  0  0  0
   50.6160   57.6297   20.7040 C   0  0  0  0  0  0
   51.5203   57.0866   21.8312 C   0  0  2  0  0  0
   50.4967   52.1926   19.6477 O   0  0  0  0  0  0
   48.0089   56.2384   16.1778 C   0  0  0  0  0  0
   51.1074   51.0672   21.4926 N   0  0  0  0  0  0
   48.3708   54.2566   17.5697 C   0  0  0  0  0  0
   48.0970   54.8557   16.3365 C   0  0  0  0  0  0
   48.4183   52.8897   17.7572 O   0  0  0  0  0  0
   53.8463   57.1960   22.6930 O   0  0  0  0  0  0
   52.9636   57.6298   21.6778 C   0  0  0  0  0  0
   47.8930   52.0187   16.7534 C   0  0  0  0  0  0
   47.7931   50.5880   17.3084 C   0  0  0  0  0  0
   49.1536   49.8784   17.4372 C   0  0  0  0  0  0
   49.0738   48.5494   18.2001 C   0  0  0  0  0  0
   51.0705   55.0388   19.8585 H   0  0  0  0  0  0
   51.9046   55.2745   23.9294 H   0  0  0  0  0  0
   48.1751   59.5617   19.4787 H   0  0  0  0  0  0
   47.6363   59.2035   16.8516 H   0  0  0  0  0  0
   48.8009   54.5794   19.6441 H   0  0  0  0  0  0
   48.9014   56.3271   21.2028 H   0  0  0  0  0  0
   48.6100   58.0223   21.5181 H   0  0  0  0  0  0
   50.7371   58.7059   20.6380 H   0  0  0  0  0  0
   51.0047   57.2619   19.7525 H   0  0  0  0  0  0
   51.1127   57.4411   22.7792 H   0  0  0  0  0  0
   47.7757   56.6694   15.2145 H   0  0  0  0  0  0
   50.8962   50.1675   21.0752 H   0  0  0  0  0  0
   51.3151   51.0939   22.4885 H   0  0  0  0  0  0
   47.9355   54.2229   15.4930 H   0  0  0  0  0  0
   53.4792   57.4454   23.5683 H   0  0  0  0  0  0
   53.3805   57.3462   20.7103 H   0  0  0  0  0  0
   52.9475   58.7205   21.7051 H   0  0  0  0  0  0
   46.8932   52.3484   16.4649 H   0  0  0  0  0  0
   48.5170   52.0371   15.8574 H   0  0  0  0  0  0
   47.2970   50.6208   18.2787 H   0  0  0  0  0  0
   47.1466   49.9959   16.6604 H   0  0  0  0  0  0
   49.5723   49.7038   16.4465 H   0  0  0  0  0  0
   49.8640   50.5275   17.9422 H   0  0  0  0  0  0
   50.0642   48.1011   18.2946 H   0  0  0  0  0  0
   48.6856   48.6950   19.2078 H   0  0  0  0  0  0
   48.4330   47.8321   17.6898 H   0  0  0  0  0  0
  1  2  1  0  0  0
  1  4  2  0  0  0
  1  8  1  0  0  0
  2  6  2  0  0  0
  3  4  1  0  0  0
  3 15  1  0  0  0
  3  6  1  0  0  0
  4 28  1  0  0  0
  5 13  1  0  0  0
  5  7  1  0  0  0
  5  9  1  0  0  0
  6 29  1  0  0  0
  7 11  1  0  0  0
  7 12  2  0  0  0
  8 16  2  0  0  0
  8 18  1  0  0  0
  9 10  2  0  0  0
  9 30  1  0  0  0
 10 11  1  0  0  0
 10 31  1  0  0  0
 11 17  2  0  0  0
 12 19  1  0  0  0
 12 32  1  0  0  0
 13 14  1  0  0  0
 13 33  1  0  0  0
 13 34  1  0  0  0
 14 15  1  0  0  0
 14 35  1  0  0  0
 14 36  1  0  0  0
 15 23  1  0  0  0
 15 37  1  0  0  0
 17 20  1  0  0  0
 17 38  1  0  0  0
 18 39  1  0  0  0
 18 40  1  0  0  0
 19 20  2  0  0  0
 19 21  1  0  0  0
 20 41  1  0  0  0
 21 24  1  0  0  0
 22 23  1  0  0  0
 22 42  1  0  0  0
 23 43  1  0  0  0
 23 44  1  0  0  0
 24 25  1  0  0  0
 24 45  1  0  0  0
 24 46  1  0  0  0
 25 26  1  0  0  0
 25 47  1  0  0  0
 25 48  1  0  0  0
 26 27  1  0  0  0
 26 49  1  0  0  0
 26 50  1  0  0  0
 27 51  1  0  0  0
 27 52  1  0  0  0
 27 53  1  0  0  0
M  END
> <s_m_entry_id>
10579

> <s_m_entry_name>
dock_pv.16

> <s_m_Source_Path>
/home/csk/Desktop/cluster/DUD-E-result/ada

> <s_m_Source_File>
dock_pv.maegz

> <i_m_Source_File_Index>
16

> <chembl_id>
CHEMBL125275

> <chembl_pref_name>
None

> <i_lp_mmshare_version>
53161

> <i_f3d_flags>
0

> <r_lp_tautomer_probability>
1

> <s_lp_Force_Field>
OPLS_2005

> <r_lp_Energy>
16.577853

> <b_lp_Chiralities_Consistent>
1

> <s_lp_Variant>
CHEMBL1910_lig47-1

> <s_i_glide_gridfile>
glide-grid_2e1w

> <i_i_glide_lignum>
56

> <i_i_glide_rotatable_bonds>
11

> <r_i_docking_score>
-7.30850197422492

> <r_i_glide_ligand_efficiency>
-0.270685258304627

> <r_i_glide_ligand_efficiency_sa>
-0.812055774021746

> <r_i_glide_ligand_efficiency_ln>
-1.70129876952771

> <r_i_glide_gscore>
-7.30850197422492

> <r_i_glide_lipo>
-2.05335256170776

> <r_i_glide_hbond>
-0.996726795389636

> <r_i_glide_metal>
0

> <r_i_glide_rewards>
-1.04964149374572

> <r_i_glide_evdw>
-40.4718818664551

> <r_i_glide_ecoul>
-14.2622547149658

> <r_i_glide_erotb>
1.12466338125589

> <r_i_glide_esite>
-0.170512204070061

> <r_i_glide_emodel>
-75.4972070249631

> <r_i_glide_energy>
-54.7341365814209

> <r_i_glide_einternal>
8.53098678588867

> <i_i_glide_confnum>
120

> <i_i_glide_posenum>
336

> <r_i_glide_eff_state_penalty>
0

> <s_user_duplicate_titles>
CHEMBL1910_lig47,203884

> <s_m_subgroup_title>
dock_pv

> <s_m_subgroupid>
dock_pv

> <b_m_subgroup_collapsed>
0

$$$$
CHEMBL1910_lig33
                    3D
 Schrodinger Suite 2021-1.
 63 66  0  0  1  0            999 V2000
   46.4299   58.0547   14.9504 C   0  0  0  0  0  0
   45.1984   58.5318   15.0942 N   0  0  0  0  0  0
   46.5007   59.4878   16.6701 N   0  0  0  0  0  0
   47.2592   58.6449   15.8944 C   0  0  0  0  0  0
   48.7253   57.4847   19.9474 N   0  0  0  0  0  0
   45.2530   59.3820   16.0966 C   0  0  0  0  0  0
   49.2140   56.1873   19.8845 C   0  0  0  0  0  0
   46.8780   57.0706   13.9885 C   0  0  0  0  0  0
   49.0952   58.0324   21.1575 C   0  0  0  0  0  0
   49.8116   57.1141   21.8930 C   0  0  0  0  0  0
   49.1241   55.2307   18.8641 C   0  0  0  0  0  0
   49.9021   55.9247   21.1054 C   0  0  0  0  0  0
   49.6133   51.7193   18.0769 C   0  0  0  0  0  0
   49.5767   53.0639   18.0344 N   0  0  0  0  0  0
   48.0890   58.1486   18.8109 C   0  0  0  0  0  0
   47.2881   59.4418   19.0927 C   0  0  0  0  0  0
   49.6969   53.9801   19.0939 C   0  0  0  0  0  0
   46.9558   60.2980   17.8244 C   0  0  2  0  0  0
   48.0330   56.6451   13.9814 O   0  0  0  0  0  0
   49.6970   51.0627   19.1138 O   0  0  0  0  0  0
   50.4949   54.6679   21.2936 C   0  0  0  0  0  0
   45.9607   56.6414   13.1194 N   0  0  0  0  0  0
   49.5620   51.0204   16.7085 C   0  0  0  0  0  0
   50.3713   53.7046   20.2932 C   0  0  0  0  0  0
   47.9864   49.0166   17.0681 C   0  0  0  0  0  0
   45.4190   48.1186   17.6489 C   0  0  0  0  0  0
   49.3971   49.4823   16.7415 C   0  0  0  0  0  0
   47.0384   48.9093   16.0482 C   0  0  0  0  0  0
   47.6438   48.6870   18.3809 C   0  0  0  0  0  0
   46.3576   48.2445   18.6722 C   0  0  0  0  0  0
   45.7547   48.4590   16.3381 C   0  0  0  0  0  0
   46.4977   62.3436   19.0962 O   0  0  0  0  0  0
   45.9754   61.4621   18.1204 C   0  0  0  0  0  0
   44.0391   47.5944   17.9707 C   0  0  0  0  0  0
   48.3198   58.5331   16.0527 H   0  0  0  0  0  0
   44.4171   59.9384   16.4914 H   0  0  0  0  0  0
   48.8387   59.0479   21.4087 H   0  0  0  0  0  0
   50.2230   57.2901   22.8793 H   0  0  0  0  0  0
   48.6088   55.4439   17.9386 H   0  0  0  0  0  0
   49.3887   53.4704   17.1320 H   0  0  0  0  0  0
   48.8968   58.3709   18.1221 H   0  0  0  0  0  0
   47.4372   57.4241   18.3202 H   0  0  0  0  0  0
   46.3727   59.1841   19.6272 H   0  0  0  0  0  0
   47.8565   60.0817   19.7667 H   0  0  0  0  0  0
   47.8876   60.7572   17.4906 H   0  0  0  0  0  0
   51.0176   54.4401   22.2119 H   0  0  0  0  0  0
   46.2054   55.9286   12.4451 H   0  0  0  0  0  0
   45.0213   57.0027   13.1532 H   0  0  0  0  0  0
   50.4969   51.2495   16.2002 H   0  0  0  0  0  0
   48.7659   51.4624   16.1074 H   0  0  0  0  0  0
   50.8189   52.7373   20.4692 H   0  0  0  0  0  0
   50.0969   49.0288   17.4458 H   0  0  0  0  0  0
   49.6799   49.0649   15.7739 H   0  0  0  0  0  0
   47.2979   49.1668   15.0315 H   0  0  0  0  0  0
   48.3721   48.7689   19.1752 H   0  0  0  0  0  0
   46.0949   47.9945   19.6901 H   0  0  0  0  0  0
   45.0304   48.3661   15.5428 H   0  0  0  0  0  0
   46.3512   61.9652   19.9682 H   0  0  0  0  0  0
   45.7896   62.0436   17.2159 H   0  0  0  0  0  0
   45.0118   61.0890   18.4741 H   0  0  0  0  0  0
   44.1129   46.6014   18.4193 H   0  0  0  0  0  0
   43.5436   48.2459   18.6923 H   0  0  0  0  0  0
   43.4064   47.5185   17.0820 H   0  0  0  0  0  0
  1  2  1  0  0  0
  1  4  2  0  0  0
  1  8  1  0  0  0
  2  6  2  0  0  0
  3  4  1  0  0  0
  3 18  1  0  0  0
  3  6  1  0  0  0
  4 35  1  0  0  0
  5 15  1  0  0  0
  5  7  1  0  0  0
  5  9  1  0  0  0
  6 36  1  0  0  0
  7 11  2  0  0  0
  7 12  1  0  0  0
  8 19  2  0  0  0
  8 22  1  0  0  0
  9 10  2  0  0  0
  9 37  1  0  0  0
 10 12  1  0  0  0
 10 38  1  0  0  0
 11 17  1  0  0  0
 11 39  1  0  0  0
 12 21  2  0  0  0
 13 14  1  0  0  0
 13 20  2  0  0  0
 13 23  1  0  0  0
 14 17  1  0  0  0
 14 40  1  0  0  0
 15 16  1  0  0  0
 15 41  1  0  0  0
 15 42  1  0  0  0
 16 18  1  0  0  0
 16 43  1  0  0  0
 16 44  1  0  0  0
 17 24  2  0  0  0
 18 33  1  0  0  0
 18 45  1  0  0  0
 21 24  1  0  0  0
 21 46  1  0  0  0
 22 47  1  0  0  0
 22 48  1  0  0  0
 23 27  1  0  0  0
 23 49  1  0  0  0
 23 50  1  0  0  0
 24 51  1  0  0  0
 25 27  1  0  0  0
 25 28  2  0  0  0
 25 29  1  0  0  0
 26 30  1  0  0  0
 26 34  1  0  0  0
 26 31  2  0  0  0
 27 52  1  0  0  0
 27 53  1  0  0  0
 28 31  1  0  0  0
 28 54  1  0  0  0
 29 30  2  0  0  0
 29 55  1  0  0  0
 30 56  1  0  0  0
 31 57  1  0  0  0
 32 33  1  0  0  0
 32 58  1  0  0  0
 33 59  1  0  0  0
 33 60  1  0  0  0
 34 61  1  0  0  0
 34 62  1  0  0  0
 34 63  1  0  0  0
M  END
> <s_m_entry_id>
10580

> <s_m_entry_name>
dock_pv.17

> <s_m_Source_Path>
/home/csk/Desktop/cluster/DUD-E-result/ada

> <s_m_Source_File>
dock_pv.maegz

> <i_m_Source_File_Index>
17

> <chembl_id>
CHEMBL121714

> <chembl_pref_name>
None

> <i_lp_mmshare_version>
53161

> <i_f3d_flags>
0

> <r_lp_tautomer_probability>
1

> <s_lp_Force_Field>
OPLS_2005

> <r_lp_Energy>
22.51631

> <b_lp_Chiralities_Consistent>
1

> <s_lp_Variant>
CHEMBL1910_lig33-1

> <s_i_glide_gridfile>
glide-grid_2e1w

> <i_i_glide_lignum>
43

> <i_i_glide_rotatable_bonds>
12

> <r_i_docking_score>
-6.84263988530997

> <r_i_glide_ligand_efficiency>
-0.201254114273823

> <r_i_glide_ligand_efficiency_sa>
-0.651985202890745

> <r_i_glide_ligand_efficiency_ln>
-1.51173108021267

> <r_i_glide_gscore>
-6.84263988530997

> <r_i_glide_lipo>
-3.04930635340968

> <r_i_glide_hbond>
-0.0747730441108921

> <r_i_glide_metal>
0

> <r_i_glide_rewards>
-1.55771678668821

> <r_i_glide_evdw>
-53.6660041809082

> <r_i_glide_ecoul>
-2.81573677062988

> <r_i_glide_erotb>
0.952821066254587

> <r_i_glide_esite>
-0.00800404271588539

> <r_i_glide_emodel>
-75.5445640601011

> <r_i_glide_energy>
-56.4817409515381

> <r_i_glide_einternal>
10.3283700942993

> <i_i_glide_confnum>
164

> <i_i_glide_posenum>
50

> <r_i_glide_eff_state_penalty>
0

> <s_user_duplicate_titles>
CHEMBL1910_lig33,203316

> <s_m_subgroup_title>
dock_pv

> <s_m_subgroupid>
dock_pv

> <b_m_subgroup_collapsed>
0

$$$$
CHEMBL1910_lig28
                    3D
 Schrodinger Suite 2021-1.
 60 63  0  0  1  0            999 V2000
   51.3200   54.2310   21.9692 C   0  0  0  0  0  0
   50.9326   55.4296   21.4167 N   0  0  0  0  0  0
   50.5763   55.0810   20.1410 C   0  0  0  0  0  0
   50.4971   53.7955   19.9408 N   0  0  0  0  0  0
   51.0594   53.2477   21.0107 C   0  0  0  0  0  0
   51.4144   51.8581   21.0929 C   0  0  0  0  0  0
   52.4992   51.4497   21.4984 O   0  0  0  0  0  0
   50.4971   51.0408   20.5997 N   0  0  0  0  0  0
   50.9723   56.7774   22.0068 C   0  0  1  0  0  0
   52.4421   57.2172   22.2266 C   0  0  0  0  0  0
   53.1852   57.2751   21.0208 O   0  0  0  0  0  0
   50.1595   57.8212   21.1703 C   0  0  0  0  0  0
   48.6480   57.5219   20.9289 C   0  0  0  0  0  0
   48.2082   58.1009   19.6522 N   0  0  0  0  0  0
   47.9339   59.4350   19.4524 C   0  0  0  0  0  0
   47.6917   59.6845   18.1207 C   0  0  0  0  0  0
   47.8043   58.4344   17.4388 C   0  0  0  0  0  0
   48.0970   57.4456   18.4283 C   0  0  0  0  0  0
   47.6967   58.0439   16.0956 C   0  0  0  0  0  0
   47.8667   56.7010   15.7628 C   0  0  0  0  0  0
   48.0970   55.7327   16.7401 C   0  0  0  0  0  0
   48.2159   56.0931   18.0907 C   0  0  0  0  0  0
   48.1868   54.4032   16.2909 N   0  0  0  0  0  0
   48.1179   53.2461   16.9799 C   0  0  0  0  0  0
   47.7638   53.1583   18.1510 O   0  0  0  0  0  0
   48.4963   51.9826   16.1859 C   0  0  0  0  0  0
   48.9884   50.7775   17.0354 C   0  0  0  0  0  0
   48.4424   48.3353   16.6583 C   0  0  0  0  0  0
   48.0153   49.6026   17.0659 C   0  0  0  0  0  0
   46.7039   49.7867   17.5151 C   0  0  0  0  0  0
   45.8208   48.7102   17.5526 C   0  0  0  0  0  0
   46.2534   47.4509   17.1414 C   0  0  0  0  0  0
   47.5591   47.2599   16.6930 C   0  0  0  0  0  0
   51.7427   54.1758   22.9632 H   0  0  0  0  0  0
   50.3532   55.8509   19.4245 H   0  0  0  0  0  0
   50.6520   50.0390   20.6584 H   0  0  0  0  0  0
   49.6069   51.3967   20.2899 H   0  0  0  0  0  0
   50.4975   56.6995   22.9873 H   0  0  0  0  0  0
   52.4729   58.2035   22.6918 H   0  0  0  0  0  0
   52.9411   56.5413   22.9228 H   0  0  0  0  0  0
   54.0103   57.7340   21.1908 H   0  0  0  0  0  0
   50.6720   57.9702   20.2162 H   0  0  0  0  0  0
   50.2279   58.7865   21.6746 H   0  0  0  0  0  0
   48.0383   57.9266   21.7381 H   0  0  0  0  0  0
   48.4268   56.4558   20.9096 H   0  0  0  0  0  0
   47.9537   60.1111   20.2926 H   0  0  0  0  0  0
   47.4638   60.6502   17.6953 H   0  0  0  0  0  0
   47.4875   58.7706   15.3244 H   0  0  0  0  0  0
   47.7727   56.4136   14.7246 H   0  0  0  0  0  0
   48.3552   55.3496   18.8556 H   0  0  0  0  0  0
   48.3197   54.3044   15.2970 H   0  0  0  0  0  0
   49.2939   52.2460   15.4937 H   0  0  0  0  0  0
   47.6539   51.6950   15.5573 H   0  0  0  0  0  0
   49.1983   51.0576   18.0678 H   0  0  0  0  0  0
   49.9507   50.4406   16.6446 H   0  0  0  0  0  0
   49.4578   48.1791   16.3220 H   0  0  0  0  0  0
   46.3720   50.7605   17.8445 H   0  0  0  0  0  0
   44.8097   48.8497   17.9059 H   0  0  0  0  0  0
   45.5725   46.6129   17.1775 H   0  0  0  0  0  0
   47.8901   46.2796   16.3844 H   0  0  0  0  0  0
  1  2  1  0  0  0
  1  5  2  0  0  0
  1 34  1  0  0  0
  2  3  1  0  0  0
  2  9  1  0  0  0
  3  4  2  0  0  0
  3 35  1  0  0  0
  4  5  1  0  0  0
  5  6  1  0  0  0
  6  7  2  0  0  0
  6  8  1  0  0  0
  8 36  1  0  0  0
  8 37  1  0  0  0
  9 10  1  0  0  0
  9 12  1  0  0  0
  9 38  1  0  0  0
 10 11  1  0  0  0
 10 39  1  0  0  0
 10 40  1  0  0  0
 11 41  1  0  0  0
 12 13  1  0  0  0
 12 42  1  0  0  0
 12 43  1  0  0  0
 13 14  1  0  0  0
 13 44  1  0  0  0
 13 45  1  0  0  0
 14 15  1  0  0  0
 14 18  1  0  0  0
 15 16  2  0  0  0
 15 46  1  0  0  0
 16 17  1  0  0  0
 16 47  1  0  0  0
 17 18  2  0  0  0
 17 19  1  0  0  0
 18 22  1  0  0  0
 19 20  2  0  0  0
 19 48  1  0  0  0
 20 21  1  0  0  0
 20 49  1  0  0  0
 21 22  2  0  0  0
 21 23  1  0  0  0
 22 50  1  0  0  0
 23 24  1  0  0  0
 23 51  1  0  0  0
 24 25  2  0  0  0
 24 26  1  0  0  0
 26 27  1  0  0  0
 26 52  1  0  0  0
 26 53  1  0  0  0
 27 29  1  0  0  0
 27 54  1  0  0  0
 27 55  1  0  0  0
 28 29  2  0  0  0
 28 33  1  0  0  0
 28 56  1  0  0  0
 29 30  1  0  0  0
 30 31  2  0  0  0
 30 57  1  0  0  0
 31 32  1  0  0  0
 31 58  1  0  0  0
 32 33  2  0  0  0
 32 59  1  0  0  0
 33 60  1  0  0  0
M  END
> <s_m_entry_id>
10581

> <s_m_entry_name>
dock_pv.18

> <s_m_Source_Path>
/home/csk/Desktop/cluster/DUD-E-result/ada

> <s_m_Source_File>
dock_pv.maegz

> <i_m_Source_File_Index>
18

> <chembl_id>
CHEMBL338076

> <chembl_pref_name>
None

> <i_lp_mmshare_version>
53161

> <i_f3d_flags>
0

> <r_lp_tautomer_probability>
1

> <s_lp_Force_Field>
OPLS_2005

> <r_lp_Energy>
25.44399

> <b_lp_Chiralities_Consistent>
1

> <s_lp_Variant>
CHEMBL1910_lig28-1

> <s_i_glide_gridfile>
glide-grid_2e1w

> <i_i_glide_lignum>
38

> <i_i_glide_rotatable_bonds>
12

> <r_i_docking_score>
-6.82552698522704

> <r_i_glide_ligand_efficiency>
-0.206834151067486

> <r_i_glide_ligand_efficiency_sa>
-0.663427639391278

> <r_i_glide_ligand_efficiency_ln>
-1.51796186082716

> <r_i_glide_gscore>
-6.82552698522704

> <r_i_glide_lipo>
-2.9596093850716

> <r_i_glide_hbond>
-0.608

> <r_i_glide_metal>
0

> <r_i_glide_rewards>
-0.572365490263455

> <r_i_glide_evdw>
-52.0190811157227

> <r_i_glide_ecoul>
-5.42809009552002

> <r_i_glide_erotb>
0.90728155302755

> <r_i_glide_esite>
-0.177666092805401

> <r_i_glide_emodel>
-77.7237811805935

> <r_i_glide_energy>
-57.4471712112427

> <r_i_glide_einternal>
12.9490756988525

> <i_i_glide_confnum>
61

> <i_i_glide_posenum>
330

> <r_i_glide_eff_state_penalty>
0

> <s_user_duplicate_titles>
CHEMBL1910_lig28,202969

> <s_m_subgroup_title>
dock_pv

> <s_m_subgroupid>
dock_pv

> <b_m_subgroup_collapsed>
0

$$$$
CHEMBL1910_lig41
                    3D
 Schrodinger Suite 2021-1.
 59 62  0  0  1  0            999 V2000
   51.2177   54.6682   20.8243 C   0  0  0  0  0  0
   51.4357   55.6157   21.7949 N   0  0  0  0  0  0
   51.6971   54.8710   22.9123 C   0  0  0  0  0  0
   51.6722   53.5790   22.6929 N   0  0  0  0  0  0
   51.3062   53.4147   21.4328 C   0  0  0  0  0  0
   51.0011   52.1473   20.8038 C   0  0  0  0  0  0
   50.4971   52.0916   19.6840 O   0  0  0  0  0  0
   51.3155   51.0453   21.4926 N   0  0  0  0  0  0
   51.3506   57.0780   21.6974 C   0  0  1  0  0  0
   51.8817   57.5929   20.3400 C   0  0  0  0  0  0
   53.2379   57.2248   20.1543 O   0  0  0  0  0  0
   49.9331   57.5981   22.0779 C   0  0  0  0  0  0
   48.6869   56.9664   21.4064 C   0  0  0  0  0  0
   48.4908   57.3522   20.0088 N   0  0  0  0  0  0
   48.2326   58.6329   19.5743 C   0  0  0  0  0  0
   48.0033   58.6382   18.2141 C   0  0  0  0  0  0
   48.1034   57.2829   17.7682 C   0  0  0  0  0  0
   48.4215   56.4953   18.9201 C   0  0  0  0  0  0
   47.9642   56.6468   16.5218 C   0  0  0  0  0  0
   48.1100   55.2576   16.4514 C   0  0  0  0  0  0
   48.4948   54.5226   17.5830 C   0  0  0  0  0  0
   48.6036   55.1123   18.8368 C   0  0  0  0  0  0
   48.8466   53.1736   17.5060 N   0  0  0  0  0  0
   48.0634   52.1941   17.0423 C   0  0  0  0  0  0
   46.8984   52.3559   16.6929 O   0  0  0  0  0  0
   48.7290   51.0316   16.9598 N   0  0  0  0  0  0
   48.2598   49.8385   16.2495 C   0  0  0  0  0  0
   46.0570   48.6009   16.0958 C   0  0  0  0  0  0
   47.0898   49.0980   16.8976 C   0  0  0  0  0  0
   47.0373   48.9233   18.2845 C   0  0  0  0  0  0
   45.9700   48.2382   18.8602 C   0  0  0  0  0  0
   44.9496   47.7383   18.0537 C   0  0  0  0  0  0
   44.9872   47.9213   16.6741 C   0  0  0  0  0  0
   50.9854   54.9681   19.8157 H   0  0  0  0  0  0
   51.9073   55.3571   23.8549 H   0  0  0  0  0  0
   51.1030   50.1305   21.1087 H   0  0  0  0  0  0
   51.5737   51.0984   22.4759 H   0  0  0  0  0  0
   52.0241   57.4707   22.4639 H   0  0  0  0  0  0
   51.2868   57.2090   19.5116 H   0  0  0  0  0  0
   51.8181   58.6791   20.2957 H   0  0  0  0  0  0
   53.7785   57.7328   20.7635 H   0  0  0  0  0  0
   49.8175   57.4442   23.1515 H   0  0  0  0  0  0
   49.9049   58.6826   21.9671 H   0  0  0  0  0  0
   48.7235   55.8804   21.4849 H   0  0  0  0  0  0
   47.7842   57.2645   21.9392 H   0  0  0  0  0  0
   48.2198   59.4440   20.2876 H   0  0  0  0  0  0
   47.7702   59.5102   17.6212 H   0  0  0  0  0  0
   47.7169   57.2160   15.6383 H   0  0  0  0  0  0
   48.0063   54.7537   15.4997 H   0  0  0  0  0  0
   48.8309   54.5116   19.7041 H   0  0  0  0  0  0
   49.6607   52.8911   18.0355 H   0  0  0  0  0  0
   49.5997   50.9419   17.4634 H   0  0  0  0  0  0
   48.0125   50.1159   15.2217 H   0  0  0  0  0  0
   49.0971   49.1406   16.1917 H   0  0  0  0  0  0
   46.0839   48.7333   15.0241 H   0  0  0  0  0  0
   47.8250   49.3086   18.9174 H   0  0  0  0  0  0
   45.9335   48.1002   19.9302 H   0  0  0  0  0  0
   44.1212   47.2061   18.5003 H   0  0  0  0  0  0
   44.1907   47.5338   16.0557 H   0  0  0  0  0  0
  1  2  1  0  0  0
  1  5  2  0  0  0
  1 34  1  0  0  0
  2  3  1  0  0  0
  2  9  1  0  0  0
  3  4  2  0  0  0
  3 35  1  0  0  0
  4  5  1  0  0  0
  5  6  1  0  0  0
  6  7  2  0  0  0
  6  8  1  0  0  0
  8 36  1  0  0  0
  8 37  1  0  0  0
  9 10  1  0  0  0
  9 12  1  0  0  0
  9 38  1  0  0  0
 10 11  1  0  0  0
 10 39  1  0  0  0
 10 40  1  0  0  0
 11 41  1  0  0  0
 12 13  1  0  0  0
 12 42  1  0  0  0
 12 43  1  0  0  0
 13 14  1  0  0  0
 13 44  1  0  0  0
 13 45  1  0  0  0
 14 15  1  0  0  0
 14 18  1  0  0  0
 15 16  2  0  0  0
 15 46  1  0  0  0
 16 17  1  0  0  0
 16 47  1  0  0  0
 17 18  2  0  0  0
 17 19  1  0  0  0
 18 22  1  0  0  0
 19 20  2  0  0  0
 19 48  1  0  0  0
 20 21  1  0  0  0
 20 49  1  0  0  0
 21 22  2  0  0  0
 21 23  1  0  0  0
 22 50  1  0  0  0
 23 24  1  0  0  0
 23 51  1  0  0  0
 24 25  2  0  0  0
 24 26  1  0  0  0
 26 27  1  0  0  0
 26 52  1  0  0  0
 27 29  1  0  0  0
 27 53  1  0  0  0
 27 54  1  0  0  0
 28 29  2  0  0  0
 28 33  1  0  0  0
 28 55  1  0  0  0
 29 30  1  0  0  0
 30 31  2  0  0  0
 30 56  1  0  0  0
 31 32  1  0  0  0
 31 57  1  0  0  0
 32 33  2  0  0  0
 32 58  1  0  0  0
 33 59  1  0  0  0
M  END
> <s_m_entry_id>
10582

> <s_m_entry_name>
dock_pv.19

> <s_m_Source_Path>
/home/csk/Desktop/cluster/DUD-E-result/ada

> <s_m_Source_File>
dock_pv.maegz

> <i_m_Source_File_Index>
19

> <chembl_id>
CHEMBL125386

> <chembl_pref_name>
None

> <i_lp_mmshare_version>
53161

> <i_f3d_flags>
0

> <r_lp_tautomer_probability>
1

> <s_lp_Force_Field>
OPLS_2005

> <r_lp_Energy>
21.21324

> <b_lp_Chiralities_Consistent>
1

> <s_lp_Variant>
CHEMBL1910_lig41-1

> <s_i_glide_gridfile>
glide-grid_2e1w

> <i_i_glide_lignum>
50

> <i_i_glide_rotatable_bonds>
12

> <r_i_docking_score>
-6.81085141432592

> <r_i_glide_ligand_efficiency>
-0.206389436797755

> <r_i_glide_ligand_efficiency_sa>
-0.662001203105739

> <r_i_glide_ligand_efficiency_ln>
-1.51469808984479

> <r_i_glide_gscore>
-6.81085141432592

> <r_i_glide_lipo>
-3.19272228394532

> <r_i_glide_hbond>
-0.509498182049119

> <r_i_glide_metal>
0

> <r_i_glide_rewards>
0.10549388627866

> <r_i_glide_evdw>
-56.4589881896973

> <r_i_glide_ecoul>
-7.4768238067627

> <r_i_glide_erotb>
0.903637126441136

> <r_i_glide_esite>
-0.173288980552004

> <r_i_glide_emodel>
-79.5809483777265

> <r_i_glide_energy>
-63.93581199646

> <r_i_glide_einternal>
18.0246639251709

> <i_i_glide_confnum>
246

> <i_i_glide_posenum>
29

> <r_i_glide_eff_state_penalty>
0

> <s_user_duplicate_titles>
CHEMBL1910_lig41,204065

> <s_m_subgroup_title>
dock_pv

> <s_m_subgroupid>
dock_pv

> <b_m_subgroup_collapsed>
0

$$$$
261719
                    3D
 Schrodinger Suite 2021-1.
 54 57  0  0  1  0            999 V2000
   45.2035   57.5579   12.8976 C   0  0  0  0  0  0
   46.0212   58.6354   13.6304 C   0  0  0  0  0  0
   46.5384   58.1433   14.8619 O   0  0  0  0  0  0
   47.6631   57.3900   14.9103 C   0  0  0  0  0  0
   48.3153   57.0450   13.9194 O   0  0  0  0  0  0
   47.9181   56.8588   16.2791 C   0  0  0  0  0  0
   48.1727   55.4973   16.3824 C   0  0  0  0  0  0
   48.4966   54.8977   17.6001 C   0  0  0  0  0  0
   48.6019   55.6874   18.7662 C   0  0  0  0  0  0
   48.3212   57.0784   18.6827 C   0  0  0  0  0  0
   47.9935   57.6496   17.4364 C   0  0  0  0  0  0
   47.6937   59.5447   17.3461 Br  0  0  0  0  0  0
   48.4489   57.9941   19.9159 C   0  0  0  0  0  0
   48.6463   57.2681   21.2530 C   0  0  0  0  0  0
   49.6060   56.0939   21.0909 C   0  0  0  0  0  0
   48.9962   55.0726   20.1213 C   0  0  0  0  0  0
   48.7731   53.3846   17.5776 C   0  0  0  0  0  0
   47.6765   52.5330   16.8803 C   0  0  0  0  0  0
   48.1571   51.1825   16.5859 N   0  0  0  0  0  0
   49.2956   50.8497   15.8928 C   0  0  0  0  0  0
   49.4531   49.5683   15.7176 N   0  0  0  0  0  0
   48.4061   49.0106   16.2984 C   0  0  0  0  0  0
   47.5674   49.9678   16.8461 C   0  0  0  0  0  0
   46.4047   49.8132   17.5459 N   0  0  0  0  0  0
   45.6987   48.6497   17.8119 C   0  0  0  0  0  0
   45.7729   47.4563   17.3576 N   0  0  0  0  0  0
   46.7396   47.0249   16.3455 C   0  0  0  0  0  0
   48.2188   47.5203   16.3534 C   0  0  2  0  0  0
   48.8973   47.0454   17.4930 O   0  0  0  0  0  0
   44.7769   57.9548   11.9754 H   0  0  0  0  0  0
   45.8176   56.6974   12.6292 H   0  0  0  0  0  0
   44.3814   57.1991   13.5186 H   0  0  0  0  0  0
   45.3756   59.4843   13.8582 H   0  0  0  0  0  0
   46.8216   59.0151   12.9944 H   0  0  0  0  0  0
   48.1444   54.8862   15.4928 H   0  0  0  0  0  0
   47.5739   58.6371   20.0022 H   0  0  0  0  0  0
   49.2998   58.6575   19.7536 H   0  0  0  0  0  0
   47.6878   56.9062   21.6248 H   0  0  0  0  0  0
   49.0184   57.9630   22.0082 H   0  0  0  0  0  0
   49.7953   55.6279   22.0574 H   0  0  0  0  0  0
   50.5737   56.4437   20.7276 H   0  0  0  0  0  0
   49.7214   54.2706   20.0063 H   0  0  0  0  0  0
   48.1028   54.6453   20.5744 H   0  0  0  0  0  0
   49.7412   53.2625   17.0928 H   0  0  0  0  0  0
   48.8913   52.9720   18.5768 H   0  0  0  0  0  0
   46.7978   52.4654   17.5219 H   0  0  0  0  0  0
   47.3437   52.9454   15.9298 H   0  0  0  0  0  0
   49.9677   51.6130   15.5369 H   0  0  0  0  0  0
   46.0643   50.6466   18.0019 H   0  0  0  0  0  0
   44.9304   48.7958   18.5639 H   0  0  0  0  0  0
   46.7763   45.9357   16.3982 H   0  0  0  0  0  0
   46.3094   47.2330   15.3657 H   0  0  0  0  0  0
   48.7185   47.0674   15.4944 H   0  0  0  0  0  0
   49.8206   47.3261   17.4456 H   0  0  0  0  0  0
  1  2  1  0  0  0
  1 30  1  0  0  0
  1 31  1  0  0  0
  1 32  1  0  0  0
  2  3  1  0  0  0
  2 33  1  0  0  0
  2 34  1  0  0  0
  3  4  1  0  0  0
  4  5  2  0  0  0
  4  6  1  0  0  0
  6 11  1  0  0  0
  6  7  2  0  0  0
  7  8  1  0  0  0
  7 35  1  0  0  0
  8  9  2  0  0  0
  8 17  1  0  0  0
  9 16  1  0  0  0
  9 10  1  0  0  0
 10 11  2  0  0  0
 10 13  1  0  0  0
 11 12  1  0  0  0
 13 14  1  0  0  0
 13 36  1  0  0  0
 13 37  1  0  0  0
 14 15  1  0  0  0
 14 38  1  0  0  0
 14 39  1  0  0  0
 15 16  1  0  0  0
 15 40  1  0  0  0
 15 41  1  0  0  0
 16 42  1  0  0  0
 16 43  1  0  0  0
 17 18  1  0  0  0
 17 44  1  0  0  0
 17 45  1  0  0  0
 18 19  1  0  0  0
 18 46  1  0  0  0
 18 47  1  0  0  0
 19 23  1  0  0  0
 19 20  1  0  0  0
 20 21  2  0  0  0
 20 48  1  0  0  0
 21 22  1  0  0  0
 22 28  1  0  0  0
 22 23  2  0  0  0
 23 24  1  0  0  0
 24 25  1  0  0  0
 24 49  1  0  0  0
 25 26  2  0  0  0
 25 50  1  0  0  0
 26 27  1  0  0  0
 27 28  1  0  0  0
 27 51  1  0  0  0
 27 52  1  0  0  0
 28 29  1  0  0  0
 28 53  1  0  0  0
 29 54  1  0  0  0
M  END
> <s_m_entry_id>
10747

> <s_m_entry_name>
ligand_docking-pose.16

> <s_m_Source_Path>
/home/csk/Desktop/cluster/DUD-E-result/ada

> <s_m_Source_File>
ligand_docking-pose.sdf

> <i_m_Source_File_Index>
16

> <i_lp_mmshare_version>
53161

> <r_lp_tautomer_probability>
1

> <s_lp_Force_Field>
OPLS_2005

> <r_lp_Energy>
28.587406

> <b_lp_Chiralities_Consistent>
1

> <s_lp_Variant>
261719-2

> <s_i_glide_gridfile>
glide-grid_2e1w

> <i_i_glide_lignum>
194

> <i_i_glide_rotatable_bonds>
7

> <r_i_docking_score>
-7.01465229776494

> <r_i_glide_ligand_efficiency>
-0.241884561991895

> <r_i_glide_ligand_efficiency_sa>
-0.743146008847218

> <r_i_glide_ligand_efficiency_ln>
-1.60617749995348

> <r_i_glide_gscore>
-7.01465229776494

> <r_i_glide_lipo>
-2.96785894385282

> <r_i_glide_hbond>
-0.0268904168032912

> <r_i_glide_metal>
0

> <r_i_glide_rewards>
-1.97594715024079

> <r_i_glide_evdw>
-44.8610763549805

> <r_i_glide_ecoul>
-1.82606339454651

> <r_i_glide_erotb>
0.473007540062956

> <r_i_glide_esite>
0

> <r_i_glide_emodel>
-62.6250462977956

> <r_i_glide_energy>
-46.687139749527

> <r_i_glide_einternal>
7.9598069190979

> <i_i_glide_confnum>
75

> <i_i_glide_posenum>
363

> <r_i_glide_eff_state_penalty>
0

> <i_f3d_flags>
0

> <s_user_duplicate_titles>
261719

> <s_m_subgroup_title>
dock_pv

> <s_m_subgroupid>
dock_pv1

> <b_m_subgroup_collapsed>
0

$$$$
609700
                    3D
 Schrodinger Suite 2021-1.
 45 47  0  0  1  0            999 V2000
   52.8967   58.7666   20.7671 C   0  0  0  0  0  0
   52.8069   57.2718   21.0878 C   0  0  2  0  0  0
   51.3524   56.6999   21.1039 C   0  0  2  0  0  0
   50.2625   57.4768   21.8915 C   0  0  0  0  0  0
   49.5038   58.3143   21.0219 O   0  0  0  0  0  0
   48.5151   57.6474   20.2362 C   0  0  0  0  0  0
   48.1376   58.5640   19.0475 C   0  0  0  0  0  0
   47.9263   57.9407   17.6595 C   0  0  0  0  0  0
   48.3468   56.6481   17.3099 C   0  0  0  0  0  0
   48.0971   56.1512   16.0315 C   0  0  0  0  0  0
   47.4472   56.9439   15.0913 C   0  0  0  0  0  0
   47.0457   58.2350   15.4192 C   0  0  0  0  0  0
   47.2955   58.7318   16.6947 C   0  0  0  0  0  0
   51.3210   55.2711   21.4768 N   0  0  0  0  0  0
   51.6970   54.7383   22.6564 C   0  0  0  0  0  0
   51.6525   53.4343   22.6588 N   0  0  0  0  0  0
   51.1358   53.1056   21.4664 C   0  0  0  0  0  0
   50.8722   54.2323   20.7118 C   0  0  0  0  0  0
   50.3306   54.2483   19.4691 N   0  0  0  0  0  0
   50.0743   53.0072   19.0264 C   0  0  0  0  0  0
   50.3089   51.8367   19.6286 N   0  0  0  0  0  0
   50.8504   51.8555   20.8737 C   0  0  0  0  0  0
   51.1233   50.6450   21.4931 N   0  0  0  0  0  0
   53.5207   57.0834   22.2930 O   0  0  0  0  0  0
   53.3599   56.7313   20.3165 H   0  0  0  0  0  0
   51.0584   56.6960   20.0543 H   0  0  0  0  0  0
   52.2174   59.0345   19.9571 H   0  0  0  0  0  0
   52.6363   59.3720   21.6367 H   0  0  0  0  0  0
   53.9078   59.0408   20.4624 H   0  0  0  0  0  0
   49.5828   56.8187   22.4377 H   0  0  0  0  0  0
   50.7300   58.0985   22.6478 H   0  0  0  0  0  0
   48.8723   56.6734   19.9192 H   0  0  0  0  0  0
   47.6386   57.4453   20.8538 H   0  0  0  0  0  0
   47.2307   59.1031   19.3253 H   0  0  0  0  0  0
   48.8975   59.3334   18.9265 H   0  0  0  0  0  0
   48.8603   56.0002   17.9990 H   0  0  0  0  0  0
   48.4081   55.1499   15.7713 H   0  0  0  0  0  0
   47.2542   56.5554   14.1016 H   0  0  0  0  0  0
   46.5490   58.8512   14.6843 H   0  0  0  0  0  0
   46.9774   59.7351   16.9389 H   0  0  0  0  0  0
   52.0506   55.3511   23.4737 H   0  0  0  0  0  0
   49.6429   52.9436   18.0372 H   0  0  0  0  0  0
   51.3473   50.6498   22.4903 H   0  0  0  0  0  0
   50.8970   49.7471   21.0536 H   0  0  0  0  0  0
   53.0216   57.4710   23.0253 H   0  0  0  0  0  0
  1  2  1  0  0  0
  1 27  1  0  0  0
  1 28  1  0  0  0
  1 29  1  0  0  0
  2 25  1  0  0  0
  2  3  1  0  0  0
  2 24  1  0  0  0
  3 26  1  0  0  0
  3  4  1  0  0  0
  3 14  1  0  0  0
  4  5  1  0  0  0
  4 30  1  0  0  0
  4 31  1  0  0  0
  5  6  1  0  0  0
  6  7  1  0  0  0
  6 32  1  0  0  0
  6 33  1  0  0  0
  7  8  1  0  0  0
  7 34  1  0  0  0
  7 35  1  0  0  0
  8 13  1  0  0  0
  8  9  2  0  0  0
  9 10  1  0  0  0
  9 36  1  0  0  0
 10 11  2  0  0  0
 10 37  1  0  0  0
 11 12  1  0  0  0
 11 38  1  0  0  0
 12 13  2  0  0  0
 12 39  1  0  0  0
 13 40  1  0  0  0
 14 18  1  0  0  0
 14 15  1  0  0  0
 15 16  2  0  0  0
 15 41  1  0  0  0
 16 17  1  0  0  0
 17 22  2  0  0  0
 17 18  1  0  0  0
 18 19  2  0  0  0
 19 20  1  0  0  0
 20 21  2  0  0  0
 20 42  1  0  0  0
 21 22  1  0  0  0
 22 23  1  0  0  0
 23 43  1  0  0  0
 23 44  1  0  0  0
 24 45  1  0  0  0
M  END
> <s_m_entry_id>
10748

> <s_m_entry_name>
ligand_docking-pose.17

> <s_m_Source_Path>
/home/csk/Desktop/cluster/DUD-E-result/ada

> <s_m_Source_File>
ligand_docking-pose.sdf

> <i_m_Source_File_Index>
17

> <i_lp_mmshare_version>
53161

> <r_lp_tautomer_probability>
0.999997216410988

> <s_lp_Force_Field>
OPLS_2005

> <r_lp_Energy>
16.884225

> <b_lp_Chiralities_Consistent>
1

> <s_lp_Variant>
609700-1

> <s_i_glide_gridfile>
glide-grid_2e1w

> <i_i_glide_lignum>
192

> <i_i_glide_rotatable_bonds>
8

> <r_i_docking_score>
-6.89072203356535

> <r_i_glide_ligand_efficiency>
-0.287113418065223

> <r_i_glide_ligand_efficiency_sa>
-0.828178406790786

> <r_i_glide_ligand_efficiency_ln>
-1.64926597726279

> <r_i_glide_gscore>
-6.89072203356535

> <r_i_glide_lipo>
-1.88658067394232

> <r_i_glide_hbond>
-1.0365159026221

> <r_i_glide_metal>
0

> <r_i_glide_rewards>
-1.43528146969697

> <r_i_glide_evdw>
-31.5889644622803

> <r_i_glide_ecoul>
-12.0436630249023

> <r_i_glide_erotb>
1.0506275708019

> <r_i_glide_esite>
-0.196973881256492

> <r_i_glide_emodel>
-55.7769365975908

> <r_i_glide_energy>
-43.6326274871826

> <r_i_glide_einternal>
13.7048711776733

> <i_i_glide_confnum>
50

> <i_i_glide_posenum>
124

> <r_i_glide_eff_state_penalty>
0

> <i_f3d_flags>
0

> <s_user_duplicate_titles>
609700

> <s_m_subgroup_title>
dock_pv

> <s_m_subgroupid>
dock_pv1

> <b_m_subgroup_collapsed>
0

$$$$
