CHEMBL258_lig1176
                    3D
 Schrodinger Suite 2021-1.
 45 48  0  0  1  0            999 V2000
   32.9499   36.2221   80.4871 O   0  0  0  0  0  0
   32.5133   35.7747   81.7539 C   0  0  0  0  0  0
   31.2792   36.5063   82.2670 C   0  0  0  0  0  0
   31.4160   37.7190   82.9483 C   0  0  0  0  0  0
   30.2926   38.3673   83.4618 C   0  0  0  0  0  0
   29.0250   37.8128   83.2874 C   0  0  0  0  0  0
   28.8686   36.6011   82.6018 C   0  0  0  0  0  0
   27.6268   35.9906   82.3609 N   0  0  0  0  0  0
   26.3147   36.1821   82.8053 C   0  0  0  0  0  0
   25.4095   35.3246   82.2655 N   0  0  0  0  0  0
   24.1307   35.4210   82.7055 C   0  0  0  0  0  0
   23.7541   36.3569   83.6682 C   0  0  0  0  0  0
   22.3995   36.4954   84.1930 C   0  0  0  0  0  0
   22.1095   37.4140   85.1437 C   0  0  0  0  0  0
   23.1183   38.3498   85.6669 C   0  0  0  0  0  0
   22.8437   39.1761   86.5403 O   0  0  0  0  0  0
   24.3716   38.2209   85.1099 N   0  0  0  0  0  0
   24.7370   37.2301   84.1472 C   0  0  0  0  0  0
   26.0310   37.1381   83.7278 N   0  0  0  0  0  0
   25.4315   39.1438   85.5670 C   0  0  0  0  0  0
   20.7305   37.4390   85.6949 C   0  0  0  0  0  0
   20.2648   36.3669   86.4832 C   0  0  0  0  0  0
   21.2809   35.0218   86.8869 Cl  0  0  0  0  0  0
   18.9496   36.3549   86.9472 C   0  0  0  0  0  0
   18.0907   37.4113   86.6601 C   0  0  0  0  0  0
   18.5493   38.4845   85.9030 C   0  0  0  0  0  0
   19.8547   38.5058   85.4195 C   0  0  0  0  0  0
   20.3368   39.8826   84.4871 Cl  0  0  0  0  0  0
   30.0034   35.9611   82.0873 C   0  0  0  0  0  0
   32.3512   35.8542   79.8213 H   0  0  0  0  0  0
   32.3386   34.6972   81.7316 H   0  0  0  0  0  0
   33.3244   35.9058   82.4706 H   0  0  0  0  0  0
   32.3950   38.1517   83.0927 H   0  0  0  0  0  0
   30.4072   39.2987   83.9959 H   0  0  0  0  0  0
   28.1768   38.3471   83.6846 H   0  0  0  0  0  0
   27.6686   35.3145   81.6108 H   0  0  0  0  0  0
   23.4112   34.7332   82.2802 H   0  0  0  0  0  0
   21.6244   35.8211   83.8523 H   0  0  0  0  0  0
   25.0912   39.8965   86.2807 H   0  0  0  0  0  0
   26.2375   38.5839   86.0437 H   0  0  0  0  0  0
   25.8532   39.6782   84.7149 H   0  0  0  0  0  0
   18.5971   35.5232   87.5387 H   0  0  0  0  0  0
   17.0734   37.4069   87.0274 H   0  0  0  0  0  0
   17.8807   39.3043   85.6872 H   0  0  0  0  0  0
   29.9000   35.0262   81.5519 H   0  0  0  0  0  0
  1  2  1  0  0  0
  1 30  1  0  0  0
  2  3  1  0  0  0
  2 31  1  0  0  0
  2 32  1  0  0  0
  3  4  2  0  0  0
  3 29  1  0  0  0
  4  5  1  0  0  0
  4 33  1  0  0  0
  5  6  2  0  0  0
  5 34  1  0  0  0
  6  7  1  0  0  0
  6 35  1  0  0  0
  7  8  1  0  0  0
  7 29  2  0  0  0
  8  9  1  0  0  0
  8 36  1  0  0  0
  9 10  2  0  0  0
  9 19  1  0  0  0
 10 11  1  0  0  0
 11 12  2  0  0  0
 11 37  1  0  0  0
 12 13  1  0  0  0
 12 18  1  0  0  0
 13 14  2  0  0  0
 13 38  1  0  0  0
 14 15  1  0  0  0
 14 21  1  0  0  0
 15 16  2  0  0  0
 15 17  1  0  0  0
 17 18  1  0  0  0
 17 20  1  0  0  0
 18 19  2  0  0  0
 20 39  1  0  0  0
 20 40  1  0  0  0
 20 41  1  0  0  0
 21 22  2  0  0  0
 21 27  1  0  0  0
 22 23  1  0  0  0
 22 24  1  0  0  0
 24 25  2  0  0  0
 24 42  1  0  0  0
 25 26  1  0  0  0
 25 43  1  0  0  0
 26 27  2  0  0  0
 26 44  1  0  0  0
 27 28  1  0  0  0
 29 45  1  0  0  0
M  END
> <s_m_entry_id>
4514

> <s_m_entry_name>
dock_pv.2

> <s_m_Source_Path>
/home/csk/Desktop/cluster/DUD-E-result/lck

> <s_m_Source_File>
dock_pv.maegz

> <i_m_Source_File_Index>
2

> <chembl_id>
CHEMBL327127

> <chembl_pref_name>
None

> <i_lp_mmshare_version>
53161

> <i_f3d_flags>
0

> <r_lp_tautomer_probability>
1

> <s_lp_Force_Field>
OPLS_2005

> <r_lp_Energy>
26.618173

> <b_lp_Chiralities_Consistent>
1

> <s_lp_Variant>
CHEMBL258_lig1176-1

> <s_i_glide_gridfile>
glide-grid_2of2

> <i_i_glide_lignum>
1264

> <i_i_glide_rotatable_bonds>
5

> <r_i_docking_score>
-9.44408985553571

> <r_i_glide_ligand_efficiency>
-0.325658270880542

> <r_i_glide_ligand_efficiency_sa>
-1.00052538392703

> <r_i_glide_ligand_efficiency_ln>
-2.16245709546197

> <r_i_glide_gscore>
-9.44408985553571

> <r_i_glide_lipo>
-3.1215903004717

> <r_i_glide_hbond>
-0.687133444673235

> <r_i_glide_metal>
0

> <r_i_glide_rewards>
-2.4346878436284

> <r_i_glide_evdw>
-43.0489234924316

> <r_i_glide_ecoul>
-8.80610752105713

> <r_i_glide_erotb>
0.304484514640488

> <r_i_glide_esite>
-0.031800478622709

> <r_i_glide_emodel>
-79.6341369525864

> <r_i_glide_energy>
-51.8550310134888

> <r_i_glide_einternal>
2.69868588447571

> <i_i_glide_confnum>
6

> <i_i_glide_posenum>
244

> <r_i_glide_eff_state_penalty>
0

> <s_user_duplicate_titles>
CHEMBL258_lig1176,183155

> <s_m_subgroup_title>
dock_pv

> <s_m_subgroupid>
dock_pv

> <b_m_subgroup_collapsed>
1

$$$$
CHEMBL258_lig1146
                    3D
 Schrodinger Suite 2021-1.
 72 77  0  0  1  0            999 V2000
   28.7946   36.8986   82.8871 C   0  0  0  0  0  0
   28.6706   37.8888   83.8062 N   0  0  0  0  0  0
   29.7871   38.5746   84.1311 C   0  0  0  0  0  0
   31.0174   38.3660   83.6152 N   0  0  0  0  0  0
   31.1542   37.3682   82.6958 C   0  0  0  0  0  0
   30.0318   36.6191   82.2878 C   0  0  0  0  0  0
   29.6417   39.6780   85.1587 C   0  0  0  0  0  0
   27.6585   36.1705   82.4869 N   0  0  0  0  0  0
   32.3983   37.2837   82.0668 N   0  0  0  0  0  0
   32.8289   36.2547   81.1004 C   0  0  0  0  0  0
   33.3150   36.8724   79.7636 C   0  0  0  0  0  0
   34.4091   37.8243   79.9917 N   0  0  0  0  0  0
   33.9414   38.8729   80.8996 C   0  0  0  0  0  0
   33.5032   38.2516   82.2403 C   0  0  0  0  0  0
   34.9919   38.3890   78.7649 C   0  0  0  0  0  0
   34.0458   38.9722   77.6868 C   0  0  0  0  0  0
   33.3500   40.1293   78.1124 O   0  0  0  0  0  0
   25.4816   35.3855   82.1659 N   0  0  0  0  0  0
   26.3026   36.2140   82.8624 C   0  0  0  0  0  0
   25.7924   37.0537   83.8641 C   0  0  0  0  0  0
   24.4084   37.0804   84.0764 C   0  0  0  0  0  0
   23.5860   36.2210   83.4101 N   0  0  0  0  0  0
   24.1631   35.4202   82.4859 C   0  0  0  0  0  0
   23.8205   38.0623   84.9309 N   0  0  0  0  0  0
   22.3777   39.0120   86.4035 N   0  0  0  0  0  0
   22.5898   38.0113   85.5869 C   0  0  0  0  0  0
   23.4367   39.8425   86.2204 C   0  0  0  0  0  0
   24.3596   39.3039   85.2870 C   0  0  0  0  0  0
   25.5021   40.0333   84.9065 C   0  0  0  0  0  0
   25.7050   41.2737   85.5157 C   0  0  0  0  0  0
   24.8149   41.7897   86.4543 C   0  0  0  0  0  0
   23.6663   41.0892   86.8175 C   0  0  0  0  0  0
   21.6866   36.9921   85.3913 N   0  0  0  0  0  0
   20.3827   36.9462   85.9106 C   0  0  0  0  0  0
   19.4238   37.9250   85.5831 C   0  0  0  0  0  0
   18.1479   37.8622   86.1350 C   0  0  0  0  0  0
   17.8029   36.8328   87.0026 C   0  0  0  0  0  0
   18.7300   35.8329   87.2870 C   0  0  0  0  0  0
   20.0104   35.8652   86.7271 C   0  0  0  0  0  0
   20.9774   34.7221   87.0263 C   0  0  0  0  0  0
   19.7515   39.2241   84.4875 Cl  0  0  0  0  0  0
   30.0985   35.8591   81.5261 H   0  0  0  0  0  0
   28.8920   39.4203   85.9082 H   0  0  0  0  0  0
   30.5810   39.8490   85.6869 H   0  0  0  0  0  0
   29.3375   40.6071   84.6758 H   0  0  0  0  0  0
   27.8337   35.5124   81.7395 H   0  0  0  0  0  0
   33.6174   35.6520   81.5550 H   0  0  0  0  0  0
   32.0345   35.5433   80.8873 H   0  0  0  0  0  0
   32.4731   37.3708   79.2867 H   0  0  0  0  0  0
   33.6431   36.0806   79.0888 H   0  0  0  0  0  0
   34.7399   39.5968   81.0743 H   0  0  0  0  0  0
   33.1020   39.4249   80.4731 H   0  0  0  0  0  0
   34.3384   37.7559   82.7372 H   0  0  0  0  0  0
   33.2295   39.0674   82.9084 H   0  0  0  0  0  0
   35.4923   37.5431   78.2920 H   0  0  0  0  0  0
   35.8293   39.0602   78.9581 H   0  0  0  0  0  0
   33.3504   38.2210   77.3210 H   0  0  0  0  0  0
   34.6371   39.2436   76.8119 H   0  0  0  0  0  0
   32.3998   39.9307   78.0873 H   0  0  0  0  0  0
   26.4284   37.6611   84.4739 H   0  0  0  0  0  0
   23.5004   34.7595   81.9434 H   0  0  0  0  0  0
   26.1984   39.6944   84.1550 H   0  0  0  0  0  0
   26.5726   41.8598   85.2428 H   0  0  0  0  0  0
   25.0090   42.7592   86.8928 H   0  0  0  0  0  0
   22.9636   41.5023   87.5246 H   0  0  0  0  0  0
   21.9574   36.1658   84.8819 H   0  0  0  0  0  0
   17.4184   38.6206   85.8912 H   0  0  0  0  0  0
   16.8136   36.7988   87.4326 H   0  0  0  0  0  0
   18.4462   35.0219   87.9421 H   0  0  0  0  0  0
   20.5136   33.9191   87.6011 H   0  0  0  0  0  0
   21.3495   34.2899   86.0951 H   0  0  0  0  0  0
   21.8421   35.0889   87.5812 H   0  0  0  0  0  0
  1  6  1  0  0  0
  1  2  2  0  0  0
  1  8  1  0  0  0
  2  3  1  0  0  0
  3  7  1  0  0  0
  3  4  2  0  0  0
  4  5  1  0  0  0
  5  6  2  0  0  0
  5  9  1  0  0  0
  6 42  1  0  0  0
  7 43  1  0  0  0
  7 44  1  0  0  0
  7 45  1  0  0  0
  8 19  1  0  0  0
  8 46  1  0  0  0
  9 14  1  0  0  0
  9 10  1  0  0  0
 10 11  1  0  0  0
 10 47  1  0  0  0
 10 48  1  0  0  0
 11 12  1  0  0  0
 11 49  1  0  0  0
 11 50  1  0  0  0
 12 13  1  0  0  0
 12 15  1  0  0  0
 13 14  1  0  0  0
 13 51  1  0  0  0
 13 52  1  0  0  0
 14 53  1  0  0  0
 14 54  1  0  0  0
 15 16  1  0  0  0
 15 55  1  0  0  0
 15 56  1  0  0  0
 16 17  1  0  0  0
 16 57  1  0  0  0
 16 58  1  0  0  0
 17 59  1  0  0  0
 18 23  1  0  0  0
 18 19  2  0  0  0
 19 20  1  0  0  0
 20 21  2  0  0  0
 20 60  1  0  0  0
 21 22  1  0  0  0
 21 24  1  0  0  0
 22 23  2  0  0  0
 23 61  1  0  0  0
 24 28  1  0  0  0
 24 26  1  0  0  0
 25 27  1  0  0  0
 25 26  2  0  0  0
 26 33  1  0  0  0
 27 28  2  0  0  0
 27 32  1  0  0  0
 28 29  1  0  0  0
 29 30  2  0  0  0
 29 62  1  0  0  0
 30 31  1  0  0  0
 30 63  1  0  0  0
 31 32  2  0  0  0
 31 64  1  0  0  0
 32 65  1  0  0  0
 33 34  1  0  0  0
 33 66  1  0  0  0
 34 35  2  0  0  0
 34 39  1  0  0  0
 35 36  1  0  0  0
 35 41  1  0  0  0
 36 37  2  0  0  0
 36 67  1  0  0  0
 37 38  1  0  0  0
 37 68  1  0  0  0
 38 39  2  0  0  0
 38 69  1  0  0  0
 39 40  1  0  0  0
 40 70  1  0  0  0
 40 71  1  0  0  0
 40 72  1  0  0  0
M  END
> <s_m_entry_id>
4515

> <s_m_entry_name>
dock_pv.3

> <s_m_Source_Path>
/home/csk/Desktop/cluster/DUD-E-result/lck

> <s_m_Source_File>
dock_pv.maegz

> <i_m_Source_File_Index>
3

> <chembl_id>
CHEMBL447107

> <chembl_pref_name>
None

> <i_lp_mmshare_version>
53161

> <i_f3d_flags>
0

> <r_lp_tautomer_probability>
0.999999968260001

> <s_lp_Force_Field>
OPLS_2005

> <r_lp_Energy>
60.080317

> <b_lp_Chiralities_Consistent>
1

> <s_lp_Variant>
CHEMBL258_lig1146-1

> <s_i_glide_gridfile>
glide-grid_2of2

> <i_i_glide_lignum>
1234

> <i_i_glide_rotatable_bonds>
9

> <r_i_docking_score>
-9.36707249300536

> <r_i_glide_ligand_efficiency>
-0.228465182756228

> <r_i_glide_ligand_efficiency_sa>
-0.787797581032037

> <r_i_glide_ligand_efficiency_ln>
-1.9872556015792

> <r_i_glide_gscore>
-9.36707249300536

> <r_i_glide_lipo>
-2.24715044696193

> <r_i_glide_hbond>
-0.656773188429959

> <r_i_glide_metal>
0

> <r_i_glide_rewards>
-2.37818647714687

> <r_i_glide_evdw>
-53.8092956542969

> <r_i_glide_ecoul>
-11.1603422164917

> <r_i_glide_erotb>
0.2943915375433

> <r_i_glide_esite>
-0.0148378028212985

> <r_i_glide_emodel>
-93.3583885545588

> <r_i_glide_energy>
-64.9696378707886

> <r_i_glide_einternal>
10.7477397918701

> <i_i_glide_confnum>
14

> <i_i_glide_posenum>
195

> <r_i_glide_eff_state_penalty>
0

> <s_user_duplicate_titles>
CHEMBL258_lig1146,490984

> <s_m_subgroup_title>
dock_pv

> <s_m_subgroupid>
dock_pv

> <b_m_subgroup_collapsed>
1

$$$$
CHEMBL258_lig719
                    3D
 Schrodinger Suite 2021-1.
 44 48  0  0  1  0            999 V2000
   24.4850   39.4284   85.1561 C   0  0  0  0  0  0
   23.6080   39.9031   86.2959 C   0  0  0  0  0  0
   22.3790   38.9958   86.2980 C   0  0  0  0  0  0
   22.5956   38.0835   85.3088 N   0  0  0  0  0  0
   23.9846   38.1032   84.8947 N   0  0  0  0  0  0
   25.3470   35.2607   82.1686 N   0  0  0  0  0  0
   26.1744   36.1325   82.7987 C   0  0  0  0  0  0
   25.7781   37.0907   83.6767 N   0  0  0  0  0  0
   24.0308   35.3261   82.4868 C   0  0  0  0  0  0
   23.5442   36.2173   83.4384 C   0  0  0  0  0  0
   24.4563   37.1295   83.9905 C   0  0  0  0  0  0
   21.7483   37.1020   84.7974 C   0  0  0  0  0  0
   22.1510   36.2200   83.8689 C   0  0  0  0  0  0
   27.5253   35.9575   82.4849 N   0  0  0  0  0  0
   28.7238   36.6218   82.7866 C   0  0  0  0  0  0
   29.8638   36.1881   82.1029 C   0  0  0  0  0  0
   31.0887   36.8178   82.3058 C   0  0  0  0  0  0
   31.1739   37.8843   83.1977 C   0  0  0  0  0  0
   30.0462   38.3257   83.8861 C   0  0  0  0  0  0
   28.8203   37.6967   83.6809 C   0  0  0  0  0  0
   20.3807   36.9686   85.3624 C   0  0  0  0  0  0
   20.1829   36.2295   86.5409 C   0  0  0  0  0  0
   18.9395   36.2546   87.1784 C   0  0  0  0  0  0
   17.8946   37.0206   86.6616 C   0  0  0  0  0  0
   18.0519   37.6579   85.4351 C   0  0  0  0  0  0
   19.2732   37.5918   84.7650 C   0  0  0  0  0  0
   19.3653   38.2258   83.1661 Cl  0  0  0  0  0  0
   21.4151   39.1273   87.0540 O   0  0  0  0  0  0
   21.4665   35.2865   87.2426 Cl  0  0  0  0  0  0
   24.3326   40.0354   84.2612 H   0  0  0  0  0  0
   25.5478   39.4258   85.4059 H   0  0  0  0  0  0
   24.1250   39.8229   87.2514 H   0  0  0  0  0  0
   23.3184   40.9474   86.1724 H   0  0  0  0  0  0
   23.3710   34.6210   82.0005 H   0  0  0  0  0  0
   21.4717   35.4567   83.5140 H   0  0  0  0  0  0
   27.6456   35.2446   81.7798 H   0  0  0  0  0  0
   29.8087   35.3648   81.4026 H   0  0  0  0  0  0
   31.9660   36.4792   81.7732 H   0  0  0  0  0  0
   32.1245   38.3721   83.3584 H   0  0  0  0  0  0
   30.1226   39.1511   84.5794 H   0  0  0  0  0  0
   27.9649   38.0592   84.2261 H   0  0  0  0  0  0
   18.7794   35.6912   88.0857 H   0  0  0  0  0  0
   16.9429   37.0637   87.1720 H   0  0  0  0  0  0
   17.2132   38.1809   84.9969 H   0  0  0  0  0  0
  1  5  1  0  0  0
  1  2  1  0  0  0
  1 30  1  0  0  0
  1 31  1  0  0  0
  2  3  1  0  0  0
  2 32  1  0  0  0
  2 33  1  0  0  0
  3  4  1  0  0  0
  3 28  2  0  0  0
  4  5  1  0  0  0
  4 12  1  0  0  0
  5 11  1  0  0  0
  6  7  2  0  0  0
  6  9  1  0  0  0
  7 14  1  0  0  0
  7  8  1  0  0  0
  8 11  2  0  0  0
  9 10  2  0  0  0
  9 34  1  0  0  0
 10 11  1  0  0  0
 10 13  1  0  0  0
 12 21  1  0  0  0
 12 13  2  0  0  0
 13 35  1  0  0  0
 14 15  1  0  0  0
 14 36  1  0  0  0
 15 16  2  0  0  0
 15 20  1  0  0  0
 16 17  1  0  0  0
 16 37  1  0  0  0
 17 18  2  0  0  0
 17 38  1  0  0  0
 18 19  1  0  0  0
 18 39  1  0  0  0
 19 20  2  0  0  0
 19 40  1  0  0  0
 20 41  1  0  0  0
 21 22  2  0  0  0
 21 26  1  0  0  0
 22 23  1  0  0  0
 22 29  1  0  0  0
 23 24  2  0  0  0
 23 42  1  0  0  0
 24 25  1  0  0  0
 24 43  1  0  0  0
 25 26  2  0  0  0
 25 44  1  0  0  0
 26 27  1  0  0  0
M  END
> <s_m_entry_id>
4516

> <s_m_entry_name>
dock_pv.4

> <s_m_Source_Path>
/home/csk/Desktop/cluster/DUD-E-result/lck

> <s_m_Source_File>
dock_pv.maegz

> <i_m_Source_File_Index>
4

> <chembl_id>
CHEMBL213185

> <chembl_pref_name>
None

> <i_lp_mmshare_version>
53161

> <i_f3d_flags>
0

> <r_lp_tautomer_probability>
1

> <s_lp_Force_Field>
OPLS_2005

> <r_lp_Energy>
22.038927

> <b_lp_Chiralities_Consistent>
1

> <s_lp_Variant>
CHEMBL258_lig719-1

> <s_i_glide_gridfile>
glide-grid_2of2

> <i_i_glide_lignum>
804

> <i_i_glide_rotatable_bonds>
3

> <r_i_docking_score>
-9.1783254406145

> <r_i_glide_ligand_efficiency>
-0.316493980710845

> <r_i_glide_ligand_efficiency_sa>
-0.972369781074802

> <r_i_glide_ligand_efficiency_ln>
-2.1016037836491

> <r_i_glide_gscore>
-9.1783254406145

> <r_i_glide_lipo>
-3.3654792151773

> <r_i_glide_hbond>
-0.396949166507367

> <r_i_glide_metal>
0

> <r_i_glide_rewards>
-2.54125032813752

> <r_i_glide_evdw>
-44.6471748352051

> <r_i_glide_ecoul>
-5.66362524032593

> <r_i_glide_erotb>
0.231294677520657

> <r_i_glide_esite>
-0.0240388805038266

> <r_i_glide_emodel>
-76.5593989749037

> <r_i_glide_energy>
-50.310800075531

> <r_i_glide_einternal>
0.64272677898407

> <i_i_glide_confnum>
4

> <i_i_glide_posenum>
6

> <r_i_glide_eff_state_penalty>
0

> <s_user_duplicate_titles>
CHEMBL258_lig719,354700

> <s_m_subgroup_title>
dock_pv

> <s_m_subgroupid>
dock_pv

> <b_m_subgroup_collapsed>
1

$$$$
CHEMBL258_lig735
                    3D
 Schrodinger Suite 2021-1.
 44 48  0  0  1  0            999 V2000
   24.4920   39.4191   85.1513 C   0  0  0  0  0  0
   23.6012   39.9083   86.2717 C   0  0  0  0  0  0
   22.3635   39.0132   86.2546 C   0  0  0  0  0  0
   22.5912   38.0915   85.2771 N   0  0  0  0  0  0
   23.9880   38.0957   84.8909 N   0  0  0  0  0  0
   25.3601   35.2450   82.1767 N   0  0  0  0  0  0
   26.1860   36.1197   82.8034 C   0  0  0  0  0  0
   25.7874   37.0798   83.6793 N   0  0  0  0  0  0
   24.0430   35.3165   82.4875 C   0  0  0  0  0  0
   23.5524   36.2119   83.4307 C   0  0  0  0  0  0
   24.4638   37.1218   83.9882 C   0  0  0  0  0  0
   21.7442   37.1151   84.7549 C   0  0  0  0  0  0
   22.1544   36.2219   83.8408 C   0  0  0  0  0  0
   27.5372   35.9489   82.4868 N   0  0  0  0  0  0
   28.7317   36.6211   82.7871 C   0  0  0  0  0  0
   29.8733   36.2021   82.0961 C   0  0  0  0  0  0
   31.0922   36.8448   82.2975 C   0  0  0  0  0  0
   31.1709   37.9087   83.1930 C   0  0  0  0  0  0
   30.0424   38.3315   83.8905 C   0  0  0  0  0  0
   28.8216   37.6913   83.6883 C   0  0  0  0  0  0
   32.3527   38.5346   83.3872 F   0  0  0  0  0  0
   20.3742   36.9833   85.3112 C   0  0  0  0  0  0
   19.2646   37.5989   84.7095 C   0  0  0  0  0  0
   18.0419   37.6592   85.3784 C   0  0  0  0  0  0
   17.8879   37.0220   86.6057 C   0  0  0  0  0  0
   18.9368   36.2635   87.1245 C   0  0  0  0  0  0
   20.1790   36.2423   86.4879 C   0  0  0  0  0  0
   21.4625   35.2870   87.1680 Cl  0  0  0  0  0  0
   21.3850   39.1606   86.9890 O   0  0  0  0  0  0
   19.3530   38.2198   83.1046 Cl  0  0  0  0  0  0
   24.3579   40.0206   84.2500 H   0  0  0  0  0  0
   25.5505   39.4120   85.4171 H   0  0  0  0  0  0
   24.0996   39.8267   87.2366 H   0  0  0  0  0  0
   23.3226   40.9540   86.1383 H   0  0  0  0  0  0
   23.3809   34.6222   81.9912 H   0  0  0  0  0  0
   21.4784   35.4560   83.4850 H   0  0  0  0  0  0
   27.6599   35.2375   81.7794 H   0  0  0  0  0  0
   29.8241   35.3816   81.3920 H   0  0  0  0  0  0
   31.9718   36.5188   81.7613 H   0  0  0  0  0  0
   30.1160   39.1544   84.5870 H   0  0  0  0  0  0
   27.9661   38.0423   84.2413 H   0  0  0  0  0  0
   17.1999   38.1757   84.9378 H   0  0  0  0  0  0
   16.9351   37.0593   87.1146 H   0  0  0  0  0  0
   18.7853   35.6988   88.0315 H   0  0  0  0  0  0
  1  5  1  0  0  0
  1  2  1  0  0  0
  1 31  1  0  0  0
  1 32  1  0  0  0
  2  3  1  0  0  0
  2 33  1  0  0  0
  2 34  1  0  0  0
  3  4  1  0  0  0
  3 29  2  0  0  0
  4  5  1  0  0  0
  4 12  1  0  0  0
  5 11  1  0  0  0
  6  9  2  0  0  0
  6  7  1  0  0  0
  7 14  1  0  0  0
  7  8  2  0  0  0
  8 11  1  0  0  0
  9 10  1  0  0  0
  9 35  1  0  0  0
 10 11  2  0  0  0
 10 13  1  0  0  0
 12 22  1  0  0  0
 12 13  2  0  0  0
 13 36  1  0  0  0
 14 15  1  0  0  0
 14 37  1  0  0  0
 15 16  2  0  0  0
 15 20  1  0  0  0
 16 17  1  0  0  0
 16 38  1  0  0  0
 17 18  2  0  0  0
 17 39  1  0  0  0
 18 19  1  0  0  0
 18 21  1  0  0  0
 19 20  2  0  0  0
 19 40  1  0  0  0
 20 41  1  0  0  0
 22 23  2  0  0  0
 22 27  1  0  0  0
 23 24  1  0  0  0
 23 30  1  0  0  0
 24 25  2  0  0  0
 24 42  1  0  0  0
 25 26  1  0  0  0
 25 43  1  0  0  0
 26 27  2  0  0  0
 26 44  1  0  0  0
 27 28  1  0  0  0
M  END
> <s_m_entry_id>
4517

> <s_m_entry_name>
dock_pv.5

> <s_m_Source_Path>
/home/csk/Desktop/cluster/DUD-E-result/lck

> <s_m_Source_File>
dock_pv.maegz

> <i_m_Source_File_Index>
5

> <chembl_id>
CHEMBL214387

> <chembl_pref_name>
None

> <i_lp_mmshare_version>
53161

> <i_f3d_flags>
0

> <r_lp_tautomer_probability>
1

> <s_lp_Force_Field>
OPLS_2005

> <r_lp_Energy>
21.895425

> <b_lp_Chiralities_Consistent>
1

> <s_lp_Variant>
CHEMBL258_lig735-1

> <s_i_glide_gridfile>
glide-grid_2of2

> <i_i_glide_lignum>
820

> <i_i_glide_rotatable_bonds>
3

> <r_i_docking_score>
-9.06320008670698

> <r_i_glide_ligand_efficiency>
-0.302106669556899

> <r_i_glide_ligand_efficiency_sa>
-0.938715662848406

> <r_i_glide_ligand_efficiency_ln>
-2.05925781117414

> <r_i_glide_gscore>
-9.06320008670698

> <r_i_glide_lipo>
-3.3903746637977

> <r_i_glide_hbond>
-0.399753221903822

> <r_i_glide_metal>
0

> <r_i_glide_rewards>
-2.41946076740136

> <r_i_glide_evdw>
-45.386287689209

> <r_i_glide_ecoul>
-5.16501665115356

> <r_i_glide_erotb>
0.21452492048809

> <r_i_glide_esite>
-0.0240694719587006

> <r_i_glide_emodel>
-76.2900318540203

> <r_i_glide_energy>
-50.5513043403625

> <r_i_glide_einternal>
0.600345969200134

> <i_i_glide_confnum>
8

> <i_i_glide_posenum>
7

> <r_i_glide_eff_state_penalty>
0

> <s_user_duplicate_titles>
CHEMBL258_lig735,354664

> <s_m_subgroup_title>
dock_pv

> <s_m_subgroupid>
dock_pv

> <b_m_subgroup_collapsed>
1

$$$$
CHEMBL258_lig1182
                    3D
 Schrodinger Suite 2021-1.
 44 47  0  0  1  0            999 V2000
   22.3766   36.4515   84.1341 C   0  0  0  0  0  0
   23.1192   38.2856   85.6202 C   0  0  0  0  0  0
   25.4473   39.0369   85.5450 C   0  0  0  0  0  0
   18.9498   36.3417   86.9314 C   0  0  0  0  0  0
   18.0916   37.3986   86.6445 C   0  0  0  0  0  0
   20.7237   37.4094   85.6549 C   0  0  0  0  0  0
   20.2613   36.3487   86.4581 C   0  0  0  0  0  0
   28.8098   36.6119   82.4869 C   0  0  0  0  0  0
   31.3939   37.5772   82.9958 C   0  0  0  0  0  0
   30.2847   38.2209   83.5444 C   0  0  0  0  0  0
   32.4159   35.7260   81.5931 C   0  0  0  0  0  0
   32.6331   38.0598   83.2435 F   0  0  0  0  0  0
   31.2195   36.4452   82.1923 C   0  0  0  0  0  0
   29.9290   35.9667   81.9514 C   0  0  0  0  0  0
   28.9976   37.7456   83.2877 C   0  0  0  0  0  0
   27.5533   36.1173   82.0968 N   0  0  0  0  0  0
   26.2632   36.2170   82.6317 C   0  0  0  0  0  0
   25.3500   35.3722   82.0870 N   0  0  0  0  0  0
   24.0855   35.4210   82.5789 C   0  0  0  0  0  0
   26.0022   37.1046   83.6255 N   0  0  0  0  0  0
   24.7210   37.1655   84.0867 C   0  0  0  0  0  0
   24.3714   38.1423   85.0660 N   0  0  0  0  0  0
   22.8578   39.1091   86.5017 O   0  0  0  0  0  0
   22.0975   37.3696   85.0901 C   0  0  0  0  0  0
   23.7285   36.3080   83.5952 C   0  0  0  0  0  0
   19.8513   38.4842   85.3932 C   0  0  0  0  0  0
   18.5500   38.4697   85.8867 C   0  0  0  0  0  0
   20.3440   39.8711   84.4870 Cl  0  0  0  0  0  0
   21.2875   35.0207   86.8868 Cl  0  0  0  0  0  0
   21.5929   35.7882   83.7916 H   0  0  0  0  0  0
   25.1374   39.7379   86.3216 H   0  0  0  0  0  0
   26.2717   38.4496   85.9513 H   0  0  0  0  0  0
   25.8373   39.6268   84.7146 H   0  0  0  0  0  0
   18.5990   35.5161   87.5340 H   0  0  0  0  0  0
   17.0769   37.3987   87.0172 H   0  0  0  0  0  0
   30.4254   39.0971   84.1601 H   0  0  0  0  0  0
   32.1700   34.7029   81.3044 H   0  0  0  0  0  0
   33.2279   35.6636   82.3184 H   0  0  0  0  0  0
   32.7823   36.2608   80.7169 H   0  0  0  0  0  0
   29.7988   35.0966   81.3214 H   0  0  0  0  0  0
   28.1632   38.2899   83.6986 H   0  0  0  0  0  0
   27.5834   35.6014   81.2157 H   0  0  0  0  0  0
   23.3591   34.7529   82.1355 H   0  0  0  0  0  0
   17.8850   39.2963   85.6838 H   0  0  0  0  0  0
  1 25  1  0  0  0
  1 24  2  0  0  0
  1 30  1  0  0  0
  2 24  1  0  0  0
  2 22  1  0  0  0
  2 23  2  0  0  0
  3 22  1  0  0  0
  3 31  1  0  0  0
  3 32  1  0  0  0
  3 33  1  0  0  0
  4  5  2  0  0  0
  4  7  1  0  0  0
  4 34  1  0  0  0
  5 27  1  0  0  0
  5 35  1  0  0  0
  6 26  1  0  0  0
  6 24  1  0  0  0
  6  7  2  0  0  0
  7 29  1  0  0  0
  8 14  1  0  0  0
  8 16  1  0  0  0
  8 15  2  0  0  0
  9 13  1  0  0  0
  9 12  1  0  0  0
  9 10  2  0  0  0
 10 15  1  0  0  0
 10 36  1  0  0  0
 11 13  1  0  0  0
 11 37  1  0  0  0
 11 38  1  0  0  0
 11 39  1  0  0  0
 13 14  2  0  0  0
 14 40  1  0  0  0
 15 41  1  0  0  0
 16 17  1  0  0  0
 16 42  1  0  0  0
 17 18  1  0  0  0
 17 20  2  0  0  0
 18 19  2  0  0  0
 19 25  1  0  0  0
 19 43  1  0  0  0
 20 21  1  0  0  0
 21 25  2  0  0  0
 21 22  1  0  0  0
 26 28  1  0  0  0
 26 27  2  0  0  0
 27 44  1  0  0  0
M  END
> <s_m_entry_id>
4518

> <s_m_entry_name>
dock_pv.6

> <s_m_Source_Path>
/home/csk/Desktop/cluster/DUD-E-result/lck

> <s_m_Source_File>
dock_pv.maegz

> <i_m_Source_File_Index>
6

> <chembl_id>
CHEMBL574058

> <chembl_pref_name>
None

> <i_lp_mmshare_version>
53161

> <i_f3d_flags>
0

> <r_lp_tautomer_probability>
1

> <s_lp_Force_Field>
OPLS_2005

> <r_lp_Energy>
26.61785

> <b_lp_Chiralities_Consistent>
1

> <s_lp_Variant>
CHEMBL258_lig1182-1

> <s_i_glide_gridfile>
glide-grid_2of2

> <i_i_glide_lignum>
1270

> <i_i_glide_rotatable_bonds>
3

> <r_i_docking_score>
-9.0383196187692

> <r_i_glide_ligand_efficiency>
-0.311666193750662

> <r_i_glide_ligand_efficiency_sa>
-0.957537289982854

> <r_i_glide_ligand_efficiency_ln>
-2.06954600068784

> <r_i_glide_gscore>
-9.0383196187692

> <r_i_glide_lipo>
-3.06728481174145

> <r_i_glide_hbond>
-0.541294860783673

> <r_i_glide_metal>
0

> <r_i_glide_rewards>
-2.45931925150681

> <r_i_glide_evdw>
-41.6496353149414

> <r_i_glide_ecoul>
-7.09614372253418

> <r_i_glide_erotb>
0.226449097711833

> <r_i_glide_esite>
-0.0499664683219039

> <r_i_glide_emodel>
-73.4817539074875

> <r_i_glide_energy>
-48.7457790374756

> <r_i_glide_einternal>
3.14927506446838

> <i_i_glide_confnum>
2

> <i_i_glide_posenum>
286

> <r_i_glide_eff_state_penalty>
0

> <s_user_duplicate_titles>
CHEMBL258_lig1182,568349

> <s_m_subgroup_title>
dock_pv

> <s_m_subgroupid>
dock_pv

> <b_m_subgroup_collapsed>
1

$$$$
CHEMBL258_lig728
                    3D
 Schrodinger Suite 2021-1.
 58 62  0  0  1  0            999 V2000
   24.8923   39.4718   85.1748 C   0  0  0  0  0  0
   24.1199   39.9572   86.3844 C   0  0  0  0  0  0
   22.8609   39.0951   86.4670 C   0  0  0  0  0  0
   22.9733   38.1932   85.4551 N   0  0  0  0  0  0
   24.3288   38.1645   84.9473 N   0  0  0  0  0  0
   25.3947   35.3407   82.0835 N   0  0  0  0  0  0
   26.2853   36.2152   82.6089 C   0  0  0  0  0  0
   25.9873   37.1378   83.5630 N   0  0  0  0  0  0
   24.1230   35.3890   82.5485 C   0  0  0  0  0  0
   23.7399   36.2646   83.5589 C   0  0  0  0  0  0
   24.7068   37.1747   84.0157 C   0  0  0  0  0  0
   22.0546   37.2559   84.9909 C   0  0  0  0  0  0
   22.3774   36.3252   84.0754 C   0  0  0  0  0  0
   27.5849   36.1090   82.0928 N   0  0  0  0  0  0
   28.8344   36.6207   82.4870 C   0  0  0  0  0  0
   28.9998   37.6826   83.3845 C   0  0  0  0  0  0
   30.2639   38.2224   83.6032 C   0  0  0  0  0  0
   31.3705   37.7126   82.9211 C   0  0  0  0  0  0
   31.2180   36.6201   82.0675 C   0  0  0  0  0  0
   29.9555   36.0755   81.8581 C   0  0  0  0  0  0
   20.6706   37.2541   85.5305 C   0  0  0  0  0  0
   19.7482   38.2498   85.1674 C   0  0  0  0  0  0
   18.4489   38.2288   85.6715 C   0  0  0  0  0  0
   18.0473   37.2173   86.5354 C   0  0  0  0  0  0
   18.9508   36.2216   86.8960 C   0  0  0  0  0  0
   20.2580   36.2405   86.4134 C   0  0  0  0  0  0
   21.3396   34.9857   86.9174 Cl  0  0  0  0  0  0
   20.1935   39.5447   84.1190 Cl  0  0  0  0  0  0
   21.9557   39.2461   87.2895 O   0  0  0  0  0  0
   32.7355   38.3740   83.0690 C   0  0  0  0  0  0
   33.1571   39.2227   81.8402 C   0  0  0  0  0  0
   32.1502   40.1998   81.4104 N   0  0  0  0  0  0
   32.4911   40.7702   80.1091 C   0  0  0  0  0  0
   31.9477   41.2710   82.3833 C   0  0  0  0  0  0
   24.7008   40.0919   84.2938 H   0  0  0  0  0  0
   25.9709   39.4214   85.3496 H   0  0  0  0  0  0
   23.8675   41.0163   86.3062 H   0  0  0  0  0  0
   24.7134   39.8271   87.2868 H   0  0  0  0  0  0
   23.4166   34.6932   82.1147 H   0  0  0  0  0  0
   21.6394   35.6055   83.7467 H   0  0  0  0  0  0
   27.6316   35.5754   81.2221 H   0  0  0  0  0  0
   28.1661   38.1391   83.8885 H   0  0  0  0  0  0
   30.3725   39.0611   84.2742 H   0  0  0  0  0  0
   32.0668   36.2132   81.5379 H   0  0  0  0  0  0
   29.8529   35.2532   81.1632 H   0  0  0  0  0  0
   17.7498   39.0074   85.4030 H   0  0  0  0  0  0
   17.0387   37.2071   86.9214 H   0  0  0  0  0  0
   18.6396   35.4364   87.5684 H   0  0  0  0  0  0
   33.4821   37.5973   83.2432 H   0  0  0  0  0  0
   32.7598   38.9824   83.9748 H   0  0  0  0  0  0
   33.3860   38.5374   81.0215 H   0  0  0  0  0  0
   34.0949   39.7374   82.0591 H   0  0  0  0  0  0
   31.6924   41.4216   79.7507 H   0  0  0  0  0  0
   33.4160   41.3481   80.1512 H   0  0  0  0  0  0
   32.6192   39.9837   79.3637 H   0  0  0  0  0  0
   31.1292   41.9124   82.0619 H   0  0  0  0  0  0
   31.6708   40.8790   83.3604 H   0  0  0  0  0  0
   32.8381   41.8872   82.5070 H   0  0  0  0  0  0
  1  5  1  0  0  0
  1  2  1  0  0  0
  1 35  1  0  0  0
  1 36  1  0  0  0
  2  3  1  0  0  0
  2 37  1  0  0  0
  2 38  1  0  0  0
  3  4  1  0  0  0
  3 29  2  0  0  0
  4  5  1  0  0  0
  4 12  1  0  0  0
  5 11  1  0  0  0
  6  9  2  0  0  0
  6  7  1  0  0  0
  7 14  1  0  0  0
  7  8  2  0  0  0
  8 11  1  0  0  0
  9 10  1  0  0  0
  9 39  1  0  0  0
 10 11  2  0  0  0
 10 13  1  0  0  0
 12 21  1  0  0  0
 12 13  2  0  0  0
 13 40  1  0  0  0
 14 15  1  0  0  0
 14 41  1  0  0  0
 15 16  2  0  0  0
 15 20  1  0  0  0
 16 17  1  0  0  0
 16 42  1  0  0  0
 17 18  2  0  0  0
 17 43  1  0  0  0
 18 19  1  0  0  0
 18 30  1  0  0  0
 19 20  2  0  0  0
 19 44  1  0  0  0
 20 45  1  0  0  0
 21 22  2  0  0  0
 21 26  1  0  0  0
 22 23  1  0  0  0
 22 28  1  0  0  0
 23 24  2  0  0  0
 23 46  1  0  0  0
 24 25  1  0  0  0
 24 47  1  0  0  0
 25 26  2  0  0  0
 25 48  1  0  0  0
 26 27  1  0  0  0
 30 31  1  0  0  0
 30 49  1  0  0  0
 30 50  1  0  0  0
 31 32  1  0  0  0
 31 51  1  0  0  0
 31 52  1  0  0  0
 32 33  1  0  0  0
 32 34  1  0  0  0
 33 53  1  0  0  0
 33 54  1  0  0  0
 33 55  1  0  0  0
 34 56  1  0  0  0
 34 57  1  0  0  0
 34 58  1  0  0  0
M  END
> <s_m_entry_id>
4519

> <s_m_entry_name>
dock_pv.7

> <s_m_Source_Path>
/home/csk/Desktop/cluster/DUD-E-result/lck

> <s_m_Source_File>
dock_pv.maegz

> <i_m_Source_File_Index>
7

> <chembl_id>
CHEMBL441361

> <chembl_pref_name>
None

> <i_lp_mmshare_version>
53161

> <i_f3d_flags>
0

> <r_lp_tautomer_probability>
1

> <s_lp_Force_Field>
OPLS_2005

> <r_lp_Energy>
31.25722

> <b_lp_Chiralities_Consistent>
1

> <s_lp_Variant>
CHEMBL258_lig728-1

> <s_i_glide_gridfile>
glide-grid_2of2

> <i_i_glide_lignum>
813

> <i_i_glide_rotatable_bonds>
6

> <r_i_docking_score>
-9.01905741359675

> <r_i_glide_ligand_efficiency>
-0.265266394517551

> <r_i_glide_ligand_efficiency_sa>
-0.85936014115125

> <r_i_glide_ligand_efficiency_ln>
-1.99256275865511

> <r_i_glide_gscore>
-9.01905741359675

> <r_i_glide_lipo>
-3.05064698596809

> <r_i_glide_hbond>
-0.558679073013335

> <r_i_glide_metal>
0

> <r_i_glide_rewards>
-2.00894028498674

> <r_i_glide_evdw>
-46.9945030212402

> <r_i_glide_ecoul>
-8.61021327972412

> <r_i_glide_erotb>
0.290712952314235

> <r_i_glide_esite>
-0.0502468789221859

> <r_i_glide_emodel>
-82.0316187260101

> <r_i_glide_energy>
-55.6047163009644

> <r_i_glide_einternal>
5.11739635467529

> <i_i_glide_confnum>
2

> <i_i_glide_posenum>
58

> <r_i_glide_eff_state_penalty>
0

> <s_user_duplicate_titles>
CHEMBL258_lig728,354861

> <s_m_subgroup_title>
dock_pv

> <s_m_subgroupid>
dock_pv

> <b_m_subgroup_collapsed>
1

$$$$
CHEMBL258_lig1174
                    3D
 Schrodinger Suite 2021-1.
 49 55  0  0  1  0            999 V2000
   24.8429   41.4918   85.9178 C   0  0  0  0  0  0
   25.9306   41.5806   87.0069 C   0  0  2  0  0  0
   27.2935   40.9874   86.5603 C   0  0  2  0  0  0
   27.3366   39.4522   86.5204 C   0  0  0  0  0  0
   26.8928   38.8531   85.2593 N   0  0  0  0  0  0
   24.0261   40.2673   85.9048 N   0  0  0  0  0  0
   24.3601   39.0391   85.3462 C   0  0  0  0  0  0
   25.5901   38.5463   84.8901 C   0  0  0  0  0  0
   25.6329   37.4581   83.9921 C   0  0  0  0  0  0
   23.1763   38.3047   85.1232 C   0  0  0  0  0  0
   23.2371   37.1416   84.3381 C   0  0  0  0  0  0
   24.4309   36.7660   83.7311 C   0  0  0  0  0  0
   24.1555   35.6192   82.8173 C   0  0  0  0  0  0
   22.8315   35.4216   82.8876 N   0  0  0  0  0  0
   22.1359   36.2357   83.8705 C   0  0  0  0  0  0
   26.9738   37.3580   83.5503 C   0  0  0  0  0  0
   27.7476   38.2660   84.3316 C   0  0  0  0  0  0
   29.1376   38.3846   84.1593 C   0  0  0  0  0  0
   29.7470   37.5441   83.2300 C   0  0  0  0  0  0
   29.0162   36.6211   82.4882 C   0  0  0  0  0  0
   27.6329   36.5425   82.6103 C   0  0  0  0  0  0
   22.6762   40.2244   86.2546 C   0  0  0  0  0  0
   22.1376   38.9935   85.7787 C   0  0  0  0  0  0
   20.7708   38.7167   85.9665 C   0  0  0  0  0  0
   19.9730   39.6663   86.6022 C   0  0  0  0  0  0
   20.5106   40.8698   87.0506 C   0  0  0  0  0  0
   21.8623   41.1767   86.8892 C   0  0  0  0  0  0
   24.9269   35.0134   82.0870 O   0  0  0  0  0  0
   25.4666   41.0638   88.2482 O   0  0  0  0  0  0
   28.3068   41.4215   87.4542 O   0  0  0  0  0  0
   24.1731   42.3468   86.0066 H   0  0  0  0  0  0
   25.2810   41.6071   84.9250 H   0  0  0  0  0  0
   26.0995   42.6490   87.1762 H   0  0  0  0  0  0
   27.5756   41.3855   85.5846 H   0  0  0  0  0  0
   26.7406   39.0156   87.3226 H   0  0  0  0  0  0
   28.3475   39.0907   86.7055 H   0  0  0  0  0  0
   22.3571   34.7485   82.3006 H   0  0  0  0  0  0
   21.7139   35.6204   84.6668 H   0  0  0  0  0  0
   21.3197   36.7811   83.3920 H   0  0  0  0  0  0
   29.7335   39.0698   84.7450 H   0  0  0  0  0  0
   30.8161   37.5949   83.0919 H   0  0  0  0  0  0
   29.5272   35.9807   81.7828 H   0  0  0  0  0  0
   27.1085   35.8337   81.9926 H   0  0  0  0  0  0
   20.3307   37.7975   85.6115 H   0  0  0  0  0  0
   18.9172   39.4800   86.7373 H   0  0  0  0  0  0
   19.8630   41.5981   87.5163 H   0  0  0  0  0  0
   22.2452   42.1269   87.2314 H   0  0  0  0  0  0
   24.6489   41.5090   88.4826 H   0  0  0  0  0  0
   29.1121   40.9229   87.2796 H   0  0  0  0  0  0
  1  6  1  0  0  0
  1  2  1  0  0  0
  1 31  1  0  0  0
  1 32  1  0  0  0
  2  3  1  0  0  0
  2 29  1  0  0  0
  2 33  1  0  0  0
  3  4  1  0  0  0
  3 30  1  0  0  0
  3 34  1  0  0  0
  4  5  1  0  0  0
  4 35  1  0  0  0
  4 36  1  0  0  0
  5 17  1  0  0  0
  5  8  1  0  0  0
  6  7  1  0  0  0
  6 22  1  0  0  0
  7  8  2  0  0  0
  7 10  1  0  0  0
  8  9  1  0  0  0
  9 16  1  0  0  0
  9 12  2  0  0  0
 10 23  1  0  0  0
 10 11  2  0  0  0
 11 15  1  0  0  0
 11 12  1  0  0  0
 12 13  1  0  0  0
 13 14  1  0  0  0
 13 28  2  0  0  0
 14 15  1  0  0  0
 14 37  1  0  0  0
 15 38  1  0  0  0
 15 39  1  0  0  0
 16 17  2  0  0  0
 16 21  1  0  0  0
 17 18  1  0  0  0
 18 19  2  0  0  0
 18 40  1  0  0  0
 19 20  1  0  0  0
 19 41  1  0  0  0
 20 21  2  0  0  0
 20 42  1  0  0  0
 21 43  1  0  0  0
 22 23  2  0  0  0
 22 27  1  0  0  0
 23 24  1  0  0  0
 24 25  2  0  0  0
 24 44  1  0  0  0
 25 26  1  0  0  0
 25 45  1  0  0  0
 26 27  2  0  0  0
 26 46  1  0  0  0
 27 47  1  0  0  0
 29 48  1  0  0  0
 30 49  1  0  0  0
M  END
> <s_m_entry_id>
4520

> <s_m_entry_name>
dock_pv.8

> <s_m_Source_Path>
/home/csk/Desktop/cluster/DUD-E-result/lck

> <s_m_Source_File>
dock_pv.maegz

> <i_m_Source_File_Index>
8

> <chembl_id>
CHEMBL559787

> <chembl_pref_name>
None

> <i_lp_mmshare_version>
53161

> <i_f3d_flags>
0

> <r_lp_tautomer_probability>
1

> <s_lp_Force_Field>
OPLS_2005

> <r_lp_Energy>
119.365643

> <b_lp_Chiralities_Consistent>
1

> <s_lp_Variant>
CHEMBL258_lig1174-1

> <s_i_glide_gridfile>
glide-grid_2of2

> <i_i_glide_lignum>
1262

> <i_i_glide_rotatable_bonds>
2

> <r_i_docking_score>
-8.96270806853136

> <r_i_glide_ligand_efficiency>
-0.298756935617712

> <r_i_glide_ligand_efficiency_sa>
-0.928307260678067

> <r_i_glide_ligand_efficiency_ln>
-2.03642492969641

> <r_i_glide_gscore>
-8.96270806853136

> <r_i_glide_lipo>
-2.88001987490903

> <r_i_glide_hbond>
-0.599392626181844

> <r_i_glide_metal>
0

> <r_i_glide_rewards>
-2.2665765122647

> <r_i_glide_evdw>
-36.1901206970215

> <r_i_glide_ecoul>
-9.38142013549805

> <r_i_glide_erotb>
0

> <r_i_glide_esite>
0

> <r_i_glide_emodel>
-71.9887230577822

> <r_i_glide_energy>
-45.5715408325195

> <r_i_glide_einternal>
0.0719175860285759

> <i_i_glide_confnum>
1

> <i_i_glide_posenum>
323

> <r_i_glide_eff_state_penalty>
0

> <s_user_duplicate_titles>
CHEMBL258_lig1174

> <s_m_subgroup_title>
dock_pv

> <s_m_subgroupid>
dock_pv

> <b_m_subgroup_collapsed>
1

$$$$
CHEMBL258_lig736
                    3D
 Schrodinger Suite 2021-1.
 44 47  0  0  1  0            999 V2000
   25.4790   35.2677   82.1141 N   0  0  0  0  0  0
   26.3152   36.1364   82.7365 C   0  0  0  0  0  0
   25.9335   37.0845   83.6292 N   0  0  0  0  0  0
   24.1706   35.3259   82.4629 C   0  0  0  0  0  0
   23.6968   36.2204   83.4181 C   0  0  0  0  0  0
   24.6142   37.1352   83.9548 C   0  0  0  0  0  0
   24.1419   38.1342   84.8088 N   0  0  0  0  0  0
   22.6669   38.2335   85.1041 N   0  0  0  0  0  0
   21.8137   37.1840   84.6707 C   0  0  0  0  0  0
   22.3036   36.2353   83.8501 C   0  0  0  0  0  0
   27.6612   35.9753   82.3996 N   0  0  0  0  0  0
   24.9567   38.9741   85.6862 C   0  0  0  0  0  0
   22.1915   39.5783   84.7690 C   0  0  0  0  0  0
   28.8639   36.6205   82.7274 C   0  0  0  0  0  0
   28.9557   37.7083   83.6071 C   0  0  0  0  0  0
   30.1885   38.3155   83.8374 C   0  0  0  0  0  0
   31.3270   37.8415   83.1905 C   0  0  0  0  0  0
   31.2455   36.7621   82.3153 C   0  0  0  0  0  0
   30.0151   36.1519   82.0870 C   0  0  0  0  0  0
   32.5202   38.4359   83.4136 F   0  0  0  0  0  0
   20.4587   37.0746   85.2429 C   0  0  0  0  0  0
   20.3035   36.4355   86.4836 C   0  0  0  0  0  0
   19.0464   36.4025   87.0907 C   0  0  0  0  0  0
   17.9498   37.0215   86.4938 C   0  0  0  0  0  0
   18.0866   37.6033   85.2382 C   0  0  0  0  0  0
   19.3246   37.5992   84.5967 C   0  0  0  0  0  0
   19.4027   38.2210   82.9895 Cl  0  0  0  0  0  0
   21.6553   35.6746   87.2816 Cl  0  0  0  0  0  0
   23.5044   34.6196   81.9870 H   0  0  0  0  0  0
   21.6621   35.4110   83.5765 H   0  0  0  0  0  0
   27.7626   35.3130   81.6405 H   0  0  0  0  0  0
   25.8962   38.4828   85.9391 H   0  0  0  0  0  0
   25.1997   39.9081   85.1796 H   0  0  0  0  0  0
   24.4422   39.2184   86.6171 H   0  0  0  0  0  0
   22.2349   39.7601   83.6950 H   0  0  0  0  0  0
   21.1604   39.7234   85.0923 H   0  0  0  0  0  0
   22.7806   40.3511   85.2629 H   0  0  0  0  0  0
   28.0942   38.1020   84.1187 H   0  0  0  0  0  0
   30.2645   39.1519   84.5167 H   0  0  0  0  0  0
   32.1326   36.3992   81.8171 H   0  0  0  0  0  0
   29.9642   35.3166   81.4013 H   0  0  0  0  0  0
   18.9370   35.9094   88.0442 H   0  0  0  0  0  0
   16.9857   37.0144   86.9823 H   0  0  0  0  0  0
   17.2209   38.0382   84.7581 H   0  0  0  0  0  0
  1  2  2  0  0  0
  1  4  1  0  0  0
  2 11  1  0  0  0
  2  3  1  0  0  0
  3  6  2  0  0  0
  4  5  2  0  0  0
  4 29  1  0  0  0
  5 10  1  0  0  0
  5  6  1  0  0  0
  6  7  1  0  0  0
  7  8  1  0  0  0
  7 12  1  0  0  0
  8  9  1  0  0  0
  8 13  1  0  0  0
  9 10  2  0  0  0
  9 21  1  0  0  0
 10 30  1  0  0  0
 11 14  1  0  0  0
 11 31  1  0  0  0
 12 32  1  0  0  0
 12 33  1  0  0  0
 12 34  1  0  0  0
 13 35  1  0  0  0
 13 36  1  0  0  0
 13 37  1  0  0  0
 14 15  2  0  0  0
 14 19  1  0  0  0
 15 16  1  0  0  0
 15 38  1  0  0  0
 16 17  2  0  0  0
 16 39  1  0  0  0
 17 18  1  0  0  0
 17 20  1  0  0  0
 18 19  2  0  0  0
 18 40  1  0  0  0
 19 41  1  0  0  0
 21 22  2  0  0  0
 21 26  1  0  0  0
 22 23  1  0  0  0
 22 28  1  0  0  0
 23 24  2  0  0  0
 23 42  1  0  0  0
 24 25  1  0  0  0
 24 43  1  0  0  0
 25 26  2  0  0  0
 25 44  1  0  0  0
 26 27  1  0  0  0
M  END
> <s_m_entry_id>
4521

> <s_m_entry_name>
dock_pv.9

> <s_m_Source_Path>
/home/csk/Desktop/cluster/DUD-E-result/lck

> <s_m_Source_File>
dock_pv.maegz

> <i_m_Source_File_Index>
9

> <chembl_id>
CHEMBL212767

> <chembl_pref_name>
None

> <i_lp_mmshare_version>
53161

> <i_f3d_flags>
0

> <r_lp_tautomer_probability>
1

> <s_lp_Force_Field>
OPLS_2005

> <r_lp_Energy>
20.296969

> <b_lp_Chiralities_Consistent>
1

> <s_lp_Variant>
CHEMBL258_lig736-1

> <s_i_glide_gridfile>
glide-grid_2of2

> <i_i_glide_lignum>
821

> <i_i_glide_rotatable_bonds>
3

> <r_i_docking_score>
-8.90552907122676

> <r_i_glide_ligand_efficiency>
-0.31805460968667

> <r_i_glide_ligand_efficiency_sa>
-0.965801119156012

> <r_i_glide_ligand_efficiency_ln>
-2.05565758733458

> <r_i_glide_gscore>
-8.90552907122676

> <r_i_glide_lipo>
-3.43141316340078

> <r_i_glide_hbond>
-0.517153975868426

> <r_i_glide_metal>
0

> <r_i_glide_rewards>
-2.44934398256173

> <r_i_glide_evdw>
-39.4976196289062

> <r_i_glide_ecoul>
-4.95499181747437

> <r_i_glide_erotb>
0.239396421568792

> <r_i_glide_esite>
-0.0288846168981517

> <r_i_glide_emodel>
-65.5648845845608

> <r_i_glide_energy>
-44.4526114463806

> <r_i_glide_einternal>
3.98737955093384

> <i_i_glide_confnum>
5

> <i_i_glide_posenum>
2

> <r_i_glide_eff_state_penalty>
0

> <s_user_duplicate_titles>
CHEMBL258_lig736

> <s_m_subgroup_title>
dock_pv

> <s_m_subgroupid>
dock_pv

> <b_m_subgroup_collapsed>
1

$$$$
CHEMBL258_lig1179
                    3D
 Schrodinger Suite 2021-1.
 41 44  0  0  1  0            999 V2000
   31.3392   37.7220   83.1344 C   0  0  0  0  0  0
   31.2314   36.5893   82.3333 C   0  0  0  0  0  0
   29.9778   36.0362   82.0859 C   0  0  0  0  0  0
   28.8270   36.6161   82.6264 C   0  0  0  0  0  0
   28.9482   37.7580   83.4321 C   0  0  0  0  0  0
   30.2039   38.3056   83.6875 C   0  0  0  0  0  0
   27.5974   36.0320   82.2750 N   0  0  0  0  0  0
   26.2736   36.1783   82.7015 C   0  0  0  0  0  0
   25.9821   37.0738   83.6757 N   0  0  0  0  0  0
   24.0874   35.4209   82.5488 C   0  0  0  0  0  0
   25.3697   35.3592   82.0962 N   0  0  0  0  0  0
   23.7065   36.3048   83.5629 C   0  0  0  0  0  0
   24.6895   37.1534   84.0867 C   0  0  0  0  0  0
   24.3318   38.1224   85.0703 N   0  0  0  0  0  0
   23.0790   38.2537   85.6191 C   0  0  0  0  0  0
   22.0626   37.3481   85.0608 C   0  0  0  0  0  0
   22.3465   36.4475   84.0878 C   0  0  0  0  0  0
   25.4002   39.0181   85.5653 C   0  0  0  0  0  0
   22.8115   39.0589   86.5147 O   0  0  0  0  0  0
   20.6896   37.3901   85.6215 C   0  0  0  0  0  0
   20.2249   36.3338   86.4282 C   0  0  0  0  0  0
   18.9128   36.3332   86.8958 C   0  0  0  0  0  0
   18.0617   37.3974   86.6167 C   0  0  0  0  0  0
   18.5286   38.4714   85.8688 C   0  0  0  0  0  0
   19.8275   38.4755   85.3709 C   0  0  0  0  0  0
   20.3337   39.8708   84.4859 Cl  0  0  0  0  0  0
   21.2538   35.0186   86.8864 Cl  0  0  0  0  0  0
   32.5558   38.2590   83.3779 F   0  0  0  0  0  0
   32.1167   36.1416   81.9053 H   0  0  0  0  0  0
   29.9061   35.1592   81.4570 H   0  0  0  0  0  0
   28.0899   38.2514   83.8538 H   0  0  0  0  0  0
   30.2993   39.1860   84.3057 H   0  0  0  0  0  0
   27.6667   35.4177   81.4743 H   0  0  0  0  0  0
   23.3685   34.7604   82.0837 H   0  0  0  0  0  0
   21.5639   35.7945   83.7256 H   0  0  0  0  0  0
   26.2113   38.4321   85.9994 H   0  0  0  0  0  0
   25.8138   39.5954   84.7370 H   0  0  0  0  0  0
   25.0762   39.7323   86.3244 H   0  0  0  0  0  0
   18.5584   35.5086   87.5004 H   0  0  0  0  0  0
   17.0483   37.4023   86.9945 H   0  0  0  0  0  0
   17.8726   39.3092   85.6815 H   0  0  0  0  0  0
  1  2  2  0  0  0
  1  6  1  0  0  0
  1 28  1  0  0  0
  2  3  1  0  0  0
  2 29  1  0  0  0
  3  4  2  0  0  0
  3 30  1  0  0  0
  4  7  1  0  0  0
  4  5  1  0  0  0
  5  6  2  0  0  0
  5 31  1  0  0  0
  6 32  1  0  0  0
  7  8  1  0  0  0
  7 33  1  0  0  0
  8  9  1  0  0  0
  8 11  2  0  0  0
  9 13  2  0  0  0
 10 12  2  0  0  0
 10 11  1  0  0  0
 10 34  1  0  0  0
 12 17  1  0  0  0
 12 13  1  0  0  0
 13 14  1  0  0  0
 14 15  1  0  0  0
 14 18  1  0  0  0
 15 16  1  0  0  0
 15 19  2  0  0  0
 16 17  2  0  0  0
 16 20  1  0  0  0
 17 35  1  0  0  0
 18 36  1  0  0  0
 18 37  1  0  0  0
 18 38  1  0  0  0
 20 21  2  0  0  0
 20 25  1  0  0  0
 21 22  1  0  0  0
 21 27  1  0  0  0
 22 23  2  0  0  0
 22 39  1  0  0  0
 23 24  1  0  0  0
 23 40  1  0  0  0
 24 25  2  0  0  0
 24 41  1  0  0  0
 25 26  1  0  0  0
M  END
> <s_m_entry_id>
4522

> <s_m_entry_name>
dock_pv.10

> <s_m_Source_Path>
/home/csk/Desktop/cluster/DUD-E-result/lck

> <s_m_Source_File>
dock_pv.maegz

> <i_m_Source_File_Index>
10

> <chembl_id>
CHEMBL574059

> <chembl_pref_name>
None

> <i_lp_mmshare_version>
53161

> <i_f3d_flags>
0

> <r_lp_tautomer_probability>
1

> <s_lp_Force_Field>
OPLS_2005

> <r_lp_Energy>
26.347679

> <b_lp_Chiralities_Consistent>
1

> <s_lp_Variant>
CHEMBL258_lig1179-1

> <s_i_glide_gridfile>
glide-grid_2of2

> <i_i_glide_lignum>
1267

> <i_i_glide_rotatable_bonds>
3

> <r_i_docking_score>
-8.86818266459533

> <r_i_glide_ligand_efficiency>
-0.316720809449833

> <r_i_glide_ligand_efficiency_sa>
-0.961750916070646

> <r_i_glide_ligand_efficiency_ln>
-2.0470369401459

> <r_i_glide_gscore>
-8.86818266459533

> <r_i_glide_lipo>
-3.07217052238143

> <r_i_glide_hbond>
-0.527599111027398

> <r_i_glide_metal>
0

> <r_i_glide_rewards>
-2.56040118226576

> <r_i_glide_evdw>
-41.3760299682617

> <r_i_glide_ecoul>
-5.61360931396484

> <r_i_glide_erotb>
0.24047115126038

> <r_i_glide_esite>
-0.0376401046732982

> <r_i_glide_emodel>
-70.9514101526553

> <r_i_glide_energy>
-46.9896392822266

> <r_i_glide_einternal>
0.868337035179138

> <i_i_glide_confnum>
10

> <i_i_glide_posenum>
82

> <r_i_glide_eff_state_penalty>
0

> <s_user_duplicate_titles>
CHEMBL258_lig1179,568350

> <s_m_subgroup_title>
dock_pv

> <s_m_subgroupid>
dock_pv

> <b_m_subgroup_collapsed>
1

$$$$
CHEMBL258_lig249
                    3D
 Schrodinger Suite 2021-1.
 55 58  0  0  1  0            999 V2000
   24.9414   35.1548   82.2609 N   0  0  0  0  0  0
   26.2232   35.5868   82.3015 C   0  0  0  0  0  0
   26.7256   36.6240   83.0118 N   0  0  0  0  0  0
   24.0429   35.8209   83.0266 C   0  0  0  0  0  0
   24.4352   36.8812   83.8728 C   0  0  0  0  0  0
   25.8207   37.2275   83.7945 C   0  0  0  0  0  0
   26.0579   38.2877   84.6568 N   0  0  0  0  0  0
   24.8477   38.6202   85.2227 C   0  0  0  0  0  0
   23.8204   37.8010   84.7996 C   0  0  0  0  0  0
   22.4120   37.9114   85.2715 C   0  0  0  0  0  0
   21.6672   36.7821   85.6220 C   0  0  0  0  0  0
   20.3699   36.9236   86.1160 C   0  0  0  0  0  0
   19.7986   38.1891   86.2410 C   0  0  0  0  0  0
   20.5261   39.3196   85.8726 C   0  0  0  0  0  0
   21.8283   39.1793   85.3927 C   0  0  0  0  0  0
   22.7166   35.4229   82.8870 N   0  0  0  0  0  0
   27.3309   39.0147   84.8286 C   0  0  0  0  0  0
   27.4344   40.2131   83.8780 C   0  0  0  0  0  0
   26.5531   41.3803   84.3542 C   0  0  0  0  0  0
   26.8523   41.7834   85.7417 N   0  0  2  0  0  0
   26.9677   40.7263   86.7663 C   0  0  0  0  0  0
   27.6797   39.4458   86.2709 C   0  0  0  0  0  0
   19.6547   35.8212   86.4868 O   0  0  0  0  0  0
   26.1117   42.9901   86.1734 C   0  0  0  0  0  0
   24.5605   42.8190   86.2233 C   0  0  0  0  0  0
   23.7646   43.9053   86.0625 N   0  0  0  0  0  0
   24.0735   41.6984   86.3944 O   0  0  0  0  0  0
   24.2375   45.2843   85.9263 C   0  0  0  0  0  0
   22.3303   43.7507   85.8052 C   0  0  0  0  0  0
   26.9328   35.0508   81.6871 H   0  0  0  0  0  0
   24.7876   39.4432   85.9095 H   0  0  0  0  0  0
   22.1116   35.8010   85.5555 H   0  0  0  0  0  0
   18.7908   38.2951   86.6169 H   0  0  0  0  0  0
   20.0857   40.3025   85.9647 H   0  0  0  0  0  0
   22.3865   40.0641   85.1206 H   0  0  0  0  0  0
   21.9975   35.9297   83.3815 H   0  0  0  0  0  0
   22.4884   34.6860   82.2288 H   0  0  0  0  0  0
   28.0833   38.2755   84.5467 H   0  0  0  0  0  0
   27.1596   39.9064   82.8679 H   0  0  0  0  0  0
   28.4718   40.5230   83.7454 H   0  0  0  0  0  0
   25.4992   41.1189   84.2571 H   0  0  0  0  0  0
   26.6990   42.2391   83.7027 H   0  0  0  0  0  0
   27.5231   41.1510   87.6038 H   0  0  0  0  0  0
   26.0034   40.4633   87.1925 H   0  0  0  0  0  0
   28.7584   39.5818   86.3561 H   0  0  0  0  0  0
   27.5066   38.6205   86.9615 H   0  0  0  0  0  0
   19.8757   35.0401   85.9639 H   0  0  0  0  0  0
   26.3851   43.7828   85.4762 H   0  0  0  0  0  0
   26.4669   43.3155   87.1518 H   0  0  0  0  0  0
   25.2607   45.4315   86.2707 H   0  0  0  0  0  0
   23.6083   45.9501   86.5183 H   0  0  0  0  0  0
   24.1718   45.6080   84.8884 H   0  0  0  0  0  0
   21.9301   42.7942   86.1443 H   0  0  0  0  0  0
   21.7501   44.5311   86.2979 H   0  0  0  0  0  0
   22.1478   43.8212   84.7337 H   0  0  0  0  0  0
  1  2  2  0  0  0
  1  4  1  0  0  0
  2  3  1  0  0  0
  2 30  1  0  0  0
  3  6  2  0  0  0
  4  5  2  0  0  0
  4 16  1  0  0  0
  5  9  1  0  0  0
  5  6  1  0  0  0
  6  7  1  0  0  0
  7  8  1  0  0  0
  7 17  1  0  0  0
  8  9  2  0  0  0
  8 31  1  0  0  0
  9 10  1  0  0  0
 10 15  1  0  0  0
 10 11  2  0  0  0
 11 12  1  0  0  0
 11 32  1  0  0  0
 12 23  1  0  0  0
 12 13  2  0  0  0
 13 14  1  0  0  0
 13 33  1  0  0  0
 14 15  2  0  0  0
 14 34  1  0  0  0
 15 35  1  0  0  0
 16 36  1  0  0  0
 16 37  1  0  0  0
 17 18  1  0  0  0
 17 22  1  0  0  0
 17 38  1  0  0  0
 18 19  1  0  0  0
 18 39  1  0  0  0
 18 40  1  0  0  0
 19 20  1  0  0  0
 19 41  1  0  0  0
 19 42  1  0  0  0
 20 21  1  0  0  0
 20 24  1  0  0  0
 21 22  1  0  0  0
 21 43  1  0  0  0
 21 44  1  0  0  0
 22 45  1  0  0  0
 22 46  1  0  0  0
 23 47  1  0  0  0
 24 25  1  0  0  0
 24 48  1  0  0  0
 24 49  1  0  0  0
 25 26  1  0  0  0
 25 27  2  0  0  0
 26 28  1  0  0  0
 26 29  1  0  0  0
 28 50  1  0  0  0
 28 51  1  0  0  0
 28 52  1  0  0  0
 29 53  1  0  0  0
 29 54  1  0  0  0
 29 55  1  0  0  0
M  END
> <s_m_entry_id>
4523

> <s_m_entry_name>
dock_pv.11

> <s_m_Source_Path>
/home/csk/Desktop/cluster/DUD-E-result/lck

> <s_m_Source_File>
dock_pv.maegz

> <i_m_Source_File_Index>
11

> <chembl_id>
CHEMBL169920

> <chembl_pref_name>
None

> <i_lp_mmshare_version>
53161

> <i_f3d_flags>
0

> <r_lp_tautomer_probability>
0.999999999997365

> <s_lp_Force_Field>
OPLS_2005

> <r_lp_Energy>
31.184129

> <b_lp_Chiralities_Consistent>
1

> <s_lp_Variant>
CHEMBL258_lig249-1

> <s_i_glide_gridfile>
glide-grid_2of2

> <i_i_glide_lignum>
277

> <i_i_glide_rotatable_bonds>
6

> <r_i_docking_score>
-8.74034510405169

> <r_i_glide_ligand_efficiency>
-0.301391210484541

> <r_i_glide_ligand_efficiency_sa>
-0.925969286046143

> <r_i_glide_ligand_efficiency_ln>
-2.00131739279928

> <r_i_glide_gscore>
-8.74034510405169

> <r_i_glide_lipo>
-2.29343023765832

> <r_i_glide_hbond>
-0.773916484780898

> <r_i_glide_metal>
0

> <r_i_glide_rewards>
-2.71366678901821

> <r_i_glide_evdw>
-35.4345092773438

> <r_i_glide_ecoul>
-9.96944713592529

> <r_i_glide_erotb>
0.351698009921606

> <r_i_glide_esite>
-0.0438870682598821

> <r_i_glide_emodel>
-64.3576235039785

> <r_i_glide_energy>
-45.403956413269

> <r_i_glide_einternal>
9.07419300079346

> <i_i_glide_confnum>
67

> <i_i_glide_posenum>
108

> <r_i_glide_eff_state_penalty>
0

> <s_user_duplicate_titles>
CHEMBL258_lig249,282595

> <s_m_subgroup_title>
dock_pv

> <s_m_subgroupid>
dock_pv

> <b_m_subgroup_collapsed>
1

$$$$
CHEMBL258_lig267
                    3D
 Schrodinger Suite 2021-1.
 49 52  0  0  1  0            999 V2000
   25.1673   35.4172   82.0875 N   0  0  0  0  0  0
   23.8567   35.2186   82.3576 C   0  0  0  0  0  0
   23.0977   35.8307   83.2931 N   0  0  0  0  0  0
   25.8042   36.3763   82.7937 C   0  0  0  0  0  0
   25.1254   37.1540   83.7583 C   0  0  0  0  0  0
   23.7533   36.7905   83.9691 C   0  0  0  0  0  0
   23.2258   37.6198   84.9502 N   0  0  0  0  0  0
   24.2191   38.5155   85.2866 C   0  0  0  0  0  0
   25.4100   38.2640   84.6314 C   0  0  0  0  0  0
   26.6481   39.0739   84.8051 C   0  0  0  0  0  0
   27.4402   39.4826   83.7246 C   0  0  0  0  0  0
   28.5784   40.2638   83.9417 C   0  0  0  0  0  0
   28.9333   40.6373   85.2369 C   0  0  0  0  0  0
   28.1502   40.2326   86.3161 C   0  0  0  0  0  0
   27.0153   39.4537   86.1012 C   0  0  0  0  0  0
   27.1476   36.5479   82.4873 N   0  0  0  0  0  0
   21.8323   37.6284   85.4498 C   0  0  0  0  0  0
   21.6706   37.7528   86.9753 C   0  0  0  0  0  0
   21.8079   39.1914   87.5219 C   0  0  0  0  0  0
   21.1107   40.2386   86.7414 N   0  0  2  0  0  0
   21.1925   40.0935   85.2708 C   0  0  0  0  0  0
   20.9370   38.6622   84.7586 C   0  0  0  0  0  0
   29.3499   40.6765   82.8903 O   0  0  0  0  0  0
   21.5354   41.6231   87.0746 C   0  0  0  0  0  0
   21.3986   42.0083   88.5678 C   0  0  0  0  0  0
   20.5922   43.0209   88.8871 N   0  0  0  0  0  0
   22.0611   41.4445   89.4368 O   0  0  0  0  0  0
   23.3503   34.4882   81.7490 H   0  0  0  0  0  0
   24.0167   39.3120   85.9793 H   0  0  0  0  0  0
   27.1541   39.2321   82.7142 H   0  0  0  0  0  0
   29.8136   41.2388   85.4146 H   0  0  0  0  0  0
   28.4317   40.5162   87.3200 H   0  0  0  0  0  0
   26.4222   39.1447   86.9504 H   0  0  0  0  0  0
   27.6987   37.2086   83.0126 H   0  0  0  0  0  0
   27.5550   35.9576   81.7733 H   0  0  0  0  0  0
   21.4690   36.6322   85.1893 H   0  0  0  0  0  0
   22.3614   37.0767   87.4799 H   0  0  0  0  0  0
   20.7055   37.3436   87.2767 H   0  0  0  0  0  0
   22.8617   39.4449   87.5988 H   0  0  0  0  0  0
   21.4409   39.2168   88.5481 H   0  0  0  0  0  0
   20.4945   40.7890   84.8015 H   0  0  0  0  0  0
   22.1843   40.4040   84.9375 H   0  0  0  0  0  0
   19.8857   38.3958   84.8669 H   0  0  0  0  0  0
   21.0714   38.6045   83.6789 H   0  0  0  0  0  0
   30.0535   41.2694   83.1736 H   0  0  0  0  0  0
   20.9512   42.3320   86.4844 H   0  0  0  0  0  0
   22.5764   41.7830   86.7914 H   0  0  0  0  0  0
   20.5334   43.3283   89.8431 H   0  0  0  0  0  0
   20.1501   43.5806   88.1557 H   0  0  0  0  0  0
  1  2  2  0  0  0
  1  4  1  0  0  0
  2  3  1  0  0  0
  2 28  1  0  0  0
  3  6  2  0  0  0
  4  5  2  0  0  0
  4 16  1  0  0  0
  5  9  1  0  0  0
  5  6  1  0  0  0
  6  7  1  0  0  0
  7  8  1  0  0  0
  7 17  1  0  0  0
  8  9  2  0  0  0
  8 29  1  0  0  0
  9 10  1  0  0  0
 10 15  1  0  0  0
 10 11  2  0  0  0
 11 12  1  0  0  0
 11 30  1  0  0  0
 12 23  1  0  0  0
 12 13  2  0  0  0
 13 14  1  0  0  0
 13 31  1  0  0  0
 14 15  2  0  0  0
 14 32  1  0  0  0
 15 33  1  0  0  0
 16 34  1  0  0  0
 16 35  1  0  0  0
 17 18  1  0  0  0
 17 22  1  0  0  0
 17 36  1  0  0  0
 18 19  1  0  0  0
 18 37  1  0  0  0
 18 38  1  0  0  0
 19 20  1  0  0  0
 19 39  1  0  0  0
 19 40  1  0  0  0
 20 21  1  0  0  0
 20 24  1  0  0  0
 21 22  1  0  0  0
 21 41  1  0  0  0
 21 42  1  0  0  0
 22 43  1  0  0  0
 22 44  1  0  0  0
 23 45  1  0  0  0
 24 25  1  0  0  0
 24 46  1  0  0  0
 24 47  1  0  0  0
 25 26  1  0  0  0
 25 27  2  0  0  0
 26 48  1  0  0  0
 26 49  1  0  0  0
M  END
> <s_m_entry_id>
4524

> <s_m_entry_name>
dock_pv.12

> <s_m_Source_Path>
/home/csk/Desktop/cluster/DUD-E-result/lck

> <s_m_Source_File>
dock_pv.maegz

> <i_m_Source_File_Index>
12

> <chembl_id>
CHEMBL263528

> <chembl_pref_name>
None

> <i_lp_mmshare_version>
53161

> <i_f3d_flags>
0

> <r_lp_tautomer_probability>
0.999999999997365

> <s_lp_Force_Field>
OPLS_2005

> <r_lp_Energy>
26.177415

> <b_lp_Chiralities_Consistent>
1

> <s_lp_Variant>
CHEMBL258_lig267-1

> <s_i_glide_gridfile>
glide-grid_2of2

> <i_i_glide_lignum>
295

> <i_i_glide_rotatable_bonds>
5

> <r_i_docking_score>
-8.73589810575871

> <r_i_glide_ligand_efficiency>
-0.323551781694767

> <r_i_glide_ligand_efficiency_sa>
-0.970655344017927

> <r_i_glide_ligand_efficiency_ln>
-2.03357305648438

> <r_i_glide_gscore>
-8.73589810575871

> <r_i_glide_lipo>
-2.22033541565505

> <r_i_glide_hbond>
-0.727955622951937

> <r_i_glide_metal>
0

> <r_i_glide_rewards>
-2.78739799612513

> <r_i_glide_evdw>
-33.760929107666

> <r_i_glide_ecoul>
-9.72545528411865

> <r_i_glide_erotb>
0.301047784557522

> <r_i_glide_esite>
-0.154392107583013

> <r_i_glide_emodel>
-64.7284612778627

> <r_i_glide_energy>
-43.4863843917847

> <r_i_glide_einternal>
7.04969215393066

> <i_i_glide_confnum>
46

> <i_i_glide_posenum>
330

> <r_i_glide_eff_state_penalty>
0

> <s_user_duplicate_titles>
CHEMBL258_lig267,282631

> <s_m_subgroup_title>
dock_pv

> <s_m_subgroupid>
dock_pv

> <b_m_subgroup_collapsed>
1

$$$$
CHEMBL258_lig247
                    3D
 Schrodinger Suite 2021-1.
 51 54  0  0  1  0            999 V2000
   24.8695   35.1747   82.2750 N   0  0  0  0  0  0
   26.1444   35.6295   82.3232 C   0  0  0  0  0  0
   26.6246   36.6692   83.0472 N   0  0  0  0  0  0
   23.9552   35.8210   83.0399 C   0  0  0  0  0  0
   24.3214   36.8928   83.8835 C   0  0  0  0  0  0
   25.7018   37.2607   83.8190 C   0  0  0  0  0  0
   25.9073   38.3355   84.6723 N   0  0  0  0  0  0
   24.6828   38.6626   85.2102 C   0  0  0  0  0  0
   23.6794   37.8135   84.7922 C   0  0  0  0  0  0
   22.2627   37.9158   85.2398 C   0  0  0  0  0  0
   21.5297   36.7855   85.6113 C   0  0  0  0  0  0
   20.2265   36.9229   86.0910 C   0  0  0  0  0  0
   19.6367   38.1834   86.1767 C   0  0  0  0  0  0
   20.3519   39.3135   85.7844 C   0  0  0  0  0  0
   21.6609   39.1789   85.3218 C   0  0  0  0  0  0
   22.6317   35.4211   82.8867 N   0  0  0  0  0  0
   27.1631   39.0853   84.8561 C   0  0  0  0  0  0
   27.2665   40.2736   83.8892 C   0  0  0  0  0  0
   26.3817   41.4497   84.3413 C   0  0  0  0  0  0
   26.6831   41.8563   85.7231 N   0  0  2  0  0  0
   26.7396   40.8133   86.7630 C   0  0  0  0  0  0
   27.4727   39.5297   86.3039 C   0  0  0  0  0  0
   19.5241   35.8212   86.4871 O   0  0  0  0  0  0
   26.0076   43.1000   86.1335 C   0  0  0  0  0  0
   24.4678   43.0617   86.2669 C   0  0  0  0  0  0
   23.9548   44.2998   86.4084 O   0  0  0  0  0  0
   23.8150   42.0137   86.2336 O   0  0  0  0  0  0
   22.5502   44.4884   86.5174 C   0  0  0  0  0  0
   26.8592   35.1240   81.6874 H   0  0  0  0  0  0
   24.5921   39.5094   85.8674 H   0  0  0  0  0  0
   21.9876   35.8089   85.5739 H   0  0  0  0  0  0
   18.6243   38.2862   86.5411 H   0  0  0  0  0  0
   19.8971   40.2922   85.8463 H   0  0  0  0  0  0
   22.2101   40.0646   85.0344 H   0  0  0  0  0  0
   21.9083   35.9152   83.3883 H   0  0  0  0  0  0
   22.4108   34.6836   82.2257 H   0  0  0  0  0  0
   27.9297   38.3527   84.5964 H   0  0  0  0  0  0
   26.9998   39.9522   82.8815 H   0  0  0  0  0  0
   28.3039   40.5852   83.7599 H   0  0  0  0  0  0
   25.3238   41.2053   84.2418 H   0  0  0  0  0  0
   26.5501   42.3040   83.6878 H   0  0  0  0  0  0
   27.2679   41.2400   87.6167 H   0  0  0  0  0  0
   25.7497   40.5778   87.1473 H   0  0  0  0  0  0
   28.5483   39.6701   86.4204 H   0  0  0  0  0  0
   27.2837   38.7061   86.9938 H   0  0  0  0  0  0
   19.7511   35.0349   85.9750 H   0  0  0  0  0  0
   26.2650   43.8849   85.4208 H   0  0  0  0  0  0
   26.4196   43.4231   87.0899 H   0  0  0  0  0  0
   22.3120   45.5520   86.5054 H   0  0  0  0  0  0
   22.1675   44.0657   87.4473 H   0  0  0  0  0  0
   22.0202   44.0197   85.6874 H   0  0  0  0  0  0
  1  2  2  0  0  0
  1  4  1  0  0  0
  2  3  1  0  0  0
  2 29  1  0  0  0
  3  6  2  0  0  0
  4  5  2  0  0  0
  4 16  1  0  0  0
  5  9  1  0  0  0
  5  6  1  0  0  0
  6  7  1  0  0  0
  7  8  1  0  0  0
  7 17  1  0  0  0
  8  9  2  0  0  0
  8 30  1  0  0  0
  9 10  1  0  0  0
 10 15  1  0  0  0
 10 11  2  0  0  0
 11 12  1  0  0  0
 11 31  1  0  0  0
 12 23  1  0  0  0
 12 13  2  0  0  0
 13 14  1  0  0  0
 13 32  1  0  0  0
 14 15  2  0  0  0
 14 33  1  0  0  0
 15 34  1  0  0  0
 16 35  1  0  0  0
 16 36  1  0  0  0
 17 18  1  0  0  0
 17 22  1  0  0  0
 17 37  1  0  0  0
 18 19  1  0  0  0
 18 38  1  0  0  0
 18 39  1  0  0  0
 19 20  1  0  0  0
 19 40  1  0  0  0
 19 41  1  0  0  0
 20 21  1  0  0  0
 20 24  1  0  0  0
 21 22  1  0  0  0
 21 42  1  0  0  0
 21 43  1  0  0  0
 22 44  1  0  0  0
 22 45  1  0  0  0
 23 46  1  0  0  0
 24 25  1  0  0  0
 24 47  1  0  0  0
 24 48  1  0  0  0
 25 26  1  0  0  0
 25 27  2  0  0  0
 26 28  1  0  0  0
 28 49  1  0  0  0
 28 50  1  0  0  0
 28 51  1  0  0  0
M  END
> <s_m_entry_id>
4525

> <s_m_entry_name>
dock_pv.13

> <s_m_Source_Path>
/home/csk/Desktop/cluster/DUD-E-result/lck

> <s_m_Source_File>
dock_pv.maegz

> <i_m_Source_File_Index>
13

> <chembl_id>
CHEMBL262276

> <chembl_pref_name>
None

> <i_lp_mmshare_version>
53161

> <i_f3d_flags>
0

> <r_lp_tautomer_probability>
0.999999999997365

> <s_lp_Force_Field>
OPLS_2005

> <r_lp_Energy>
28.531747

> <b_lp_Chiralities_Consistent>
1

> <s_lp_Variant>
CHEMBL258_lig247-1

> <s_i_glide_gridfile>
glide-grid_2of2

> <i_i_glide_lignum>
275

> <i_i_glide_rotatable_bonds>
6

> <r_i_docking_score>
-8.71788500949937

> <r_i_glide_ligand_efficiency>
-0.311353036053549

> <r_i_glide_ligand_efficiency_sa>
-0.945451194590067

> <r_i_glide_ligand_efficiency_ln>
-2.01234382841885

> <r_i_glide_gscore>
-8.71788500949937

> <r_i_glide_lipo>
-2.35174412650231

> <r_i_glide_hbond>
-0.745746474590302

> <r_i_glide_metal>
0

> <r_i_glide_rewards>
-2.80761330470614

> <r_i_glide_evdw>
-35.2735137939453

> <r_i_glide_ecoul>
-9.42915439605713

> <r_i_glide_erotb>
0.373576497990247

> <r_i_glide_esite>
-0.00830875258503094

> <r_i_glide_emodel>
-63.4466929814544

> <r_i_glide_energy>
-44.7026681900024

> <r_i_glide_einternal>
9.15916156768799

> <i_i_glide_confnum>
115

> <i_i_glide_posenum>
37

> <r_i_glide_eff_state_penalty>
0

> <s_user_duplicate_titles>
CHEMBL258_lig247,282139

> <s_m_subgroup_title>
dock_pv

> <s_m_subgroupid>
dock_pv

> <b_m_subgroup_collapsed>
1

$$$$
CHEMBL258_lig1147
                    3D
 Schrodinger Suite 2021-1.
 72 77  0  0  1  0            999 V2000
   28.5697   36.6209   82.7685 C   0  0  0  0  0  0
   28.5522   37.7653   83.5021 N   0  0  0  0  0  0
   29.7463   38.3840   83.6777 C   0  0  0  0  0  0
   30.9437   37.9654   83.1947 N   0  0  0  0  0  0
   30.9397   36.8063   82.4873 C   0  0  0  0  0  0
   29.7509   36.1082   82.2309 C   0  0  0  0  0  0
   29.7400   39.6488   84.5125 C   0  0  0  0  0  0
   27.3909   35.9228   82.4868 N   0  0  0  0  0  0
   32.1979   36.3324   82.0935 N   0  0  0  0  0  0
   32.3848   34.9009   81.8739 C   0  0  0  0  0  0
   33.8041   34.5254   81.4259 C   0  0  0  0  0  0
   33.9367   33.0677   81.4615 N   0  0  0  0  0  0
   34.7652   32.5340   80.3757 C   0  0  0  0  0  0
   34.7738   30.9894   80.4129 C   0  0  0  0  0  0
   35.2116   30.5272   81.6869 O   0  0  0  0  0  0
   34.3836   30.9956   82.7506 C   0  0  0  0  0  0
   34.3340   32.5405   82.7758 C   0  0  0  0  0  0
   25.1868   35.2913   82.1674 N   0  0  0  0  0  0
   26.0515   36.0732   82.8585 C   0  0  0  0  0  0
   25.6088   36.9493   83.8583 C   0  0  0  0  0  0
   24.2275   37.0234   84.0945 C   0  0  0  0  0  0
   23.3530   36.2210   83.4275 N   0  0  0  0  0  0
   23.8754   35.4095   82.4860 C   0  0  0  0  0  0
   23.6799   37.9886   84.9881 N   0  0  0  0  0  0
   22.2839   38.9296   86.5115 N   0  0  0  0  0  0
   22.4790   37.9213   85.6991 C   0  0  0  0  0  0
   23.3394   39.7607   86.2966 C   0  0  0  0  0  0
   24.2348   39.2216   85.3363 C   0  0  0  0  0  0
   25.3718   39.9409   84.9244 C   0  0  0  0  0  0
   25.5961   41.1808   85.5273 C   0  0  0  0  0  0
   24.7331   41.7030   86.4872 C   0  0  0  0  0  0
   23.5913   41.0079   86.8841 C   0  0  0  0  0  0
   21.5801   36.8865   85.5491 N   0  0  0  0  0  0
   20.2619   36.8653   86.0395 C   0  0  0  0  0  0
   19.3270   37.8416   85.6521 C   0  0  0  0  0  0
   18.0432   37.8217   86.1862 C   0  0  0  0  0  0
   17.6584   36.8369   87.0871 C   0  0  0  0  0  0
   18.5501   35.8212   87.4135 C   0  0  0  0  0  0
   19.8427   35.8106   86.8707 C   0  0  0  0  0  0
   20.7678   34.6308   87.1518 C   0  0  0  0  0  0
   19.6933   39.0680   84.4871 Cl  0  0  0  0  0  0
   29.7366   35.1950   81.6552 H   0  0  0  0  0  0
   29.7809   39.3988   85.5742 H   0  0  0  0  0  0
   30.5919   40.2889   84.2747 H   0  0  0  0  0  0
   28.8350   40.2315   84.3314 H   0  0  0  0  0  0
   27.5175   35.2204   81.7723 H   0  0  0  0  0  0
   32.9800   36.8385   82.4819 H   0  0  0  0  0  0
   31.6834   34.5735   81.1073 H   0  0  0  0  0  0
   32.1094   34.3769   82.7908 H   0  0  0  0  0  0
   34.5669   35.0053   82.0417 H   0  0  0  0  0  0
   33.9433   34.8940   80.4082 H   0  0  0  0  0  0
   35.7769   32.9384   80.4365 H   0  0  0  0  0  0
   34.3568   32.8648   79.4197 H   0  0  0  0  0  0
   33.7830   30.5859   80.1902 H   0  0  0  0  0  0
   35.4475   30.6031   79.6477 H   0  0  0  0  0  0
   33.3782   30.5788   82.6613 H   0  0  0  0  0  0
   34.7928   30.6214   83.6871 H   0  0  0  0  0  0
   33.6253   32.8662   83.5378 H   0  0  0  0  0  0
   35.2993   32.9517   83.0759 H   0  0  0  0  0  0
   26.3040   37.5257   84.4400 H   0  0  0  0  0  0
   23.1800   34.7877   81.9412 H   0  0  0  0  0  0
   26.0453   39.5913   84.1580 H   0  0  0  0  0  0
   26.4585   41.7613   85.2321 H   0  0  0  0  0  0
   24.9424   42.6721   86.9176 H   0  0  0  0  0  0
   22.9109   41.4264   87.6120 H   0  0  0  0  0  0
   21.8377   36.0628   85.0258 H   0  0  0  0  0  0
   17.3502   38.5931   85.8936 H   0  0  0  0  0  0
   16.6607   36.8466   87.5007 H   0  0  0  0  0  0
   18.2369   35.0313   88.0822 H   0  0  0  0  0  0
   20.2743   33.8216   87.6870 H   0  0  0  0  0  0
   21.1201   34.2211   86.2074 H   0  0  0  0  0  0
   21.6593   34.9503   87.6907 H   0  0  0  0  0  0
  1  6  1  0  0  0
  1  2  2  0  0  0
  1  8  1  0  0  0
  2  3  1  0  0  0
  3  7  1  0  0  0
  3  4  2  0  0  0
  4  5  1  0  0  0
  5  6  2  0  0  0
  5  9  1  0  0  0
  6 42  1  0  0  0
  7 43  1  0  0  0
  7 44  1  0  0  0
  7 45  1  0  0  0
  8 19  1  0  0  0
  8 46  1  0  0  0
  9 10  1  0  0  0
  9 47  1  0  0  0
 10 11  1  0  0  0
 10 48  1  0  0  0
 10 49  1  0  0  0
 11 12  1  0  0  0
 11 50  1  0  0  0
 11 51  1  0  0  0
 12 13  1  0  0  0
 12 17  1  0  0  0
 13 14  1  0  0  0
 13 52  1  0  0  0
 13 53  1  0  0  0
 14 15  1  0  0  0
 14 54  1  0  0  0
 14 55  1  0  0  0
 15 16  1  0  0  0
 16 17  1  0  0  0
 16 56  1  0  0  0
 16 57  1  0  0  0
 17 58  1  0  0  0
 17 59  1  0  0  0
 18 23  1  0  0  0
 18 19  2  0  0  0
 19 20  1  0  0  0
 20 21  2  0  0  0
 20 60  1  0  0  0
 21 22  1  0  0  0
 21 24  1  0  0  0
 22 23  2  0  0  0
 23 61  1  0  0  0
 24 28  1  0  0  0
 24 26  1  0  0  0
 25 27  1  0  0  0
 25 26  2  0  0  0
 26 33  1  0  0  0
 27 28  2  0  0  0
 27 32  1  0  0  0
 28 29  1  0  0  0
 29 30  2  0  0  0
 29 62  1  0  0  0
 30 31  1  0  0  0
 30 63  1  0  0  0
 31 32  2  0  0  0
 31 64  1  0  0  0
 32 65  1  0  0  0
 33 34  1  0  0  0
 33 66  1  0  0  0
 34 35  2  0  0  0
 34 39  1  0  0  0
 35 36  1  0  0  0
 35 41  1  0  0  0
 36 37  2  0  0  0
 36 67  1  0  0  0
 37 38  1  0  0  0
 37 68  1  0  0  0
 38 39  2  0  0  0
 38 69  1  0  0  0
 39 40  1  0  0  0
 40 70  1  0  0  0
 40 71  1  0  0  0
 40 72  1  0  0  0
M  END
> <s_m_entry_id>
4526

> <s_m_entry_name>
dock_pv.14

> <s_m_Source_Path>
/home/csk/Desktop/cluster/DUD-E-result/lck

> <s_m_Source_File>
dock_pv.maegz

> <i_m_Source_File_Index>
14

> <chembl_id>
CHEMBL450092

> <chembl_pref_name>
None

> <i_lp_mmshare_version>
53161

> <i_f3d_flags>
0

> <r_lp_tautomer_probability>
0.999999968245435

> <s_lp_Force_Field>
OPLS_2005

> <r_lp_Energy>
47.523294

> <b_lp_Chiralities_Consistent>
1

> <s_lp_Variant>
CHEMBL258_lig1147-1

> <s_i_glide_gridfile>
glide-grid_2of2

> <i_i_glide_lignum>
1235

> <i_i_glide_rotatable_bonds>
9

> <r_i_docking_score>
-8.68647283126973

> <r_i_glide_ligand_efficiency>
-0.211865191006579

> <r_i_glide_ligand_efficiency_sa>
-0.730557203361539

> <r_i_glide_ligand_efficiency_ln>
-1.84286411841015

> <r_i_glide_gscore>
-8.68647283126973

> <r_i_glide_lipo>
-2.47578505931699

> <r_i_glide_hbond>
-0.378992223469475

> <r_i_glide_metal>
0

> <r_i_glide_rewards>
-2.42904914150402

> <r_i_glide_evdw>
-53.8052825927734

> <r_i_glide_ecoul>
-6.53578233718872

> <r_i_glide_erotb>
0.2943915375433

> <r_i_glide_esite>
-0.0264064643055618

> <r_i_glide_emodel>
-84.7995430234567

> <r_i_glide_energy>
-60.3410649299622

> <r_i_glide_einternal>
12.3577451705933

> <i_i_glide_confnum>
17

> <i_i_glide_posenum>
78

> <r_i_glide_eff_state_penalty>
0

> <s_user_duplicate_titles>
CHEMBL258_lig1147,490985

> <s_m_subgroup_title>
dock_pv

> <s_m_subgroupid>
dock_pv

> <b_m_subgroup_collapsed>
1

$$$$
CHEMBL258_lig1144
                    3D
 Schrodinger Suite 2021-1.
 65 70  0  0  1  0            999 V2000
   28.7338   36.6207   82.7804 C   0  0  0  0  0  0
   28.6969   37.6287   83.6894 N   0  0  0  0  0  0
   29.8374   38.3051   83.9647 C   0  0  0  0  0  0
   31.0437   38.0245   83.3298 C   0  0  0  0  0  0
   31.0786   37.0204   82.3562 C   0  0  0  0  0  0
   29.9076   36.2971   82.0869 C   0  0  0  0  0  0
   27.5684   35.8938   82.4870 N   0  0  0  0  0  0
   32.3712   36.7303   81.5973 C   0  0  0  0  0  0
   32.6327   37.6614   80.4873 N   0  0  0  0  0  0
   33.6885   37.1153   79.6192 C   0  0  0  0  0  0
   34.1276   38.0972   78.5069 C   0  0  0  0  0  0
   34.4841   39.3581   79.0634 O   0  0  0  0  0  0
   33.4013   39.9493   79.7736 C   0  0  0  0  0  0
   32.9569   39.0287   80.9323 C   0  0  0  0  0  0
   25.3600   35.2576   82.1121 N   0  0  0  0  0  0
   26.2153   36.0267   82.8354 C   0  0  0  0  0  0
   25.7467   36.8988   83.8279 C   0  0  0  0  0  0
   24.3625   37.0052   84.0149 C   0  0  0  0  0  0
   23.4992   36.2209   83.3104 N   0  0  0  0  0  0
   24.0403   35.3855   82.3959 C   0  0  0  0  0  0
   23.8114   37.9863   84.8900 N   0  0  0  0  0  0
   22.4030   38.9561   86.3820 N   0  0  0  0  0  0
   22.5913   37.9481   85.5690 C   0  0  0  0  0  0
   23.4812   39.7630   86.1964 C   0  0  0  0  0  0
   24.3892   39.2032   85.2613 C   0  0  0  0  0  0
   25.5557   39.8958   84.8891 C   0  0  0  0  0  0
   25.7902   41.1294   85.5020 C   0  0  0  0  0  0
   24.9106   41.6704   86.4354 C   0  0  0  0  0  0
   23.7431   41.0006   86.7958 C   0  0  0  0  0  0
   21.6739   36.9362   85.3981 N   0  0  0  0  0  0
   20.3681   36.9088   85.9188 C   0  0  0  0  0  0
   19.4211   37.8977   85.5821 C   0  0  0  0  0  0
   18.1395   37.8494   86.1223 C   0  0  0  0  0  0
   17.7750   36.8268   86.9887 C   0  0  0  0  0  0
   18.6901   35.8224   87.2871 C   0  0  0  0  0  0
   19.9776   35.8377   86.7426 C   0  0  0  0  0  0
   20.9230   34.6815   87.0620 C   0  0  0  0  0  0
   19.7730   39.1885   84.4869 Cl  0  0  0  0  0  0
   29.7694   39.0828   84.7123 H   0  0  0  0  0  0
   31.9307   38.5871   83.5832 H   0  0  0  0  0  0
   29.9136   35.5114   81.3445 H   0  0  0  0  0  0
   27.7021   35.2390   81.7282 H   0  0  0  0  0  0
   32.3045   35.7116   81.2098 H   0  0  0  0  0  0
   33.2088   36.7304   82.2978 H   0  0  0  0  0  0
   33.3508   36.1740   79.1816 H   0  0  0  0  0  0
   34.5627   36.8674   80.2255 H   0  0  0  0  0  0
   34.9918   37.6929   77.9799 H   0  0  0  0  0  0
   33.3504   38.2237   77.7539 H   0  0  0  0  0  0
   33.7331   40.9089   80.1707 H   0  0  0  0  0  0
   32.5646   40.1698   79.1083 H   0  0  0  0  0  0
   33.7564   38.9873   81.6733 H   0  0  0  0  0  0
   32.0994   39.4736   81.4341 H   0  0  0  0  0  0
   26.4211   37.4607   84.4445 H   0  0  0  0  0  0
   23.3489   34.7757   81.8323 H   0  0  0  0  0  0
   26.2452   39.5355   84.1426 H   0  0  0  0  0  0
   26.6774   41.6873   85.2366 H   0  0  0  0  0  0
   25.1321   42.6327   86.8751 H   0  0  0  0  0  0
   23.0515   41.4315   87.5041 H   0  0  0  0  0  0
   21.9248   36.1077   84.8815 H   0  0  0  0  0  0
   17.4189   38.6145   85.8681 H   0  0  0  0  0  0
   16.7797   36.8067   87.4073 H   0  0  0  0  0  0
   18.3909   35.0214   87.9469 H   0  0  0  0  0  0
   20.4157   33.8554   87.5612 H   0  0  0  0  0  0
   21.3483   34.2825   86.1407 H   0  0  0  0  0  0
   21.7507   35.0212   87.6865 H   0  0  0  0  0  0
  1  6  1  0  0  0
  1  2  2  0  0  0
  1  7  1  0  0  0
  2  3  1  0  0  0
  3  4  2  0  0  0
  3 39  1  0  0  0
  4  5  1  0  0  0
  4 40  1  0  0  0
  5  6  2  0  0  0
  5  8  1  0  0  0
  6 41  1  0  0  0
  7 16  1  0  0  0
  7 42  1  0  0  0
  8  9  1  0  0  0
  8 43  1  0  0  0
  8 44  1  0  0  0
  9 10  1  0  0  0
  9 14  1  0  0  0
 10 11  1  0  0  0
 10 45  1  0  0  0
 10 46  1  0  0  0
 11 12  1  0  0  0
 11 47  1  0  0  0
 11 48  1  0  0  0
 12 13  1  0  0  0
 13 14  1  0  0  0
 13 49  1  0  0  0
 13 50  1  0  0  0
 14 51  1  0  0  0
 14 52  1  0  0  0
 15 20  1  0  0  0
 15 16  2  0  0  0
 16 17  1  0  0  0
 17 18  2  0  0  0
 17 53  1  0  0  0
 18 19  1  0  0  0
 18 21  1  0  0  0
 19 20  2  0  0  0
 20 54  1  0  0  0
 21 25  1  0  0  0
 21 23  1  0  0  0
 22 24  1  0  0  0
 22 23  2  0  0  0
 23 30  1  0  0  0
 24 25  2  0  0  0
 24 29  1  0  0  0
 25 26  1  0  0  0
 26 27  2  0  0  0
 26 55  1  0  0  0
 27 28  1  0  0  0
 27 56  1  0  0  0
 28 29  2  0  0  0
 28 57  1  0  0  0
 29 58  1  0  0  0
 30 31  1  0  0  0
 30 59  1  0  0  0
 31 32  2  0  0  0
 31 36  1  0  0  0
 32 33  1  0  0  0
 32 38  1  0  0  0
 33 34  2  0  0  0
 33 60  1  0  0  0
 34 35  1  0  0  0
 34 61  1  0  0  0
 35 36  2  0  0  0
 35 62  1  0  0  0
 36 37  1  0  0  0
 37 63  1  0  0  0
 37 64  1  0  0  0
 37 65  1  0  0  0
M  END
> <s_m_entry_id>
4527

> <s_m_entry_name>
dock_pv.15

> <s_m_Source_Path>
/home/csk/Desktop/cluster/DUD-E-result/lck

> <s_m_Source_File>
dock_pv.maegz

> <i_m_Source_File_Index>
15

> <chembl_id>
CHEMBL477172

> <chembl_pref_name>
None

> <i_lp_mmshare_version>
53161

> <i_f3d_flags>
0

> <r_lp_tautomer_probability>
0.999999772200052

> <s_lp_Force_Field>
OPLS_2005

> <r_lp_Energy>
41.30493

> <b_lp_Chiralities_Consistent>
1

> <s_lp_Variant>
CHEMBL258_lig1144-1

> <s_i_glide_gridfile>
glide-grid_2of2

> <i_i_glide_lignum>
1232

> <i_i_glide_rotatable_bonds>
7

> <r_i_docking_score>
-8.65585666756167

> <r_i_glide_ligand_efficiency>
-0.227785701777939

> <r_i_glide_ligand_efficiency_sa>
-0.765809926469307

> <r_i_glide_ligand_efficiency_ln>
-1.8664573270316

> <r_i_glide_gscore>
-8.65585666756167

> <r_i_glide_lipo>
-2.59058532676537

> <r_i_glide_hbond>
-0.468357970881827

> <r_i_glide_metal>
0

> <r_i_glide_rewards>
-2.20639001034346

> <r_i_glide_evdw>
-52.6522941589355

> <r_i_glide_ecoul>
-7.30312871932983

> <r_i_glide_erotb>
0.363290598791961

> <r_i_glide_esite>
-0.0257299425167194

> <r_i_glide_emodel>
-86.1104446586236

> <r_i_glide_energy>
-59.9554228782654

> <r_i_glide_einternal>
7.42962789535522

> <i_i_glide_confnum>
6

> <i_i_glide_posenum>
208

> <r_i_glide_eff_state_penalty>
0

> <s_user_duplicate_titles>
CHEMBL258_lig1144,490982

> <s_m_subgroup_title>
dock_pv

> <s_m_subgroupid>
dock_pv

> <b_m_subgroup_collapsed>
1

$$$$
CHEMBL258_lig749
                    3D
 Schrodinger Suite 2021-1.
 31 33  0  0  1  0            999 V2000
   25.4107   35.3735   82.0884 N   0  0  0  0  0  0
   26.3019   36.2560   82.5973 C   0  0  0  0  0  0
   26.0672   37.1858   83.5543 N   0  0  0  0  0  0
   24.1685   35.4210   82.6270 C   0  0  0  0  0  0
   23.7889   36.3282   83.6434 C   0  0  0  0  0  0
   24.8027   37.2376   84.0638 C   0  0  0  0  0  0
   24.4734   38.2322   85.0072 C   0  0  0  0  0  0
   23.1863   38.2919   85.5396 C   0  0  0  0  0  0
   22.1888   37.3907   85.1511 C   0  0  0  0  0  0
   22.4914   36.4090   84.2014 C   0  0  0  0  0  0
   20.8198   37.4663   85.7365 C   0  0  0  0  0  0
   20.2767   36.3210   86.3375 C   0  0  0  0  0  0
   18.9959   36.3315   86.8871 C   0  0  0  0  0  0
   18.2294   37.4914   86.8384 C   0  0  0  0  0  0
   18.7553   38.6402   86.2523 C   0  0  0  0  0  0
   20.0410   38.6433   85.7023 C   0  0  0  0  0  0
   20.5345   39.9240   85.0368 C   0  0  0  0  0  0
   27.5879   36.2214   82.0871 N   0  0  0  0  0  0
   23.4415   34.7232   82.2336 H   0  0  0  0  0  0
   25.2304   38.9353   85.3231 H   0  0  0  0  0  0
   22.9655   39.0477   86.2792 H   0  0  0  0  0  0
   21.7310   35.7151   83.8710 H   0  0  0  0  0  0
   20.8494   35.4045   86.3731 H   0  0  0  0  0  0
   18.5979   35.4357   87.3415 H   0  0  0  0  0  0
   17.2315   37.5087   87.2537 H   0  0  0  0  0  0
   18.1503   39.5353   86.2213 H   0  0  0  0  0  0
   21.0780   39.7017   84.1179 H   0  0  0  0  0  0
   19.7113   40.5800   84.7550 H   0  0  0  0  0  0
   21.1971   40.4762   85.7031 H   0  0  0  0  0  0
   27.7224   35.8210   81.1521 H   0  0  0  0  0  0
   28.2358   36.9031   82.4478 H   0  0  0  0  0  0
  1  4  2  0  0  0
  1  2  1  0  0  0
  2  3  2  0  0  0
  2 18  1  0  0  0
  3  6  1  0  0  0
  4  5  1  0  0  0
  4 19  1  0  0  0
  5 10  2  0  0  0
  5  6  1  0  0  0
  6  7  2  0  0  0
  7  8  1  0  0  0
  7 20  1  0  0  0
  8  9  2  0  0  0
  8 21  1  0  0  0
  9 10  1  0  0  0
  9 11  1  0  0  0
 10 22  1  0  0  0
 11 12  2  0  0  0
 11 16  1  0  0  0
 12 13  1  0  0  0
 12 23  1  0  0  0
 13 14  2  0  0  0
 13 24  1  0  0  0
 14 15  1  0  0  0
 14 25  1  0  0  0
 15 16  2  0  0  0
 15 26  1  0  0  0
 16 17  1  0  0  0
 17 27  1  0  0  0
 17 28  1  0  0  0
 17 29  1  0  0  0
 18 30  1  0  0  0
 18 31  1  0  0  0
M  END
> <s_m_entry_id>
4528

> <s_m_entry_name>
dock_pv.16

> <s_m_Source_Path>
/home/csk/Desktop/cluster/DUD-E-result/lck

> <s_m_Source_File>
dock_pv.maegz

> <i_m_Source_File_Index>
16

> <chembl_id>
CHEMBL215952

> <chembl_pref_name>
None

> <i_lp_mmshare_version>
53161

> <i_f3d_flags>
0

> <r_lp_tautomer_probability>
1

> <s_lp_Force_Field>
OPLS_2005

> <r_lp_Energy>
10.810174

> <b_lp_Chiralities_Consistent>
1

> <s_lp_Variant>
CHEMBL258_lig749-1

> <s_i_glide_gridfile>
glide-grid_2of2

> <i_i_glide_lignum>
834

> <i_i_glide_rotatable_bonds>
1

> <r_i_docking_score>
-8.63252926686912

> <r_i_glide_ligand_efficiency>
-0.479584959270507

> <r_i_glide_ligand_efficiency_sa>
-1.25686815358927

> <r_i_glide_ligand_efficiency_ln>
-2.21894713515436

> <r_i_glide_gscore>
-8.63252926686912

> <r_i_glide_lipo>
-2.60435234038156

> <r_i_glide_hbond>
-0.54084599232478

> <r_i_glide_metal>
0

> <r_i_glide_rewards>
-3.17069378800298

> <r_i_glide_evdw>
-27.0419960021973

> <r_i_glide_ecoul>
-7.56365203857422

> <r_i_glide_erotb>
0.217399962995681

> <r_i_glide_esite>
-0.0473895032594856

> <r_i_glide_emodel>
-52.3010157431164

> <r_i_glide_energy>
-34.6056480407715

> <r_i_glide_einternal>
0.243481576442719

> <i_i_glide_confnum>
4

> <i_i_glide_posenum>
245

> <r_i_glide_eff_state_penalty>
0

> <s_user_duplicate_titles>
CHEMBL258_lig749,358573

> <s_m_subgroup_title>
dock_pv

> <s_m_subgroupid>
dock_pv

> <b_m_subgroup_collapsed>
1

$$$$
CHEMBL258_lig651
                    3D
 Schrodinger Suite 2021-1.
 51 54  0  0  1  0            999 V2000
   27.2130   38.1469   84.4629 C   0  0  0  0  0  0
   27.8816   37.4278   83.4602 C   0  0  0  0  0  0
   27.1642   36.5217   82.6733 C   0  0  0  0  0  0
   25.8540   37.9245   84.7227 C   0  0  0  0  0  0
   25.1162   36.9940   83.9458 C   0  0  0  0  0  0
   25.7956   36.2970   82.8994 C   0  0  0  0  0  0
   25.1585   35.4180   82.0872 N   0  0  0  0  0  0
   23.8387   35.2456   82.2975 C   0  0  0  0  0  0
   23.0885   35.8211   83.2602 N   0  0  0  0  0  0
   23.7222   36.6925   84.0870 C   0  0  0  0  0  0
   22.9331   37.2897   85.0856 N   0  0  0  0  0  0
   21.5312   37.3128   85.2038 C   0  0  0  0  0  0
   20.9364   37.0273   86.4358 C   0  0  0  0  0  0
   19.5466   37.0611   86.5672 C   0  0  0  0  0  0
   18.7424   37.4209   85.4838 C   0  0  0  0  0  0
   19.3294   37.7171   84.2521 C   0  0  0  0  0  0
   20.7178   37.6496   84.1147 C   0  0  0  0  0  0
   29.2375   37.6449   83.2880 O   0  0  0  0  0  0
   27.9659   39.1796   85.2893 C   0  0  0  0  0  0
   27.7715   40.5285   84.7427 N   0  0  2  0  0  0
   30.0076   36.7142   82.5271 C   0  0  0  0  0  0
   28.9428   41.4069   84.8593 C   0  0  2  0  0  0
   28.3869   42.8400   84.6811 C   0  0  0  0  0  0
   26.8840   42.7214   84.9493 C   0  0  0  0  0  0
   26.6778   41.2665   85.3607 C   0  0  0  0  0  0
   18.3550   38.1633   82.8915 Cl  0  0  0  0  0  0
   17.3989   37.4329   85.6289 F   0  0  0  0  0  0
   30.0257   41.1042   83.7881 C   0  0  0  0  0  0
   29.7496   40.9826   82.5946 O   0  0  0  0  0  0
   31.2908   41.0098   84.1976 N   0  0  0  0  0  0
   27.6389   35.9773   81.8718 H   0  0  0  0  0  0
   25.3556   38.4779   85.5043 H   0  0  0  0  0  0
   23.3467   34.5875   81.6052 H   0  0  0  0  0  0
   23.4265   37.8914   85.7258 H   0  0  0  0  0  0
   21.5476   36.7553   87.2841 H   0  0  0  0  0  0
   19.0835   36.8030   87.5063 H   0  0  0  0  0  0
   21.1626   37.8581   83.1563 H   0  0  0  0  0  0
   29.0254   38.9232   85.2947 H   0  0  0  0  0  0
   27.6584   39.1228   86.3352 H   0  0  0  0  0  0
   31.0665   36.9614   82.6194 H   0  0  0  0  0  0
   29.8750   35.6916   82.8870 H   0  0  0  0  0  0
   29.7620   36.7349   81.4661 H   0  0  0  0  0  0
   29.3947   41.3089   85.8494 H   0  0  0  0  0  0
   28.8377   43.5140   85.4098 H   0  0  0  0  0  0
   28.5504   43.2608   83.6873 H   0  0  0  0  0  0
   26.5536   43.4072   85.7288 H   0  0  0  0  0  0
   26.2989   42.9535   84.0598 H   0  0  0  0  0  0
   26.6423   41.1487   86.4462 H   0  0  0  0  0  0
   25.7289   40.8729   84.9956 H   0  0  0  0  0  0
   32.0096   40.8558   83.5092 H   0  0  0  0  0  0
   31.5359   41.1551   85.1646 H   0  0  0  0  0  0
  1  2  1  0  0  0
  1 19  1  0  0  0
  1  4  2  0  0  0
  2 18  1  0  0  0
  2  3  2  0  0  0
  3  6  1  0  0  0
  3 31  1  0  0  0
  4  5  1  0  0  0
  4 32  1  0  0  0
  5 10  2  0  0  0
  5  6  1  0  0  0
  6  7  2  0  0  0
  7  8  1  0  0  0
  8  9  2  0  0  0
  8 33  1  0  0  0
  9 10  1  0  0  0
 10 11  1  0  0  0
 11 12  1  0  0  0
 11 34  1  0  0  0
 12 17  2  0  0  0
 12 13  1  0  0  0
 13 14  2  0  0  0
 13 35  1  0  0  0
 14 15  1  0  0  0
 14 36  1  0  0  0
 15 16  2  0  0  0
 15 27  1  0  0  0
 16 17  1  0  0  0
 16 26  1  0  0  0
 17 37  1  0  0  0
 18 21  1  0  0  0
 19 20  1  0  0  0
 19 38  1  0  0  0
 19 39  1  0  0  0
 20 22  1  0  0  0
 20 25  1  0  0  0
 21 40  1  0  0  0
 21 41  1  0  0  0
 21 42  1  0  0  0
 22 23  1  0  0  0
 22 28  1  0  0  0
 22 43  1  0  0  0
 23 24  1  0  0  0
 23 44  1  0  0  0
 23 45  1  0  0  0
 24 25  1  0  0  0
 24 46  1  0  0  0
 24 47  1  0  0  0
 25 48  1  0  0  0
 25 49  1  0  0  0
 28 29  2  0  0  0
 28 30  1  0  0  0
 30 50  1  0  0  0
 30 51  1  0  0  0
M  END
> <s_m_entry_id>
4529

> <s_m_entry_name>
dock_pv.17

> <s_m_Source_Path>
/home/csk/Desktop/cluster/DUD-E-result/lck

> <s_m_Source_File>
dock_pv.maegz

> <i_m_Source_File_Index>
17

> <chembl_id>
CHEMBL206955

> <chembl_pref_name>
None

> <i_lp_mmshare_version>
53161

> <i_f3d_flags>
0

> <r_lp_tautomer_probability>
0.999978000241998

> <s_lp_Force_Field>
OPLS_2005

> <r_lp_Energy>
35.5826

> <b_lp_Chiralities_Consistent>
1

> <s_lp_Variant>
CHEMBL258_lig651-1

> <s_i_glide_gridfile>
glide-grid_2of2

> <i_i_glide_lignum>
734

> <i_i_glide_rotatable_bonds>
6

> <r_i_docking_score>
-8.61822296885684

> <r_i_glide_ligand_efficiency>
-0.287274098961895

> <r_i_glide_ligand_efficiency_sa>
-0.892627417401004

> <r_i_glide_ligand_efficiency_ln>
-1.95815416158457

> <r_i_glide_gscore>
-8.61822296885684

> <r_i_glide_lipo>
-3.35606934372241

> <r_i_glide_hbond>
-0.505910014816302

> <r_i_glide_metal>
0

> <r_i_glide_rewards>
-1.79878888483935

> <r_i_glide_evdw>
-42.1105499267578

> <r_i_glide_ecoul>
-8.0061559677124

> <r_i_glide_erotb>
0.430239960077135

> <r_i_glide_esite>
-0.0812437940611577

> <r_i_glide_emodel>
-72.8644258195949

> <r_i_glide_energy>
-50.1167058944702

> <r_i_glide_einternal>
4.49968481063843

> <i_i_glide_confnum>
2

> <i_i_glide_posenum>
192

> <r_i_glide_eff_state_penalty>
0

> <s_user_duplicate_titles>
CHEMBL258_lig651

> <s_m_subgroup_title>
dock_pv

> <s_m_subgroupid>
dock_pv

> <b_m_subgroup_collapsed>
1

$$$$
CHEMBL258_lig1028
                    3D
 Schrodinger Suite 2021-1.
 67 71  0  0  1  0            999 V2000
   20.8022   38.0056   84.4862 C   0  0  0  0  0  0
   19.8397   38.9584   84.8552 C   0  0  0  0  0  0
   20.1845   39.9328   85.7913 C   0  0  0  0  0  0
   21.4626   39.9669   86.3688 C   0  0  0  0  0  0
   22.3989   39.0096   85.9840 C   0  0  0  0  0  0
   22.0909   38.0428   85.0224 C   0  0  0  0  0  0
   23.0194   37.0989   84.5504 N   0  0  0  0  0  0
   24.3529   37.2721   84.2331 C   0  0  0  0  0  0
   25.0637   38.2379   84.7792 N   0  0  0  0  0  0
   25.1040   36.5256   83.2903 C   0  0  0  0  0  0
   26.4249   37.0349   83.4238 C   0  0  0  0  0  0
   26.3289   38.0913   84.3263 N   0  0  0  0  0  0
   27.4215   38.8440   84.6831 C   0  0  0  0  0  0
   28.6506   38.5019   84.1109 C   0  0  0  0  0  0
   28.7075   37.4056   83.2522 C   0  0  0  0  0  0
   27.6064   36.6937   82.8868 N   0  0  0  0  0  0
   24.6765   35.4219   82.4926 C   0  0  0  0  0  0
   23.3797   35.3657   82.1965 N   0  0  0  0  0  0
   25.4913   34.6178   82.0870 O   0  0  0  0  0  0
   30.0535   36.9398   82.6870 C   0  0  0  0  0  0
   27.2477   39.8803   85.6115 N   0  0  0  0  0  0
   28.2843   40.8141   86.0365 C   0  0  2  0  0  0
   21.8753   40.8941   87.3044 O   0  0  0  0  0  0
   21.0731   42.0494   87.5254 C   0  0  0  0  0  0
   18.5595   39.0210   84.3377 O   0  0  0  0  0  0
   18.1340   38.0356   83.4027 C   0  0  0  0  0  0
   28.1250   41.1710   87.5289 C   0  0  0  0  0  0
   29.3506   41.6231   88.0605 O   0  0  0  0  0  0
   28.4228   42.0431   85.0968 C   0  0  0  0  0  0
   27.3270   43.1161   85.1532 C   0  0  0  0  0  0
   30.3894   35.4694   82.4869 C   0  0  0  0  0  0
   30.2244   36.3616   81.2931 C   0  0  0  0  0  0
   27.6748   44.4285   84.8195 C   0  0  0  0  0  0
   26.7265   45.4440   84.8895 C   0  0  0  0  0  0
   25.4264   45.1516   85.2870 C   0  0  0  0  0  0
   25.0558   43.8450   85.5917 C   0  0  0  0  0  0
   26.0028   42.8289   85.5181 C   0  0  0  0  0  0
   20.5641   37.2503   83.7533 H   0  0  0  0  0  0
   19.4352   40.6615   86.0623 H   0  0  0  0  0  0
   23.3749   39.0388   86.4415 H   0  0  0  0  0  0
   22.5649   36.2688   84.2051 H   0  0  0  0  0  0
   29.5560   39.0355   84.3489 H   0  0  0  0  0  0
   22.7996   36.1701   82.3657 H   0  0  0  0  0  0
   23.0044   34.5755   81.6871 H   0  0  0  0  0  0
   30.8868   37.5553   83.0289 H   0  0  0  0  0  0
   26.3105   40.0187   85.9620 H   0  0  0  0  0  0
   29.2260   40.2693   85.9812 H   0  0  0  0  0  0
   21.5667   42.7027   88.2439 H   0  0  0  0  0  0
   20.9502   42.6192   86.6036 H   0  0  0  0  0  0
   20.0918   41.7972   87.9295 H   0  0  0  0  0  0
   17.0950   38.2216   83.1321 H   0  0  0  0  0  0
   18.7254   38.0774   82.4878 H   0  0  0  0  0  0
   18.1897   37.0291   83.8206 H   0  0  0  0  0  0
   27.3601   41.9275   87.7045 H   0  0  0  0  0  0
   27.8527   40.2751   88.0874 H   0  0  0  0  0  0
   29.9516   40.8650   88.0879 H   0  0  0  0  0  0
   28.5200   41.7139   84.0615 H   0  0  0  0  0  0
   29.3725   42.5255   85.3370 H   0  0  0  0  0  0
   31.3873   35.1193   82.7527 H   0  0  0  0  0  0
   29.6266   34.7153   82.6860 H   0  0  0  0  0  0
   29.3502   36.2207   80.6655 H   0  0  0  0  0  0
   31.1072   36.6290   80.7118 H   0  0  0  0  0  0
   28.6833   44.6652   84.5094 H   0  0  0  0  0  0
   26.9930   46.4566   84.6293 H   0  0  0  0  0  0
   24.6873   45.9382   85.3294 H   0  0  0  0  0  0
   24.0369   43.6222   85.8749 H   0  0  0  0  0  0
   25.6829   41.8311   85.7626 H   0  0  0  0  0  0
  1  6  1  0  0  0
  1  2  2  0  0  0
  1 38  1  0  0  0
  2  3  1  0  0  0
  2 25  1  0  0  0
  3  4  2  0  0  0
  3 39  1  0  0  0
  4  5  1  0  0  0
  4 23  1  0  0  0
  5  6  2  0  0  0
  5 40  1  0  0  0
  6  7  1  0  0  0
  7  8  1  0  0  0
  7 41  1  0  0  0
  8  9  2  0  0  0
  8 10  1  0  0  0
  9 12  1  0  0  0
 10 11  2  0  0  0
 10 17  1  0  0  0
 11 12  1  0  0  0
 11 16  1  0  0  0
 12 13  1  0  0  0
 13 21  1  0  0  0
 13 14  2  0  0  0
 14 15  1  0  0  0
 14 42  1  0  0  0
 15 20  1  0  0  0
 15 16  2  0  0  0
 17 18  1  0  0  0
 17 19  2  0  0  0
 18 43  1  0  0  0
 18 44  1  0  0  0
 20 31  1  0  0  0
 20 32  1  0  0  0
 20 45  1  0  0  0
 21 22  1  0  0  0
 21 46  1  0  0  0
 22 27  1  0  0  0
 22 29  1  0  0  0
 22 47  1  0  0  0
 23 24  1  0  0  0
 24 48  1  0  0  0
 24 49  1  0  0  0
 24 50  1  0  0  0
 25 26  1  0  0  0
 26 51  1  0  0  0
 26 52  1  0  0  0
 26 53  1  0  0  0
 27 28  1  0  0  0
 27 54  1  0  0  0
 27 55  1  0  0  0
 28 56  1  0  0  0
 29 30  1  0  0  0
 29 57  1  0  0  0
 29 58  1  0  0  0
 30 33  2  0  0  0
 30 37  1  0  0  0
 31 32  1  0  0  0
 31 59  1  0  0  0
 31 60  1  0  0  0
 32 61  1  0  0  0
 32 62  1  0  0  0
 33 34  1  0  0  0
 33 63  1  0  0  0
 34 35  2  0  0  0
 34 64  1  0  0  0
 35 36  1  0  0  0
 35 65  1  0  0  0
 36 37  2  0  0  0
 36 66  1  0  0  0
 37 67  1  0  0  0
M  END
> <s_m_entry_id>
4530

> <s_m_entry_name>
dock_pv.18

> <s_m_Source_Path>
/home/csk/Desktop/cluster/DUD-E-result/lck

> <s_m_Source_File>
dock_pv.maegz

> <i_m_Source_File_Index>
18

> <chembl_id>
CHEMBL260861

> <chembl_pref_name>
None

> <i_lp_mmshare_version>
53161

> <i_f3d_flags>
0

> <r_lp_tautomer_probability>
1

> <s_lp_Force_Field>
OPLS_2005

> <r_lp_Energy>
35.59729

> <b_lp_Chiralities_Consistent>
1

> <s_lp_Variant>
CHEMBL258_lig1028-1

> <s_i_glide_gridfile>
glide-grid_2of2

> <i_i_glide_lignum>
1116

> <i_i_glide_rotatable_bonds>
12

> <r_i_docking_score>
-8.6027235638975

> <r_i_glide_ligand_efficiency>
-0.2325060422675

> <r_i_glide_ligand_efficiency_sa>
-0.774761713750947

> <r_i_glide_ligand_efficiency_ln>
-1.86572906455498

> <r_i_glide_gscore>
-8.6027235638975

> <r_i_glide_lipo>
-2.57750652768524

> <r_i_glide_hbond>
-1.28

> <r_i_glide_metal>
0

> <r_i_glide_rewards>
-1.08405393961851

> <r_i_glide_evdw>
-47.3344650268555

> <r_i_glide_ecoul>
-12.4051198959351

> <r_i_glide_erotb>
0.566328139139277

> <r_i_glide_esite>
0

> <r_i_glide_emodel>
-85.1796695419236

> <r_i_glide_energy>
-59.7395849227905

> <r_i_glide_einternal>
9.69162273406982

> <i_i_glide_confnum>
22

> <i_i_glide_posenum>
309

> <r_i_glide_eff_state_penalty>
0

> <s_user_duplicate_titles>
CHEMBL258_lig1028,432555

> <s_m_subgroup_title>
dock_pv

> <s_m_subgroupid>
dock_pv

> <b_m_subgroup_collapsed>
1

$$$$
CHEMBL258_lig1045
                    3D
 Schrodinger Suite 2021-1.
 32 34  0  0  1  0            999 V2000
   22.0896   37.9849   85.1466 C   0  0  0  0  0  0
   22.7187   39.1683   85.3288 C   0  0  0  0  0  0
   22.6690   36.8959   84.5766 O   0  0  0  0  0  0
   24.1252   39.3569   84.9449 C   0  0  0  0  0  0
   23.9547   37.0118   84.0870 C   0  0  0  0  0  0
   24.7243   38.1770   84.2416 C   0  0  0  0  0  0
   20.6632   37.7411   85.4414 C   0  0  0  0  0  0
   17.9658   37.4206   86.1238 C   0  0  0  0  0  0
   18.9390   36.6439   86.7434 C   0  0  0  0  0  0
   18.3266   38.3093   85.1207 C   0  0  0  0  0  0
   20.2838   36.7911   86.3971 C   0  0  0  0  0  0
   19.6694   38.4827   84.7892 C   0  0  0  0  0  0
   24.4367   35.9167   83.3824 C   0  0  0  0  0  0
   26.0174   38.1935   83.6872 C   0  0  0  0  0  0
   24.7631   40.3953   85.1348 O   0  0  0  0  0  0
   22.1256   40.2746   85.8710 O   0  0  0  0  0  0
   25.7015   35.9669   82.8206 C   0  0  0  0  0  0
   26.4944   37.0946   82.9782 C   0  0  0  0  0  0
   17.3501   39.0211   84.4870 O   0  0  0  0  0  0
   18.5499   35.7379   87.6870 O   0  0  0  0  0  0
   26.1502   34.9136   82.0870 O   0  0  0  0  0  0
   26.8371   39.2851   83.7892 O   0  0  0  0  0  0
   16.9270   37.2996   86.3962 H   0  0  0  0  0  0
   21.0381   36.1935   86.8870 H   0  0  0  0  0  0
   19.9431   39.2130   84.0440 H   0  0  0  0  0  0
   23.8135   35.0472   83.2462 H   0  0  0  0  0  0
   22.7508   41.0088   85.8889 H   0  0  0  0  0  0
   27.4821   37.1300   82.5429 H   0  0  0  0  0  0
   16.6572   39.2663   85.1236 H   0  0  0  0  0  0
   19.2271   35.0951   87.9088 H   0  0  0  0  0  0
   26.9503   35.1281   81.5947 H   0  0  0  0  0  0
   26.3997   39.9860   84.2884 H   0  0  0  0  0  0
  1  2  2  0  0  0
  1  3  1  0  0  0
  1  7  1  0  0  0
  2  4  1  0  0  0
  2 16  1  0  0  0
  3  5  1  0  0  0
  4 15  2  0  0  0
  4  6  1  0  0  0
  5  6  1  0  0  0
  5 13  2  0  0  0
  6 14  2  0  0  0
  7 11  2  0  0  0
  7 12  1  0  0  0
  8 10  1  0  0  0
  8  9  2  0  0  0
  8 23  1  0  0  0
  9 11  1  0  0  0
  9 20  1  0  0  0
 10 12  2  0  0  0
 10 19  1  0  0  0
 11 24  1  0  0  0
 12 25  1  0  0  0
 13 17  1  0  0  0
 13 26  1  0  0  0
 14 18  1  0  0  0
 14 22  1  0  0  0
 16 27  1  0  0  0
 17 18  2  0  0  0
 17 21  1  0  0  0
 18 28  1  0  0  0
 19 29  1  0  0  0
 20 30  1  0  0  0
 21 31  1  0  0  0
 22 32  1  0  0  0
M  END
> <s_m_entry_id>
4531

> <s_m_entry_name>
dock_pv.19

> <s_m_Source_Path>
/home/csk/Desktop/cluster/DUD-E-result/lck

> <s_m_Source_File>
dock_pv.maegz

> <i_m_Source_File_Index>
19

> <chembl_id>
CHEMBL76187

> <chembl_pref_name>
None

> <i_lp_mmshare_version>
53161

> <i_f3d_flags>
0

> <r_lp_tautomer_probability>
0.999999999898

> <s_lp_Force_Field>
OPLS_2005

> <r_lp_Energy>
18.269854

> <b_lp_Chiralities_Consistent>
1

> <s_lp_Variant>
CHEMBL258_lig1045-1

> <s_i_glide_gridfile>
glide-grid_2of2

> <i_i_glide_lignum>
1133

> <i_i_glide_rotatable_bonds>
6

> <r_i_docking_score>
-8.53387173764408

> <r_i_glide_ligand_efficiency>
-0.387903260802003

> <r_i_glide_ligand_efficiency_sa>
-1.08692019213678

> <r_i_glide_ligand_efficiency_ln>
-2.0859895332151

> <r_i_glide_gscore>
-8.53387173764408

> <r_i_glide_lipo>
-2.91767575782161

> <r_i_glide_hbond>
-0.814780376856448

> <r_i_glide_metal>
0

> <r_i_glide_rewards>
-1.94839295454545

> <r_i_glide_evdw>
-32.7790451049805

> <r_i_glide_ecoul>
-9.43733596801758

> <r_i_glide_erotb>
0.20153000203109

> <r_i_glide_esite>
0

> <r_i_glide_emodel>
-61.9149756447021

> <r_i_glide_energy>
-42.216381072998

> <r_i_glide_einternal>
4.26949548721313

> <i_i_glide_confnum>
4

> <i_i_glide_posenum>
388

> <r_i_glide_eff_state_penalty>
0

> <s_user_duplicate_titles>
CHEMBL258_lig1045

> <s_m_subgroup_title>
dock_pv

> <s_m_subgroupid>
dock_pv

> <b_m_subgroup_collapsed>
1

$$$$
CHEMBL258_lig105
                    3D
 Schrodinger Suite 2021-1.
 38 40  0  0  1  0            999 V2000
   25.9972   37.3309   83.5994 C   0  0  0  0  0  0
   26.1849   38.4901   84.3585 N   0  0  0  0  0  0
   24.6209   36.9530   83.6871 C   0  0  0  0  0  0
   23.9654   37.8992   84.5493 C   0  0  0  0  0  0
   24.9446   38.8146   84.8827 C   0  0  0  0  0  0
   26.9123   36.6569   82.8867 N   0  0  0  0  0  0
   24.2540   35.8206   82.9256 C   0  0  0  0  0  0
   25.1649   35.1051   82.2285 N   0  0  0  0  0  0
   27.4125   39.3156   84.5736 C   0  0  0  0  0  0
   22.5464   37.9064   85.0072 C   0  0  0  0  0  0
   26.4390   35.5535   82.2618 C   0  0  0  0  0  0
   21.9680   36.7233   85.4699 C   0  0  0  0  0  0
   21.7853   39.0789   84.9596 C   0  0  0  0  0  0
   22.9278   35.4210   82.8022 N   0  0  0  0  0  0
   19.8748   37.8635   85.7932 C   0  0  0  0  0  0
   20.6315   36.6971   85.8566 C   0  0  0  0  0  0
   20.4469   39.0578   85.3543 C   0  0  0  0  0  0
   18.2153   37.8209   86.2638 Cl  0  0  0  0  0  0
   28.7055   38.6394   84.0543 C   0  0  0  0  0  0
   27.5944   39.5610   86.0937 C   0  0  0  0  0  0
   27.2266   40.6584   83.8301 C   0  0  0  0  0  0
   24.8476   39.6953   85.4998 H   0  0  0  0  0  0
   27.1611   34.9832   81.6943 H   0  0  0  0  0  0
   22.5540   35.8209   85.5279 H   0  0  0  0  0  0
   22.2220   39.9995   84.6022 H   0  0  0  0  0  0
   22.2103   35.9582   83.2683 H   0  0  0  0  0  0
   22.6901   34.6380   82.2055 H   0  0  0  0  0  0
   20.1841   35.7717   86.1932 H   0  0  0  0  0  0
   19.8546   39.9594   85.3096 H   0  0  0  0  0  0
   28.7057   38.5351   82.9678 H   0  0  0  0  0  0
   29.5899   39.2268   84.3055 H   0  0  0  0  0  0
   28.8500   37.6486   84.4865 H   0  0  0  0  0  0
   26.7915   40.1591   86.5231 H   0  0  0  0  0  0
   27.6325   38.6240   86.6491 H   0  0  0  0  0  0
   28.5222   40.0936   86.3038 H   0  0  0  0  0  0
   26.3627   41.2152   84.1980 H   0  0  0  0  0  0
   28.0976   41.3039   83.9486 H   0  0  0  0  0  0
   27.0781   40.5031   82.7599 H   0  0  0  0  0  0
  1  2  1  0  0  0
  1  3  1  0  0  0
  1  6  2  0  0  0
  2  5  1  0  0  0
  2  9  1  0  0  0
  3  4  1  0  0  0
  3  7  2  0  0  0
  4 10  1  0  0  0
  4  5  2  0  0  0
  5 22  1  0  0  0
  6 11  1  0  0  0
  7 14  1  0  0  0
  7  8  1  0  0  0
  8 11  2  0  0  0
  9 19  1  0  0  0
  9 20  1  0  0  0
  9 21  1  0  0  0
 10 12  1  0  0  0
 10 13  2  0  0  0
 11 23  1  0  0  0
 12 16  2  0  0  0
 12 24  1  0  0  0
 13 17  1  0  0  0
 13 25  1  0  0  0
 14 26  1  0  0  0
 14 27  1  0  0  0
 15 17  2  0  0  0
 15 18  1  0  0  0
 15 16  1  0  0  0
 16 28  1  0  0  0
 17 29  1  0  0  0
 19 30  1  0  0  0
 19 31  1  0  0  0
 19 32  1  0  0  0
 20 33  1  0  0  0
 20 34  1  0  0  0
 20 35  1  0  0  0
 21 36  1  0  0  0
 21 37  1  0  0  0
 21 38  1  0  0  0
M  END
> <s_m_entry_id>
4532

> <s_m_entry_name>
dock_pv.20

> <s_m_Source_Path>
/home/csk/Desktop/cluster/DUD-E-result/lck

> <s_m_Source_File>
dock_pv.maegz

> <i_m_Source_File_Index>
20

> <chembl_id>
CHEMBL306012

> <chembl_pref_name>
None

> <i_lp_mmshare_version>
53161

> <i_f3d_flags>
0

> <r_lp_tautomer_probability>
1

> <s_lp_Force_Field>
OPLS_2005

> <r_lp_Energy>
22.181866

> <b_lp_Chiralities_Consistent>
1

> <s_lp_Variant>
CHEMBL258_lig105-1

> <s_i_glide_gridfile>
glide-grid_2of2

> <i_i_glide_lignum>
126

> <i_i_glide_rotatable_bonds>
2

> <r_i_docking_score>
-8.44036185309156

> <r_i_glide_ligand_efficiency>
-0.40192199300436

> <r_i_glide_ligand_efficiency_sa>
-1.10887230239368

> <r_i_glide_ligand_efficiency_ln>
-2.08686241281986

> <r_i_glide_gscore>
-8.44036185309156

> <r_i_glide_lipo>
-2.31455462843449

> <r_i_glide_hbond>
-0.570642774208001

> <r_i_glide_metal>
0

> <r_i_glide_rewards>
-3.3335486901457

> <r_i_glide_evdw>
-32.5800552368164

> <r_i_glide_ecoul>
-4.89917945861816

> <r_i_glide_erotb>
0.142263920330179

> <r_i_glide_esite>
0

> <r_i_glide_emodel>
-54.0743088901808

> <r_i_glide_energy>
-37.4792346954346

> <r_i_glide_einternal>
3.79628586769104

> <i_i_glide_confnum>
3

> <i_i_glide_posenum>
165

> <r_i_glide_eff_state_penalty>
0

> <s_user_duplicate_titles>
CHEMBL258_lig105,108051

> <s_m_subgroup_title>
dock_pv

> <s_m_subgroupid>
dock_pv

> <b_m_subgroup_collapsed>
1

$$$$
CHEMBL258_lig720
                    3D
 Schrodinger Suite 2021-1.
 37 40  0  0  1  0            999 V2000
   24.9016   39.5318   85.1617 C   0  0  0  0  0  0
   24.1692   39.9980   86.4005 C   0  0  0  0  0  0
   22.9038   39.1433   86.4848 C   0  0  0  0  0  0
   23.0138   38.2372   85.4755 N   0  0  0  0  0  0
   24.3682   38.2088   84.9711 N   0  0  0  0  0  0
   25.4280   35.3983   82.0870 N   0  0  0  0  0  0
   26.3117   36.2801   82.6171 C   0  0  0  0  0  0
   26.0217   37.1932   83.5828 N   0  0  0  0  0  0
   24.1663   35.4210   82.5813 C   0  0  0  0  0  0
   23.7830   36.2972   83.5932 C   0  0  0  0  0  0
   24.7448   37.2163   84.0438 C   0  0  0  0  0  0
   22.0945   37.3031   85.0099 C   0  0  0  0  0  0
   22.4182   36.3634   84.1028 C   0  0  0  0  0  0
   27.6044   36.2209   82.0871 N   0  0  0  0  0  0
   28.7285   36.9000   82.7226 C   0  0  0  0  0  0
   20.7002   37.3360   85.5242 C   0  0  0  0  0  0
   20.2360   36.3389   86.4012 C   0  0  0  0  0  0
   18.9297   36.3851   86.8869 C   0  0  0  0  0  0
   18.0711   37.4149   86.5076 C   0  0  0  0  0  0
   18.5182   38.3998   85.6340 C   0  0  0  0  0  0
   19.8212   38.3651   85.1432 C   0  0  0  0  0  0
   20.3294   39.6321   84.0871 Cl  0  0  0  0  0  0
   21.9978   39.3045   87.3040 O   0  0  0  0  0  0
   21.2495   35.0210   86.8879 Cl  0  0  0  0  0  0
   25.9865   39.5402   85.2776 H   0  0  0  0  0  0
   24.6423   40.1420   84.2950 H   0  0  0  0  0  0
   23.9220   41.0592   86.3567 H   0  0  0  0  0  0
   24.7750   39.8193   87.2876 H   0  0  0  0  0  0
   23.4619   34.7212   82.1519 H   0  0  0  0  0  0
   21.6776   35.6493   83.7670 H   0  0  0  0  0  0
   27.7573   35.6532   81.2535 H   0  0  0  0  0  0
   29.6199   36.8195   82.0996 H   0  0  0  0  0  0
   28.5181   37.9575   82.8873 H   0  0  0  0  0  0
   28.9496   36.4444   83.6872 H   0  0  0  0  0  0
   18.5769   35.6134   87.5564 H   0  0  0  0  0  0
   17.0593   37.4542   86.8857 H   0  0  0  0  0  0
   17.8469   39.1971   85.3479 H   0  0  0  0  0  0
  1  2  1  0  0  0
  1  5  1  0  0  0
  1 25  1  0  0  0
  1 26  1  0  0  0
  2  3  1  0  0  0
  2 27  1  0  0  0
  2 28  1  0  0  0
  3  4  1  0  0  0
  3 23  2  0  0  0
  4 12  1  0  0  0
  4  5  1  0  0  0
  5 11  1  0  0  0
  6  7  2  0  0  0
  6  9  1  0  0  0
  7 14  1  0  0  0
  7  8  1  0  0  0
  8 11  2  0  0  0
  9 10  2  0  0  0
  9 29  1  0  0  0
 10 13  1  0  0  0
 10 11  1  0  0  0
 12 13  2  0  0  0
 12 16  1  0  0  0
 13 30  1  0  0  0
 14 15  1  0  0  0
 14 31  1  0  0  0
 15 32  1  0  0  0
 15 33  1  0  0  0
 15 34  1  0  0  0
 16 17  2  0  0  0
 16 21  1  0  0  0
 17 18  1  0  0  0
 17 24  1  0  0  0
 18 19  2  0  0  0
 18 35  1  0  0  0
 19 20  1  0  0  0
 19 36  1  0  0  0
 20 21  2  0  0  0
 20 37  1  0  0  0
 21 22  1  0  0  0
M  END
> <s_m_entry_id>
4533

> <s_m_entry_name>
dock_pv.21

> <s_m_Source_Path>
/home/csk/Desktop/cluster/DUD-E-result/lck

> <s_m_Source_File>
dock_pv.maegz

> <i_m_Source_File_Index>
21

> <chembl_id>
CHEMBL214007

> <chembl_pref_name>
None

> <i_lp_mmshare_version>
53161

> <i_f3d_flags>
0

> <r_lp_tautomer_probability>
1

> <s_lp_Force_Field>
OPLS_2005

> <r_lp_Energy>
15.561327

> <b_lp_Chiralities_Consistent>
1

> <s_lp_Variant>
CHEMBL258_lig720-1

> <s_i_glide_gridfile>
glide-grid_2of2

> <i_i_glide_lignum>
805

> <i_i_glide_rotatable_bonds>
2

> <r_i_docking_score>
-8.40323872237841

> <r_i_glide_ligand_efficiency>
-0.350134946765767

> <r_i_glide_ligand_efficiency_sa>
-1.00996395197516

> <r_i_glide_ligand_efficiency_ln>
-2.01128062576412

> <r_i_glide_gscore>
-8.40323872237841

> <r_i_glide_lipo>
-2.44942449167656

> <r_i_glide_hbond>
-0.529747428552417

> <r_i_glide_metal>
0

> <r_i_glide_rewards>
-2.87310004213822

> <r_i_glide_evdw>
-35.490177154541

> <r_i_glide_ecoul>
-5.54426336288452

> <r_i_glide_erotb>
0.10243739689723

> <r_i_glide_esite>
-0.04725579474872

> <r_i_glide_emodel>
-60.1590318243431

> <r_i_glide_energy>
-41.0344405174255

> <r_i_glide_einternal>
3.17622804641724

> <i_i_glide_confnum>
2

> <i_i_glide_posenum>
202

> <r_i_glide_eff_state_penalty>
0

> <s_user_duplicate_titles>
CHEMBL258_lig720

> <s_m_subgroup_title>
dock_pv

> <s_m_subgroupid>
dock_pv

> <b_m_subgroup_collapsed>
1

$$$$
CHEMBL258_lig104
                    3D
 Schrodinger Suite 2021-1.
 40 42  0  0  1  0            999 V2000
   25.9436   38.4456   84.4300 N   0  0  0  0  0  0
   26.2154   35.5728   82.2579 C   0  0  0  0  0  0
   26.7036   36.6648   82.8929 N   0  0  0  0  0  0
   25.7940   37.3043   83.6442 C   0  0  0  0  0  0
   24.4329   36.9270   83.7582 C   0  0  0  0  0  0
   24.0389   35.8210   82.9837 C   0  0  0  0  0  0
   24.9379   35.1223   82.2494 N   0  0  0  0  0  0
   24.7527   38.7709   84.9959 N   0  0  0  0  0  0
   23.8500   37.8826   84.6537 C   0  0  0  0  0  0
   22.7110   35.4211   82.8866 N   0  0  0  0  0  0
   22.4482   37.9662   85.1680 C   0  0  0  0  0  0
   21.7916   39.2015   85.2243 C   0  0  0  0  0  0
   20.4675   39.2755   85.6524 C   0  0  0  0  0  0
   19.7922   38.1130   86.0267 C   0  0  0  0  0  0
   20.4457   36.8793   85.9843 C   0  0  0  0  0  0
   21.7682   36.8089   85.5552 C   0  0  0  0  0  0
   18.3484   38.1930   86.4885 C   0  0  0  0  0  0
   27.1163   39.3320   84.6821 C   0  0  0  0  0  0
   26.8538   40.6976   84.0036 C   0  0  0  0  0  0
   28.4325   38.7414   84.1158 C   0  0  0  0  0  0
   27.2834   39.5186   86.2141 C   0  0  0  0  0  0
   26.9321   35.0010   81.6873 H   0  0  0  0  0  0
   21.9994   35.9363   83.3842 H   0  0  0  0  0  0
   22.4715   34.6539   82.2660 H   0  0  0  0  0  0
   22.3031   40.1049   84.9253 H   0  0  0  0  0  0
   19.9694   40.2344   85.6882 H   0  0  0  0  0  0
   19.9291   35.9739   86.2688 H   0  0  0  0  0  0
   22.2617   35.8479   85.5293 H   0  0  0  0  0  0
   18.2155   39.0242   87.1810 H   0  0  0  0  0  0
   17.6846   38.3642   85.6431 H   0  0  0  0  0  0
   18.0355   37.2882   87.0084 H   0  0  0  0  0  0
   25.9575   41.1824   84.3949 H   0  0  0  0  0  0
   27.6847   41.3870   84.1580 H   0  0  0  0  0  0
   26.7143   40.5877   82.9269 H   0  0  0  0  0  0
   28.6258   37.7345   84.4875 H   0  0  0  0  0  0
   28.4183   38.6895   83.0272 H   0  0  0  0  0  0
   29.2937   39.3531   84.3899 H   0  0  0  0  0  0
   27.3592   38.5590   86.7261 H   0  0  0  0  0  0
   28.1809   40.0919   86.4583 H   0  0  0  0  0  0
   26.4375   40.0495   86.6535 H   0  0  0  0  0  0
  1  4  1  0  0  0
  1  8  1  0  0  0
  1 18  1  0  0  0
  2  3  2  0  0  0
  2  7  1  0  0  0
  2 22  1  0  0  0
  3  4  1  0  0  0
  4  5  2  0  0  0
  5  6  1  0  0  0
  5  9  1  0  0  0
  6  7  2  0  0  0
  6 10  1  0  0  0
  8  9  2  0  0  0
  9 11  1  0  0  0
 10 23  1  0  0  0
 10 24  1  0  0  0
 11 12  2  0  0  0
 11 16  1  0  0  0
 12 13  1  0  0  0
 12 25  1  0  0  0
 13 14  2  0  0  0
 13 26  1  0  0  0
 14 15  1  0  0  0
 14 17  1  0  0  0
 15 16  2  0  0  0
 15 27  1  0  0  0
 16 28  1  0  0  0
 17 29  1  0  0  0
 17 30  1  0  0  0
 17 31  1  0  0  0
 18 19  1  0  0  0
 18 20  1  0  0  0
 18 21  1  0  0  0
 19 32  1  0  0  0
 19 33  1  0  0  0
 19 34  1  0  0  0
 20 35  1  0  0  0
 20 36  1  0  0  0
 20 37  1  0  0  0
 21 38  1  0  0  0
 21 39  1  0  0  0
 21 40  1  0  0  0
M  END
> <s_m_entry_id>
4534

> <s_m_entry_name>
dock_pv.22

> <s_m_Source_Path>
/home/csk/Desktop/cluster/DUD-E-result/lck

> <s_m_Source_File>
dock_pv.maegz

> <i_m_Source_File_Index>
22

> <chembl_id>
CHEMBL306380

> <chembl_pref_name>
None

> <i_lp_mmshare_version>
53161

> <i_f3d_flags>
0

> <r_lp_tautomer_probability>
1

> <s_lp_Force_Field>
OPLS_2005

> <r_lp_Energy>
19.078647

> <b_lp_Chiralities_Consistent>
1

> <s_lp_Variant>
CHEMBL258_lig104-1

> <s_i_glide_gridfile>
glide-grid_2of2

> <i_i_glide_lignum>
125

> <i_i_glide_rotatable_bonds>
2

> <r_i_docking_score>
-8.39132752850139

> <r_i_glide_ligand_efficiency>
-0.399587025166733

> <r_i_glide_ligand_efficiency_sa>
-1.10243030318192

> <r_i_glide_ligand_efficiency_ln>
-2.07473877514812

> <r_i_glide_gscore>
-8.39132752850139

> <r_i_glide_lipo>
-2.18126999459325

> <r_i_glide_hbond>
-0.524996688838266

> <r_i_glide_metal>
0

> <r_i_glide_rewards>
-3.50348062392866

> <r_i_glide_evdw>
-31.8034725189209

> <r_i_glide_ecoul>
-5.00829362869263

> <r_i_glide_erotb>
0.15983744910873

> <r_i_glide_esite>
0

> <r_i_glide_emodel>
-54.4890326938239

> <r_i_glide_energy>
-36.8117661476135

> <r_i_glide_einternal>
1.38060176372528

> <i_i_glide_confnum>
2

> <i_i_glide_posenum>
24

> <r_i_glide_eff_state_penalty>
0

> <s_user_duplicate_titles>
CHEMBL258_lig104,107975

> <s_m_subgroup_title>
dock_pv

> <s_m_subgroupid>
dock_pv

> <b_m_subgroup_collapsed>
1

$$$$
CHEMBL258_lig636
                    3D
 Schrodinger Suite 2021-1.
 47 49  0  0  1  0            999 V2000
   27.0123   38.1319   84.5489 C   0  0  0  0  0  0
   27.6271   37.4211   83.5050 C   0  0  0  0  0  0
   26.8618   36.5309   82.7400 C   0  0  0  0  0  0
   25.6451   37.9816   84.8055 C   0  0  0  0  0  0
   24.8591   37.0752   84.0456 C   0  0  0  0  0  0
   25.4955   36.3255   83.0091 C   0  0  0  0  0  0
   24.8207   35.4209   82.2476 N   0  0  0  0  0  0
   23.4948   35.3159   82.4868 C   0  0  0  0  0  0
   22.7791   35.9609   83.4293 N   0  0  0  0  0  0
   23.4570   36.8373   84.2125 C   0  0  0  0  0  0
   22.7000   37.5103   85.1891 N   0  0  0  0  0  0
   21.3025   37.4799   85.3528 C   0  0  0  0  0  0
   20.7620   36.9005   86.5020 C   0  0  0  0  0  0
   19.3785   36.8673   86.6928 C   0  0  0  0  0  0
   18.5277   37.4211   85.7370 C   0  0  0  0  0  0
   19.0554   37.9913   84.5795 C   0  0  0  0  0  0
   20.4407   38.0368   84.3956 C   0  0  0  0  0  0
   28.9834   37.5934   83.2890 O   0  0  0  0  0  0
   27.8294   39.0148   85.4928 C   0  0  0  0  0  0
   29.6980   36.6372   82.4985 C   0  0  0  0  0  0
   17.9842   38.6212   83.3790 Cl  0  0  0  0  0  0
   20.9485   38.6193   83.2869 F   0  0  0  0  0  0
   27.6242   40.4524   85.2884 N   0  0  2  0  0  0
   28.0668   41.0100   84.0037 C   0  0  0  0  0  0
   29.5730   40.8706   83.6514 C   0  0  0  0  0  0
   30.4800   40.6120   84.5933 N   0  0  0  0  0  0
   29.9284   41.0209   82.4873 O   0  0  0  0  0  0
   28.0306   41.2169   86.4687 C   0  0  0  0  0  0
   27.3001   35.9635   81.9316 H   0  0  0  0  0  0
   25.1874   38.5468   85.6038 H   0  0  0  0  0  0
   22.9518   34.6226   81.8679 H   0  0  0  0  0  0
   23.1989   38.1655   85.7691 H   0  0  0  0  0  0
   21.4131   36.4646   87.2463 H   0  0  0  0  0  0
   18.9621   36.4066   87.5769 H   0  0  0  0  0  0
   17.4573   37.3901   85.8849 H   0  0  0  0  0  0
   28.8869   38.7644   85.4278 H   0  0  0  0  0  0
   27.5259   38.7459   86.5069 H   0  0  0  0  0  0
   30.7601   36.8754   82.5148 H   0  0  0  0  0  0
   29.5839   35.6251   82.8867 H   0  0  0  0  0  0
   29.3826   36.6213   81.4553 H   0  0  0  0  0  0
   27.8315   42.0744   83.9802 H   0  0  0  0  0  0
   27.4851   40.5656   83.1950 H   0  0  0  0  0  0
   31.4505   40.5508   84.3275 H   0  0  0  0  0  0
   30.2017   40.4764   85.5527 H   0  0  0  0  0  0
   27.8841   42.2856   86.3104 H   0  0  0  0  0  0
   27.4236   40.9363   87.3295 H   0  0  0  0  0  0
   29.0739   41.0509   86.7352 H   0  0  0  0  0  0
  1  2  1  0  0  0
  1 19  1  0  0  0
  1  4  2  0  0  0
  2 18  1  0  0  0
  2  3  2  0  0  0
  3  6  1  0  0  0
  3 29  1  0  0  0
  4  5  1  0  0  0
  4 30  1  0  0  0
  5 10  2  0  0  0
  5  6  1  0  0  0
  6  7  2  0  0  0
  7  8  1  0  0  0
  8  9  2  0  0  0
  8 31  1  0  0  0
  9 10  1  0  0  0
 10 11  1  0  0  0
 11 12  1  0  0  0
 11 32  1  0  0  0
 12 17  2  0  0  0
 12 13  1  0  0  0
 13 14  2  0  0  0
 13 33  1  0  0  0
 14 15  1  0  0  0
 14 34  1  0  0  0
 15 16  2  0  0  0
 15 35  1  0  0  0
 16 17  1  0  0  0
 16 21  1  0  0  0
 17 22  1  0  0  0
 18 20  1  0  0  0
 19 23  1  0  0  0
 19 36  1  0  0  0
 19 37  1  0  0  0
 20 38  1  0  0  0
 20 39  1  0  0  0
 20 40  1  0  0  0
 23 24  1  0  0  0
 23 28  1  0  0  0
 24 25  1  0  0  0
 24 41  1  0  0  0
 24 42  1  0  0  0
 25 26  1  0  0  0
 25 27  2  0  0  0
 26 43  1  0  0  0
 26 44  1  0  0  0
 28 45  1  0  0  0
 28 46  1  0  0  0
 28 47  1  0  0  0
M  END
> <s_m_entry_id>
4535

> <s_m_entry_name>
dock_pv.23

> <s_m_Source_Path>
/home/csk/Desktop/cluster/DUD-E-result/lck

> <s_m_Source_File>
dock_pv.maegz

> <i_m_Source_File_Index>
23

> <chembl_id>
CHEMBL379601

> <chembl_pref_name>
None

> <i_lp_mmshare_version>
53161

> <i_f3d_flags>
0

> <r_lp_tautomer_probability>
0.999978000241998

> <s_lp_Force_Field>
OPLS_2005

> <r_lp_Energy>
18.698542

> <b_lp_Chiralities_Consistent>
1

> <s_lp_Variant>
CHEMBL258_lig636-1

> <s_i_glide_gridfile>
glide-grid_2of2

> <i_i_glide_lignum>
716

> <i_i_glide_rotatable_bonds>
7

> <r_i_docking_score>
-8.34945601180101

> <r_i_glide_ligand_efficiency>
-0.298194857564322

> <r_i_glide_ligand_efficiency_sa>
-0.905495214944088

> <r_i_glide_ligand_efficiency_ln>
-1.92729959820464

> <r_i_glide_gscore>
-8.34945601180101

> <r_i_glide_lipo>
-3.32494506306495

> <r_i_glide_hbond>
-0.374976996858664

> <r_i_glide_metal>
0

> <r_i_glide_rewards>
-2.02514153991614

> <r_i_glide_evdw>
-39.781665802002

> <r_i_glide_ecoul>
-7.91106367111206

> <r_i_glide_erotb>
0.602058695950387

> <r_i_glide_esite>
-0.0507082671447349

> <r_i_glide_emodel>
-70.636023764364

> <r_i_glide_energy>
-47.692729473114

> <r_i_glide_einternal>
3.60187911987305

> <i_i_glide_confnum>
116

> <i_i_glide_posenum>
107

> <r_i_glide_eff_state_penalty>
0

> <s_user_duplicate_titles>
CHEMBL258_lig636

> <s_m_subgroup_title>
dock_pv

> <s_m_subgroupid>
dock_pv

> <b_m_subgroup_collapsed>
1

$$$$
CHEMBL258_lig335
                    3D
 Schrodinger Suite 2021-1.
 54 57  0  0  1  0            999 V2000
   27.1686   37.4133   83.6372 C   0  0  0  0  0  0
   24.6136   36.9181   83.8312 C   0  0  0  0  0  0
   20.9482   39.5170   86.8366 S   0  0  0  0  0  0
   24.3875   35.8210   82.8874 C   0  0  0  0  0  0
   28.3242   38.0700   84.0706 C   0  0  0  0  0  0
   25.7886   37.5382   84.1025 C   0  0  0  0  0  0
   27.5554   36.5114   82.6767 N   0  0  0  0  0  0
   23.3085   37.2415   84.4057 C   0  0  0  0  0  0
   29.4140   37.5261   83.3571 C   0  0  0  0  0  0
   23.0544   35.6203   82.8872 N   0  0  0  0  0  0
   28.9085   36.5660   82.4880 C   0  0  0  0  0  0
   22.3848   36.4603   83.7522 C   0  0  0  0  0  0
   21.5151   38.3266   85.6221 C   0  0  0  0  0  0
   22.8850   38.1781   85.3572 C   0  0  0  0  0  0
   28.4005   39.1180   85.1684 C   0  0  0  0  0  0
   19.4860   39.4254   86.8917 O   0  0  0  0  0  0
   21.7499   39.3197   88.0480 O   0  0  0  0  0  0
   28.7793   41.3922   84.0119 C   0  0  0  0  0  0
   21.3424   41.0949   86.1735 N   0  0  2  0  0  0
   25.1862   35.1880   82.1980 O   0  0  0  0  0  0
   21.0190   36.6198   83.9759 C   0  0  0  0  0  0
   20.5839   37.5461   84.9244 C   0  0  0  0  0  0
   29.3472   41.0184   82.9884 O   0  0  0  0  0  0
   27.7997   40.4784   84.7535 C   0  0  0  0  0  0
   28.9502   42.6210   84.4872 N   0  0  0  0  0  0
   30.9079   37.8380   83.4303 C   0  0  0  0  0  0
   29.7202   35.6504   81.5804 C   0  0  0  0  0  0
   22.6639   41.7075   86.4032 C   0  0  0  0  0  0
   31.6599   37.1804   82.2471 C   0  0  0  0  0  0
   31.2044   35.7279   81.9929 C   0  0  0  0  0  0
   25.7169   38.3245   84.8393 H   0  0  0  0  0  0
   26.9256   35.8699   82.2063 H   0  0  0  0  0  0
   22.6073   34.9163   82.3159 H   0  0  0  0  0  0
   23.5996   38.7955   85.8818 H   0  0  0  0  0  0
   27.8531   38.7531   86.0383 H   0  0  0  0  0  0
   29.4317   39.2405   85.5072 H   0  0  0  0  0  0
   20.5583   41.7327   86.0080 H   0  0  0  0  0  0
   20.2921   36.0275   83.4405 H   0  0  0  0  0  0
   19.5257   37.6528   85.1126 H   0  0  0  0  0  0
   26.8761   40.3610   84.1866 H   0  0  0  0  0  0
   27.4919   40.9873   85.6683 H   0  0  0  0  0  0
   29.5806   43.2462   83.9806 H   0  0  0  0  0  0
   28.4754   42.9424   85.3149 H   0  0  0  0  0  0
   31.3153   37.4618   84.3689 H   0  0  0  0  0  0
   31.0842   38.9140   83.4274 H   0  0  0  0  0  0
   29.6425   35.9863   80.5500 H   0  0  0  0  0  0
   29.3592   34.6221   81.5994 H   0  0  0  0  0  0
   22.7746   42.5742   85.7511 H   0  0  0  0  0  0
   22.7337   42.0531   87.4350 H   0  0  0  0  0  0
   23.4603   40.9956   86.1911 H   0  0  0  0  0  0
   31.5038   37.7682   81.3415 H   0  0  0  0  0  0
   32.7333   37.2055   82.4390 H   0  0  0  0  0  0
   31.8223   35.2722   81.2185 H   0  0  0  0  0  0
   31.3690   35.1283   82.8882 H   0  0  0  0  0  0
  1  5  2  0  0  0
  1  6  1  0  0  0
  1  7  1  0  0  0
  2  6  2  0  0  0
  2  4  1  0  0  0
  2  8  1  0  0  0
  3 13  1  0  0  0
  3 16  2  0  0  0
  3 17  2  0  0  0
  3 19  1  0  0  0
  4 10  1  0  0  0
  4 20  2  0  0  0
  5  9  1  0  0  0
  5 15  1  0  0  0
  6 31  1  0  0  0
  7 11  1  0  0  0
  7 32  1  0  0  0
  8 12  1  0  0  0
  8 14  2  0  0  0
  9 26  1  0  0  0
  9 11  2  0  0  0
 10 12  1  0  0  0
 10 33  1  0  0  0
 11 27  1  0  0  0
 12 21  2  0  0  0
 13 14  1  0  0  0
 13 22  2  0  0  0
 14 34  1  0  0  0
 15 24  1  0  0  0
 15 35  1  0  0  0
 15 36  1  0  0  0
 18 24  1  0  0  0
 18 23  2  0  0  0
 18 25  1  0  0  0
 19 28  1  0  0  0
 19 37  1  0  0  0
 21 22  1  0  0  0
 21 38  1  0  0  0
 22 39  1  0  0  0
 24 40  1  0  0  0
 24 41  1  0  0  0
 25 42  1  0  0  0
 25 43  1  0  0  0
 26 29  1  0  0  0
 26 44  1  0  0  0
 26 45  1  0  0  0
 27 30  1  0  0  0
 27 46  1  0  0  0
 27 47  1  0  0  0
 28 48  1  0  0  0
 28 49  1  0  0  0
 28 50  1  0  0  0
 29 30  1  0  0  0
 29 51  1  0  0  0
 29 52  1  0  0  0
 30 53  1  0  0  0
 30 54  1  0  0  0
M  END
> <s_m_entry_id>
4536

> <s_m_entry_name>
dock_pv.24

> <s_m_Source_Path>
/home/csk/Desktop/cluster/DUD-E-result/lck

> <s_m_Source_File>
dock_pv.maegz

> <i_m_Source_File_Index>
24

> <chembl_id>
CHEMBL56569

> <chembl_pref_name>
None

> <i_lp_mmshare_version>
53161

> <i_f3d_flags>
0

> <r_lp_tautomer_probability>
1

> <s_lp_Force_Field>
OPLS_2005

> <r_lp_Energy>
35.372929

> <b_lp_Chiralities_Consistent>
1

> <s_lp_Variant>
CHEMBL258_lig335-1

> <s_i_glide_gridfile>
glide-grid_2of2

> <i_i_glide_lignum>
373

> <i_i_glide_rotatable_bonds>
6

> <r_i_docking_score>
-8.30797459171383

> <r_i_glide_ligand_efficiency>
-0.276932486390461

> <r_i_glide_ligand_efficiency_sa>
-0.860493622691495

> <r_i_glide_ligand_efficiency_ln>
-1.88766234987085

> <r_i_glide_gscore>
-8.30797459171383

> <r_i_glide_lipo>
-2.67151932821248

> <r_i_glide_hbond>
-0.806728432083966

> <r_i_glide_metal>
0

> <r_i_glide_rewards>
-1.36616940023378

> <r_i_glide_evdw>
-37.3328819274902

> <r_i_glide_ecoul>
-11.831184387207

> <r_i_glide_erotb>
0.302912998637474

> <r_i_glide_esite>
-0.125148675365513

> <r_i_glide_emodel>
-69.9272918343669

> <r_i_glide_energy>
-49.1640663146973

> <r_i_glide_einternal>
4.83945322036743

> <i_i_glide_confnum>
87

> <i_i_glide_posenum>
294

> <r_i_glide_eff_state_penalty>
0

> <s_user_duplicate_titles>
CHEMBL258_lig335,86347

> <s_m_subgroup_title>
dock_pv

> <s_m_subgroupid>
dock_pv

> <b_m_subgroup_collapsed>
1

$$$$
CHEMBL258_lig340
                    3D
 Schrodinger Suite 2021-1.
 74 78  0  0  1  0            999 V2000
   27.5454   37.4536   83.6870 C   0  0  0  0  0  0
   25.0289   36.7970   83.8397 C   0  0  0  0  0  0
   24.9016   35.7046   82.8776 C   0  0  0  0  0  0
   26.1580   37.4783   84.1520 C   0  0  0  0  0  0
   28.0080   36.5296   82.7857 N   0  0  0  0  0  0
   21.0448   39.2134   86.5581 S   0  0  0  0  0  0
   28.6298   38.2756   84.0256 C   0  0  0  0  0  0
   23.6807   37.0316   84.3565 C   0  0  0  0  0  0
   23.5919   35.4212   82.8122 N   0  0  0  0  0  0
   29.7430   37.8210   83.2867 C   0  0  0  0  0  0
   29.3500   36.6769   82.5938 C   0  0  0  0  0  0
   22.8426   36.1950   83.6619 C   0  0  0  0  0  0
   23.1478   37.9339   85.2855 C   0  0  0  0  0  0
   21.7585   37.9853   85.4716 C   0  0  0  0  0  0
   23.8972   43.2615   86.3324 N   0  0  0  0  0  0
   26.6820   42.5669   85.9185 N   0  0  0  0  0  0
   19.5866   39.0660   86.5071 O   0  0  0  0  0  0
   21.7500   39.1230   87.8399 O   0  0  0  0  0  0
   22.9386   45.2747   87.6279 C   0  0  0  0  0  0
   25.7535   35.1208   82.2096 O   0  0  0  0  0  0
   21.4668   36.2300   83.8307 C   0  0  0  0  0  0
   20.9209   37.1294   84.7455 C   0  0  0  0  0  0
   22.6967   44.0095   86.7664 C   0  0  0  0  0  0
   24.0434   45.7203   87.9389 O   0  0  0  0  0  0
   24.7213   42.6996   87.4140 C   0  0  0  0  0  0
   24.7117   43.9605   85.3265 C   0  0  0  0  0  0
   25.8339   41.7902   86.8341 C   0  0  0  0  0  0
   25.8714   43.0737   84.8017 C   0  0  0  0  0  0
   21.5112   40.8493   85.7361 C   0  0  0  0  0  0
   28.6261   39.4371   85.0085 C   0  0  0  0  0  0
   21.7500   45.8201   88.0295 O   0  0  0  0  0  0
   31.1872   38.3185   83.2482 C   0  0  0  0  0  0
   30.2122   35.8183   81.6814 C   0  0  0  0  0  0
   27.8981   41.8526   85.5129 C   0  0  0  0  0  0
   27.7066   40.6105   84.6061 C   0  0  0  0  0  0
   21.1558   40.8574   84.2429 C   0  0  0  0  0  0
   32.1177   37.2312   82.6580 C   0  0  0  0  0  0
   31.5282   36.5730   81.3932 C   0  0  0  0  0  0
   26.0253   38.2345   84.9091 H   0  0  0  0  0  0
   27.4320   35.8115   82.3580 H   0  0  0  0  0  0
   23.2054   34.7098   82.2093 H   0  0  0  0  0  0
   23.7859   38.6170   85.8274 H   0  0  0  0  0  0
   20.8208   35.5944   83.2506 H   0  0  0  0  0  0
   19.8483   37.1690   84.8706 H   0  0  0  0  0  0
   22.0531   43.3362   87.3324 H   0  0  0  0  0  0
   22.1291   44.2913   85.8797 H   0  0  0  0  0  0
   25.1776   43.4922   88.0096 H   0  0  0  0  0  0
   24.0913   42.1183   88.0887 H   0  0  0  0  0  0
   24.0667   44.2210   84.4876 H   0  0  0  0  0  0
   25.1113   44.8925   85.7249 H   0  0  0  0  0  0
   25.3877   40.9346   86.3243 H   0  0  0  0  0  0
   26.4392   41.3905   87.6481 H   0  0  0  0  0  0
   25.4660   42.2545   84.2065 H   0  0  0  0  0  0
   26.5017   43.6629   84.1349 H   0  0  0  0  0  0
   20.9819   41.6314   86.2748 H   0  0  0  0  0  0
   22.5804   40.9906   85.8789 H   0  0  0  0  0  0
   29.6411   39.8152   85.1389 H   0  0  0  0  0  0
   28.3316   39.0807   85.9959 H   0  0  0  0  0  0
   20.9918   45.4179   87.5698 H   0  0  0  0  0  0
   31.2409   39.2228   82.6409 H   0  0  0  0  0  0
   31.5292   38.6048   84.2427 H   0  0  0  0  0  0
   30.4449   34.8774   82.1821 H   0  0  0  0  0  0
   29.7159   35.5523   80.7503 H   0  0  0  0  0  0
   28.5318   42.5732   84.9936 H   0  0  0  0  0  0
   28.4592   41.5912   86.4107 H   0  0  0  0  0  0
   26.6622   40.3080   84.5563 H   0  0  0  0  0  0
   27.9463   40.9067   83.5842 H   0  0  0  0  0  0
   21.3504   41.8346   83.8033 H   0  0  0  0  0  0
   21.7480   40.1328   83.6866 H   0  0  0  0  0  0
   20.1051   40.6204   84.0877 H   0  0  0  0  0  0
   32.3054   36.4613   83.4105 H   0  0  0  0  0  0
   33.0899   37.6704   82.4308 H   0  0  0  0  0  0
   32.2515   35.8833   80.9549 H   0  0  0  0  0  0
   31.3522   37.3394   80.6354 H   0  0  0  0  0  0
  1  4  1  0  0  0
  1  5  1  0  0  0
  1  7  2  0  0  0
  2  4  2  0  0  0
  2  3  1  0  0  0
  2  8  1  0  0  0
  3  9  1  0  0  0
  3 20  2  0  0  0
  4 39  1  0  0  0
  5 11  1  0  0  0
  5 40  1  0  0  0
  6 14  1  0  0  0
  6 17  2  0  0  0
  6 18  2  0  0  0
  6 29  1  0  0  0
  7 10  1  0  0  0
  7 30  1  0  0  0
  8 12  1  0  0  0
  8 13  2  0  0  0
  9 12  1  0  0  0
  9 41  1  0  0  0
 10 32  1  0  0  0
 10 11  2  0  0  0
 11 33  1  0  0  0
 12 21  2  0  0  0
 13 14  1  0  0  0
 13 42  1  0  0  0
 14 22  2  0  0  0
 15 26  1  0  0  0
 15 23  1  0  0  0
 15 25  1  0  0  0
 16 34  1  0  0  0
 16 27  1  0  0  0
 16 28  1  0  0  0
 19 23  1  0  0  0
 19 24  2  0  0  0
 19 31  1  0  0  0
 21 22  1  0  0  0
 21 43  1  0  0  0
 22 44  1  0  0  0
 23 45  1  0  0  0
 23 46  1  0  0  0
 25 27  1  0  0  0
 25 47  1  0  0  0
 25 48  1  0  0  0
 26 28  1  0  0  0
 26 49  1  0  0  0
 26 50  1  0  0  0
 27 51  1  0  0  0
 27 52  1  0  0  0
 28 53  1  0  0  0
 28 54  1  0  0  0
 29 36  1  0  0  0
 29 55  1  0  0  0
 29 56  1  0  0  0
 30 35  1  0  0  0
 30 57  1  0  0  0
 30 58  1  0  0  0
 31 59  1  0  0  0
 32 37  1  0  0  0
 32 60  1  0  0  0
 32 61  1  0  0  0
 33 38  1  0  0  0
 33 62  1  0  0  0
 33 63  1  0  0  0
 34 35  1  0  0  0
 34 64  1  0  0  0
 34 65  1  0  0  0
 35 66  1  0  0  0
 35 67  1  0  0  0
 36 68  1  0  0  0
 36 69  1  0  0  0
 36 70  1  0  0  0
 37 38  1  0  0  0
 37 71  1  0  0  0
 37 72  1  0  0  0
 38 73  1  0  0  0
 38 74  1  0  0  0
M  END
> <s_m_entry_id>
4537

> <s_m_entry_name>
dock_pv.25

> <s_m_Source_Path>
/home/csk/Desktop/cluster/DUD-E-result/lck

> <s_m_Source_File>
dock_pv.maegz

> <i_m_Source_File_Index>
25

> <chembl_id>
CHEMBL300853

> <chembl_pref_name>
None

> <i_lp_mmshare_version>
53161

> <i_f3d_flags>
0

> <r_lp_tautomer_probability>
1

> <s_lp_Force_Field>
OPLS_2005

> <r_lp_Energy>
63.443209

> <b_lp_Chiralities_Consistent>
1

> <s_lp_Variant>
CHEMBL258_lig340-1

> <s_i_glide_gridfile>
glide-grid_2of2

> <i_i_glide_lignum>
378

> <i_i_glide_rotatable_bonds>
10

> <r_i_docking_score>
-8.30431366477687

> <r_i_glide_ligand_efficiency>
-0.218534570125707

> <r_i_glide_ligand_efficiency_sa>
-0.734707849407156

> <r_i_glide_ligand_efficiency_ln>
-1.7906543142838

> <r_i_glide_gscore>
-8.30431366477687

> <r_i_glide_lipo>
-2.75922684065735

> <r_i_glide_hbond>
-0.318217765852745

> <r_i_glide_metal>
0

> <r_i_glide_rewards>
-1.49824220493173

> <r_i_glide_evdw>
-42.6749572753906

> <r_i_glide_ecoul>
-12.8553161621094

> <r_i_glide_erotb>
0.396077059785577

> <r_i_glide_esite>
-0.0626586250346917

> <r_i_glide_emodel>
-80.0002751679161

> <r_i_glide_energy>
-55.5302734375

> <r_i_glide_einternal>
11.1367235183716

> <i_i_glide_confnum>
7

> <i_i_glide_posenum>
183

> <r_i_glide_eff_state_penalty>
0

> <s_user_duplicate_titles>
CHEMBL258_lig340,86593

> <s_m_subgroup_title>
dock_pv

> <s_m_subgroupid>
dock_pv

> <b_m_subgroup_collapsed>
1

$$$$
CHEMBL258_lig600
                    3D
 Schrodinger Suite 2021-1.
 40 43  0  0  1  0            999 V2000
   28.9322   36.9356   82.8870 C   0  0  0  0  0  0
   28.8144   38.0147   83.7818 C   0  0  0  0  0  0
   27.5500   38.3471   84.3023 C   0  0  0  0  0  0
   27.7832   36.2210   82.5009 C   0  0  0  0  0  0
   26.5454   36.5586   83.0423 C   0  0  0  0  0  0
   26.4204   37.6143   83.9458 C   0  0  0  0  0  0
   24.9814   37.7931   84.4010 C   0  0  0  0  0  0
   25.1980   35.9893   82.8864 C   0  0  0  0  0  0
   24.2769   36.6777   83.6687 C   0  0  0  0  0  0
   23.0410   36.0780   83.4197 C   0  0  0  0  0  0
   23.3502   35.1160   82.4868 N   0  0  0  0  0  0
   24.6498   35.0326   82.1782 N   0  0  0  0  0  0
   21.7282   36.2214   83.8093 N   0  0  0  0  0  0
   21.0195   37.2709   84.4190 C   0  0  0  0  0  0
   19.6337   37.1142   84.5438 C   0  0  0  0  0  0
   18.8487   38.1036   85.1377 C   0  0  0  0  0  0
   19.4484   39.2685   85.6141 C   0  0  0  0  0  0
   20.8279   39.4408   85.4901 C   0  0  0  0  0  0
   21.6058   38.4494   84.8928 C   0  0  0  0  0  0
   29.9738   38.6976   84.1083 O   0  0  0  0  0  0
   29.9108   39.8212   84.9805 C   0  0  0  0  0  0
   30.2005   36.6424   82.4178 O   0  0  0  0  0  0
   30.3827   35.5636   81.5089 C   0  0  0  0  0  0
   21.4131   40.5664   85.9590 F   0  0  0  0  0  0
   27.4308   39.1687   84.9928 H   0  0  0  0  0  0
   27.8459   35.3913   81.8151 H   0  0  0  0  0  0
   24.8740   37.7283   85.4823 H   0  0  0  0  0  0
   24.6351   38.7805   84.0893 H   0  0  0  0  0  0
   22.6664   34.4961   82.0657 H   0  0  0  0  0  0
   21.0943   35.4612   83.6082 H   0  0  0  0  0  0
   19.1494   36.2212   84.1771 H   0  0  0  0  0  0
   17.7797   37.9738   85.2307 H   0  0  0  0  0  0
   18.8484   40.0328   86.0847 H   0  0  0  0  0  0
   22.6606   38.6149   84.8222 H   0  0  0  0  0  0
   30.9171   40.2071   85.1375 H   0  0  0  0  0  0
   29.3129   40.6253   84.5487 H   0  0  0  0  0  0
   29.5037   39.5562   85.9573 H   0  0  0  0  0  0
   31.4444   35.4529   81.2899 H   0  0  0  0  0  0
   29.8605   35.7528   80.5709 H   0  0  0  0  0  0
   30.0379   34.6214   81.9341 H   0  0  0  0  0  0
  1  2  2  0  0  0
  1  4  1  0  0  0
  1 22  1  0  0  0
  2  3  1  0  0  0
  2 20  1  0  0  0
  3  6  2  0  0  0
  3 25  1  0  0  0
  4  5  2  0  0  0
  4 26  1  0  0  0
  5  8  1  0  0  0
  5  6  1  0  0  0
  6  7  1  0  0  0
  7  9  1  0  0  0
  7 27  1  0  0  0
  7 28  1  0  0  0
  8 12  2  0  0  0
  8  9  1  0  0  0
  9 10  2  0  0  0
 10 11  1  0  0  0
 10 13  1  0  0  0
 11 12  1  0  0  0
 11 29  1  0  0  0
 13 14  1  0  0  0
 13 30  1  0  0  0
 14 15  2  0  0  0
 14 19  1  0  0  0
 15 16  1  0  0  0
 15 31  1  0  0  0
 16 17  2  0  0  0
 16 32  1  0  0  0
 17 18  1  0  0  0
 17 33  1  0  0  0
 18 19  2  0  0  0
 18 24  1  0  0  0
 19 34  1  0  0  0
 20 21  1  0  0  0
 21 35  1  0  0  0
 21 36  1  0  0  0
 21 37  1  0  0  0
 22 23  1  0  0  0
 23 38  1  0  0  0
 23 39  1  0  0  0
 23 40  1  0  0  0
M  END
> <s_m_entry_id>
4538

> <s_m_entry_name>
dock_pv.26

> <s_m_Source_Path>
/home/csk/Desktop/cluster/DUD-E-result/lck

> <s_m_Source_File>
dock_pv.maegz

> <i_m_Source_File_Index>
26

> <chembl_id>
CHEMBL120077

> <chembl_pref_name>
None

> <i_lp_mmshare_version>
53161

> <i_f3d_flags>
0

> <r_lp_tautomer_probability>
0.157399999843308

> <s_lp_Force_Field>
OPLS_2005

> <r_lp_Energy>
51.233699

> <b_lp_Chiralities_Consistent>
1

> <s_lp_Variant>
CHEMBL258_lig600-2

> <s_i_glide_gridfile>
glide-grid_2of2

> <i_i_glide_lignum>
679

> <i_i_glide_rotatable_bonds>
4

> <r_i_docking_score>
-8.30127929140222

> <r_i_glide_ligand_efficiency>
-0.345886637141759

> <r_i_glide_ligand_efficiency_sa>
-0.997709706528628

> <r_i_glide_ligand_efficiency_ln>
-1.9868770553181

> <r_i_glide_gscore>
-8.30127929140222

> <r_i_glide_lipo>
-2.90872748751092

> <r_i_glide_hbond>
-0.737562986240299

> <r_i_glide_metal>
0

> <r_i_glide_rewards>
-2.17675119092897

> <r_i_glide_evdw>
-32.8246726989746

> <r_i_glide_ecoul>
-7.23250722885132

> <r_i_glide_erotb>
0.24787209255439

> <r_i_glide_esite>
0

> <r_i_glide_emodel>
-59.7312936804278

> <r_i_glide_energy>
-40.0571799278259

> <r_i_glide_einternal>
0.566195726394653

> <i_i_glide_confnum>
3

> <i_i_glide_posenum>
331

> <r_i_glide_eff_state_penalty>
0

> <s_user_duplicate_titles>
CHEMBL258_lig600,CHEMBL258_lig600,331628

> <s_m_subgroup_title>
dock_pv

> <s_m_subgroupid>
dock_pv

> <b_m_subgroup_collapsed>
1

$$$$
CHEMBL258_lig1052
                    3D
 Schrodinger Suite 2021-1.
 31 33  0  0  1  0            999 V2000
   22.7776   36.9209   84.6136 O   0  0  0  0  0  0
   22.3311   40.3431   85.8362 O   0  0  0  0  0  0
   24.9598   40.3909   85.0314 O   0  0  0  0  0  0
   26.1612   34.8331   82.0870 O   0  0  0  0  0  0
   17.5115   39.0210   84.4870 O   0  0  0  0  0  0
   16.8406   37.2310   86.5935 O   0  0  0  0  0  0
   22.2393   38.0341   85.1736 C   0  0  0  0  0  0
   24.8397   38.1536   84.2030 C   0  0  0  0  0  0
   24.0475   37.0008   84.0872 C   0  0  0  0  0  0
   22.8917   39.2121   85.3110 C   0  0  0  0  0  0
   24.2934   39.3640   84.8882 C   0  0  0  0  0  0
   20.8240   37.8035   85.5025 C   0  0  0  0  0  0
   24.4963   35.8863   83.3926 C   0  0  0  0  0  0
   26.1198   38.1490   83.6319 C   0  0  0  0  0  0
   19.8158   38.5195   84.8475 C   0  0  0  0  0  0
   25.7501   35.9112   82.8050 C   0  0  0  0  0  0
   20.4726   36.8596   86.4718 C   0  0  0  0  0  0
   18.4743   38.3217   85.1742 C   0  0  0  0  0  0
   26.5676   37.0312   82.9275 C   0  0  0  0  0  0
   18.1382   37.4205   86.1954 C   0  0  0  0  0  0
   19.1362   36.6753   86.8233 C   0  0  0  0  0  0
   22.9708   41.0645   85.8167 H   0  0  0  0  0  0
   26.9549   35.0210   81.5732 H   0  0  0  0  0  0
   16.8415   39.3814   85.0884 H   0  0  0  0  0  0
   16.2961   38.0192   86.4867 H   0  0  0  0  0  0
   23.8600   35.0215   83.2865 H   0  0  0  0  0  0
   26.7615   39.0177   83.7051 H   0  0  0  0  0  0
   20.0775   39.2385   84.0851 H   0  0  0  0  0  0
   21.2393   36.2804   86.9665 H   0  0  0  0  0  0
   27.5491   37.0418   82.4773 H   0  0  0  0  0  0
   18.8742   35.9582   87.5880 H   0  0  0  0  0  0
  1  7  1  0  0  0
  1  9  1  0  0  0
  2 10  1  0  0  0
  2 22  1  0  0  0
  3 11  2  0  0  0
  4 16  1  0  0  0
  4 23  1  0  0  0
  5 18  1  0  0  0
  5 24  1  0  0  0
  6 20  1  0  0  0
  6 25  1  0  0  0
  7 10  2  0  0  0
  7 12  1  0  0  0
  8  9  1  0  0  0
  8 11  1  0  0  0
  8 14  2  0  0  0
  9 13  2  0  0  0
 10 11  1  0  0  0
 12 15  1  0  0  0
 12 17  2  0  0  0
 13 16  1  0  0  0
 13 26  1  0  0  0
 14 19  1  0  0  0
 14 27  1  0  0  0
 15 18  2  0  0  0
 15 28  1  0  0  0
 16 19  2  0  0  0
 17 21  1  0  0  0
 17 29  1  0  0  0
 18 20  1  0  0  0
 19 30  1  0  0  0
 20 21  2  0  0  0
 21 31  1  0  0  0
M  END
> <s_m_entry_id>
4539

> <s_m_entry_name>
dock_pv.27

> <s_m_Source_Path>
/home/csk/Desktop/cluster/DUD-E-result/lck

> <s_m_Source_File>
dock_pv.maegz

> <i_m_Source_File_Index>
27

> <chembl_id>
CHEMBL31574

> <chembl_pref_name>
FISETIN

> <i_lp_mmshare_version>
53161

> <i_f3d_flags>
0

> <r_lp_tautomer_probability>
0.999999999999776

> <s_lp_Force_Field>
OPLS_2005

> <r_lp_Energy>
16.156084

> <b_lp_Chiralities_Consistent>
1

> <s_lp_Variant>
CHEMBL258_lig1052-1

> <s_i_glide_gridfile>
glide-grid_2of2

> <i_i_glide_lignum>
1140

> <i_i_glide_rotatable_bonds>
5

> <r_i_docking_score>
-8.27497469986653

> <r_i_glide_ligand_efficiency>
-0.394046414279358

> <r_i_glide_ligand_efficiency_sa>
-1.08714417786833

> <r_i_glide_ligand_efficiency_ln>
-2.04597077338118

> <r_i_glide_gscore>
-8.27497469986653

> <r_i_glide_lipo>
-2.9988102093609

> <r_i_glide_hbond>
-0.554549013613067

> <r_i_glide_metal>
0

> <r_i_glide_rewards>
-2.04914643939394

> <r_i_glide_evdw>
-31.7821426391602

> <r_i_glide_ecoul>
-8.69980907440186

> <r_i_glide_erotb>
0.22160945561966

> <r_i_glide_esite>
0

> <r_i_glide_emodel>
-58.1995961715772

> <r_i_glide_energy>
-40.481951713562

> <r_i_glide_einternal>
8.18666648864746

> <i_i_glide_confnum>
2

> <i_i_glide_posenum>
313

> <r_i_glide_eff_state_penalty>
0

> <s_user_duplicate_titles>
CHEMBL258_lig1052

> <s_m_subgroup_title>
dock_pv

> <s_m_subgroupid>
dock_pv

> <b_m_subgroup_collapsed>
1

$$$$
CHEMBL258_lig642
                    3D
 Schrodinger Suite 2021-1.
 56 59  0  0  1  0            999 V2000
   27.0454   38.1587   84.3072 C   0  0  0  0  0  0
   27.5488   37.3282   83.2911 C   0  0  0  0  0  0
   26.6938   36.4082   82.6643 C   0  0  0  0  0  0
   25.7219   38.0323   84.7284 C   0  0  0  0  0  0
   24.8369   37.1373   84.0868 C   0  0  0  0  0  0
   25.3393   36.3001   83.0465 C   0  0  0  0  0  0
   24.5347   35.4210   82.3842 N   0  0  0  0  0  0
   23.2247   35.4210   82.7366 C   0  0  0  0  0  0
   22.6383   36.1740   83.6905 N   0  0  0  0  0  0
   23.4433   37.0216   84.3728 C   0  0  0  0  0  0
   22.8353   37.8477   85.3321 N   0  0  0  0  0  0
   21.4703   37.9495   85.6397 C   0  0  0  0  0  0
   20.8118   39.1466   85.3502 C   0  0  0  0  0  0
   19.4614   39.2987   85.6576 C   0  0  0  0  0  0
   18.7657   38.2582   86.2681 C   0  0  0  0  0  0
   19.4197   37.0679   86.5854 C   0  0  0  0  0  0
   20.7757   36.9095   86.2778 C   0  0  0  0  0  0
   28.8895   37.4306   82.9699 O   0  0  0  0  0  0
   27.9339   39.1862   85.0097 C   0  0  0  0  0  0
   27.7257   40.5665   84.5168 N   0  0  2  0  0  0
   29.5322   36.3351   82.3198 C   0  0  0  0  0  0
   18.5491   35.8209   87.4045 Cl  0  0  0  0  0  0
   21.4140   35.7611   86.6150 F   0  0  0  0  0  0
   28.9151   41.4286   84.7569 C   0  0  2  0  0  0
   28.6476   42.9489   84.5227 C   0  0  0  0  0  0
   27.4483   43.4260   85.2202 N   0  0  2  0  0  0
   26.3073   42.6318   84.7659 C   0  0  0  0  0  0
   26.5349   41.1592   85.1569 C   0  0  0  0  0  0
   27.2296   44.8381   84.9129 C   0  0  0  0  0  0
   30.0454   41.0091   83.7730 C   0  0  0  0  0  0
   31.2093   40.6219   84.2955 N   0  0  0  0  0  0
   29.8795   41.0210   82.5535 O   0  0  0  0  0  0
   27.0458   35.7718   81.8677 H   0  0  0  0  0  0
   25.3564   38.6421   85.5392 H   0  0  0  0  0  0
   22.5608   34.7672   82.2015 H   0  0  0  0  0  0
   23.4172   38.5867   85.6888 H   0  0  0  0  0  0
   21.3427   39.9631   84.8778 H   0  0  0  0  0  0
   18.9519   40.2206   85.4305 H   0  0  0  0  0  0
   17.7209   38.3873   86.5122 H   0  0  0  0  0  0
   28.9700   38.8733   84.8826 H   0  0  0  0  0  0
   27.7673   39.1344   86.0869 H   0  0  0  0  0  0
   30.6075   36.5145   82.2969 H   0  0  0  0  0  0
   29.3656   35.4000   82.8572 H   0  0  0  0  0  0
   29.1993   36.2174   81.2876 H   0  0  0  0  0  0
   29.2890   41.2822   85.7722 H   0  0  0  0  0  0
   29.5048   43.5211   84.8854 H   0  0  0  0  0  0
   28.5548   43.1742   83.4600 H   0  0  0  0  0  0
   25.3971   42.9951   85.2468 H   0  0  0  0  0  0
   26.1497   42.7253   83.6912 H   0  0  0  0  0  0
   26.5922   41.0705   86.2432 H   0  0  0  0  0  0
   25.6463   40.6214   84.8386 H   0  0  0  0  0  0
   26.3379   45.2103   85.4191 H   0  0  0  0  0  0
   28.0738   45.4406   85.2527 H   0  0  0  0  0  0
   27.1040   45.0078   83.8415 H   0  0  0  0  0  0
   31.9521   40.3536   83.6702 H   0  0  0  0  0  0
   31.3489   40.5880   85.2940 H   0  0  0  0  0  0
  1  2  2  0  0  0
  1 19  1  0  0  0
  1  4  1  0  0  0
  2 18  1  0  0  0
  2  3  1  0  0  0
  3  6  2  0  0  0
  3 33  1  0  0  0
  4  5  2  0  0  0
  4 34  1  0  0  0
  5 10  1  0  0  0
  5  6  1  0  0  0
  6  7  1  0  0  0
  7  8  2  0  0  0
  8  9  1  0  0  0
  8 35  1  0  0  0
  9 10  2  0  0  0
 10 11  1  0  0  0
 11 12  1  0  0  0
 11 36  1  0  0  0
 12 17  2  0  0  0
 12 13  1  0  0  0
 13 14  2  0  0  0
 13 37  1  0  0  0
 14 15  1  0  0  0
 14 38  1  0  0  0
 15 16  2  0  0  0
 15 39  1  0  0  0
 16 17  1  0  0  0
 16 22  1  0  0  0
 17 23  1  0  0  0
 18 21  1  0  0  0
 19 20  1  0  0  0
 19 40  1  0  0  0
 19 41  1  0  0  0
 20 24  1  0  0  0
 20 28  1  0  0  0
 21 42  1  0  0  0
 21 43  1  0  0  0
 21 44  1  0  0  0
 24 25  1  0  0  0
 24 30  1  0  0  0
 24 45  1  0  0  0
 25 26  1  0  0  0
 25 46  1  0  0  0
 25 47  1  0  0  0
 26 27  1  0  0  0
 26 29  1  0  0  0
 27 28  1  0  0  0
 27 48  1  0  0  0
 27 49  1  0  0  0
 28 50  1  0  0  0
 28 51  1  0  0  0
 29 52  1  0  0  0
 29 53  1  0  0  0
 29 54  1  0  0  0
 30 31  1  0  0  0
 30 32  2  0  0  0
 31 55  1  0  0  0
 31 56  1  0  0  0
M  END
> <s_m_entry_id>
4540

> <s_m_entry_name>
dock_pv.28

> <s_m_Source_Path>
/home/csk/Desktop/cluster/DUD-E-result/lck

> <s_m_Source_File>
dock_pv.maegz

> <i_m_Source_File_Index>
28

> <chembl_id>
CHEMBL204420

> <chembl_pref_name>
None

> <i_lp_mmshare_version>
53161

> <i_f3d_flags>
0

> <r_lp_tautomer_probability>
0.999978000241998

> <s_lp_Force_Field>
OPLS_2005

> <r_lp_Energy>
44.422137

> <b_lp_Chiralities_Consistent>
1

> <s_lp_Variant>
CHEMBL258_lig642-1

> <s_i_glide_gridfile>
glide-grid_2of2

> <i_i_glide_lignum>
724

> <i_i_glide_rotatable_bonds>
6

> <r_i_docking_score>
-8.26538949707824

> <r_i_glide_ligand_efficiency>
-0.258293421783695

> <r_i_glide_ligand_efficiency_sa>
-0.82003049796447

> <r_i_glide_ligand_efficiency_ln>
-1.85084601440412

> <r_i_glide_gscore>
-8.26538949707824

> <r_i_glide_lipo>
-3.04089152726013

> <r_i_glide_hbond>
-0.32

> <r_i_glide_metal>
0

> <r_i_glide_rewards>
-1.69651192263981

> <r_i_glide_evdw>
-42.2037353515625

> <r_i_glide_ecoul>
-9.47731971740723

> <r_i_glide_erotb>
0.382072891684836

> <r_i_glide_esite>
-0.0582742136739211

> <r_i_glide_emodel>
-73.9341919687786

> <r_i_glide_energy>
-51.6810550689697

> <r_i_glide_einternal>
6.7658166885376

> <i_i_glide_confnum>
22

> <i_i_glide_posenum>
30

> <r_i_glide_eff_state_penalty>
0

> <s_user_duplicate_titles>
CHEMBL258_lig642

> <s_m_subgroup_title>
dock_pv

> <s_m_subgroupid>
dock_pv

> <b_m_subgroup_collapsed>
1

$$$$
CHEMBL258_lig151
                    3D
 Schrodinger Suite 2021-1.
 78 81  0  0  1  0            999 V2000
   20.4895   38.7159   86.8243 N   0  0  0  0  0  0
   21.0414   39.7249   87.5620 C   0  0  0  0  0  0
   19.4206   38.9706   85.9105 N   0  0  0  0  0  0
   20.7470   37.2592   87.0948 C   0  0  2  0  0  0
   29.6095   42.9784   85.6932 P   0  0  0  0  0  0
   19.6548   39.3564   84.6335 C   0  0  0  0  0  0
   22.6612   42.4467   88.1166 C   0  0  0  0  0  0
   20.8423   41.1330   86.9317 C   0  0  1  0  0  0
   21.6998   36.6013   86.0727 C   0  0  0  0  0  0
   21.3745   42.2213   87.7790 N   0  0  0  0  0  0
   22.9669   43.7850   88.8313 C   0  0  1  0  0  0
   23.9200   43.5796   89.9287 N   0  0  0  0  0  0
   21.5590   36.8551   84.7637 N   0  0  0  0  0  0
   23.6185   43.0208   91.1119 C   0  0  0  0  0  0
   21.7497   39.5340   88.5485 O   0  0  0  0  0  0
   28.1479   43.3075   85.0462 O   0  0  0  0  0  0
   29.5974   42.2596   86.9946 O   0  0  0  0  0  0
   23.5919   41.6894   87.8280 O   0  0  0  0  0  0
   20.8530   40.3050   84.4113 C   0  0  0  0  0  0
   18.9410   39.0216   83.6872 O   0  0  0  0  0  0
   23.4392   44.8841   87.8281 C   0  0  0  0  0  0
   21.4383   41.2204   85.5126 C   0  0  0  0  0  0
   22.5496   35.8213   86.4870 O   0  0  0  0  0  0
   22.4741   42.7136   91.4457 O   0  0  0  0  0  0
   30.3774   42.2208   84.4873 O   0  0  0  0  0  0
   30.3483   44.4200   85.6869 O   0  0  0  0  0  0
   18.1499   38.3479   86.3282 C   0  0  0  0  0  0
   27.0469   43.7761   85.7206 C   0  0  0  0  0  0
   24.7212   44.5445   87.0657 C   0  0  0  0  0  0
   22.3813   36.2649   83.7046 C   0  0  0  0  0  0
   19.4289   36.4150   87.1887 C   0  0  0  0  0  0
   23.8744   36.6125   83.6870 C   0  0  0  0  0  0
   26.5766   37.2558   83.4706 C   0  0  0  0  0  0
   24.6430   44.0229   85.7715 C   0  0  0  0  0  0
   25.9691   44.7441   87.6601 C   0  0  0  0  0  0
   27.1288   44.3619   86.9897 C   0  0  0  0  0  0
   25.8033   43.6339   85.1062 C   0  0  0  0  0  0
   26.0782   36.1406   82.8015 C   0  0  0  0  0  0
   25.7458   38.0363   84.2680 C   0  0  0  0  0  0
   24.7282   35.8199   82.9150 C   0  0  0  0  0  0
   24.3952   37.7142   84.3822 C   0  0  0  0  0  0
   27.8979   37.5838   83.3460 O   0  0  0  0  0  0
   18.3435   36.8446   86.2258 C   0  0  0  0  0  0
   24.7801   42.7707   92.0685 C   0  0  0  0  0  0
   21.3425   37.1690   88.0081 H   0  0  0  0  0  0
   19.7691   41.3355   86.8794 H   0  0  0  0  0  0
   20.7133   42.9621   87.9851 H   0  0  0  0  0  0
   22.0359   44.1629   89.2639 H   0  0  0  0  0  0
   24.8839   43.7704   89.7018 H   0  0  0  0  0  0
   20.7696   37.4068   84.4652 H   0  0  0  0  0  0
   20.4877   41.0226   83.6869 H   0  0  0  0  0  0
   21.6477   39.7389   83.9220 H   0  0  0  0  0  0
   23.5875   45.8275   88.3561 H   0  0  0  0  0  0
   22.6445   45.0893   87.1064 H   0  0  0  0  0  0
   21.3520   42.2574   85.1860 H   0  0  0  0  0  0
   22.5129   41.0359   85.5596 H   0  0  0  0  0  0
   30.5504   42.8260   83.7207 H   0  0  0  0  0  0
   30.5463   44.7412   84.7764 H   0  0  0  0  0  0
   17.8760   38.6706   87.3334 H   0  0  0  0  0  0
   17.3344   38.6211   85.6634 H   0  0  0  0  0  0
   22.2541   35.1802   83.7209 H   0  0  0  0  0  0
   21.9647   36.5804   82.7499 H   0  0  0  0  0  0
   18.9515   36.5229   88.1563 H   0  0  0  0  0  0
   19.6201   35.3458   87.0786 H   0  0  0  0  0  0
   23.6811   43.8933   85.2956 H   0  0  0  0  0  0
   26.0460   45.1783   88.6455 H   0  0  0  0  0  0
   28.0832   44.5040   87.4731 H   0  0  0  0  0  0
   25.7340   43.2014   84.1186 H   0  0  0  0  0  0
   26.7283   35.5315   82.1868 H   0  0  0  0  0  0
   26.1427   38.8966   84.7852 H   0  0  0  0  0  0
   24.3378   34.9691   82.3755 H   0  0  0  0  0  0
   23.7553   38.3446   84.9834 H   0  0  0  0  0  0
   28.3891   36.9390   82.8319 H   0  0  0  0  0  0
   17.4256   36.3091   86.4867 H   0  0  0  0  0  0
   18.5873   36.6197   85.1888 H   0  0  0  0  0  0
   25.7451   42.8640   91.5684 H   0  0  0  0  0  0
   24.7460   43.4881   92.8876 H   0  0  0  0  0  0
   24.7132   41.7643   92.4885 H   0  0  0  0  0  0
  1  2  1  0  0  0
  1  3  1  0  0  0
  1  4  1  0  0  0
  2  8  1  0  0  0
  2 15  2  0  0  0
  3  6  1  0  0  0
  3 27  1  0  0  0
  4  9  1  0  0  0
  4 31  1  0  0  0
  4 45  1  0  0  0
  5 16  1  0  0  0
  5 17  2  0  0  0
  5 25  1  0  0  0
  5 26  1  0  0  0
  6 19  1  0  0  0
  6 20  2  0  0  0
  7 10  1  0  0  0
  7 11  1  0  0  0
  7 18  2  0  0  0
  8 10  1  0  0  0
  8 22  1  0  0  0
  8 46  1  0  0  0
  9 13  1  0  0  0
  9 23  2  0  0  0
 10 47  1  0  0  0
 11 12  1  0  0  0
 11 21  1  0  0  0
 11 48  1  0  0  0
 12 14  1  0  0  0
 12 49  1  0  0  0
 13 30  1  0  0  0
 13 50  1  0  0  0
 14 24  2  0  0  0
 14 44  1  0  0  0
 16 28  1  0  0  0
 19 22  1  0  0  0
 19 51  1  0  0  0
 19 52  1  0  0  0
 21 29  1  0  0  0
 21 53  1  0  0  0
 21 54  1  0  0  0
 22 55  1  0  0  0
 22 56  1  0  0  0
 25 57  1  0  0  0
 26 58  1  0  0  0
 27 43  1  0  0  0
 27 59  1  0  0  0
 27 60  1  0  0  0
 28 36  2  0  0  0
 28 37  1  0  0  0
 29 34  1  0  0  0
 29 35  2  0  0  0
 30 32  1  0  0  0
 30 61  1  0  0  0
 30 62  1  0  0  0
 31 43  1  0  0  0
 31 63  1  0  0  0
 31 64  1  0  0  0
 32 40  2  0  0  0
 32 41  1  0  0  0
 33 39  1  0  0  0
 33 42  1  0  0  0
 33 38  2  0  0  0
 34 37  2  0  0  0
 34 65  1  0  0  0
 35 36  1  0  0  0
 35 66  1  0  0  0
 36 67  1  0  0  0
 37 68  1  0  0  0
 38 40  1  0  0  0
 38 69  1  0  0  0
 39 41  2  0  0  0
 39 70  1  0  0  0
 40 71  1  0  0  0
 41 72  1  0  0  0
 42 73  1  0  0  0
 43 74  1  0  0  0
 43 75  1  0  0  0
 44 76  1  0  0  0
 44 77  1  0  0  0
 44 78  1  0  0  0
M  END
> <s_m_entry_id>
4541

> <s_m_entry_name>
dock_pv.29

> <s_m_Source_Path>
/home/csk/Desktop/cluster/DUD-E-result/lck

> <s_m_Source_File>
dock_pv.maegz

> <i_m_Source_File_Index>
29

> <chembl_id>
CHEMBL29723

> <chembl_pref_name>
None

> <i_lp_mmshare_version>
53161

> <i_f3d_flags>
0

> <r_lp_tautomer_probability>
0.999999999997365

> <s_lp_Force_Field>
OPLS_2005

> <r_lp_Energy>
13.600508

> <b_lp_Chiralities_Consistent>
1

> <s_lp_Variant>
CHEMBL258_lig151-1

> <s_i_glide_gridfile>
glide-grid_2of2

> <i_i_glide_lignum>
175

> <i_i_glide_rotatable_bonds>
16

> <r_i_docking_score>
-8.25044986346337

> <r_i_glide_ligand_efficiency>
-0.187510224169622

> <r_i_glide_ligand_efficiency_sa>
-0.661976406918827

> <r_i_glide_ligand_efficiency_ln>
-1.72452400401742

> <r_i_glide_gscore>
-8.25044986346337

> <r_i_glide_lipo>
-2.57045022105361

> <r_i_glide_hbond>
-0.305735459111779

> <r_i_glide_metal>
0

> <r_i_glide_rewards>
-1.13711276305312

> <r_i_glide_evdw>
-41.6844863891602

> <r_i_glide_ecoul>
-16.6633644104004

> <r_i_glide_erotb>
0.496777125225045

> <r_i_glide_esite>
-0.150199564451841

> <r_i_glide_emodel>
-86.185192841857

> <r_i_glide_energy>
-58.3478507995605

> <r_i_glide_einternal>
10.7442646026611

> <i_i_glide_confnum>
3

> <i_i_glide_posenum>
40

> <r_i_glide_eff_state_penalty>
0

> <s_user_duplicate_titles>
CHEMBL258_lig151

> <s_m_subgroup_title>
dock_pv

> <s_m_subgroupid>
dock_pv

> <b_m_subgroup_collapsed>
1

$$$$
CHEMBL258_lig77
                    3D
 Schrodinger Suite 2021-1.
 62 67  0  0  1  0            999 V2000
   30.5450   40.0729   84.0526 C   0  0  0  0  0  0
   29.4620   39.1856   83.8871 C   0  0  0  0  0  0
   28.1249   39.6399   84.1283 C   0  0  0  0  0  0
   27.9039   41.0006   84.5582 C   0  0  0  0  0  0
   29.0254   41.8344   84.6793 C   0  0  0  0  0  0
   30.3151   41.3852   84.4344 C   0  0  0  0  0  0
   27.0642   38.7994   83.9128 N   0  0  0  0  0  0
   27.2836   37.5223   83.5013 C   0  0  0  0  0  0
   28.5658   37.0199   83.2851 C   0  0  0  0  0  0
   29.6637   37.8450   83.4750 C   0  0  0  0  0  0
   26.6286   41.4878   84.8723 N   0  0  0  0  0  0
   25.9271   40.8730   86.0132 C   0  0  0  0  0  0
   24.3941   41.0363   85.8960 C   0  0  0  0  0  0
   23.9747   42.5114   85.8351 C   0  0  0  0  0  0
   24.8334   43.2425   84.7949 C   0  0  0  0  0  0
   26.3432   42.9350   84.9228 C   0  0  0  0  0  0
   22.5498   42.7044   85.6521 N   0  0  0  0  0  0
   26.1457   36.7075   83.2696 N   0  0  0  0  0  0
   24.8698   36.8150   83.8093 C   0  0  0  0  0  0
   24.0992   35.8518   83.1084 C   0  0  0  0  0  0
   24.8796   35.1143   82.2631 N   0  0  0  0  0  0
   26.0641   35.6522   82.3786 C   0  0  0  0  0  0
   24.2922   37.6542   84.7676 C   0  0  0  0  0  0
   22.9068   37.5876   84.9255 C   0  0  0  0  0  0
   22.1178   36.7017   84.1855 C   0  0  0  0  0  0
   22.7099   35.8183   83.2865 C   0  0  0  0  0  0
   20.7456   36.7363   84.2043 O   0  0  0  0  0  0
   20.0546   36.7911   85.4514 C   0  0  0  0  0  0
   18.7651   37.6374   85.3057 C   0  0  0  0  0  0
   19.0464   39.1158   85.0116 C   0  0  0  0  0  0
   18.3679   39.0189   83.6870 O   0  0  0  0  0  0
   18.0646   37.5813   83.9326 C   0  0  0  0  0  0
   17.7975   37.4182   86.4906 C   0  0  0  0  0  0
   31.5532   39.7313   83.8641 H   0  0  0  0  0  0
   28.9182   42.8647   84.9843 H   0  0  0  0  0  0
   31.1436   42.0720   84.5391 H   0  0  0  0  0  0
   28.7273   36.0005   82.9673 H   0  0  0  0  0  0
   30.6650   37.4800   83.2953 H   0  0  0  0  0  0
   26.1749   39.8176   86.1131 H   0  0  0  0  0  0
   26.2864   41.3420   86.9327 H   0  0  0  0  0  0
   24.0649   40.5281   84.9883 H   0  0  0  0  0  0
   23.9074   40.5392   86.7361 H   0  0  0  0  0  0
   24.2520   42.9379   86.7993 H   0  0  0  0  0  0
   24.6815   44.3187   84.8871 H   0  0  0  0  0  0
   24.5292   42.9684   83.7833 H   0  0  0  0  0  0
   26.7539   43.3694   85.8362 H   0  0  0  0  0  0
   26.8467   43.4227   84.0872 H   0  0  0  0  0  0
   22.0360   42.4308   86.4779 H   0  0  0  0  0  0
   22.3276   43.6826   85.4983 H   0  0  0  0  0  0
   26.9292   35.3614   81.7974 H   0  0  0  0  0  0
   24.8780   38.3644   85.3217 H   0  0  0  0  0  0
   22.4348   38.2884   85.5971 H   0  0  0  0  0  0
   22.0999   35.1408   82.7079 H   0  0  0  0  0  0
   20.6576   37.1742   86.2751 H   0  0  0  0  0  0
   19.7969   35.7688   85.7199 H   0  0  0  0  0  0
   20.0896   39.3924   84.8500 H   0  0  0  0  0  0
   18.5081   39.8220   85.6410 H   0  0  0  0  0  0
   16.9803   37.4623   83.9500 H   0  0  0  0  0  0
   18.5400   36.9809   83.1560 H   0  0  0  0  0  0
   18.1588   37.9049   87.3941 H   0  0  0  0  0  0
   16.8056   37.8214   86.2899 H   0  0  0  0  0  0
   17.6608   36.3594   86.7155 H   0  0  0  0  0  0
  1  2  2  0  0  0
  1  6  1  0  0  0
  1 34  1  0  0  0
  2 10  1  0  0  0
  2  3  1  0  0  0
  3  4  2  0  0  0
  3  7  1  0  0  0
  4  5  1  0  0  0
  4 11  1  0  0  0
  5  6  2  0  0  0
  5 35  1  0  0  0
  6 36  1  0  0  0
  7  8  2  0  0  0
  8  9  1  0  0  0
  8 18  1  0  0  0
  9 10  2  0  0  0
  9 37  1  0  0  0
 10 38  1  0  0  0
 11 12  1  0  0  0
 11 16  1  0  0  0
 12 13  1  0  0  0
 12 39  1  0  0  0
 12 40  1  0  0  0
 13 14  1  0  0  0
 13 41  1  0  0  0
 13 42  1  0  0  0
 14 15  1  0  0  0
 14 17  1  0  0  0
 14 43  1  0  0  0
 15 16  1  0  0  0
 15 44  1  0  0  0
 15 45  1  0  0  0
 16 46  1  0  0  0
 16 47  1  0  0  0
 17 48  1  0  0  0
 17 49  1  0  0  0
 18 19  1  0  0  0
 18 22  1  0  0  0
 19 23  1  0  0  0
 19 20  2  0  0  0
 20 21  1  0  0  0
 20 26  1  0  0  0
 21 22  2  0  0  0
 22 50  1  0  0  0
 23 24  2  0  0  0
 23 51  1  0  0  0
 24 25  1  0  0  0
 24 52  1  0  0  0
 25 26  2  0  0  0
 25 27  1  0  0  0
 26 53  1  0  0  0
 27 28  1  0  0  0
 28 29  1  0  0  0
 28 54  1  0  0  0
 28 55  1  0  0  0
 29 30  1  0  0  0
 29 32  1  0  0  0
 29 33  1  0  0  0
 30 31  1  0  0  0
 30 56  1  0  0  0
 30 57  1  0  0  0
 31 32  1  0  0  0
 32 58  1  0  0  0
 32 59  1  0  0  0
 33 60  1  0  0  0
 33 61  1  0  0  0
 33 62  1  0  0  0
M  END
> <s_m_entry_id>
4542

> <s_m_entry_name>
dock_pv.30

> <s_m_Source_Path>
/home/csk/Desktop/cluster/DUD-E-result/lck

> <s_m_Source_File>
dock_pv.maegz

> <i_m_Source_File_Index>
30

> <chembl_id>
CHEMBL2105728

> <chembl_pref_name>
CRENOLANIB

> <i_lp_mmshare_version>
53161

> <i_f3d_flags>
0

> <r_lp_tautomer_probability>
1

> <s_lp_Force_Field>
OPLS_2005

> <r_lp_Energy>
51.175687

> <b_lp_Chiralities_Consistent>
1

> <s_lp_Variant>
CHEMBL258_lig77-1

> <s_i_glide_gridfile>
glide-grid_2of2

> <i_i_glide_lignum>
84

> <i_i_glide_rotatable_bonds>
5

> <r_i_docking_score>
-8.24495659619322

> <r_i_glide_ligand_efficiency>
-0.249847169581613

> <r_i_glide_ligand_efficiency_sa>
-0.801393372751285

> <r_i_glide_ligand_efficiency_ln>
-1.83363565689284

> <r_i_glide_gscore>
-8.24495659619322

> <r_i_glide_lipo>
-2.70922594657671

> <r_i_glide_hbond>
-0.508004399308078

> <r_i_glide_metal>
0

> <r_i_glide_rewards>
-1.89579224951107

> <r_i_glide_evdw>
-46.5753326416016

> <r_i_glide_ecoul>
-8.74194812774658

> <r_i_glide_erotb>
0.508124850444701

> <r_i_glide_esite>
0

> <r_i_glide_emodel>
-75.9341249427664

> <r_i_glide_energy>
-55.3172807693481

> <r_i_glide_einternal>
8.96761608123779

> <i_i_glide_confnum>
159

> <i_i_glide_posenum>
397

> <r_i_glide_eff_state_penalty>
0

> <s_user_duplicate_titles>
CHEMBL258_lig77

> <s_m_subgroup_title>
dock_pv

> <s_m_subgroupid>
dock_pv

> <b_m_subgroup_collapsed>
1

$$$$
CHEMBL258_lig648
                    3D
 Schrodinger Suite 2021-1.
 51 54  0  0  1  0            999 V2000
   27.1971   38.0766   84.3067 C   0  0  0  0  0  0
   27.6698   37.2362   83.2870 C   0  0  0  0  0  0
   26.7798   36.3552   82.6541 C   0  0  0  0  0  0
   25.8643   38.0187   84.7177 C   0  0  0  0  0  0
   24.9504   37.1424   84.0868 C   0  0  0  0  0  0
   25.4239   36.2881   83.0447 C   0  0  0  0  0  0
   24.5984   35.4182   82.3994 N   0  0  0  0  0  0
   23.2979   35.4245   82.7800 C   0  0  0  0  0  0
   22.7326   36.2010   83.7274 N   0  0  0  0  0  0
   23.5593   37.0486   84.3888 C   0  0  0  0  0  0
   22.9758   37.8871   85.3540 N   0  0  0  0  0  0
   21.6217   38.0320   85.6911 C   0  0  0  0  0  0
   21.0373   39.2906   85.5314 C   0  0  0  0  0  0
   19.7038   39.4946   85.8816 C   0  0  0  0  0  0
   18.9498   38.4460   86.4034 C   0  0  0  0  0  0
   19.5311   37.1900   86.5883 C   0  0  0  0  0  0
   20.8730   36.9820   86.2484 C   0  0  0  0  0  0
   29.0141   37.2973   82.9618 O   0  0  0  0  0  0
   28.1345   39.0482   85.0188 C   0  0  0  0  0  0
   27.9338   40.4376   84.5781 N   0  0  2  0  0  0
   29.6097   36.2267   82.2307 C   0  0  0  0  0  0
   29.1121   41.2915   84.7706 C   0  0  2  0  0  0
   28.5690   42.7328   84.6871 C   0  0  0  0  0  0
   27.0969   42.6258   85.0863 C   0  0  0  0  0  0
   26.8506   41.1308   85.2702 C   0  0  0  0  0  0
   18.5899   35.9193   87.2881 Cl  0  0  0  0  0  0
   30.1970   41.0658   83.6833 C   0  0  0  0  0  0
   29.9100   41.0174   82.4874 O   0  0  0  0  0  0
   31.4650   40.9625   84.0794 N   0  0  0  0  0  0
   21.4520   35.7754   86.4805 F   0  0  0  0  0  0
   27.1080   35.7045   81.8562 H   0  0  0  0  0  0
   25.5248   38.6612   85.5158 H   0  0  0  0  0  0
   22.6412   34.7395   82.2720 H   0  0  0  0  0  0
   23.5784   38.6225   85.6856 H   0  0  0  0  0  0
   21.6115   40.1116   85.1269 H   0  0  0  0  0  0
   19.2590   40.4737   85.7564 H   0  0  0  0  0  0
   17.9137   38.6134   86.6721 H   0  0  0  0  0  0
   29.1644   38.7405   84.8368 H   0  0  0  0  0  0
   27.9969   38.9632   86.0984 H   0  0  0  0  0  0
   30.6920   36.3569   82.2291 H   0  0  0  0  0  0
   29.3971   35.2548   82.6793 H   0  0  0  0  0  0
   29.2807   36.2212   81.1916 H   0  0  0  0  0  0
   29.5654   41.1198   85.7511 H   0  0  0  0  0  0
   29.0977   43.3894   85.3761 H   0  0  0  0  0  0
   28.6367   43.1651   83.6873 H   0  0  0  0  0  0
   26.8957   43.1746   86.0071 H   0  0  0  0  0  0
   26.4509   43.0389   84.3098 H   0  0  0  0  0  0
   26.7883   40.8721   86.3297 H   0  0  0  0  0  0
   25.8918   40.8344   84.8375 H   0  0  0  0  0  0
   32.1764   40.8535   83.3727 H   0  0  0  0  0  0
   31.7248   41.0743   85.0474 H   0  0  0  0  0  0
  1  2  1  0  0  0
  1 19  1  0  0  0
  1  4  2  0  0  0
  2 18  1  0  0  0
  2  3  2  0  0  0
  3  6  1  0  0  0
  3 31  1  0  0  0
  4  5  1  0  0  0
  4 32  1  0  0  0
  5 10  2  0  0  0
  5  6  1  0  0  0
  6  7  2  0  0  0
  7  8  1  0  0  0
  8  9  2  0  0  0
  8 33  1  0  0  0
  9 10  1  0  0  0
 10 11  1  0  0  0
 11 12  1  0  0  0
 11 34  1  0  0  0
 12 17  2  0  0  0
 12 13  1  0  0  0
 13 14  2  0  0  0
 13 35  1  0  0  0
 14 15  1  0  0  0
 14 36  1  0  0  0
 15 16  2  0  0  0
 15 37  1  0  0  0
 16 17  1  0  0  0
 16 26  1  0  0  0
 17 30  1  0  0  0
 18 21  1  0  0  0
 19 20  1  0  0  0
 19 38  1  0  0  0
 19 39  1  0  0  0
 20 22  1  0  0  0
 20 25  1  0  0  0
 21 40  1  0  0  0
 21 41  1  0  0  0
 21 42  1  0  0  0
 22 23  1  0  0  0
 22 27  1  0  0  0
 22 43  1  0  0  0
 23 24  1  0  0  0
 23 44  1  0  0  0
 23 45  1  0  0  0
 24 25  1  0  0  0
 24 46  1  0  0  0
 24 47  1  0  0  0
 25 48  1  0  0  0
 25 49  1  0  0  0
 27 28  2  0  0  0
 27 29  1  0  0  0
 29 50  1  0  0  0
 29 51  1  0  0  0
M  END
> <s_m_entry_id>
4543

> <s_m_entry_name>
dock_pv.31

> <s_m_Source_Path>
/home/csk/Desktop/cluster/DUD-E-result/lck

> <s_m_Source_File>
dock_pv.maegz

> <i_m_Source_File_Index>
31

> <chembl_id>
CHEMBL208292

> <chembl_pref_name>
None

> <i_lp_mmshare_version>
53161

> <i_f3d_flags>
0

> <r_lp_tautomer_probability>
0.999978000241998

> <s_lp_Force_Field>
OPLS_2005

> <r_lp_Energy>
40.211882

> <b_lp_Chiralities_Consistent>
1

> <s_lp_Variant>
CHEMBL258_lig648-1

> <s_i_glide_gridfile>
glide-grid_2of2

> <i_i_glide_lignum>
731

> <i_i_glide_rotatable_bonds>
6

> <r_i_docking_score>
-8.22859556372526

> <r_i_glide_ligand_efficiency>
-0.274286518790842

> <r_i_glide_ligand_efficiency_sa>
-0.85227198616558

> <r_i_glide_ligand_efficiency_ln>
-1.86962656980807

> <r_i_glide_gscore>
-8.22859556372526

> <r_i_glide_lipo>
-2.9921473433498

> <r_i_glide_hbond>
-0.32

> <r_i_glide_metal>
0

> <r_i_glide_rewards>
-1.84430516670457

> <r_i_glide_evdw>
-40.2819595336914

> <r_i_glide_ecoul>
-9.37186622619629

> <r_i_glide_erotb>
0.430239960077135

> <r_i_glide_esite>
-0.0825051031340215

> <r_i_glide_emodel>
-71.8994102786798

> <r_i_glide_energy>
-49.6538257598877

> <r_i_glide_einternal>
5.18773365020752

> <i_i_glide_confnum>
7

> <i_i_glide_posenum>
346

> <r_i_glide_eff_state_penalty>
0

> <s_user_duplicate_titles>
CHEMBL258_lig648

> <s_m_subgroup_title>
dock_pv

> <s_m_subgroupid>
dock_pv

> <b_m_subgroup_collapsed>
1

$$$$
CHEMBL258_lig1054
                    3D
 Schrodinger Suite 2021-1.
 29 31  0  0  1  0            999 V2000
   28.7418   38.1298   83.7155 C   0  0  0  0  0  0
   28.9194   37.0210   82.8870 C   0  0  0  0  0  0
   27.8244   36.2308   82.5270 C   0  0  0  0  0  0
   27.4752   38.4343   84.2169 C   0  0  0  0  0  0
   26.3903   37.6231   83.8938 C   0  0  0  0  0  0
   26.5501   36.5165   83.0459 C   0  0  0  0  0  0
   25.3891   35.6298   82.7768 C   0  0  0  0  0  0
   24.1690   36.0401   83.4376 C   0  0  0  0  0  0
   24.1036   37.1319   84.2301 C   0  0  0  0  0  0
   25.1778   37.9332   84.4782 O   0  0  0  0  0  0
   22.8908   37.5679   84.9751 C   0  0  0  0  0  0
   22.7700   38.8839   85.4495 C   0  0  0  0  0  0
   21.6275   39.3005   86.1345 C   0  0  0  0  0  0
   20.5820   38.4056   86.3539 C   0  0  0  0  0  0
   20.6794   37.0981   85.8849 C   0  0  0  0  0  0
   21.8221   36.6848   85.2033 C   0  0  0  0  0  0
   25.4702   34.6210   82.0870 O   0  0  0  0  0  0
   19.6500   36.2210   86.0870 O   0  0  0  0  0  0
   30.1690   36.7220   82.4134 O   0  0  0  0  0  0
   29.5900   38.7448   83.9799 H   0  0  0  0  0  0
   27.9762   35.3758   81.8808 H   0  0  0  0  0  0
   27.3366   39.2795   84.8738 H   0  0  0  0  0  0
   23.2926   35.4364   83.2682 H   0  0  0  0  0  0
   23.5637   39.5983   85.2843 H   0  0  0  0  0  0
   21.5504   40.3189   86.4881 H   0  0  0  0  0  0
   19.6926   38.7277   86.8760 H   0  0  0  0  0  0
   21.8674   35.6625   84.8620 H   0  0  0  0  0  0
   19.7501   35.3840   85.6121 H   0  0  0  0  0  0
   30.2035   35.9356   81.8615 H   0  0  0  0  0  0
  1  2  1  0  0  0
  1  4  2  0  0  0
  1 20  1  0  0  0
  2  3  2  0  0  0
  2 19  1  0  0  0
  3  6  1  0  0  0
  3 21  1  0  0  0
  4  5  1  0  0  0
  4 22  1  0  0  0
  5  6  2  0  0  0
  5 10  1  0  0  0
  6  7  1  0  0  0
  7  8  1  0  0  0
  7 17  2  0  0  0
  8  9  2  0  0  0
  8 23  1  0  0  0
  9 10  1  0  0  0
  9 11  1  0  0  0
 11 12  2  0  0  0
 11 16  1  0  0  0
 12 13  1  0  0  0
 12 24  1  0  0  0
 13 14  2  0  0  0
 13 25  1  0  0  0
 14 15  1  0  0  0
 14 26  1  0  0  0
 15 16  2  0  0  0
 15 18  1  0  0  0
 16 27  1  0  0  0
 18 28  1  0  0  0
 19 29  1  0  0  0
M  END
> <s_m_entry_id>
4544

> <s_m_entry_name>
dock_pv.32

> <s_m_Source_Path>
/home/csk/Desktop/cluster/DUD-E-result/lck

> <s_m_Source_File>
dock_pv.maegz

> <i_m_Source_File_Index>
32

> <chembl_id>
CHEMBL491991

> <chembl_pref_name>
None

> <i_lp_mmshare_version>
53161

> <i_f3d_flags>
0

> <r_lp_tautomer_probability>
0.999999999997365

> <s_lp_Force_Field>
OPLS_2005

> <r_lp_Energy>
10.255155

> <b_lp_Chiralities_Consistent>
1

> <s_lp_Variant>
CHEMBL258_lig1054-1

> <s_i_glide_gridfile>
glide-grid_2of2

> <i_i_glide_lignum>
1142

> <i_i_glide_rotatable_bonds>
3

> <r_i_docking_score>
-8.19533820356076

> <r_i_glide_ligand_efficiency>
-0.431333589661093

> <r_i_glide_ligand_efficiency_sa>
-1.15097126067116

> <r_i_glide_ligand_efficiency_ln>
-2.07769425432781

> <r_i_glide_gscore>
-8.19533820356076

> <r_i_glide_lipo>
-2.69224969671063

> <r_i_glide_hbond>
-0.608

> <r_i_glide_metal>
0

> <r_i_glide_rewards>
-2.25065340909091

> <r_i_glide_evdw>
-27.0064716339111

> <r_i_glide_ecoul>
-10.4410066604614

> <r_i_glide_erotb>
0.272039483005549

> <r_i_glide_esite>
0

> <r_i_glide_emodel>
-55.6745845918826

> <r_i_glide_energy>
-37.4474782943726

> <r_i_glide_einternal>
0.32755845785141

> <i_i_glide_confnum>
1

> <i_i_glide_posenum>
287

> <r_i_glide_eff_state_penalty>
0

> <s_user_duplicate_titles>
CHEMBL258_lig1054

> <s_m_subgroup_title>
dock_pv

> <s_m_subgroupid>
dock_pv

> <b_m_subgroup_collapsed>
1

$$$$
CHEMBL258_lig642
                    3D
 Schrodinger Suite 2021-1.
 56 59  0  0  1  0            999 V2000
   27.0203   38.0505   84.7267 C   0  0  0  0  0  0
   27.7351   37.4234   83.6860 C   0  0  0  0  0  0
   27.0655   36.5563   82.8056 C   0  0  0  0  0  0
   25.6621   37.7724   84.8866 C   0  0  0  0  0  0
   24.9692   36.9069   84.0127 C   0  0  0  0  0  0
   25.6916   36.2762   82.9602 C   0  0  0  0  0  0
   25.0860   35.4212   82.0873 N   0  0  0  0  0  0
   23.7488   35.2594   82.2365 C   0  0  0  0  0  0
   22.9548   35.8208   83.1774 N   0  0  0  0  0  0
   23.5701   36.6280   84.0762 C   0  0  0  0  0  0
   22.7656   37.2240   85.0610 N   0  0  0  0  0  0
   21.3676   37.2452   85.1898 C   0  0  0  0  0  0
   20.5958   37.9603   84.2687 C   0  0  0  0  0  0
   19.2139   38.0513   84.4265 C   0  0  0  0  0  0
   18.5936   37.4211   85.5034 C   0  0  0  0  0  0
   19.3502   36.6700   86.4029 C   0  0  0  0  0  0
   20.7403   36.5850   86.2532 C   0  0  0  0  0  0
   29.0933   37.6667   83.5858 O   0  0  0  0  0  0
   27.7262   38.9850   85.7365 C   0  0  0  0  0  0
   27.2439   40.3809   85.8267 N   0  0  1  0  0  0
   29.9025   36.8396   82.7427 C   0  0  0  0  0  0
   18.5499   35.8380   87.6867 Cl  0  0  0  0  0  0
   21.4779   35.8702   87.1393 F   0  0  0  0  0  0
   27.1270   41.1047   84.5341 C   0  0  1  0  0  0
   26.4755   42.5283   84.6696 C   0  0  0  0  0  0
   25.2915   42.5293   85.5361 N   0  0  1  0  0  0
   25.6856   42.0331   86.8541 C   0  0  0  0  0  0
   26.0691   40.5514   86.6974 C   0  0  0  0  0  0
   24.7253   43.8699   85.6325 C   0  0  0  0  0  0
   28.5524   41.2634   83.9365 C   0  0  0  0  0  0
   29.4271   42.0387   84.5788 N   0  0  0  0  0  0
   28.8653   40.7047   82.8872 O   0  0  0  0  0  0
   27.5842   36.0744   81.9889 H   0  0  0  0  0  0
   25.1042   38.2122   85.6871 H   0  0  0  0  0  0
   23.2687   34.6211   81.5122 H   0  0  0  0  0  0
   23.2670   37.6666   85.8136 H   0  0  0  0  0  0
   21.0662   38.4658   83.4411 H   0  0  0  0  0  0
   18.6237   38.6130   83.7181 H   0  0  0  0  0  0
   17.5213   37.5003   85.6275 H   0  0  0  0  0  0
   28.7941   39.0211   85.5173 H   0  0  0  0  0  0
   27.6671   38.5361   86.7297 H   0  0  0  0  0  0
   30.9528   37.0319   82.9621 H   0  0  0  0  0  0
   29.7229   35.7729   82.8878 H   0  0  0  0  0  0
   29.7490   37.0445   81.6856 H   0  0  0  0  0  0
   26.5555   40.5196   83.8124 H   0  0  0  0  0  0
   27.1895   43.2589   85.0546 H   0  0  0  0  0  0
   26.1689   42.8882   83.6868 H   0  0  0  0  0  0
   26.5156   42.6080   87.2695 H   0  0  0  0  0  0
   24.8539   42.1224   87.5539 H   0  0  0  0  0  0
   26.2633   40.1153   87.6778 H   0  0  0  0  0  0
   25.1930   40.0594   86.2914 H   0  0  0  0  0  0
   23.8408   43.8697   86.2707 H   0  0  0  0  0  0
   25.4363   44.5879   86.0424 H   0  0  0  0  0  0
   24.4099   44.2217   84.6517 H   0  0  0  0  0  0
   30.3037   42.2745   84.1347 H   0  0  0  0  0  0
   29.1967   42.4222   85.4832 H   0  0  0  0  0  0
  1  2  2  0  0  0
  1 19  1  0  0  0
  1  4  1  0  0  0
  2 18  1  0  0  0
  2  3  1  0  0  0
  3  6  2  0  0  0
  3 33  1  0  0  0
  4  5  2  0  0  0
  4 34  1  0  0  0
  5 10  1  0  0  0
  5  6  1  0  0  0
  6  7  1  0  0  0
  7  8  2  0  0  0
  8  9  1  0  0  0
  8 35  1  0  0  0
  9 10  2  0  0  0
 10 11  1  0  0  0
 11 12  1  0  0  0
 11 36  1  0  0  0
 12 17  2  0  0  0
 12 13  1  0  0  0
 13 14  2  0  0  0
 13 37  1  0  0  0
 14 15  1  0  0  0
 14 38  1  0  0  0
 15 16  2  0  0  0
 15 39  1  0  0  0
 16 17  1  0  0  0
 16 22  1  0  0  0
 17 23  1  0  0  0
 18 21  1  0  0  0
 19 20  1  0  0  0
 19 40  1  0  0  0
 19 41  1  0  0  0
 20 24  1  0  0  0
 20 28  1  0  0  0
 21 42  1  0  0  0
 21 43  1  0  0  0
 21 44  1  0  0  0
 24 25  1  0  0  0
 24 30  1  0  0  0
 24 45  1  0  0  0
 25 26  1  0  0  0
 25 46  1  0  0  0
 25 47  1  0  0  0
 26 27  1  0  0  0
 26 29  1  0  0  0
 27 28  1  0  0  0
 27 48  1  0  0  0
 27 49  1  0  0  0
 28 50  1  0  0  0
 28 51  1  0  0  0
 29 52  1  0  0  0
 29 53  1  0  0  0
 29 54  1  0  0  0
 30 31  1  0  0  0
 30 32  2  0  0  0
 31 55  1  0  0  0
 31 56  1  0  0  0
M  END
> <s_m_entry_id>
4545

> <s_m_entry_name>
dock_pv.33

> <s_m_Source_Path>
/home/csk/Desktop/cluster/DUD-E-result/lck

> <s_m_Source_File>
dock_pv.maegz

> <i_m_Source_File_Index>
33

> <chembl_id>
CHEMBL204420

> <chembl_pref_name>
None

> <i_lp_mmshare_version>
53161

> <i_f3d_flags>
0

> <r_lp_tautomer_probability>
0.999978000241998

> <s_lp_Force_Field>
OPLS_2005

> <r_lp_Energy>
43.529392

> <b_lp_Chiralities_Consistent>
1

> <s_lp_Variant>
CHEMBL258_lig642-2

> <s_i_glide_gridfile>
glide-grid_2of2

> <i_i_glide_lignum>
725

> <i_i_glide_rotatable_bonds>
6

> <r_i_docking_score>
-8.18167874530658

> <r_i_glide_ligand_efficiency>
-0.255677460790831

> <r_i_glide_ligand_efficiency_sa>
-0.811725339510104

> <r_i_glide_ligand_efficiency_ln>
-1.83210089521353

> <r_i_glide_gscore>
-8.18167874530658

> <r_i_glide_lipo>
-3.27893555055034

> <r_i_glide_hbond>
-0.454734619904497

> <r_i_glide_metal>
0

> <r_i_glide_rewards>
-1.83724244518729

> <r_i_glide_evdw>
-40.7650718688965

> <r_i_glide_ecoul>
-5.82421731948853

> <r_i_glide_erotb>
0.382072891684836

> <r_i_glide_esite>
-0.0809528299811843

> <r_i_glide_emodel>
-64.117792449693

> <r_i_glide_energy>
-46.589289188385

> <r_i_glide_einternal>
9.95302295684814

> <i_i_glide_confnum>
5

> <i_i_glide_posenum>
333

> <r_i_glide_eff_state_penalty>
0

> <s_user_duplicate_titles>
CHEMBL258_lig642

> <s_m_subgroup_title>
dock_pv

> <s_m_subgroupid>
dock_pv

> <b_m_subgroup_collapsed>
1

$$$$
CHEMBL258_lig36
                    3D
 Schrodinger Suite 2021-1.
 69 73  0  0  1  0            999 V2000
   23.6845   38.2400   85.0075 C   0  0  0  0  0  0
   22.3599   38.3902   85.4490 C   0  0  0  0  0  0
   21.3831   37.5110   84.9661 C   0  0  0  0  0  0
   21.7175   36.4889   84.0776 C   0  0  0  0  0  0
   24.0296   37.1976   84.1365 C   0  0  0  0  0  0
   23.0456   36.3445   83.6887 C   0  0  0  0  0  0
   23.6118   35.4211   82.8511 N   0  0  0  0  0  0
   24.9407   35.5676   82.7429 C   0  0  0  0  0  0
   25.2920   36.7591   83.5149 C   0  0  0  0  0  0
   25.6691   34.8245   82.0870 O   0  0  0  0  0  0
   26.5564   37.2689   83.5578 C   0  0  0  0  0  0
   27.6425   36.7020   82.8871 N   0  0  0  0  0  0
   26.8404   38.4861   84.3441 C   0  0  0  0  0  0
   27.0110   39.7215   83.7081 C   0  0  0  0  0  0
   27.2961   40.8580   84.4618 C   0  0  0  0  0  0
   27.4099   40.7593   85.8465 C   0  0  0  0  0  0
   27.2392   39.5349   86.4875 C   0  0  0  0  0  0
   26.9500   38.4007   85.7352 C   0  0  0  0  0  0
   29.0406   36.8913   82.8869 C   0  0  0  0  0  0
   29.7505   37.8239   83.6567 C   0  0  0  0  0  0
   31.1255   37.9700   83.4962 C   0  0  0  0  0  0
   31.8116   37.1877   82.5664 C   0  0  0  0  0  0
   31.1229   36.2207   81.8347 C   0  0  0  0  0  0
   29.7501   36.0735   82.0014 C   0  0  0  0  0  0
   33.3118   37.3871   82.3527 C   0  0  0  0  0  0
   33.6558   38.4268   81.3718 N   0  0  0  0  0  0
   33.2779   39.7848   81.7904 C   0  0  0  0  0  0
   33.7883   40.8543   80.8071 C   0  0  0  0  0  0
   33.3495   40.5682   79.3654 C   0  0  0  0  0  0
   33.7604   39.1395   78.9767 C   0  0  0  0  0  0
   33.2638   38.0909   79.9952 C   0  0  0  0  0  0
   21.9479   39.3383   86.4017 N   0  0  0  0  0  0
   22.7776   40.8439   86.8696 S   0  0  0  0  0  0
   22.4249   42.0354   85.4432 C   0  0  0  0  0  0
   22.9508   41.5205   84.0958 C   0  0  0  0  0  0
   22.0549   41.3199   88.0528 O   0  0  0  0  0  0
   24.2164   40.5784   86.9382 O   0  0  0  0  0  0
   24.4432   38.9145   85.3521 H   0  0  0  0  0  0
   20.3561   37.6044   85.2885 H   0  0  0  0  0  0
   20.9484   35.8219   83.7184 H   0  0  0  0  0  0
   23.0998   34.6897   82.3793 H   0  0  0  0  0  0
   27.3841   35.9401   82.2696 H   0  0  0  0  0  0
   26.9296   39.7960   82.6338 H   0  0  0  0  0  0
   27.4340   41.8149   83.9818 H   0  0  0  0  0  0
   27.6295   41.6423   86.4292 H   0  0  0  0  0  0
   27.3267   39.4675   87.5622 H   0  0  0  0  0  0
   26.8189   37.4501   86.2317 H   0  0  0  0  0  0
   29.2846   38.4599   84.3864 H   0  0  0  0  0  0
   31.6542   38.7054   84.0855 H   0  0  0  0  0  0
   31.6423   35.5965   81.1209 H   0  0  0  0  0  0
   29.2394   35.3317   81.4022 H   0  0  0  0  0  0
   33.7591   36.4406   82.0438 H   0  0  0  0  0  0
   33.7775   37.6288   83.3095 H   0  0  0  0  0  0
   33.7019   39.9771   82.7769 H   0  0  0  0  0  0
   32.1946   39.8569   81.8975 H   0  0  0  0  0  0
   34.8727   40.9425   80.8835 H   0  0  0  0  0  0
   33.3967   41.8208   81.1162 H   0  0  0  0  0  0
   32.2664   40.6750   79.2859 H   0  0  0  0  0  0
   33.7809   41.2961   78.6783 H   0  0  0  0  0  0
   33.3512   38.9023   77.9939 H   0  0  0  0  0  0
   34.8420   39.0565   78.8615 H   0  0  0  0  0  0
   33.6825   37.1167   79.7387 H   0  0  0  0  0  0
   32.1798   37.9842   79.9371 H   0  0  0  0  0  0
   21.0180   39.2354   86.7756 H   0  0  0  0  0  0
   21.3501   42.1854   85.4164 H   0  0  0  0  0  0
   22.8819   42.9889   85.7080 H   0  0  0  0  0  0
   22.8217   42.2743   83.3179 H   0  0  0  0  0  0
   24.0141   41.2833   84.1513 H   0  0  0  0  0  0
   22.4213   40.6252   83.7709 H   0  0  0  0  0  0
  1  2  2  0  0  0
  1  5  1  0  0  0
  1 38  1  0  0  0
  2  3  1  0  0  0
  2 32  1  0  0  0
  3  4  2  0  0  0
  3 39  1  0  0  0
  4  6  1  0  0  0
  4 40  1  0  0  0
  5  9  1  0  0  0
  5  6  2  0  0  0
  6  7  1  0  0  0
  7  8  1  0  0  0
  7 41  1  0  0  0
  8  9  1  0  0  0
  8 10  2  0  0  0
  9 11  2  0  0  0
 11 13  1  0  0  0
 11 12  1  0  0  0
 12 19  1  0  0  0
 12 42  1  0  0  0
 13 18  1  0  0  0
 13 14  2  0  0  0
 14 15  1  0  0  0
 14 43  1  0  0  0
 15 16  2  0  0  0
 15 44  1  0  0  0
 16 17  1  0  0  0
 16 45  1  0  0  0
 17 18  2  0  0  0
 17 46  1  0  0  0
 18 47  1  0  0  0
 19 20  2  0  0  0
 19 24  1  0  0  0
 20 21  1  0  0  0
 20 48  1  0  0  0
 21 22  2  0  0  0
 21 49  1  0  0  0
 22 23  1  0  0  0
 22 25  1  0  0  0
 23 24  2  0  0  0
 23 50  1  0  0  0
 24 51  1  0  0  0
 25 26  1  0  0  0
 25 52  1  0  0  0
 25 53  1  0  0  0
 26 27  1  0  0  0
 26 31  1  0  0  0
 27 28  1  0  0  0
 27 54  1  0  0  0
 27 55  1  0  0  0
 28 29  1  0  0  0
 28 56  1  0  0  0
 28 57  1  0  0  0
 29 30  1  0  0  0
 29 58  1  0  0  0
 29 59  1  0  0  0
 30 31  1  0  0  0
 30 60  1  0  0  0
 30 61  1  0  0  0
 31 62  1  0  0  0
 31 63  1  0  0  0
 32 33  1  0  0  0
 32 64  1  0  0  0
 33 34  1  0  0  0
 33 36  2  0  0  0
 33 37  2  0  0  0
 34 35  1  0  0  0
 34 65  1  0  0  0
 34 66  1  0  0  0
 35 67  1  0  0  0
 35 68  1  0  0  0
 35 69  1  0  0  0
M  END
> <s_m_entry_id>
4546

> <s_m_entry_name>
dock_pv.34

> <s_m_Source_Path>
/home/csk/Desktop/cluster/DUD-E-result/lck

> <s_m_Source_File>
dock_pv.maegz

> <i_m_Source_File_Index>
34

> <chembl_id>
CHEMBL514409

> <chembl_pref_name>
HESPERADIN

> <i_lp_mmshare_version>
53161

> <i_f3d_flags>
0

> <r_lp_tautomer_probability>
0.499999999999422

> <s_lp_Force_Field>
OPLS_2005

> <r_lp_Energy>
55.446247

> <b_lp_Chiralities_Consistent>
1

> <s_lp_Variant>
CHEMBL258_lig36-1

> <s_i_glide_gridfile>
glide-grid_2of2

> <i_i_glide_lignum>
42

> <i_i_glide_rotatable_bonds>
8

> <r_i_docking_score>
-8.18140163286474

> <r_i_glide_ligand_efficiency>
-0.221118963050398

> <r_i_glide_ligand_efficiency_sa>
-0.736817439602969

> <r_i_glide_ligand_efficiency_ln>
-1.77435421490142

> <r_i_glide_gscore>
-8.18140163286474

> <r_i_glide_lipo>
-3.25009557336292

> <r_i_glide_hbond>
-0.385921614922137

> <r_i_glide_metal>
0

> <r_i_glide_rewards>
-1.303333333318

> <r_i_glide_evdw>
-50.9580268859863

> <r_i_glide_ecoul>
-6.98359537124634

> <r_i_glide_erotb>
0.37680675817584

> <r_i_glide_esite>
-0.0234172194512593

> <r_i_glide_emodel>
-75.0869290953129

> <r_i_glide_energy>
-57.9416222572327

> <r_i_glide_einternal>
18.6143608093262

> <i_i_glide_confnum>
11

> <i_i_glide_posenum>
251

> <r_i_glide_eff_state_penalty>
0

> <s_user_duplicate_titles>
CHEMBL258_lig36

> <s_m_subgroup_title>
dock_pv

> <s_m_subgroupid>
dock_pv

> <b_m_subgroup_collapsed>
1

$$$$
CHEMBL258_lig1063
                    3D
 Schrodinger Suite 2021-1.
 29 31  0  0  1  0            999 V2000
   28.6456   38.8785   84.1352 C   0  0  0  0  0  0
   29.0274   37.8225   83.3134 C   0  0  0  0  0  0
   28.0950   36.8777   82.8874 C   0  0  0  0  0  0
   27.3226   38.9795   84.5519 C   0  0  0  0  0  0
   26.3926   38.0338   84.1367 C   0  0  0  0  0  0
   26.7493   36.9741   83.2867 C   0  0  0  0  0  0
   25.7003   35.9800   82.8882 C   0  0  0  0  0  0
   24.4052   36.2193   83.5038 C   0  0  0  0  0  0
   24.1652   37.2737   84.3129 C   0  0  0  0  0  0
   25.1183   38.1874   84.6361 O   0  0  0  0  0  0
   22.8837   37.5550   85.0192 C   0  0  0  0  0  0
   22.5997   38.8410   85.5066 C   0  0  0  0  0  0
   21.4079   39.1125   86.1811 C   0  0  0  0  0  0
   20.4765   38.0954   86.3755 C   0  0  0  0  0  0
   20.7321   36.8148   85.8900 C   0  0  0  0  0  0
   21.9206   36.5510   85.2114 C   0  0  0  0  0  0
   25.9147   35.0335   82.1301 O   0  0  0  0  0  0
   19.8137   35.8213   86.0872 O   0  0  0  0  0  0
   28.5546   35.8660   82.0887 O   0  0  0  0  0  0
   29.3774   39.6039   84.4575 H   0  0  0  0  0  0
   30.0579   37.7336   83.0017 H   0  0  0  0  0  0
   27.0160   39.7828   85.2048 H   0  0  0  0  0  0
   23.6138   35.5207   83.2835 H   0  0  0  0  0  0
   23.3055   39.6469   85.3662 H   0  0  0  0  0  0
   21.2072   40.1085   86.5467 H   0  0  0  0  0  0
   19.5495   38.2998   86.8891 H   0  0  0  0  0  0
   22.0967   35.5485   84.8540 H   0  0  0  0  0  0
   19.8923   35.0734   85.4729 H   0  0  0  0  0  0
   27.8429   35.3045   81.7608 H   0  0  0  0  0  0
  1  2  1  0  0  0
  1  4  2  0  0  0
  1 20  1  0  0  0
  2  3  2  0  0  0
  2 21  1  0  0  0
  3  6  1  0  0  0
  3 19  1  0  0  0
  4  5  1  0  0  0
  4 22  1  0  0  0
  5  6  2  0  0  0
  5 10  1  0  0  0
  6  7  1  0  0  0
  7  8  1  0  0  0
  7 17  2  0  0  0
  8  9  2  0  0  0
  8 23  1  0  0  0
  9 10  1  0  0  0
  9 11  1  0  0  0
 11 12  2  0  0  0
 11 16  1  0  0  0
 12 13  1  0  0  0
 12 24  1  0  0  0
 13 14  2  0  0  0
 13 25  1  0  0  0
 14 15  1  0  0  0
 14 26  1  0  0  0
 15 16  2  0  0  0
 15 18  1  0  0  0
 16 27  1  0  0  0
 18 28  1  0  0  0
 19 29  1  0  0  0
M  END
> <s_m_entry_id>
4547

> <s_m_entry_name>
dock_pv.35

> <s_m_Source_Path>
/home/csk/Desktop/cluster/DUD-E-result/lck

> <s_m_Source_File>
dock_pv.maegz

> <i_m_Source_File_Index>
35

> <chembl_id>
CHEMBL502242

> <chembl_pref_name>
None

> <i_lp_mmshare_version>
53161

> <i_f3d_flags>
0

> <r_lp_tautomer_probability>
0.999999999997365

> <s_lp_Force_Field>
OPLS_2005

> <r_lp_Energy>
14.99538

> <b_lp_Chiralities_Consistent>
1

> <s_lp_Variant>
CHEMBL258_lig1063-1

> <s_i_glide_gridfile>
glide-grid_2of2

> <i_i_glide_lignum>
1151

> <i_i_glide_rotatable_bonds>
3

> <r_i_docking_score>
-8.14043028518989

> <r_i_glide_ligand_efficiency>
-0.42844369922052

> <r_i_glide_ligand_efficiency_sa>
-1.14325987226248

> <r_i_glide_ligand_efficiency_ln>
-2.06377391770684

> <r_i_glide_gscore>
-8.14043028518989

> <r_i_glide_lipo>
-2.77776842755152

> <r_i_glide_hbond>
-0.60122217548001

> <r_i_glide_metal>
0

> <r_i_glide_rewards>
-2.25065340909091

> <r_i_glide_evdw>
-26.8731708526611

> <r_i_glide_ecoul>
-9.59444808959961

> <r_i_glide_erotb>
0.272039483005549

> <r_i_glide_esite>
0

> <r_i_glide_emodel>
-53.8253169227191

> <r_i_glide_energy>
-36.4676189422607

> <r_i_glide_einternal>
1.24254012107849

> <i_i_glide_confnum>
1

> <i_i_glide_posenum>
334

> <r_i_glide_eff_state_penalty>
0

> <s_user_duplicate_titles>
CHEMBL258_lig1063

> <s_m_subgroup_title>
dock_pv

> <s_m_subgroupid>
dock_pv

> <b_m_subgroup_collapsed>
1

$$$$
CHEMBL258_lig1058
                    3D
 Schrodinger Suite 2021-1.
 30 32  0  0  1  0            999 V2000
   28.7576   38.1016   83.7530 C   0  0  0  0  0  0
   28.9093   37.0210   82.8871 C   0  0  0  0  0  0
   27.8144   36.2423   82.5185 C   0  0  0  0  0  0
   27.4946   38.4146   84.2743 C   0  0  0  0  0  0
   26.4008   37.6065   83.9317 C   0  0  0  0  0  0
   26.5503   36.5156   83.0590 C   0  0  0  0  0  0
   25.3915   35.6261   82.7837 C   0  0  0  0  0  0
   24.1707   36.0313   83.4430 C   0  0  0  0  0  0
   24.1044   37.1134   84.2473 C   0  0  0  0  0  0
   25.1798   37.9038   84.5135 O   0  0  0  0  0  0
   22.8912   37.5525   84.9883 C   0  0  0  0  0  0
   20.6764   37.0920   85.8900 C   0  0  0  0  0  0
   20.5837   38.3989   86.3617 C   0  0  0  0  0  0
   21.6339   39.2899   86.1477 C   0  0  0  0  0  0
   22.7760   38.8686   85.4654 C   0  0  0  0  0  0
   25.4723   34.6212   82.0871 O   0  0  0  0  0  0
   21.8182   36.6736   85.2102 C   0  0  0  0  0  0
   19.6417   36.2209   86.0870 O   0  0  0  0  0  0
   29.8760   38.8183   84.0933 O   0  0  0  0  0  0
   27.3178   39.4915   85.1173 O   0  0  0  0  0  0
   29.8869   36.7827   82.4921 H   0  0  0  0  0  0
   27.9693   35.4045   81.8491 H   0  0  0  0  0  0
   23.2920   35.4337   83.2612 H   0  0  0  0  0  0
   19.6946   38.7236   86.8821 H   0  0  0  0  0  0
   21.5603   40.3078   86.5032 H   0  0  0  0  0  0
   23.5746   39.5789   85.3063 H   0  0  0  0  0  0
   21.8608   35.6522   84.8652 H   0  0  0  0  0  0
   19.7447   35.3813   85.6181 H   0  0  0  0  0  0
   29.7992   39.3041   84.9170 H   0  0  0  0  0  0
   28.0444   40.1184   85.1429 H   0  0  0  0  0  0
  1  2  1  0  0  0
  1  4  2  0  0  0
  1 19  1  0  0  0
  2  3  2  0  0  0
  2 21  1  0  0  0
  3  6  1  0  0  0
  3 22  1  0  0  0
  4  5  1  0  0  0
  4 20  1  0  0  0
  5  6  2  0  0  0
  5 10  1  0  0  0
  6  7  1  0  0  0
  7 16  2  0  0  0
  7  8  1  0  0  0
  8  9  2  0  0  0
  8 23  1  0  0  0
  9 10  1  0  0  0
  9 11  1  0  0  0
 11 17  2  0  0  0
 11 15  1  0  0  0
 12 17  1  0  0  0
 12 13  2  0  0  0
 12 18  1  0  0  0
 13 14  1  0  0  0
 13 24  1  0  0  0
 14 15  2  0  0  0
 14 25  1  0  0  0
 15 26  1  0  0  0
 17 27  1  0  0  0
 18 28  1  0  0  0
 19 29  1  0  0  0
 20 30  1  0  0  0
M  END
> <s_m_entry_id>
4548

> <s_m_entry_name>
dock_pv.36

> <s_m_Source_Path>
/home/csk/Desktop/cluster/DUD-E-result/lck

> <s_m_Source_File>
dock_pv.maegz

> <i_m_Source_File_Index>
36

> <chembl_id>
CHEMBL225513

> <chembl_pref_name>
None

> <i_lp_mmshare_version>
53161

> <i_f3d_flags>
0

> <r_lp_tautomer_probability>
0.999999999997365

> <s_lp_Force_Field>
OPLS_2005

> <r_lp_Energy>
9.885505

> <b_lp_Chiralities_Consistent>
1

> <s_lp_Variant>
CHEMBL258_lig1058-1

> <s_i_glide_gridfile>
glide-grid_2of2

> <i_i_glide_lignum>
1146

> <i_i_glide_rotatable_bonds>
4

> <r_i_docking_score>
-8.11924475345525

> <r_i_glide_ligand_efficiency>
-0.405962237672762

> <r_i_glide_ligand_efficiency_sa>
-1.10195104851085

> <r_i_glide_ligand_efficiency_ln>
-2.03197917117545

> <r_i_glide_gscore>
-8.11924475345525

> <r_i_glide_lipo>
-2.69379572035621

> <r_i_glide_hbond>
-0.608

> <r_i_glide_metal>
0

> <r_i_glide_rewards>
-2.14156659090909

> <r_i_glide_evdw>
-27.7264671325684

> <r_i_glide_ecoul>
-10.2295503616333

> <r_i_glide_erotb>
0.244873468683471

> <r_i_glide_esite>
0

> <r_i_glide_emodel>
-58.3297983746907

> <r_i_glide_energy>
-37.9560174942017

> <r_i_glide_einternal>
0.57465648651123

> <i_i_glide_confnum>
2

> <i_i_glide_posenum>
217

> <r_i_glide_eff_state_penalty>
0

> <s_user_duplicate_titles>
CHEMBL258_lig1058

> <s_m_subgroup_title>
dock_pv

> <s_m_subgroupid>
dock_pv

> <b_m_subgroup_collapsed>
1

$$$$
CHEMBL258_lig1039
                    3D
 Schrodinger Suite 2021-1.
 29 31  0  0  1  0            999 V2000
   24.1092   37.1260   84.2413 C   0  0  0  0  0  0
   24.1724   36.0369   83.4455 C   0  0  0  0  0  0
   25.3901   35.6278   82.7806 C   0  0  0  0  0  0
   25.4682   34.6212   82.0870 O   0  0  0  0  0  0
   26.5505   36.5139   83.0495 C   0  0  0  0  0  0
   27.8196   36.2318   82.5221 C   0  0  0  0  0  0
   28.9094   37.0213   82.8870 C   0  0  0  0  0  0
   28.7372   38.1219   83.7223 C   0  0  0  0  0  0
   27.4782   38.4250   84.2312 C   0  0  0  0  0  0
   26.3954   37.6153   83.9035 C   0  0  0  0  0  0
   25.1846   37.9245   84.4924 O   0  0  0  0  0  0
   22.8966   37.5622   84.9860 C   0  0  0  0  0  0
   21.8263   36.6803   85.2114 C   0  0  0  0  0  0
   20.6830   37.0952   85.8911 C   0  0  0  0  0  0
   20.5883   38.4017   86.3629 C   0  0  0  0  0  0
   21.6352   39.2958   86.1458 C   0  0  0  0  0  0
   22.7779   38.8780   85.4618 C   0  0  0  0  0  0
   19.6504   36.2210   86.0884 O   0  0  0  0  0  0
   29.8117   38.8964   84.0501 O   0  0  0  0  0  0
   23.2961   35.4342   83.2738 H   0  0  0  0  0  0
   27.9796   35.3823   81.8697 H   0  0  0  0  0  0
   29.8923   36.7886   82.5021 H   0  0  0  0  0  0
   27.3295   39.2627   84.8937 H   0  0  0  0  0  0
   21.8703   35.6585   84.8681 H   0  0  0  0  0  0
   19.6990   38.7243   86.8842 H   0  0  0  0  0  0
   21.5592   40.3146   86.4989 H   0  0  0  0  0  0
   23.5720   39.5921   85.2989 H   0  0  0  0  0  0
   19.7502   35.3838   85.6132 H   0  0  0  0  0  0
   29.5932   39.5964   84.6675 H   0  0  0  0  0  0
  1  2  2  0  0  0
  1 11  1  0  0  0
  1 12  1  0  0  0
  2  3  1  0  0  0
  2 20  1  0  0  0
  3  4  2  0  0  0
  3  5  1  0  0  0
  5  6  1  0  0  0
  5 10  2  0  0  0
  6  7  2  0  0  0
  6 21  1  0  0  0
  7  8  1  0  0  0
  7 22  1  0  0  0
  8  9  2  0  0  0
  8 19  1  0  0  0
  9 10  1  0  0  0
  9 23  1  0  0  0
 10 11  1  0  0  0
 12 13  1  0  0  0
 12 17  2  0  0  0
 13 14  2  0  0  0
 13 24  1  0  0  0
 14 15  1  0  0  0
 14 18  1  0  0  0
 15 16  2  0  0  0
 15 25  1  0  0  0
 16 17  1  0  0  0
 16 26  1  0  0  0
 17 27  1  0  0  0
 18 28  1  0  0  0
 19 29  1  0  0  0
M  END
> <s_m_entry_id>
4549

> <s_m_entry_name>
dock_pv.37

> <s_m_Source_Path>
/home/csk/Desktop/cluster/DUD-E-result/lck

> <s_m_Source_File>
dock_pv.maegz

> <i_m_Source_File_Index>
37

> <chembl_id>
CHEMBL253786

> <chembl_pref_name>
None

> <i_lp_mmshare_version>
53161

> <i_f3d_flags>
0

> <r_lp_tautomer_probability>
0.999999999997365

> <s_lp_Force_Field>
OPLS_2005

> <r_lp_Energy>
11.062551

> <b_lp_Chiralities_Consistent>
1

> <s_lp_Variant>
CHEMBL258_lig1039-1

> <s_i_glide_gridfile>
glide-grid_2of2

> <i_i_glide_lignum>
1127

> <i_i_glide_rotatable_bonds>
3

> <r_i_docking_score>
-8.11907136977946

> <r_i_glide_ligand_efficiency>
-0.427319545777866

> <r_i_glide_ligand_efficiency_sa>
-1.14026017936563

> <r_i_glide_ligand_efficiency_ln>
-2.05835897390285

> <r_i_glide_gscore>
-8.11907136977946

> <r_i_glide_lipo>
-2.69661988876245

> <r_i_glide_hbond>
-0.608

> <r_i_glide_metal>
0

> <r_i_glide_rewards>
-2.25065340909091

> <r_i_glide_evdw>
-26.8020553588867

> <r_i_glide_ecoul>
-9.97156524658203

> <r_i_glide_erotb>
0.272039483005549

> <r_i_glide_esite>
0

> <r_i_glide_emodel>
-55.169820837679

> <r_i_glide_energy>
-36.7736206054688

> <r_i_glide_einternal>
0.596309721469879

> <i_i_glide_confnum>
2

> <i_i_glide_posenum>
198

> <r_i_glide_eff_state_penalty>
0

> <s_user_duplicate_titles>
CHEMBL258_lig1039

> <s_m_subgroup_title>
dock_pv

> <s_m_subgroupid>
dock_pv

> <b_m_subgroup_collapsed>
1

$$$$
CHEMBL258_lig328
                    3D
 Schrodinger Suite 2021-1.
 47 49  0  0  1  0            999 V2000
   26.1148   37.0397   83.5144 C   0  0  0  0  0  0
   22.8484   38.3580   84.8759 N   0  0  0  0  0  0
   20.5693   37.3076   85.1318 C   0  0  0  0  0  0
   24.7457   37.1701   83.8056 C   0  0  0  0  0  0
   26.5367   35.9774   82.5144 C   0  0  0  0  0  0
   24.2435   38.1645   84.6640 C   0  0  0  0  0  0
   21.9510   37.2487   84.4885 C   0  0  0  0  0  0
   22.3841   40.6731   85.8181 C   0  0  0  0  0  0
   22.4032   39.7440   84.6002 C   0  0  0  0  0  0
   27.0149   37.9136   84.1631 C   0  0  0  0  0  0
   20.2691   36.5754   86.2913 C   0  0  0  0  0  0
   19.5579   38.0496   84.5102 C   0  0  0  0  0  0
   22.4878   42.0633   85.6389 C   0  0  0  0  0  0
   25.7490   35.1321   82.0870 O   0  0  0  0  0  0
   25.1721   39.0073   85.2872 C   0  0  0  0  0  0
   26.5366   38.8779   85.0478 C   0  0  0  0  0  0
   18.9848   36.6367   86.8409 C   0  0  0  0  0  0
   18.2915   38.1387   85.0765 C   0  0  0  0  0  0
   27.8256   36.0308   82.0870 O   0  0  0  0  0  0
   18.0029   37.4324   86.2452 C   0  0  0  0  0  0
   28.3733   37.8748   83.9792 O   0  0  0  0  0  0
   21.2112   35.7720   86.8845 O   0  0  0  0  0  0
   22.5517   42.6212   84.3867 O   0  0  0  0  0  0
   17.3502   38.9402   84.4870 O   0  0  0  0  0  0
   22.2428   40.1646   87.1179 C   0  0  0  0  0  0
   22.5103   42.9128   86.7439 C   0  0  0  0  0  0
   22.2474   41.0213   88.2184 C   0  0  0  0  0  0
   22.3879   42.3944   88.0314 C   0  0  0  0  0  0
   24.0526   36.5172   83.2970 H   0  0  0  0  0  0
   21.8269   37.2248   83.4051 H   0  0  0  0  0  0
   22.4054   36.2910   84.7489 H   0  0  0  0  0  0
   21.4147   39.7760   84.1534 H   0  0  0  0  0  0
   23.0492   40.1861   83.8383 H   0  0  0  0  0  0
   19.7519   38.5795   83.5903 H   0  0  0  0  0  0
   24.8445   39.7749   85.9703 H   0  0  0  0  0  0
   27.2205   39.5471   85.5492 H   0  0  0  0  0  0
   18.7425   36.0751   87.7307 H   0  0  0  0  0  0
   27.9446   35.4219   81.3506 H   0  0  0  0  0  0
   17.0181   37.4939   86.6861 H   0  0  0  0  0  0
   28.8410   38.5317   84.4990 H   0  0  0  0  0  0
   20.8159   35.0929   87.4351 H   0  0  0  0  0  0
   22.4423   43.5790   84.4101 H   0  0  0  0  0  0
   16.7164   39.2720   85.1453 H   0  0  0  0  0  0
   22.1378   39.1010   87.2794 H   0  0  0  0  0  0
   22.5856   43.9820   86.6081 H   0  0  0  0  0  0
   22.1467   40.6176   89.2151 H   0  0  0  0  0  0
   22.3877   43.0621   88.8799 H   0  0  0  0  0  0
  1  4  2  0  0  0
  1  5  1  0  0  0
  1 10  1  0  0  0
  2  6  1  0  0  0
  2  7  1  0  0  0
  2  9  1  0  0  0
  3  7  1  0  0  0
  3 11  2  0  0  0
  3 12  1  0  0  0
  4  6  1  0  0  0
  4 29  1  0  0  0
  5 14  2  0  0  0
  5 19  1  0  0  0
  6 15  2  0  0  0
  7 30  1  0  0  0
  7 31  1  0  0  0
  8  9  1  0  0  0
  8 13  1  0  0  0
  8 25  2  0  0  0
  9 32  1  0  0  0
  9 33  1  0  0  0
 10 16  2  0  0  0
 10 21  1  0  0  0
 11 17  1  0  0  0
 11 22  1  0  0  0
 12 18  2  0  0  0
 12 34  1  0  0  0
 13 23  1  0  0  0
 13 26  2  0  0  0
 15 16  1  0  0  0
 15 35  1  0  0  0
 16 36  1  0  0  0
 17 20  2  0  0  0
 17 37  1  0  0  0
 18 20  1  0  0  0
 18 24  1  0  0  0
 19 38  1  0  0  0
 20 39  1  0  0  0
 21 40  1  0  0  0
 22 41  1  0  0  0
 23 42  1  0  0  0
 24 43  1  0  0  0
 25 27  1  0  0  0
 25 44  1  0  0  0
 26 28  1  0  0  0
 26 45  1  0  0  0
 27 28  2  0  0  0
 27 46  1  0  0  0
 28 47  1  0  0  0
M  END
> <s_m_entry_id>
4550

> <s_m_entry_name>
dock_pv.38

> <s_m_Source_Path>
/home/csk/Desktop/cluster/DUD-E-result/lck

> <s_m_Source_File>
dock_pv.maegz

> <i_m_Source_File_Index>
38

> <chembl_id>
CHEMBL103552

> <chembl_pref_name>
LAVENDUSTIN A

> <i_lp_mmshare_version>
53161

> <i_f3d_flags>
0

> <r_lp_tautomer_probability>
0.999999999414363

> <s_lp_Force_Field>
OPLS_2005

> <r_lp_Energy>
24.164486

> <b_lp_Chiralities_Consistent>
1

> <s_lp_Variant>
CHEMBL258_lig328-1

> <s_i_glide_gridfile>
glide-grid_2of2

> <i_i_glide_lignum>
366

> <i_i_glide_rotatable_bonds>
11

> <r_i_docking_score>
-8.10596912855108

> <r_i_glide_ligand_efficiency>
-0.289498897448253

> <r_i_glide_ligand_efficiency_sa>
-0.879089158385093

> <r_i_glide_ligand_efficiency_ln>
-1.87109567646502

> <r_i_glide_gscore>
-8.10596912855108

> <r_i_glide_lipo>
-2.44223173577912

> <r_i_glide_hbond>
-0.716977681276415

> <r_i_glide_metal>
0

> <r_i_glide_rewards>
-1.54023213068002

> <r_i_glide_evdw>
-42.1012878417969

> <r_i_glide_ecoul>
-14.0144739151001

> <r_i_glide_erotb>
0.800707898539331

> <r_i_glide_esite>
0

> <r_i_glide_emodel>
-80.202399735881

> <r_i_glide_energy>
-56.115761756897

> <r_i_glide_einternal>
7.73974180221558

> <i_i_glide_confnum>
44

> <i_i_glide_posenum>
316

> <r_i_glide_eff_state_penalty>
0

> <s_user_duplicate_titles>
CHEMBL258_lig328

> <s_m_subgroup_title>
dock_pv

> <s_m_subgroupid>
dock_pv

> <b_m_subgroup_collapsed>
1

$$$$
CHEMBL258_lig253
                    3D
 Schrodinger Suite 2021-1.
 33 34  0  0  1  0            999 V2000
   26.0966   38.9871   84.8152 C   0  0  0  0  0  0
   24.7637   38.8656   85.2012 C   0  0  0  0  0  0
   23.9925   37.7994   84.7410 C   0  0  0  0  0  0
   24.5769   36.8570   83.8880 C   0  0  0  0  0  0
   25.9111   36.9720   83.4643 C   0  0  0  0  0  0
   26.6746   38.0549   83.9539 C   0  0  0  0  0  0
   26.4429   35.9393   82.4931 C   0  0  0  0  0  0
   27.7311   36.1035   82.0872 O   0  0  0  0  0  0
   25.7499   35.0107   82.0869 O   0  0  0  0  0  0
   27.9896   38.2465   83.6217 O   0  0  0  0  0  0
   22.6521   37.7247   85.1481 N   0  0  0  0  0  0
   21.7117   36.7957   84.5326 C   0  0  0  0  0  0
   20.3386   37.0067   85.1453 C   0  0  0  0  0  0
   19.9403   36.3347   86.3128 C   0  0  0  0  0  0
   18.7009   36.6149   86.8871 C   0  0  0  0  0  0
   17.8315   37.5154   86.2771 C   0  0  0  0  0  0
   18.2049   38.1451   85.0909 C   0  0  0  0  0  0
   19.4557   37.8995   84.5307 C   0  0  0  0  0  0
   20.7282   35.3715   86.8870 O   0  0  0  0  0  0
   17.3500   39.0211   84.4870 O   0  0  0  0  0  0
   26.6846   39.8160   85.1828 H   0  0  0  0  0  0
   24.3351   39.6055   85.8618 H   0  0  0  0  0  0
   23.9768   36.0324   83.5302 H   0  0  0  0  0  0
   27.9106   35.4697   81.3813 H   0  0  0  0  0  0
   28.2999   37.5371   83.0470 H   0  0  0  0  0  0
   22.2542   38.5329   85.6067 H   0  0  0  0  0  0
   21.6714   36.9651   83.4544 H   0  0  0  0  0  0
   22.0389   35.7655   84.6748 H   0  0  0  0  0  0
   18.3977   36.1030   87.7887 H   0  0  0  0  0  0
   16.8649   37.7144   86.7183 H   0  0  0  0  0  0
   19.7409   38.4137   83.6247 H   0  0  0  0  0  0
   21.0497   34.7429   86.2343 H   0  0  0  0  0  0
   16.7185   39.3788   85.1359 H   0  0  0  0  0  0
  1  6  1  0  0  0
  1  2  2  0  0  0
  1 21  1  0  0  0
  2  3  1  0  0  0
  2 22  1  0  0  0
  3 11  1  0  0  0
  3  4  2  0  0  0
  4  5  1  0  0  0
  4 23  1  0  0  0
  5  6  2  0  0  0
  5  7  1  0  0  0
  6 10  1  0  0  0
  7  8  1  0  0  0
  7  9  2  0  0  0
  8 24  1  0  0  0
 10 25  1  0  0  0
 11 12  1  0  0  0
 11 26  1  0  0  0
 12 13  1  0  0  0
 12 27  1  0  0  0
 12 28  1  0  0  0
 13 14  2  0  0  0
 13 18  1  0  0  0
 14 15  1  0  0  0
 14 19  1  0  0  0
 15 16  2  0  0  0
 15 29  1  0  0  0
 16 17  1  0  0  0
 16 30  1  0  0  0
 17 18  2  0  0  0
 17 20  1  0  0  0
 18 31  1  0  0  0
 19 32  1  0  0  0
 20 33  1  0  0  0
M  END
> <s_m_entry_id>
4551

> <s_m_entry_name>
dock_pv.39

> <s_m_Source_Path>
/home/csk/Desktop/cluster/DUD-E-result/lck

> <s_m_Source_File>
dock_pv.maegz

> <i_m_Source_File_Index>
39

> <chembl_id>
CHEMBL319620

> <chembl_pref_name>
LAVENDUSTIN C

> <i_lp_mmshare_version>
53161

> <i_f3d_flags>
0

> <r_lp_tautomer_probability>
0.999999999416998

> <s_lp_Force_Field>
OPLS_2005

> <r_lp_Energy>
17.695053

> <b_lp_Chiralities_Consistent>
1

> <s_lp_Variant>
CHEMBL258_lig253-1

> <s_i_glide_gridfile>
glide-grid_2of2

> <i_i_glide_lignum>
281

> <i_i_glide_rotatable_bonds>
8

> <r_i_docking_score>
-8.07032855702746

> <r_i_glide_ligand_efficiency>
-0.403516427851373

> <r_i_glide_ligand_efficiency_sa>
-1.09531209925146

> <r_i_glide_ligand_efficiency_ln>
-2.01973706057371

> <r_i_glide_gscore>
-8.07032855702746

> <r_i_glide_lipo>
-2.21720852976409

> <r_i_glide_hbond>
-0.711859824064153

> <r_i_glide_metal>
0

> <r_i_glide_rewards>
-2.4289485314978

> <r_i_glide_evdw>
-33.1902046203613

> <r_i_glide_ecoul>
-13.3437910079956

> <r_i_glide_erotb>
0.948767210515997

> <r_i_glide_esite>
0

> <r_i_glide_emodel>
-65.3968143072517

> <r_i_glide_energy>
-46.5339956283569

> <r_i_glide_einternal>
8.42148685455322

> <i_i_glide_confnum>
31

> <i_i_glide_posenum>
225

> <r_i_glide_eff_state_penalty>
0

> <s_user_duplicate_titles>
CHEMBL258_lig253,167577

> <s_m_subgroup_title>
dock_pv

> <s_m_subgroupid>
dock_pv

> <b_m_subgroup_collapsed>
1

$$$$
CHEMBL258_lig331
                    3D
 Schrodinger Suite 2021-1.
 34 35  0  0  1  0            999 V2000
   26.2241   37.0206   83.4571 C   0  0  0  0  0  0
   26.6682   35.9446   82.4871 C   0  0  0  0  0  0
   20.6657   36.8926   85.3845 C   0  0  0  0  0  0
   27.0673   38.0542   83.9211 C   0  0  0  0  0  0
   24.9001   36.9887   83.9195 C   0  0  0  0  0  0
   20.2158   36.0685   86.4296 C   0  0  0  0  0  0
   25.9046   35.0658   82.0871 O   0  0  0  0  0  0
   19.8136   37.8694   84.8684 C   0  0  0  0  0  0
   22.0677   36.7886   84.8035 C   0  0  0  0  0  0
   26.5767   39.0207   84.7968 C   0  0  0  0  0  0
   18.9498   36.2730   86.9801 C   0  0  0  0  0  0
   24.4063   37.9558   84.8013 C   0  0  0  0  0  0
   18.5518   38.0590   85.4151 C   0  0  0  0  0  0
   27.9681   36.0110   82.0871 O   0  0  0  0  0  0
   22.9664   37.9392   85.3109 C   0  0  0  0  0  0
   18.1207   37.2808   86.4870 C   0  0  0  0  0  0
   25.2554   38.9770   85.2315 C   0  0  0  0  0  0
   28.3827   38.1624   83.5545 O   0  0  0  0  0  0
   20.9712   35.0212   86.8869 O   0  0  0  0  0  0
   17.7499   39.0213   84.8854 O   0  0  0  0  0  0
   24.2456   36.2005   83.5766 H   0  0  0  0  0  0
   20.1367   38.4999   84.0526 H   0  0  0  0  0  0
   21.9889   36.8177   83.7146 H   0  0  0  0  0  0
   22.5042   35.8216   85.0479 H   0  0  0  0  0  0
   27.2265   39.8112   85.1443 H   0  0  0  0  0  0
   18.6014   35.6377   87.7813 H   0  0  0  0  0  0
   28.1044   35.3849   81.3669 H   0  0  0  0  0  0
   22.9880   37.9143   86.4024 H   0  0  0  0  0  0
   22.5163   38.8955   85.0346 H   0  0  0  0  0  0
   17.1390   37.4328   86.9126 H   0  0  0  0  0  0
   24.8950   39.7367   85.9104 H   0  0  0  0  0  0
   28.6263   37.4309   82.9755 H   0  0  0  0  0  0
   20.9491   34.2898   86.2605 H   0  0  0  0  0  0
   17.0655   39.3300   85.5068 H   0  0  0  0  0  0
  1  2  1  0  0  0
  1  4  1  0  0  0
  1  5  2  0  0  0
  2  7  2  0  0  0
  2 14  1  0  0  0
  3  9  1  0  0  0
  3  6  2  0  0  0
  3  8  1  0  0  0
  4 10  2  0  0  0
  4 18  1  0  0  0
  5 12  1  0  0  0
  5 21  1  0  0  0
  6 11  1  0  0  0
  6 19  1  0  0  0
  8 13  2  0  0  0
  8 22  1  0  0  0
  9 15  1  0  0  0
  9 23  1  0  0  0
  9 24  1  0  0  0
 10 17  1  0  0  0
 10 25  1  0  0  0
 11 16  2  0  0  0
 11 26  1  0  0  0
 12 15  1  0  0  0
 12 17  2  0  0  0
 13 16  1  0  0  0
 13 20  1  0  0  0
 14 27  1  0  0  0
 15 28  1  0  0  0
 15 29  1  0  0  0
 16 30  1  0  0  0
 17 31  1  0  0  0
 18 32  1  0  0  0
 19 33  1  0  0  0
 20 34  1  0  0  0
M  END
> <s_m_entry_id>
4552

> <s_m_entry_name>
dock_pv.40

> <s_m_Source_Path>
/home/csk/Desktop/cluster/DUD-E-result/lck

> <s_m_Source_File>
dock_pv.maegz

> <i_m_Source_File_Index>
40

> <chembl_id>
CHEMBL103860

> <chembl_pref_name>
None

> <i_lp_mmshare_version>
53161

> <i_f3d_flags>
0

> <r_lp_tautomer_probability>
0.999999999416998

> <s_lp_Force_Field>
OPLS_2005

> <r_lp_Energy>
14.255876

> <b_lp_Chiralities_Consistent>
1

> <s_lp_Variant>
CHEMBL258_lig331-1

> <s_i_glide_gridfile>
glide-grid_2of2

> <i_i_glide_lignum>
369

> <i_i_glide_rotatable_bonds>
8

> <r_i_docking_score>
-8.06056692447396

> <r_i_glide_ligand_efficiency>
-0.403028346223698

> <r_i_glide_ligand_efficiency_sa>
-1.09398724188429

> <r_i_glide_ligand_efficiency_ln>
-2.01729404590576

> <r_i_glide_gscore>
-8.06056692447396

> <r_i_glide_lipo>
-2.42436702370043

> <r_i_glide_hbond>
-0.601177931343242

> <r_i_glide_metal>
0

> <r_i_glide_rewards>
-2.30832735586124

> <r_i_glide_evdw>
-31.360897064209

> <r_i_glide_ecoul>
-14.0889911651611

> <r_i_glide_erotb>
0.954698914415572

> <r_i_glide_esite>
0

> <r_i_glide_emodel>
-63.006048787843

> <r_i_glide_energy>
-45.4498882293701

> <r_i_glide_einternal>
10.7097768783569

> <i_i_glide_confnum>
27

> <i_i_glide_posenum>
391

> <r_i_glide_eff_state_penalty>
0

> <s_user_duplicate_titles>
CHEMBL258_lig331

> <s_m_subgroup_title>
dock_pv

> <s_m_subgroupid>
dock_pv

> <b_m_subgroup_collapsed>
1

$$$$
CHEMBL258_lig8
                    3D
 Schrodinger Suite 2021-1.
 29 30  0  0  1  0            999 V2000
   17.6992   37.8211   85.1732 N   0  0  0  0  0  0
   18.4134   38.2239   84.0772 C   0  0  0  0  0  0
   18.1445   37.4211   86.3986 C   0  0  0  0  0  0
   19.5888   37.4977   86.5153 C   0  0  0  0  0  0
   19.7660   38.1988   84.2610 N   0  0  0  0  0  0
   25.2310   36.6429   83.2872 C   0  0  0  0  0  0
   20.3469   37.8716   85.4616 C   0  0  0  0  0  0
   24.8122   35.4211   82.4955 C   0  0  0  0  0  0
   24.4096   37.3040   84.2386 C   0  0  0  0  0  0
   22.7711   36.7263   84.6624 S   0  0  0  0  0  0
   17.8886   38.6198   83.0408 O   0  0  0  0  0  0
   17.3986   37.0207   87.2880 O   0  0  0  0  0  0
   25.6419   34.6210   82.0870 O   0  0  0  0  0  0
   21.8566   38.0258   85.5368 C   0  0  0  0  0  0
   23.4891   35.3357   82.1751 O   0  0  0  0  0  0
   26.5241   37.1444   83.0554 C   0  0  0  0  0  0
   24.8975   38.4472   84.8869 C   0  0  0  0  0  0
   26.9928   38.2762   83.7149 C   0  0  0  0  0  0
   26.1763   38.9308   84.6283 C   0  0  0  0  0  0
   20.0452   37.2517   87.4612 H   0  0  0  0  0  0
   16.6956   37.8415   85.0735 H   0  0  0  0  0  0
   20.3244   38.4603   83.4634 H   0  0  0  0  0  0
   22.1808   38.0213   86.5786 H   0  0  0  0  0  0
   22.1233   39.0017   85.1304 H   0  0  0  0  0  0
   23.2556   34.5420   81.6873 H   0  0  0  0  0  0
   27.1843   36.6613   82.3461 H   0  0  0  0  0  0
   24.3060   38.9668   85.6233 H   0  0  0  0  0  0
   27.9899   38.6435   83.5189 H   0  0  0  0  0  0
   26.5391   39.8082   85.1437 H   0  0  0  0  0  0
  1  2  1  0  0  0
  1 21  1  0  0  0
  1  3  1  0  0  0
  2 11  2  0  0  0
  2  5  1  0  0  0
  3 12  2  0  0  0
  3  4  1  0  0  0
  4 20  1  0  0  0
  4  7  2  0  0  0
  5  7  1  0  0  0
  5 22  1  0  0  0
  6  9  1  0  0  0
  6  8  1  0  0  0
  6 16  2  0  0  0
  7 14  1  0  0  0
  8 13  2  0  0  0
  8 15  1  0  0  0
  9 10  1  0  0  0
  9 17  2  0  0  0
 10 14  1  0  0  0
 14 23  1  0  0  0
 14 24  1  0  0  0
 15 25  1  0  0  0
 16 18  1  0  0  0
 16 26  1  0  0  0
 17 19  1  0  0  0
 17 27  1  0  0  0
 18 19  2  0  0  0
 18 28  1  0  0  0
 19 29  1  0  0  0
M  END
> <s_m_entry_id>
4553

> <s_m_entry_name>
dock_pv.41

> <s_m_Source_Path>
/home/csk/Desktop/cluster/DUD-E-result/lck

> <s_m_Source_File>
dock_pv.maegz

> <i_m_Source_File_Index>
41

> <chembl_id>
CHEMBL119578

> <chembl_pref_name>
None

> <i_lp_mmshare_version>
53161

> <i_f3d_flags>
0

> <r_lp_tautomer_probability>
0.999513966058628

> <s_lp_Force_Field>
OPLS_2005

> <r_lp_Energy>
12.265646

> <b_lp_Chiralities_Consistent>
1

> <s_lp_Variant>
CHEMBL258_lig8-1

> <s_i_glide_gridfile>
glide-grid_2of2

> <i_i_glide_lignum>
9

> <i_i_glide_rotatable_bonds>
5

> <r_i_docking_score>
-8.05864956929252

> <r_i_glide_ligand_efficiency>
-0.424139451015396

> <r_i_glide_ligand_efficiency_sa>
-1.13177440926669

> <r_i_glide_ligand_efficiency_ln>
-2.04304074973813

> <r_i_glide_gscore>
-8.05864956929252

> <r_i_glide_lipo>
-2.26725191031543

> <r_i_glide_hbond>
-0.577385175411245

> <r_i_glide_metal>
0

> <r_i_glide_rewards>
-3.43995320515762

> <r_i_glide_evdw>
-37.7743911743164

> <r_i_glide_ecoul>
-5.44180774688721

> <r_i_glide_erotb>
0.930931442340677

> <r_i_glide_esite>
0

> <r_i_glide_emodel>
-64.1118949765547

> <r_i_glide_energy>
-43.2161989212036

> <r_i_glide_einternal>
1.8022745847702

> <i_i_glide_confnum>
21

> <i_i_glide_posenum>
5

> <r_i_glide_eff_state_penalty>
0

> <s_user_duplicate_titles>
CHEMBL258_lig8

> <s_m_subgroup_title>
dock_pv

> <s_m_subgroupid>
dock_pv

> <b_m_subgroup_collapsed>
1

$$$$
CHEMBL258_lig1071
                    3D
 Schrodinger Suite 2021-1.
 43 45  0  0  1  0            999 V2000
   28.0845   38.4995   84.1510 C   0  0  0  0  0  0
   28.4586   37.4683   83.2866 C   0  0  0  0  0  0
   27.4756   36.5664   82.8414 C   0  0  0  0  0  0
   26.7625   38.6238   84.5862 C   0  0  0  0  0  0
   25.8064   37.7108   84.1527 C   0  0  0  0  0  0
   26.1504   36.6672   83.2818 C   0  0  0  0  0  0
   25.1119   35.6918   82.8480 C   0  0  0  0  0  0
   23.7934   35.9697   83.3855 C   0  0  0  0  0  0
   23.5531   37.0077   84.2183 C   0  0  0  0  0  0
   24.5166   37.8915   84.6090 O   0  0  0  0  0  0
   22.2074   37.4176   84.7097 C   0  0  0  0  0  0
   22.0724   38.2256   85.8473 C   0  0  0  0  0  0
   20.8121   38.6204   86.3215 C   0  0  0  0  0  0
   19.6638   38.1603   85.6660 C   0  0  0  0  0  0
   19.7811   37.4074   84.4914 C   0  0  0  0  0  0
   21.0392   37.0200   84.0432 C   0  0  0  0  0  0
   25.3510   34.7545   82.0889 O   0  0  0  0  0  0
   29.7868   37.4197   82.9038 O   0  0  0  0  0  0
   18.6762   37.0165   83.7750 O   0  0  0  0  0  0
   18.0341   38.0512   83.0396 C   0  0  0  0  0  0
   18.4286   38.4977   86.1602 O   0  0  0  0  0  0
   17.7223   37.4337   86.7831 C   0  0  0  0  0  0
   20.6321   39.4495   87.4138 O   0  0  0  0  0  0
   21.6828   40.3408   87.7757 C   0  0  0  0  0  0
   30.2307   36.3555   82.0631 C   0  0  0  0  0  0
   28.8308   39.2051   84.4883 H   0  0  0  0  0  0
   27.7394   35.7702   82.1568 H   0  0  0  0  0  0
   26.4826   39.4238   85.2522 H   0  0  0  0  0  0
   22.9883   35.3210   83.0810 H   0  0  0  0  0  0
   22.9615   38.5449   86.3666 H   0  0  0  0  0  0
   21.0921   36.4180   83.1488 H   0  0  0  0  0  0
   17.1699   37.6438   82.5165 H   0  0  0  0  0  0
   17.6757   38.8562   83.6852 H   0  0  0  0  0  0
   18.7024   38.4744   82.2894 H   0  0  0  0  0  0
   16.7769   37.8185   87.1653 H   0  0  0  0  0  0
   17.4973   36.6213   86.0899 H   0  0  0  0  0  0
   18.2751   37.0188   87.6250 H   0  0  0  0  0  0
   21.3207   41.0173   88.5504 H   0  0  0  0  0  0
   21.9990   40.9521   86.9268 H   0  0  0  0  0  0
   22.5473   39.8150   88.1753 H   0  0  0  0  0  0
   31.3008   36.4572   81.8804 H   0  0  0  0  0  0
   30.0671   35.3780   82.5239 H   0  0  0  0  0  0
   29.7340   36.3618   81.0900 H   0  0  0  0  0  0
  1  2  1  0  0  0
  1  4  2  0  0  0
  1 26  1  0  0  0
  2  3  2  0  0  0
  2 18  1  0  0  0
  3  6  1  0  0  0
  3 27  1  0  0  0
  4  5  1  0  0  0
  4 28  1  0  0  0
  5 10  1  0  0  0
  5  6  2  0  0  0
  6  7  1  0  0  0
  7 17  2  0  0  0
  7  8  1  0  0  0
  8  9  2  0  0  0
  8 29  1  0  0  0
  9 11  1  0  0  0
  9 10  1  0  0  0
 11 16  1  0  0  0
 11 12  2  0  0  0
 12 13  1  0  0  0
 12 30  1  0  0  0
 13 14  2  0  0  0
 13 23  1  0  0  0
 14 15  1  0  0  0
 14 21  1  0  0  0
 15 16  2  0  0  0
 15 19  1  0  0  0
 16 31  1  0  0  0
 18 25  1  0  0  0
 19 20  1  0  0  0
 20 32  1  0  0  0
 20 33  1  0  0  0
 20 34  1  0  0  0
 21 22  1  0  0  0
 22 35  1  0  0  0
 22 36  1  0  0  0
 22 37  1  0  0  0
 23 24  1  0  0  0
 24 38  1  0  0  0
 24 39  1  0  0  0
 24 40  1  0  0  0
 25 41  1  0  0  0
 25 42  1  0  0  0
 25 43  1  0  0  0
M  END
> <s_m_entry_id>
4554

> <s_m_entry_name>
dock_pv.42

> <s_m_Source_Path>
/home/csk/Desktop/cluster/DUD-E-result/lck

> <s_m_Source_File>
dock_pv.maegz

> <i_m_Source_File_Index>
42

> <chembl_id>
CHEMBL490158

> <chembl_pref_name>
None

> <i_lp_mmshare_version>
53161

> <i_f3d_flags>
0

> <r_lp_tautomer_probability>
1

> <s_lp_Force_Field>
OPLS_2005

> <r_lp_Energy>
31.290075

> <b_lp_Chiralities_Consistent>
1

> <s_lp_Variant>
CHEMBL258_lig1071-1

> <s_i_glide_gridfile>
glide-grid_2of2

> <i_i_glide_lignum>
1159

> <i_i_glide_rotatable_bonds>
5

> <r_i_docking_score>
-8.04647704095974

> <r_i_glide_ligand_efficiency>
-0.32185908163839

> <r_i_glide_ligand_efficiency_sa>
-0.941121662905769

> <r_i_glide_ligand_efficiency_ln>
-1.9072561921661

> <r_i_glide_gscore>
-8.04647704095974

> <r_i_glide_lipo>
-3.61765725913509

> <r_i_glide_hbond>
-0.32

> <r_i_glide_metal>
0

> <r_i_glide_rewards>
-1.64712179568191

> <r_i_glide_evdw>
-38.4317474365234

> <r_i_glide_ecoul>
-4.67932415008545

> <r_i_glide_erotb>
0.161788008196247

> <r_i_glide_esite>
0

> <r_i_glide_emodel>
-58.390941705097

> <r_i_glide_energy>
-43.1110715866089

> <r_i_glide_einternal>
9.30907154083252

> <i_i_glide_confnum>
1

> <i_i_glide_posenum>
1

> <r_i_glide_eff_state_penalty>
0

> <s_user_duplicate_titles>
CHEMBL258_lig1071

> <s_m_subgroup_title>
dock_pv

> <s_m_subgroupid>
dock_pv

> <b_m_subgroup_collapsed>
1

$$$$
CHEMBL258_lig722
                    3D
 Schrodinger Suite 2021-1.
 48 52  0  0  1  0            999 V2000
   25.2241   39.3623   85.6395 C   0  0  0  0  0  0
   24.2497   40.2217   86.4084 C   0  0  0  0  0  0
   22.9688   39.4011   86.4928 C   0  0  0  0  0  0
   23.0848   38.4259   85.5508 N   0  0  0  0  0  0
   24.3786   38.4682   84.8872 N   0  0  0  0  0  0
   25.4777   35.2843   82.4276 N   0  0  0  0  0  0
   26.3636   36.2039   82.8863 C   0  0  0  0  0  0
   26.0548   37.2557   83.6873 N   0  0  0  0  0  0
   24.1903   35.4213   82.8314 C   0  0  0  0  0  0
   23.7891   36.4450   83.6871 C   0  0  0  0  0  0
   24.7645   37.3668   84.0927 C   0  0  0  0  0  0
   22.1374   37.5014   85.1128 C   0  0  0  0  0  0
   22.4280   36.5630   84.1919 C   0  0  0  0  0  0
   27.6846   35.9819   82.4868 N   0  0  0  0  0  0
   28.9146   36.6207   82.7097 C   0  0  0  0  0  0
   29.0882   37.7471   83.5280 C   0  0  0  0  0  0
   30.3507   38.3458   83.6697 C   0  0  0  0  0  0
   31.4345   37.8077   82.9733 C   0  0  0  0  0  0
   31.2746   36.6862   82.1628 C   0  0  0  0  0  0
   30.0212   36.0932   82.0393 C   0  0  0  0  0  0
   20.7530   37.5063   85.6671 C   0  0  0  0  0  0
   20.2975   36.4229   86.4478 C   0  0  0  0  0  0
   18.9751   36.3801   86.8873 C   0  0  0  0  0  0
   18.0986   37.4183   86.5923 C   0  0  0  0  0  0
   18.5475   38.5089   85.8574 C   0  0  0  0  0  0
   19.8552   38.5555   85.3854 C   0  0  0  0  0  0
   20.3207   39.9545   84.4869 Cl  0  0  0  0  0  0
   22.0561   39.6154   87.2931 O   0  0  0  0  0  0
   21.3372   35.1036   86.8846 Cl  0  0  0  0  0  0
   30.6115   39.4466   84.4595 O   0  0  0  0  0  0
   29.5553   40.0396   85.2048 C   0  0  0  0  0  0
   25.8875   39.9447   84.9984 H   0  0  0  0  0  0
   25.8438   38.7695   86.3169 H   0  0  0  0  0  0
   24.6191   40.4871   87.3989 H   0  0  0  0  0  0
   24.0195   41.1408   85.8635 H   0  0  0  0  0  0
   23.4873   34.6796   82.4772 H   0  0  0  0  0  0
   21.6695   35.8601   83.8716 H   0  0  0  0  0  0
   27.7518   35.2116   81.8374 H   0  0  0  0  0  0
   28.2507   38.1626   84.0576 H   0  0  0  0  0  0
   32.4095   38.2623   83.0684 H   0  0  0  0  0  0
   32.1195   36.2747   81.6287 H   0  0  0  0  0  0
   29.9161   35.2279   81.3987 H   0  0  0  0  0  0
   18.6294   35.5387   87.4708 H   0  0  0  0  0  0
   17.0765   37.3923   86.9454 H   0  0  0  0  0  0
   17.8685   39.3237   85.6495 H   0  0  0  0  0  0
   29.9457   40.8832   85.7746 H   0  0  0  0  0  0
   28.7696   40.4220   84.5504 H   0  0  0  0  0  0
   29.1191   39.3381   85.9196 H   0  0  0  0  0  0
  1  5  1  0  0  0
  1  2  1  0  0  0
  1 32  1  0  0  0
  1 33  1  0  0  0
  2  3  1  0  0  0
  2 34  1  0  0  0
  2 35  1  0  0  0
  3  4  1  0  0  0
  3 28  2  0  0  0
  4  5  1  0  0  0
  4 12  1  0  0  0
  5 11  1  0  0  0
  6  9  2  0  0  0
  6  7  1  0  0  0
  7  8  2  0  0  0
  7 14  1  0  0  0
  8 11  1  0  0  0
  9 10  1  0  0  0
  9 36  1  0  0  0
 10 11  2  0  0  0
 10 13  1  0  0  0
 12 21  1  0  0  0
 12 13  2  0  0  0
 13 37  1  0  0  0
 14 15  1  0  0  0
 14 38  1  0  0  0
 15 16  2  0  0  0
 15 20  1  0  0  0
 16 17  1  0  0  0
 16 39  1  0  0  0
 17 18  2  0  0  0
 17 30  1  0  0  0
 18 19  1  0  0  0
 18 40  1  0  0  0
 19 20  2  0  0  0
 19 41  1  0  0  0
 20 42  1  0  0  0
 21 22  2  0  0  0
 21 26  1  0  0  0
 22 23  1  0  0  0
 22 29  1  0  0  0
 23 24  2  0  0  0
 23 43  1  0  0  0
 24 25  1  0  0  0
 24 44  1  0  0  0
 25 26  2  0  0  0
 25 45  1  0  0  0
 26 27  1  0  0  0
 30 31  1  0  0  0
 31 46  1  0  0  0
 31 47  1  0  0  0
 31 48  1  0  0  0
M  END
> <s_m_entry_id>
4555

> <s_m_entry_name>
dock_pv.43

> <s_m_Source_Path>
/home/csk/Desktop/cluster/DUD-E-result/lck

> <s_m_Source_File>
dock_pv.maegz

> <i_m_Source_File_Index>
43

> <chembl_id>
CHEMBL385819

> <chembl_pref_name>
None

> <i_lp_mmshare_version>
53161

> <i_f3d_flags>
0

> <r_lp_tautomer_probability>
1

> <s_lp_Force_Field>
OPLS_2005

> <r_lp_Energy>
25.161221

> <b_lp_Chiralities_Consistent>
1

> <s_lp_Variant>
CHEMBL258_lig722-1

> <s_i_glide_gridfile>
glide-grid_2of2

> <i_i_glide_lignum>
807

> <i_i_glide_rotatable_bonds>
4

> <r_i_docking_score>
-8.03886458391197

> <r_i_glide_ligand_efficiency>
-0.259318212384257

> <r_i_glide_ligand_efficiency_sa>
-0.814617214264165

> <r_i_glide_ligand_efficiency_ln>
-1.81301032528473

> <r_i_glide_gscore>
-8.03886458391197

> <r_i_glide_lipo>
-3.30839686329181

> <r_i_glide_hbond>
-0.170143291913947

> <r_i_glide_metal>
0

> <r_i_glide_rewards>
-1.65119282463591

> <r_i_glide_evdw>
-47.8884506225586

> <r_i_glide_ecoul>
-4.65054750442505

> <r_i_glide_erotb>
0.204307217422536

> <r_i_glide_esite>
-0.0214341647011499

> <r_i_glide_emodel>
-74.4784921922684

> <r_i_glide_energy>
-52.5389981269836

> <r_i_glide_einternal>
2.71871185302734

> <i_i_glide_confnum>
6

> <i_i_glide_posenum>
162

> <r_i_glide_eff_state_penalty>
0

> <s_user_duplicate_titles>
CHEMBL258_lig722,354976

> <s_m_subgroup_title>
dock_pv

> <s_m_subgroupid>
dock_pv

> <b_m_subgroup_collapsed>
1

$$$$
CHEMBL258_lig1367
                    3D
 Schrodinger Suite 2021-1.
 54 58  0  0  1  0            999 V2000
   27.8256   37.6873   83.4470 C   0  0  0  0  0  0
   29.0342   37.1240   83.0259 C   0  0  0  0  0  0
   30.2341   37.8137   83.2078 C   0  0  0  0  0  0
   30.2412   39.0578   83.8359 C   0  0  0  0  0  0
   29.0490   39.6324   84.2945 C   0  0  0  0  0  0
   27.8544   38.9404   84.0692 C   0  0  0  0  0  0
   29.0157   40.8615   84.9464 N   0  0  0  0  0  0
   28.2840   41.0006   86.2219 C   0  0  0  0  0  0
   27.9110   42.4604   86.5653 C   0  0  0  0  0  0
   29.7292   43.2581   85.2871 C   0  0  0  0  0  0
   30.1388   41.8151   84.9037 C   0  0  0  0  0  0
   26.5316   36.9520   83.2869 C   0  0  0  0  0  0
   20.7037   36.2212   85.9820 C   0  0  0  0  0  0
   21.2392   37.2857   85.2497 C   0  0  0  0  0  0
   20.4645   38.4342   85.0465 C   0  0  0  0  0  0
   19.1650   38.5073   85.5462 C   0  0  0  0  0  0
   18.6391   37.4324   86.2588 C   0  0  0  0  0  0
   19.4086   36.2960   86.4873 C   0  0  0  0  0  0
   22.6305   37.2084   84.7241 C   0  0  0  0  0  0
   23.0583   36.2706   83.7677 C   0  0  0  0  0  0
   24.8829   38.1271   84.8131 N   0  0  0  0  0  0
   23.5824   38.1116   85.1955 C   0  0  0  0  0  0
   25.2837   37.2111   83.9236 C   0  0  0  0  0  0
   24.3887   36.2607   83.4102 N   0  0  0  0  0  0
   24.9985   35.4219   82.5298 N   0  0  0  0  0  0
   26.2481   35.8383   82.4842 C   0  0  0  0  0  0
   28.7638   44.6625   86.9710 C   0  0  0  0  0  0
   29.1125   43.2909   86.6148 N   0  0  0  0  0  0
   22.1485   35.4213   83.1452 N   0  0  0  0  0  0
   17.3580   37.4871   86.7394 O   0  0  0  0  0  0
   29.0545   36.1523   82.5540 H   0  0  0  0  0  0
   31.1614   37.3728   82.8732 H   0  0  0  0  0  0
   31.1869   39.5575   83.9835 H   0  0  0  0  0  0
   26.9345   39.4071   84.3784 H   0  0  0  0  0  0
   27.3799   40.3932   86.2392 H   0  0  0  0  0  0
   28.9258   40.6213   87.0187 H   0  0  0  0  0  0
   27.4134   42.4827   87.5357 H   0  0  0  0  0  0
   27.1966   42.8471   85.8352 H   0  0  0  0  0  0
   29.0545   43.6617   84.5258 H   0  0  0  0  0  0
   30.6184   43.8910   85.2869 H   0  0  0  0  0  0
   30.5756   41.8230   83.9048 H   0  0  0  0  0  0
   30.9111   41.4828   85.5994 H   0  0  0  0  0  0
   21.2890   35.3292   86.1533 H   0  0  0  0  0  0
   20.8659   39.2702   84.4923 H   0  0  0  0  0  0
   18.5713   39.3940   85.3789 H   0  0  0  0  0  0
   18.9992   35.4653   87.0434 H   0  0  0  0  0  0
   23.3069   38.8594   85.9271 H   0  0  0  0  0  0
   26.9592   35.3405   81.8395 H   0  0  0  0  0  0
   28.0640   45.1027   86.2577 H   0  0  0  0  0  0
   29.6561   45.2893   87.0040 H   0  0  0  0  0  0
   28.3063   44.6964   87.9608 H   0  0  0  0  0  0
   21.1918   35.4241   83.4749 H   0  0  0  0  0  0
   22.4554   34.7930   82.4122 H   0  0  0  0  0  0
   16.9251   38.3382   86.5767 H   0  0  0  0  0  0
  1  6  1  0  0  0
  1 12  1  0  0  0
  1  2  2  0  0  0
  2  3  1  0  0  0
  2 31  1  0  0  0
  3  4  2  0  0  0
  3 32  1  0  0  0
  4  5  1  0  0  0
  4 33  1  0  0  0
  5  6  2  0  0  0
  5  7  1  0  0  0
  6 34  1  0  0  0
  7  8  1  0  0  0
  7 11  1  0  0  0
  8  9  1  0  0  0
  8 35  1  0  0  0
  8 36  1  0  0  0
  9 28  1  0  0  0
  9 37  1  0  0  0
  9 38  1  0  0  0
 10 11  1  0  0  0
 10 28  1  0  0  0
 10 39  1  0  0  0
 10 40  1  0  0  0
 11 41  1  0  0  0
 11 42  1  0  0  0
 12 26  1  0  0  0
 12 23  2  0  0  0
 13 14  2  0  0  0
 13 18  1  0  0  0
 13 43  1  0  0  0
 14 15  1  0  0  0
 14 19  1  0  0  0
 15 16  2  0  0  0
 15 44  1  0  0  0
 16 17  1  0  0  0
 16 45  1  0  0  0
 17 18  2  0  0  0
 17 30  1  0  0  0
 18 46  1  0  0  0
 19 20  2  0  0  0
 19 22  1  0  0  0
 20 24  1  0  0  0
 20 29  1  0  0  0
 21 23  1  0  0  0
 21 22  2  0  0  0
 22 47  1  0  0  0
 23 24  1  0  0  0
 24 25  1  0  0  0
 25 26  2  0  0  0
 26 48  1  0  0  0
 27 28  1  0  0  0
 27 49  1  0  0  0
 27 50  1  0  0  0
 27 51  1  0  0  0
 29 52  1  0  0  0
 29 53  1  0  0  0
 30 54  1  0  0  0
M  END
> <s_m_entry_id>
4556

> <s_m_entry_name>
dock_pv.44

> <s_m_Source_Path>
/home/csk/Desktop/cluster/DUD-E-result/lck

> <s_m_Source_File>
dock_pv.maegz

> <i_m_Source_File_Index>
44

> <chembl_id>
CHEMBL1083091

> <chembl_pref_name>
None

> <i_lp_mmshare_version>
53161

> <i_f3d_flags>
0

> <r_lp_tautomer_probability>
0.999999999997365

> <s_lp_Force_Field>
OPLS_2005

> <r_lp_Energy>
54.08754

> <b_lp_Chiralities_Consistent>
1

> <s_lp_Variant>
CHEMBL258_lig1367-1

> <s_i_glide_gridfile>
glide-grid_2of2

> <i_i_glide_lignum>
1524

> <i_i_glide_rotatable_bonds>
4

> <r_i_docking_score>
-8.03833271140659

> <r_i_glide_ligand_efficiency>
-0.267944423713553

> <r_i_glide_ligand_efficiency_sa>
-0.832565622207919

> <r_i_glide_ligand_efficiency_ln>
-1.82639677668145

> <r_i_glide_gscore>
-8.03833271140659

> <r_i_glide_lipo>
-2.92099381640201

> <r_i_glide_hbond>
-0.463870630962686

> <r_i_glide_metal>
0

> <r_i_glide_rewards>
-2.07133567017198

> <r_i_glide_evdw>
-39.1049194335938

> <r_i_glide_ecoul>
-6.61957740783691

> <r_i_glide_erotb>
0.366713654400764

> <r_i_glide_esite>
-0.000663665415446077

> <r_i_glide_emodel>
-67.3058107206408

> <r_i_glide_energy>
-45.7244968414307

> <r_i_glide_einternal>
1.94345772266388

> <i_i_glide_confnum>
35

> <i_i_glide_posenum>
261

> <r_i_glide_eff_state_penalty>
0

> <s_user_duplicate_titles>
CHEMBL258_lig1367,632950

> <s_m_subgroup_title>
dock_pv

> <s_m_subgroupid>
dock_pv

> <b_m_subgroup_collapsed>
1

$$$$
CHEMBL258_lig731
                    3D
 Schrodinger Suite 2021-1.
 48 52  0  0  1  0            999 V2000
   25.3411   39.4696   85.0966 C   0  0  0  0  0  0
   24.4914   40.0192   86.2211 C   0  0  0  0  0  0
   23.1811   39.2348   86.1703 C   0  0  0  0  0  0
   23.3736   38.2553   85.2452 N   0  0  0  0  0  0
   24.7720   38.1654   84.8697 N   0  0  0  0  0  0
   25.9356   35.2867   82.0872 N   0  0  0  0  0  0
   26.7973   36.1896   82.6167 C   0  0  0  0  0  0
   26.4630   37.1523   83.5148 N   0  0  0  0  0  0
   24.6533   35.3327   82.5172 C   0  0  0  0  0  0
   24.2354   36.2363   83.4885 C   0  0  0  0  0  0
   25.1732   37.1802   83.9394 C   0  0  0  0  0  0
   22.4926   37.2733   84.8008 C   0  0  0  0  0  0
   22.8621   36.2857   83.9686 C   0  0  0  0  0  0
   28.1196   36.0240   82.1964 N   0  0  0  0  0  0
   29.3515   36.6209   82.4990 C   0  0  0  0  0  0
   30.4934   36.0207   81.9613 C   0  0  0  0  0  0
   31.7518   36.5646   82.1983 C   0  0  0  0  0  0
   31.8722   37.7101   82.9798 C   0  0  0  0  0  0
   30.7437   38.3155   83.5261 C   0  0  0  0  0  0
   29.4827   37.7740   83.2874 C   0  0  0  0  0  0
   21.0896   37.2909   85.2585 C   0  0  0  0  0  0
   20.1771   38.1019   84.5798 C   0  0  0  0  0  0
   18.8385   38.1475   84.9673 C   0  0  0  0  0  0
   18.4191   37.4204   86.0803 C   0  0  0  0  0  0
   19.3217   36.6014   86.7621 C   0  0  0  0  0  0
   20.6550   36.5234   86.3503 C   0  0  0  0  0  0
   21.7495   35.4716   87.1904 Cl  0  0  0  0  0  0
   33.0943   38.2400   83.2122 F   0  0  0  0  0  0
   22.1889   39.4881   86.8537 O   0  0  0  0  0  0
   17.9334   38.8994   84.2657 O   0  0  0  0  0  0
   17.7099   38.4499   82.9368 C   0  0  0  0  0  0
   25.2230   40.0641   84.1888 H   0  0  0  0  0  0
   26.4032   39.4294   85.3441 H   0  0  0  0  0  0
   24.9591   39.8395   87.1882 H   0  0  0  0  0  0
   24.3112   41.0893   86.1176 H   0  0  0  0  0  0
   23.9623   34.6215   82.0897 H   0  0  0  0  0  0
   22.1469   35.5355   83.6567 H   0  0  0  0  0  0
   28.1759   35.3292   81.4625 H   0  0  0  0  0  0
   30.4129   35.1302   81.3524 H   0  0  0  0  0  0
   32.6317   36.0970   81.7819 H   0  0  0  0  0  0
   30.8510   39.2036   84.1302 H   0  0  0  0  0  0
   28.6273   38.2711   83.7144 H   0  0  0  0  0  0
   20.5062   38.6897   83.7361 H   0  0  0  0  0  0
   17.3864   37.4743   86.3938 H   0  0  0  0  0  0
   18.9772   36.0136   87.6015 H   0  0  0  0  0  0
   16.9500   39.0808   82.4870 H   0  0  0  0  0  0
   18.6034   38.5210   82.3157 H   0  0  0  0  0  0
   17.3501   37.4205   82.9124 H   0  0  0  0  0  0
  1  5  1  0  0  0
  1  2  1  0  0  0
  1 32  1  0  0  0
  1 33  1  0  0  0
  2  3  1  0  0  0
  2 34  1  0  0  0
  2 35  1  0  0  0
  3  4  1  0  0  0
  3 29  2  0  0  0
  4  5  1  0  0  0
  4 12  1  0  0  0
  5 11  1  0  0  0
  6  9  2  0  0  0
  6  7  1  0  0  0
  7 14  1  0  0  0
  7  8  2  0  0  0
  8 11  1  0  0  0
  9 10  1  0  0  0
  9 36  1  0  0  0
 10 11  2  0  0  0
 10 13  1  0  0  0
 12 21  1  0  0  0
 12 13  2  0  0  0
 13 37  1  0  0  0
 14 15  1  0  0  0
 14 38  1  0  0  0
 15 16  2  0  0  0
 15 20  1  0  0  0
 16 17  1  0  0  0
 16 39  1  0  0  0
 17 18  2  0  0  0
 17 40  1  0  0  0
 18 19  1  0  0  0
 18 28  1  0  0  0
 19 20  2  0  0  0
 19 41  1  0  0  0
 20 42  1  0  0  0
 21 22  2  0  0  0
 21 26  1  0  0  0
 22 23  1  0  0  0
 22 43  1  0  0  0
 23 24  2  0  0  0
 23 30  1  0  0  0
 24 25  1  0  0  0
 24 44  1  0  0  0
 25 26  2  0  0  0
 25 45  1  0  0  0
 26 27  1  0  0  0
 30 31  1  0  0  0
 31 46  1  0  0  0
 31 47  1  0  0  0
 31 48  1  0  0  0
M  END
> <s_m_entry_id>
4557

> <s_m_entry_name>
dock_pv.45

> <s_m_Source_Path>
/home/csk/Desktop/cluster/DUD-E-result/lck

> <s_m_Source_File>
dock_pv.maegz

> <i_m_Source_File_Index>
45

> <chembl_id>
CHEMBL209846

> <chembl_pref_name>
None

> <i_lp_mmshare_version>
53161

> <i_f3d_flags>
0

> <r_lp_tautomer_probability>
1

> <s_lp_Force_Field>
OPLS_2005

> <r_lp_Energy>
25.518025

> <b_lp_Chiralities_Consistent>
1

> <s_lp_Variant>
CHEMBL258_lig731-1

> <s_i_glide_gridfile>
glide-grid_2of2

> <i_i_glide_lignum>
816

> <i_i_glide_rotatable_bonds>
4

> <r_i_docking_score>
-8.03562217166321

> <r_i_glide_ligand_efficiency>
-0.259213618440749

> <r_i_glide_ligand_efficiency_sa>
-0.814288644874047

> <r_i_glide_ligand_efficiency_ln>
-1.81227906195464

> <r_i_glide_gscore>
-8.03562217166321

> <r_i_glide_lipo>
-3.79531322948258

> <r_i_glide_hbond>
-0.728951280315156

> <r_i_glide_metal>
0

> <r_i_glide_rewards>
-0.720399748586747

> <r_i_glide_evdw>
-46.7215042114258

> <r_i_glide_ecoul>
-4.22804021835327

> <r_i_glide_erotb>
0.218470118982599

> <r_i_glide_esite>
-0.0391467889370512

> <r_i_glide_emodel>
-66.4096058279755

> <r_i_glide_energy>
-50.9495444297791

> <r_i_glide_einternal>
7.25360202789307

> <i_i_glide_confnum>
14

> <i_i_glide_posenum>
302

> <r_i_glide_eff_state_penalty>
0

> <s_user_duplicate_titles>
CHEMBL258_lig731

> <s_m_subgroup_title>
dock_pv

> <s_m_subgroupid>
dock_pv

> <b_m_subgroup_collapsed>
1

$$$$
CHEMBL258_lig820
                    3D
 Schrodinger Suite 2021-1.
 54 58  0  0  1  0            999 V2000
   20.2661   37.3171   85.1994 N   0  0  0  0  0  0
   19.8318   38.5347   85.8770 C   0  0  0  0  0  0
   18.4035   38.8715   85.4278 C   0  0  0  0  0  0
   18.3641   39.0192   84.0062 O   0  0  0  0  0  0
   18.8017   37.8526   83.3103 C   0  0  0  0  0  0
   20.2392   37.4896   83.7467 C   0  0  0  0  0  0
   23.6557   36.8588   84.6141 N   0  0  0  0  0  0
   22.7591   37.5648   85.3416 C   0  0  0  0  0  0
   23.0238   38.8642   85.7811 C   0  0  0  0  0  0
   24.2380   39.4341   85.4060 C   0  0  0  0  0  0
   25.1401   38.7612   84.6456 N   0  0  0  0  0  0
   24.8171   37.4907   84.2873 C   0  0  0  0  0  0
   25.7500   36.7577   83.5115 N   0  0  0  0  0  0
   25.4946   35.5632   82.8591 C   0  0  0  0  0  0
   26.5178   35.0249   82.2586 N   0  0  0  0  0  0
   27.0994   37.0184   83.2771 C   0  0  0  0  0  0
   27.5365   35.9120   82.4870 C   0  0  0  0  0  0
   28.8797   35.8210   82.0886 C   0  0  0  0  0  0
   29.7595   36.8216   82.4954 C   0  0  0  0  0  0
   29.3256   37.8876   83.2867 C   0  0  0  0  0  0
   27.9911   38.0271   83.6769 C   0  0  0  0  0  0
   24.5137   40.7419   85.8222 N   0  0  0  0  0  0
   25.6801   41.5008   85.6532 C   0  0  0  0  0  0
   25.5617   42.7076   84.9588 C   0  0  0  0  0  0
   26.6741   43.5230   84.7641 C   0  0  0  0  0  0
   27.9162   43.1314   85.2562 C   0  0  0  0  0  0
   28.0418   41.9396   85.9700 C   0  0  0  0  0  0
   26.9278   41.1214   86.1913 C   0  0  0  0  0  0
   27.0942   39.8860   87.0733 C   0  0  0  0  0  0
   26.5499   44.7063   84.0870 O   0  0  0  0  0  0
   21.5844   36.8728   85.6602 N   0  0  0  0  0  0
   19.8805   38.4069   86.9584 H   0  0  0  0  0  0
   20.4566   39.3819   85.6030 H   0  0  0  0  0  0
   18.1499   39.8207   85.8878 H   0  0  0  0  0  0
   17.6740   38.1357   85.7734 H   0  0  0  0  0  0
   18.7775   38.0665   82.2421 H   0  0  0  0  0  0
   18.1140   37.0221   83.4794 H   0  0  0  0  0  0
   20.9383   38.2640   83.4286 H   0  0  0  0  0  0
   20.5479   36.5522   83.2865 H   0  0  0  0  0  0
   22.3422   39.4005   86.4193 H   0  0  0  0  0  0
   24.5031   35.1333   82.8902 H   0  0  0  0  0  0
   29.2241   34.9885   81.4908 H   0  0  0  0  0  0
   30.7986   36.7648   82.2046 H   0  0  0  0  0  0
   30.0423   38.6382   83.5893 H   0  0  0  0  0  0
   27.6829   38.8722   84.2727 H   0  0  0  0  0  0
   23.7348   41.2386   86.2267 H   0  0  0  0  0  0
   24.6032   43.0133   84.5647 H   0  0  0  0  0  0
   28.7821   43.7578   85.0908 H   0  0  0  0  0  0
   29.0088   41.6655   86.3671 H   0  0  0  0  0  0
   27.1362   38.9699   86.4851 H   0  0  0  0  0  0
   27.9958   39.9459   87.6860 H   0  0  0  0  0  0
   26.2557   39.7987   87.7658 H   0  0  0  0  0  0
   25.6685   44.8460   83.7148 H   0  0  0  0  0  0
   21.6342   35.8874   85.4423 H   0  0  0  0  0  0
  1  6  1  0  0  0
  1  2  1  0  0  0
  1 31  1  0  0  0
  2  3  1  0  0  0
  2 32  1  0  0  0
  2 33  1  0  0  0
  3  4  1  0  0  0
  3 34  1  0  0  0
  3 35  1  0  0  0
  4  5  1  0  0  0
  5  6  1  0  0  0
  5 36  1  0  0  0
  5 37  1  0  0  0
  6 38  1  0  0  0
  6 39  1  0  0  0
  7  8  2  0  0  0
  7 12  1  0  0  0
  8  9  1  0  0  0
  8 31  1  0  0  0
  9 10  2  0  0  0
  9 40  1  0  0  0
 10 11  1  0  0  0
 10 22  1  0  0  0
 11 12  2  0  0  0
 12 13  1  0  0  0
 13 16  1  0  0  0
 13 14  1  0  0  0
 14 15  2  0  0  0
 14 41  1  0  0  0
 15 17  1  0  0  0
 16 17  2  0  0  0
 16 21  1  0  0  0
 17 18  1  0  0  0
 18 19  2  0  0  0
 18 42  1  0  0  0
 19 20  1  0  0  0
 19 43  1  0  0  0
 20 21  2  0  0  0
 20 44  1  0  0  0
 21 45  1  0  0  0
 22 23  1  0  0  0
 22 46  1  0  0  0
 23 24  2  0  0  0
 23 28  1  0  0  0
 24 25  1  0  0  0
 24 47  1  0  0  0
 25 26  2  0  0  0
 25 30  1  0  0  0
 26 27  1  0  0  0
 26 48  1  0  0  0
 27 28  2  0  0  0
 27 49  1  0  0  0
 28 29  1  0  0  0
 29 50  1  0  0  0
 29 51  1  0  0  0
 29 52  1  0  0  0
 30 53  1  0  0  0
 31 54  1  0  0  0
M  END
> <s_m_entry_id>
4558

> <s_m_entry_name>
dock_pv.46

> <s_m_Source_Path>
/home/csk/Desktop/cluster/DUD-E-result/lck

> <s_m_Source_File>
dock_pv.maegz

> <i_m_Source_File_Index>
46

> <chembl_id>
CHEMBL374517

> <chembl_pref_name>
None

> <i_lp_mmshare_version>
53161

> <i_f3d_flags>
0

> <r_lp_tautomer_probability>
1

> <s_lp_Force_Field>
OPLS_2005

> <r_lp_Energy>
28.448639

> <b_lp_Chiralities_Consistent>
1

> <s_lp_Variant>
CHEMBL258_lig820-1

> <s_i_glide_gridfile>
glide-grid_2of2

> <i_i_glide_lignum>
905

> <i_i_glide_rotatable_bonds>
6

> <r_i_docking_score>
-8.0120339289892

> <r_i_glide_ligand_efficiency>
-0.258452707386748

> <r_i_glide_ligand_efficiency_sa>
-0.811898333613556

> <r_i_glide_ligand_efficiency_ln>
-1.80695919033883

> <r_i_glide_gscore>
-8.0120339289892

> <r_i_glide_lipo>
-1.98729333170225

> <r_i_glide_hbond>
-0.685726029038662

> <r_i_glide_metal>
0

> <r_i_glide_rewards>
-2.4324357399707

> <r_i_glide_evdw>
-42.2295951843262

> <r_i_glide_ecoul>
-9.08113384246826

> <r_i_glide_erotb>
0.567071007308953

> <r_i_glide_esite>
0

> <r_i_glide_emodel>
-72.0164396450173

> <r_i_glide_energy>
-51.3107290267944

> <r_i_glide_einternal>
7.68972158432007

> <i_i_glide_confnum>
14

> <i_i_glide_posenum>
146

> <r_i_glide_eff_state_penalty>
0

> <s_user_duplicate_titles>
CHEMBL258_lig820,368706

> <s_m_subgroup_title>
dock_pv

> <s_m_subgroupid>
dock_pv

> <b_m_subgroup_collapsed>
1

$$$$
CHEMBL258_lig813
                    3D
 Schrodinger Suite 2021-1.
 42 45  0  0  1  0            999 V2000
   28.5809   37.0342   83.2858 C   0  0  0  0  0  0
   29.6271   37.9286   83.5201 C   0  0  0  0  0  0
   29.4140   39.2246   83.8587 N   0  0  0  0  0  0
   28.1232   39.6290   83.9748 C   0  0  0  0  0  0
   27.0459   38.8342   83.7458 N   0  0  0  0  0  0
   27.2795   37.5367   83.4007 C   0  0  0  0  0  0
   26.1550   36.7202   83.1441 N   0  0  0  0  0  0
   26.0964   35.6755   82.2425 C   0  0  0  0  0  0
   24.9192   35.1270   82.1027 N   0  0  0  0  0  0
   24.8803   36.7964   83.6885 C   0  0  0  0  0  0
   24.1276   35.8212   82.9766 C   0  0  0  0  0  0
   22.7464   35.7135   83.1967 C   0  0  0  0  0  0
   22.1637   36.5245   84.1701 C   0  0  0  0  0  0
   22.9258   37.4349   84.9007 C   0  0  0  0  0  0
   24.2943   37.6042   84.6728 C   0  0  0  0  0  0
   27.9583   40.9641   84.3721 N   0  0  0  0  0  0
   26.8577   41.7915   84.6819 C   0  0  0  0  0  0
   25.5289   41.3881   84.4863 C   0  0  0  0  0  0
   24.4508   42.2396   84.7606 C   0  0  0  0  0  0
   24.7148   43.5127   85.2850 C   0  0  0  0  0  0
   26.0259   43.9286   85.4947 C   0  0  0  0  0  0
   27.0996   43.0854   85.1885 C   0  0  0  0  0  0
   28.5146   43.6066   85.4016 C   0  0  0  0  0  0
   23.0421   41.7753   84.4856 C   0  0  0  0  0  0
   22.7285   40.5888   84.5365 O   0  0  0  0  0  0
   22.1511   42.7042   84.1493 N   0  0  0  0  0  0
   28.7819   36.0080   83.0174 H   0  0  0  0  0  0
   30.6572   37.6111   83.4384 H   0  0  0  0  0  0
   26.9771   35.3957   81.6872 H   0  0  0  0  0  0
   22.1488   35.0153   82.6328 H   0  0  0  0  0  0
   21.1033   36.4447   84.3637 H   0  0  0  0  0  0
   22.4335   38.0484   85.6433 H   0  0  0  0  0  0
   24.8562   38.3371   85.2312 H   0  0  0  0  0  0
   28.8433   41.4277   84.5067 H   0  0  0  0  0  0
   25.2997   40.4134   84.0885 H   0  0  0  0  0  0
   23.9093   44.1984   85.5222 H   0  0  0  0  0  0
   26.2031   44.9200   85.8874 H   0  0  0  0  0  0
   28.5379   44.6631   85.6688 H   0  0  0  0  0  0
   29.0186   43.0383   86.1826 H   0  0  0  0  0  0
   29.0964   43.4957   84.4870 H   0  0  0  0  0  0
   21.1988   42.4273   83.9800 H   0  0  0  0  0  0
   22.3993   43.6822   84.0910 H   0  0  0  0  0  0
  1  6  1  0  0  0
  1  2  2  0  0  0
  1 27  1  0  0  0
  2  3  1  0  0  0
  2 28  1  0  0  0
  3  4  2  0  0  0
  4 16  1  0  0  0
  4  5  1  0  0  0
  5  6  2  0  0  0
  6  7  1  0  0  0
  7  8  1  0  0  0
  7 10  1  0  0  0
  8  9  2  0  0  0
  8 29  1  0  0  0
  9 11  1  0  0  0
 10 15  1  0  0  0
 10 11  2  0  0  0
 11 12  1  0  0  0
 12 13  2  0  0  0
 12 30  1  0  0  0
 13 14  1  0  0  0
 13 31  1  0  0  0
 14 15  2  0  0  0
 14 32  1  0  0  0
 15 33  1  0  0  0
 16 17  1  0  0  0
 16 34  1  0  0  0
 17 18  2  0  0  0
 17 22  1  0  0  0
 18 19  1  0  0  0
 18 35  1  0  0  0
 19 20  2  0  0  0
 19 24  1  0  0  0
 20 21  1  0  0  0
 20 36  1  0  0  0
 21 22  2  0  0  0
 21 37  1  0  0  0
 22 23  1  0  0  0
 23 38  1  0  0  0
 23 39  1  0  0  0
 23 40  1  0  0  0
 24 25  2  0  0  0
 24 26  1  0  0  0
 26 41  1  0  0  0
 26 42  1  0  0  0
M  END
> <s_m_entry_id>
4559

> <s_m_entry_name>
dock_pv.47

> <s_m_Source_Path>
/home/csk/Desktop/cluster/DUD-E-result/lck

> <s_m_Source_File>
dock_pv.maegz

> <i_m_Source_File_Index>
47

> <chembl_id>
CHEMBL220606

> <chembl_pref_name>
None

> <i_lp_mmshare_version>
53161

> <i_f3d_flags>
0

> <r_lp_tautomer_probability>
1

> <s_lp_Force_Field>
OPLS_2005

> <r_lp_Energy>
9.35023

> <b_lp_Chiralities_Consistent>
1

> <s_lp_Variant>
CHEMBL258_lig813-1

> <s_i_glide_gridfile>
glide-grid_2of2

> <i_i_glide_lignum>
898

> <i_i_glide_rotatable_bonds>
4

> <r_i_docking_score>
-7.98646629573228

> <r_i_glide_ligand_efficiency>
-0.307171780605088

> <r_i_glide_ligand_efficiency_sa>
-0.90999519137998

> <r_i_glide_ligand_efficiency_ln>
-1.87559540381938

> <r_i_glide_gscore>
-7.98646629573228

> <r_i_glide_lipo>
-1.81625926768074

> <r_i_glide_hbond>
-0.405491094853493

> <r_i_glide_metal>
0

> <r_i_glide_rewards>
-3.20902080027398

> <r_i_glide_evdw>
-35.1429786682129

> <r_i_glide_ecoul>
-8.13527965545654

> <r_i_glide_erotb>
0.48030535791303

> <r_i_glide_esite>
-0.0585596091079837

> <r_i_glide_emodel>
-62.3515950151617

> <r_i_glide_energy>
-43.2782583236694

> <r_i_glide_einternal>
4.81634998321533

> <i_i_glide_confnum>
7

> <i_i_glide_posenum>
382

> <r_i_glide_eff_state_penalty>
0

> <s_user_duplicate_titles>
CHEMBL258_lig813

> <s_m_subgroup_title>
dock_pv

> <s_m_subgroupid>
dock_pv

> <b_m_subgroup_collapsed>
1

$$$$
CHEMBL258_lig1410
                    3D
 Schrodinger Suite 2021-1.
 35 37  0  0  1  0            999 V2000
   28.0342   36.8474   82.8872 C   0  0  0  0  0  0
   29.3483   36.5823   82.4879 C   0  0  0  0  0  0
   30.3882   37.4209   82.8870 C   0  0  0  0  0  0
   30.1146   38.5273   83.6904 C   0  0  0  0  0  0
   28.8054   38.8207   84.0642 C   0  0  0  0  0  0
   27.7692   37.9885   83.6582 C   0  0  0  0  0  0
   27.0416   35.9371   82.4867 N   0  0  0  0  0  0
   25.7093   35.8664   82.8158 C   0  0  0  0  0  0
   25.2346   36.5960   83.8561 O   0  0  0  0  0  0
   23.9060   36.3386   83.8736 C   0  0  0  0  0  0
   23.6793   35.4235   82.8538 C   0  0  0  0  0  0
   24.8027   35.1289   82.2209 N   0  0  0  0  0  0
   31.4493   39.5497   84.2903 S   0  0  0  0  0  0
   32.0381   38.6928   85.6863 N   0  0  0  0  0  0
   32.5099   39.5181   83.2788 O   0  0  0  0  0  0
   30.8723   40.8108   84.7639 O   0  0  0  0  0  0
   23.0786   37.0350   84.8447 C   0  0  0  0  0  0
   23.3509   38.2996   85.2403 C   0  0  0  0  0  0
   22.6185   38.9963   86.1692 N   0  0  0  0  0  0
   21.5427   38.4686   86.8136 C   0  0  0  0  0  0
   21.1935   37.1139   86.3952 C   0  0  0  0  0  0
   21.9117   36.4229   85.4748 C   0  0  0  0  0  0
   20.9507   39.0932   87.6876 O   0  0  0  0  0  0
   29.5755   35.7146   81.8839 H   0  0  0  0  0  0
   31.4030   37.1924   82.5927 H   0  0  0  0  0  0
   28.5876   39.6816   84.6809 H   0  0  0  0  0  0
   26.7732   38.2597   83.9624 H   0  0  0  0  0  0
   27.3845   35.2985   81.7831 H   0  0  0  0  0  0
   22.7215   35.0212   82.5632 H   0  0  0  0  0  0
   33.0505   38.5587   85.7070 H   0  0  0  0  0  0
   31.6385   39.0207   86.5741 H   0  0  0  0  0  0
   24.1853   38.8797   84.8691 H   0  0  0  0  0  0
   22.8568   39.9334   86.4536 H   0  0  0  0  0  0
   20.3276   36.6594   86.8524 H   0  0  0  0  0  0
   21.6146   35.4211   85.2071 H   0  0  0  0  0  0
  1  6  1  0  0  0
  1  2  2  0  0  0
  1  7  1  0  0  0
  2  3  1  0  0  0
  2 24  1  0  0  0
  3  4  2  0  0  0
  3 25  1  0  0  0
  4 13  1  0  0  0
  4  5  1  0  0  0
  5  6  2  0  0  0
  5 26  1  0  0  0
  6 27  1  0  0  0
  7  8  1  0  0  0
  7 28  1  0  0  0
  8 12  2  0  0  0
  8  9  1  0  0  0
  9 10  1  0  0  0
 10 11  2  0  0  0
 10 17  1  0  0  0
 11 12  1  0  0  0
 11 29  1  0  0  0
 13 14  1  0  0  0
 13 15  2  0  0  0
 13 16  2  0  0  0
 14 30  1  0  0  0
 14 31  1  0  0  0
 17 18  2  0  0  0
 17 22  1  0  0  0
 18 19  1  0  0  0
 18 32  1  0  0  0
 19 20  1  0  0  0
 19 33  1  0  0  0
 20 21  1  0  0  0
 20 23  2  0  0  0
 21 22  2  0  0  0
 21 34  1  0  0  0
 22 35  1  0  0  0
M  END
> <s_m_entry_id>
4560

> <s_m_entry_name>
dock_pv.48

> <s_m_Source_Path>
/home/csk/Desktop/cluster/DUD-E-result/lck

> <s_m_Source_File>
dock_pv.maegz

> <i_m_Source_File_Index>
48

> <chembl_id>
CHEMBL1271692

> <chembl_pref_name>
None

> <i_lp_mmshare_version>
53161

> <i_f3d_flags>
0

> <r_lp_tautomer_probability>
0.999

> <s_lp_Force_Field>
OPLS_2005

> <r_lp_Energy>
26.897134

> <b_lp_Chiralities_Consistent>
1

> <s_lp_Variant>
CHEMBL258_lig1410-1

> <s_i_glide_gridfile>
glide-grid_2of2

> <i_i_glide_lignum>
1568

> <i_i_glide_rotatable_bonds>
4

> <r_i_docking_score>
-7.98116507104188

> <r_i_glide_ligand_efficiency>
-0.347007177001821

> <r_i_glide_ligand_efficiency_sa>
-0.986842251415573

> <r_i_glide_ligand_efficiency_ln>
-1.92991808338165

> <r_i_glide_gscore>
-7.98116507104188

> <r_i_glide_lipo>
-2.76428235564064

> <r_i_glide_hbond>
-0.634725728814559

> <r_i_glide_metal>
0

> <r_i_glide_rewards>
-2.10126759110409

> <r_i_glide_evdw>
-33.6921806335449

> <r_i_glide_ecoul>
-7.62755918502808

> <r_i_glide_erotb>
0.358086371563627

> <r_i_glide_esite>
-0.0102328576147518

> <r_i_glide_emodel>
-62.0404746563945

> <r_i_glide_energy>
-41.319739818573

> <r_i_glide_einternal>
1.8967912197113

> <i_i_glide_confnum>
1

> <i_i_glide_posenum>
22

> <r_i_glide_eff_state_penalty>
0

> <s_user_duplicate_titles>
CHEMBL258_lig1410

> <s_m_subgroup_title>
dock_pv

> <s_m_subgroupid>
dock_pv

> <b_m_subgroup_collapsed>
1

$$$$
CHEMBL258_lig1173
                    3D
 Schrodinger Suite 2021-1.
 54 60  0  0  1  0            999 V2000
   23.9209   38.2844   84.9999 C   0  0  0  0  0  0
   26.3000   37.3627   83.7531 C   0  0  0  0  0  0
   24.9654   39.8260   86.3056 N   0  0  0  0  0  0
   25.9814   40.5164   87.1003 C   0  0  0  0  0  0
   26.4953   41.8372   86.4606 C   0  0  2  0  0  0
   25.1647   38.9039   85.2809 C   0  0  0  0  0  0
   26.3335   38.5095   84.5902 C   0  0  0  0  0  0
   27.6015   39.0970   84.4822 N   0  0  0  0  0  0
   28.1217   40.3862   84.9830 C   0  0  0  0  0  0
   27.1322   41.5914   85.0516 C   0  0  1  0  0  0
   25.0684   36.6991   83.5639 C   0  0  0  0  0  0
   23.9082   37.1648   84.1461 C   0  0  0  0  0  0
   22.7949   36.2879   83.6871 C   0  0  0  0  0  0
   24.6953   35.5118   82.7441 C   0  0  0  0  0  0
   21.6023   36.3255   83.9636 O   0  0  0  0  0  0
   25.4020   34.7564   82.0871 O   0  0  0  0  0  0
   22.9292   39.0284   85.6819 C   0  0  0  0  0  0
   23.5965   39.9951   86.4838 C   0  0  0  0  0  0
   22.8873   40.8951   87.2956 C   0  0  0  0  0  0
   21.4950   40.8302   87.2721 C   0  0  0  0  0  0
   20.8224   39.8906   86.4995 C   0  0  0  0  0  0
   21.5208   38.9835   85.7071 C   0  0  0  0  0  0
   28.4210   38.2189   83.7756 C   0  0  0  0  0  0
   27.6172   37.1535   83.2865 C   0  0  0  0  0  0
   28.2191   36.1593   82.4872 C   0  0  0  0  0  0
   29.5840   36.2229   82.2241 C   0  0  0  0  0  0
   30.3537   37.2674   82.7218 C   0  0  0  0  0  0
   29.7980   38.2830   83.4983 C   0  0  0  0  0  0
   23.3587   35.4207   82.8374 N   0  0  0  0  0  0
   26.1506   41.5272   84.0273 O   0  0  0  0  0  0
   27.5167   42.5444   87.4063 C   0  0  0  0  0  0
   25.3793   42.7240   86.3167 O   0  0  0  0  0  0
   27.4238   43.7431   87.6937 O   0  0  0  0  0  0
   28.4891   41.7231   87.8579 O   0  0  0  0  0  0
   29.5366   42.2192   88.6789 C   0  0  0  0  0  0
   26.7899   39.8046   87.2737 H   0  0  0  0  0  0
   25.5619   40.7059   88.0900 H   0  0  0  0  0  0
   28.9116   40.7000   84.2970 H   0  0  0  0  0  0
   28.6364   40.1930   85.9233 H   0  0  0  0  0  0
   27.7028   42.4861   84.7881 H   0  0  0  0  0  0
   23.3866   41.6362   87.9024 H   0  0  0  0  0  0
   20.9248   41.5335   87.8619 H   0  0  0  0  0  0
   19.7404   39.8738   86.5051 H   0  0  0  0  0  0
   20.9631   38.2805   85.1129 H   0  0  0  0  0  0
   27.6633   35.3316   82.0857 H   0  0  0  0  0  0
   30.0477   35.4528   81.6239 H   0  0  0  0  0  0
   31.4101   37.2912   82.4988 H   0  0  0  0  0  0
   30.4241   39.0810   83.8664 H   0  0  0  0  0  0
   22.8219   34.7208   82.3471 H   0  0  0  0  0  0
   25.4017   42.0573   84.3227 H   0  0  0  0  0  0
   25.7104   43.6295   86.2790 H   0  0  0  0  0  0
   30.2537   41.4226   88.8857 H   0  0  0  0  0  0
   30.0714   43.0335   88.1839 H   0  0  0  0  0  0
   29.1480   42.5892   89.6301 H   0  0  0  0  0  0
  1 12  2  0  0  0
  1  6  1  0  0  0
  1 17  1  0  0  0
  2  7  1  0  0  0
  2 24  1  0  0  0
  2 11  2  0  0  0
  3  4  1  0  0  0
  3  6  1  0  0  0
  3 18  1  0  0  0
  4  5  1  0  0  0
  4 36  1  0  0  0
  4 37  1  0  0  0
  5 10  1  0  0  0
  5 31  1  0  0  0
  5 32  1  0  0  0
  6  7  2  0  0  0
  7  8  1  0  0  0
  8 23  1  0  0  0
  8  9  1  0  0  0
  9 10  1  0  0  0
  9 38  1  0  0  0
  9 39  1  0  0  0
 10 30  1  0  0  0
 10 40  1  0  0  0
 11 12  1  0  0  0
 11 14  1  0  0  0
 12 13  1  0  0  0
 13 15  2  0  0  0
 13 29  1  0  0  0
 14 16  2  0  0  0
 14 29  1  0  0  0
 17 18  2  0  0  0
 17 22  1  0  0  0
 18 19  1  0  0  0
 19 20  2  0  0  0
 19 41  1  0  0  0
 20 21  1  0  0  0
 20 42  1  0  0  0
 21 22  2  0  0  0
 21 43  1  0  0  0
 22 44  1  0  0  0
 23 24  2  0  0  0
 23 28  1  0  0  0
 24 25  1  0  0  0
 25 26  2  0  0  0
 25 45  1  0  0  0
 26 27  1  0  0  0
 26 46  1  0  0  0
 27 28  2  0  0  0
 27 47  1  0  0  0
 28 48  1  0  0  0
 29 49  1  0  0  0
 30 50  1  0  0  0
 31 33  2  0  0  0
 31 34  1  0  0  0
 32 51  1  0  0  0
 34 35  1  0  0  0
 35 52  1  0  0  0
 35 53  1  0  0  0
 35 54  1  0  0  0
M  END
> <s_m_entry_id>
4561

> <s_m_entry_name>
dock_pv.49

> <s_m_Source_Path>
/home/csk/Desktop/cluster/DUD-E-result/lck

> <s_m_Source_File>
dock_pv.maegz

> <i_m_Source_File_Index>
49

> <chembl_id>
CHEMBL564940

> <chembl_pref_name>
None

> <i_lp_mmshare_version>
53161

> <i_f3d_flags>
0

> <r_lp_tautomer_probability>
1

> <s_lp_Force_Field>
OPLS_2005

> <r_lp_Energy>
132.255273

> <b_lp_Chiralities_Consistent>
1

> <s_lp_Variant>
CHEMBL258_lig1173-1

> <s_i_glide_gridfile>
glide-grid_2of2

> <i_i_glide_lignum>
1261

> <i_i_glide_rotatable_bonds>
4

> <r_i_docking_score>
-7.97653136919169

> <r_i_glide_ligand_efficiency>
-0.22790089626262

> <r_i_glide_ligand_efficiency_sa>
-0.745478942942961

> <r_i_glide_ligand_efficiency_ln>
-1.75102566511321

> <r_i_glide_gscore>
-7.97653136919169

> <r_i_glide_lipo>
-2.64106124328583

> <r_i_glide_hbond>
-0.49625295177125

> <r_i_glide_metal>
0

> <r_i_glide_rewards>
-2.07719885093294

> <r_i_glide_evdw>
-39.0351448059082

> <r_i_glide_ecoul>
-5.82943677902222

> <r_i_glide_erotb>
0.0641544339470723

> <r_i_glide_esite>
0

> <r_i_glide_emodel>
-67.5784139662425

> <r_i_glide_energy>
-44.8645815849304

> <r_i_glide_einternal>
0.0569413416087627

> <i_i_glide_confnum>
1

> <i_i_glide_posenum>
322

> <r_i_glide_eff_state_penalty>
0

> <s_user_duplicate_titles>
CHEMBL258_lig1173,555094

> <s_m_subgroup_title>
dock_pv

> <s_m_subgroupid>
dock_pv

> <b_m_subgroup_collapsed>
1

$$$$
CHEMBL258_lig1032
                    3D
 Schrodinger Suite 2021-1.
 46 50  0  0  1  0            999 V2000
   25.6670   35.5292   82.2265 N   0  0  0  0  0  0
   24.3482   35.4202   82.4869 C   0  0  0  0  0  0
   23.6398   36.1130   83.3898 N   0  0  0  0  0  0
   24.2755   37.0817   84.0899 C   0  0  0  0  0  0
   26.2604   36.4899   82.9535 N   0  0  0  0  0  0
   25.6587   37.3368   83.9083 C   0  0  0  0  0  0
   26.6693   38.2327   84.4049 C   0  0  0  0  0  0
   27.8591   37.8642   83.7290 C   0  0  0  0  0  0
   27.5837   36.7930   82.8870 C   0  0  0  0  0  0
   23.5188   37.8248   85.0075 N   0  0  0  0  0  0
   22.1326   37.9611   85.2090 C   0  0  0  0  0  0
   21.1696   37.5263   84.2830 C   0  0  0  0  0  0
   20.3951   38.8611   86.6839 N   0  0  0  0  0  0
   21.6942   38.6080   86.3698 C   0  0  0  0  0  0
   19.5153   38.4612   85.7618 C   0  0  0  0  0  0
   19.8227   37.8010   84.5414 C   0  0  0  0  0  0
   18.5873   37.5969   83.8470 C   0  0  0  0  0  0
   17.6002   38.1331   84.6375 C   0  0  0  0  0  0
   18.1504   38.6223   85.7939 N   0  0  0  0  0  0
   26.4321   39.3441   85.4319 C   0  0  0  0  0  0
   26.5990   40.7501   84.8289 C   0  0  0  0  0  0
   27.2204   39.1372   86.7367 C   0  0  0  0  0  0
   29.2199   38.4142   83.7906 C   0  0  0  0  0  0
   29.6761   39.4440   84.4611 N   0  0  0  0  0  0
   31.0339   39.5407   84.1710 N   0  0  0  0  0  0
   31.2899   38.5591   83.3449 C   0  0  0  0  0  0
   30.1956   37.8136   83.0575 O   0  0  0  0  0  0
   32.6046   38.1879   82.7064 C   0  0  0  0  0  0
   23.7911   34.6833   81.9270 H   0  0  0  0  0  0
   28.2368   36.2450   82.2219 H   0  0  0  0  0  0
   24.0839   38.4092   85.6036 H   0  0  0  0  0  0
   21.4250   37.0290   83.3629 H   0  0  0  0  0  0
   22.4086   38.9545   87.1011 H   0  0  0  0  0  0
   18.4254   37.1357   82.8875 H   0  0  0  0  0  0
   16.5376   38.2211   84.4833 H   0  0  0  0  0  0
   17.5810   39.1008   86.4870 H   0  0  0  0  0  0
   25.3942   39.3197   85.7512 H   0  0  0  0  0  0
   25.9190   40.8989   83.9898 H   0  0  0  0  0  0
   26.3769   41.5235   85.5659 H   0  0  0  0  0  0
   27.6059   40.9394   84.4652 H   0  0  0  0  0  0
   26.9499   38.1957   87.2125 H   0  0  0  0  0  0
   28.2974   39.1267   86.5839 H   0  0  0  0  0  0
   27.0092   39.9305   87.4557 H   0  0  0  0  0  0
   33.4120   38.8492   83.0235 H   0  0  0  0  0  0
   32.5513   38.2410   81.6189 H   0  0  0  0  0  0
   32.8979   37.1710   82.9680 H   0  0  0  0  0  0
  1  5  1  0  0  0
  1  2  2  0  0  0
  2  3  1  0  0  0
  2 29  1  0  0  0
  3  4  2  0  0  0
  4 10  1  0  0  0
  4  6  1  0  0  0
  5  9  1  0  0  0
  5  6  1  0  0  0
  6  7  2  0  0  0
  7  8  1  0  0  0
  7 20  1  0  0  0
  8  9  2  0  0  0
  8 23  1  0  0  0
  9 30  1  0  0  0
 10 11  1  0  0  0
 10 31  1  0  0  0
 11 14  1  0  0  0
 11 12  2  0  0  0
 12 16  1  0  0  0
 12 32  1  0  0  0
 13 15  1  0  0  0
 13 14  2  0  0  0
 14 33  1  0  0  0
 15 16  2  0  0  0
 15 19  1  0  0  0
 16 17  1  0  0  0
 17 18  2  0  0  0
 17 34  1  0  0  0
 18 19  1  0  0  0
 18 35  1  0  0  0
 19 36  1  0  0  0
 20 21  1  0  0  0
 20 22  1  0  0  0
 20 37  1  0  0  0
 21 38  1  0  0  0
 21 39  1  0  0  0
 21 40  1  0  0  0
 22 41  1  0  0  0
 22 42  1  0  0  0
 22 43  1  0  0  0
 23 24  2  0  0  0
 23 27  1  0  0  0
 24 25  1  0  0  0
 25 26  2  0  0  0
 26 27  1  0  0  0
 26 28  1  0  0  0
 28 44  1  0  0  0
 28 45  1  0  0  0
 28 46  1  0  0  0
M  END
> <s_m_entry_id>
4562

> <s_m_entry_name>
dock_pv.50

> <s_m_Source_Path>
/home/csk/Desktop/cluster/DUD-E-result/lck

> <s_m_Source_File>
dock_pv.maegz

> <i_m_Source_File_Index>
50

> <chembl_id>
CHEMBL258694

> <chembl_pref_name>
None

> <i_lp_mmshare_version>
53161

> <i_f3d_flags>
0

> <r_lp_tautomer_probability>
1

> <s_lp_Force_Field>
OPLS_2005

> <r_lp_Energy>
26.144542

> <b_lp_Chiralities_Consistent>
1

> <s_lp_Variant>
CHEMBL258_lig1032-1

> <s_i_glide_gridfile>
glide-grid_2of2

> <i_i_glide_lignum>
1120

> <i_i_glide_rotatable_bonds>
4

> <r_i_docking_score>
-7.93420505312928

> <r_i_glide_ligand_efficiency>
-0.283364466183189

> <r_i_glide_ligand_efficiency_sa>
-0.86046141207756

> <r_i_glide_ligand_efficiency_ln>
-1.83144748464527

> <r_i_glide_gscore>
-7.93420505312928

> <r_i_glide_lipo>
-2.84349289471968

> <r_i_glide_hbond>
-0.192175611019431

> <r_i_glide_metal>
0

> <r_i_glide_rewards>
-2.71371290168255

> <r_i_glide_evdw>
-42.2596282958984

> <r_i_glide_ecoul>
-2.87703227996826

> <r_i_glide_erotb>
0.413817104405585

> <r_i_glide_esite>
-0.054104493323036

> <r_i_glide_emodel>
-66.2462771544696

> <r_i_glide_energy>
-45.1366605758667

> <r_i_glide_einternal>
1.92897021770477

> <i_i_glide_confnum>
2

> <i_i_glide_posenum>
4

> <r_i_glide_eff_state_penalty>
0

> <s_user_duplicate_titles>
CHEMBL258_lig1032,427557

> <s_m_subgroup_title>
dock_pv

> <s_m_subgroupid>
dock_pv

> <b_m_subgroup_collapsed>
1

$$$$
CHEMBL258_lig624
                    3D
 Schrodinger Suite 2021-1.
 58 60  0  0  1  0            999 V2000
   27.2046   38.1515   84.2711 C   0  0  0  0  0  0
   27.7683   37.3274   83.2870 C   0  0  0  0  0  0
   26.9546   36.4253   82.5918 C   0  0  0  0  0  0
   25.8530   38.0334   84.6145 C   0  0  0  0  0  0
   25.0158   37.1032   83.9383 C   0  0  0  0  0  0
   25.5880   36.3016   82.9026 C   0  0  0  0  0  0
   24.8480   35.4193   82.1802 N   0  0  0  0  0  0
   23.5336   35.3436   82.4875 C   0  0  0  0  0  0
   22.8848   36.0170   83.4599 N   0  0  0  0  0  0
   23.6207   36.8941   84.1870 C   0  0  0  0  0  0
   22.9318   37.5965   85.1922 N   0  0  0  0  0  0
   21.5506   37.5433   85.4560 C   0  0  0  0  0  0
   21.0759   36.7215   86.4837 C   0  0  0  0  0  0
   19.7034   36.6213   86.7242 C   0  0  0  0  0  0
   18.8000   37.3543   85.9563 C   0  0  0  0  0  0
   19.2639   38.1701   84.9273 C   0  0  0  0  0  0
   20.6373   38.2763   84.6823 C   0  0  0  0  0  0
   29.1232   37.4363   83.0384 O   0  0  0  0  0  0
   28.0738   39.1878   84.9837 C   0  0  0  0  0  0
   29.7978   36.3947   82.3343 C   0  0  0  0  0  0
   18.1229   39.0207   83.9501 Cl  0  0  0  0  0  0
   21.0779   39.0805   83.6874 F   0  0  0  0  0  0
   28.1953   40.4348   84.2085 N   0  0  2  0  0  0
   29.4226   41.2546   84.4881 C   0  0  1  0  0  0
   29.8132   41.4522   85.9850 C   0  0  0  0  0  0
   30.6173   40.6569   83.6919 C   0  0  0  0  0  0
   31.1872   41.4209   82.7585 N   0  0  0  0  0  0
   31.0395   39.5265   83.9302 O   0  0  0  0  0  0
   26.9615   41.2179   84.3268 C   0  0  0  0  0  0
   28.8421   42.2296   86.7701 N   0  0  0  0  0  0
   29.1192   42.0722   88.1956 C   0  0  0  0  0  0
   28.8816   43.6522   86.4253 C   0  0  0  0  0  0
   27.3530   35.8022   81.8053 H   0  0  0  0  0  0
   25.4366   38.6635   85.3883 H   0  0  0  0  0  0
   22.9507   34.6329   81.9252 H   0  0  0  0  0  0
   23.4455   38.3193   85.6713 H   0  0  0  0  0  0
   21.7647   36.1374   87.0768 H   0  0  0  0  0  0
   19.3319   35.9673   87.5001 H   0  0  0  0  0  0
   17.7395   37.2691   86.1423 H   0  0  0  0  0  0
   29.0534   38.7374   85.1414 H   0  0  0  0  0  0
   27.6938   39.3906   85.9868 H   0  0  0  0  0  0
   30.8718   36.5752   82.3692 H   0  0  0  0  0  0
   29.6116   35.4163   82.7819 H   0  0  0  0  0  0
   29.5050   36.3626   81.2840 H   0  0  0  0  0  0
   29.2856   42.2578   84.0781 H   0  0  0  0  0  0
   30.7968   41.9210   86.0634 H   0  0  0  0  0  0
   29.9255   40.4679   86.4406 H   0  0  0  0  0  0
   31.9624   41.0505   82.2309 H   0  0  0  0  0  0
   30.9489   42.4108   82.6808 H   0  0  0  0  0  0
   27.0557   42.1921   83.8514 H   0  0  0  0  0  0
   26.1283   40.7055   83.8446 H   0  0  0  0  0  0
   26.6946   41.3943   85.3706 H   0  0  0  0  0  0
   29.0449   41.0214   88.4830 H   0  0  0  0  0  0
   28.3908   42.6198   88.7965 H   0  0  0  0  0  0
   30.1210   42.4254   88.4523 H   0  0  0  0  0  0
   28.5843   43.8225   85.3898 H   0  0  0  0  0  0
   28.1872   44.2223   87.0466 H   0  0  0  0  0  0
   29.8816   44.0734   86.5617 H   0  0  0  0  0  0
  1  2  2  0  0  0
  1 19  1  0  0  0
  1  4  1  0  0  0
  2 18  1  0  0  0
  2  3  1  0  0  0
  3  6  2  0  0  0
  3 33  1  0  0  0
  4  5  2  0  0  0
  4 34  1  0  0  0
  5 10  1  0  0  0
  5  6  1  0  0  0
  6  7  1  0  0  0
  7  8  2  0  0  0
  8  9  1  0  0  0
  8 35  1  0  0  0
  9 10  2  0  0  0
 10 11  1  0  0  0
 11 12  1  0  0  0
 11 36  1  0  0  0
 12 17  2  0  0  0
 12 13  1  0  0  0
 13 14  2  0  0  0
 13 37  1  0  0  0
 14 15  1  0  0  0
 14 38  1  0  0  0
 15 16  2  0  0  0
 15 39  1  0  0  0
 16 17  1  0  0  0
 16 21  1  0  0  0
 17 22  1  0  0  0
 18 20  1  0  0  0
 19 23  1  0  0  0
 19 40  1  0  0  0
 19 41  1  0  0  0
 20 42  1  0  0  0
 20 43  1  0  0  0
 20 44  1  0  0  0
 23 24  1  0  0  0
 23 29  1  0  0  0
 24 25  1  0  0  0
 24 26  1  0  0  0
 24 45  1  0  0  0
 25 30  1  0  0  0
 25 46  1  0  0  0
 25 47  1  0  0  0
 26 27  1  0  0  0
 26 28  2  0  0  0
 27 48  1  0  0  0
 27 49  1  0  0  0
 29 50  1  0  0  0
 29 51  1  0  0  0
 29 52  1  0  0  0
 30 31  1  0  0  0
 30 32  1  0  0  0
 31 53  1  0  0  0
 31 54  1  0  0  0
 31 55  1  0  0  0
 32 56  1  0  0  0
 32 57  1  0  0  0
 32 58  1  0  0  0
M  END
> <s_m_entry_id>
4563

> <s_m_entry_name>
dock_pv.51

> <s_m_Source_Path>
/home/csk/Desktop/cluster/DUD-E-result/lck

> <s_m_Source_File>
dock_pv.maegz

> <i_m_Source_File_Index>
51

> <chembl_id>
CHEMBL380889

> <chembl_pref_name>
None

> <i_lp_mmshare_version>
53161

> <i_f3d_flags>
0

> <r_lp_tautomer_probability>
0.999978000241998

> <s_lp_Force_Field>
OPLS_2005

> <r_lp_Energy>
27.390713

> <b_lp_Chiralities_Consistent>
1

> <s_lp_Variant>
CHEMBL258_lig624-1

> <s_i_glide_gridfile>
glide-grid_2of2

> <i_i_glide_lignum>
703

> <i_i_glide_rotatable_bonds>
9

> <r_i_docking_score>
-7.92528662295035

> <r_i_glide_ligand_efficiency>
-0.247665206967199

> <r_i_glide_ligand_efficiency_sa>
-0.78628801924295

> <r_i_glide_ligand_efficiency_ln>
-1.77468771003268

> <r_i_glide_gscore>
-7.92528662295035

> <r_i_glide_lipo>
-3.07518189062128

> <r_i_glide_hbond>
-0.255480623848657

> <r_i_glide_metal>
0

> <r_i_glide_rewards>
-1.74182873376715

> <r_i_glide_evdw>
-40.1346015930176

> <r_i_glide_ecoul>
-8.64917278289795

> <r_i_glide_erotb>
0.568552215759093

> <r_i_glide_esite>
-0.117241593386785

> <r_i_glide_emodel>
-66.1240745647586

> <r_i_glide_energy>
-48.7837743759155

> <r_i_glide_einternal>
10.2581510543823

> <i_i_glide_confnum>
171

> <i_i_glide_posenum>
26

> <r_i_glide_eff_state_penalty>
0

> <s_user_duplicate_titles>
CHEMBL258_lig624

> <s_m_subgroup_title>
dock_pv

> <s_m_subgroupid>
dock_pv

> <b_m_subgroup_collapsed>
1

$$$$
CHEMBL258_lig1051
                    3D
 Schrodinger Suite 2021-1.
 38 40  0  0  1  0            999 V2000
   23.6234   36.2212   83.6221 C   0  0  0  0  0  0
   24.8624   35.8570   82.9396 C   0  0  0  0  0  0
   26.0256   36.7070   83.3281 C   0  0  0  0  0  0
   23.5532   37.2529   84.4933 C   0  0  0  0  0  0
   24.6249   38.0280   84.8086 O   0  0  0  0  0  0
   25.8602   37.7436   84.2604 C   0  0  0  0  0  0
   27.2945   36.5002   82.7740 C   0  0  0  0  0  0
   26.9394   38.5470   84.6582 C   0  0  0  0  0  0
   28.3747   37.2815   83.1792 C   0  0  0  0  0  0
   24.9499   34.9764   82.0872 O   0  0  0  0  0  0
   28.2053   38.2998   84.1115 C   0  0  0  0  0  0
   22.3159   37.8019   85.1196 C   0  0  0  0  0  0
   29.3088   39.0211   84.4889 O   0  0  0  0  0  0
   22.3981   38.5088   86.3263 C   0  0  0  0  0  0
   21.0515   37.6628   84.5238 C   0  0  0  0  0  0
   19.8989   38.2393   85.0952 C   0  0  0  0  0  0
   21.2736   39.0865   86.9101 C   0  0  0  0  0  0
   20.0244   38.9491   86.2977 C   0  0  0  0  0  0
   21.4129   39.7814   88.0874 O   0  0  0  0  0  0
   21.6631   41.1702   87.9053 C   0  0  0  0  0  0
   18.6339   38.1659   84.5352 O   0  0  0  0  0  0
   18.4474   37.4681   83.3089 C   0  0  0  0  0  0
   18.9278   39.5332   86.8859 O   0  0  0  0  0  0
   26.7453   39.5677   85.5648 O   0  0  0  0  0  0
   22.7307   35.6658   83.3813 H   0  0  0  0  0  0
   27.4624   35.7166   82.0455 H   0  0  0  0  0  0
   29.3544   37.0925   82.7635 H   0  0  0  0  0  0
   29.2383   39.4300   85.3537 H   0  0  0  0  0  0
   23.3502   38.6389   86.8186 H   0  0  0  0  0  0
   20.9776   37.1254   83.5913 H   0  0  0  0  0  0
   21.7620   41.6522   88.8775 H   0  0  0  0  0  0
   22.5888   41.3412   87.3542 H   0  0  0  0  0  0
   20.8460   41.6624   87.3739 H   0  0  0  0  0  0
   17.3941   37.5022   83.0320 H   0  0  0  0  0  0
   18.7299   36.4180   83.3979 H   0  0  0  0  0  0
   19.0130   37.9293   82.4980 H   0  0  0  0  0  0
   18.0960   39.4134   86.4091 H   0  0  0  0  0  0
   27.4476   40.2212   85.5954 H   0  0  0  0  0  0
  1  2  1  0  0  0
  1  4  2  0  0  0
  1 25  1  0  0  0
  2 10  2  0  0  0
  2  3  1  0  0  0
  3  7  1  0  0  0
  3  6  2  0  0  0
  4 12  1  0  0  0
  4  5  1  0  0  0
  5  6  1  0  0  0
  6  8  1  0  0  0
  7  9  2  0  0  0
  7 26  1  0  0  0
  8 11  2  0  0  0
  8 24  1  0  0  0
  9 11  1  0  0  0
  9 27  1  0  0  0
 11 13  1  0  0  0
 12 14  1  0  0  0
 12 15  2  0  0  0
 13 28  1  0  0  0
 14 17  2  0  0  0
 14 29  1  0  0  0
 15 16  1  0  0  0
 15 30  1  0  0  0
 16 18  2  0  0  0
 16 21  1  0  0  0
 17 18  1  0  0  0
 17 19  1  0  0  0
 18 23  1  0  0  0
 19 20  1  0  0  0
 20 31  1  0  0  0
 20 32  1  0  0  0
 20 33  1  0  0  0
 21 22  1  0  0  0
 22 34  1  0  0  0
 22 35  1  0  0  0
 22 36  1  0  0  0
 23 37  1  0  0  0
 24 38  1  0  0  0
M  END
> <s_m_entry_id>
4564

> <s_m_entry_name>
dock_pv.52

> <s_m_Source_Path>
/home/csk/Desktop/cluster/DUD-E-result/lck

> <s_m_Source_File>
dock_pv.maegz

> <i_m_Source_File_Index>
52

> <chembl_id>
CHEMBL491594

> <chembl_pref_name>
None

> <i_lp_mmshare_version>
53161

> <i_f3d_flags>
0

> <r_lp_tautomer_probability>
0.99999999999482

> <s_lp_Force_Field>
OPLS_2005

> <r_lp_Energy>
19.299161

> <b_lp_Chiralities_Consistent>
1

> <s_lp_Variant>
CHEMBL258_lig1051-1

> <s_i_glide_gridfile>
glide-grid_2of2

> <i_i_glide_lignum>
1139

> <i_i_glide_rotatable_bonds>
6

> <r_i_docking_score>
-7.90640090932768

> <r_i_glide_ligand_efficiency>
-0.329433371221987

> <r_i_glide_ligand_efficiency_sa>
-0.950250275173014

> <r_i_glide_ligand_efficiency_ln>
-1.89236453869941

> <r_i_glide_gscore>
-7.90640090932768

> <r_i_glide_lipo>
-3.18926211858817

> <r_i_glide_hbond>
-0.31846691074597

> <r_i_glide_metal>
0

> <r_i_glide_rewards>
-1.72838375674228

> <r_i_glide_evdw>
-35.3427467346191

> <r_i_glide_ecoul>
-7.17027187347412

> <r_i_glide_erotb>
0.17238999450081

> <r_i_glide_esite>
0

> <r_i_glide_emodel>
-60.9184429823223

> <r_i_glide_energy>
-42.5130186080933

> <r_i_glide_einternal>
2.74177956581116

> <i_i_glide_confnum>
2

> <i_i_glide_posenum>
13

> <r_i_glide_eff_state_penalty>
0

> <s_user_duplicate_titles>
CHEMBL258_lig1051

> <s_m_subgroup_title>
dock_pv

> <s_m_subgroupid>
dock_pv

> <b_m_subgroup_collapsed>
1

$$$$
CHEMBL258_lig233
                    3D
 Schrodinger Suite 2021-1.
 36 39  0  0  1  0            999 V2000
   23.8940   36.4867   83.6898 C   0  0  0  0  0  0
   25.2344   36.8836   83.6177 N   0  0  0  0  0  0
   23.5543   38.2738   85.2810 N   0  0  0  0  0  0
   23.0708   37.2089   84.5765 C   0  0  0  0  0  0
   25.7545   37.9094   84.3252 C   0  0  0  0  0  0
   24.8630   38.6291   85.1660 C   0  0  0  0  0  0
   24.9711   35.1851   82.1933 N   0  0  0  0  0  0
   25.8302   36.0447   82.6987 C   0  0  0  0  0  0
   23.8053   35.4215   82.7568 C   0  0  0  0  0  0
   21.5824   36.9008   84.7869 C   0  0  0  0  0  0
   27.1251   38.2861   84.2514 C   0  0  0  0  0  0
   25.3538   39.7340   85.9012 C   0  0  0  0  0  0
   21.1505   36.8653   86.2811 C   0  0  0  0  0  0
   20.6815   37.8379   83.9447 C   0  0  0  0  0  0
   27.5746   39.3730   84.9998 C   0  0  0  0  0  0
   26.6989   40.0911   85.8093 C   0  0  0  0  0  0
   19.1782   37.5476   84.1334 C   0  0  0  0  0  0
   19.6427   36.5756   86.4412 C   0  0  0  0  0  0
   18.7731   37.5456   85.6199 C   0  0  0  0  0  0
   26.8703   36.1213   82.4184 H   0  0  0  0  0  0
   22.9396   34.8357   82.4873 H   0  0  0  0  0  0
   21.4564   35.8867   84.4041 H   0  0  0  0  0  0
   27.8198   37.7416   83.6298 H   0  0  0  0  0  0
   24.6805   40.2932   86.5347 H   0  0  0  0  0  0
   21.6970   36.0801   86.8046 H   0  0  0  0  0  0
   21.3739   37.8142   86.7705 H   0  0  0  0  0  0
   20.8783   38.8796   84.2017 H   0  0  0  0  0  0
   20.9078   37.7075   82.8860 H   0  0  0  0  0  0
   28.6144   39.6640   84.9512 H   0  0  0  0  0  0
   27.0701   40.9351   86.3730 H   0  0  0  0  0  0
   18.9394   36.5782   83.6913 H   0  0  0  0  0  0
   18.5858   38.2841   83.5895 H   0  0  0  0  0  0
   19.4410   35.5522   86.1208 H   0  0  0  0  0  0
   19.3519   36.6216   87.4911 H   0  0  0  0  0  0
   17.7200   37.2761   85.7154 H   0  0  0  0  0  0
   18.8624   38.5552   86.0260 H   0  0  0  0  0  0
  1  2  1  0  0  0
  1  4  1  0  0  0
  1  9  2  0  0  0
  2  5  1  0  0  0
  2  8  1  0  0  0
  3  4  2  0  0  0
  3  6  1  0  0  0
  4 10  1  0  0  0
  5 11  2  0  0  0
  5  6  1  0  0  0
  6 12  2  0  0  0
  7  9  1  0  0  0
  7  8  2  0  0  0
  8 20  1  0  0  0
  9 21  1  0  0  0
 10 13  1  0  0  0
 10 14  1  0  0  0
 10 22  1  0  0  0
 11 15  1  0  0  0
 11 23  1  0  0  0
 12 16  1  0  0  0
 12 24  1  0  0  0
 13 18  1  0  0  0
 13 25  1  0  0  0
 13 26  1  0  0  0
 14 17  1  0  0  0
 14 27  1  0  0  0
 14 28  1  0  0  0
 15 16  2  0  0  0
 15 29  1  0  0  0
 16 30  1  0  0  0
 17 19  1  0  0  0
 17 31  1  0  0  0
 17 32  1  0  0  0
 18 19  1  0  0  0
 18 33  1  0  0  0
 18 34  1  0  0  0
 19 35  1  0  0  0
 19 36  1  0  0  0
M  END
> <s_m_entry_id>
4565

> <s_m_entry_name>
dock_pv.53

> <s_m_Source_Path>
/home/csk/Desktop/cluster/DUD-E-result/lck

> <s_m_Source_File>
dock_pv.maegz

> <i_m_Source_File_Index>
53

> <chembl_id>
CHEMBL315791

> <chembl_pref_name>
None

> <i_lp_mmshare_version>
53161

> <i_f3d_flags>
0

> <r_lp_tautomer_probability>
1

> <s_lp_Force_Field>
OPLS_2005

> <r_lp_Energy>
52.601953

> <b_lp_Chiralities_Consistent>
1

> <s_lp_Variant>
CHEMBL258_lig233-1

> <s_i_glide_gridfile>
glide-grid_2of2

> <i_i_glide_lignum>
261

> <i_i_glide_rotatable_bonds>
1

> <r_i_docking_score>
-7.90006717696609

> <r_i_glide_ligand_efficiency>
-0.415793009314005

> <r_i_glide_ligand_efficiency_sa>
-1.1095027504916

> <r_i_glide_ligand_efficiency_ln>
-2.0028367072459

> <r_i_glide_gscore>
-7.90006717696609

> <r_i_glide_lipo>
-2.79619540913443

> <r_i_glide_hbond>
-0.235237764706396

> <r_i_glide_metal>
0

> <r_i_glide_rewards>
-3.29506803771289

> <r_i_glide_evdw>
-30.9792652130127

> <r_i_glide_ecoul>
-2.01382446289062

> <r_i_glide_erotb>
0.277470964671846

> <r_i_glide_esite>
0

> <r_i_glide_emodel>
-48.3780802114087

> <r_i_glide_energy>
-32.9930896759033

> <r_i_glide_einternal>
0.123453669250011

> <i_i_glide_confnum>
1

> <i_i_glide_posenum>
170

> <r_i_glide_eff_state_penalty>
0

> <s_user_duplicate_titles>
CHEMBL258_lig233

> <s_m_subgroup_title>
dock_pv

> <s_m_subgroupid>
dock_pv

> <b_m_subgroup_collapsed>
1

$$$$
CHEMBL258_lig1065
                    3D
 Schrodinger Suite 2021-1.
 36 38  0  0  1  0            999 V2000
   23.5198   37.2609   84.5501 C   0  0  0  0  0  0
   23.6122   36.2216   83.6864 C   0  0  0  0  0  0
   24.8658   35.8755   83.0168 C   0  0  0  0  0  0
   24.9702   34.9872   82.1751 O   0  0  0  0  0  0
   26.0104   36.7591   83.4035 C   0  0  0  0  0  0
   27.2991   36.5901   82.8770 C   0  0  0  0  0  0
   28.3471   37.4196   83.2874 C   0  0  0  0  0  0
   28.1195   38.4492   84.1970 C   0  0  0  0  0  0
   26.8408   38.6413   84.7123 C   0  0  0  0  0  0
   25.8037   37.8022   84.3158 C   0  0  0  0  0  0
   24.5710   38.0647   84.8596 O   0  0  0  0  0  0
   22.2818   37.8038   85.1762 C   0  0  0  0  0  0
   21.0142   37.6440   84.5953 C   0  0  0  0  0  0
   19.8667   38.2347   85.1630 C   0  0  0  0  0  0
   20.0045   38.9795   86.3428 C   0  0  0  0  0  0
   21.2582   39.1388   86.9384 C   0  0  0  0  0  0
   22.3738   38.5412   86.3641 C   0  0  0  0  0  0
   18.9177   39.5807   86.9260 O   0  0  0  0  0  0
   21.4151   39.8738   88.0887 O   0  0  0  0  0  0
   21.5744   41.2699   87.8615 C   0  0  0  0  0  0
   18.5961   38.1444   84.6195 O   0  0  0  0  0  0
   18.4057   37.4472   83.3940 C   0  0  0  0  0  0
   22.7310   35.6471   83.4474 H   0  0  0  0  0  0
   27.5038   35.8018   82.1637 H   0  0  0  0  0  0
   29.3398   37.2651   82.8880 H   0  0  0  0  0  0
   28.9322   39.0915   84.5051 H   0  0  0  0  0  0
   26.6487   39.4369   85.4164 H   0  0  0  0  0  0
   20.9355   37.0826   83.6778 H   0  0  0  0  0  0
   23.3290   38.6871   86.8452 H   0  0  0  0  0  0
   18.0759   39.4218   86.4772 H   0  0  0  0  0  0
   21.8170   41.7641   88.8009 H   0  0  0  0  0  0
   22.3793   41.4848   87.1578 H   0  0  0  0  0  0
   20.6560   41.7183   87.4808 H   0  0  0  0  0  0
   17.3485   37.4675   83.1282 H   0  0  0  0  0  0
   18.7027   36.4006   83.4757 H   0  0  0  0  0  0
   18.9574   37.9190   82.5795 H   0  0  0  0  0  0
  1 11  1  0  0  0
  1 12  1  0  0  0
  1  2  2  0  0  0
  2  3  1  0  0  0
  2 23  1  0  0  0
  3  5  1  0  0  0
  3  4  2  0  0  0
  5  6  1  0  0  0
  5 10  2  0  0  0
  6  7  2  0  0  0
  6 24  1  0  0  0
  7  8  1  0  0  0
  7 25  1  0  0  0
  8  9  2  0  0  0
  8 26  1  0  0  0
  9 10  1  0  0  0
  9 27  1  0  0  0
 10 11  1  0  0  0
 12 13  1  0  0  0
 12 17  2  0  0  0
 13 14  2  0  0  0
 13 28  1  0  0  0
 14 15  1  0  0  0
 14 21  1  0  0  0
 15 16  2  0  0  0
 15 18  1  0  0  0
 16 17  1  0  0  0
 16 19  1  0  0  0
 17 29  1  0  0  0
 18 30  1  0  0  0
 19 20  1  0  0  0
 20 31  1  0  0  0
 20 32  1  0  0  0
 20 33  1  0  0  0
 21 22  1  0  0  0
 22 34  1  0  0  0
 22 35  1  0  0  0
 22 36  1  0  0  0
M  END
> <s_m_entry_id>
4566

> <s_m_entry_name>
dock_pv.54

> <s_m_Source_Path>
/home/csk/Desktop/cluster/DUD-E-result/lck

> <s_m_Source_File>
dock_pv.maegz

> <i_m_Source_File_Index>
54

> <chembl_id>
CHEMBL354496

> <chembl_pref_name>
None

> <i_lp_mmshare_version>
53161

> <i_f3d_flags>
0

> <r_lp_tautomer_probability>
0.99999999999482

> <s_lp_Force_Field>
OPLS_2005

> <r_lp_Energy>
19.927929

> <b_lp_Chiralities_Consistent>
1

> <s_lp_Variant>
CHEMBL258_lig1065-1

> <s_i_glide_gridfile>
glide-grid_2of2

> <i_i_glide_lignum>
1153

> <i_i_glide_rotatable_bonds>
4

> <r_i_docking_score>
-7.89934771160697

> <r_i_glide_ligand_efficiency>
-0.359061259618499

> <r_i_glide_ligand_efficiency_sa>
-1.00610377052906

> <r_i_glide_ligand_efficiency_ln>
-1.93088871642543

> <r_i_glide_gscore>
-7.89934771160697

> <r_i_glide_lipo>
-3.19975321232511

> <r_i_glide_hbond>
-0.32

> <r_i_glide_metal>
0

> <r_i_glide_rewards>
-1.94061718631656

> <r_i_glide_evdw>
-33.8206176757812

> <r_i_glide_ecoul>
-6.36110019683838

> <r_i_glide_erotb>
0.206218600349527

> <r_i_glide_esite>
0

> <r_i_glide_emodel>
-57.152100150138

> <r_i_glide_energy>
-40.1817178726196

> <r_i_glide_einternal>
2.80662107467651

> <i_i_glide_confnum>
2

> <i_i_glide_posenum>
177

> <r_i_glide_eff_state_penalty>
0

> <s_user_duplicate_titles>
CHEMBL258_lig1065

> <s_m_subgroup_title>
dock_pv

> <s_m_subgroupid>
dock_pv

> <b_m_subgroup_collapsed>
1

$$$$
CHEMBL258_lig160
                    3D
 Schrodinger Suite 2021-1.
 38 40  0  0  1  0            999 V2000
   24.3952   36.5256   83.7522 C   0  0  0  0  0  0
   23.2812   35.8210   83.1066 C   0  0  0  0  0  0
   22.0126   36.0803   83.6062 O   0  0  0  0  0  0
   24.1321   37.3696   84.7855 C   0  0  0  0  0  0
   21.7345   36.9983   84.6133 C   0  0  0  0  0  0
   25.7820   36.3244   83.3250 C   0  0  0  0  0  0
   20.4075   37.2761   84.9649 C   0  0  0  0  0  0
   22.7816   37.6686   85.2490 C   0  0  0  0  0  0
   26.5783   37.4138   83.4770 N   0  0  0  0  0  0
   23.3500   35.0210   82.1312 N   0  0  0  0  0  0
   20.1471   38.2311   85.9598 C   0  0  0  0  0  0
   26.1792   35.2433   82.8870 O   0  0  0  0  0  0
   22.5188   38.6198   86.2357 C   0  0  0  0  0  0
   27.9617   37.5811   83.2870 C   0  0  0  0  0  0
   21.1997   38.8945   86.5918 C   0  0  0  0  0  0
   19.3726   36.6210   84.3466 O   0  0  0  0  0  0
   28.4794   38.8367   83.6263 C   0  0  0  0  0  0
   18.8645   38.5294   86.3373 O   0  0  0  0  0  0
   29.8306   39.1362   83.4217 C   0  0  0  0  0  0
   30.1500   41.4210   82.6298 O   0  0  0  0  0  0
   30.1701   36.9103   82.5296 C   0  0  0  0  0  0
   28.8225   36.6138   82.7411 C   0  0  0  0  0  0
   30.3572   40.5345   83.7134 C   0  0  0  0  0  0
   30.6767   38.1599   82.8870 C   0  0  0  0  0  0
   24.9383   37.8743   85.2998 H   0  0  0  0  0  0
   26.1089   38.2515   83.7805 H   0  0  0  0  0  0
   22.4489   34.6434   81.8527 H   0  0  0  0  0  0
   23.3247   39.1519   86.7209 H   0  0  0  0  0  0
   20.9908   39.6329   87.3521 H   0  0  0  0  0  0
   19.6302   35.7238   84.0870 H   0  0  0  0  0  0
   27.8293   39.6037   84.0233 H   0  0  0  0  0  0
   18.2123   38.0585   85.8107 H   0  0  0  0  0  0
   30.4171   42.3230   82.8870 H   0  0  0  0  0  0
   30.8219   36.1661   82.0944 H   0  0  0  0  0  0
   28.4723   35.6386   82.4408 H   0  0  0  0  0  0
   31.4186   40.4860   83.9615 H   0  0  0  0  0  0
   29.8637   40.9253   84.6046 H   0  0  0  0  0  0
   31.7199   38.3800   82.7107 H   0  0  0  0  0  0
  1  2  1  0  0  0
  1  4  2  0  0  0
  1  6  1  0  0  0
  2  3  1  0  0  0
  2 10  2  0  0  0
  3  5  1  0  0  0
  4  8  1  0  0  0
  4 25  1  0  0  0
  5  8  1  0  0  0
  5  7  2  0  0  0
  6  9  1  0  0  0
  6 12  2  0  0  0
  7 16  1  0  0  0
  7 11  1  0  0  0
  8 13  2  0  0  0
  9 14  1  0  0  0
  9 26  1  0  0  0
 10 27  1  0  0  0
 11 15  2  0  0  0
 11 18  1  0  0  0
 13 15  1  0  0  0
 13 28  1  0  0  0
 14 17  1  0  0  0
 14 22  2  0  0  0
 15 29  1  0  0  0
 16 30  1  0  0  0
 17 19  2  0  0  0
 17 31  1  0  0  0
 18 32  1  0  0  0
 19 23  1  0  0  0
 19 24  1  0  0  0
 20 23  1  0  0  0
 20 33  1  0  0  0
 21 22  1  0  0  0
 21 24  2  0  0  0
 21 34  1  0  0  0
 22 35  1  0  0  0
 23 36  1  0  0  0
 23 37  1  0  0  0
 24 38  1  0  0  0
M  END
> <s_m_entry_id>
4567

> <s_m_entry_name>
dock_pv.55

> <s_m_Source_Path>
/home/csk/Desktop/cluster/DUD-E-result/lck

> <s_m_Source_File>
dock_pv.maegz

> <i_m_Source_File_Index>
55

> <chembl_id>
CHEMBL81806

> <chembl_pref_name>
None

> <i_lp_mmshare_version>
53161

> <i_f3d_flags>
0

> <r_lp_tautomer_probability>
1

> <s_lp_Force_Field>
OPLS_2005

> <r_lp_Energy>
36.308562

> <b_lp_Chiralities_Consistent>
1

> <s_lp_Variant>
CHEMBL258_lig160-1

> <s_i_glide_gridfile>
glide-grid_2of2

> <i_i_glide_lignum>
187

> <i_i_glide_rotatable_bonds>
7

> <r_i_docking_score>
-7.89039680682624

> <r_i_glide_ligand_efficiency>
-0.32876653361776

> <r_i_glide_ligand_efficiency_sa>
-0.94832678267873

> <r_i_glide_ligand_efficiency_ln>
-1.8885340225904

> <r_i_glide_gscore>
-7.89039680682624

> <r_i_glide_lipo>
-2.31431521806842

> <r_i_glide_hbond>
-0.764983985224615

> <r_i_glide_metal>
0

> <r_i_glide_rewards>
-1.65444598032057

> <r_i_glide_evdw>
-30.3620986938477

> <r_i_glide_ecoul>
-15.6203603744507

> <r_i_glide_erotb>
0.704507367647356

> <r_i_glide_esite>
0

> <r_i_glide_emodel>
-68.7174150595178

> <r_i_glide_energy>
-45.9824590682983

> <r_i_glide_einternal>
3.34458661079407

> <i_i_glide_confnum>
42

> <i_i_glide_posenum>
267

> <r_i_glide_eff_state_penalty>
0

> <s_user_duplicate_titles>
CHEMBL258_lig160

> <s_m_subgroup_title>
dock_pv

> <s_m_subgroupid>
dock_pv

> <b_m_subgroup_collapsed>
1

$$$$
CHEMBL258_lig126
                    3D
 Schrodinger Suite 2021-1.
 37 39  0  0  1  0            999 V2000
   24.1810   36.8391   83.6942 C   0  0  0  0  0  0
   25.1131   36.0140   82.9162 C   0  0  0  0  0  0
   24.9529   37.9496   84.2687 C   0  0  0  0  0  0
   26.4411   36.6192   83.0670 C   0  0  0  0  0  0
   26.3473   37.7379   83.8727 C   0  0  0  0  0  0
   22.8449   36.5941   83.7997 C   0  0  0  0  0  0
   19.8727   38.7852   85.9971 C   0  0  0  0  0  0
   21.0829   38.4473   86.6055 C   0  0  0  0  0  0
   19.6034   38.3721   84.6844 C   0  0  0  0  0  0
   21.8148   37.3206   84.5831 C   0  0  0  0  0  0
   27.4817   38.4825   84.1914 C   0  0  0  0  0  0
   27.6772   36.2224   82.5485 C   0  0  0  0  0  0
   22.0299   37.6983   85.9117 C   0  0  0  0  0  0
   20.5906   37.6490   83.9875 C   0  0  0  0  0  0
   24.8000   35.0210   82.2612 O   0  0  0  0  0  0
   24.5043   38.8744   84.9418 O   0  0  0  0  0  0
   21.4778   39.0212   88.3765 Br  0  0  0  0  0  0
   28.8380   36.9476   82.8868 C   0  0  0  0  0  0
   18.9470   39.5141   86.7014 O   0  0  0  0  0  0
   28.7228   38.0756   83.6999 C   0  0  0  0  0  0
   18.3827   38.7278   84.1406 O   0  0  0  0  0  0
   30.1067   36.6463   82.4311 O   0  0  0  0  0  0
   17.9668   38.1326   82.9171 C   0  0  0  0  0  0
   30.2789   35.5668   81.5195 C   0  0  0  0  0  0
   22.4499   35.7370   83.2666 H   0  0  0  0  0  0
   27.4227   39.3630   84.8166 H   0  0  0  0  0  0
   27.7387   35.3501   81.9183 H   0  0  0  0  0  0
   22.9495   37.4354   86.4060 H   0  0  0  0  0  0
   20.4294   37.3606   82.9609 H   0  0  0  0  0  0
   18.0925   39.5927   86.2568 H   0  0  0  0  0  0
   29.6065   38.6433   83.9514 H   0  0  0  0  0  0
   16.9503   38.4490   82.6963 H   0  0  0  0  0  0
   18.5968   38.4508   82.0871 H   0  0  0  0  0  0
   17.9675   37.0438   82.9755 H   0  0  0  0  0  0
   31.3379   35.4524   81.2885 H   0  0  0  0  0  0
   29.9331   34.6278   81.9483 H   0  0  0  0  0  0
   29.7530   35.7517   80.5794 H   0  0  0  0  0  0
  1  2  1  0  0  0
  1  3  1  0  0  0
  1  6  2  0  0  0
  2  4  1  0  0  0
  2 15  2  0  0  0
  3  5  1  0  0  0
  3 16  2  0  0  0
  4 12  2  0  0  0
  4  5  1  0  0  0
  5 11  2  0  0  0
  6 10  1  0  0  0
  6 25  1  0  0  0
  7  9  1  0  0  0
  7 19  1  0  0  0
  7  8  2  0  0  0
  8 13  1  0  0  0
  8 17  1  0  0  0
  9 14  2  0  0  0
  9 21  1  0  0  0
 10 13  2  0  0  0
 10 14  1  0  0  0
 11 20  1  0  0  0
 11 26  1  0  0  0
 12 18  1  0  0  0
 12 27  1  0  0  0
 13 28  1  0  0  0
 14 29  1  0  0  0
 18 22  1  0  0  0
 18 20  2  0  0  0
 19 30  1  0  0  0
 20 31  1  0  0  0
 21 23  1  0  0  0
 22 24  1  0  0  0
 23 32  1  0  0  0
 23 33  1  0  0  0
 23 34  1  0  0  0
 24 35  1  0  0  0
 24 36  1  0  0  0
 24 37  1  0  0  0
M  END
> <s_m_entry_id>
4568

> <s_m_entry_name>
dock_pv.56

> <s_m_Source_Path>
/home/csk/Desktop/cluster/DUD-E-result/lck

> <s_m_Source_File>
dock_pv.maegz

> <i_m_Source_File_Index>
56

> <chembl_id>
CHEMBL311746

> <chembl_pref_name>
None

> <i_lp_mmshare_version>
53161

> <i_f3d_flags>
0

> <r_lp_tautomer_probability>
1

> <s_lp_Force_Field>
OPLS_2005

> <r_lp_Energy>
36.849731

> <b_lp_Chiralities_Consistent>
1

> <s_lp_Variant>
CHEMBL258_lig126-1

> <s_i_glide_gridfile>
glide-grid_2of2

> <i_i_glide_lignum>
147

> <i_i_glide_rotatable_bonds>
4

> <r_i_docking_score>
-7.87690445697662

> <r_i_glide_ligand_efficiency>
-0.328204352374026

> <r_i_glide_ligand_efficiency_sa>
-0.946705171366027

> <r_i_glide_ligand_efficiency_ln>
-1.8853046841478

> <r_i_glide_gscore>
-7.87690445697662

> <r_i_glide_lipo>
-3.0127910736052

> <r_i_glide_hbond>
-0.458471256732792

> <r_i_glide_metal>
0

> <r_i_glide_rewards>
-1.63676297005392

> <r_i_glide_evdw>
-39.4491348266602

> <r_i_glide_ecoul>
-6.16735363006592

> <r_i_glide_erotb>
0.128680629258187

> <r_i_glide_esite>
0

> <r_i_glide_emodel>
-65.5338074296261

> <r_i_glide_energy>
-45.6164884567261

> <r_i_glide_einternal>
3.78383326530457

> <i_i_glide_confnum>
2

> <i_i_glide_posenum>
64

> <r_i_glide_eff_state_penalty>
0

> <s_user_duplicate_titles>
CHEMBL258_lig126,132587

> <s_m_subgroup_title>
dock_pv

> <s_m_subgroupid>
dock_pv

> <b_m_subgroup_collapsed>
1

$$$$
CHEMBL258_lig85
                    3D
 Schrodinger Suite 2021-1.
 51 54  0  0  1  0            999 V2000
   22.5458   42.1743   84.3327 O   0  0  0  0  0  0
   19.4241   40.1998   87.0902 O   0  0  0  0  0  0
   25.8821   40.5582   84.9865 N   0  0  1  0  0  0
   24.0500   44.5362   85.2870 N   0  0  0  0  0  0
   25.7500   36.4557   82.9061 N   0  0  0  0  0  0
   25.1041   35.5027   82.2114 N   0  0  0  0  0  0
   23.2035   37.7585   85.2148 N   0  0  0  0  0  0
   23.1485   36.1084   83.5028 N   0  0  0  0  0  0
   24.4909   43.1639   85.4782 C   0  0  1  0  0  0
   23.9568   42.1391   84.4531 C   0  0  1  0  0  0
   26.0197   43.0154   85.5408 C   0  0  0  0  0  0
   24.4250   40.7119   84.8218 C   0  0  0  0  0  0
   26.4457   41.5744   85.8938 C   0  0  0  0  0  0
   26.2271   39.2126   85.4745 C   0  0  0  0  0  0
   26.2626   38.1553   84.3805 C   0  0  0  0  0  0
   25.2172   37.2793   83.9309 C   0  0  0  0  0  0
   27.3676   37.8216   83.5992 C   0  0  0  0  0  0
   27.0615   36.7914   82.7207 C   0  0  0  0  0  0
   23.8570   37.0220   84.2148 C   0  0  0  0  0  0
   23.7942   35.4209   82.5369 C   0  0  0  0  0  0
   21.8672   37.7714   85.6504 C   0  0  0  0  0  0
   21.3424   38.9722   86.1408 C   0  0  0  0  0  0
   21.0548   36.6325   85.6355 C   0  0  0  0  0  0
   20.0076   39.0617   86.5670 C   0  0  0  0  0  0
   19.7295   36.7089   86.0545 C   0  0  0  0  0  0
   19.2038   37.9242   86.4874 C   0  0  0  0  0  0
   20.2149   41.3737   87.2559 C   0  0  0  0  0  0
   22.2814   43.0755   84.1254 H   0  0  0  0  0  0
   24.1651   44.8182   84.3131 H   0  0  0  0  0  0
   23.0572   44.6224   85.4701 H   0  0  0  0  0  0
   23.7530   38.5328   85.5526 H   0  0  0  0  0  0
   24.0992   42.8617   86.4508 H   0  0  0  0  0  0
   24.3587   42.4025   83.4731 H   0  0  0  0  0  0
   26.4898   43.3215   84.6036 H   0  0  0  0  0  0
   26.4181   43.6903   86.2997 H   0  0  0  0  0  0
   23.9618   40.4456   85.7711 H   0  0  0  0  0  0
   24.0568   39.9986   84.0866 H   0  0  0  0  0  0
   26.1279   41.3513   86.9157 H   0  0  0  0  0  0
   27.5347   41.4979   85.8886 H   0  0  0  0  0  0
   27.2226   39.2453   85.9228 H   0  0  0  0  0  0
   25.5692   38.9237   86.2942 H   0  0  0  0  0  0
   28.3354   38.2975   83.6773 H   0  0  0  0  0  0
   27.6687   36.2861   81.9814 H   0  0  0  0  0  0
   23.2091   34.6876   82.0007 H   0  0  0  0  0  0
   21.9695   39.8461   86.1759 H   0  0  0  0  0  0
   21.4343   35.6799   85.2998 H   0  0  0  0  0  0
   19.1121   35.8245   86.0463 H   0  0  0  0  0  0
   18.1726   37.9791   86.8045 H   0  0  0  0  0  0
   19.6034   42.1610   87.6976 H   0  0  0  0  0  0
   21.0563   41.1965   87.9278 H   0  0  0  0  0  0
   20.5933   41.7453   86.3034 H   0  0  0  0  0  0
  1 10  1  0  0  0
  1 28  1  0  0  0
  2 24  1  0  0  0
  2 27  1  0  0  0
  3 12  1  0  0  0
  3 13  1  0  0  0
  3 14  1  0  0  0
  4  9  1  0  0  0
  4 29  1  0  0  0
  4 30  1  0  0  0
  5  6  1  0  0  0
  5 16  1  0  0  0
  5 18  1  0  0  0
  6 20  2  0  0  0
  7 19  1  0  0  0
  7 21  1  0  0  0
  7 31  1  0  0  0
  8 19  2  0  0  0
  8 20  1  0  0  0
  9 10  1  0  0  0
  9 11  1  0  0  0
  9 32  1  0  0  0
 10 12  1  0  0  0
 10 33  1  0  0  0
 11 13  1  0  0  0
 11 34  1  0  0  0
 11 35  1  0  0  0
 12 36  1  0  0  0
 12 37  1  0  0  0
 13 38  1  0  0  0
 13 39  1  0  0  0
 14 15  1  0  0  0
 14 40  1  0  0  0
 14 41  1  0  0  0
 15 16  2  0  0  0
 15 17  1  0  0  0
 16 19  1  0  0  0
 17 18  2  0  0  0
 17 42  1  0  0  0
 18 43  1  0  0  0
 20 44  1  0  0  0
 21 22  2  0  0  0
 21 23  1  0  0  0
 22 24  1  0  0  0
 22 45  1  0  0  0
 23 25  2  0  0  0
 23 46  1  0  0  0
 24 26  2  0  0  0
 25 26  1  0  0  0
 25 47  1  0  0  0
 26 48  1  0  0  0
 27 49  1  0  0  0
 27 50  1  0  0  0
 27 51  1  0  0  0
M  END
> <s_m_entry_id>
4569

> <s_m_entry_name>
dock_pv.57

> <s_m_Source_Path>
/home/csk/Desktop/cluster/DUD-E-result/lck

> <s_m_Source_File>
dock_pv.maegz

> <i_m_Source_File_Index>
57

> <chembl_id>
CHEMBL3545396

> <chembl_pref_name>
BMS-690514

> <i_lp_mmshare_version>
53161

> <i_f3d_flags>
0

> <r_lp_tautomer_probability>
1

> <s_lp_Force_Field>
OPLS_2005

> <r_lp_Energy>
52.815844

> <b_lp_Chiralities_Consistent>
1

> <s_lp_Variant>
CHEMBL258_lig85-1

> <s_i_glide_gridfile>
glide-grid_2of2

> <i_i_glide_lignum>
96

> <i_i_glide_rotatable_bonds>
6

> <r_i_docking_score>
-7.86276042631963

> <r_i_glide_ligand_efficiency>
-0.291213349122949

> <r_i_glide_ligand_efficiency_sa>
-0.873640046409056

> <r_i_glide_ligand_efficiency_ln>
-1.83032099951062

> <r_i_glide_gscore>
-7.86276042631963

> <r_i_glide_lipo>
-2.06539203568517

> <r_i_glide_hbond>
-0.400776426618083

> <r_i_glide_metal>
0

> <r_i_glide_rewards>
-2.48715411284799

> <r_i_glide_evdw>
-36.2662658691406

> <r_i_glide_ecoul>
-11.0930480957031

> <r_i_glide_erotb>
0.567832656644119

> <r_i_glide_esite>
0

> <r_i_glide_emodel>
-69.395591531077

> <r_i_glide_energy>
-47.3593139648438

> <r_i_glide_einternal>
3.0072865486145

> <i_i_glide_confnum>
23

> <i_i_glide_posenum>
44

> <r_i_glide_eff_state_penalty>
0

> <s_user_duplicate_titles>
CHEMBL258_lig85

> <s_m_subgroup_title>
dock_pv

> <s_m_subgroupid>
dock_pv

> <b_m_subgroup_collapsed>
1

$$$$
CHEMBL258_lig1210
                    3D
 Schrodinger Suite 2021-1.
 60 64  0  0  1  0            999 V2000
   28.6647   37.5557   83.5728 C   0  0  0  0  0  0
   29.6007   38.5364   83.9035 C   0  0  0  0  0  0
   29.2437   39.8105   84.1959 N   0  0  0  0  0  0
   27.9189   40.1012   84.1675 C   0  0  0  0  0  0
   26.9314   39.2170   83.8491 N   0  0  0  0  0  0
   27.3199   37.9440   83.5502 C   0  0  0  0  0  0
   26.3205   37.0066   83.1969 N   0  0  0  0  0  0
   27.6173   41.4335   84.4863 N   0  0  0  0  0  0
   25.3767   35.2657   82.0876 N   0  0  0  0  0  0
   26.4462   35.9977   82.2633 C   0  0  0  0  0  0
   24.4566   35.8211   82.9269 C   0  0  0  0  0  0
   25.0316   36.8804   83.6877 C   0  0  0  0  0  0
   24.3041   37.5576   84.6746 C   0  0  0  0  0  0
   22.9769   37.1676   84.8521 C   0  0  0  0  0  0
   22.3761   36.1955   84.0542 C   0  0  0  0  0  0
   23.1005   35.5029   83.0811 C   0  0  0  0  0  0
   26.2711   41.9718   84.6724 C   0  0  1  0  0  0
   25.5897   41.4562   85.9777 C   0  0  1  0  0  0
   26.4074   41.7309   87.2660 C   0  0  0  0  0  0
   25.7081   41.1407   88.4947 C   0  0  0  0  0  0
   24.2502   41.6399   88.6243 C   0  0  0  0  0  0
   23.5434   41.3581   87.3507 N   0  0  0  0  0  0
   24.1411   41.9957   86.1482 C   0  0  0  0  0  0
   22.3475   40.6983   87.3614 C   0  0  0  0  0  0
   21.8419   40.2736   88.4052 O   0  0  0  0  0  0
   26.3056   43.5118   84.5920 C   0  0  0  0  0  0
   21.7905   40.4803   86.1474 N   0  0  0  0  0  0
   20.6419   39.7389   85.8100 C   0  0  0  0  0  0
   20.5564   39.3012   84.4873 C   0  0  0  0  0  0
   19.4850   38.5065   84.0802 C   0  0  0  0  0  0
   18.4887   38.1674   84.9885 C   0  0  0  0  0  0
   18.5507   38.6214   86.3033 C   0  0  0  0  0  0
   19.6151   39.4181   86.7119 C   0  0  0  0  0  0
   28.9752   36.5480   83.3416 H   0  0  0  0  0  0
   30.6575   38.3096   83.9376 H   0  0  0  0  0  0
   28.3946   42.0437   84.6936 H   0  0  0  0  0  0
   27.3697   35.8770   81.7154 H   0  0  0  0  0  0
   24.7425   38.3377   85.2774 H   0  0  0  0  0  0
   22.3913   37.6408   85.6264 H   0  0  0  0  0  0
   21.3391   35.9407   84.2242 H   0  0  0  0  0  0
   22.6450   34.7095   82.5010 H   0  0  0  0  0  0
   25.6728   41.6213   83.8288 H   0  0  0  0  0  0
   25.5025   40.3726   85.8910 H   0  0  0  0  0  0
   27.4101   41.3134   87.1755 H   0  0  0  0  0  0
   26.5570   42.8014   87.3998 H   0  0  0  0  0  0
   25.7480   40.0527   88.4483 H   0  0  0  0  0  0
   26.2630   41.4125   89.3936 H   0  0  0  0  0  0
   23.7779   41.1774   89.4921 H   0  0  0  0  0  0
   24.2465   42.7196   88.7723 H   0  0  0  0  0  0
   24.1648   43.0746   86.3107 H   0  0  0  0  0  0
   23.5686   41.8453   85.2335 H   0  0  0  0  0  0
   25.3030   43.9385   84.5699 H   0  0  0  0  0  0
   26.8389   43.9504   85.4338 H   0  0  0  0  0  0
   26.8056   43.8568   83.6873 H   0  0  0  0  0  0
   22.3025   40.8355   85.3566 H   0  0  0  0  0  0
   21.3339   39.5420   83.7774 H   0  0  0  0  0  0
   19.4342   38.1505   83.0629 H   0  0  0  0  0  0
   17.6519   37.5609   84.6737 H   0  0  0  0  0  0
   17.7530   38.3815   86.9925 H   0  0  0  0  0  0
   19.6220   39.7803   87.7254 H   0  0  0  0  0  0
  1  6  1  0  0  0
  1  2  2  0  0  0
  1 34  1  0  0  0
  2  3  1  0  0  0
  2 35  1  0  0  0
  3  4  2  0  0  0
  4  8  1  0  0  0
  4  5  1  0  0  0
  5  6  2  0  0  0
  6  7  1  0  0  0
  7 12  1  0  0  0
  7 10  1  0  0  0
  8 17  1  0  0  0
  8 36  1  0  0  0
  9 11  1  0  0  0
  9 10  2  0  0  0
 10 37  1  0  0  0
 11 16  1  0  0  0
 11 12  2  0  0  0
 12 13  1  0  0  0
 13 14  2  0  0  0
 13 38  1  0  0  0
 14 15  1  0  0  0
 14 39  1  0  0  0
 15 16  2  0  0  0
 15 40  1  0  0  0
 16 41  1  0  0  0
 17 18  1  0  0  0
 17 26  1  0  0  0
 17 42  1  0  0  0
 18 19  1  0  0  0
 18 23  1  0  0  0
 18 43  1  0  0  0
 19 20  1  0  0  0
 19 44  1  0  0  0
 19 45  1  0  0  0
 20 21  1  0  0  0
 20 46  1  0  0  0
 20 47  1  0  0  0
 21 22  1  0  0  0
 21 48  1  0  0  0
 21 49  1  0  0  0
 22 23  1  0  0  0
 22 24  1  0  0  0
 23 50  1  0  0  0
 23 51  1  0  0  0
 24 25  2  0  0  0
 24 27  1  0  0  0
 26 52  1  0  0  0
 26 53  1  0  0  0
 26 54  1  0  0  0
 27 28  1  0  0  0
 27 55  1  0  0  0
 28 29  2  0  0  0
 28 33  1  0  0  0
 29 30  1  0  0  0
 29 56  1  0  0  0
 30 31  2  0  0  0
 30 57  1  0  0  0
 31 32  1  0  0  0
 31 58  1  0  0  0
 32 33  2  0  0  0
 32 59  1  0  0  0
 33 60  1  0  0  0
M  END
> <s_m_entry_id>
4570

> <s_m_entry_name>
dock_pv.58

> <s_m_Source_Path>
/home/csk/Desktop/cluster/DUD-E-result/lck

> <s_m_Source_File>
dock_pv.maegz

> <i_m_Source_File_Index>
58

> <chembl_id>
CHEMBL566362

> <chembl_pref_name>
None

> <i_lp_mmshare_version>
53161

> <i_f3d_flags>
0

> <r_lp_tautomer_probability>
1

> <s_lp_Force_Field>
OPLS_2005

> <r_lp_Energy>
47.771146

> <b_lp_Chiralities_Consistent>
1

> <s_lp_Variant>
CHEMBL258_lig1210-4

> <s_i_glide_gridfile>
glide-grid_2of2

> <i_i_glide_lignum>
1312

> <i_i_glide_rotatable_bonds>
7

> <r_i_docking_score>
-7.84918275101159

> <r_i_glide_ligand_efficiency>
-0.237854022757927

> <r_i_glide_ligand_efficiency_sa>
-0.762924942634468

> <r_i_glide_ligand_efficiency_ln>
-1.74561760293175

> <r_i_glide_gscore>
-7.84918275101159

> <r_i_glide_lipo>
-2.69261612470698

> <r_i_glide_hbond>
-0.299444282517236

> <r_i_glide_metal>
0

> <r_i_glide_rewards>
-2.49285059059398

> <r_i_glide_evdw>
-42.4843330383301

> <r_i_glide_ecoul>
-6.36485242843628

> <r_i_glide_erotb>
0.71727325227867

> <r_i_glide_esite>
-0.00260048929010801

> <r_i_glide_emodel>
-69.4859424725454

> <r_i_glide_energy>
-48.8491854667664

> <r_i_glide_einternal>
6.82795095443726

> <i_i_glide_confnum>
117

> <i_i_glide_posenum>
13

> <r_i_glide_eff_state_penalty>
0

> <s_user_duplicate_titles>
CHEMBL258_lig1210,580644

> <s_m_subgroup_title>
dock_pv

> <s_m_subgroupid>
dock_pv

> <b_m_subgroup_collapsed>
1

$$$$
CHEMBL258_lig783
                    3D
 Schrodinger Suite 2021-1.
 57 60  0  0  1  0            999 V2000
   19.8841   36.7650   85.2981 C   0  0  0  0  0  0
   19.7081   36.0412   86.5012 C   0  0  0  0  0  0
   18.5514   36.2428   87.2662 C   0  0  0  0  0  0
   17.5772   37.1424   86.8417 C   0  0  0  0  0  0
   17.7338   37.8204   85.6342 C   0  0  0  0  0  0
   18.8677   37.6270   84.8531 C   0  0  0  0  0  0
   20.6800   34.9472   86.9432 C   0  0  0  0  0  0
   21.0408   36.6182   84.5114 N   0  0  0  0  0  0
   22.2924   36.8361   84.9598 C   0  0  0  0  0  0
   22.5490   37.3662   86.0448 O   0  0  0  0  0  0
   23.3363   36.3691   84.0842 C   0  0  0  0  0  0
   23.3001   35.6449   82.8866 C   0  0  0  0  0  0
   24.4652   35.4205   82.3020 N   0  0  0  0  0  0
   25.4668   35.9499   82.9581 C   0  0  0  0  0  0
   25.0034   36.6428   84.4859 S   0  0  0  0  0  0
   26.7602   35.9269   82.4740 N   0  0  0  0  0  0
   27.9243   36.6223   82.8434 C   0  0  0  0  0  0
   27.9421   37.7452   83.6798 C   0  0  0  0  0  0
   29.1722   38.3477   83.9698 C   0  0  0  0  0  0
   30.2971   37.9691   83.2974 N   0  0  0  0  0  0
   30.1901   36.8856   82.4874 C   0  0  0  0  0  0
   29.0582   36.1789   82.2491 N   0  0  0  0  0  0
   18.9522   38.4563   83.3363 Cl  0  0  0  0  0  0
   31.4498   36.4250   81.7835 C   0  0  0  0  0  0
   29.2269   39.4900   84.7673 N   0  0  0  0  0  0
   28.1729   39.8959   85.7160 C   0  0  0  0  0  0
   27.5462   41.2238   85.2539 C   0  0  0  0  0  0
   28.6038   42.3471   85.2223 C   0  0  0  0  0  0
   29.8290   41.8617   84.4077 C   0  0  0  0  0  0
   30.3330   40.4591   84.8295 C   0  0  0  0  0  0
   28.0159   43.6966   84.7510 C   0  0  0  0  0  0
   28.9498   44.7449   84.8874 O   0  0  0  0  0  0
   18.3932   35.6839   88.1756 H   0  0  0  0  0  0
   16.6841   37.2956   87.4304 H   0  0  0  0  0  0
   16.9554   38.4845   85.2885 H   0  0  0  0  0  0
   21.0366   34.3770   86.0874 H   0  0  0  0  0  0
   21.5531   35.3613   87.4468 H   0  0  0  0  0  0
   20.1990   34.2233   87.6015 H   0  0  0  0  0  0
   20.9073   36.2708   83.5753 H   0  0  0  0  0  0
   22.4062   35.2785   82.4012 H   0  0  0  0  0  0
   26.9506   35.4071   81.6256 H   0  0  0  0  0  0
   27.0422   38.1731   84.0735 H   0  0  0  0  0  0
   31.8646   37.2359   81.1823 H   0  0  0  0  0  0
   32.2009   36.1274   82.5170 H   0  0  0  0  0  0
   31.2595   35.5753   81.1225 H   0  0  0  0  0  0
   27.4191   39.1292   85.8864 H   0  0  0  0  0  0
   28.6371   40.0404   86.6922 H   0  0  0  0  0  0
   27.0918   41.0994   84.2688 H   0  0  0  0  0  0
   26.7204   41.5058   85.9081 H   0  0  0  0  0  0
   28.9496   42.4603   86.2532 H   0  0  0  0  0  0
   30.6348   42.5922   84.4892 H   0  0  0  0  0  0
   29.5889   41.8296   83.3436 H   0  0  0  0  0  0
   30.7210   40.4891   85.8480 H   0  0  0  0  0  0
   31.1675   40.1596   84.1946 H   0  0  0  0  0  0
   27.6987   43.6477   83.7093 H   0  0  0  0  0  0
   27.1372   43.9515   85.3440 H   0  0  0  0  0  0
   29.6372   44.6221   84.2074 H   0  0  0  0  0  0
  1  8  1  0  0  0
  1  6  2  0  0  0
  1  2  1  0  0  0
  2  3  2  0  0  0
  2  7  1  0  0  0
  3  4  1  0  0  0
  3 33  1  0  0  0
  4  5  2  0  0  0
  4 34  1  0  0  0
  5  6  1  0  0  0
  5 35  1  0  0  0
  6 23  1  0  0  0
  7 36  1  0  0  0
  7 37  1  0  0  0
  7 38  1  0  0  0
  8  9  1  0  0  0
  8 39  1  0  0  0
  9 10  2  0  0  0
  9 11  1  0  0  0
 11 12  2  0  0  0
 11 15  1  0  0  0
 12 13  1  0  0  0
 12 40  1  0  0  0
 13 14  2  0  0  0
 14 16  1  0  0  0
 14 15  1  0  0  0
 16 17  1  0  0  0
 16 41  1  0  0  0
 17 18  2  0  0  0
 17 22  1  0  0  0
 18 19  1  0  0  0
 18 42  1  0  0  0
 19 20  2  0  0  0
 19 25  1  0  0  0
 20 21  1  0  0  0
 21 22  2  0  0  0
 21 24  1  0  0  0
 24 43  1  0  0  0
 24 44  1  0  0  0
 24 45  1  0  0  0
 25 26  1  0  0  0
 25 30  1  0  0  0
 26 27  1  0  0  0
 26 46  1  0  0  0
 26 47  1  0  0  0
 27 28  1  0  0  0
 27 48  1  0  0  0
 27 49  1  0  0  0
 28 29  1  0  0  0
 28 31  1  0  0  0
 28 50  1  0  0  0
 29 30  1  0  0  0
 29 51  1  0  0  0
 29 52  1  0  0  0
 30 53  1  0  0  0
 30 54  1  0  0  0
 31 32  1  0  0  0
 31 55  1  0  0  0
 31 56  1  0  0  0
 32 57  1  0  0  0
M  END
> <s_m_entry_id>
4571

> <s_m_entry_name>
dock_pv.59

> <s_m_Source_Path>
/home/csk/Desktop/cluster/DUD-E-result/lck

> <s_m_Source_File>
dock_pv.maegz

> <i_m_Source_File_Index>
59

> <chembl_id>
CHEMBL216240

> <chembl_pref_name>
None

> <i_lp_mmshare_version>
53161

> <i_f3d_flags>
0

> <r_lp_tautomer_probability>
0.999999999985434

> <s_lp_Force_Field>
OPLS_2005

> <r_lp_Energy>
26.237907

> <b_lp_Chiralities_Consistent>
1

> <s_lp_Variant>
CHEMBL258_lig783-1

> <s_i_glide_gridfile>
glide-grid_2of2

> <i_i_glide_lignum>
868

> <i_i_glide_rotatable_bonds>
8

> <r_i_docking_score>
-7.84256971571316

> <r_i_glide_ligand_efficiency>
-0.245080303616036

> <r_i_glide_ligand_efficiency_sa>
-0.778081462654689

> <r_i_glide_ligand_efficiency_ln>
-1.75616513972454

> <r_i_glide_gscore>
-7.84256971571316

> <r_i_glide_lipo>
-2.85324550180799

> <r_i_glide_hbond>
-0.393680385420606

> <r_i_glide_metal>
0

> <r_i_glide_rewards>
-1.70789419127446

> <r_i_glide_evdw>
-45.7113037109375

> <r_i_glide_ecoul>
-8.23319053649902

> <r_i_glide_erotb>
0.632794128811616

> <r_i_glide_esite>
0

> <r_i_glide_emodel>
-72.4889704214609

> <r_i_glide_energy>
-53.9444942474365

> <r_i_glide_einternal>
14.8291511535645

> <i_i_glide_confnum>
17

> <i_i_glide_posenum>
212

> <r_i_glide_eff_state_penalty>
0

> <s_user_duplicate_titles>
CHEMBL258_lig783,361461

> <s_m_subgroup_title>
dock_pv

> <s_m_subgroupid>
dock_pv

> <b_m_subgroup_collapsed>
1

$$$$
CHEMBL258_lig558
                    3D
 Schrodinger Suite 2021-1.
 57 61  0  0  1  0            999 V2000
   26.2320   37.3417   83.6379 C   0  0  0  0  0  0
   22.6335   37.0951   84.3498 C   0  0  0  0  0  0
   24.8295   37.3202   84.0026 C   0  0  0  0  0  0
   26.8734   36.5330   82.6301 C   0  0  0  0  0  0
   23.7172   36.5285   83.6867 N   0  0  0  0  0  0
   22.9637   38.1014   85.1158 N   0  0  0  0  0  0
   27.0884   38.2670   84.3385 C   0  0  0  0  0  0
   28.5122   38.2329   84.1014 C   0  0  0  0  0  0
   28.2082   36.4744   82.4870 N   0  0  0  0  0  0
   21.3499   36.6205   84.1704 N   0  0  0  0  0  0
   24.3069   38.2636   84.9189 C   0  0  0  0  0  0
   29.0045   37.2938   83.1892 C   0  0  0  0  0  0
   20.2264   36.9171   84.9630 C   0  0  0  0  0  0
   30.0592   40.2928   83.8960 C   0  0  0  0  0  0
   29.4877   39.1888   84.8172 C   0  0  0  0  0  0
   31.2841   40.8059   84.1791 N   0  0  0  0  0  0
   26.4911   39.2000   85.2359 C   0  0  0  0  0  0
   26.1460   35.8708   81.6934 O   0  0  0  0  0  0
   25.1297   39.2196   85.5069 C   0  0  0  0  0  0
   19.1593   37.6723   84.4473 C   0  0  0  0  0  0
   20.1073   36.3601   86.2479 C   0  0  0  0  0  0
   29.4241   40.6211   82.8880 O   0  0  0  0  0  0
   34.0567   40.6712   84.1085 O   0  0  0  0  0  0
   23.6016   35.4203   82.7415 C   0  0  0  0  0  0
   19.1398   38.2207   82.8151 Cl  0  0  0  0  0  0
   21.3217   35.3013   86.8875 Cl  0  0  0  0  0  0
   30.4800   37.1662   82.8160 C   0  0  0  0  0  0
   31.9939   41.6752   83.2206 C   0  0  0  0  0  0
   32.0208   40.5496   85.4294 C   0  0  0  0  0  0
   17.9456   37.4205   86.5184 C   0  0  0  0  0  0
   18.0409   37.9421   85.2339 C   0  0  0  0  0  0
   18.9642   36.6098   87.0096 C   0  0  0  0  0  0
   33.3309   39.8469   85.0202 C   0  0  0  0  0  0
   33.3329   40.9644   82.9114 C   0  0  0  0  0  0
   21.1739   35.8615   83.5312 H   0  0  0  0  0  0
   30.3020   38.5739   85.1986 H   0  0  0  0  0  0
   29.0797   39.6498   85.7094 H   0  0  0  0  0  0
   27.0869   39.9454   85.7341 H   0  0  0  0  0  0
   26.7644   35.5674   81.0142 H   0  0  0  0  0  0
   24.7226   39.9486   86.1924 H   0  0  0  0  0  0
   22.6765   34.8638   82.8875 H   0  0  0  0  0  0
   23.6032   35.8179   81.7277 H   0  0  0  0  0  0
   24.4203   34.7182   82.8861 H   0  0  0  0  0  0
   31.1266   37.1090   83.6891 H   0  0  0  0  0  0
   30.6756   36.2697   82.2195 H   0  0  0  0  0  0
   30.7945   38.0253   82.2193 H   0  0  0  0  0  0
   32.1831   42.6112   83.7485 H   0  0  0  0  0  0
   31.4191   41.8869   82.3173 H   0  0  0  0  0  0
   31.4660   40.0906   86.2485 H   0  0  0  0  0  0
   32.2716   41.5452   85.8014 H   0  0  0  0  0  0
   17.0682   37.6249   87.1164 H   0  0  0  0  0  0
   17.2270   38.5391   84.8461 H   0  0  0  0  0  0
   18.8627   36.1676   87.9903 H   0  0  0  0  0  0
   33.1235   38.8701   84.5771 H   0  0  0  0  0  0
   33.9419   39.6497   85.9022 H   0  0  0  0  0  0
   33.1607   40.0475   82.3435 H   0  0  0  0  0  0
   33.9461   41.6014   82.2741 H   0  0  0  0  0  0
  1  3  2  0  0  0
  1  4  1  0  0  0
  1  7  1  0  0  0
  2  5  1  0  0  0
  2 10  1  0  0  0
  2  6  2  0  0  0
  3  5  1  0  0  0
  3 11  1  0  0  0
  4  9  2  0  0  0
  4 18  1  0  0  0
  5 24  1  0  0  0
  6 11  1  0  0  0
  7  8  1  0  0  0
  7 17  2  0  0  0
  8 12  2  0  0  0
  8 15  1  0  0  0
  9 12  1  0  0  0
 10 13  1  0  0  0
 10 35  1  0  0  0
 11 19  2  0  0  0
 12 27  1  0  0  0
 13 20  2  0  0  0
 13 21  1  0  0  0
 14 15  1  0  0  0
 14 16  1  0  0  0
 14 22  2  0  0  0
 15 36  1  0  0  0
 15 37  1  0  0  0
 16 28  1  0  0  0
 16 29  1  0  0  0
 17 19  1  0  0  0
 17 38  1  0  0  0
 18 39  1  0  0  0
 19 40  1  0  0  0
 20 25  1  0  0  0
 20 31  1  0  0  0
 21 26  1  0  0  0
 21 32  2  0  0  0
 23 33  1  0  0  0
 23 34  1  0  0  0
 24 41  1  0  0  0
 24 42  1  0  0  0
 24 43  1  0  0  0
 27 44  1  0  0  0
 27 45  1  0  0  0
 27 46  1  0  0  0
 28 34  1  0  0  0
 28 47  1  0  0  0
 28 48  1  0  0  0
 29 33  1  0  0  0
 29 49  1  0  0  0
 29 50  1  0  0  0
 30 32  1  0  0  0
 30 31  2  0  0  0
 30 51  1  0  0  0
 31 52  1  0  0  0
 32 53  1  0  0  0
 33 54  1  0  0  0
 33 55  1  0  0  0
 34 56  1  0  0  0
 34 57  1  0  0  0
M  END
> <s_m_entry_id>
4572

> <s_m_entry_name>
dock_pv.60

> <s_m_Source_Path>
/home/csk/Desktop/cluster/DUD-E-result/lck

> <s_m_Source_File>
dock_pv.maegz

> <i_m_Source_File_Index>
60

> <chembl_id>
CHEMBL281675

> <chembl_pref_name>
None

> <i_lp_mmshare_version>
53161

> <i_f3d_flags>
0

> <r_lp_tautomer_probability>
1

> <s_lp_Force_Field>
OPLS_2005

> <r_lp_Energy>
48.199402

> <b_lp_Chiralities_Consistent>
1

> <s_lp_Variant>
CHEMBL258_lig558-1

> <s_i_glide_gridfile>
glide-grid_2of2

> <i_i_glide_lignum>
631

> <i_i_glide_rotatable_bonds>
6

> <r_i_docking_score>
-7.82569202368778

> <r_i_glide_ligand_efficiency>
-0.230167412461405

> <r_i_glide_ligand_efficiency_sa>
-0.74565306480299

> <r_i_glide_ligand_efficiency_ln>
-1.72891487125883

> <r_i_glide_gscore>
-7.82569202368778

> <r_i_glide_lipo>
-3.31814412048571

> <r_i_glide_hbond>
-0.642519524550095

> <r_i_glide_metal>
0

> <r_i_glide_rewards>
-0.529558909928437

> <r_i_glide_evdw>
-43.8719100952148

> <r_i_glide_ecoul>
-10.1246452331543

> <r_i_glide_erotb>
0.407770183996239

> <r_i_glide_esite>
-0.030947362985895

> <r_i_glide_emodel>
-75.5140395468719

> <r_i_glide_energy>
-53.9965553283691

> <r_i_glide_einternal>
5.26703214645386

> <i_i_glide_confnum>
23

> <i_i_glide_posenum>
301

> <r_i_glide_eff_state_penalty>
0

> <s_user_duplicate_titles>
CHEMBL258_lig558,37156

> <s_m_subgroup_title>
dock_pv

> <s_m_subgroupid>
dock_pv

> <b_m_subgroup_collapsed>
1

$$$$
CHEMBL258_lig1049
                    3D
 Schrodinger Suite 2021-1.
 37 39  0  0  1  0            999 V2000
   28.2226   38.4884   84.1669 C   0  0  0  0  0  0
   28.4403   37.4347   83.2864 C   0  0  0  0  0  0
   27.3824   36.6185   82.8847 C   0  0  0  0  0  0
   26.9496   38.7211   84.6739 C   0  0  0  0  0  0
   25.8999   37.8901   84.2928 C   0  0  0  0  0  0
   26.0978   36.8258   83.4031 C   0  0  0  0  0  0
   24.9511   35.9460   83.0357 C   0  0  0  0  0  0
   23.6986   36.3202   83.6862 C   0  0  0  0  0  0
   23.6079   37.3738   84.5305 C   0  0  0  0  0  0
   24.6652   38.1763   84.8301 O   0  0  0  0  0  0
   22.3621   37.9095   85.1504 C   0  0  0  0  0  0
   21.0977   37.7248   84.5678 C   0  0  0  0  0  0
   19.9348   38.2820   85.1372 C   0  0  0  0  0  0
   20.0511   39.0212   86.3225 C   0  0  0  0  0  0
   21.3008   39.2035   86.9233 C   0  0  0  0  0  0
   22.4350   38.6415   86.3433 C   0  0  0  0  0  0
   25.0579   35.0193   82.2352 O   0  0  0  0  0  0
   18.9434   39.5880   86.9046 O   0  0  0  0  0  0
   18.6668   38.1618   84.5929 O   0  0  0  0  0  0
   18.4874   37.4286   83.3875 C   0  0  0  0  0  0
   21.4303   39.9236   88.0862 O   0  0  0  0  0  0
   21.5954   41.3207   87.8777 C   0  0  0  0  0  0
   29.2660   39.2879   84.5345 O   0  0  0  0  0  0
   29.4326   37.2566   82.8978 H   0  0  0  0  0  0
   27.5761   35.8140   82.1852 H   0  0  0  0  0  0
   26.7612   39.5336   85.3584 H   0  0  0  0  0  0
   22.8174   35.7414   83.4590 H   0  0  0  0  0  0
   21.0308   37.1650   83.6484 H   0  0  0  0  0  0
   23.3867   38.7997   86.8280 H   0  0  0  0  0  0
   18.1113   39.4255   86.4403 H   0  0  0  0  0  0
   17.4302   37.4216   83.1234 H   0  0  0  0  0  0
   19.0298   37.8885   82.5591 H   0  0  0  0  0  0
   18.8053   36.3911   83.4978 H   0  0  0  0  0  0
   21.6674   41.8276   88.8396 H   0  0  0  0  0  0
   20.7508   41.7538   87.3392 H   0  0  0  0  0  0
   22.5085   41.5372   87.3208 H   0  0  0  0  0  0
   29.0215   39.9560   85.1768 H   0  0  0  0  0  0
  1  2  1  0  0  0
  1  4  2  0  0  0
  1 23  1  0  0  0
  2  3  2  0  0  0
  2 24  1  0  0  0
  3  6  1  0  0  0
  3 25  1  0  0  0
  4  5  1  0  0  0
  4 26  1  0  0  0
  5  6  2  0  0  0
  5 10  1  0  0  0
  6  7  1  0  0  0
  7 17  2  0  0  0
  7  8  1  0  0  0
  8  9  2  0  0  0
  8 27  1  0  0  0
  9 11  1  0  0  0
  9 10  1  0  0  0
 11 16  1  0  0  0
 11 12  2  0  0  0
 12 13  1  0  0  0
 12 28  1  0  0  0
 13 14  2  0  0  0
 13 19  1  0  0  0
 14 15  1  0  0  0
 14 18  1  0  0  0
 15 16  2  0  0  0
 15 21  1  0  0  0
 16 29  1  0  0  0
 18 30  1  0  0  0
 19 20  1  0  0  0
 20 31  1  0  0  0
 20 32  1  0  0  0
 20 33  1  0  0  0
 21 22  1  0  0  0
 22 34  1  0  0  0
 22 35  1  0  0  0
 22 36  1  0  0  0
 23 37  1  0  0  0
M  END
> <s_m_entry_id>
4573

> <s_m_entry_name>
dock_pv.61

> <s_m_Source_Path>
/home/csk/Desktop/cluster/DUD-E-result/lck

> <s_m_Source_File>
dock_pv.maegz

> <i_m_Source_File_Index>
61

> <chembl_id>
CHEMBL489764

> <chembl_pref_name>
None

> <i_lp_mmshare_version>
53161

> <i_f3d_flags>
0

> <r_lp_tautomer_probability>
0.99999999999482

> <s_lp_Force_Field>
OPLS_2005

> <r_lp_Energy>
20.071923

> <b_lp_Chiralities_Consistent>
1

> <s_lp_Variant>
CHEMBL258_lig1049-1

> <s_i_glide_gridfile>
glide-grid_2of2

> <i_i_glide_lignum>
1137

> <i_i_glide_rotatable_bonds>
5

> <r_i_docking_score>
-7.8028320101642

> <r_i_glide_ligand_efficiency>
-0.339253565659313

> <r_i_glide_ligand_efficiency_sa>
-0.964792012167059

> <r_i_glide_ligand_efficiency_ln>
-1.88679553222663

> <r_i_glide_gscore>
-7.8028320101642

> <r_i_glide_lipo>
-3.16183570205414

> <r_i_glide_hbond>
-0.297176328091115

> <r_i_glide_metal>
0

> <r_i_glide_rewards>
-1.82580370597588

> <r_i_glide_evdw>
-34.8694000244141

> <r_i_glide_ecoul>
-6.41805648803711

> <r_i_glide_erotb>
0.18816220038321

> <r_i_glide_esite>
0

> <r_i_glide_emodel>
-58.9180666482593

> <r_i_glide_energy>
-41.2874565124512

> <r_i_glide_einternal>
2.51687979698181

> <i_i_glide_confnum>
1

> <i_i_glide_posenum>
390

> <r_i_glide_eff_state_penalty>
0

> <s_user_duplicate_titles>
CHEMBL258_lig1049

> <s_m_subgroup_title>
dock_pv

> <s_m_subgroupid>
dock_pv

> <b_m_subgroup_collapsed>
1

$$$$
CHEMBL258_lig550
                    3D
 Schrodinger Suite 2021-1.
 54 57  0  0  1  0            999 V2000
   22.4129   37.0286   84.3650 C   0  0  0  0  0  0
   26.0222   37.3224   83.7260 C   0  0  0  0  0  0
   22.7302   37.9834   85.1885 N   0  0  0  0  0  0
   24.6138   37.2602   84.0705 C   0  0  0  0  0  0
   26.7310   36.4884   82.7831 C   0  0  0  0  0  0
   24.0630   38.1921   84.9912 C   0  0  0  0  0  0
   23.5010   36.4884   83.6862 N   0  0  0  0  0  0
   26.8175   38.3304   84.3787 C   0  0  0  0  0  0
   28.0491   36.6139   82.5290 N   0  0  0  0  0  0
   21.1220   36.5974   84.1584 N   0  0  0  0  0  0
   28.2260   38.4128   84.1129 C   0  0  0  0  0  0
   28.7854   37.5158   83.2042 C   0  0  0  0  0  0
   20.0065   36.8896   84.9611 C   0  0  0  0  0  0
   24.8336   39.1997   85.5769 C   0  0  0  0  0  0
   26.1888   39.2379   85.2737 C   0  0  0  0  0  0
   26.0884   35.5169   82.0956 O   0  0  0  0  0  0
   18.9470   37.6574   84.4472 C   0  0  0  0  0  0
   19.8894   36.3294   86.2469 C   0  0  0  0  0  0
   23.3731   35.4272   82.6783 C   0  0  0  0  0  0
   21.0968   35.2607   86.8872 Cl  0  0  0  0  0  0
   18.9430   38.2217   82.8123 Cl  0  0  0  0  0  0
   24.2525   40.2669   86.4997 C   0  0  0  0  0  0
   23.9168   41.4851   85.7675 N   0  0  1  0  0  0
   29.0789   39.4664   84.8260 C   0  0  0  0  0  0
   30.2641   37.5171   82.8352 C   0  0  0  0  0  0
   23.4353   42.6211   83.0427 O   0  0  0  0  0  0
   17.7469   37.4207   86.5322 C   0  0  0  0  0  0
   17.8351   37.9358   85.2428 C   0  0  0  0  0  0
   18.7583   36.5963   87.0200 C   0  0  0  0  0  0
   22.6893   41.3694   84.9777 C   0  0  0  0  0  0
   22.4771   42.6000   84.0812 C   0  0  0  0  0  0
   20.9300   35.8678   83.4883 H   0  0  0  0  0  0
   26.7748   40.0190   85.7327 H   0  0  0  0  0  0
   26.7284   35.1723   81.4639 H   0  0  0  0  0  0
   22.3705   35.0080   82.6693 H   0  0  0  0  0  0
   23.5723   35.8205   81.6845 H   0  0  0  0  0  0
   24.0606   34.6212   82.8867 H   0  0  0  0  0  0
   25.0065   40.5186   87.2473 H   0  0  0  0  0  0
   23.3914   39.8850   87.0515 H   0  0  0  0  0  0
   23.8897   42.2954   86.3713 H   0  0  0  0  0  0
   30.1434   39.3921   84.6084 H   0  0  0  0  0  0
   28.7598   40.4686   84.5370 H   0  0  0  0  0  0
   28.9710   39.3740   85.9071 H   0  0  0  0  0  0
   30.5509   38.4704   82.3947 H   0  0  0  0  0  0
   30.8877   37.3646   83.7133 H   0  0  0  0  0  0
   30.5120   36.7331   82.1164 H   0  0  0  0  0  0
   23.6872   43.5465   82.8905 H   0  0  0  0  0  0
   16.8767   37.6366   87.1361 H   0  0  0  0  0  0
   17.0242   38.5430   84.8635 H   0  0  0  0  0  0
   18.6584   36.1600   88.0033 H   0  0  0  0  0  0
   21.8496   41.2956   85.6701 H   0  0  0  0  0  0
   22.6580   40.4752   84.3555 H   0  0  0  0  0  0
   22.5450   43.5213   84.6618 H   0  0  0  0  0  0
   21.4840   42.5811   83.6328 H   0  0  0  0  0  0
  1  3  2  0  0  0
  1  7  1  0  0  0
  1 10  1  0  0  0
  2  4  2  0  0  0
  2  5  1  0  0  0
  2  8  1  0  0  0
  3  6  1  0  0  0
  4  7  1  0  0  0
  4  6  1  0  0  0
  5  9  2  0  0  0
  5 16  1  0  0  0
  6 14  2  0  0  0
  7 19  1  0  0  0
  8 11  1  0  0  0
  8 15  2  0  0  0
  9 12  1  0  0  0
 10 13  1  0  0  0
 10 32  1  0  0  0
 11 12  2  0  0  0
 11 24  1  0  0  0
 12 25  1  0  0  0
 13 17  2  0  0  0
 13 18  1  0  0  0
 14 15  1  0  0  0
 14 22  1  0  0  0
 15 33  1  0  0  0
 16 34  1  0  0  0
 17 21  1  0  0  0
 17 28  1  0  0  0
 18 20  1  0  0  0
 18 29  2  0  0  0
 19 35  1  0  0  0
 19 36  1  0  0  0
 19 37  1  0  0  0
 22 23  1  0  0  0
 22 38  1  0  0  0
 22 39  1  0  0  0
 23 30  1  0  0  0
 23 40  1  0  0  0
 24 41  1  0  0  0
 24 42  1  0  0  0
 24 43  1  0  0  0
 25 44  1  0  0  0
 25 45  1  0  0  0
 25 46  1  0  0  0
 26 31  1  0  0  0
 26 47  1  0  0  0
 27 29  1  0  0  0
 27 28  2  0  0  0
 27 48  1  0  0  0
 28 49  1  0  0  0
 29 50  1  0  0  0
 30 31  1  0  0  0
 30 51  1  0  0  0
 30 52  1  0  0  0
 31 53  1  0  0  0
 31 54  1  0  0  0
M  END
> <s_m_entry_id>
4574

> <s_m_entry_name>
dock_pv.62

> <s_m_Source_Path>
/home/csk/Desktop/cluster/DUD-E-result/lck

> <s_m_Source_File>
dock_pv.maegz

> <i_m_Source_File_Index>
62

> <chembl_id>
CHEMBL27199

> <chembl_pref_name>
None

> <i_lp_mmshare_version>
53161

> <i_f3d_flags>
0

> <r_lp_tautomer_probability>
1

> <s_lp_Force_Field>
OPLS_2005

> <r_lp_Energy>
36.981802

> <b_lp_Chiralities_Consistent>
1

> <s_lp_Variant>
CHEMBL258_lig550-1

> <s_i_glide_gridfile>
glide-grid_2of2

> <i_i_glide_lignum>
622

> <i_i_glide_rotatable_bonds>
8

> <r_i_docking_score>
-7.78998331529885

> <r_i_glide_ligand_efficiency>
-0.251289784364479

> <r_i_glide_ligand_efficiency_sa>
-0.789396865842586

> <r_i_glide_ligand_efficiency_ln>
-1.7568799719176

> <r_i_glide_gscore>
-7.78998331529885

> <r_i_glide_lipo>
-3.40013055121956

> <r_i_glide_hbond>
-0.682041197565433

> <r_i_glide_metal>
0

> <r_i_glide_rewards>
-0.747883290365588

> <r_i_glide_evdw>
-44.7690277099609

> <r_i_glide_ecoul>
-8.60884094238281

> <r_i_glide_erotb>
0.569849250707201

> <r_i_glide_esite>
0

> <r_i_glide_emodel>
-77.0867844628225

> <r_i_glide_energy>
-53.3778686523438

> <r_i_glide_einternal>
3.01293778419495

> <i_i_glide_confnum>
30

> <i_i_glide_posenum>
348

> <r_i_glide_eff_state_penalty>
0

> <s_user_duplicate_titles>
CHEMBL258_lig550,37033

> <s_m_subgroup_title>
dock_pv

> <s_m_subgroupid>
dock_pv

> <b_m_subgroup_collapsed>
1

$$$$
CHEMBL258_lig628
                    3D
 Schrodinger Suite 2021-1.
 61 63  0  0  1  0            999 V2000
   27.0761   38.2062   84.4301 C   0  0  0  0  0  0
   27.6915   37.4225   83.4395 C   0  0  0  0  0  0
   26.9293   36.5029   82.7060 C   0  0  0  0  0  0
   25.7142   38.0393   84.7079 C   0  0  0  0  0  0
   24.9284   37.1031   83.9863 C   0  0  0  0  0  0
   25.5576   36.3267   82.9669 C   0  0  0  0  0  0
   24.8708   35.4209   82.2176 N   0  0  0  0  0  0
   23.5461   35.3191   82.4702 C   0  0  0  0  0  0
   22.8416   35.9811   83.4078 N   0  0  0  0  0  0
   23.5283   36.8690   84.1694 C   0  0  0  0  0  0
   22.7824   37.5579   85.1432 N   0  0  0  0  0  0
   21.3927   37.5092   85.3551 C   0  0  0  0  0  0
   20.9030   36.9397   86.5315 C   0  0  0  0  0  0
   19.5282   36.8902   86.7720 C   0  0  0  0  0  0
   18.6352   37.4216   85.8423 C   0  0  0  0  0  0
   19.1137   37.9910   84.6628 C   0  0  0  0  0  0
   20.4903   38.0452   84.4234 C   0  0  0  0  0  0
   29.0489   37.5768   83.2411 O   0  0  0  0  0  0
   27.8998   39.2149   85.2475 C   0  0  0  0  0  0
   29.7741   36.6067   82.4870 C   0  0  0  0  0  0
   17.9936   38.6210   83.5055 Cl  0  0  0  0  0  0
   20.9473   38.6208   83.2871 F   0  0  0  0  0  0
   28.0183   40.5275   84.5870 N   0  0  2  0  0  0
   29.3046   41.2839   84.7844 C   0  0  1  0  0  0
   29.8002   41.4858   86.2400 C   0  0  0  0  0  0
   30.4367   40.6622   83.9140 C   0  0  0  0  0  0
   30.9776   41.4209   82.9602 N   0  0  0  0  0  0
   30.8594   39.5307   84.1342 O   0  0  0  0  0  0
   26.7851   41.3384   84.6687 C   0  0  0  0  0  0
   26.6070   42.3208   85.8669 C   0  0  0  0  0  0
   26.7221   41.7562   87.2210 N   0  0  0  0  0  0
   26.8523   42.8306   88.2010 C   0  0  0  0  0  0
   25.5676   40.9436   87.5889 C   0  0  0  0  0  0
   27.3732   35.8983   81.9293 H   0  0  0  0  0  0
   25.2392   38.6266   85.4729 H   0  0  0  0  0  0
   22.9895   34.6276   81.8607 H   0  0  0  0  0  0
   23.2972   38.2007   85.7248 H   0  0  0  0  0  0
   21.5871   36.5236   87.2572 H   0  0  0  0  0  0
   19.1516   36.4427   87.6815 H   0  0  0  0  0  0
   17.5714   37.3877   86.0328 H   0  0  0  0  0  0
   28.8888   38.7825   85.3899 H   0  0  0  0  0  0
   27.5012   39.3228   86.2548 H   0  0  0  0  0  0
   30.8389   36.8304   82.5533 H   0  0  0  0  0  0
   29.6212   35.5992   82.8787 H   0  0  0  0  0  0
   29.5025   36.6210   81.4314 H   0  0  0  0  0  0
   29.1821   42.2973   84.3921 H   0  0  0  0  0  0
   30.8697   41.7016   86.2943 H   0  0  0  0  0  0
   29.3102   42.3353   86.7074 H   0  0  0  0  0  0
   29.6068   40.6214   86.8714 H   0  0  0  0  0  0
   31.7318   41.0473   82.4060 H   0  0  0  0  0  0
   30.7407   42.4126   82.8865 H   0  0  0  0  0  0
   25.8967   40.7179   84.5580 H   0  0  0  0  0  0
   26.7608   41.9384   83.7597 H   0  0  0  0  0  0
   25.6331   42.8050   85.7691 H   0  0  0  0  0  0
   27.3222   43.1352   85.7366 H   0  0  0  0  0  0
   27.7290   43.4451   87.9946 H   0  0  0  0  0  0
   26.9751   42.4250   89.2057 H   0  0  0  0  0  0
   25.9783   43.4840   88.2063 H   0  0  0  0  0  0
   25.4162   40.1327   86.8868 H   0  0  0  0  0  0
   25.7326   40.4924   88.5691 H   0  0  0  0  0  0
   24.6475   41.5297   87.6284 H   0  0  0  0  0  0
  1 19  1  0  0  0
  1  4  2  0  0  0
  1  2  1  0  0  0
  2 18  1  0  0  0
  2  3  2  0  0  0
  3  6  1  0  0  0
  3 34  1  0  0  0
  4  5  1  0  0  0
  4 35  1  0  0  0
  5 10  1  0  0  0
  5  6  2  0  0  0
  6  7  1  0  0  0
  7  8  2  0  0  0
  8  9  1  0  0  0
  8 36  1  0  0  0
  9 10  2  0  0  0
 10 11  1  0  0  0
 11 12  1  0  0  0
 11 37  1  0  0  0
 12 17  2  0  0  0
 12 13  1  0  0  0
 13 14  2  0  0  0
 13 38  1  0  0  0
 14 15  1  0  0  0
 14 39  1  0  0  0
 15 16  2  0  0  0
 15 40  1  0  0  0
 16 17  1  0  0  0
 16 21  1  0  0  0
 17 22  1  0  0  0
 18 20  1  0  0  0
 19 23  1  0  0  0
 19 41  1  0  0  0
 19 42  1  0  0  0
 20 43  1  0  0  0
 20 44  1  0  0  0
 20 45  1  0  0  0
 23 24  1  0  0  0
 23 29  1  0  0  0
 24 25  1  0  0  0
 24 26  1  0  0  0
 24 46  1  0  0  0
 25 47  1  0  0  0
 25 48  1  0  0  0
 25 49  1  0  0  0
 26 27  1  0  0  0
 26 28  2  0  0  0
 27 50  1  0  0  0
 27 51  1  0  0  0
 29 30  1  0  0  0
 29 52  1  0  0  0
 29 53  1  0  0  0
 30 31  1  0  0  0
 30 54  1  0  0  0
 30 55  1  0  0  0
 31 32  1  0  0  0
 31 33  1  0  0  0
 32 56  1  0  0  0
 32 57  1  0  0  0
 32 58  1  0  0  0
 33 59  1  0  0  0
 33 60  1  0  0  0
 33 61  1  0  0  0
M  END
> <s_m_entry_id>
4575

> <s_m_entry_name>
dock_pv.63

> <s_m_Source_Path>
/home/csk/Desktop/cluster/DUD-E-result/lck

> <s_m_Source_File>
dock_pv.maegz

> <i_m_Source_File_Index>
63

> <chembl_id>
CHEMBL376967

> <chembl_pref_name>
None

> <i_lp_mmshare_version>
53161

> <i_f3d_flags>
0

> <r_lp_tautomer_probability>
0.999978000241998

> <s_lp_Force_Field>
OPLS_2005

> <r_lp_Energy>
40.174241

> <b_lp_Chiralities_Consistent>
1

> <s_lp_Variant>
CHEMBL258_lig628-1

> <s_i_glide_gridfile>
glide-grid_2of2

> <i_i_glide_lignum>
707

> <i_i_glide_rotatable_bonds>
10

> <r_i_docking_score>
-7.78935727094538

> <r_i_glide_ligand_efficiency>
-0.236041129422587

> <r_i_glide_ligand_efficiency_sa>
-0.757110025031523

> <r_i_glide_ligand_efficiency_ln>
-1.73231272592478

> <r_i_glide_gscore>
-7.78935727094538

> <r_i_glide_lipo>
-3.38155043744129

> <r_i_glide_hbond>
-0.240654773911293

> <r_i_glide_metal>
0

> <r_i_glide_rewards>
-1.54727817672099

> <r_i_glide_evdw>
-40.4294967651367

> <r_i_glide_ecoul>
-7.38054847717285

> <r_i_glide_erotb>
0.628017756070249

> <r_i_glide_esite>
-0.119334529109298

> <r_i_glide_emodel>
-65.3128111858232

> <r_i_glide_energy>
-47.8100452423096

> <r_i_glide_einternal>
10.2516441345215

> <i_i_glide_confnum>
199

> <i_i_glide_posenum>
361

> <r_i_glide_eff_state_penalty>
0

> <s_user_duplicate_titles>
CHEMBL258_lig628

> <s_m_subgroup_title>
dock_pv

> <s_m_subgroupid>
dock_pv

> <b_m_subgroup_collapsed>
1

$$$$
CHEMBL258_lig1242
                    3D
 Schrodinger Suite 2021-1.
 51 55  0  0  1  0            999 V2000
   29.1329   35.8044   82.2667 C   0  0  0  0  0  0
   30.4560   36.2364   82.2468 C   0  0  0  0  0  0
   30.8304   37.4269   82.7715 N   0  0  0  0  0  0
   29.8503   38.2167   83.2872 C   0  0  0  0  0  0
   28.5354   37.8748   83.3454 N   0  0  0  0  0  0
   28.1753   36.6608   82.8376 C   0  0  0  0  0  0
   26.7992   36.2979   82.8869 N   0  0  0  0  0  0
   24.9599   35.0210   82.4841 N   0  0  0  0  0  0
   26.2329   35.1929   82.2788 C   0  0  0  0  0  0
   31.5038   40.0991   83.8102 C   0  0  2  0  0  0
   32.3480   39.5090   84.9599 C   0  0  0  0  0  0
   30.1615   39.4998   83.7688 N   0  0  0  0  0  0
   24.6269   36.0515   83.3074 C   0  0  0  0  0  0
   25.7387   36.8943   83.5708 C   0  0  0  0  0  0
   25.6008   38.0296   84.3796 C   0  0  0  0  0  0
   24.3327   38.2783   84.9145 C   0  0  0  0  0  0
   23.2252   37.4412   84.7004 C   0  0  0  0  0  0
   23.3769   36.3219   83.8717 C   0  0  0  0  0  0
   21.8971   37.7256   85.3333 C   0  0  0  0  0  0
   21.5979   39.0329   85.5897 N   0  0  0  0  0  0
   20.3911   39.2933   86.1525 C   0  0  0  0  0  0
   19.4559   38.3721   86.4869 N   0  0  0  0  0  0
   19.7748   37.0768   86.2369 C   0  0  0  0  0  0
   20.9920   36.7034   85.6641 C   0  0  0  0  0  0
   20.0857   40.6206   86.4182 N   0  0  0  0  0  0
   32.1950   40.1168   82.4331 C   0  0  0  0  0  0
   33.2462   39.2414   82.1191 C   0  0  0  0  0  0
   33.8204   39.2527   80.8506 C   0  0  0  0  0  0
   33.3498   40.1410   79.8887 C   0  0  0  0  0  0
   32.3143   41.0210   80.1885 C   0  0  0  0  0  0
   31.7494   41.0210   81.4625 C   0  0  0  0  0  0
   28.8977   34.8418   81.8410 H   0  0  0  0  0  0
   31.2366   35.6228   81.8183 H   0  0  0  0  0  0
   26.8431   34.5306   81.6867 H   0  0  0  0  0  0
   31.3511   41.1481   84.0738 H   0  0  0  0  0  0
   33.3303   39.9794   85.0121 H   0  0  0  0  0  0
   31.8602   39.6690   85.9227 H   0  0  0  0  0  0
   32.4953   38.4341   84.8508 H   0  0  0  0  0  0
   29.3917   40.0677   84.0887 H   0  0  0  0  0  0
   26.4265   38.6913   84.5941 H   0  0  0  0  0  0
   24.2174   39.1478   85.5464 H   0  0  0  0  0  0
   22.5426   35.6707   83.6561 H   0  0  0  0  0  0
   19.0365   36.3339   86.5030 H   0  0  0  0  0  0
   21.2105   35.6605   85.4869 H   0  0  0  0  0  0
   20.7240   41.3392   86.1092 H   0  0  0  0  0  0
   19.1394   40.8497   86.6856 H   0  0  0  0  0  0
   33.6102   38.5289   82.8435 H   0  0  0  0  0  0
   34.6193   38.5665   80.6114 H   0  0  0  0  0  0
   33.7834   40.1432   78.8993 H   0  0  0  0  0  0
   31.9499   41.7027   79.4328 H   0  0  0  0  0  0
   30.9499   41.7119   81.6906 H   0  0  0  0  0  0
  1  6  1  0  0  0
  1  2  2  0  0  0
  1 32  1  0  0  0
  2  3  1  0  0  0
  2 33  1  0  0  0
  3  4  2  0  0  0
  4 12  1  0  0  0
  4  5  1  0  0  0
  5  6  2  0  0  0
  6  7  1  0  0  0
  7 14  1  0  0  0
  7  9  1  0  0  0
  8 13  1  0  0  0
  8  9  2  0  0  0
  9 34  1  0  0  0
 10 12  1  0  0  0
 10 11  1  0  0  0
 10 26  1  0  0  0
 10 35  1  0  0  0
 11 36  1  0  0  0
 11 37  1  0  0  0
 11 38  1  0  0  0
 12 39  1  0  0  0
 13 18  1  0  0  0
 13 14  2  0  0  0
 14 15  1  0  0  0
 15 16  2  0  0  0
 15 40  1  0  0  0
 16 17  1  0  0  0
 16 41  1  0  0  0
 17 18  2  0  0  0
 17 19  1  0  0  0
 18 42  1  0  0  0
 19 20  2  0  0  0
 19 24  1  0  0  0
 20 21  1  0  0  0
 21 22  2  0  0  0
 21 25  1  0  0  0
 22 23  1  0  0  0
 23 24  2  0  0  0
 23 43  1  0  0  0
 24 44  1  0  0  0
 25 45  1  0  0  0
 25 46  1  0  0  0
 26 27  2  0  0  0
 26 31  1  0  0  0
 27 28  1  0  0  0
 27 47  1  0  0  0
 28 29  2  0  0  0
 28 48  1  0  0  0
 29 30  1  0  0  0
 29 49  1  0  0  0
 30 31  2  0  0  0
 30 50  1  0  0  0
 31 51  1  0  0  0
M  END
> <s_m_entry_id>
4576

> <s_m_entry_name>
dock_pv.64

> <s_m_Source_Path>
/home/csk/Desktop/cluster/DUD-E-result/lck

> <s_m_Source_File>
dock_pv.maegz

> <i_m_Source_File_Index>
64

> <chembl_id>
CHEMBL565933

> <chembl_pref_name>
None

> <i_lp_mmshare_version>
53161

> <i_f3d_flags>
0

> <r_lp_tautomer_probability>
0.999999987636

> <s_lp_Force_Field>
OPLS_2005

> <r_lp_Energy>
8.714854

> <b_lp_Chiralities_Consistent>
1

> <s_lp_Variant>
CHEMBL258_lig1242-1

> <s_i_glide_gridfile>
glide-grid_2of2

> <i_i_glide_lignum>
1388

> <i_i_glide_rotatable_bonds>
5

> <r_i_docking_score>
-7.78142815357569

> <r_i_glide_ligand_efficiency>
-0.251013811405668

> <r_i_glide_ligand_efficiency_sa>
-0.788529929730185

> <r_i_glide_ligand_efficiency_ln>
-1.75495052076481

> <r_i_glide_gscore>
-7.78142815357569

> <r_i_glide_lipo>
-2.5917149412422

> <r_i_glide_hbond>
-0.114295814040703

> <r_i_glide_metal>
0

> <r_i_glide_rewards>
-2.61957165083993

> <r_i_glide_evdw>
-44.9987640380859

> <r_i_glide_ecoul>
-5.3049693107605

> <r_i_glide_erotb>
0.589837851065511

> <r_i_glide_esite>
0

> <r_i_glide_emodel>
-72.5207972788567

> <r_i_glide_energy>
-50.3037333488464

> <r_i_glide_einternal>
4.74080896377563

> <i_i_glide_confnum>
49

> <i_i_glide_posenum>
396

> <r_i_glide_eff_state_penalty>
0

> <s_user_duplicate_titles>
CHEMBL258_lig1242,580631

> <s_m_subgroup_title>
dock_pv

> <s_m_subgroupid>
dock_pv

> <b_m_subgroup_collapsed>
1

$$$$
CHEMBL258_lig549
                    3D
 Schrodinger Suite 2021-1.
 61 65  0  0  1  0            999 V2000
   25.8240   37.3434   83.7892 C   0  0  0  0  0  0
   22.2016   37.0820   84.3376 C   0  0  0  0  0  0
   24.4057   37.2924   84.0870 C   0  0  0  0  0  0
   26.5362   36.5448   82.8210 C   0  0  0  0  0  0
   23.2996   36.5210   83.6875 N   0  0  0  0  0  0
   22.5027   38.0551   85.1500 N   0  0  0  0  0  0
   26.6238   38.2969   84.5191 C   0  0  0  0  0  0
   28.0390   38.3789   84.2835 C   0  0  0  0  0  0
   27.8684   36.6213   82.6449 N   0  0  0  0  0  0
   20.9193   36.6210   84.1491 N   0  0  0  0  0  0
   23.8456   38.2118   85.0139 C   0  0  0  0  0  0
   28.5967   37.5143   83.3358 C   0  0  0  0  0  0
   19.8207   36.8823   84.9862 C   0  0  0  0  0  0
   28.7784   40.8356   84.3651 C   0  0  0  0  0  0
   28.8941   39.4357   85.0154 C   0  0  0  0  0  0
   28.5630   41.9585   85.1117 N   0  0  0  0  0  0
   25.9882   39.1567   85.4521 C   0  0  0  0  0  0
   26.7614   43.9851   86.0310 N   0  0  0  0  0  0
   25.8718   35.7049   81.9929 O   0  0  0  0  0  0
   24.6265   39.1436   85.6868 C   0  0  0  0  0  0
   19.7620   36.3295   86.2788 C   0  0  0  0  0  0
   18.7243   37.6144   84.5004 C   0  0  0  0  0  0
   28.9825   40.8904   83.1481 O   0  0  0  0  0  0
   28.1658   41.9820   86.5362 C   0  0  0  0  0  0
   28.5494   43.2835   84.4524 C   0  0  0  0  0  0
   27.1442   43.9102   84.6196 C   0  0  0  0  0  0
   26.7751   42.6603   86.6550 C   0  0  0  0  0  0
   23.1906   35.4235   82.7218 C   0  0  0  0  0  0
   18.6742   38.2315   82.8865 Cl  0  0  0  0  0  0
   21.0269   35.3083   86.8870 Cl  0  0  0  0  0  0
   30.0695   37.5418   82.9550 C   0  0  0  0  0  0
   25.4416   44.6004   86.1627 C   0  0  0  0  0  0
   17.5757   37.3099   86.6082 C   0  0  0  0  0  0
   18.6427   36.5560   87.0845 C   0  0  0  0  0  0
   17.6114   37.8214   85.3152 C   0  0  0  0  0  0
   20.7478   35.8362   83.5388 H   0  0  0  0  0  0
   29.9496   39.1754   84.9772 H   0  0  0  0  0  0
   28.6778   39.3980   86.0769 H   0  0  0  0  0  0
   26.5670   39.8698   86.0099 H   0  0  0  0  0  0
   26.5162   35.4213   81.3368 H   0  0  0  0  0  0
   24.1838   39.8323   86.3891 H   0  0  0  0  0  0
   28.8930   42.5769   87.0905 H   0  0  0  0  0  0
   28.1337   41.0153   87.0278 H   0  0  0  0  0  0
   28.7870   43.2264   83.3921 H   0  0  0  0  0  0
   29.3002   43.9335   84.9036 H   0  0  0  0  0  0
   26.4091   43.2973   84.0909 H   0  0  0  0  0  0
   27.1287   44.9045   84.1705 H   0  0  0  0  0  0
   26.0177   42.0456   86.1627 H   0  0  0  0  0  0
   26.4972   42.7452   87.7061 H   0  0  0  0  0  0
   22.2366   34.9129   82.8291 H   0  0  0  0  0  0
   23.2643   35.8163   81.7084 H   0  0  0  0  0  0
   23.9518   34.6715   82.8889 H   0  0  0  0  0  0
   30.7077   37.4214   83.8288 H   0  0  0  0  0  0
   30.3281   36.7487   82.2498 H   0  0  0  0  0  0
   30.3183   38.4955   82.4899 H   0  0  0  0  0  0
   25.4422   45.6063   85.7395 H   0  0  0  0  0  0
   24.6690   44.0246   85.6519 H   0  0  0  0  0  0
   25.1576   44.6903   87.2121 H   0  0  0  0  0  0
   16.7086   37.4848   87.2302 H   0  0  0  0  0  0
   18.5848   36.1247   88.0728 H   0  0  0  0  0  0
   16.7692   38.3893   84.9448 H   0  0  0  0  0  0
  1  3  2  0  0  0
  1  4  1  0  0  0
  1  7  1  0  0  0
  2  5  1  0  0  0
  2 10  1  0  0  0
  2  6  2  0  0  0
  3  5  1  0  0  0
  3 11  1  0  0  0
  4  9  2  0  0  0
  4 19  1  0  0  0
  5 28  1  0  0  0
  6 11  1  0  0  0
  7  8  1  0  0  0
  7 17  2  0  0  0
  8 12  2  0  0  0
  8 15  1  0  0  0
  9 12  1  0  0  0
 10 13  1  0  0  0
 10 36  1  0  0  0
 11 20  2  0  0  0
 12 31  1  0  0  0
 13 21  2  0  0  0
 13 22  1  0  0  0
 14 15  1  0  0  0
 14 16  1  0  0  0
 14 23  2  0  0  0
 15 37  1  0  0  0
 15 38  1  0  0  0
 16 24  1  0  0  0
 16 25  1  0  0  0
 17 20  1  0  0  0
 17 39  1  0  0  0
 18 26  1  0  0  0
 18 32  1  0  0  0
 18 27  1  0  0  0
 19 40  1  0  0  0
 20 41  1  0  0  0
 21 30  1  0  0  0
 21 34  1  0  0  0
 22 29  1  0  0  0
 22 35  2  0  0  0
 24 27  1  0  0  0
 24 42  1  0  0  0
 24 43  1  0  0  0
 25 26  1  0  0  0
 25 44  1  0  0  0
 25 45  1  0  0  0
 26 46  1  0  0  0
 26 47  1  0  0  0
 27 48  1  0  0  0
 27 49  1  0  0  0
 28 50  1  0  0  0
 28 51  1  0  0  0
 28 52  1  0  0  0
 31 53  1  0  0  0
 31 54  1  0  0  0
 31 55  1  0  0  0
 32 56  1  0  0  0
 32 57  1  0  0  0
 32 58  1  0  0  0
 33 35  1  0  0  0
 33 34  2  0  0  0
 33 59  1  0  0  0
 34 60  1  0  0  0
 35 61  1  0  0  0
M  END
> <s_m_entry_id>
4577

> <s_m_entry_name>
dock_pv.65

> <s_m_Source_Path>
/home/csk/Desktop/cluster/DUD-E-result/lck

> <s_m_Source_File>
dock_pv.maegz

> <i_m_Source_File_Index>
65

> <chembl_id>
CHEMBL29488

> <chembl_pref_name>
None

> <i_lp_mmshare_version>
53161

> <i_f3d_flags>
0

> <r_lp_tautomer_probability>
1

> <s_lp_Force_Field>
OPLS_2005

> <r_lp_Energy>
61.503046

> <b_lp_Chiralities_Consistent>
1

> <s_lp_Variant>
CHEMBL258_lig549-1

> <s_i_glide_gridfile>
glide-grid_2of2

> <i_i_glide_lignum>
621

> <i_i_glide_rotatable_bonds>
6

> <r_i_docking_score>
-7.7714426491595

> <r_i_glide_ligand_efficiency>
-0.222041218547414

> <r_i_glide_ligand_efficiency_sa>
-0.726311548602906

> <r_i_glide_ligand_efficiency_ln>
-1.70600413936725

> <r_i_glide_gscore>
-7.7714426491595

> <r_i_glide_lipo>
-3.50757564072758

> <r_i_glide_hbond>
-0.635844063002196

> <r_i_glide_metal>
0

> <r_i_glide_rewards>
-0.496997391489852

> <r_i_glide_evdw>
-46.6320838928223

> <r_i_glide_ecoul>
-7.79680776596069

> <r_i_glide_erotb>
0.388962698143819

> <r_i_glide_esite>
-0.01886289254848

> <r_i_glide_emodel>
-78.1255795061103

> <r_i_glide_energy>
-54.428891658783

> <r_i_glide_einternal>
2.32702565193176

> <i_i_glide_confnum>
20

> <i_i_glide_posenum>
395

> <r_i_glide_eff_state_penalty>
0

> <s_user_duplicate_titles>
CHEMBL258_lig549,37624

> <s_m_subgroup_title>
dock_pv

> <s_m_subgroupid>
dock_pv

> <b_m_subgroup_collapsed>
1

$$$$
CHEMBL258_lig640
                    3D
 Schrodinger Suite 2021-1.
 52 55  0  0  1  0            999 V2000
   27.0450   38.0897   84.7280 C   0  0  0  0  0  0
   27.7727   37.4780   83.6874 C   0  0  0  0  0  0
   27.1212   36.5911   82.8140 C   0  0  0  0  0  0
   25.6878   37.8026   84.8833 C   0  0  0  0  0  0
   25.0081   36.9296   84.0036 C   0  0  0  0  0  0
   25.7495   36.2919   82.9667 C   0  0  0  0  0  0
   25.1626   35.4215   82.0972 N   0  0  0  0  0  0
   23.8275   35.2473   82.2351 C   0  0  0  0  0  0
   23.0200   35.8210   83.1537 N   0  0  0  0  0  0
   23.6044   36.6615   84.0394 C   0  0  0  0  0  0
   22.7855   37.3613   84.9471 N   0  0  0  0  0  0
   21.4023   37.6156   85.0596 C   0  0  0  0  0  0
   20.4252   37.0276   84.2407 C   0  0  0  0  0  0
   19.0823   37.3892   84.3633 C   0  0  0  0  0  0
   18.6943   38.3346   85.3088 C   0  0  0  0  0  0
   19.6509   38.9235   86.1338 C   0  0  0  0  0  0
   20.9983   38.5631   86.0147 C   0  0  0  0  0  0
   29.1251   37.7510   83.5946 O   0  0  0  0  0  0
   27.7383   39.0219   85.7457 C   0  0  0  0  0  0
   27.2249   40.4065   85.8236 N   0  0  1  0  0  0
   29.9486   36.9643   82.7356 C   0  0  0  0  0  0
   19.1613   40.1129   87.2871 Cl  0  0  0  0  0  0
   21.9187   39.1500   86.8223 F   0  0  0  0  0  0
   27.1339   41.1481   84.5418 C   0  0  1  0  0  0
   26.4225   42.5323   84.6681 C   0  0  0  0  0  0
   25.2483   42.4237   85.4597 O   0  0  0  0  0  0
   25.5607   42.0383   86.7918 C   0  0  0  0  0  0
   26.1291   40.6091   86.7912 C   0  0  0  0  0  0
   28.5498   41.3439   83.9394 C   0  0  0  0  0  0
   29.3723   42.1998   84.5439 N   0  0  0  0  0  0
   28.8933   40.7575   82.9146 O   0  0  0  0  0  0
   27.6513   36.1056   82.0076 H   0  0  0  0  0  0
   25.1253   38.2333   85.6866 H   0  0  0  0  0  0
   23.3500   34.6206   81.5005 H   0  0  0  0  0  0
   23.3168   37.9203   85.5957 H   0  0  0  0  0  0
   20.6751   36.2886   83.4985 H   0  0  0  0  0  0
   18.3424   36.9278   83.7259 H   0  0  0  0  0  0
   17.6523   38.6181   85.4002 H   0  0  0  0  0  0
   28.8068   39.0748   85.5346 H   0  0  0  0  0  0
   27.6774   38.5698   86.7362 H   0  0  0  0  0  0
   30.9951   37.2064   82.9248 H   0  0  0  0  0  0
   29.8211   35.8912   82.8867 H   0  0  0  0  0  0
   29.7501   37.1679   81.6871 H   0  0  0  0  0  0
   26.5563   40.5513   83.8355 H   0  0  0  0  0  0
   27.0602   43.2870   85.1353 H   0  0  0  0  0  0
   26.1486   42.9296   83.6904 H   0  0  0  0  0  0
   26.2625   42.7350   87.2526 H   0  0  0  0  0  0
   24.6489   42.0784   87.3885 H   0  0  0  0  0  0
   26.4694   40.3268   87.7884 H   0  0  0  0  0  0
   25.2905   39.9599   86.5762 H   0  0  0  0  0  0
   30.2327   42.4715   84.0813 H   0  0  0  0  0  0
   29.1307   42.6083   85.4315 H   0  0  0  0  0  0
  1  2  2  0  0  0
  1 19  1  0  0  0
  1  4  1  0  0  0
  2 18  1  0  0  0
  2  3  1  0  0  0
  3  6  2  0  0  0
  3 32  1  0  0  0
  4  5  2  0  0  0
  4 33  1  0  0  0
  5 10  1  0  0  0
  5  6  1  0  0  0
  6  7  1  0  0  0
  7  8  2  0  0  0
  8  9  1  0  0  0
  8 34  1  0  0  0
  9 10  2  0  0  0
 10 11  1  0  0  0
 11 12  1  0  0  0
 11 35  1  0  0  0
 12 17  2  0  0  0
 12 13  1  0  0  0
 13 14  2  0  0  0
 13 36  1  0  0  0
 14 15  1  0  0  0
 14 37  1  0  0  0
 15 16  2  0  0  0
 15 38  1  0  0  0
 16 17  1  0  0  0
 16 22  1  0  0  0
 17 23  1  0  0  0
 18 21  1  0  0  0
 19 20  1  0  0  0
 19 39  1  0  0  0
 19 40  1  0  0  0
 20 24  1  0  0  0
 20 28  1  0  0  0
 21 41  1  0  0  0
 21 42  1  0  0  0
 21 43  1  0  0  0
 24 25  1  0  0  0
 24 29  1  0  0  0
 24 44  1  0  0  0
 25 26  1  0  0  0
 25 45  1  0  0  0
 25 46  1  0  0  0
 26 27  1  0  0  0
 27 28  1  0  0  0
 27 47  1  0  0  0
 27 48  1  0  0  0
 28 49  1  0  0  0
 28 50  1  0  0  0
 29 30  1  0  0  0
 29 31  2  0  0  0
 30 51  1  0  0  0
 30 52  1  0  0  0
M  END
> <s_m_entry_id>
4578

> <s_m_entry_name>
dock_pv.66

> <s_m_Source_Path>
/home/csk/Desktop/cluster/DUD-E-result/lck

> <s_m_Source_File>
dock_pv.maegz

> <i_m_Source_File_Index>
66

> <chembl_id>
CHEMBL207674

> <chembl_pref_name>
None

> <i_lp_mmshare_version>
53161

> <i_f3d_flags>
0

> <r_lp_tautomer_probability>
0.999978000241998

> <s_lp_Force_Field>
OPLS_2005

> <r_lp_Energy>
36.180499

> <b_lp_Chiralities_Consistent>
1

> <s_lp_Variant>
CHEMBL258_lig640-2

> <s_i_glide_gridfile>
glide-grid_2of2

> <i_i_glide_lignum>
722

> <i_i_glide_rotatable_bonds>
6

> <r_i_docking_score>
-7.76728525615117

> <r_i_glide_ligand_efficiency>
-0.250557588908102

> <r_i_glide_ligand_efficiency_sa>
-0.787096761204789

> <r_i_glide_ligand_efficiency_ln>
-1.75176086396782

> <r_i_glide_gscore>
-7.76728525615117

> <r_i_glide_lipo>
-2.83699560427532

> <r_i_glide_hbond>
-0.497518936132847

> <r_i_glide_metal>
0

> <r_i_glide_rewards>
-1.86100895490155

> <r_i_glide_evdw>
-38.6765213012695

> <r_i_glide_ecoul>
-6.31301498413086

> <r_i_glide_erotb>
0.402643866664698

> <r_i_glide_esite>
-0.0936273148230516

> <r_i_glide_emodel>
-61.1552178310954

> <r_i_glide_energy>
-44.9895362854004

> <r_i_glide_einternal>
8.51915168762207

> <i_i_glide_confnum>
8

> <i_i_glide_posenum>
316

> <r_i_glide_eff_state_penalty>
0

> <s_user_duplicate_titles>
CHEMBL258_lig640

> <s_m_subgroup_title>
dock_pv

> <s_m_subgroupid>
dock_pv

> <b_m_subgroup_collapsed>
1

$$$$
CHEMBL258_lig1160
                    3D
 Schrodinger Suite 2021-1.
 57 60  0  0  1  0            999 V2000
   17.9540   37.8103   82.8852 C   0  0  0  0  0  0
   18.1194   38.6433   84.0207 O   0  0  0  0  0  0
   19.3006   38.5813   84.7281 C   0  0  0  0  0  0
   20.3958   37.7680   84.3938 C   0  0  0  0  0  0
   21.5705   37.8145   85.1441 C   0  0  0  0  0  0
   22.6849   37.0813   84.7002 N   0  0  0  0  0  0
   24.0129   37.5083   84.4872 C   0  0  0  0  0  0
   24.3393   38.6772   85.0850 N   0  0  0  0  0  0
   25.5825   39.1892   84.9899 C   0  0  0  0  0  0
   25.8797   40.4107   85.6192 N   0  0  0  0  0  0
   24.8006   41.3173   86.0242 C   0  0  1  0  0  0
   25.2995   42.2573   87.1448 C   0  0  0  0  0  0
   24.1715   43.2074   87.6043 C   0  0  0  0  0  0
   23.5259   43.9677   86.4222 C   0  0  0  0  0  0
   23.0952   43.0079   85.2876 C   0  0  0  0  0  0
   24.2539   42.1080   84.7966 C   0  0  1  0  0  0
   25.2722   42.8758   84.0871 N   0  0  0  0  0  0
   26.5436   38.5228   84.2850 N   0  0  0  0  0  0
   27.8797   38.7625   84.0405 C   0  0  0  0  0  0
   28.3785   37.8106   83.2872 N   0  0  0  0  0  0
   27.3611   36.9359   82.9469 N   0  0  0  0  0  0
   26.2376   37.3304   83.6006 C   0  0  0  0  0  0
   24.9279   36.7869   83.6711 C   0  0  0  0  0  0
   24.5519   35.5441   82.8863 C   0  0  0  0  0  0
   25.3799   34.6957   82.5764 O   0  0  0  0  0  0
   23.2899   35.4200   82.4729 N   0  0  0  0  0  0
   21.6252   38.6317   86.2756 C   0  0  0  0  0  0
   20.5610   39.4605   86.6139 C   0  0  0  0  0  0
   20.7347   40.2882   87.7003 O   0  0  0  0  0  0
   19.9815   41.4967   87.7489 C   0  0  0  0  0  0
   19.3966   39.4185   85.8365 C   0  0  0  0  0  0
   16.9497   37.9466   82.4872 H   0  0  0  0  0  0
   18.6525   38.0733   82.0894 H   0  0  0  0  0  0
   18.0649   36.7541   83.1398 H   0  0  0  0  0  0
   20.3549   37.1293   83.5233 H   0  0  0  0  0  0
   22.4637   36.2067   84.2493 H   0  0  0  0  0  0
   26.7326   40.8619   85.3235 H   0  0  0  0  0  0
   23.9839   40.7176   86.4339 H   0  0  0  0  0  0
   25.6492   41.6723   87.9974 H   0  0  0  0  0  0
   26.1557   42.8414   86.7969 H   0  0  0  0  0  0
   24.5553   43.9192   88.3378 H   0  0  0  0  0  0
   23.4031   42.6291   88.1202 H   0  0  0  0  0  0
   24.2333   44.7014   86.0305 H   0  0  0  0  0  0
   22.6607   44.5331   86.7710 H   0  0  0  0  0  0
   22.6938   43.5890   84.4540 H   0  0  0  0  0  0
   22.2628   42.3891   85.6311 H   0  0  0  0  0  0
   23.8355   41.3792   84.1000 H   0  0  0  0  0  0
   24.8077   43.5030   83.4350 H   0  0  0  0  0  0
   25.7266   43.4839   84.7532 H   0  0  0  0  0  0
   28.4140   39.6086   84.4491 H   0  0  0  0  0  0
   23.0007   34.5893   81.9700 H   0  0  0  0  0  0
   22.6808   36.2220   82.4925 H   0  0  0  0  0  0
   22.5180   38.6662   86.8801 H   0  0  0  0  0  0
   20.2908   42.0874   88.6087 H   0  0  0  0  0  0
   18.9103   41.3214   87.8401 H   0  0  0  0  0  0
   20.1619   42.1024   86.8640 H   0  0  0  0  0  0
   18.5484   40.0342   86.0870 H   0  0  0  0  0  0
  1  2  1  0  0  0
  1 32  1  0  0  0
  1 33  1  0  0  0
  1 34  1  0  0  0
  2  3  1  0  0  0
  3  4  1  0  0  0
  3 31  2  0  0  0
  4  5  2  0  0  0
  4 35  1  0  0  0
  5  6  1  0  0  0
  5 27  1  0  0  0
  6  7  1  0  0  0
  6 36  1  0  0  0
  7  8  1  0  0  0
  7 23  2  0  0  0
  8  9  2  0  0  0
  9 10  1  0  0  0
  9 18  1  0  0  0
 10 11  1  0  0  0
 10 37  1  0  0  0
 11 12  1  0  0  0
 11 16  1  0  0  0
 11 38  1  0  0  0
 12 13  1  0  0  0
 12 39  1  0  0  0
 12 40  1  0  0  0
 13 14  1  0  0  0
 13 41  1  0  0  0
 13 42  1  0  0  0
 14 15  1  0  0  0
 14 43  1  0  0  0
 14 44  1  0  0  0
 15 16  1  0  0  0
 15 45  1  0  0  0
 15 46  1  0  0  0
 16 17  1  0  0  0
 16 47  1  0  0  0
 17 48  1  0  0  0
 17 49  1  0  0  0
 18 19  1  0  0  0
 18 22  1  0  0  0
 19 20  2  0  0  0
 19 50  1  0  0  0
 20 21  1  0  0  0
 21 22  2  0  0  0
 22 23  1  0  0  0
 23 24  1  0  0  0
 24 25  2  0  0  0
 24 26  1  0  0  0
 26 51  1  0  0  0
 26 52  1  0  0  0
 27 28  2  0  0  0
 27 53  1  0  0  0
 28 29  1  0  0  0
 28 31  1  0  0  0
 29 30  1  0  0  0
 30 54  1  0  0  0
 30 55  1  0  0  0
 30 56  1  0  0  0
 31 57  1  0  0  0
M  END
> <s_m_entry_id>
4579

> <s_m_entry_name>
dock_pv.67

> <s_m_Source_Path>
/home/csk/Desktop/cluster/DUD-E-result/lck

> <s_m_Source_File>
dock_pv.maegz

> <i_m_Source_File_Index>
67

> <chembl_id>
CHEMBL475609

> <chembl_pref_name>
None

> <i_lp_mmshare_version>
53161

> <i_f3d_flags>
0

> <r_lp_tautomer_probability>
1

> <s_lp_Force_Field>
OPLS_2005

> <r_lp_Energy>
47.996497

> <b_lp_Chiralities_Consistent>
1

> <s_lp_Variant>
CHEMBL258_lig1160-1

> <s_i_glide_gridfile>
glide-grid_2of2

> <i_i_glide_lignum>
1248

> <i_i_glide_rotatable_bonds>
7

> <r_i_docking_score>
-7.76675099669219

> <r_i_glide_ligand_efficiency>
-0.250540354732006

> <r_i_glide_ligand_efficiency_sa>
-0.787042622097502

> <r_i_glide_ligand_efficiency_ln>
-1.75164037208674

> <r_i_glide_gscore>
-7.76675099669219

> <r_i_glide_lipo>
-1.79310520813683

> <r_i_glide_hbond>
-0.944652794503671

> <r_i_glide_metal>
0

> <r_i_glide_rewards>
-1.91280808476372

> <r_i_glide_evdw>
-44.3827857971191

> <r_i_glide_ecoul>
-8.89014053344727

> <r_i_glide_erotb>
0.436475460585085

> <r_i_glide_esite>
0

> <r_i_glide_emodel>
-75.0067301792125

> <r_i_glide_energy>
-53.2729263305664

> <r_i_glide_einternal>
6.75385665893555

> <i_i_glide_confnum>
23

> <i_i_glide_posenum>
168

> <r_i_glide_eff_state_penalty>
0

> <s_user_duplicate_titles>
CHEMBL258_lig1160,459602

> <s_m_subgroup_title>
dock_pv

> <s_m_subgroupid>
dock_pv

> <b_m_subgroup_collapsed>
1

$$$$
CHEMBL258_lig1053
                    3D
 Schrodinger Suite 2021-1.
 32 34  0  0  1  0            999 V2000
   22.4583   40.2420   86.0244 O   0  0  0  0  0  0
   23.0618   39.1605   85.4445 C   0  0  0  0  0  0
   22.4695   37.9540   85.2857 C   0  0  0  0  0  0
   23.0542   36.8952   84.6687 O   0  0  0  0  0  0
   24.3114   37.0594   84.1252 C   0  0  0  0  0  0
   24.8079   35.9788   83.4099 C   0  0  0  0  0  0
   26.0525   36.0704   82.8114 C   0  0  0  0  0  0
   26.5218   35.0210   82.0870 O   0  0  0  0  0  0
   26.8088   37.2261   82.9374 C   0  0  0  0  0  0
   26.3139   38.3135   83.6504 C   0  0  0  0  0  0
   27.0978   39.4341   83.7202 O   0  0  0  0  0  0
   25.0437   38.2517   84.2507 C   0  0  0  0  0  0
   24.4357   39.4062   84.9863 C   0  0  0  0  0  0
   25.0413   40.4689   85.1472 O   0  0  0  0  0  0
   21.0647   37.6572   85.6248 C   0  0  0  0  0  0
   20.7318   36.6068   86.4870 C   0  0  0  0  0  0
   19.4039   36.4004   86.8712 C   0  0  0  0  0  0
   18.3931   37.2262   86.3798 C   0  0  0  0  0  0
   17.1029   37.0210   86.8020 O   0  0  0  0  0  0
   18.7123   38.2331   85.4594 C   0  0  0  0  0  0
   17.7500   39.0210   84.8870 O   0  0  0  0  0  0
   20.0401   38.4505   85.0999 C   0  0  0  0  0  0
   23.0581   40.9974   86.0155 H   0  0  0  0  0  0
   24.2165   35.0842   83.2992 H   0  0  0  0  0  0
   27.2671   35.2579   81.5217 H   0  0  0  0  0  0
   27.7875   37.2867   82.4870 H   0  0  0  0  0  0
   26.6543   40.1195   84.2353 H   0  0  0  0  0  0
   21.5056   35.9670   86.8864 H   0  0  0  0  0  0
   19.1571   35.5985   87.5524 H   0  0  0  0  0  0
   16.4879   37.6893   86.4870 H   0  0  0  0  0  0
   17.1085   39.3878   85.5212 H   0  0  0  0  0  0
   20.2781   39.2536   84.4171 H   0  0  0  0  0  0
  1  2  1  0  0  0
  1 23  1  0  0  0
  2  3  2  0  0  0
  2 13  1  0  0  0
  3  4  1  0  0  0
  3 15  1  0  0  0
  4  5  1  0  0  0
  5  6  2  0  0  0
  5 12  1  0  0  0
  6  7  1  0  0  0
  6 24  1  0  0  0
  7  8  1  0  0  0
  7  9  2  0  0  0
  8 25  1  0  0  0
  9 10  1  0  0  0
  9 26  1  0  0  0
 10 11  1  0  0  0
 10 12  2  0  0  0
 11 27  1  0  0  0
 12 13  1  0  0  0
 13 14  2  0  0  0
 15 16  2  0  0  0
 15 22  1  0  0  0
 16 17  1  0  0  0
 16 28  1  0  0  0
 17 18  2  0  0  0
 17 29  1  0  0  0
 18 19  1  0  0  0
 18 20  1  0  0  0
 19 30  1  0  0  0
 20 21  1  0  0  0
 20 22  2  0  0  0
 21 31  1  0  0  0
 22 32  1  0  0  0
M  END
> <s_m_entry_id>
4580

> <s_m_entry_name>
dock_pv.68

> <s_m_Source_Path>
/home/csk/Desktop/cluster/DUD-E-result/lck

> <s_m_Source_File>
dock_pv.maegz

> <i_m_Source_File_Index>
68

> <chembl_id>
CHEMBL50

> <chembl_pref_name>
QUERCETIN

> <i_lp_mmshare_version>
53161

> <i_f3d_flags>
0

> <r_lp_tautomer_probability>
0.999999999999776

> <s_lp_Force_Field>
OPLS_2005

> <r_lp_Energy>
20.019118

> <b_lp_Chiralities_Consistent>
1

> <s_lp_Variant>
CHEMBL258_lig1053-1

> <s_i_glide_gridfile>
glide-grid_2of2

> <i_i_glide_lignum>
1141

> <i_i_glide_rotatable_bonds>
6

> <r_i_docking_score>
-7.76389750948387

> <r_i_glide_ligand_efficiency>
-0.352904432249267

> <r_i_glide_ligand_efficiency_sa>
-0.988852098106194

> <r_i_glide_ligand_efficiency_ln>
-1.89777974636038

> <r_i_glide_gscore>
-7.76389750948387

> <r_i_glide_lipo>
-3.05124585535083

> <r_i_glide_hbond>
-0.382916488586943

> <r_i_glide_metal>
0

> <r_i_glide_rewards>
-1.44024892268889

> <r_i_glide_evdw>
-33.1032104492188

> <r_i_glide_ecoul>
-9.57237148284912

> <r_i_glide_erotb>
0.20153000203109

> <r_i_glide_esite>
0

> <r_i_glide_emodel>
-59.2666998063929

> <r_i_glide_energy>
-42.6755819320679

> <r_i_glide_einternal>
7.9926118850708

> <i_i_glide_confnum>
2

> <i_i_glide_posenum>
275

> <r_i_glide_eff_state_penalty>
0

> <s_user_duplicate_titles>
CHEMBL258_lig1053

> <s_m_subgroup_title>
dock_pv

> <s_m_subgroupid>
dock_pv

> <b_m_subgroup_collapsed>
1

$$$$
CHEMBL258_lig590
                    3D
 Schrodinger Suite 2021-1.
 43 45  0  0  1  0            999 V2000
   23.9662   37.3762   84.2300 N   0  0  0  0  0  0
   25.2848   37.3072   83.8966 C   0  0  0  0  0  0
   24.9223   35.3402   82.5249 N   0  0  0  0  0  0
   26.1888   38.2607   84.4129 C   0  0  0  0  0  0
   25.7656   36.2808   83.0334 C   0  0  0  0  0  0
   23.1301   36.4256   83.7244 C   0  0  0  0  0  0
   27.1377   36.2381   82.7120 C   0  0  0  0  0  0
   27.5552   38.2030   84.0861 C   0  0  0  0  0  0
   28.0275   37.1915   83.2345 C   0  0  0  0  0  0
   21.7508   36.4757   83.9908 N   0  0  0  0  0  0
   23.6159   35.4229   82.8867 C   0  0  0  0  0  0
   21.1341   37.5889   84.7087 C   0  0  1  0  0  0
   28.4917   39.0980   84.5726 O   0  0  0  0  0  0
   29.3829   37.1880   82.9409 O   0  0  0  0  0  0
   19.1238   38.6789   86.6297 C   0  0  2  0  0  0
   19.6384   37.6541   84.3325 C   0  0  0  0  0  0
   21.3113   37.4016   86.2292 C   0  0  0  0  0  0
   20.6217   38.5472   86.9969 C   0  0  0  0  0  0
   18.9043   38.7713   85.1045 C   0  0  0  0  0  0
   18.5509   39.7908   87.2840 O   0  0  0  0  0  0
   28.0971   40.0943   85.5081 C   0  0  0  0  0  0
   29.9220   36.1870   82.0826 C   0  0  0  0  0  0
   25.7949   39.0263   85.0635 H   0  0  0  0  0  0
   27.4853   35.4325   82.0855 H   0  0  0  0  0  0
   21.2364   35.6059   83.9774 H   0  0  0  0  0  0
   22.9508   34.6749   82.4871 H   0  0  0  0  0  0
   21.6349   38.5116   84.4098 H   0  0  0  0  0  0
   18.6059   37.8028   87.0215 H   0  0  0  0  0  0
   19.5304   37.8219   83.2594 H   0  0  0  0  0  0
   19.1569   36.6961   84.5405 H   0  0  0  0  0  0
   20.8988   36.4408   86.5440 H   0  0  0  0  0  0
   22.3706   37.3772   86.4910 H   0  0  0  0  0  0
   21.1324   39.4858   86.7733 H   0  0  0  0  0  0
   20.7523   38.3933   88.0684 H   0  0  0  0  0  0
   19.2543   39.7428   84.7505 H   0  0  0  0  0  0
   17.8362   38.7332   84.8809 H   0  0  0  0  0  0
   17.6458   39.9225   86.9406 H   0  0  0  0  0  0
   28.9706   40.6820   85.7933 H   0  0  0  0  0  0
   27.6896   39.6491   86.4174 H   0  0  0  0  0  0
   27.3638   40.7789   85.0794 H   0  0  0  0  0  0
   30.9919   36.3578   81.9624 H   0  0  0  0  0  0
   29.7955   35.1857   82.4975 H   0  0  0  0  0  0
   29.4737   36.2208   81.0884 H   0  0  0  0  0  0
  1  2  1  0  0  0
  1  6  2  0  0  0
  2  4  2  0  0  0
  2  5  1  0  0  0
  3 11  2  0  0  0
  3  5  1  0  0  0
  4  8  1  0  0  0
  4 23  1  0  0  0
  5  7  2  0  0  0
  6 10  1  0  0  0
  6 11  1  0  0  0
  7  9  1  0  0  0
  7 24  1  0  0  0
  8 13  1  0  0  0
  8  9  2  0  0  0
  9 14  1  0  0  0
 10 12  1  0  0  0
 10 25  1  0  0  0
 11 26  1  0  0  0
 12 16  1  0  0  0
 12 17  1  0  0  0
 12 27  1  0  0  0
 13 21  1  0  0  0
 14 22  1  0  0  0
 15 18  1  0  0  0
 15 20  1  0  0  0
 15 19  1  0  0  0
 15 28  1  0  0  0
 16 19  1  0  0  0
 16 29  1  0  0  0
 16 30  1  0  0  0
 17 18  1  0  0  0
 17 31  1  0  0  0
 17 32  1  0  0  0
 18 33  1  0  0  0
 18 34  1  0  0  0
 19 35  1  0  0  0
 19 36  1  0  0  0
 20 37  1  0  0  0
 21 38  1  0  0  0
 21 39  1  0  0  0
 21 40  1  0  0  0
 22 41  1  0  0  0
 22 42  1  0  0  0
 22 43  1  0  0  0
M  END
> <s_m_entry_id>
4581

> <s_m_entry_name>
dock_pv.69

> <s_m_Source_Path>
/home/csk/Desktop/cluster/DUD-E-result/lck

> <s_m_Source_File>
dock_pv.maegz

> <i_m_Source_File_Index>
69

> <chembl_id>
CHEMBL104466

> <chembl_pref_name>
None

> <i_lp_mmshare_version>
53161

> <i_f3d_flags>
0

> <r_lp_tautomer_probability>
1

> <s_lp_Force_Field>
OPLS_2005

> <r_lp_Energy>
27.756263

> <b_lp_Chiralities_Consistent>
1

> <s_lp_Variant>
CHEMBL258_lig590-1

> <s_i_glide_gridfile>
glide-grid_2of2

> <i_i_glide_lignum>
667

> <i_i_glide_rotatable_bonds>
5

> <r_i_docking_score>
-7.75511475186001

> <r_i_glide_ligand_efficiency>
-0.352505215993637

> <r_i_glide_ligand_efficiency_sa>
-0.987733478457634

> <r_i_glide_ligand_efficiency_ln>
-1.89563292003824

> <r_i_glide_gscore>
-7.75511475186001

> <r_i_glide_lipo>
-2.95776487451708

> <r_i_glide_hbond>
-0.456278219376959

> <r_i_glide_metal>
0

> <r_i_glide_rewards>
-2.09074276185389

> <r_i_glide_evdw>
-28.5991077423096

> <r_i_glide_ecoul>
-8.13886070251465

> <r_i_glide_erotb>
0.400455596380598

> <r_i_glide_esite>
0

> <r_i_glide_emodel>
-54.9459683232287

> <r_i_glide_energy>
-36.7379684448242

> <r_i_glide_einternal>
1.25637650489807

> <i_i_glide_confnum>
4

> <i_i_glide_posenum>
108

> <r_i_glide_eff_state_penalty>
0

> <s_user_duplicate_titles>
CHEMBL258_lig590

> <s_m_subgroup_title>
dock_pv

> <s_m_subgroupid>
dock_pv

> <b_m_subgroup_collapsed>
1

$$$$
CHEMBL258_lig358
                    3D
 Schrodinger Suite 2021-1.
 34 37  0  0  1  0            999 V2000
   24.9520   36.7094   83.6179 C   0  0  0  0  0  0
   24.4326   37.6855   84.4862 C   0  0  0  0  0  0
   26.3127   36.8126   83.3067 N   0  0  0  0  0  0
   25.2173   38.6887   84.9772 N   0  0  0  0  0  0
   22.3873   38.2740   85.7620 C   0  0  0  0  0  0
   23.0752   37.5825   84.8305 N   0  0  0  0  0  0
   20.9580   37.8340   85.9447 C   0  0  0  0  0  0
   27.1266   37.7811   83.7884 C   0  0  0  0  0  0
   26.5357   38.7459   84.6474 C   0  0  0  0  0  0
   25.5140   35.0216   82.2383 N   0  0  0  0  0  0
   26.5860   35.7426   82.4871 C   0  0  0  0  0  0
   24.5160   35.5729   82.8881 C   0  0  0  0  0  0
   22.8432   39.1618   86.4832 O   0  0  0  0  0  0
   20.6586   36.5696   86.4907 C   0  0  0  0  0  0
   19.8951   38.7045   85.6281 C   0  0  0  0  0  0
   20.1523   40.2479   84.8889 Cl  0  0  0  0  0  0
   21.8815   35.4089   86.8873 Cl  0  0  0  0  0  0
   28.5136   37.8536   83.4853 C   0  0  0  0  0  0
   27.3428   39.7804   85.1762 C   0  0  0  0  0  0
   18.2998   37.1033   86.4868 C   0  0  0  0  0  0
   18.5779   38.3354   85.9066 C   0  0  0  0  0  0
   19.3397   36.2215   86.7690 C   0  0  0  0  0  0
   29.2779   38.8861   84.0256 C   0  0  0  0  0  0
   28.7007   39.8404   84.8593 C   0  0  0  0  0  0
   22.5706   36.8615   84.3418 H   0  0  0  0  0  0
   27.5714   35.5491   82.0884 H   0  0  0  0  0  0
   23.5218   35.1512   82.8352 H   0  0  0  0  0  0
   28.9775   37.1193   82.8443 H   0  0  0  0  0  0
   26.8994   40.5160   85.8303 H   0  0  0  0  0  0
   17.2772   36.8330   86.7113 H   0  0  0  0  0  0
   17.7660   39.0145   85.6869 H   0  0  0  0  0  0
   19.1191   35.2588   87.2077 H   0  0  0  0  0  0
   30.3326   38.9461   83.7996 H   0  0  0  0  0  0
   29.3117   40.6316   85.2706 H   0  0  0  0  0  0
  1  2  1  0  0  0
  1  3  1  0  0  0
  1 12  2  0  0  0
  2  4  2  0  0  0
  2  6  1  0  0  0
  3  8  1  0  0  0
  3 11  1  0  0  0
  4  9  1  0  0  0
  5  6  1  0  0  0
  5  7  1  0  0  0
  5 13  2  0  0  0
  6 25  1  0  0  0
  7 14  2  0  0  0
  7 15  1  0  0  0
  8  9  1  0  0  0
  8 18  2  0  0  0
  9 19  2  0  0  0
 10 12  1  0  0  0
 10 11  2  0  0  0
 11 26  1  0  0  0
 12 27  1  0  0  0
 14 17  1  0  0  0
 14 22  1  0  0  0
 15 16  1  0  0  0
 15 21  2  0  0  0
 18 23  1  0  0  0
 18 28  1  0  0  0
 19 24  1  0  0  0
 19 29  1  0  0  0
 20 21  1  0  0  0
 20 22  2  0  0  0
 20 30  1  0  0  0
 21 31  1  0  0  0
 22 32  1  0  0  0
 23 24  2  0  0  0
 23 33  1  0  0  0
 24 34  1  0  0  0
M  END
> <s_m_entry_id>
4582

> <s_m_entry_name>
dock_pv.70

> <s_m_Source_Path>
/home/csk/Desktop/cluster/DUD-E-result/lck

> <s_m_Source_File>
dock_pv.maegz

> <i_m_Source_File_Index>
70

> <chembl_id>
CHEMBL30221

> <chembl_pref_name>
None

> <i_lp_mmshare_version>
53161

> <i_f3d_flags>
0

> <r_lp_tautomer_probability>
1

> <s_lp_Force_Field>
OPLS_2005

> <r_lp_Energy>
63.131477

> <b_lp_Chiralities_Consistent>
1

> <s_lp_Variant>
CHEMBL258_lig358-1

> <s_i_glide_gridfile>
glide-grid_2of2

> <i_i_glide_lignum>
398

> <i_i_glide_rotatable_bonds>
3

> <r_i_docking_score>
-7.74678375552099

> <r_i_glide_ligand_efficiency>
-0.322782656480041

> <r_i_glide_ligand_efficiency_sa>
-0.93106629423572

> <r_i_glide_ligand_efficiency_ln>
-1.85416082943954

> <r_i_glide_gscore>
-7.74678375552099

> <r_i_glide_lipo>
-2.79142478466692

> <r_i_glide_hbond>
-0.318283070229701

> <r_i_glide_metal>
0

> <r_i_glide_rewards>
-2.61217189780813

> <r_i_glide_evdw>
-39.6334342956543

> <r_i_glide_ecoul>
-3.28871631622314

> <r_i_glide_erotb>
0.450075159399964

> <r_i_glide_esite>
0

> <r_i_glide_emodel>
-63.0514925404211

> <r_i_glide_energy>
-42.9221506118774

> <r_i_glide_einternal>
0.123072795569897

> <i_i_glide_confnum>
1

> <i_i_glide_posenum>
178

> <r_i_glide_eff_state_penalty>
0

> <s_user_duplicate_titles>
CHEMBL258_lig358,39064

> <s_m_subgroup_title>
dock_pv

> <s_m_subgroupid>
dock_pv

> <b_m_subgroup_collapsed>
1

$$$$
CHEMBL258_lig57
                    3D
 Schrodinger Suite 2021-1.
 61 64  0  0  1  0            999 V2000
   25.0389   45.1869   89.1253 C   0  0  0  0  0  0
   25.8026   44.1182   88.4867 N   0  0  0  0  0  0
   27.1179   44.6269   88.0991 C   0  0  0  0  0  0
   25.0494   43.5889   87.3416 C   0  0  0  0  0  0
   25.6755   42.3299   86.6852 C   0  0  2  0  0  0
   24.7606   41.8016   85.5580 C   0  0  0  0  0  0
   25.3932   40.6000   84.8264 C   0  0  0  0  0  0
   25.7597   39.4601   85.8078 C   0  0  2  0  0  0
   26.6017   39.9755   86.9996 C   0  0  0  0  0  0
   25.9243   41.1764   87.6892 C   0  0  0  0  0  0
   26.5662   38.4653   85.1036 N   0  0  0  0  0  0
   26.1544   37.5074   84.1416 C   0  0  0  0  0  0
   27.1543   36.9674   83.2870 C   0  0  0  0  0  0
   26.7896   35.9214   82.4311 C   0  0  0  0  0  0
   25.5516   35.3987   82.3218 N   0  0  0  0  0  0
   24.5685   35.9413   83.0739 C   0  0  0  0  0  0
   23.2425   35.4776   82.8870 C   0  0  0  0  0  0
   22.2029   36.0796   83.5923 C   0  0  0  0  0  0
   22.4947   37.1052   84.4901 C   0  0  0  0  0  0
   23.7680   37.5260   84.7075 N   0  0  0  0  0  0
   24.8083   37.0011   84.0029 C   0  0  0  0  0  0
   21.4356   37.8714   85.2083 C   0  0  0  0  0  0
   20.2345   37.2681   85.6081 C   0  0  0  0  0  0
   19.2565   37.9965   86.2897 C   0  0  0  0  0  0
   17.8039   37.1956   86.7843 Cl  0  0  0  0  0  0
   19.4726   39.3494   86.5813 C   0  0  0  0  0  0
   18.5500   40.0732   87.2870 O   0  0  0  0  0  0
   20.6609   39.9644   86.1856 C   0  0  0  0  0  0
   20.9814   41.6229   86.5544 Cl  0  0  0  0  0  0
   21.6210   39.2309   85.4990 C   0  0  0  0  0  0
   28.6010   37.4211   83.2870 C   0  0  0  0  0  0
   29.0142   38.4258   83.8642 O   0  0  0  0  0  0
   29.6364   36.5598   82.5594 C   0  0  0  0  0  0
   25.5639   45.5673   90.0027 H   0  0  0  0  0  0
   24.0691   44.8194   89.4643 H   0  0  0  0  0  0
   24.8646   46.0225   88.4445 H   0  0  0  0  0  0
   27.6401   45.0435   88.9615 H   0  0  0  0  0  0
   27.7491   43.8306   87.7049 H   0  0  0  0  0  0
   27.0412   45.4078   87.3402 H   0  0  0  0  0  0
   24.0336   43.3454   87.6598 H   0  0  0  0  0  0
   24.9496   44.3749   86.5899 H   0  0  0  0  0  0
   26.6226   42.6022   86.2166 H   0  0  0  0  0  0
   23.7871   41.5350   85.9683 H   0  0  0  0  0  0
   24.5495   42.6003   84.8445 H   0  0  0  0  0  0
   26.2743   40.9319   84.2733 H   0  0  0  0  0  0
   24.6872   40.2265   84.0871 H   0  0  0  0  0  0
   24.8492   39.0209   86.2072 H   0  0  0  0  0  0
   27.6008   40.2683   86.6690 H   0  0  0  0  0  0
   26.7474   39.1728   87.7236 H   0  0  0  0  0  0
   26.5440   41.5243   88.5166 H   0  0  0  0  0  0
   24.9843   40.8795   88.1573 H   0  0  0  0  0  0
   27.5189   38.7707   84.9338 H   0  0  0  0  0  0
   27.5021   35.4483   81.7707 H   0  0  0  0  0  0
   23.0433   34.6912   82.1728 H   0  0  0  0  0  0
   21.1822   35.7743   83.4149 H   0  0  0  0  0  0
   20.0588   36.2205   85.4053 H   0  0  0  0  0  0
   17.6488   40.0671   86.9083 H   0  0  0  0  0  0
   22.5277   39.7306   85.1940 H   0  0  0  0  0  0
   29.5638   35.5227   82.8867 H   0  0  0  0  0  0
   29.4739   36.5828   81.4824 H   0  0  0  0  0  0
   30.6479   36.9078   82.7710 H   0  0  0  0  0  0
  1  2  1  0  0  0
  1 34  1  0  0  0
  1 35  1  0  0  0
  1 36  1  0  0  0
  2  3  1  0  0  0
  2  4  1  0  0  0
  3 37  1  0  0  0
  3 38  1  0  0  0
  3 39  1  0  0  0
  4  5  1  0  0  0
  4 40  1  0  0  0
  4 41  1  0  0  0
  5  6  1  0  0  0
  5 10  1  0  0  0
  5 42  1  0  0  0
  6  7  1  0  0  0
  6 43  1  0  0  0
  6 44  1  0  0  0
  7  8  1  0  0  0
  7 45  1  0  0  0
  7 46  1  0  0  0
  8  9  1  0  0  0
  8 11  1  0  0  0
  8 47  1  0  0  0
  9 10  1  0  0  0
  9 48  1  0  0  0
  9 49  1  0  0  0
 10 50  1  0  0  0
 10 51  1  0  0  0
 11 12  1  0  0  0
 11 52  1  0  0  0
 12 13  2  0  0  0
 12 21  1  0  0  0
 13 14  1  0  0  0
 13 31  1  0  0  0
 14 15  2  0  0  0
 14 53  1  0  0  0
 15 16  1  0  0  0
 16 17  2  0  0  0
 16 21  1  0  0  0
 17 18  1  0  0  0
 17 54  1  0  0  0
 18 19  2  0  0  0
 18 55  1  0  0  0
 19 20  1  0  0  0
 19 22  1  0  0  0
 20 21  2  0  0  0
 22 23  2  0  0  0
 22 30  1  0  0  0
 23 24  1  0  0  0
 23 56  1  0  0  0
 24 25  1  0  0  0
 24 26  2  0  0  0
 26 27  1  0  0  0
 26 28  1  0  0  0
 27 57  1  0  0  0
 28 29  1  0  0  0
 28 30  2  0  0  0
 30 58  1  0  0  0
 31 32  2  0  0  0
 31 33  1  0  0  0
 33 59  1  0  0  0
 33 60  1  0  0  0
 33 61  1  0  0  0
M  END
> <s_m_entry_id>
4583

> <s_m_entry_name>
dock_pv.71

> <s_m_Source_Path>
/home/csk/Desktop/cluster/DUD-E-result/lck

> <s_m_Source_File>
dock_pv.maegz

> <i_m_Source_File_Index>
71

> <chembl_id>
CHEMBL3688339

> <chembl_pref_name>
None

> <i_lp_mmshare_version>
53161

> <i_f3d_flags>
0

> <r_lp_tautomer_probability>
0.999949999997365

> <s_lp_Force_Field>
OPLS_2005

> <r_lp_Energy>
48.698826

> <b_lp_Chiralities_Consistent>
1

> <s_lp_Variant>
CHEMBL258_lig57-1

> <s_i_glide_gridfile>
glide-grid_2of2

> <i_i_glide_lignum>
63

> <i_i_glide_rotatable_bonds>
7

> <r_i_docking_score>
-7.74544285393172

> <r_i_glide_ligand_efficiency>
-0.234710389513082

> <r_i_glide_ligand_efficiency_sa>
-0.752841631092465

> <r_i_glide_ligand_efficiency_ln>
-1.72254638695762

> <r_i_glide_gscore>
-7.74544285393172

> <r_i_glide_lipo>
-3.25948413172444

> <r_i_glide_hbond>
-0.405274779083349

> <r_i_glide_metal>
0

> <r_i_glide_rewards>
-1.25033289783624

> <r_i_glide_evdw>
-38.2321891784668

> <r_i_glide_ecoul>
-8.40676403045654

> <r_i_glide_erotb>
0.342273018204137

> <r_i_glide_esite>
0

> <r_i_glide_emodel>
-67.8292927619755

> <r_i_glide_energy>
-46.6389532089233

> <r_i_glide_einternal>
2.72341513633728

> <i_i_glide_confnum>
61

> <i_i_glide_posenum>
20

> <r_i_glide_eff_state_penalty>
0

> <s_user_duplicate_titles>
CHEMBL258_lig57

> <s_m_subgroup_title>
dock_pv

> <s_m_subgroupid>
dock_pv

> <b_m_subgroup_collapsed>
1

$$$$
CHEMBL258_lig625
                    3D
 Schrodinger Suite 2021-1.
 57 59  0  0  1  0            999 V2000
   27.8883   37.9608   84.0133 C   0  0  0  0  0  0
   28.3477   37.0223   83.0756 C   0  0  0  0  0  0
   27.4329   36.1367   82.4870 C   0  0  0  0  0  0
   26.5487   37.9606   84.4131 C   0  0  0  0  0  0
   25.6058   37.0963   83.8060 C   0  0  0  0  0  0
   26.0614   36.1778   82.8158 C   0  0  0  0  0  0
   25.2068   35.3372   82.1692 N   0  0  0  0  0  0
   23.9000   35.4207   82.5141 C   0  0  0  0  0  0
   23.3588   36.2210   83.4565 N   0  0  0  0  0  0
   24.2051   37.0727   84.0872 C   0  0  0  0  0  0
   23.6371   37.9913   84.9882 N   0  0  0  0  0  0
   22.2841   38.1947   85.3067 C   0  0  0  0  0  0
   21.7450   39.4702   85.1140 C   0  0  0  0  0  0
   20.4135   39.7312   85.4387 C   0  0  0  0  0  0
   19.6154   38.7213   85.9743 C   0  0  0  0  0  0
   20.1524   37.4526   86.2013 C   0  0  0  0  0  0
   21.4896   37.1882   85.8822 C   0  0  0  0  0  0
   29.6979   37.0211   82.7714 O   0  0  0  0  0  0
   28.8392   38.9893   84.6295 C   0  0  0  0  0  0
   30.2203   36.0333   81.8850 C   0  0  0  0  0  0
   19.1529   36.2209   86.8870 Cl  0  0  0  0  0  0
   22.0122   35.9650   86.1465 F   0  0  0  0  0  0
   29.0078   40.1723   83.7634 N   0  0  1  0  0  0
   28.3455   41.4648   84.1398 C   0  0  1  0  0  0
   26.7994   41.3358   84.2330 C   0  0  0  0  0  0
   28.9811   42.0514   85.4325 C   0  0  0  0  0  0
   29.8840   43.0210   85.2875 N   0  0  0  0  0  0
   28.6514   41.6315   86.5399 O   0  0  0  0  0  0
   30.3576   40.2952   83.2109 C   0  0  0  0  0  0
   25.9894   42.6178   84.4943 C   0  0  0  0  0  0
   24.6246   42.2242   84.5885 O   0  0  0  0  0  0
   23.7605   43.2341   85.0903 C   0  0  0  0  0  0
   27.7506   35.4089   81.7568 H   0  0  0  0  0  0
   26.2116   38.6291   85.1871 H   0  0  0  0  0  0
   23.2201   34.7519   82.0062 H   0  0  0  0  0  0
   24.2592   38.7282   85.2824 H   0  0  0  0  0  0
   22.3538   40.2621   84.6995 H   0  0  0  0  0  0
   20.0011   40.7167   85.2775 H   0  0  0  0  0  0
   18.5824   38.9273   86.2210 H   0  0  0  0  0  0
   29.7991   38.5100   84.8315 H   0  0  0  0  0  0
   28.4685   39.2786   85.6131 H   0  0  0  0  0  0
   31.2971   36.1702   81.7858 H   0  0  0  0  0  0
   30.0506   35.0232   82.2624 H   0  0  0  0  0  0
   29.7873   36.1187   80.8873 H   0  0  0  0  0  0
   28.5501   42.1832   83.3445 H   0  0  0  0  0  0
   26.5572   40.6600   85.0470 H   0  0  0  0  0  0
   26.4253   40.8668   83.3217 H   0  0  0  0  0  0
   30.3103   43.4158   86.1102 H   0  0  0  0  0  0
   30.1496   43.3790   84.3660 H   0  0  0  0  0  0
   30.6611   39.3781   82.7060 H   0  0  0  0  0  0
   30.4139   41.1056   82.4829 H   0  0  0  0  0  0
   31.0830   40.5023   83.9989 H   0  0  0  0  0  0
   26.1212   43.3436   83.6906 H   0  0  0  0  0  0
   26.3164   43.0854   85.4249 H   0  0  0  0  0  0
   22.7318   42.8730   85.0833 H   0  0  0  0  0  0
   23.7962   44.1392   84.4873 H   0  0  0  0  0  0
   24.0134   43.4947   86.1188 H   0  0  0  0  0  0
  1  2  2  0  0  0
  1 19  1  0  0  0
  1  4  1  0  0  0
  2 18  1  0  0  0
  2  3  1  0  0  0
  3  6  2  0  0  0
  3 33  1  0  0  0
  4  5  2  0  0  0
  4 34  1  0  0  0
  5 10  1  0  0  0
  5  6  1  0  0  0
  6  7  1  0  0  0
  7  8  2  0  0  0
  8  9  1  0  0  0
  8 35  1  0  0  0
  9 10  2  0  0  0
 10 11  1  0  0  0
 11 12  1  0  0  0
 11 36  1  0  0  0
 12 17  2  0  0  0
 12 13  1  0  0  0
 13 14  2  0  0  0
 13 37  1  0  0  0
 14 15  1  0  0  0
 14 38  1  0  0  0
 15 16  2  0  0  0
 15 39  1  0  0  0
 16 17  1  0  0  0
 16 21  1  0  0  0
 17 22  1  0  0  0
 18 20  1  0  0  0
 19 23  1  0  0  0
 19 40  1  0  0  0
 19 41  1  0  0  0
 20 42  1  0  0  0
 20 43  1  0  0  0
 20 44  1  0  0  0
 23 24  1  0  0  0
 23 29  1  0  0  0
 24 25  1  0  0  0
 24 26  1  0  0  0
 24 45  1  0  0  0
 25 30  1  0  0  0
 25 46  1  0  0  0
 25 47  1  0  0  0
 26 27  1  0  0  0
 26 28  2  0  0  0
 27 48  1  0  0  0
 27 49  1  0  0  0
 29 50  1  0  0  0
 29 51  1  0  0  0
 29 52  1  0  0  0
 30 31  1  0  0  0
 30 53  1  0  0  0
 30 54  1  0  0  0
 31 32  1  0  0  0
 32 55  1  0  0  0
 32 56  1  0  0  0
 32 57  1  0  0  0
M  END
> <s_m_entry_id>
4584

> <s_m_entry_name>
dock_pv.72

> <s_m_Source_Path>
/home/csk/Desktop/cluster/DUD-E-result/lck

> <s_m_Source_File>
dock_pv.maegz

> <i_m_Source_File_Index>
72

> <chembl_id>
CHEMBL207445

> <chembl_pref_name>
None

> <i_lp_mmshare_version>
53161

> <i_f3d_flags>
0

> <r_lp_tautomer_probability>
0.999978000241998

> <s_lp_Force_Field>
OPLS_2005

> <r_lp_Energy>
25.14221

> <b_lp_Chiralities_Consistent>
1

> <s_lp_Variant>
CHEMBL258_lig625-1

> <s_i_glide_gridfile>
glide-grid_2of2

> <i_i_glide_lignum>
704

> <i_i_glide_rotatable_bonds>
10

> <r_i_docking_score>
-7.74113887759505

> <r_i_glide_ligand_efficiency>
-0.241910589924845

> <r_i_glide_ligand_efficiency_sa>
-0.768018248970645

> <r_i_glide_ligand_efficiency_ln>
-1.73345201016967

> <r_i_glide_gscore>
-7.74113887759505

> <r_i_glide_lipo>
-3.07938513348244

> <r_i_glide_hbond>
-0.352877126519766

> <r_i_glide_metal>
0

> <r_i_glide_rewards>
-1.60250419355142

> <r_i_glide_evdw>
-42.1916732788086

> <r_i_glide_ecoul>
-7.72795438766479

> <r_i_glide_erotb>
0.660736830848578

> <r_i_glide_esite>
-0.0983324327998513

> <r_i_glide_emodel>
-70.5789843759549

> <r_i_glide_energy>
-49.9196276664734

> <r_i_glide_einternal>
9.03022861480713

> <i_i_glide_confnum>
62

> <i_i_glide_posenum>
132

> <r_i_glide_eff_state_penalty>
0

> <s_user_duplicate_titles>
CHEMBL258_lig625

> <s_m_subgroup_title>
dock_pv

> <s_m_subgroupid>
dock_pv

> <b_m_subgroup_collapsed>
1

$$$$
CHEMBL258_lig281
                    3D
 Schrodinger Suite 2021-1.
 31 33  0  0  1  0            999 V2000
   22.3229   36.8607   84.6035 C   0  0  0  0  0  0
   22.5936   38.0924   85.1891 C   0  0  0  0  0  0
   23.8428   38.6849   85.0156 C   0  0  0  0  0  0
   23.3043   36.2212   83.8529 C   0  0  0  0  0  0
   24.5771   36.7919   83.6873 C   0  0  0  0  0  0
   24.8501   38.0527   84.2645 C   0  0  0  0  0  0
   26.1829   38.7281   84.0855 C   0  0  0  0  0  0
   25.6140   36.0664   82.8869 C   0  0  0  0  0  0
   27.0109   36.6209   82.9518 C   0  0  0  0  0  0
   27.3097   37.8830   83.5215 C   0  0  0  0  0  0
   28.6609   38.3155   83.5622 C   0  0  0  0  0  0
   29.6926   37.5170   83.0139 C   0  0  0  0  0  0
   29.3718   36.2578   82.4868 C   0  0  0  0  0  0
   28.0563   35.8209   82.4861 C   0  0  0  0  0  0
   25.3530   35.0206   82.2843 O   0  0  0  0  0  0
   26.3464   39.8897   84.4655 O   0  0  0  0  0  0
   30.3273   35.4209   81.9626 O   0  0  0  0  0  0
   31.1204   37.9808   82.9530 C   0  0  0  0  0  0
   31.5371   39.0876   83.2910 O   0  0  0  0  0  0
   28.9706   39.5443   84.1002 O   0  0  0  0  0  0
   29.3104   39.5229   85.4838 C   0  0  0  0  0  0
   21.3527   36.4012   84.7275 H   0  0  0  0  0  0
   21.8318   38.5942   85.7685 H   0  0  0  0  0  0
   24.0184   39.6500   85.4726 H   0  0  0  0  0  0
   23.0614   35.2706   83.3954 H   0  0  0  0  0  0
   27.8466   34.8481   82.0666 H   0  0  0  0  0  0
   30.0149   34.5518   81.6877 H   0  0  0  0  0  0
   31.8263   37.2452   82.5665 H   0  0  0  0  0  0
   29.5492   40.5343   85.8117 H   0  0  0  0  0  0
   30.1820   38.8989   85.6856 H   0  0  0  0  0  0
   28.4826   39.1645   86.0980 H   0  0  0  0  0  0
  1  2  2  0  0  0
  1  4  1  0  0  0
  1 22  1  0  0  0
  2  3  1  0  0  0
  2 23  1  0  0  0
  3  6  2  0  0  0
  3 24  1  0  0  0
  4  5  2  0  0  0
  4 25  1  0  0  0
  5  6  1  0  0  0
  5  8  1  0  0  0
  6  7  1  0  0  0
  7 16  2  0  0  0
  7 10  1  0  0  0
  8 15  2  0  0  0
  8  9  1  0  0  0
  9 10  2  0  0  0
  9 14  1  0  0  0
 10 11  1  0  0  0
 11 12  2  0  0  0
 11 20  1  0  0  0
 12 13  1  0  0  0
 12 18  1  0  0  0
 13 14  2  0  0  0
 13 17  1  0  0  0
 14 26  1  0  0  0
 17 27  1  0  0  0
 18 19  2  0  0  0
 18 28  1  0  0  0
 20 21  1  0  0  0
 21 29  1  0  0  0
 21 30  1  0  0  0
 21 31  1  0  0  0
M  END
> <s_m_entry_id>
4585

> <s_m_entry_name>
dock_pv.73

> <s_m_Source_Path>
/home/csk/Desktop/cluster/DUD-E-result/lck

> <s_m_Source_File>
dock_pv.maegz

> <i_m_Source_File_Index>
73

> <chembl_id>
CHEMBL212948

> <chembl_pref_name>
DAMNACANTHAL

> <i_lp_mmshare_version>
53161

> <i_f3d_flags>
0

> <r_lp_tautomer_probability>
1

> <s_lp_Force_Field>
OPLS_2005

> <r_lp_Energy>
34.967453

> <b_lp_Chiralities_Consistent>
1

> <s_lp_Variant>
CHEMBL258_lig281-1

> <s_i_glide_gridfile>
glide-grid_2of2

> <i_i_glide_lignum>
313

> <i_i_glide_rotatable_bonds>
3

> <r_i_docking_score>
-7.73797107682504

> <r_i_glide_ligand_efficiency>
-0.368474813182145

> <r_i_glide_ligand_efficiency_sa>
-1.01659406944405

> <r_i_glide_ligand_efficiency_ln>
-1.91319771270217

> <r_i_glide_gscore>
-7.73797107682504

> <r_i_glide_lipo>
-2.09413525279757

> <r_i_glide_hbond>
-0.461357479249548

> <r_i_glide_metal>
0

> <r_i_glide_rewards>
-2.8193540695704

> <r_i_glide_evdw>
-30.137243270874

> <r_i_glide_ecoul>
-5.70841407775879

> <r_i_glide_erotb>
0

> <r_i_glide_esite>
0

> <r_i_glide_emodel>
-52.4464495847552

> <r_i_glide_energy>
-35.8456573486328

> <r_i_glide_einternal>
0.516734302043915

> <i_i_glide_confnum>
1

> <i_i_glide_posenum>
327

> <r_i_glide_eff_state_penalty>
0

> <s_user_duplicate_titles>
CHEMBL258_lig281,357508

> <s_m_subgroup_title>
dock_pv

> <s_m_subgroupid>
dock_pv

> <b_m_subgroup_collapsed>
1

$$$$
CHEMBL258_lig268
                    3D
 Schrodinger Suite 2021-1.
 32 33  0  0  1  0            999 V2000
   19.5409   38.7605   85.4182 C   0  0  0  0  0  0
   18.2323   38.4267   84.7645 C   0  0  0  0  0  0
   24.4479   38.4130   84.9067 C   0  0  0  0  0  0
   25.6439   37.8548   84.2332 C   0  0  0  0  0  0
   19.6326   39.4994   86.6126 C   0  0  0  0  0  0
   20.7194   38.3170   84.8054 C   0  0  0  0  0  0
   23.1689   38.0391   84.6945 C   0  0  0  0  0  0
   26.8917   38.5001   84.3285 C   0  0  0  0  0  0
   25.5560   36.6787   83.4731 C   0  0  0  0  0  0
   18.0282   38.6210   83.5672 O   0  0  0  0  0  0
   21.9723   38.5632   85.3749 C   0  0  0  0  0  0
   20.8815   39.7577   87.1737 C   0  0  0  0  0  0
   28.0050   37.9877   83.6586 C   0  0  0  0  0  0
   26.6659   36.1748   82.8065 C   0  0  0  0  0  0
   17.3500   37.8176   85.5984 O   0  0  0  0  0  0
   22.0433   39.2955   86.5640 C   0  0  0  0  0  0
   27.8907   36.8319   82.8870 C   0  0  0  0  0  0
   18.5500   40.0032   87.2870 O   0  0  0  0  0  0
   27.0522   39.6421   85.0719 O   0  0  0  0  0  0
   26.5500   35.0212   82.0870 O   0  0  0  0  0  0
   24.6441   39.1864   85.6341 H   0  0  0  0  0  0
   20.6623   37.7538   83.8823 H   0  0  0  0  0  0
   22.9652   37.2701   83.9657 H   0  0  0  0  0  0
   24.6313   36.1304   83.3864 H   0  0  0  0  0  0
   20.9542   40.3295   88.0869 H   0  0  0  0  0  0
   28.9626   38.4822   83.7309 H   0  0  0  0  0  0
   17.7009   37.7512   86.4870 H   0  0  0  0  0  0
   22.9915   39.5092   87.0331 H   0  0  0  0  0  0
   28.7573   36.4389   82.3750 H   0  0  0  0  0  0
   17.6633   39.9390   86.8870 H   0  0  0  0  0  0
   27.9541   39.9708   85.0676 H   0  0  0  0  0  0
   27.2430   34.9604   81.4166 H   0  0  0  0  0  0
  1  2  1  0  0  0
  1  5  1  0  0  0
  1  6  2  0  0  0
  2 10  2  0  0  0
  2 15  1  0  0  0
  3  7  2  0  0  0
  3  4  1  0  0  0
  3 21  1  0  0  0
  4  8  2  0  0  0
  4  9  1  0  0  0
  5 12  2  0  0  0
  5 18  1  0  0  0
  6 11  1  0  0  0
  6 22  1  0  0  0
  7 11  1  0  0  0
  7 23  1  0  0  0
  8 13  1  0  0  0
  8 19  1  0  0  0
  9 14  2  0  0  0
  9 24  1  0  0  0
 11 16  2  0  0  0
 12 16  1  0  0  0
 12 25  1  0  0  0
 13 17  2  0  0  0
 13 26  1  0  0  0
 14 17  1  0  0  0
 14 20  1  0  0  0
 15 27  1  0  0  0
 16 28  1  0  0  0
 17 29  1  0  0  0
 18 30  1  0  0  0
 19 31  1  0  0  0
 20 32  1  0  0  0
M  END
> <s_m_entry_id>
4586

> <s_m_entry_name>
dock_pv.74

> <s_m_Source_Path>
/home/csk/Desktop/cluster/DUD-E-result/lck

> <s_m_Source_File>
dock_pv.maegz

> <i_m_Source_File_Index>
74

> <chembl_id>
CHEMBL102362

> <chembl_pref_name>
None

> <i_lp_mmshare_version>
53161

> <i_f3d_flags>
0

> <r_lp_tautomer_probability>
1

> <s_lp_Force_Field>
OPLS_2005

> <r_lp_Energy>
19.248424

> <b_lp_Chiralities_Consistent>
1

> <s_lp_Variant>
CHEMBL258_lig268-1

> <s_i_glide_gridfile>
glide-grid_2of2

> <i_i_glide_lignum>
296

> <i_i_glide_rotatable_bonds>
7

> <r_i_docking_score>
-7.72655550916596

> <r_i_glide_ligand_efficiency>
-0.386327775458298

> <r_i_glide_ligand_efficiency_sa>
-1.04865491843676

> <r_i_glide_ligand_efficiency_ln>
-1.93370200508794

> <r_i_glide_gscore>
-7.72655550916596

> <r_i_glide_lipo>
-2.37279609485411

> <r_i_glide_hbond>
-0.680680760557434

> <r_i_glide_metal>
0

> <r_i_glide_rewards>
-2.32856038151085

> <r_i_glide_evdw>
-28.8420810699463

> <r_i_glide_ecoul>
-10.8509759902954

> <r_i_glide_erotb>
0.725232179798066

> <r_i_glide_esite>
0

> <r_i_glide_emodel>
-54.6100453303146

> <r_i_glide_energy>
-39.6930570602417

> <r_i_glide_einternal>
8.70745372772217

> <i_i_glide_confnum>
6

> <i_i_glide_posenum>
82

> <r_i_glide_eff_state_penalty>
0

> <s_user_duplicate_titles>
CHEMBL258_lig268,167537

> <s_m_subgroup_title>
dock_pv

> <s_m_subgroupid>
dock_pv

> <b_m_subgroup_collapsed>
1

$$$$
CHEMBL258_lig723
                    3D
 Schrodinger Suite 2021-1.
 48 52  0  0  1  0            999 V2000
   24.9682   39.4720   85.6197 C   0  0  0  0  0  0
   23.9084   40.1730   86.4346 C   0  0  0  0  0  0
   22.7270   39.2106   86.4930 C   0  0  0  0  0  0
   22.9499   38.2837   85.5189 N   0  0  0  0  0  0
   24.2442   38.4627   84.8869 N   0  0  0  0  0  0
   25.7506   35.4573   82.4151 N   0  0  0  0  0  0
   26.5130   36.4813   82.8870 C   0  0  0  0  0  0
   26.0539   37.4603   83.7079 N   0  0  0  0  0  0
   24.4520   35.4211   82.8226 C   0  0  0  0  0  0
   23.9106   36.3783   83.6848 C   0  0  0  0  0  0
   24.7613   37.4090   84.1039 C   0  0  0  0  0  0
   22.1047   37.2844   85.0391 C   0  0  0  0  0  0
   22.5206   36.3622   84.1445 C   0  0  0  0  0  0
   27.8691   36.4717   82.5178 N   0  0  0  0  0  0
   28.9938   37.2412   82.9048 C   0  0  0  0  0  0
   28.8906   38.4125   83.6773 C   0  0  0  0  0  0
   30.0173   39.1455   84.0354 C   0  0  0  0  0  0
   31.2741   38.7250   83.6270 C   0  0  0  0  0  0
   31.4014   37.5732   82.8585 C   0  0  0  0  0  0
   30.2717   36.8181   82.4869 C   0  0  0  0  0  0
   20.6959   37.2409   85.5216 C   0  0  0  0  0  0
   19.7693   38.2303   85.1439 C   0  0  0  0  0  0
   18.4696   38.2186   85.6454 C   0  0  0  0  0  0
   18.0652   37.2160   86.5200 C   0  0  0  0  0  0
   18.9644   36.2208   86.8872 C   0  0  0  0  0  0
   20.2709   36.2275   86.3981 C   0  0  0  0  0  0
   21.3448   34.9641   86.8925 Cl  0  0  0  0  0  0
   21.7947   39.3002   87.2947 O   0  0  0  0  0  0
   20.2147   39.5196   84.0887 Cl  0  0  0  0  0  0
   30.3655   35.6564   81.7400 O   0  0  0  0  0  0
   31.6586   35.1207   81.4712 C   0  0  0  0  0  0
   25.5078   40.1497   84.9568 H   0  0  0  0  0  0
   25.6917   38.9737   86.2674 H   0  0  0  0  0  0
   24.2632   40.4331   87.4312 H   0  0  0  0  0  0
   23.5790   41.0945   85.9472 H   0  0  0  0  0  0
   23.8411   34.6203   82.4413 H   0  0  0  0  0  0
   21.8380   35.6000   83.7913 H   0  0  0  0  0  0
   28.1019   35.7217   81.8803 H   0  0  0  0  0  0
   27.9512   38.8070   84.0179 H   0  0  0  0  0  0
   29.9155   40.0431   84.6287 H   0  0  0  0  0  0
   32.1520   39.2918   83.9054 H   0  0  0  0  0  0
   32.3986   37.2806   82.5671 H   0  0  0  0  0  0
   17.7694   38.9959   85.3751 H   0  0  0  0  0  0
   17.0573   37.2150   86.9085 H   0  0  0  0  0  0
   18.6499   35.4371   87.5614 H   0  0  0  0  0  0
   31.5614   34.2134   80.8872 H   0  0  0  0  0  0
   32.2674   35.8102   80.8869 H   0  0  0  0  0  0
   32.1841   34.8651   82.3912 H   0  0  0  0  0  0
  1  5  1  0  0  0
  1  2  1  0  0  0
  1 32  1  0  0  0
  1 33  1  0  0  0
  2  3  1  0  0  0
  2 34  1  0  0  0
  2 35  1  0  0  0
  3  4  1  0  0  0
  3 28  2  0  0  0
  4  5  1  0  0  0
  4 12  1  0  0  0
  5 11  1  0  0  0
  6  9  2  0  0  0
  6  7  1  0  0  0
  7  8  2  0  0  0
  7 14  1  0  0  0
  8 11  1  0  0  0
  9 10  1  0  0  0
  9 36  1  0  0  0
 10 11  2  0  0  0
 10 13  1  0  0  0
 12 21  1  0  0  0
 12 13  2  0  0  0
 13 37  1  0  0  0
 14 15  1  0  0  0
 14 38  1  0  0  0
 15 16  2  0  0  0
 15 20  1  0  0  0
 16 17  1  0  0  0
 16 39  1  0  0  0
 17 18  2  0  0  0
 17 40  1  0  0  0
 18 19  1  0  0  0
 18 41  1  0  0  0
 19 20  2  0  0  0
 19 42  1  0  0  0
 20 30  1  0  0  0
 21 22  2  0  0  0
 21 26  1  0  0  0
 22 23  1  0  0  0
 22 29  1  0  0  0
 23 24  2  0  0  0
 23 43  1  0  0  0
 24 25  1  0  0  0
 24 44  1  0  0  0
 25 26  2  0  0  0
 25 45  1  0  0  0
 26 27  1  0  0  0
 30 31  1  0  0  0
 31 46  1  0  0  0
 31 47  1  0  0  0
 31 48  1  0  0  0
M  END
> <s_m_entry_id>
4587

> <s_m_entry_name>
dock_pv.75

> <s_m_Source_Path>
/home/csk/Desktop/cluster/DUD-E-result/lck

> <s_m_Source_File>
dock_pv.maegz

> <i_m_Source_File_Index>
75

> <chembl_id>
CHEMBL212865

> <chembl_pref_name>
None

> <i_lp_mmshare_version>
53161

> <i_f3d_flags>
0

> <r_lp_tautomer_probability>
1

> <s_lp_Force_Field>
OPLS_2005

> <r_lp_Energy>
25.43642

> <b_lp_Chiralities_Consistent>
1

> <s_lp_Variant>
CHEMBL258_lig723-1

> <s_i_glide_gridfile>
glide-grid_2of2

> <i_i_glide_lignum>
808

> <i_i_glide_rotatable_bonds>
4

> <r_i_docking_score>
-7.71295064768145

> <r_i_glide_ligand_efficiency>
-0.248804859602627

> <r_i_glide_ligand_efficiency_sa>
-0.781590771281993

> <r_i_glide_ligand_efficiency_ln>
-1.73950674460213

> <r_i_glide_gscore>
-7.71295064768145

> <r_i_glide_lipo>
-2.98679951198052

> <r_i_glide_hbond>
-0.037221643072511

> <r_i_glide_metal>
0

> <r_i_glide_rewards>
-2.15472354988329

> <r_i_glide_evdw>
-45.9347724914551

> <r_i_glide_ecoul>
-3.52889847755432

> <r_i_glide_erotb>
0.291867453460766

> <r_i_glide_esite>
0

> <r_i_glide_emodel>
-70.8987274147111

> <r_i_glide_energy>
-49.4636709690094

> <r_i_glide_einternal>
2.88023376464844

> <i_i_glide_confnum>
3

> <i_i_glide_posenum>
391

> <r_i_glide_eff_state_penalty>
0

> <s_user_duplicate_titles>
CHEMBL258_lig723

> <s_m_subgroup_title>
dock_pv

> <s_m_subgroupid>
dock_pv

> <b_m_subgroup_collapsed>
1

$$$$
CHEMBL258_lig1200
                    3D
 Schrodinger Suite 2021-1.
 50 54  0  0  1  0            999 V2000
   29.1573   35.8009   82.3324 C   0  0  0  0  0  0
   30.4820   36.2289   82.3282 C   0  0  0  0  0  0
   30.8488   37.4332   82.8252 N   0  0  0  0  0  0
   29.8588   38.2434   83.2871 C   0  0  0  0  0  0
   28.5403   37.9115   83.3181 N   0  0  0  0  0  0
   28.1897   36.6801   82.8484 C   0  0  0  0  0  0
   26.8145   36.3136   82.8870 N   0  0  0  0  0  0
   30.1677   39.5342   83.7485 N   0  0  0  0  0  0
   24.9853   35.0212   82.4866 N   0  0  0  0  0  0
   26.2566   35.2043   82.2788 C   0  0  0  0  0  0
   31.5127   40.1267   83.7870 C   0  0  2  0  0  0
   32.2007   40.1285   82.4081 C   0  0  0  0  0  0
   32.3561   39.5441   84.9408 C   0  0  0  0  0  0
   31.7499   41.0210   81.4308 C   0  0  0  0  0  0
   32.3155   41.0208   80.1575 C   0  0  0  0  0  0
   33.3508   40.1394   79.8617 C   0  0  0  0  0  0
   33.8237   39.2568   80.8283 C   0  0  0  0  0  0
   33.2523   39.2526   82.0983 C   0  0  0  0  0  0
   24.6420   36.0560   83.3024 C   0  0  0  0  0  0
   25.7490   36.9060   83.5654 C   0  0  0  0  0  0
   25.6063   38.0435   84.3699 C   0  0  0  0  0  0
   24.3329   38.2992   84.8873 C   0  0  0  0  0  0
   23.2267   37.4660   84.6607 C   0  0  0  0  0  0
   23.3872   36.3293   83.8571 C   0  0  0  0  0  0
   21.8896   37.7862   85.2508 C   0  0  0  0  0  0
   21.0043   36.7678   85.6428 C   0  0  0  0  0  0
   19.7591   37.1040   86.1772 C   0  0  0  0  0  0
   19.3503   38.3866   86.3411 N   0  0  0  0  0  0
   20.2020   39.3710   85.9615 C   0  0  0  0  0  0
   21.4649   39.1147   85.4221 C   0  0  0  0  0  0
   28.9283   34.8232   81.9400 H   0  0  0  0  0  0
   31.2708   35.5983   81.9412 H   0  0  0  0  0  0
   29.3950   40.1189   84.0293 H   0  0  0  0  0  0
   26.8728   34.5469   81.6870 H   0  0  0  0  0  0
   31.3636   41.1791   84.0392 H   0  0  0  0  0  0
   33.3389   40.0143   84.9882 H   0  0  0  0  0  0
   31.8698   39.7124   85.9025 H   0  0  0  0  0  0
   32.5033   38.4686   84.8411 H   0  0  0  0  0  0
   30.9500   41.7108   81.6581 H   0  0  0  0  0  0
   31.9488   41.6985   79.3994 H   0  0  0  0  0  0
   33.7839   40.1367   78.8723 H   0  0  0  0  0  0
   34.6227   38.5703   80.5921 H   0  0  0  0  0  0
   33.6201   38.5469   82.8274 H   0  0  0  0  0  0
   26.4314   38.7045   84.5888 H   0  0  0  0  0  0
   24.2155   39.1723   85.5131 H   0  0  0  0  0  0
   22.5523   35.6793   83.6401 H   0  0  0  0  0  0
   21.2707   35.7252   85.5434 H   0  0  0  0  0  0
   19.0645   36.3346   86.4816 H   0  0  0  0  0  0
   19.8512   40.3854   86.0901 H   0  0  0  0  0  0
   22.0904   39.9432   85.1244 H   0  0  0  0  0  0
  1  6  1  0  0  0
  1  2  2  0  0  0
  1 31  1  0  0  0
  2  3  1  0  0  0
  2 32  1  0  0  0
  3  4  2  0  0  0
  4  8  1  0  0  0
  4  5  1  0  0  0
  5  6  2  0  0  0
  6  7  1  0  0  0
  7 20  1  0  0  0
  7 10  1  0  0  0
  8 11  1  0  0  0
  8 33  1  0  0  0
  9 19  1  0  0  0
  9 10  2  0  0  0
 10 34  1  0  0  0
 11 12  1  0  0  0
 11 13  1  0  0  0
 11 35  1  0  0  0
 12 14  2  0  0  0
 12 18  1  0  0  0
 13 36  1  0  0  0
 13 37  1  0  0  0
 13 38  1  0  0  0
 14 15  1  0  0  0
 14 39  1  0  0  0
 15 16  2  0  0  0
 15 40  1  0  0  0
 16 17  1  0  0  0
 16 41  1  0  0  0
 17 18  2  0  0  0
 17 42  1  0  0  0
 18 43  1  0  0  0
 19 20  2  0  0  0
 19 24  1  0  0  0
 20 21  1  0  0  0
 21 22  2  0  0  0
 21 44  1  0  0  0
 22 23  1  0  0  0
 22 45  1  0  0  0
 23 24  2  0  0  0
 23 25  1  0  0  0
 24 46  1  0  0  0
 25 26  2  0  0  0
 25 30  1  0  0  0
 26 27  1  0  0  0
 26 47  1  0  0  0
 27 28  2  0  0  0
 27 48  1  0  0  0
 28 29  1  0  0  0
 29 30  2  0  0  0
 29 49  1  0  0  0
 30 50  1  0  0  0
M  END
> <s_m_entry_id>
4588

> <s_m_entry_name>
dock_pv.76

> <s_m_Source_Path>
/home/csk/Desktop/cluster/DUD-E-result/lck

> <s_m_Source_File>
dock_pv.maegz

> <i_m_Source_File_Index>
76

> <chembl_id>
CHEMBL584721

> <chembl_pref_name>
None

> <i_lp_mmshare_version>
53161

> <i_f3d_flags>
0

> <r_lp_tautomer_probability>
1

> <s_lp_Force_Field>
OPLS_2005

> <r_lp_Energy>
9.373313

> <b_lp_Chiralities_Consistent>
1

> <s_lp_Variant>
CHEMBL258_lig1200-1

> <s_i_glide_gridfile>
glide-grid_2of2

> <i_i_glide_lignum>
1289

> <i_i_glide_rotatable_bonds>
5

> <r_i_docking_score>
-7.7104504475953

> <r_i_glide_ligand_efficiency>
-0.257015014919843

> <r_i_glide_ligand_efficiency_sa>
-0.798605407971749

> <r_i_glide_ligand_efficiency_ln>
-1.75189835378012

> <r_i_glide_gscore>
-7.7104504475953

> <r_i_glide_lipo>
-2.84566619765414

> <r_i_glide_hbond>
-0.116452221475512

> <r_i_glide_metal>
0

> <r_i_glide_rewards>
-2.52924072765833

> <r_i_glide_evdw>
-42.9898376464844

> <r_i_glide_ecoul>
-4.6895809173584

> <r_i_glide_erotb>
0.63383771912066

> <r_i_glide_esite>
0

> <r_i_glide_emodel>
-67.9241424692081

> <r_i_glide_energy>
-47.6794185638428

> <r_i_glide_einternal>
5.34117269515991

> <i_i_glide_confnum>
87

> <i_i_glide_posenum>
217

> <r_i_glide_eff_state_penalty>
0

> <s_user_duplicate_titles>
CHEMBL258_lig1200,580607

> <s_m_subgroup_title>
dock_pv

> <s_m_subgroupid>
dock_pv

> <b_m_subgroup_collapsed>
1

$$$$
CHEMBL258_lig112
                    3D
 Schrodinger Suite 2021-1.
 33 35  0  0  1  0            999 V2000
   24.0885   36.7530   83.7356 C   0  0  0  0  0  0
   26.3128   36.4345   83.0476 C   0  0  0  0  0  0
   26.3057   37.5247   83.8942 C   0  0  0  0  0  0
   24.9496   35.9285   82.8873 C   0  0  0  0  0  0
   24.9341   37.7896   84.3454 C   0  0  0  0  0  0
   22.7457   36.5665   83.8463 C   0  0  0  0  0  0
   27.5060   35.9786   82.4870 C   0  0  0  0  0  0
   27.4932   38.1930   84.1970 C   0  0  0  0  0  0
   28.6998   37.7364   83.6533 C   0  0  0  0  0  0
   28.7046   36.6211   82.7976 C   0  0  0  0  0  0
   19.5592   38.3763   84.8240 C   0  0  0  0  0  0
   21.7514   37.2962   84.6663 C   0  0  0  0  0  0
   24.5484   38.6991   85.0759 O   0  0  0  0  0  0
   24.5564   35.0209   82.1605 O   0  0  0  0  0  0
   19.8412   38.7190   86.1539 C   0  0  0  0  0  0
   20.5305   37.6686   84.0909 C   0  0  0  0  0  0
   21.0414   38.3268   86.7430 C   0  0  0  0  0  0
   30.1621   38.5707   84.0463 Cl  0  0  0  0  0  0
   30.1680   36.0352   82.0859 Cl  0  0  0  0  0  0
   21.9821   37.6097   86.0079 C   0  0  0  0  0  0
   18.3380   38.7724   84.3056 O   0  0  0  0  0  0
   18.9412   39.4323   86.9059 O   0  0  0  0  0  0
   17.8995   38.2210   83.0688 C   0  0  0  0  0  0
   22.3065   35.7568   83.2766 H   0  0  0  0  0  0
   27.5239   35.1246   81.8215 H   0  0  0  0  0  0
   27.4991   39.0512   84.8563 H   0  0  0  0  0  0
   20.3535   37.4205   83.0570 H   0  0  0  0  0  0
   21.2468   38.5803   87.7727 H   0  0  0  0  0  0
   22.9010   37.3064   86.4881 H   0  0  0  0  0  0
   18.0793   39.5544   86.4865 H   0  0  0  0  0  0
   16.8766   38.5455   82.8859 H   0  0  0  0  0  0
   18.5133   38.5681   82.2372 H   0  0  0  0  0  0
   17.8999   37.1293   83.0888 H   0  0  0  0  0  0
  1  4  1  0  0  0
  1  5  1  0  0  0
  1  6  2  0  0  0
  2  4  1  0  0  0
  2  7  2  0  0  0
  2  3  1  0  0  0
  3  5  1  0  0  0
  3  8  2  0  0  0
  4 14  2  0  0  0
  5 13  2  0  0  0
  6 12  1  0  0  0
  6 24  1  0  0  0
  7 10  1  0  0  0
  7 25  1  0  0  0
  8  9  1  0  0  0
  8 26  1  0  0  0
  9 18  1  0  0  0
  9 10  2  0  0  0
 10 19  1  0  0  0
 11 16  2  0  0  0
 11 21  1  0  0  0
 11 15  1  0  0  0
 12 16  1  0  0  0
 12 20  2  0  0  0
 15 17  2  0  0  0
 15 22  1  0  0  0
 16 27  1  0  0  0
 17 20  1  0  0  0
 17 28  1  0  0  0
 20 29  1  0  0  0
 21 23  1  0  0  0
 22 30  1  0  0  0
 23 31  1  0  0  0
 23 32  1  0  0  0
 23 33  1  0  0  0
M  END
> <s_m_entry_id>
4589

> <s_m_entry_name>
dock_pv.77

> <s_m_Source_Path>
/home/csk/Desktop/cluster/DUD-E-result/lck

> <s_m_Source_File>
dock_pv.maegz

> <i_m_Source_File_Index>
77

> <chembl_id>
CHEMBL309706

> <chembl_pref_name>
None

> <i_lp_mmshare_version>
53161

> <i_f3d_flags>
0

> <r_lp_tautomer_probability>
1

> <s_lp_Force_Field>
OPLS_2005

> <r_lp_Energy>
32.890743

> <b_lp_Chiralities_Consistent>
1

> <s_lp_Variant>
CHEMBL258_lig112-1

> <s_i_glide_gridfile>
glide-grid_2of2

> <i_i_glide_lignum>
133

> <i_i_glide_rotatable_bonds>
3

> <r_i_docking_score>
-7.70443572939739

> <r_i_glide_ligand_efficiency>
-0.334975466495538

> <r_i_glide_ligand_efficiency_sa>
-0.952625667231386

> <r_i_glide_ligand_efficiency_ln>
-1.86300241932907

> <r_i_glide_gscore>
-7.70443572939739

> <r_i_glide_lipo>
-3.28481989513193

> <r_i_glide_hbond>
-0.411047609471672

> <r_i_glide_metal>
0

> <r_i_glide_rewards>
-1.74116555253994

> <r_i_glide_evdw>
-37.5988349914551

> <r_i_glide_ecoul>
-3.62452602386475

> <r_i_glide_erotb>
0.156217980898619

> <r_i_glide_esite>
0

> <r_i_glide_emodel>
-59.4374037423691

> <r_i_glide_energy>
-41.2233610153198

> <r_i_glide_einternal>
1.66682124137878

> <i_i_glide_confnum>
3

> <i_i_glide_posenum>
252

> <r_i_glide_eff_state_penalty>
0

> <s_user_duplicate_titles>
CHEMBL258_lig112

> <s_m_subgroup_title>
dock_pv

> <s_m_subgroupid>
dock_pv

> <b_m_subgroup_collapsed>
1

$$$$
CHEMBL258_lig790
                    3D
 Schrodinger Suite 2021-1.
 45 47  0  0  1  0            999 V2000
   20.2738   36.6544   85.4697 C   0  0  0  0  0  0
   19.4531   37.7024   84.9951 C   0  0  0  0  0  0
   18.2534   37.9878   85.6539 C   0  0  0  0  0  0
   17.8628   37.2560   86.7725 C   0  0  0  0  0  0
   18.6644   36.2212   87.2391 C   0  0  0  0  0  0
   19.8651   35.9169   86.5942 C   0  0  0  0  0  0
   19.7915   38.5061   83.7499 C   0  0  0  0  0  0
   21.4814   36.2961   84.8371 N   0  0  0  0  0  0
   22.5597   37.0956   84.7154 C   0  0  0  0  0  0
   22.6402   38.2237   85.2057 O   0  0  0  0  0  0
   23.6414   36.5348   83.9444 C   0  0  0  0  0  0
   23.6501   35.6093   82.8870 C   0  0  0  0  0  0
   24.8312   35.3363   82.3579 N   0  0  0  0  0  0
   25.8026   36.0346   82.8961 C   0  0  0  0  0  0
   25.2711   37.1052   84.1691 S   0  0  0  0  0  0
   27.1180   35.9037   82.4870 N   0  0  0  0  0  0
   28.2850   36.6209   82.8099 C   0  0  0  0  0  0
   29.4859   36.2204   82.2158 C   0  0  0  0  0  0
   30.6506   36.9438   82.4866 C   0  0  0  0  0  0
   30.5890   38.0496   83.3377 C   0  0  0  0  0  0
   29.3594   38.4040   83.8922 C   0  0  0  0  0  0
   28.2300   37.6986   83.6295 N   0  0  0  0  0  0
   20.8260   34.6209   87.2259 Cl  0  0  0  0  0  0
   29.2960   39.5025   84.7624 N   0  0  0  0  0  0
   28.0118   40.1804   84.9722 C   0  0  0  0  0  0
   28.0083   41.2241   86.0959 C   0  0  0  0  0  0
   28.1503   40.6211   87.3696 O   0  0  0  0  0  0
   17.6088   38.7828   85.2984 H   0  0  0  0  0  0
   16.9333   37.4962   87.2704 H   0  0  0  0  0  0
   18.3498   35.6422   88.0966 H   0  0  0  0  0  0
   20.2805   37.8873   82.9970 H   0  0  0  0  0  0
   18.8920   38.9053   83.2792 H   0  0  0  0  0  0
   20.4566   39.3303   84.0099 H   0  0  0  0  0  0
   21.5373   35.3428   84.5083 H   0  0  0  0  0  0
   22.7809   35.1035   82.4854 H   0  0  0  0  0  0
   27.3386   35.1815   81.8162 H   0  0  0  0  0  0
   29.5252   35.3704   81.5510 H   0  0  0  0  0  0
   31.5902   36.6470   82.0407 H   0  0  0  0  0  0
   31.4823   38.6165   83.5567 H   0  0  0  0  0  0
   30.1164   40.0910   84.7846 H   0  0  0  0  0  0
   27.6559   40.6136   84.0354 H   0  0  0  0  0  0
   27.2499   39.4341   85.2073 H   0  0  0  0  0  0
   28.9167   41.8232   85.9900 H   0  0  0  0  0  0
   27.2041   41.9560   85.9986 H   0  0  0  0  0  0
   28.9868   40.1333   87.3920 H   0  0  0  0  0  0
  1  8  1  0  0  0
  1  6  2  0  0  0
  1  2  1  0  0  0
  2  7  1  0  0  0
  2  3  2  0  0  0
  3  4  1  0  0  0
  3 28  1  0  0  0
  4  5  2  0  0  0
  4 29  1  0  0  0
  5  6  1  0  0  0
  5 30  1  0  0  0
  6 23  1  0  0  0
  7 31  1  0  0  0
  7 32  1  0  0  0
  7 33  1  0  0  0
  8  9  1  0  0  0
  8 34  1  0  0  0
  9 10  2  0  0  0
  9 11  1  0  0  0
 11 15  1  0  0  0
 11 12  2  0  0  0
 12 13  1  0  0  0
 12 35  1  0  0  0
 13 14  2  0  0  0
 14 15  1  0  0  0
 14 16  1  0  0  0
 16 17  1  0  0  0
 16 36  1  0  0  0
 17 18  1  0  0  0
 17 22  2  0  0  0
 18 19  2  0  0  0
 18 37  1  0  0  0
 19 20  1  0  0  0
 19 38  1  0  0  0
 20 21  2  0  0  0
 20 39  1  0  0  0
 21 22  1  0  0  0
 21 24  1  0  0  0
 24 25  1  0  0  0
 24 40  1  0  0  0
 25 26  1  0  0  0
 25 41  1  0  0  0
 25 42  1  0  0  0
 26 27  1  0  0  0
 26 43  1  0  0  0
 26 44  1  0  0  0
 27 45  1  0  0  0
M  END
> <s_m_entry_id>
4590

> <s_m_entry_name>
dock_pv.78

> <s_m_Source_Path>
/home/csk/Desktop/cluster/DUD-E-result/lck

> <s_m_Source_File>
dock_pv.maegz

> <i_m_Source_File_Index>
78

> <chembl_id>
CHEMBL385698

> <chembl_pref_name>
None

> <i_lp_mmshare_version>
53161

> <i_f3d_flags>
0

> <r_lp_tautomer_probability>
1

> <s_lp_Force_Field>
OPLS_2005

> <r_lp_Energy>
15.404952

> <b_lp_Chiralities_Consistent>
1

> <s_lp_Variant>
CHEMBL258_lig790-1

> <s_i_glide_gridfile>
glide-grid_2of2

> <i_i_glide_lignum>
875

> <i_i_glide_rotatable_bonds>
9

> <r_i_docking_score>
-7.70020794412753

> <r_i_glide_ligand_efficiency>
-0.285192886819538

> <r_i_glide_ligand_efficiency_sa>
-0.855578659518666

> <r_i_glide_ligand_efficiency_ln>
-1.79248146154342

> <r_i_glide_gscore>
-7.70020794412753

> <r_i_glide_lipo>
-2.97105925102747

> <r_i_glide_hbond>
-0.531177986810511

> <r_i_glide_metal>
0

> <r_i_glide_rewards>
-1.72211699614477

> <r_i_glide_evdw>
-42.6346244812012

> <r_i_glide_ecoul>
-6.78853988647461

> <r_i_glide_erotb>
0.674158496886472

> <r_i_glide_esite>
0

> <r_i_glide_emodel>
-72.6811517270652

> <r_i_glide_energy>
-49.4231643676758

> <r_i_glide_einternal>
2.55832195281982

> <i_i_glide_confnum>
4

> <i_i_glide_posenum>
155

> <r_i_glide_eff_state_penalty>
0

> <s_user_duplicate_titles>
CHEMBL258_lig790,361375

> <s_m_subgroup_title>
dock_pv

> <s_m_subgroupid>
dock_pv

> <b_m_subgroup_collapsed>
1

$$$$
CHEMBL258_lig637
                    3D
 Schrodinger Suite 2021-1.
 47 49  0  0  1  0            999 V2000
   27.2606   38.4229   84.1499 C   0  0  0  0  0  0
   27.8175   37.4595   83.2870 C   0  0  0  0  0  0
   26.9970   36.4498   82.7656 C   0  0  0  0  0  0
   25.9206   38.3310   84.5396 C   0  0  0  0  0  0
   25.0777   37.3132   84.0211 C   0  0  0  0  0  0
   25.6315   36.3752   83.0979 C   0  0  0  0  0  0
   24.8732   35.4208   82.4904 N   0  0  0  0  0  0
   23.5567   35.4207   82.7988 C   0  0  0  0  0  0
   22.9317   36.2219   83.6868 N   0  0  0  0  0  0
   23.6809   37.1673   84.2988 C   0  0  0  0  0  0
   23.0285   38.0546   85.1772 N   0  0  0  0  0  0
   21.6900   38.2474   85.5862 C   0  0  0  0  0  0
   20.6295   37.3890   85.2471 C   0  0  0  0  0  0
   19.3251   37.6714   85.6504 C   0  0  0  0  0  0
   19.0574   38.8112   86.4020 C   0  0  0  0  0  0
   20.0971   39.6691   86.7567 C   0  0  0  0  0  0
   21.4075   39.3875   86.3559 C   0  0  0  0  0  0
   29.1531   37.5664   82.9394 O   0  0  0  0  0  0
   28.0295   39.6755   84.5771 C   0  0  0  0  0  0
   29.8093   36.4739   82.2986 C   0  0  0  0  0  0
   19.7515   41.0814   87.6872 Cl  0  0  0  0  0  0
   22.4086   40.2322   86.7115 F   0  0  0  0  0  0
   29.3760   39.4208   85.0922 N   0  0  1  0  0  0
   30.3633   40.5080   84.8511 C   0  0  2  0  0  0
   29.9275   41.9194   85.3036 C   0  0  0  0  0  0
   30.8172   40.4759   83.3649 C   0  0  0  0  0  0
   31.9418   39.8182   83.0825 N   0  0  0  0  0  0
   30.1477   41.0192   82.4871 O   0  0  0  0  0  0
   27.3818   35.7208   82.0688 H   0  0  0  0  0  0
   25.5011   39.0791   85.1961 H   0  0  0  0  0  0
   22.9510   34.6708   82.3103 H   0  0  0  0  0  0
   23.6482   38.7527   85.5589 H   0  0  0  0  0  0
   20.7749   36.4873   84.6764 H   0  0  0  0  0  0
   18.5181   37.0081   85.3773 H   0  0  0  0  0  0
   18.0416   39.0221   86.7073 H   0  0  0  0  0  0
   27.4721   40.2396   85.3265 H   0  0  0  0  0  0
   28.0644   40.3141   83.6942 H   0  0  0  0  0  0
   30.8739   36.6927   82.2206 H   0  0  0  0  0  0
   29.7035   35.5494   82.8683 H   0  0  0  0  0  0
   29.4358   36.3089   81.2870 H   0  0  0  0  0  0
   29.3280   39.2424   86.0895 H   0  0  0  0  0  0
   31.2404   40.2857   85.4625 H   0  0  0  0  0  0
   30.7261   42.6476   85.1528 H   0  0  0  0  0  0
   29.0614   42.2810   84.7479 H   0  0  0  0  0  0
   29.6714   41.9310   86.3630 H   0  0  0  0  0  0
   32.2543   39.7753   82.1257 H   0  0  0  0  0  0
   32.4535   39.3442   83.8096 H   0  0  0  0  0  0
  1  2  1  0  0  0
  1 19  1  0  0  0
  1  4  2  0  0  0
  2 18  1  0  0  0
  2  3  2  0  0  0
  3  6  1  0  0  0
  3 29  1  0  0  0
  4  5  1  0  0  0
  4 30  1  0  0  0
  5 10  2  0  0  0
  5  6  1  0  0  0
  6  7  2  0  0  0
  7  8  1  0  0  0
  8  9  2  0  0  0
  8 31  1  0  0  0
  9 10  1  0  0  0
 10 11  1  0  0  0
 11 12  1  0  0  0
 11 32  1  0  0  0
 12 17  2  0  0  0
 12 13  1  0  0  0
 13 14  2  0  0  0
 13 33  1  0  0  0
 14 15  1  0  0  0
 14 34  1  0  0  0
 15 16  2  0  0  0
 15 35  1  0  0  0
 16 17  1  0  0  0
 16 21  1  0  0  0
 17 22  1  0  0  0
 18 20  1  0  0  0
 19 23  1  0  0  0
 19 36  1  0  0  0
 19 37  1  0  0  0
 20 38  1  0  0  0
 20 39  1  0  0  0
 20 40  1  0  0  0
 23 24  1  0  0  0
 23 41  1  0  0  0
 24 25  1  0  0  0
 24 26  1  0  0  0
 24 42  1  0  0  0
 25 43  1  0  0  0
 25 44  1  0  0  0
 25 45  1  0  0  0
 26 27  1  0  0  0
 26 28  2  0  0  0
 27 46  1  0  0  0
 27 47  1  0  0  0
M  END
> <s_m_entry_id>
4591

> <s_m_entry_name>
dock_pv.79

> <s_m_Source_Path>
/home/csk/Desktop/cluster/DUD-E-result/lck

> <s_m_Source_File>
dock_pv.maegz

> <i_m_Source_File_Index>
79

> <chembl_id>
CHEMBL380386

> <chembl_pref_name>
None

> <i_lp_mmshare_version>
53161

> <i_f3d_flags>
0

> <r_lp_tautomer_probability>
0.999978000241998

> <s_lp_Force_Field>
OPLS_2005

> <r_lp_Energy>
18.643719

> <b_lp_Chiralities_Consistent>
1

> <s_lp_Variant>
CHEMBL258_lig637-1

> <s_i_glide_gridfile>
glide-grid_2of2

> <i_i_glide_lignum>
717

> <i_i_glide_rotatable_bonds>
7

> <r_i_docking_score>
-7.69749750025977

> <r_i_glide_ligand_efficiency>
-0.274910625009277

> <r_i_glide_ligand_efficiency_sa>
-0.834790571227387

> <r_i_glide_ligand_efficiency_ln>
-1.77680843140724

> <r_i_glide_gscore>
-7.69749750025977

> <r_i_glide_lipo>
-2.5837412939169

> <r_i_glide_hbond>
-0.466136674761428

> <r_i_glide_metal>
0

> <r_i_glide_rewards>
-2.00744636618809

> <r_i_glide_evdw>
-38.9516296386719

> <r_i_glide_ecoul>
-8.48643684387207

> <r_i_glide_erotb>
0.602058695950387

> <r_i_glide_esite>
-0.0216848528293339

> <r_i_glide_emodel>
-68.2834976376153

> <r_i_glide_energy>
-47.4380664825439

> <r_i_glide_einternal>
5.65726041793823

> <i_i_glide_confnum>
16

> <i_i_glide_posenum>
133

> <r_i_glide_eff_state_penalty>
0

> <s_user_duplicate_titles>
CHEMBL258_lig637

> <s_m_subgroup_title>
dock_pv

> <s_m_subgroupid>
dock_pv

> <b_m_subgroup_collapsed>
1

$$$$
CHEMBL258_lig639
                    3D
 Schrodinger Suite 2021-1.
 48 51  0  0  1  0            999 V2000
   27.5190   38.1325   84.1746 C   0  0  0  0  0  0
   27.9908   37.2329   83.2069 C   0  0  0  0  0  0
   27.0953   36.3365   82.6023 C   0  0  0  0  0  0
   26.1836   38.0993   84.5815 C   0  0  0  0  0  0
   25.2661   37.1955   83.9860 C   0  0  0  0  0  0
   25.7366   36.3002   82.9796 C   0  0  0  0  0  0
   24.9088   35.4110   82.3625 N   0  0  0  0  0  0
   23.6094   35.4219   82.7495 C   0  0  0  0  0  0
   23.0494   36.2217   83.6869 N   0  0  0  0  0  0
   23.8735   37.1100   84.2977 C   0  0  0  0  0  0
   23.2966   38.0014   85.2181 N   0  0  0  0  0  0
   21.9430   38.1641   85.5542 C   0  0  0  0  0  0
   21.3584   39.4183   85.3456 C   0  0  0  0  0  0
   20.0198   39.6371   85.6723 C   0  0  0  0  0  0
   19.2603   38.6088   86.2299 C   0  0  0  0  0  0
   19.8474   37.3676   86.4862 C   0  0  0  0  0  0
   21.1905   37.1422   86.1588 C   0  0  0  0  0  0
   29.3381   37.2698   82.8881 O   0  0  0  0  0  0
   28.4555   39.1473   84.8233 C   0  0  0  0  0  0
   29.9048   36.2207   82.1029 C   0  0  0  0  0  0
   18.9016   36.1284   87.2355 Cl  0  0  0  0  0  0
   21.7585   35.9441   86.4443 F   0  0  0  0  0  0
   28.2913   40.4950   84.2700 N   0  0  1  0  0  0
   27.5606   41.5303   85.0308 C   0  0  1  0  0  0
   28.6037   42.5648   84.5761 C   0  0  0  0  0  0
   29.4759   41.3592   84.2803 C   0  0  0  0  0  0
   26.1085   41.8937   84.6225 C   0  0  0  0  0  0
   25.2540   41.0212   84.4875 O   0  0  0  0  0  0
   25.7781   43.1799   84.4865 N   0  0  0  0  0  0
   27.4245   35.6462   81.8390 H   0  0  0  0  0  0
   25.8397   38.7772   85.3459 H   0  0  0  0  0  0
   22.9493   34.7200   82.2596 H   0  0  0  0  0  0
   23.8929   38.7812   85.4567 H   0  0  0  0  0  0
   21.9365   40.2224   84.9093 H   0  0  0  0  0  0
   19.5714   40.6049   85.4965 H   0  0  0  0  0  0
   18.2214   38.7825   86.4752 H   0  0  0  0  0  0
   29.4889   38.8250   84.6876 H   0  0  0  0  0  0
   28.2956   39.1578   85.9023 H   0  0  0  0  0  0
   30.9837   36.3614   82.0424 H   0  0  0  0  0  0
   29.7283   35.2379   82.5463 H   0  0  0  0  0  0
   29.5191   36.2201   81.0813 H   0  0  0  0  0  0
   27.6031   41.3491   86.1073 H   0  0  0  0  0  0
   28.3642   43.1513   83.6878 H   0  0  0  0  0  0
   28.9722   43.2217   85.3649 H   0  0  0  0  0  0
   30.0241   41.3693   83.3367 H   0  0  0  0  0  0
   30.1676   41.1341   85.0971 H   0  0  0  0  0  0
   24.8343   43.4267   84.2223 H   0  0  0  0  0  0
   26.4653   43.9068   84.6012 H   0  0  0  0  0  0
  1  2  1  0  0  0
  1 19  1  0  0  0
  1  4  2  0  0  0
  2 18  1  0  0  0
  2  3  2  0  0  0
  3  6  1  0  0  0
  3 30  1  0  0  0
  4  5  1  0  0  0
  4 31  1  0  0  0
  5 10  2  0  0  0
  5  6  1  0  0  0
  6  7  2  0  0  0
  7  8  1  0  0  0
  8  9  2  0  0  0
  8 32  1  0  0  0
  9 10  1  0  0  0
 10 11  1  0  0  0
 11 12  1  0  0  0
 11 33  1  0  0  0
 12 17  2  0  0  0
 12 13  1  0  0  0
 13 14  2  0  0  0
 13 34  1  0  0  0
 14 15  1  0  0  0
 14 35  1  0  0  0
 15 16  2  0  0  0
 15 36  1  0  0  0
 16 17  1  0  0  0
 16 21  1  0  0  0
 17 22  1  0  0  0
 18 20  1  0  0  0
 19 23  1  0  0  0
 19 37  1  0  0  0
 19 38  1  0  0  0
 20 39  1  0  0  0
 20 40  1  0  0  0
 20 41  1  0  0  0
 23 24  1  0  0  0
 23 26  1  0  0  0
 24 25  1  0  0  0
 24 27  1  0  0  0
 24 42  1  0  0  0
 25 26  1  0  0  0
 25 43  1  0  0  0
 25 44  1  0  0  0
 26 45  1  0  0  0
 26 46  1  0  0  0
 27 28  2  0  0  0
 27 29  1  0  0  0
 29 47  1  0  0  0
 29 48  1  0  0  0
M  END
> <s_m_entry_id>
4592

> <s_m_entry_name>
dock_pv.80

> <s_m_Source_Path>
/home/csk/Desktop/cluster/DUD-E-result/lck

> <s_m_Source_File>
dock_pv.maegz

> <i_m_Source_File_Index>
80

> <chembl_id>
CHEMBL207246

> <chembl_pref_name>
None

> <i_lp_mmshare_version>
53161

> <i_f3d_flags>
0

> <r_lp_tautomer_probability>
0.999978000241998

> <s_lp_Force_Field>
OPLS_2005

> <r_lp_Energy>
28.210632

> <b_lp_Chiralities_Consistent>
1

> <s_lp_Variant>
CHEMBL258_lig639-2

> <s_i_glide_gridfile>
glide-grid_2of2

> <i_i_glide_lignum>
720

> <i_i_glide_rotatable_bonds>
6

> <r_i_docking_score>
-7.68751754514772

> <r_i_glide_ligand_efficiency>
-0.265086811901646

> <r_i_glide_ligand_efficiency_sa>
-0.814430671558702

> <r_i_glide_ligand_efficiency_ln>
-1.76024657921365

> <r_i_glide_gscore>
-7.68751754514772

> <r_i_glide_lipo>
-3.02944863418499

> <r_i_glide_hbond>
-0.0125133996767735

> <r_i_glide_metal>
0

> <r_i_glide_rewards>
-2.02585501574602

> <r_i_glide_evdw>
-41.5534934997559

> <r_i_glide_ecoul>
-6.54364156723022

> <r_i_glide_erotb>
0.456845352757372

> <r_i_glide_esite>
-0.0173249382249829

> <r_i_glide_emodel>
-66.8047165611354

> <r_i_glide_energy>
-48.0971350669861

> <r_i_glide_einternal>
7.98332548141479

> <i_i_glide_confnum>
11

> <i_i_glide_posenum>
389

> <r_i_glide_eff_state_penalty>
0

> <s_user_duplicate_titles>
CHEMBL258_lig639

> <s_m_subgroup_title>
dock_pv

> <s_m_subgroupid>
dock_pv

> <b_m_subgroup_collapsed>
1

$$$$
CHEMBL258_lig1427
                    3D
 Schrodinger Suite 2021-1.
 37 40  0  0  1  0            999 V2000
   27.0425   37.5432   83.6584 C   0  0  0  0  0  0
   26.6048   36.4903   82.8802 N   0  0  0  0  0  0
   25.3499   35.9691   82.8278 C   0  0  0  0  0  0
   26.1906   38.2128   84.4756 C   0  0  0  0  0  0
   24.8049   37.7923   84.5061 C   0  0  0  0  0  0
   24.4349   36.7058   83.6925 C   0  0  0  0  0  0
   23.0683   36.5885   83.9055 C   0  0  0  0  0  0
   22.7388   37.5441   84.8598 N   0  0  0  0  0  0
   23.8041   38.2997   85.1838 N   0  0  0  0  0  0
   22.1500   35.7801   83.2888 N   0  0  0  0  0  0
   28.4920   37.9019   83.5147 C   0  0  0  0  0  0
   21.4649   37.8560   85.4105 C   0  0  0  0  0  0
   21.0872   39.1933   85.6177 C   0  0  0  0  0  0
   19.8241   39.4898   86.1280 C   0  0  0  0  0  0
   18.9466   38.4540   86.4409 C   0  0  0  0  0  0
   19.3228   37.1243   86.2646 C   0  0  0  0  0  0
   20.5815   36.8246   85.7511 C   0  0  0  0  0  0
   25.1018   35.0211   82.0910 O   0  0  0  0  0  0
   28.9882   39.1222   84.0092 C   0  0  0  0  0  0
   30.3320   39.4593   83.8822 C   0  0  0  0  0  0
   31.2090   38.5804   83.2549 C   0  0  0  0  0  0
   30.7486   37.3681   82.7542 C   0  0  0  0  0  0
   29.4044   37.0282   82.8871 C   0  0  0  0  0  0
   27.2489   36.0253   82.2584 H   0  0  0  0  0  0
   26.5067   39.0354   85.0976 H   0  0  0  0  0  0
   22.4266   35.1321   82.5606 H   0  0  0  0  0  0
   21.1639   35.8164   83.5164 H   0  0  0  0  0  0
   21.7554   40.0073   85.3678 H   0  0  0  0  0  0
   19.5219   40.5191   86.2715 H   0  0  0  0  0  0
   17.9620   38.6837   86.8252 H   0  0  0  0  0  0
   18.6377   36.3268   86.5183 H   0  0  0  0  0  0
   20.8585   35.7854   85.6308 H   0  0  0  0  0  0
   28.3420   39.8407   84.4937 H   0  0  0  0  0  0
   30.6934   40.4008   84.2699 H   0  0  0  0  0  0
   32.2539   38.8418   83.1565 H   0  0  0  0  0  0
   31.4332   36.6863   82.2672 H   0  0  0  0  0  0
   29.0917   36.0717   82.4947 H   0  0  0  0  0  0
  1 11  1  0  0  0
  1  2  1  0  0  0
  1  4  2  0  0  0
  2  3  1  0  0  0
  2 24  1  0  0  0
  3  6  1  0  0  0
  3 18  2  0  0  0
  4  5  1  0  0  0
  4 25  1  0  0  0
  5  9  2  0  0  0
  5  6  1  0  0  0
  6  7  2  0  0  0
  7  8  1  0  0  0
  7 10  1  0  0  0
  8 12  1  0  0  0
  8  9  1  0  0  0
 10 26  1  0  0  0
 10 27  1  0  0  0
 11 19  2  0  0  0
 11 23  1  0  0  0
 12 13  2  0  0  0
 12 17  1  0  0  0
 13 14  1  0  0  0
 13 28  1  0  0  0
 14 15  2  0  0  0
 14 29  1  0  0  0
 15 16  1  0  0  0
 15 30  1  0  0  0
 16 17  2  0  0  0
 16 31  1  0  0  0
 17 32  1  0  0  0
 19 20  1  0  0  0
 19 33  1  0  0  0
 20 21  2  0  0  0
 20 34  1  0  0  0
 21 22  1  0  0  0
 21 35  1  0  0  0
 22 23  2  0  0  0
 22 36  1  0  0  0
 23 37  1  0  0  0
M  END
> <s_m_entry_id>
4593

> <s_m_entry_name>
dock_pv.81

> <s_m_Source_Path>
/home/csk/Desktop/cluster/DUD-E-result/lck

> <s_m_Source_File>
dock_pv.maegz

> <i_m_Source_File_Index>
81

> <chembl_id>
CHEMBL1813790

> <chembl_pref_name>
None

> <i_lp_mmshare_version>
53161

> <i_f3d_flags>
0

> <r_lp_tautomer_probability>
1

> <s_lp_Force_Field>
OPLS_2005

> <r_lp_Energy>
29.944531

> <b_lp_Chiralities_Consistent>
1

> <s_lp_Variant>
CHEMBL258_lig1427-1

> <s_i_glide_gridfile>
glide-grid_2of2

> <i_i_glide_lignum>
1587

> <i_i_glide_rotatable_bonds>
2

> <r_i_docking_score>
-7.68287092986629

> <r_i_glide_ligand_efficiency>
-0.334037866515925

> <r_i_glide_ligand_efficiency_sa>
-0.949959257611842

> <r_i_glide_ligand_efficiency_ln>
-1.85778785526366

> <r_i_glide_gscore>
-7.68287092986629

> <r_i_glide_lipo>
-2.86951450414525

> <r_i_glide_hbond>
-0.32

> <r_i_glide_metal>
0

> <r_i_glide_rewards>
-2.07614202235541

> <r_i_glide_evdw>
-35.2635917663574

> <r_i_glide_ecoul>
-7.04583168029785

> <r_i_glide_erotb>
0.402839936996925

> <r_i_glide_esite>
0

> <r_i_glide_emodel>
-61.9215727416371

> <r_i_glide_energy>
-42.3094234466553

> <r_i_glide_einternal>
0.261858522891998

> <i_i_glide_confnum>
9

> <i_i_glide_posenum>
100

> <r_i_glide_eff_state_penalty>
0

> <s_user_duplicate_titles>
CHEMBL258_lig1427

> <s_m_subgroup_title>
dock_pv

> <s_m_subgroupid>
dock_pv

> <b_m_subgroup_collapsed>
1

$$$$
CHEMBL258_lig1037
                    3D
 Schrodinger Suite 2021-1.
 31 33  0  0  1  0            999 V2000
   25.3680   38.4109   84.2679 C   0  0  0  0  0  0
   24.9147   39.6055   85.0459 C   0  0  0  0  0  0
   22.7856   38.4105   85.3448 C   0  0  0  0  0  0
   23.5522   39.5050   85.5458 C   0  0  0  0  0  0
   24.4909   37.3278   84.1239 C   0  0  0  0  0  0
   23.2223   37.3240   84.6554 O   0  0  0  0  0  0
   26.6317   38.3183   83.6590 C   0  0  0  0  0  0
   21.3658   38.2401   85.7645 C   0  0  0  0  0  0
   24.8438   36.1934   83.4084 C   0  0  0  0  0  0
   26.9833   37.1801   82.9360 C   0  0  0  0  0  0
   20.5821   39.3234   86.1975 C   0  0  0  0  0  0
   19.2453   39.1509   86.5654 C   0  0  0  0  0  0
   26.0893   36.1254   82.8093 C   0  0  0  0  0  0
   25.6356   40.5850   85.2266 O   0  0  0  0  0  0
   18.6611   37.8796   86.4870 C   0  0  0  0  0  0
   20.7699   36.9691   85.7439 C   0  0  0  0  0  0
   19.4371   36.7935   86.1020 C   0  0  0  0  0  0
   27.5503   39.3305   83.7402 O   0  0  0  0  0  0
   18.5500   40.2340   87.0448 O   0  0  0  0  0  0
   17.3500   37.6533   86.8219 O   0  0  0  0  0  0
   26.4214   35.0210   82.0870 O   0  0  0  0  0  0
   23.1603   40.3505   86.0870 H   0  0  0  0  0  0
   24.1402   35.3834   83.3025 H   0  0  0  0  0  0
   27.9627   37.1178   82.4870 H   0  0  0  0  0  0
   20.9958   40.3193   86.2497 H   0  0  0  0  0  0
   21.3307   36.0960   85.4407 H   0  0  0  0  0  0
   19.0050   35.8063   86.0870 H   0  0  0  0  0  0
   27.2021   40.0579   84.2704 H   0  0  0  0  0  0
   17.5871   40.2210   86.8870 H   0  0  0  0  0  0
   16.7900   38.4400   86.7738 H   0  0  0  0  0  0
   27.1974   35.1652   81.5322 H   0  0  0  0  0  0
  1  2  1  0  0  0
  1  5  1  0  0  0
  1  7  2  0  0  0
  2  4  1  0  0  0
  2 14  2  0  0  0
  3  6  1  0  0  0
  3  8  1  0  0  0
  3  4  2  0  0  0
  4 22  1  0  0  0
  5  6  1  0  0  0
  5  9  2  0  0  0
  7 10  1  0  0  0
  7 18  1  0  0  0
  8 11  1  0  0  0
  8 16  2  0  0  0
  9 13  1  0  0  0
  9 23  1  0  0  0
 10 13  2  0  0  0
 10 24  1  0  0  0
 11 12  2  0  0  0
 11 25  1  0  0  0
 12 19  1  0  0  0
 12 15  1  0  0  0
 13 21  1  0  0  0
 15 17  2  0  0  0
 15 20  1  0  0  0
 16 17  1  0  0  0
 16 26  1  0  0  0
 17 27  1  0  0  0
 18 28  1  0  0  0
 19 29  1  0  0  0
 20 30  1  0  0  0
 21 31  1  0  0  0
M  END
> <s_m_entry_id>
4594

> <s_m_entry_name>
dock_pv.82

> <s_m_Source_Path>
/home/csk/Desktop/cluster/DUD-E-result/lck

> <s_m_Source_File>
dock_pv.maegz

> <i_m_Source_File_Index>
82

> <chembl_id>
CHEMBL151

> <chembl_pref_name>
LUTEOLIN

> <i_lp_mmshare_version>
53161

> <i_f3d_flags>
0

> <r_lp_tautomer_probability>
0.999999999999776

> <s_lp_Force_Field>
OPLS_2005

> <r_lp_Energy>
16.661857

> <b_lp_Chiralities_Consistent>
1

> <s_lp_Variant>
CHEMBL258_lig1037-1

> <s_i_glide_gridfile>
glide-grid_2of2

> <i_i_glide_lignum>
1125

> <i_i_glide_rotatable_bonds>
5

> <r_i_docking_score>
-7.67374190274179

> <r_i_glide_ligand_efficiency>
-0.365416281082942

> <r_i_glide_ligand_efficiency_sa>
-1.00815581129989

> <r_i_glide_ligand_efficiency_ln>
-1.89731717919735

> <r_i_glide_gscore>
-7.67374190274179

> <r_i_glide_lipo>
-2.58372717136018

> <r_i_glide_hbond>
-0.410619506384931

> <r_i_glide_metal>
0

> <r_i_glide_rewards>
-1.73575018308827

> <r_i_glide_evdw>
-27.9675254821777

> <r_i_glide_ecoul>
-11.7791881561279

> <r_i_glide_erotb>
0.22160945561966

> <r_i_glide_esite>
0

> <r_i_glide_emodel>
-57.3328135616456

> <r_i_glide_energy>
-39.7467136383057

> <r_i_glide_einternal>
5.84879589080811

> <i_i_glide_confnum>
2

> <i_i_glide_posenum>
365

> <r_i_glide_eff_state_penalty>
0

> <s_user_duplicate_titles>
CHEMBL258_lig1037

> <s_m_subgroup_title>
dock_pv

> <s_m_subgroupid>
dock_pv

> <b_m_subgroup_collapsed>
1

$$$$
CHEMBL258_lig1394
                    3D
 Schrodinger Suite 2021-1.
 27 29  0  0  1  0            999 V2000
   26.6925   38.5872   83.6163 C   0  0  0  0  0  0
   27.7172   37.4509   83.3444 C   0  0  0  0  0  0
   27.1398   36.3816   82.4887 N   0  0  0  0  0  0
   25.9156   35.8204   82.6649 C   0  0  0  0  0  0
   25.3602   37.9289   83.8897 C   0  0  0  0  0  0
   25.0547   36.6371   83.4885 C   0  0  0  0  0  0
   23.7391   36.4145   83.9210 C   0  0  0  0  0  0
   23.2846   37.5143   84.6534 C   0  0  0  0  0  0
   24.3219   38.4168   84.6390 N   0  0  0  0  0  0
   21.9686   37.7676   85.3084 C   0  0  0  0  0  0
   21.1970   36.6901   85.7656 C   0  0  0  0  0  0
   19.9520   36.9482   86.3444 C   0  0  0  0  0  0
   19.4482   38.1990   86.4849 N   0  0  0  0  0  0
   20.2018   39.2361   86.0404 C   0  0  0  0  0  0
   21.4569   39.0651   85.4538 C   0  0  0  0  0  0
   25.6269   34.7770   82.0892 O   0  0  0  0  0  0
   27.0263   39.2208   84.4369 H   0  0  0  0  0  0
   26.6221   39.2330   82.7421 H   0  0  0  0  0  0
   28.0425   37.0216   84.2902 H   0  0  0  0  0  0
   28.6202   37.8543   82.8837 H   0  0  0  0  0  0
   27.7188   35.9603   81.7760 H   0  0  0  0  0  0
   23.1580   35.5360   83.6876 H   0  0  0  0  0  0
   24.3006   39.3252   85.0795 H   0  0  0  0  0  0
   21.5458   35.6719   85.6729 H   0  0  0  0  0  0
   19.3325   36.1350   86.6970 H   0  0  0  0  0  0
   19.7726   40.2221   86.1531 H   0  0  0  0  0  0
   22.0078   39.9271   85.1049 H   0  0  0  0  0  0
  1  5  1  0  0  0
  1  2  1  0  0  0
  1 17  1  0  0  0
  1 18  1  0  0  0
  2  3  1  0  0  0
  2 19  1  0  0  0
  2 20  1  0  0  0
  3  4  1  0  0  0
  3 21  1  0  0  0
  4  6  1  0  0  0
  4 16  2  0  0  0
  5  9  1  0  0  0
  5  6  2  0  0  0
  6  7  1  0  0  0
  7  8  2  0  0  0
  7 22  1  0  0  0
  8  9  1  0  0  0
  8 10  1  0  0  0
  9 23  1  0  0  0
 10 11  2  0  0  0
 10 15  1  0  0  0
 11 12  1  0  0  0
 11 24  1  0  0  0
 12 13  2  0  0  0
 12 25  1  0  0  0
 13 14  1  0  0  0
 14 15  2  0  0  0
 14 26  1  0  0  0
 15 27  1  0  0  0
M  END
> <s_m_entry_id>
4595

> <s_m_entry_name>
dock_pv.83

> <s_m_Source_Path>
/home/csk/Desktop/cluster/DUD-E-result/lck

> <s_m_Source_File>
dock_pv.maegz

> <i_m_Source_File_Index>
83

> <chembl_id>
CHEMBL225519

> <chembl_pref_name>
None

> <i_lp_mmshare_version>
53161

> <i_f3d_flags>
0

> <r_lp_tautomer_probability>
1

> <s_lp_Force_Field>
OPLS_2005

> <r_lp_Energy>
13.581071

> <b_lp_Chiralities_Consistent>
1

> <s_lp_Variant>
CHEMBL258_lig1394-1

> <s_i_glide_gridfile>
glide-grid_2of2

> <i_i_glide_lignum>
1551

> <i_i_glide_rotatable_bonds>
1

> <r_i_docking_score>
-7.6656614954387

> <r_i_glide_ligand_efficiency>
-0.479103843464919

> <r_i_glide_ligand_efficiency_sa>
-1.20726603381823

> <r_i_glide_ligand_efficiency_ln>
-2.03193670443027

> <r_i_glide_gscore>
-7.6656614954387

> <r_i_glide_lipo>
-2.17185805633801

> <r_i_glide_hbond>
-0.420394686143927

> <r_i_glide_metal>
0

> <r_i_glide_rewards>
-3.19710905122913

> <r_i_glide_evdw>
-27.2518863677979

> <r_i_glide_ecoul>
-5.13646411895752

> <r_i_glide_erotb>
0.256764234505889

> <r_i_glide_esite>
0

> <r_i_glide_emodel>
-47.0403104815505

> <r_i_glide_energy>
-32.3883504867554

> <r_i_glide_einternal>
0.369383573532104

> <i_i_glide_confnum>
2

> <i_i_glide_posenum>
363

> <r_i_glide_eff_state_penalty>
0

> <s_user_duplicate_titles>
CHEMBL258_lig1394

> <s_m_subgroup_title>
dock_pv

> <s_m_subgroupid>
dock_pv

> <b_m_subgroup_collapsed>
1

$$$$
CHEMBL258_lig1250
                    3D
 Schrodinger Suite 2021-1.
 50 55  0  0  1  0            999 V2000
   28.5487   43.5667   85.2674 C   0  0  0  0  0  0
   27.3358   44.1699   85.3518 N   0  0  0  0  0  0
   26.2421   43.3884   85.2041 C   0  0  0  0  0  0
   26.2123   42.0548   84.9771 N   0  0  0  0  0  0
   28.6195   42.1875   85.0384 C   0  0  0  0  0  0
   27.4065   41.4502   84.8981 C   0  0  0  0  0  0
   27.7484   40.0737   84.6487 C   0  0  0  0  0  0
   29.1308   40.0375   84.6954 C   0  0  0  0  0  0
   29.6635   41.2932   84.8746 N   0  0  0  0  0  0
   25.0148   44.0203   85.2877 N   0  0  0  0  0  0
   31.0920   41.6019   84.8868 C   0  0  0  0  0  0
   31.8342   41.0402   83.6499 C   0  0  0  0  0  0
   31.1736   41.4203   82.4111 N   0  0  0  0  0  0
   18.9496   39.4555   86.5039 C   0  0  0  0  0  0
   18.6343   38.0996   86.4875 C   0  0  0  0  0  0
   19.5779   37.1490   86.1134 C   0  0  0  0  0  0
   20.2074   39.9135   86.1274 C   0  0  0  0  0  0
   21.1784   38.9869   85.7275 C   0  0  0  0  0  0
   20.8476   37.6015   85.7366 C   0  0  0  0  0  0
   22.2042   36.6225   85.2289 S   0  0  0  0  0  0
   23.1893   38.0542   84.9738 C   0  0  0  0  0  0
   22.5062   39.2128   85.2896 C   0  0  0  0  0  0
   24.5970   37.9364   84.4870 C   0  0  0  0  0  0
   25.5199   38.9372   84.8089 C   0  0  0  0  0  0
   26.8448   38.9221   84.3690 C   0  0  0  0  0  0
   27.3120   37.8646   83.5845 C   0  0  0  0  0  0
   25.0844   36.8918   83.6850 C   0  0  0  0  0  0
   26.4274   36.8383   83.2383 C   0  0  0  0  0  0
   26.5054   35.6314   82.4872 C   0  0  0  0  0  0
   25.3535   35.0211   82.4380 N   0  0  0  0  0  0
   24.4915   35.7704   83.1414 N   0  0  0  0  0  0
   29.4263   44.1930   85.3499 H   0  0  0  0  0  0
   29.8043   39.2014   84.5681 H   0  0  0  0  0  0
   25.0299   45.0213   85.1790 H   0  0  0  0  0  0
   24.2146   43.5017   84.9623 H   0  0  0  0  0  0
   31.2217   42.6851   84.9269 H   0  0  0  0  0  0
   31.5165   41.1974   85.8067 H   0  0  0  0  0  0
   32.8547   41.4268   83.6398 H   0  0  0  0  0  0
   31.9136   39.9520   83.7014 H   0  0  0  0  0  0
   30.9505   42.4200   82.4861 H   0  0  0  0  0  0
   31.8125   41.3307   81.6340 H   0  0  0  0  0  0
   18.1886   40.1643   86.8049 H   0  0  0  0  0  0
   17.6372   37.7908   86.7730 H   0  0  0  0  0  0
   19.3351   36.0951   86.1040 H   0  0  0  0  0  0
   20.4240   40.9727   86.1361 H   0  0  0  0  0  0
   22.9306   40.2019   85.2095 H   0  0  0  0  0  0
   25.1891   39.7579   85.4252 H   0  0  0  0  0  0
   28.3296   37.8433   83.2262 H   0  0  0  0  0  0
   27.3681   35.2251   81.9786 H   0  0  0  0  0  0
   23.5281   35.4845   83.2377 H   0  0  0  0  0  0
  1  5  1  0  0  0
  1  2  2  0  0  0
  1 32  1  0  0  0
  2  3  1  0  0  0
  3 10  1  0  0  0
  3  4  2  0  0  0
  4  6  1  0  0  0
  5  9  1  0  0  0
  5  6  2  0  0  0
  6  7  1  0  0  0
  7  8  2  0  0  0
  7 25  1  0  0  0
  8  9  1  0  0  0
  8 33  1  0  0  0
  9 11  1  0  0  0
 10 34  1  0  0  0
 10 35  1  0  0  0
 11 12  1  0  0  0
 11 36  1  0  0  0
 11 37  1  0  0  0
 12 13  1  0  0  0
 12 38  1  0  0  0
 12 39  1  0  0  0
 13 40  1  0  0  0
 13 41  1  0  0  0
 14 15  2  0  0  0
 14 17  1  0  0  0
 14 42  1  0  0  0
 15 16  1  0  0  0
 15 43  1  0  0  0
 16 19  2  0  0  0
 16 44  1  0  0  0
 17 18  2  0  0  0
 17 45  1  0  0  0
 18 22  1  0  0  0
 18 19  1  0  0  0
 19 20  1  0  0  0
 20 21  1  0  0  0
 21 22  2  0  0  0
 21 23  1  0  0  0
 22 46  1  0  0  0
 23 27  2  0  0  0
 23 24  1  0  0  0
 24 25  2  0  0  0
 24 47  1  0  0  0
 25 26  1  0  0  0
 26 28  2  0  0  0
 26 48  1  0  0  0
 27 28  1  0  0  0
 27 31  1  0  0  0
 28 29  1  0  0  0
 29 30  2  0  0  0
 29 49  1  0  0  0
 30 31  1  0  0  0
 31 50  1  0  0  0
M  END
> <s_m_entry_id>
4596

> <s_m_entry_name>
dock_pv.84

> <s_m_Source_Path>
/home/csk/Desktop/cluster/DUD-E-result/lck

> <s_m_Source_File>
dock_pv.maegz

> <i_m_Source_File_Index>
84

> <chembl_id>
CHEMBL590109

> <chembl_pref_name>
None

> <i_lp_mmshare_version>
53161

> <i_f3d_flags>
0

> <r_lp_tautomer_probability>
0.980392156862745

> <s_lp_Force_Field>
OPLS_2005

> <r_lp_Energy>
17.435249

> <b_lp_Chiralities_Consistent>
1

> <s_lp_Variant>
CHEMBL258_lig1250-1

> <s_i_glide_gridfile>
glide-grid_2of2

> <i_i_glide_lignum>
1400

> <i_i_glide_rotatable_bonds>
4

> <r_i_docking_score>
-7.65807542147798

> <r_i_glide_ligand_efficiency>
-0.247034691015419

> <r_i_glide_ligand_efficiency_sa>
-0.77602999793703

> <r_i_glide_ligand_efficiency_ln>
-1.72713069936953

> <r_i_glide_gscore>
-7.65807542147798

> <r_i_glide_lipo>
-2.84243097599001

> <r_i_glide_hbond>
-0.332867602068225

> <r_i_glide_metal>
0

> <r_i_glide_rewards>
-1.27244005097421

> <r_i_glide_evdw>
-41.8653526306152

> <r_i_glide_ecoul>
-9.30882549285889

> <r_i_glide_erotb>
0.328697833810446

> <r_i_glide_esite>
-0.0494431707963916

> <r_i_glide_emodel>
-74.0682272954896

> <r_i_glide_energy>
-51.1741781234741

> <r_i_glide_einternal>
2.80244278907776

> <i_i_glide_confnum>
32

> <i_i_glide_posenum>
198

> <r_i_glide_eff_state_penalty>
0

> <s_user_duplicate_titles>
CHEMBL258_lig1250,CHEMBL258_lig1250

> <s_m_subgroup_title>
dock_pv

> <s_m_subgroupid>
dock_pv

> <b_m_subgroup_collapsed>
1

$$$$
CHEMBL258_lig101
                    3D
 Schrodinger Suite 2021-1.
 50 54  0  0  1  0            999 V2000
   23.8993   36.8159   83.9451 C   0  0  0  0  0  0
   25.6188   38.3192   84.3432 C   0  0  0  0  0  0
   25.2492   37.1389   83.5952 C   0  0  0  0  0  0
   23.4648   37.7389   84.8866 N   0  0  0  0  0  0
   24.5010   38.6202   85.1057 C   0  0  0  0  0  0
   26.9004   39.0951   84.3214 C   0  0  0  0  0  0
   23.1801   35.8211   83.4034 N   0  0  0  0  0  0
   25.8203   36.2934   82.6179 C   0  0  0  0  0  0
   25.1397   35.2537   82.0868 N   0  0  0  0  0  0
   26.9186   40.4983   84.2107 C   0  0  0  0  0  0
   23.8604   35.0890   82.4869 C   0  0  0  0  0  0
   25.7499   41.2070   84.0578 O   0  0  0  0  0  0
   22.1409   37.8370   85.5240 C   0  0  0  0  0  0
   27.0864   36.4979   82.0937 N   0  0  0  0  0  0
   25.1903   41.9442   85.0803 C   0  0  0  0  0  0
   28.1179   38.4111   84.3924 C   0  0  0  0  0  0
   28.1369   41.1844   84.1807 C   0  0  0  0  0  0
   20.9852   38.0602   84.5206 C   0  0  0  0  0  0
   21.7459   36.5966   86.3459 C   0  0  0  0  0  0
   24.0121   42.6296   84.7783 C   0  0  0  0  0  0
   25.7118   42.0037   86.3812 C   0  0  0  0  0  0
   29.3303   39.0997   84.3645 C   0  0  0  0  0  0
   29.3406   40.4885   84.2597 C   0  0  0  0  0  0
   20.2179   36.6234   86.3470 C   0  0  0  0  0  0
   19.8489   37.1162   84.9463 C   0  0  0  0  0  0
   25.0558   42.7447   87.3614 C   0  0  0  0  0  0
   23.3543   43.3703   85.7569 C   0  0  0  0  0  0
   23.8801   43.4237   87.0451 C   0  0  0  0  0  0
   24.3558   39.4309   85.8047 H   0  0  0  0  0  0
   23.3502   34.2224   82.0872 H   0  0  0  0  0  0
   22.1736   38.6980   86.1959 H   0  0  0  0  0  0
   27.6387   37.2762   82.4199 H   0  0  0  0  0  0
   27.4050   35.8819   81.3521 H   0  0  0  0  0  0
   28.1303   37.3366   84.4869 H   0  0  0  0  0  0
   28.1457   42.2611   84.0872 H   0  0  0  0  0  0
   20.6536   39.0999   84.5446 H   0  0  0  0  0  0
   21.2687   37.8355   83.4916 H   0  0  0  0  0  0
   22.0706   35.6734   85.8648 H   0  0  0  0  0  0
   22.1490   36.6146   87.3584 H   0  0  0  0  0  0
   23.6066   42.5885   83.7780 H   0  0  0  0  0  0
   26.6177   41.4763   86.6387 H   0  0  0  0  0  0
   30.2623   38.5571   84.4305 H   0  0  0  0  0  0
   30.2775   41.0273   84.2377 H   0  0  0  0  0  0
   19.8529   37.3227   87.1011 H   0  0  0  0  0  0
   19.7863   35.6450   86.5664 H   0  0  0  0  0  0
   18.8737   37.6071   84.9294 H   0  0  0  0  0  0
   19.7947   36.2671   84.2607 H   0  0  0  0  0  0
   25.4551   42.7927   88.3639 H   0  0  0  0  0  0
   22.4420   43.9014   85.5180 H   0  0  0  0  0  0
   23.3680   43.9981   87.8035 H   0  0  0  0  0  0
  1  3  1  0  0  0
  1  4  1  0  0  0
  1  7  2  0  0  0
  2  3  1  0  0  0
  2  6  1  0  0  0
  2  5  2  0  0  0
  3  8  2  0  0  0
  4  5  1  0  0  0
  4 13  1  0  0  0
  5 29  1  0  0  0
  6 10  2  0  0  0
  6 16  1  0  0  0
  7 11  1  0  0  0
  8 14  1  0  0  0
  8  9  1  0  0  0
  9 11  2  0  0  0
 10 12  1  0  0  0
 10 17  1  0  0  0
 11 30  1  0  0  0
 12 15  1  0  0  0
 13 18  1  0  0  0
 13 19  1  0  0  0
 13 31  1  0  0  0
 14 32  1  0  0  0
 14 33  1  0  0  0
 15 20  2  0  0  0
 15 21  1  0  0  0
 16 22  2  0  0  0
 16 34  1  0  0  0
 17 23  2  0  0  0
 17 35  1  0  0  0
 18 25  1  0  0  0
 18 36  1  0  0  0
 18 37  1  0  0  0
 19 24  1  0  0  0
 19 38  1  0  0  0
 19 39  1  0  0  0
 20 27  1  0  0  0
 20 40  1  0  0  0
 21 26  2  0  0  0
 21 41  1  0  0  0
 22 23  1  0  0  0
 22 42  1  0  0  0
 23 43  1  0  0  0
 24 25  1  0  0  0
 24 44  1  0  0  0
 24 45  1  0  0  0
 25 46  1  0  0  0
 25 47  1  0  0  0
 26 28  1  0  0  0
 26 48  1  0  0  0
 27 28  2  0  0  0
 27 49  1  0  0  0
 28 50  1  0  0  0
M  END
> <s_m_entry_id>
4597

> <s_m_entry_name>
dock_pv.85

> <s_m_Source_Path>
/home/csk/Desktop/cluster/DUD-E-result/lck

> <s_m_Source_File>
dock_pv.maegz

> <i_m_Source_File_Index>
85

> <chembl_id>
CHEMBL68774

> <chembl_pref_name>
None

> <i_lp_mmshare_version>
53161

> <i_f3d_flags>
0

> <r_lp_tautomer_probability>
1

> <s_lp_Force_Field>
OPLS_2005

> <r_lp_Energy>
40.968388

> <b_lp_Chiralities_Consistent>
1

> <s_lp_Variant>
CHEMBL258_lig101-1

> <s_i_glide_gridfile>
glide-grid_2of2

> <i_i_glide_lignum>
116

> <i_i_glide_rotatable_bonds>
4

> <r_i_docking_score>
-7.65174245596384

> <r_i_glide_ligand_efficiency>
-0.273276516284423

> <r_i_glide_ligand_efficiency_sa>
-0.829828454700158

> <r_i_glide_ligand_efficiency_ln>
-1.76624682375726

> <r_i_glide_gscore>
-7.65174245596384

> <r_i_glide_lipo>
-2.16430897734577

> <r_i_glide_hbond>
-0.583341872978054

> <r_i_glide_metal>
0

> <r_i_glide_rewards>
-2.65917932552337

> <r_i_glide_evdw>
-35.4997940063477

> <r_i_glide_ecoul>
-5.75363492965698

> <r_i_glide_erotb>
0.393629258512677

> <r_i_glide_esite>
-0.000506598863389685

> <r_i_glide_emodel>
-59.1403696196518

> <r_i_glide_energy>
-41.2534289360046

> <r_i_glide_einternal>
2.59116673469543

> <i_i_glide_confnum>
59

> <i_i_glide_posenum>
384

> <r_i_glide_eff_state_penalty>
0

> <s_user_duplicate_titles>
CHEMBL258_lig101,107684

> <s_m_subgroup_title>
dock_pv

> <s_m_subgroupid>
dock_pv

> <b_m_subgroup_collapsed>
1

$$$$
CHEMBL258_lig118
                    3D
 Schrodinger Suite 2021-1.
 30 31  0  0  1  0            999 V2000
   27.7239   37.9934   83.6408 C   0  0  0  0  0  0
   27.6095   36.8290   82.8870 C   0  0  0  0  0  0
   26.3917   36.1572   82.8320 C   0  0  0  0  0  0
   25.2884   36.6445   83.5248 C   0  0  0  0  0  0
   25.3833   37.8304   84.2645 C   0  0  0  0  0  0
   26.6155   38.4934   84.3236 C   0  0  0  0  0  0
   24.2231   38.4305   84.9468 C   0  0  0  0  0  0
   22.9264   38.0956   84.7776 C   0  0  0  0  0  0
   21.7797   38.7193   85.4637 C   0  0  0  0  0  0
   20.4943   38.5668   84.9263 C   0  0  0  0  0  0
   19.3912   39.1869   85.5175 C   0  0  0  0  0  0
   19.5786   39.9708   86.6644 C   0  0  0  0  0  0
   20.8500   40.1188   87.2102 C   0  0  0  0  0  0
   21.9431   39.4973   86.6171 C   0  0  0  0  0  0
   18.5500   40.6210   87.2870 O   0  0  0  0  0  0
   26.2767   35.0210   82.0870 O   0  0  0  0  0  0
   28.9234   38.6484   83.6950 O   0  0  0  0  0  0
   18.1500   39.0210   84.9495 O   0  0  0  0  0  0
   28.4687   36.4497   82.3529 H   0  0  0  0  0  0
   24.3598   36.0987   83.4579 H   0  0  0  0  0  0
   26.7095   39.4095   84.8885 H   0  0  0  0  0  0
   24.4670   39.2196   85.6419 H   0  0  0  0  0  0
   22.6731   37.3053   84.0870 H   0  0  0  0  0  0
   20.3443   37.9742   84.0351 H   0  0  0  0  0  0
   20.9934   40.7305   88.0887 H   0  0  0  0  0  0
   22.9137   39.6380   87.0672 H   0  0  0  0  0  0
   17.6640   40.5427   86.8909 H   0  0  0  0  0  0
   27.0327   34.9323   81.4944 H   0  0  0  0  0  0
   28.9158   39.4046   84.2857 H   0  0  0  0  0  0
   17.4164   39.2587   85.5314 H   0  0  0  0  0  0
  1  6  1  0  0  0
  1  2  2  0  0  0
  1 17  1  0  0  0
  2  3  1  0  0  0
  2 19  1  0  0  0
  3 16  1  0  0  0
  3  4  2  0  0  0
  4  5  1  0  0  0
  4 20  1  0  0  0
  5  7  1  0  0  0
  5  6  2  0  0  0
  6 21  1  0  0  0
  7  8  2  0  0  0
  7 22  1  0  0  0
  8  9  1  0  0  0
  8 23  1  0  0  0
  9 10  1  0  0  0
  9 14  2  0  0  0
 10 11  2  0  0  0
 10 24  1  0  0  0
 11 18  1  0  0  0
 11 12  1  0  0  0
 12 15  1  0  0  0
 12 13  2  0  0  0
 13 14  1  0  0  0
 13 25  1  0  0  0
 14 26  1  0  0  0
 15 27  1  0  0  0
 16 28  1  0  0  0
 17 29  1  0  0  0
 18 30  1  0  0  0
M  END
> <s_m_entry_id>
4598

> <s_m_entry_name>
dock_pv.86

> <s_m_Source_Path>
/home/csk/Desktop/cluster/DUD-E-result/lck

> <s_m_Source_File>
dock_pv.maegz

> <i_m_Source_File_Index>
86

> <chembl_id>
CHEMBL69863

> <chembl_pref_name>
PICEATANNOL

> <i_lp_mmshare_version>
53161

> <i_f3d_flags>
0

> <r_lp_tautomer_probability>
1

> <s_lp_Force_Field>
OPLS_2005

> <r_lp_Energy>
12.649594

> <b_lp_Chiralities_Consistent>
1

> <s_lp_Variant>
CHEMBL258_lig118-1

> <s_i_glide_gridfile>
glide-grid_2of2

> <i_i_glide_lignum>
139

> <i_i_glide_rotatable_bonds>
6

> <r_i_docking_score>
-7.65002387440989

> <r_i_glide_ligand_efficiency>
-0.425001326356105

> <r_i_glide_ligand_efficiency_sa>
-1.11381856750201

> <r_i_glide_ligand_efficiency_ln>
-1.96639919022723

> <r_i_glide_gscore>
-7.65002387440989

> <r_i_glide_lipo>
-2.46287489781794

> <r_i_glide_hbond>
-0.549312028439512

> <r_i_glide_metal>
0

> <r_i_glide_rewards>
-2.20312110116133

> <r_i_glide_evdw>
-25.0002460479736

> <r_i_glide_ecoul>
-11.7832698822021

> <r_i_glide_erotb>
0.582786937737895

> <r_i_glide_esite>
0

> <r_i_glide_emodel>
-53.5874543845636

> <r_i_glide_energy>
-36.7835159301758

> <r_i_glide_einternal>
4.57710123062134

> <i_i_glide_confnum>
5

> <i_i_glide_posenum>
164

> <r_i_glide_eff_state_penalty>
0

> <s_user_duplicate_titles>
CHEMBL258_lig118

> <s_m_subgroup_title>
dock_pv

> <s_m_subgroupid>
dock_pv

> <b_m_subgroup_collapsed>
1

$$$$
CHEMBL258_lig361
                    3D
 Schrodinger Suite 2021-1.
 38 41  0  0  1  0            999 V2000
   24.8251   36.6364   83.6344 C   0  0  0  0  0  0
   24.2306   37.5601   84.5103 C   0  0  0  0  0  0
   26.1811   36.8294   83.3531 N   0  0  0  0  0  0
   24.9412   38.5872   85.0526 N   0  0  0  0  0  0
   26.9249   37.8222   83.8892 C   0  0  0  0  0  0
   26.2613   38.7214   84.7662 C   0  0  0  0  0  0
   25.5181   35.0230   82.2170 N   0  0  0  0  0  0
   26.5326   35.8162   82.4876 C   0  0  0  0  0  0
   22.8816   37.3937   84.8539 N   0  0  0  0  0  0
   24.4782   35.4894   82.8763 C   0  0  0  0  0  0
   22.1606   38.2819   85.7711 C   0  0  0  0  0  0
   28.3122   37.9824   83.6264 C   0  0  0  0  0  0
   26.9980   39.7691   85.3655 C   0  0  0  0  0  0
   21.1894   39.1834   84.9707 C   0  0  0  0  0  0
   21.4179   37.4208   86.8185 C   0  0  0  0  0  0
   29.0069   39.0278   84.2347 C   0  0  0  0  0  0
   28.3589   39.9103   85.0955 C   0  0  0  0  0  0
   20.2533   36.6201   86.1950 C   0  0  0  0  0  0
   20.0139   38.3907   84.3572 C   0  0  0  0  0  0
   19.2873   37.5376   85.4167 C   0  0  0  0  0  0
   27.5317   35.7075   82.0928 H   0  0  0  0  0  0
   22.3431   36.6964   84.3635 H   0  0  0  0  0  0
   23.5109   35.0118   82.7955 H   0  0  0  0  0  0
   22.8632   38.9317   86.2956 H   0  0  0  0  0  0
   28.8348   37.2985   82.9707 H   0  0  0  0  0  0
   26.4962   40.4517   86.0391 H   0  0  0  0  0  0
   20.7930   39.9602   85.6252 H   0  0  0  0  0  0
   21.7298   39.7111   84.1837 H   0  0  0  0  0  0
   22.1191   36.7382   87.3005 H   0  0  0  0  0  0
   21.0362   38.0594   87.6151 H   0  0  0  0  0  0
   30.0639   39.1481   84.0448 H   0  0  0  0  0  0
   28.9184   40.7062   85.5640 H   0  0  0  0  0  0
   19.7116   36.0766   86.9691 H   0  0  0  0  0  0
   20.6515   35.8580   85.5232 H   0  0  0  0  0  0
   19.3066   39.0770   83.8921 H   0  0  0  0  0  0
   20.3799   37.7471   83.5558 H   0  0  0  0  0  0
   18.7759   38.1970   86.1194 H   0  0  0  0  0  0
   18.5086   36.9438   84.9393 H   0  0  0  0  0  0
  1  2  1  0  0  0
  1  3  1  0  0  0
  1 10  2  0  0  0
  2  4  2  0  0  0
  2  9  1  0  0  0
  3  5  1  0  0  0
  3  8  1  0  0  0
  4  6  1  0  0  0
  5  6  1  0  0  0
  5 12  2  0  0  0
  6 13  2  0  0  0
  7 10  1  0  0  0
  7  8  2  0  0  0
  8 21  1  0  0  0
  9 11  1  0  0  0
  9 22  1  0  0  0
 10 23  1  0  0  0
 11 14  1  0  0  0
 11 15  1  0  0  0
 11 24  1  0  0  0
 12 16  1  0  0  0
 12 25  1  0  0  0
 13 17  1  0  0  0
 13 26  1  0  0  0
 14 19  1  0  0  0
 14 27  1  0  0  0
 14 28  1  0  0  0
 15 18  1  0  0  0
 15 29  1  0  0  0
 15 30  1  0  0  0
 16 17  2  0  0  0
 16 31  1  0  0  0
 17 32  1  0  0  0
 18 20  1  0  0  0
 18 33  1  0  0  0
 18 34  1  0  0  0
 19 20  1  0  0  0
 19 35  1  0  0  0
 19 36  1  0  0  0
 20 37  1  0  0  0
 20 38  1  0  0  0
M  END
> <s_m_entry_id>
4600

> <s_m_entry_name>
dock_pv.88

> <s_m_Source_Path>
/home/csk/Desktop/cluster/DUD-E-result/lck

> <s_m_Source_File>
dock_pv.maegz

> <i_m_Source_File_Index>
88

> <chembl_id>
CHEMBL418580

> <chembl_pref_name>
None

> <i_lp_mmshare_version>
53161

> <i_f3d_flags>
0

> <r_lp_tautomer_probability>
1

> <s_lp_Force_Field>
OPLS_2005

> <r_lp_Energy>
54.65868

> <b_lp_Chiralities_Consistent>
1

> <s_lp_Variant>
CHEMBL258_lig361-1

> <s_i_glide_gridfile>
glide-grid_2of2

> <i_i_glide_lignum>
401

> <i_i_glide_rotatable_bonds>
2

> <r_i_docking_score>
-7.64602810243743

> <r_i_glide_ligand_efficiency>
-0.382301405121871

> <r_i_glide_ligand_efficiency_sa>
-1.03772566787554

> <r_i_glide_ligand_efficiency_ln>
-1.91354865115542

> <r_i_glide_gscore>
-7.64602810243743

> <r_i_glide_lipo>
-2.79700273111143

> <r_i_glide_hbond>
-0.32

> <r_i_glide_metal>
0

> <r_i_glide_rewards>
-3.037468305732

> <r_i_glide_evdw>
-33.430965423584

> <r_i_glide_ecoul>
-2.14802813529968

> <r_i_glide_erotb>
0.502195425880158

> <r_i_glide_esite>
0

> <r_i_glide_emodel>
-51.4007098429722

> <r_i_glide_energy>
-35.5789935588837

> <r_i_glide_einternal>
1.06765258312225

> <i_i_glide_confnum>
11

> <i_i_glide_posenum>
383

> <r_i_glide_eff_state_penalty>
0

> <s_user_duplicate_titles>
CHEMBL258_lig361

> <s_m_subgroup_title>
dock_pv

> <s_m_subgroupid>
dock_pv

> <b_m_subgroup_collapsed>
1

$$$$
CHEMBL258_lig944
                    3D
 Schrodinger Suite 2021-1.
 34 37  0  0  1  0            999 V2000
   22.0085   37.5574   84.5712 N   0  0  0  0  0  0
   20.7083   37.4889   85.0858 C   0  0  0  0  0  0
   20.3728   36.6215   86.1415 C   0  0  0  0  0  0
   19.0709   36.6213   86.6452 C   0  0  0  0  0  0
   18.1004   37.4546   86.0904 C   0  0  0  0  0  0
   18.4231   38.2820   85.0158 C   0  0  0  0  0  0
   19.7229   38.2949   84.5078 C   0  0  0  0  0  0
   21.6385   35.3992   86.8870 Br  0  0  0  0  0  0
   29.3328   38.4421   83.7359 C   0  0  0  0  0  0
   28.9419   39.4818   84.5770 C   0  0  0  0  0  0
   27.6159   39.6025   84.9911 C   0  0  0  0  0  0
   28.4063   37.5027   83.2871 C   0  0  0  0  0  0
   27.0472   37.6159   83.6872 C   0  0  0  0  0  0
   26.6490   38.6663   84.5558 C   0  0  0  0  0  0
   25.3655   38.7771   84.9903 N   0  0  0  0  0  0
   24.4180   37.8697   84.6084 C   0  0  0  0  0  0
   26.0884   36.7461   83.3003 N   0  0  0  0  0  0
   24.7533   36.8180   83.7211 C   0  0  0  0  0  0
   24.1404   35.7109   83.0798 C   0  0  0  0  0  0
   25.0098   35.0259   82.3698 N   0  0  0  0  0  0
   26.1683   35.6370   82.4872 C   0  0  0  0  0  0
   23.0599   38.0598   85.2527 C   0  0  0  0  0  0
   22.9429   38.6251   86.3451 O   0  0  0  0  0  0
   22.1580   37.2263   83.6316 H   0  0  0  0  0  0
   18.8090   35.9602   87.4584 H   0  0  0  0  0  0
   17.0939   37.4578   86.4849 H   0  0  0  0  0  0
   17.6624   38.9216   84.5921 H   0  0  0  0  0  0
   19.9680   38.9522   83.6872 H   0  0  0  0  0  0
   30.3671   38.3608   83.4343 H   0  0  0  0  0  0
   29.6764   40.1964   84.9203 H   0  0  0  0  0  0
   27.3178   40.4028   85.6530 H   0  0  0  0  0  0
   28.7291   36.7007   82.6389 H   0  0  0  0  0  0
   23.1117   35.3845   83.1385 H   0  0  0  0  0  0
   27.0893   35.3264   82.0168 H   0  0  0  0  0  0
  1  2  1  0  0  0
  1 22  1  0  0  0
  1 24  1  0  0  0
  2  7  1  0  0  0
  2  3  2  0  0  0
  3  4  1  0  0  0
  3  8  1  0  0  0
  4  5  2  0  0  0
  4 25  1  0  0  0
  5  6  1  0  0  0
  5 26  1  0  0  0
  6  7  2  0  0  0
  6 27  1  0  0  0
  7 28  1  0  0  0
  9 10  2  0  0  0
  9 12  1  0  0  0
  9 29  1  0  0  0
 10 11  1  0  0  0
 10 30  1  0  0  0
 11 14  2  0  0  0
 11 31  1  0  0  0
 12 13  2  0  0  0
 12 32  1  0  0  0
 13 17  1  0  0  0
 13 14  1  0  0  0
 14 15  1  0  0  0
 15 16  2  0  0  0
 16 18  1  0  0  0
 16 22  1  0  0  0
 17 21  1  0  0  0
 17 18  1  0  0  0
 18 19  2  0  0  0
 19 20  1  0  0  0
 19 33  1  0  0  0
 20 21  2  0  0  0
 21 34  1  0  0  0
 22 23  2  0  0  0
M  END
> <s_m_entry_id>
4601

> <s_m_entry_name>
dock_pv.89

> <s_m_Source_Path>
/home/csk/Desktop/cluster/DUD-E-result/lck

> <s_m_Source_File>
dock_pv.maegz

> <i_m_Source_File_Index>
89

> <chembl_id>
CHEMBL271759

> <chembl_pref_name>
None

> <i_lp_mmshare_version>
53161

> <i_f3d_flags>
0

> <r_lp_tautomer_probability>
1

> <s_lp_Force_Field>
OPLS_2005

> <r_lp_Energy>
64.533969

> <b_lp_Chiralities_Consistent>
1

> <s_lp_Variant>
CHEMBL258_lig944-1

> <s_i_glide_gridfile>
glide-grid_2of2

> <i_i_glide_lignum>
1032

> <i_i_glide_rotatable_bonds>
3

> <r_i_docking_score>
-7.63843376364562

> <r_i_glide_ligand_efficiency>
-0.332105815810679

> <r_i_glide_ligand_efficiency_sa>
-0.944464762413534

> <r_i_glide_ligand_efficiency_ln>
-1.84704254553756

> <r_i_glide_gscore>
-7.63843376364562

> <r_i_glide_lipo>
-2.88227158271533

> <r_i_glide_hbond>
-0.197609157851176

> <r_i_glide_metal>
0

> <r_i_glide_rewards>
-2.76526818036753

> <r_i_glide_evdw>
-39.0939254760742

> <r_i_glide_ecoul>
-1.78014445304871

> <r_i_glide_erotb>
0.428433099049436

> <r_i_glide_esite>
0

> <r_i_glide_emodel>
-56.3829258350137

> <r_i_glide_energy>
-40.8740699291229

> <r_i_glide_einternal>
4.98085260391235

> <i_i_glide_confnum>
2

> <i_i_glide_posenum>
327

> <r_i_glide_eff_state_penalty>
0

> <s_user_duplicate_titles>
CHEMBL258_lig944,440590

> <s_m_subgroup_title>
dock_pv

> <s_m_subgroupid>
dock_pv

> <b_m_subgroup_collapsed>
1

$$$$
CHEMBL258_lig900
                    3D
 Schrodinger Suite 2021-1.
 56 60  0  0  1  0            999 V2000
   23.1976   35.4222   82.8859 C   0  0  0  0  0  0
   24.4516   35.2590   82.3911 N   0  0  0  0  0  0
   25.3502   36.0932   82.9078 C   0  0  0  0  0  0
   25.1246   37.0957   83.8715 C   0  0  0  0  0  0
   23.8121   37.2126   84.3879 C   0  0  0  0  0  0
   22.8417   36.3404   83.8695 C   0  0  0  0  0  0
   26.6502   36.0513   82.5199 O   0  0  0  0  0  0
   27.2985   37.0337   83.2142 C   0  0  0  0  0  0
   26.3965   37.7507   84.0211 C   0  0  0  0  0  0
   26.6426   38.9347   84.8765 C   0  0  0  0  0  0
   26.9237   38.7701   86.2330 C   0  0  0  0  0  0
   27.1613   39.8849   87.0313 C   0  0  0  0  0  0
   27.1241   41.1574   86.4660 C   0  0  0  0  0  0
   26.8520   41.3275   85.1093 C   0  0  0  0  0  0
   26.6148   40.2101   84.3110 C   0  0  0  0  0  0
   28.7778   37.1064   82.9692 C   0  0  0  0  0  0
   29.4060   36.1493   82.1573 C   0  0  0  0  0  0
   30.7749   36.2173   81.9144 C   0  0  0  0  0  0
   31.5264   37.2426   82.4804 C   0  0  0  0  0  0
   30.9198   38.1987   83.2922 C   0  0  0  0  0  0
   29.5492   38.1294   83.5358 C   0  0  0  0  0  0
   23.5231   38.1764   85.3681 N   0  0  0  0  0  0
   22.1711   38.4699   85.8421 C   0  0  0  0  0  0
   21.4994   39.6079   85.0505 C   0  0  0  0  0  0
   22.3115   40.8217   85.1615 N   0  0  0  0  0  0
   22.2650   41.6433   83.9524 C   0  0  0  0  0  0
   23.2626   42.8142   84.0969 C   0  0  0  0  0  0
   22.9738   43.6402   85.2735 N   0  0  0  0  0  0
   22.8606   42.8450   86.4966 C   0  0  0  0  0  0
   21.9134   41.6332   86.3199 C   0  0  0  0  0  0
   22.4566   34.7469   82.4870 H   0  0  0  0  0  0
   21.8141   36.3651   84.1949 H   0  0  0  0  0  0
   26.9499   37.7826   86.6664 H   0  0  0  0  0  0
   27.3791   39.7618   88.0810 H   0  0  0  0  0  0
   27.3089   42.0243   87.0850 H   0  0  0  0  0  0
   26.8265   42.3191   84.6801 H   0  0  0  0  0  0
   26.4017   40.3379   83.2595 H   0  0  0  0  0  0
   28.8440   35.3467   81.7004 H   0  0  0  0  0  0
   31.2517   35.4754   81.2873 H   0  0  0  0  0  0
   32.5899   37.2939   82.2933 H   0  0  0  0  0  0
   31.5086   38.9912   83.7298 H   0  0  0  0  0  0
   29.1092   38.8816   84.1689 H   0  0  0  0  0  0
   24.2093   38.9081   85.5013 H   0  0  0  0  0  0
   22.2180   38.7277   86.9014 H   0  0  0  0  0  0
   21.5397   37.5836   85.8227 H   0  0  0  0  0  0
   20.4716   39.7719   85.3810 H   0  0  0  0  0  0
   21.4298   39.2948   84.0065 H   0  0  0  0  0  0
   21.2588   42.0106   83.7567 H   0  0  0  0  0  0
   22.5495   41.0389   83.0910 H   0  0  0  0  0  0
   24.2776   42.4217   84.1706 H   0  0  0  0  0  0
   23.2070   43.4210   83.1988 H   0  0  0  0  0  0
   22.1869   44.2704   85.1187 H   0  0  0  0  0  0
   23.8513   42.4916   86.7871 H   0  0  0  0  0  0
   22.4852   43.4820   87.2972 H   0  0  0  0  0  0
   21.9444   41.0252   87.2245 H   0  0  0  0  0  0
   20.8848   41.9769   86.2126 H   0  0  0  0  0  0
  1  2  2  0  0  0
  1  6  1  0  0  0
  1 31  1  0  0  0
  2  3  1  0  0  0
  3  7  1  0  0  0
  3  4  2  0  0  0
  4  9  1  0  0  0
  4  5  1  0  0  0
  5  6  2  0  0  0
  5 22  1  0  0  0
  6 32  1  0  0  0
  7  8  1  0  0  0
  8 16  1  0  0  0
  8  9  2  0  0  0
  9 10  1  0  0  0
 10 11  2  0  0  0
 10 15  1  0  0  0
 11 12  1  0  0  0
 11 33  1  0  0  0
 12 13  2  0  0  0
 12 34  1  0  0  0
 13 14  1  0  0  0
 13 35  1  0  0  0
 14 15  2  0  0  0
 14 36  1  0  0  0
 15 37  1  0  0  0
 16 17  1  0  0  0
 16 21  2  0  0  0
 17 18  2  0  0  0
 17 38  1  0  0  0
 18 19  1  0  0  0
 18 39  1  0  0  0
 19 20  2  0  0  0
 19 40  1  0  0  0
 20 21  1  0  0  0
 20 41  1  0  0  0
 21 42  1  0  0  0
 22 23  1  0  0  0
 22 43  1  0  0  0
 23 24  1  0  0  0
 23 44  1  0  0  0
 23 45  1  0  0  0
 24 25  1  0  0  0
 24 46  1  0  0  0
 24 47  1  0  0  0
 25 30  1  0  0  0
 25 26  1  0  0  0
 26 27  1  0  0  0
 26 48  1  0  0  0
 26 49  1  0  0  0
 27 28  1  0  0  0
 27 50  1  0  0  0
 27 51  1  0  0  0
 28 29  1  0  0  0
 28 52  1  0  0  0
 29 30  1  0  0  0
 29 53  1  0  0  0
 29 54  1  0  0  0
 30 55  1  0  0  0
 30 56  1  0  0  0
M  END
> <s_m_entry_id>
4602

> <s_m_entry_name>
dock_pv.90

> <s_m_Source_Path>
/home/csk/Desktop/cluster/DUD-E-result/lck

> <s_m_Source_File>
dock_pv.maegz

> <i_m_Source_File_Index>
90

> <chembl_id>
CHEMBL392990

> <chembl_pref_name>
None

> <i_lp_mmshare_version>
53161

> <i_f3d_flags>
0

> <r_lp_tautomer_probability>
1

> <s_lp_Force_Field>
OPLS_2005

> <r_lp_Energy>
41.742244

> <b_lp_Chiralities_Consistent>
1

> <s_lp_Variant>
CHEMBL258_lig900-1

> <s_i_glide_gridfile>
glide-grid_2of2

> <i_i_glide_lignum>
988

> <i_i_glide_rotatable_bonds>
6

> <r_i_docking_score>
-7.63683698442244

> <r_i_glide_ligand_efficiency>
-0.254561232814081

> <r_i_glide_ligand_efficiency_sa>
-0.790980936458841

> <r_i_glide_ligand_efficiency_ln>
-1.73517257286432

> <r_i_glide_gscore>
-7.63683698442244

> <r_i_glide_lipo>
-3.78328466426944

> <r_i_glide_hbond>
-0.32

> <r_i_glide_metal>
0

> <r_i_glide_rewards>
-1.5128676109357

> <r_i_glide_evdw>
-37.0405769348145

> <r_i_glide_ecoul>
-5.23540639877319

> <r_i_glide_erotb>
0.616655097339399

> <r_i_glide_esite>
0

> <r_i_glide_emodel>
-60.7199118992787

> <r_i_glide_energy>
-42.2759833335876

> <r_i_glide_einternal>
4.66152000427246

> <i_i_glide_confnum>
147

> <i_i_glide_posenum>
351

> <r_i_glide_eff_state_penalty>
0

> <s_user_duplicate_titles>
CHEMBL258_lig900,408171

> <s_m_subgroup_title>
dock_pv

> <s_m_subgroupid>
dock_pv

> <b_m_subgroup_collapsed>
1

$$$$
CHEMBL258_lig288
                    3D
 Schrodinger Suite 2021-1.
 37 39  0  0  1  0            999 V2000
   25.5114   37.3475   83.9364 C   0  0  0  0  0  0
   26.4915   36.7802   83.2172 N   0  0  0  0  0  0
   26.0896   35.7091   82.4871 C   0  0  0  0  0  0
   24.8345   35.2077   82.3799 N   0  0  0  0  0  0
   23.8679   35.8211   83.1062 C   0  0  0  0  0  0
   24.1682   36.8976   83.9626 C   0  0  0  0  0  0
   23.4994   37.7678   84.8856 C   0  0  0  0  0  0
   24.3271   38.7021   85.2871 N   0  0  0  0  0  0
   25.5558   38.4729   84.7563 N   0  0  0  0  0  0
   22.0917   37.7070   85.3863 C   0  0  0  0  0  0
   21.5287   36.4672   85.7018 C   0  0  0  0  0  0
   20.2127   36.3831   86.1431 C   0  0  0  0  0  0
   19.4494   37.5400   86.2668 C   0  0  0  0  0  0
   19.9989   38.7847   85.9609 C   0  0  0  0  0  0
   21.3202   38.8677   85.5210 C   0  0  0  0  0  0
   26.6709   39.3891   85.1321 C   0  0  0  0  0  0
   26.2659   40.8455   84.7890 C   0  0  0  0  0  0
   27.9809   39.0657   84.3731 C   0  0  0  0  0  0
   26.9284   39.2498   86.6530 C   0  0  0  0  0  0
   22.5557   35.4210   82.8869 N   0  0  0  0  0  0
   17.8130   37.4206   86.8026 Cl  0  0  0  0  0  0
   26.8542   35.2217   81.8982 H   0  0  0  0  0  0
   22.1092   35.5612   85.6143 H   0  0  0  0  0  0
   19.7841   35.4190   86.3771 H   0  0  0  0  0  0
   19.4031   39.6805   86.0596 H   0  0  0  0  0  0
   21.7412   39.8328   85.2778 H   0  0  0  0  0  0
   25.3756   41.1664   85.3320 H   0  0  0  0  0  0
   27.0603   41.5499   85.0395 H   0  0  0  0  0  0
   26.0550   40.9595   83.7239 H   0  0  0  0  0  0
   28.3463   38.0634   84.5976 H   0  0  0  0  0  0
   27.8518   39.1403   83.2925 H   0  0  0  0  0  0
   28.7794   39.7568   84.6472 H   0  0  0  0  0  0
   27.1682   38.2210   86.9234 H   0  0  0  0  0  0
   27.7630   39.8732   86.9778 H   0  0  0  0  0  0
   26.0596   39.5430   87.2439 H   0  0  0  0  0  0
   21.8083   35.8883   83.3788 H   0  0  0  0  0  0
   22.3671   34.6828   82.2167 H   0  0  0  0  0  0
  1  2  1  0  0  0
  1  6  2  0  0  0
  1  9  1  0  0  0
  2  3  2  0  0  0
  3  4  1  0  0  0
  3 22  1  0  0  0
  4  5  2  0  0  0
  5  6  1  0  0  0
  5 20  1  0  0  0
  6  7  1  0  0  0
  7  8  2  0  0  0
  7 10  1  0  0  0
  8  9  1  0  0  0
  9 16  1  0  0  0
 10 11  1  0  0  0
 10 15  2  0  0  0
 11 12  2  0  0  0
 11 23  1  0  0  0
 12 13  1  0  0  0
 12 24  1  0  0  0
 13 14  2  0  0  0
 13 21  1  0  0  0
 14 15  1  0  0  0
 14 25  1  0  0  0
 15 26  1  0  0  0
 16 17  1  0  0  0
 16 18  1  0  0  0
 16 19  1  0  0  0
 17 27  1  0  0  0
 17 28  1  0  0  0
 17 29  1  0  0  0
 18 30  1  0  0  0
 18 31  1  0  0  0
 18 32  1  0  0  0
 19 33  1  0  0  0
 19 34  1  0  0  0
 19 35  1  0  0  0
 20 36  1  0  0  0
 20 37  1  0  0  0
M  END
> <s_m_entry_id>
4603

> <s_m_entry_name>
dock_pv.91

> <s_m_Source_Path>
/home/csk/Desktop/cluster/DUD-E-result/lck

> <s_m_Source_File>
dock_pv.maegz

> <i_m_Source_File_Index>
91

> <chembl_id>
CHEMBL406845

> <chembl_pref_name>
None

> <i_lp_mmshare_version>
53161

> <i_f3d_flags>
0

> <r_lp_tautomer_probability>
1

> <s_lp_Force_Field>
OPLS_2005

> <r_lp_Energy>
18.38448

> <b_lp_Chiralities_Consistent>
1

> <s_lp_Variant>
CHEMBL258_lig288-1

> <s_i_glide_gridfile>
glide-grid_2of2

> <i_i_glide_lignum>
320

> <i_i_glide_rotatable_bonds>
2

> <r_i_docking_score>
-7.63005909979605

> <r_i_glide_ligand_efficiency>
-0.363336147609336

> <r_i_glide_ligand_efficiency_sa>
-1.00241688077528

> <r_i_glide_ligand_efficiency_ln>
-1.88651669443843

> <r_i_glide_gscore>
-7.63005909979605

> <r_i_glide_lipo>
-2.28946726581533

> <r_i_glide_hbond>
-0.401706310854914

> <r_i_glide_metal>
0

> <r_i_glide_rewards>
-2.67548463799109

> <r_i_glide_evdw>
-33.6357307434082

> <r_i_glide_ecoul>
-4.82042503356934

> <r_i_glide_erotb>
0.141449407071097

> <r_i_glide_esite>
0

> <r_i_glide_emodel>
-53.6894064216531

> <r_i_glide_energy>
-38.4561557769775

> <r_i_glide_einternal>
2.24064421653748

> <i_i_glide_confnum>
3

> <i_i_glide_posenum>
278

> <r_i_glide_eff_state_penalty>
0

> <s_user_duplicate_titles>
CHEMBL258_lig288,60597

> <s_m_subgroup_title>
dock_pv

> <s_m_subgroupid>
dock_pv

> <b_m_subgroup_collapsed>
1

$$$$
CHEMBL258_lig617
                    3D
 Schrodinger Suite 2021-1.
 46 49  0  0  1  0            999 V2000
   21.9792   39.3819   84.9208 C   0  0  0  0  0  0
   22.5542   38.1652   85.2864 C   0  0  0  0  0  0
   21.7884   37.1746   85.9115 C   0  0  0  0  0  0
   20.6341   39.6680   85.1540 C   0  0  0  0  0  0
   19.8730   38.6678   85.7626 C   0  0  0  0  0  0
   20.4238   37.4059   86.1284 C   0  0  0  0  0  0
   19.3520   36.6313   86.6747 C   0  0  0  0  0  0
   18.2189   37.4147   86.6676 C   0  0  0  0  0  0
   18.5499   38.6378   86.1419 N   0  0  0  0  0  0
   22.3459   36.0110   86.3152 F   0  0  0  0  0  0
   16.8194   37.1198   87.1235 C   0  0  0  0  0  0
   23.9048   38.0090   85.0813 O   0  0  0  0  0  0
   24.4159   37.1218   84.1539 C   0  0  0  0  0  0
   25.4961   35.4214   82.2315 N   0  0  0  0  0  0
   24.1939   35.4215   82.6060 C   0  0  0  0  0  0
   23.6092   36.2210   83.5278 N   0  0  0  0  0  0
   26.2290   36.3587   82.8678 N   0  0  0  0  0  0
   25.7822   37.2560   83.8530 C   0  0  0  0  0  0
   26.8776   38.0726   84.2673 C   0  0  0  0  0  0
   27.9557   37.6926   83.4278 C   0  0  0  0  0  0
   27.5485   36.6208   82.6421 C   0  0  0  0  0  0
   26.7382   39.1209   85.3603 C   0  0  0  0  0  0
   29.2335   38.1866   83.2889 O   0  0  0  0  0  0
   29.7917   39.0726   84.2536 C   0  0  0  0  0  0
   29.4403   40.5599   83.9911 C   0  0  1  0  0  0
   29.9056   41.4782   85.1313 C   0  0  0  0  0  0
   30.0679   41.0209   82.8105 O   0  0  0  0  0  0
   22.6013   40.1352   84.4583 H   0  0  0  0  0  0
   20.2089   40.6210   84.8801 H   0  0  0  0  0  0
   19.3995   35.6131   87.0329 H   0  0  0  0  0  0
   17.8597   39.3780   86.0717 H   0  0  0  0  0  0
   16.6905   36.0538   87.2711 H   0  0  0  0  0  0
   16.5819   37.6138   88.0658 H   0  0  0  0  0  0
   16.0760   37.4277   86.3902 H   0  0  0  0  0  0
   23.5419   34.7252   82.0980 H   0  0  0  0  0  0
   28.1136   36.0634   81.9125 H   0  0  0  0  0  0
   26.1993   38.7144   86.2164 H   0  0  0  0  0  0
   27.6612   39.5095   85.7743 H   0  0  0  0  0  0
   26.1603   39.9776   85.0105 H   0  0  0  0  0  0
   30.8750   38.9577   84.2000 H   0  0  0  0  0  0
   29.5490   38.7510   85.2652 H   0  0  0  0  0  0
   28.3667   40.6768   83.8473 H   0  0  0  0  0  0
   29.4386   41.2022   86.0769 H   0  0  0  0  0  0
   29.6515   42.5210   84.9346 H   0  0  0  0  0  0
   30.9857   41.4228   85.2742 H   0  0  0  0  0  0
   30.1751   41.9787   82.8859 H   0  0  0  0  0  0
  1  2  2  0  0  0
  1  4  1  0  0  0
  1 28  1  0  0  0
  2  3  1  0  0  0
  2 12  1  0  0  0
  3  6  2  0  0  0
  3 10  1  0  0  0
  4  5  2  0  0  0
  4 29  1  0  0  0
  5  6  1  0  0  0
  5  9  1  0  0  0
  6  7  1  0  0  0
  7  8  2  0  0  0
  7 30  1  0  0  0
  8  9  1  0  0  0
  8 11  1  0  0  0
  9 31  1  0  0  0
 11 32  1  0  0  0
 11 33  1  0  0  0
 11 34  1  0  0  0
 12 13  1  0  0  0
 13 18  1  0  0  0
 13 16  2  0  0  0
 14 17  1  0  0  0
 14 15  2  0  0  0
 15 16  1  0  0  0
 15 35  1  0  0  0
 17 18  1  0  0  0
 17 21  1  0  0  0
 18 19  2  0  0  0
 19 20  1  0  0  0
 19 22  1  0  0  0
 20 21  2  0  0  0
 20 23  1  0  0  0
 21 36  1  0  0  0
 22 37  1  0  0  0
 22 38  1  0  0  0
 22 39  1  0  0  0
 23 24  1  0  0  0
 24 25  1  0  0  0
 24 40  1  0  0  0
 24 41  1  0  0  0
 25 26  1  0  0  0
 25 27  1  0  0  0
 25 42  1  0  0  0
 26 43  1  0  0  0
 26 44  1  0  0  0
 26 45  1  0  0  0
 27 46  1  0  0  0
M  END
> <s_m_entry_id>
4604

> <s_m_entry_name>
dock_pv.92

> <s_m_Source_Path>
/home/csk/Desktop/cluster/DUD-E-result/lck

> <s_m_Source_File>
dock_pv.maegz

> <i_m_Source_File_Index>
92

> <chembl_id>
CHEMBL377300

> <chembl_pref_name>
BRIVANIB

> <i_lp_mmshare_version>
53161

> <i_f3d_flags>
0

> <r_lp_tautomer_probability>
1

> <s_lp_Force_Field>
OPLS_2005

> <r_lp_Energy>
25.079318

> <b_lp_Chiralities_Consistent>
1

> <s_lp_Variant>
CHEMBL258_lig617-1

> <s_i_glide_gridfile>
glide-grid_2of2

> <i_i_glide_lignum>
696

> <i_i_glide_rotatable_bonds>
6

> <r_i_docking_score>
-7.61477338760661

> <r_i_glide_ligand_efficiency>
-0.28202864398543

> <r_i_glide_ligand_efficiency_sa>
-0.846085931026769

> <r_i_glide_ligand_efficiency_ln>
-1.77259370528409

> <r_i_glide_gscore>
-7.61477338760661

> <r_i_glide_lipo>
-2.63812668787197

> <r_i_glide_hbond>
-0.227150888948892

> <r_i_glide_metal>
0

> <r_i_glide_rewards>
-2.19409135229472

> <r_i_glide_evdw>
-40.2113876342773

> <r_i_glide_ecoul>
-7.98328638076782

> <r_i_glide_erotb>
0.703144883903957

> <r_i_glide_esite>
-0.0504870035659405

> <r_i_glide_emodel>
-67.2587899379837

> <r_i_glide_energy>
-48.1946740150452

> <r_i_glide_einternal>
8.38738918304443

> <i_i_glide_confnum>
44

> <i_i_glide_posenum>
354

> <r_i_glide_eff_state_penalty>
0

> <s_user_duplicate_titles>
CHEMBL258_lig617

> <s_m_subgroup_title>
dock_pv

> <s_m_subgroupid>
dock_pv

> <b_m_subgroup_collapsed>
1

$$$$
CHEMBL258_lig1033
                    3D
 Schrodinger Suite 2021-1.
 49 53  0  0  1  0            999 V2000
   25.7252   35.4599   82.5039 N   0  0  0  0  0  0
   24.4243   35.4211   82.8622 C   0  0  0  0  0  0
   23.7811   36.2804   83.6774 N   0  0  0  0  0  0
   24.4850   37.3272   84.1820 C   0  0  0  0  0  0
   26.3891   36.4884   83.0641 N   0  0  0  0  0  0
   25.8684   37.4766   83.9250 C   0  0  0  0  0  0
   26.9371   38.3688   84.2834 C   0  0  0  0  0  0
   28.0727   37.8891   83.5932 C   0  0  0  0  0  0
   27.7174   36.7408   82.8865 C   0  0  0  0  0  0
   23.7960   38.3243   84.8869 N   0  0  0  0  0  0
   22.4661   38.4073   85.3298 C   0  0  0  0  0  0
   21.7227   37.2745   85.6814 C   0  0  0  0  0  0
   20.5706   39.8856   85.7912 N   0  0  0  0  0  0
   21.8646   39.6660   85.4336 C   0  0  0  0  0  0
   19.8803   38.7795   86.0832 C   0  0  0  0  0  0
   20.3891   37.4545   86.0685 C   0  0  0  0  0  0
   19.3211   36.6023   86.4809 C   0  0  0  0  0  0
   18.1957   37.3872   86.6523 C   0  0  0  0  0  0
   18.5499   38.6976   86.4301 N   0  0  0  0  0  0
   26.8033   39.5661   85.2291 C   0  0  0  0  0  0
   26.8367   40.9122   84.4802 C   0  0  0  0  0  0
   27.7526   39.4963   86.4411 C   0  0  0  0  0  0
   29.4433   38.4144   83.5442 C   0  0  0  0  0  0
   30.5082   37.8198   83.0563 N   0  0  0  0  0  0
   31.5641   38.7161   83.1951 N   0  0  0  0  0  0
   31.0485   39.7843   83.7465 C   0  0  0  0  0  0
   29.7185   39.6707   83.9759 O   0  0  0  0  0  0
   16.7802   37.0212   87.0150 C   0  0  0  0  0  0
   31.7424   41.0635   84.1397 C   0  0  0  0  0  0
   23.8216   34.6359   82.4255 H   0  0  0  0  0  0
   28.3189   36.1040   82.2528 H   0  0  0  0  0  0
   24.3346   39.1674   85.0128 H   0  0  0  0  0  0
   22.1514   36.2848   85.6547 H   0  0  0  0  0  0
   22.4241   40.5576   85.1866 H   0  0  0  0  0  0
   19.3505   35.5271   86.5924 H   0  0  0  0  0  0
   17.8708   39.4488   86.4865 H   0  0  0  0  0  0
   25.8222   39.5379   85.6941 H   0  0  0  0  0  0
   26.0381   40.9691   83.7393 H   0  0  0  0  0  0
   26.6988   41.7478   85.1658 H   0  0  0  0  0  0
   27.7738   41.0839   83.9536 H   0  0  0  0  0  0
   27.5314   38.6205   87.0509 H   0  0  0  0  0  0
   28.8037   39.4398   86.1650 H   0  0  0  0  0  0
   27.6404   40.3714   87.0836 H   0  0  0  0  0  0
   16.6017   35.9548   86.8871 H   0  0  0  0  0  0
   16.5460   37.2811   88.0483 H   0  0  0  0  0  0
   16.0537   37.5307   86.3819 H   0  0  0  0  0  0
   32.7931   41.0664   83.8518 H   0  0  0  0  0  0
   31.6983   41.2251   85.2171 H   0  0  0  0  0  0
   31.2756   41.9268   83.6657 H   0  0  0  0  0  0
  1  5  1  0  0  0
  1  2  2  0  0  0
  2  3  1  0  0  0
  2 30  1  0  0  0
  3  4  2  0  0  0
  4 10  1  0  0  0
  4  6  1  0  0  0
  5  9  1  0  0  0
  5  6  1  0  0  0
  6  7  2  0  0  0
  7  8  1  0  0  0
  7 20  1  0  0  0
  8  9  2  0  0  0
  8 23  1  0  0  0
  9 31  1  0  0  0
 10 11  1  0  0  0
 10 32  1  0  0  0
 11 14  1  0  0  0
 11 12  2  0  0  0
 12 16  1  0  0  0
 12 33  1  0  0  0
 13 14  2  0  0  0
 13 15  1  0  0  0
 14 34  1  0  0  0
 15 16  2  0  0  0
 15 19  1  0  0  0
 16 17  1  0  0  0
 17 18  2  0  0  0
 17 35  1  0  0  0
 18 19  1  0  0  0
 18 28  1  0  0  0
 19 36  1  0  0  0
 20 21  1  0  0  0
 20 22  1  0  0  0
 20 37  1  0  0  0
 21 38  1  0  0  0
 21 39  1  0  0  0
 21 40  1  0  0  0
 22 41  1  0  0  0
 22 42  1  0  0  0
 22 43  1  0  0  0
 23 24  2  0  0  0
 23 27  1  0  0  0
 24 25  1  0  0  0
 25 26  2  0  0  0
 26 27  1  0  0  0
 26 29  1  0  0  0
 28 44  1  0  0  0
 28 45  1  0  0  0
 28 46  1  0  0  0
 29 47  1  0  0  0
 29 48  1  0  0  0
 29 49  1  0  0  0
M  END
> <s_m_entry_id>
4605

> <s_m_entry_name>
dock_pv.93

> <s_m_Source_Path>
/home/csk/Desktop/cluster/DUD-E-result/lck

> <s_m_Source_File>
dock_pv.maegz

> <i_m_Source_File_Index>
93

> <chembl_id>
CHEMBL261592

> <chembl_pref_name>
None

> <i_lp_mmshare_version>
53161

> <i_f3d_flags>
0

> <r_lp_tautomer_probability>
1

> <s_lp_Force_Field>
OPLS_2005

> <r_lp_Energy>
25.601731

> <b_lp_Chiralities_Consistent>
1

> <s_lp_Variant>
CHEMBL258_lig1033-1

> <s_i_glide_gridfile>
glide-grid_2of2

> <i_i_glide_lignum>
1121

> <i_i_glide_rotatable_bonds>
4

> <r_i_docking_score>
-7.61268716668645

> <r_i_glide_ligand_efficiency>
-0.262506454023671

> <r_i_glide_ligand_efficiency_sa>
-0.806502994642807

> <r_i_glide_ligand_efficiency_ln>
-1.74311232008069

> <r_i_glide_gscore>
-7.61268716668645

> <r_i_glide_lipo>
-2.48196920511201

> <r_i_glide_hbond>
-0.144151204156522

> <r_i_glide_metal>
0

> <r_i_glide_rewards>
-2.59107919442033

> <r_i_glide_evdw>
-43.9248695373535

> <r_i_glide_ecoul>
-3.51525259017944

> <r_i_glide_erotb>
0.387418784024912

> <r_i_glide_esite>
-0.0593749816279069

> <r_i_glide_emodel>
-68.5739726578583

> <r_i_glide_energy>
-47.440122127533

> <r_i_glide_einternal>
2.35484838485718

> <i_i_glide_confnum>
6

> <i_i_glide_posenum>
57

> <r_i_glide_eff_state_penalty>
0

> <s_user_duplicate_titles>
CHEMBL258_lig1033

> <s_m_subgroup_title>
dock_pv

> <s_m_subgroupid>
dock_pv

> <b_m_subgroup_collapsed>
1

$$$$
CHEMBL258_lig563
                    3D
 Schrodinger Suite 2021-1.
 51 54  0  0  1  0            999 V2000
   26.0579   37.2907   83.7363 C   0  0  0  0  0  0
   22.4355   37.0683   84.3517 C   0  0  0  0  0  0
   24.6423   37.2606   84.0614 C   0  0  0  0  0  0
   26.7554   36.4360   82.8056 C   0  0  0  0  0  0
   23.5191   36.5021   83.6860 N   0  0  0  0  0  0
   22.7593   38.0528   85.1424 N   0  0  0  0  0  0
   26.8715   38.2794   84.3973 C   0  0  0  0  0  0
   28.2830   38.3396   84.1259 C   0  0  0  0  0  0
   28.0797   36.5166   82.5763 N   0  0  0  0  0  0
   21.1456   36.6194   84.1614 N   0  0  0  0  0  0
   24.1009   38.2135   84.9621 C   0  0  0  0  0  0
   28.8253   37.4253   83.2257 C   0  0  0  0  0  0
   20.0317   36.9142   84.9653 C   0  0  0  0  0  0
   26.2582   39.1861   85.3037 C   0  0  0  0  0  0
   29.1756   39.3938   84.7966 C   0  0  0  0  0  0
   28.9883   40.7584   84.1250 C   0  0  0  0  0  0
   26.0939   35.5036   82.0868 O   0  0  0  0  0  0
   24.9005   39.1742   85.5731 C   0  0  0  0  0  0
   18.9610   37.6642   84.4517 C   0  0  0  0  0  0
   19.9252   36.3643   86.2539 C   0  0  0  0  0  0
   29.0275   40.8932   82.8978 O   0  0  0  0  0  0
   23.3795   35.4350   82.6856 C   0  0  0  0  0  0
   18.9485   38.2211   82.8173 Cl  0  0  0  0  0  0
   21.1470   35.3081   86.8871 Cl  0  0  0  0  0  0
   28.7577   41.7301   85.0351 O   0  0  0  0  0  0
   30.2987   37.4231   82.8376 C   0  0  0  0  0  0
   17.7629   37.4148   86.5337 C   0  0  0  0  0  0
   18.7908   36.6184   87.0280 C   0  0  0  0  0  0
   17.8425   37.9258   85.2426 C   0  0  0  0  0  0
   28.3855   43.0439   84.6398 C   0  0  0  0  0  0
   26.8555   43.1659   84.5697 C   0  0  0  0  0  0
   20.9628   35.8553   83.5286 H   0  0  0  0  0  0
   26.8492   39.9355   85.8058 H   0  0  0  0  0  0
   30.2301   39.1313   84.7345 H   0  0  0  0  0  0
   28.9518   39.4475   85.8622 H   0  0  0  0  0  0
   26.7284   35.1899   81.4329 H   0  0  0  0  0  0
   24.4754   39.8912   86.2610 H   0  0  0  0  0  0
   22.3761   35.0173   82.6841 H   0  0  0  0  0  0
   23.5732   35.8209   81.6881 H   0  0  0  0  0  0
   24.0613   34.6216   82.8870 H   0  0  0  0  0  0
   30.9244   37.1502   83.6854 H   0  0  0  0  0  0
   30.5122   36.7222   82.0286 H   0  0  0  0  0  0
   30.6015   38.4124   82.5006 H   0  0  0  0  0  0
   16.8884   37.6207   87.1360 H   0  0  0  0  0  0
   18.7004   36.1868   88.0139 H   0  0  0  0  0  0
   17.0214   38.5147   84.8580 H   0  0  0  0  0  0
   28.8430   43.3135   83.6890 H   0  0  0  0  0  0
   28.7725   43.7502   85.3752 H   0  0  0  0  0  0
   26.5617   44.1415   84.1793 H   0  0  0  0  0  0
   26.4111   43.0545   85.5589 H   0  0  0  0  0  0
   26.4156   42.4016   83.9277 H   0  0  0  0  0  0
  1  3  2  0  0  0
  1  4  1  0  0  0
  1  7  1  0  0  0
  2  5  1  0  0  0
  2 10  1  0  0  0
  2  6  2  0  0  0
  3  5  1  0  0  0
  3 11  1  0  0  0
  4  9  2  0  0  0
  4 17  1  0  0  0
  5 22  1  0  0  0
  6 11  1  0  0  0
  7  8  1  0  0  0
  7 14  2  0  0  0
  8 12  2  0  0  0
  8 15  1  0  0  0
  9 12  1  0  0  0
 10 13  1  0  0  0
 10 32  1  0  0  0
 11 18  2  0  0  0
 12 26  1  0  0  0
 13 19  2  0  0  0
 13 20  1  0  0  0
 14 18  1  0  0  0
 14 33  1  0  0  0
 15 16  1  0  0  0
 15 34  1  0  0  0
 15 35  1  0  0  0
 16 21  2  0  0  0
 16 25  1  0  0  0
 17 36  1  0  0  0
 18 37  1  0  0  0
 19 23  1  0  0  0
 19 29  1  0  0  0
 20 24  1  0  0  0
 20 28  2  0  0  0
 22 38  1  0  0  0
 22 39  1  0  0  0
 22 40  1  0  0  0
 25 30  1  0  0  0
 26 41  1  0  0  0
 26 42  1  0  0  0
 26 43  1  0  0  0
 27 28  1  0  0  0
 27 29  2  0  0  0
 27 44  1  0  0  0
 28 45  1  0  0  0
 29 46  1  0  0  0
 30 31  1  0  0  0
 30 47  1  0  0  0
 30 48  1  0  0  0
 31 49  1  0  0  0
 31 50  1  0  0  0
 31 51  1  0  0  0
M  END
> <s_m_entry_id>
4606

> <s_m_entry_name>
dock_pv.94

> <s_m_Source_Path>
/home/csk/Desktop/cluster/DUD-E-result/lck

> <s_m_Source_File>
dock_pv.maegz

> <i_m_Source_File_Index>
94

> <chembl_id>
CHEMBL281271

> <chembl_pref_name>
None

> <i_lp_mmshare_version>
53161

> <i_f3d_flags>
0

> <r_lp_tautomer_probability>
1

> <s_lp_Force_Field>
OPLS_2005

> <r_lp_Energy>
27.505485

> <b_lp_Chiralities_Consistent>
1

> <s_lp_Variant>
CHEMBL258_lig563-1

> <s_i_glide_gridfile>
glide-grid_2of2

> <i_i_glide_lignum>
636

> <i_i_glide_rotatable_bonds>
7

> <r_i_docking_score>
-7.60930498170179

> <r_i_glide_ligand_efficiency>
-0.245461451022638

> <r_i_glide_ligand_efficiency_sa>
-0.771087852267798

> <r_i_glide_ligand_efficiency_ln>
-1.71613147056552

> <r_i_glide_gscore>
-7.60930498170179

> <r_i_glide_lipo>
-3.39321422891185

> <r_i_glide_hbond>
-0.677797738441103

> <r_i_glide_metal>
0

> <r_i_glide_rewards>
-0.74495087985068

> <r_i_glide_evdw>
-44.0900382995605

> <r_i_glide_ecoul>
-7.034264087677

> <r_i_glide_erotb>
0.476817803150089

> <r_i_glide_esite>
-0.0105184095186687

> <r_i_glide_emodel>
-70.1663848309353

> <r_i_glide_energy>
-51.1243023872375

> <r_i_glide_einternal>
4.02371644973755

> <i_i_glide_confnum>
5

> <i_i_glide_posenum>
357

> <r_i_glide_eff_state_penalty>
0

> <s_user_duplicate_titles>
CHEMBL258_lig563,37120

> <s_m_subgroup_title>
dock_pv

> <s_m_subgroupid>
dock_pv

> <b_m_subgroup_collapsed>
1

$$$$
CHEMBL258_lig87
                    3D
 Schrodinger Suite 2021-1.
 66 70  0  0  1  0            999 V2000
   21.5990   39.8626   87.0182 C   0  0  0  0  0  0
   20.9500   39.0615   87.6875 O   0  0  0  0  0  0
   21.4154   41.1930   87.0675 N   0  0  0  0  0  0
   28.8433   37.5875   83.6757 C   0  0  0  0  0  0
   30.0622   38.2370   83.8528 C   0  0  0  0  0  0
   31.1883   37.8607   83.1105 C   0  0  0  0  0  0
   31.0711   36.8134   82.1906 C   0  0  0  0  0  0
   29.8584   36.1515   82.0256 C   0  0  0  0  0  0
   28.7335   36.5415   82.7537 C   0  0  0  0  0  0
   27.5423   35.8477   82.4869 N   0  0  0  0  0  0
   26.1945   36.0241   82.8233 C   0  0  0  0  0  0
   25.8162   37.0060   83.6793 N   0  0  0  0  0  0
   24.0260   35.2872   82.5091 C   0  0  0  0  0  0
   25.3454   35.1586   82.2154 N   0  0  0  0  0  0
   23.5371   36.2208   83.4295 C   0  0  0  0  0  0
   24.4919   37.0939   83.9688 C   0  0  0  0  0  0
   21.7051   37.0388   85.1399 C   0  0  0  0  0  0
   22.0502   36.3967   83.7403 C   0  0  0  0  0  0
   22.6858   38.2205   85.3725 C   0  0  0  0  0  0
   23.9671   38.1945   84.8160 C   0  0  0  0  0  0
   24.5590   39.3737   85.1980 N   0  0  0  0  0  0
   23.7737   40.1062   85.9846 N   0  0  0  0  0  0
   22.6484   39.4323   86.1237 C   0  0  0  0  0  0
   25.8946   39.8664   84.8962 C   0  0  0  0  0  0
   32.4056   38.5114   83.2669 N   0  0  0  0  0  0
   33.1860   39.0297   82.1291 C   0  0  0  0  0  0
   33.2423   40.5779   82.0976 C   0  0  0  0  0  0
   33.7993   41.0890   83.3519 N   0  0  0  0  0  0
   32.9208   40.6738   84.4484 C   0  0  0  0  0  0
   32.8664   39.1284   84.5241 C   0  0  0  0  0  0
   33.9046   42.5450   83.3150 C   0  0  0  0  0  0
   21.9038   36.0031   86.2676 C   0  0  0  0  0  0
   20.2355   37.5140   85.0181 C   0  0  0  0  0  0
   20.4275   41.8626   87.9011 C   0  0  0  0  0  0
   21.9684   41.7810   86.4579 H   0  0  0  0  0  0
   28.0075   37.9063   84.2718 H   0  0  0  0  0  0
   30.1216   39.0461   84.5650 H   0  0  0  0  0  0
   31.9238   36.4984   81.6078 H   0  0  0  0  0  0
   29.8001   35.3421   81.3113 H   0  0  0  0  0  0
   27.6578   35.1413   81.7739 H   0  0  0  0  0  0
   23.3502   34.6130   82.0029 H   0  0  0  0  0  0
   21.6398   37.0120   82.9403 H   0  0  0  0  0  0
   21.5446   35.4360   83.6336 H   0  0  0  0  0  0
   26.6176   39.3318   85.5134 H   0  0  0  0  0  0
   26.1169   39.7037   83.8408 H   0  0  0  0  0  0
   25.9704   40.9358   85.1047 H   0  0  0  0  0  0
   34.1896   38.6041   82.1558 H   0  0  0  0  0  0
   32.7458   38.6939   81.1900 H   0  0  0  0  0  0
   33.8685   40.8975   81.2632 H   0  0  0  0  0  0
   32.2457   40.9884   81.9186 H   0  0  0  0  0  0
   31.9158   41.0833   84.3220 H   0  0  0  0  0  0
   33.3039   41.0645   85.3930 H   0  0  0  0  0  0
   32.2172   38.8380   85.3490 H   0  0  0  0  0  0
   33.8483   38.7241   84.7732 H   0  0  0  0  0  0
   32.9297   43.0205   83.2057 H   0  0  0  0  0  0
   34.3562   42.9199   84.2331 H   0  0  0  0  0  0
   34.5361   42.8674   82.4868 H   0  0  0  0  0  0
   21.3726   35.0718   86.0686 H   0  0  0  0  0  0
   22.9576   35.7713   86.4099 H   0  0  0  0  0  0
   21.5450   36.3908   87.2212 H   0  0  0  0  0  0
   19.6050   36.7395   84.5797 H   0  0  0  0  0  0
   19.7905   37.7500   85.9812 H   0  0  0  0  0  0
   20.1482   38.3991   84.3880 H   0  0  0  0  0  0
   20.7026   42.9073   88.0468 H   0  0  0  0  0  0
   20.3626   41.4100   88.8870 H   0  0  0  0  0  0
   19.4451   41.8198   87.4298 H   0  0  0  0  0  0
  1  3  1  0  0  0
  1  2  2  0  0  0
  1 23  1  0  0  0
  3 34  1  0  0  0
  3 35  1  0  0  0
  4  9  1  0  0  0
  4  5  2  0  0  0
  4 36  1  0  0  0
  5  6  1  0  0  0
  5 37  1  0  0  0
  6  7  2  0  0  0
  6 25  1  0  0  0
  7  8  1  0  0  0
  7 38  1  0  0  0
  8  9  2  0  0  0
  8 39  1  0  0  0
  9 10  1  0  0  0
 10 11  1  0  0  0
 10 40  1  0  0  0
 11 12  2  0  0  0
 11 14  1  0  0  0
 12 16  1  0  0  0
 13 15  1  0  0  0
 13 14  2  0  0  0
 13 41  1  0  0  0
 15 18  1  0  0  0
 15 16  2  0  0  0
 16 20  1  0  0  0
 17 19  1  0  0  0
 17 18  1  0  0  0
 17 32  1  0  0  0
 17 33  1  0  0  0
 18 42  1  0  0  0
 18 43  1  0  0  0
 19 20  2  0  0  0
 19 23  1  0  0  0
 20 21  1  0  0  0
 21 22  1  0  0  0
 21 24  1  0  0  0
 22 23  2  0  0  0
 24 44  1  0  0  0
 24 45  1  0  0  0
 24 46  1  0  0  0
 25 26  1  0  0  0
 25 30  1  0  0  0
 26 27  1  0  0  0
 26 47  1  0  0  0
 26 48  1  0  0  0
 27 28  1  0  0  0
 27 49  1  0  0  0
 27 50  1  0  0  0
 28 29  1  0  0  0
 28 31  1  0  0  0
 29 30  1  0  0  0
 29 51  1  0  0  0
 29 52  1  0  0  0
 30 53  1  0  0  0
 30 54  1  0  0  0
 31 55  1  0  0  0
 31 56  1  0  0  0
 31 57  1  0  0  0
 32 58  1  0  0  0
 32 59  1  0  0  0
 32 60  1  0  0  0
 33 61  1  0  0  0
 33 62  1  0  0  0
 33 63  1  0  0  0
 34 64  1  0  0  0
 34 65  1  0  0  0
 34 66  1  0  0  0
M  END
> <s_m_entry_id>
4607

> <s_m_entry_name>
dock_pv.95

> <s_m_Source_Path>
/home/csk/Desktop/cluster/DUD-E-result/lck

> <s_m_Source_File>
dock_pv.maegz

> <i_m_Source_File_Index>
95

> <chembl_id>
CHEMBL564829

> <chembl_pref_name>
MILCICLIB

> <i_lp_mmshare_version>
53161

> <i_f3d_flags>
0

> <r_lp_tautomer_probability>
0.999999987636

> <s_lp_Force_Field>
OPLS_2005

> <r_lp_Energy>
43.848324

> <b_lp_Chiralities_Consistent>
1

> <s_lp_Variant>
CHEMBL258_lig87-1

> <s_i_glide_gridfile>
glide-grid_2of2

> <i_i_glide_lignum>
98

> <i_i_glide_rotatable_bonds>
5

> <r_i_docking_score>
-7.60258140436114

> <r_i_glide_ligand_efficiency>
-0.223605335422386

> <r_i_glide_ligand_efficiency_sa>
-0.724394482611481

> <r_i_glide_ligand_efficiency_ln>
-1.67962347740867

> <r_i_glide_gscore>
-7.60258140436114

> <r_i_glide_lipo>
-2.73764840839921

> <r_i_glide_hbond>
-0.410057826793096

> <r_i_glide_metal>
0

> <r_i_glide_rewards>
-1.75345576041602

> <r_i_glide_evdw>
-41.8530921936035

> <r_i_glide_ecoul>
-5.42739057540894

> <r_i_glide_erotb>
0.265699508328496

> <r_i_glide_esite>
-0.0603557210897868

> <r_i_glide_emodel>
-67.9979170079304

> <r_i_glide_energy>
-47.2804827690125

> <r_i_glide_einternal>
3.20608425140381

> <i_i_glide_confnum>
16

> <i_i_glide_posenum>
186

> <r_i_glide_eff_state_penalty>
0

> <s_user_duplicate_titles>
CHEMBL258_lig87,559790

> <s_m_subgroup_title>
dock_pv

> <s_m_subgroupid>
dock_pv

> <b_m_subgroup_collapsed>
1

$$$$
CHEMBL258_lig1036
                    3D
 Schrodinger Suite 2021-1.
 29 31  0  0  1  0            999 V2000
   22.5955   38.1773   85.4625 C   0  0  0  0  0  0
   23.3301   39.2859   85.6972 C   0  0  0  0  0  0
   24.7008   39.4251   85.2286 C   0  0  0  0  0  0
   25.4077   40.4031   85.4569 O   0  0  0  0  0  0
   25.1697   38.2658   84.4139 C   0  0  0  0  0  0
   26.4399   38.2456   83.8209 C   0  0  0  0  0  0
   26.8310   37.1582   83.0372 C   0  0  0  0  0  0
   25.9651   36.0833   82.8548 C   0  0  0  0  0  0
   24.7110   36.0827   83.4460 C   0  0  0  0  0  0
   24.3194   37.1694   84.2161 C   0  0  0  0  0  0
   23.0497   37.1156   84.7476 O   0  0  0  0  0  0
   21.1740   37.9936   85.8304 C   0  0  0  0  0  0
   20.6944   36.7183   86.1557 C   0  0  0  0  0  0
   19.3560   36.5314   86.4874 C   0  0  0  0  0  0
   18.4853   37.6140   86.4869 C   0  0  0  0  0  0
   18.9500   38.8911   86.1822 C   0  0  0  0  0  0
   20.2913   39.0810   85.8611 C   0  0  0  0  0  0
   17.1644   37.4210   86.7877 O   0  0  0  0  0  0
   26.3337   35.0211   82.0871 O   0  0  0  0  0  0
   22.8974   40.1071   86.2465 H   0  0  0  0  0  0
   27.1245   39.0736   83.9522 H   0  0  0  0  0  0
   27.8101   37.1522   82.5828 H   0  0  0  0  0  0
   24.0335   35.2583   83.2899 H   0  0  0  0  0  0
   21.3554   35.8632   86.1457 H   0  0  0  0  0  0
   18.9951   35.5426   86.7315 H   0  0  0  0  0  0
   18.2732   39.7337   86.1838 H   0  0  0  0  0  0
   20.6318   40.0769   85.6143 H   0  0  0  0  0  0
   16.6752   38.2572   86.7468 H   0  0  0  0  0  0
   27.1154   35.1989   81.5507 H   0  0  0  0  0  0
  1  2  2  0  0  0
  1 11  1  0  0  0
  1 12  1  0  0  0
  2  3  1  0  0  0
  2 20  1  0  0  0
  3  4  2  0  0  0
  3  5  1  0  0  0
  5  6  1  0  0  0
  5 10  2  0  0  0
  6  7  2  0  0  0
  6 21  1  0  0  0
  7  8  1  0  0  0
  7 22  1  0  0  0
  8  9  2  0  0  0
  8 19  1  0  0  0
  9 10  1  0  0  0
  9 23  1  0  0  0
 10 11  1  0  0  0
 12 13  1  0  0  0
 12 17  2  0  0  0
 13 14  2  0  0  0
 13 24  1  0  0  0
 14 15  1  0  0  0
 14 25  1  0  0  0
 15 16  2  0  0  0
 15 18  1  0  0  0
 16 17  1  0  0  0
 16 26  1  0  0  0
 17 27  1  0  0  0
 18 28  1  0  0  0
 19 29  1  0  0  0
M  END
> <s_m_entry_id>
4608

> <s_m_entry_name>
dock_pv.96

> <s_m_Source_Path>
/home/csk/Desktop/cluster/DUD-E-result/lck

> <s_m_Source_File>
dock_pv.maegz

> <i_m_Source_File_Index>
96

> <chembl_id>
CHEMBL294878

> <chembl_pref_name>
None

> <i_lp_mmshare_version>
53161

> <i_f3d_flags>
0

> <r_lp_tautomer_probability>
0.999999999997365

> <s_lp_Force_Field>
OPLS_2005

> <r_lp_Energy>
11.883372

> <b_lp_Chiralities_Consistent>
1

> <s_lp_Variant>
CHEMBL258_lig1036-1

> <s_i_glide_gridfile>
glide-grid_2of2

> <i_i_glide_lignum>
1124

> <i_i_glide_rotatable_bonds>
3

> <r_i_docking_score>
-7.5915051412601

> <r_i_glide_ligand_efficiency>
-0.399552902171584

> <r_i_glide_ligand_efficiency_sa>
-1.06616762185987

> <r_i_glide_ligand_efficiency_ln>
-1.92460960388957

> <r_i_glide_gscore>
-7.5915051412601

> <r_i_glide_lipo>
-2.76975415206351

> <r_i_glide_hbond>
-0.609982263599213

> <r_i_glide_metal>
0

> <r_i_glide_rewards>
-2.12038543333437

> <r_i_glide_evdw>
-29.8283348083496

> <r_i_glide_ecoul>
-5.81337356567383

> <r_i_glide_erotb>
0.272039483005549

> <r_i_glide_esite>
0

> <r_i_glide_emodel>
-51.7124613840224

> <r_i_glide_energy>
-35.6417083740234

> <r_i_glide_einternal>
2.55790567398071

> <i_i_glide_confnum>
3

> <i_i_glide_posenum>
393

> <r_i_glide_eff_state_penalty>
0

> <s_user_duplicate_titles>
CHEMBL258_lig1036

> <s_m_subgroup_title>
dock_pv

> <s_m_subgroupid>
dock_pv

> <b_m_subgroup_collapsed>
1

$$$$
CHEMBL258_lig237
                    3D
 Schrodinger Suite 2021-1.
 29 32  0  0  1  0            999 V2000
   24.5206   36.6106   83.6746 C   0  0  0  0  0  0
   25.8777   36.7948   83.3755 N   0  0  0  0  0  0
   24.6867   38.5358   85.1304 N   0  0  0  0  0  0
   23.9482   37.5281   84.5841 C   0  0  0  0  0  0
   26.6387   37.7792   83.9059 C   0  0  0  0  0  0
   26.0019   38.6688   84.8130 C   0  0  0  0  0  0
   25.1826   35.0217   82.2110 N   0  0  0  0  0  0
   26.2093   35.7952   82.4869 C   0  0  0  0  0  0
   24.1555   35.4847   82.8871 C   0  0  0  0  0  0
   22.5221   37.4601   85.0295 C   0  0  0  0  0  0
   20.8657   37.8023   86.7888 N   0  0  0  0  0  0
   22.1436   37.8302   86.3318 C   0  0  0  0  0  0
   28.0177   37.9430   83.6021 C   0  0  0  0  0  0
   26.7590   39.7098   85.4027 C   0  0  0  0  0  0
   21.4915   37.0446   84.1705 C   0  0  0  0  0  0
   19.8970   37.3997   85.9289 C   0  0  0  0  0  0
   20.1670   37.0209   84.6138 C   0  0  0  0  0  0
   28.7317   38.9799   84.2001 C   0  0  0  0  0  0
   28.1114   39.8515   85.0923 C   0  0  0  0  0  0
   27.2034   35.6840   82.0792 H   0  0  0  0  0  0
   23.1873   35.0099   82.8111 H   0  0  0  0  0  0
   22.8828   38.1688   87.0430 H   0  0  0  0  0  0
   28.5198   37.2729   82.9210 H   0  0  0  0  0  0
   26.2798   40.3865   86.0963 H   0  0  0  0  0  0
   21.7030   36.7600   83.1503 H   0  0  0  0  0  0
   18.8869   37.3849   86.3131 H   0  0  0  0  0  0
   19.3697   36.7035   83.9581 H   0  0  0  0  0  0
   29.7828   39.1075   83.9775 H   0  0  0  0  0  0
   28.6860   40.6452   85.5503 H   0  0  0  0  0  0
  1  2  1  0  0  0
  1  4  1  0  0  0
  1  9  2  0  0  0
  2  5  1  0  0  0
  2  8  1  0  0  0
  3  4  2  0  0  0
  3  6  1  0  0  0
  4 10  1  0  0  0
  5 13  2  0  0  0
  5  6  1  0  0  0
  6 14  2  0  0  0
  7  9  1  0  0  0
  7  8  2  0  0  0
  8 20  1  0  0  0
  9 21  1  0  0  0
 10 12  2  0  0  0
 10 15  1  0  0  0
 11 12  1  0  0  0
 11 16  2  0  0  0
 12 22  1  0  0  0
 13 18  1  0  0  0
 13 23  1  0  0  0
 14 19  1  0  0  0
 14 24  1  0  0  0
 15 17  2  0  0  0
 15 25  1  0  0  0
 16 17  1  0  0  0
 16 26  1  0  0  0
 17 27  1  0  0  0
 18 19  2  0  0  0
 18 28  1  0  0  0
 19 29  1  0  0  0
M  END
> <s_m_entry_id>
4609

> <s_m_entry_name>
dock_pv.97

> <s_m_Source_Path>
/home/csk/Desktop/cluster/DUD-E-result/lck

> <s_m_Source_File>
dock_pv.maegz

> <i_m_Source_File_Index>
97

> <chembl_id>
CHEMBL315816

> <chembl_pref_name>
None

> <i_lp_mmshare_version>
53161

> <i_f3d_flags>
0

> <r_lp_tautomer_probability>
1

> <s_lp_Force_Field>
OPLS_2005

> <r_lp_Energy>
55.061651

> <b_lp_Chiralities_Consistent>
1

> <s_lp_Variant>
CHEMBL258_lig237-1

> <s_i_glide_gridfile>
glide-grid_2of2

> <i_i_glide_lignum>
265

> <i_i_glide_rotatable_bonds>
1

> <r_i_docking_score>
-7.59093900422977

> <r_i_glide_ligand_efficiency>
-0.399523105485777

> <r_i_glide_ligand_efficiency_sa>
-1.06608811233442

> <r_i_glide_ligand_efficiency_ln>
-1.92446607599287

> <r_i_glide_gscore>
-7.59093900422977

> <r_i_glide_lipo>
-2.45831899156015

> <r_i_glide_hbond>
-0.32

> <r_i_glide_metal>
0

> <r_i_glide_rewards>
-3.28853996143478

> <r_i_glide_evdw>
-29.5797901153564

> <r_i_glide_ecoul>
-2.21599888801575

> <r_i_glide_erotb>
0.287309287735352

> <r_i_glide_esite>
0

> <r_i_glide_emodel>
-46.4821475594714

> <r_i_glide_energy>
-31.7957890033722

> <r_i_glide_einternal>
0.159508153796196

> <i_i_glide_confnum>
2

> <i_i_glide_posenum>
94

> <r_i_glide_eff_state_penalty>
0

> <s_user_duplicate_titles>
CHEMBL258_lig237,136477

> <s_m_subgroup_title>
dock_pv

> <s_m_subgroupid>
dock_pv

> <b_m_subgroup_collapsed>
1

$$$$
CHEMBL258_lig243
                    3D
 Schrodinger Suite 2021-1.
 36 39  0  0  1  0            999 V2000
   24.4189   36.5789   83.6840 C   0  0  0  0  0  0
   23.8179   37.5066   84.5532 C   0  0  0  0  0  0
   25.7863   36.7550   83.4322 N   0  0  0  0  0  0
   24.5380   38.5120   85.1197 N   0  0  0  0  0  0
   26.5363   37.7256   83.9972 C   0  0  0  0  0  0
   22.4323   37.4378   84.7742 N   0  0  0  0  0  0
   25.8685   38.6210   84.8733 C   0  0  0  0  0  0
   25.1132   35.0215   82.2104 N   0  0  0  0  0  0
   26.1414   35.7743   82.5331 C   0  0  0  0  0  0
   24.0687   35.4644   82.8778 C   0  0  0  0  0  0
   21.5288   38.2289   85.5183 C   0  0  0  0  0  0
   20.1634   38.2101   85.1648 C   0  0  0  0  0  0
   19.7687   37.3876   84.1188 O   0  0  0  0  0  0
   27.9298   37.8677   83.7574 C   0  0  0  0  0  0
   26.6123   39.6449   85.5041 C   0  0  0  0  0  0
   21.9515   39.0422   86.5821 C   0  0  0  0  0  0
   19.2626   39.0372   85.8638 C   0  0  0  0  0  0
   18.3989   37.3626   83.7303 C   0  0  0  0  0  0
   28.6314   38.8831   84.4048 C   0  0  0  0  0  0
   27.9814   39.7594   85.2709 C   0  0  0  0  0  0
   21.0502   39.8664   87.2520 C   0  0  0  0  0  0
   19.7100   39.8715   86.8841 C   0  0  0  0  0  0
   21.9712   36.6800   84.2916 H   0  0  0  0  0  0
   27.1448   35.6668   82.1467 H   0  0  0  0  0  0
   23.0973   35.0055   82.7536 H   0  0  0  0  0  0
   28.4542   37.1928   83.0958 H   0  0  0  0  0  0
   26.1048   40.3287   86.1692 H   0  0  0  0  0  0
   22.9811   39.0557   86.8987 H   0  0  0  0  0  0
   18.2096   39.0638   85.6267 H   0  0  0  0  0  0
   18.2645   36.6611   82.9083 H   0  0  0  0  0  0
   17.7565   37.0337   84.5490 H   0  0  0  0  0  0
   18.0631   38.3417   83.3840 H   0  0  0  0  0  0
   29.6935   38.9878   84.2386 H   0  0  0  0  0  0
   28.5467   40.5344   85.7669 H   0  0  0  0  0  0
   21.3949   40.5104   88.0477 H   0  0  0  0  0  0
   19.0083   40.5267   87.3819 H   0  0  0  0  0  0
  1  2  1  0  0  0
  1  3  1  0  0  0
  1 10  2  0  0  0
  2  4  2  0  0  0
  2  6  1  0  0  0
  3  5  1  0  0  0
  3  9  1  0  0  0
  4  7  1  0  0  0
  5  7  1  0  0  0
  5 14  2  0  0  0
  6 11  1  0  0  0
  6 23  1  0  0  0
  7 15  2  0  0  0
  8 10  1  0  0  0
  8  9  2  0  0  0
  9 24  1  0  0  0
 10 25  1  0  0  0
 11 12  1  0  0  0
 11 16  2  0  0  0
 12 13  1  0  0  0
 12 17  2  0  0  0
 13 18  1  0  0  0
 14 19  1  0  0  0
 14 26  1  0  0  0
 15 20  1  0  0  0
 15 27  1  0  0  0
 16 21  1  0  0  0
 16 28  1  0  0  0
 17 22  1  0  0  0
 17 29  1  0  0  0
 18 30  1  0  0  0
 18 31  1  0  0  0
 18 32  1  0  0  0
 19 20  2  0  0  0
 19 33  1  0  0  0
 20 34  1  0  0  0
 21 22  2  0  0  0
 21 35  1  0  0  0
 22 36  1  0  0  0
M  END
> <s_m_entry_id>
4610

> <s_m_entry_name>
dock_pv.98

> <s_m_Source_Path>
/home/csk/Desktop/cluster/DUD-E-result/lck

> <s_m_Source_File>
dock_pv.maegz

> <i_m_Source_File_Index>
98

> <chembl_id>
CHEMBL29764

> <chembl_pref_name>
None

> <i_lp_mmshare_version>
53161

> <i_f3d_flags>
0

> <r_lp_tautomer_probability>
1

> <s_lp_Force_Field>
OPLS_2005

> <r_lp_Energy>
60.284831

> <b_lp_Chiralities_Consistent>
1

> <s_lp_Variant>
CHEMBL258_lig243-1

> <s_i_glide_gridfile>
glide-grid_2of2

> <i_i_glide_lignum>
271

> <i_i_glide_rotatable_bonds>
3

> <r_i_docking_score>
-7.58103341122864

> <r_i_glide_ligand_efficiency>
-0.34459242778312

> <r_i_glide_ligand_efficiency_sa>
-0.965561534699465

> <r_i_glide_ligand_efficiency_ln>
-1.85308109061675

> <r_i_glide_gscore>
-7.58103341122864

> <r_i_glide_lipo>
-2.72077187209206

> <r_i_glide_hbond>
-0.319755202369784

> <r_i_glide_metal>
0

> <r_i_glide_rewards>
-2.9875155481498

> <r_i_glide_evdw>
-34.4159164428711

> <r_i_glide_ecoul>
-1.76406311988831

> <r_i_glide_erotb>
0.4324145015098

> <r_i_glide_esite>
0

> <r_i_glide_emodel>
-52.8433960786227

> <r_i_glide_energy>
-36.1799795627594

> <r_i_glide_einternal>
1.26001358032227

> <i_i_glide_confnum>
1

> <i_i_glide_posenum>
67

> <r_i_glide_eff_state_penalty>
0

> <s_user_duplicate_titles>
CHEMBL258_lig243

> <s_m_subgroup_title>
dock_pv

> <s_m_subgroupid>
dock_pv

> <b_m_subgroup_collapsed>
1

$$$$
CHEMBL258_lig34
                    3D
 Schrodinger Suite 2021-1.
 32 34  0  0  1  0            999 V2000
   23.3300   36.9311   84.1395 N   0  0  0  0  0  0
   24.0041   36.1073   83.2870 C   0  0  0  0  0  0
   24.1279   37.9173   84.6543 C   0  0  0  0  0  0
   21.8741   36.7419   84.4327 C   0  0  1  0  0  0
   25.4918   37.6432   84.1411 C   0  0  0  0  0  0
   25.4184   36.5539   83.3205 C   0  0  0  0  0  0
   21.5594   36.5072   85.9348 C   0  0  0  0  0  0
   18.5142   37.8482   83.3620 N   0  0  0  0  0  0
   21.0236   37.8760   83.7805 C   0  0  0  0  0  0
   19.5963   38.0679   84.2231 C   0  0  0  0  0  0
   17.7500   38.6210   85.2869 N   0  0  0  0  0  0
   23.7912   38.8536   85.3781 O   0  0  0  0  0  0
   23.5353   35.2075   82.5899 O   0  0  0  0  0  0
   17.4496   38.2179   84.0567 C   0  0  0  0  0  0
   19.1217   38.5629   85.4186 C   0  0  0  0  0  0
   21.9573   37.2043   86.8432 O   0  0  0  0  0  0
   20.7492   35.4246   86.0872 O   0  0  0  0  0  0
   26.5504   36.0690   82.6629 C   0  0  0  0  0  0
   26.7008   38.3054   84.3608 C   0  0  0  0  0  0
   27.8516   37.8239   83.7268 C   0  0  0  0  0  0
   27.7764   36.7062   82.8868 C   0  0  0  0  0  0
   21.5516   35.8274   83.9322 H   0  0  0  0  0  0
   20.9538   37.7035   82.7066 H   0  0  0  0  0  0
   21.5095   38.8422   83.9129 H   0  0  0  0  0  0
   17.0923   39.0542   85.9425 H   0  0  0  0  0  0
   16.4458   38.2210   83.6603 H   0  0  0  0  0  0
   19.6357   38.8907   86.3101 H   0  0  0  0  0  0
   20.4309   35.0213   85.2661 H   0  0  0  0  0  0
   26.5036   35.2164   82.0000 H   0  0  0  0  0  0
   26.7589   39.1699   85.0073 H   0  0  0  0  0  0
   28.8014   38.3135   83.8868 H   0  0  0  0  0  0
   28.6661   36.3382   82.3951 H   0  0  0  0  0  0
  1  2  1  0  0  0
  1  3  1  0  0  0
  1  4  1  0  0  0
  2  6  1  0  0  0
  2 13  2  0  0  0
  3  5  1  0  0  0
  3 12  2  0  0  0
  4  7  1  0  0  0
  4  9  1  0  0  0
  4 22  1  0  0  0
  5 19  1  0  0  0
  5  6  2  0  0  0
  6 18  1  0  0  0
  7 16  2  0  0  0
  7 17  1  0  0  0
  8 10  1  0  0  0
  8 14  2  0  0  0
  9 10  1  0  0  0
  9 23  1  0  0  0
  9 24  1  0  0  0
 10 15  2  0  0  0
 11 15  1  0  0  0
 11 14  1  0  0  0
 11 25  1  0  0  0
 14 26  1  0  0  0
 15 27  1  0  0  0
 17 28  1  0  0  0
 18 21  2  0  0  0
 18 29  1  0  0  0
 19 20  2  0  0  0
 19 30  1  0  0  0
 20 21  1  0  0  0
 20 31  1  0  0  0
 21 32  1  0  0  0
M  END
> <s_m_entry_id>
4611

> <s_m_entry_name>
dock_pv.99

> <s_m_Source_Path>
/home/csk/Desktop/cluster/DUD-E-result/lck

> <s_m_Source_File>
dock_pv.maegz

> <i_m_Source_File_Index>
99

> <chembl_id>
CHEMBL331687

> <chembl_pref_name>
None

> <i_lp_mmshare_version>
53161

> <i_f3d_flags>
0

> <r_lp_tautomer_probability>
0.499999999999999

> <s_lp_Force_Field>
OPLS_2005

> <r_lp_Energy>
32.98854

> <b_lp_Chiralities_Consistent>
1

> <s_lp_Variant>
CHEMBL258_lig34-2

> <s_i_glide_gridfile>
glide-grid_2of2

> <i_i_glide_lignum>
38

> <i_i_glide_rotatable_bonds>
5

> <r_i_docking_score>
-7.55544370683079

> <r_i_glide_ligand_efficiency>
-0.359783033658609

> <r_i_glide_ligand_efficiency_sa>
-0.992614108805133

> <r_i_glide_ligand_efficiency_ln>
-1.86806818930237

> <r_i_glide_gscore>
-7.55544370683079

> <r_i_glide_lipo>
-2.06608447670373

> <r_i_glide_hbond>
-0.152

> <r_i_glide_metal>
0

> <r_i_glide_rewards>
-2.99409494238001

> <r_i_glide_evdw>
-29.9304313659668

> <r_i_glide_ecoul>
-11.2193117141724

> <r_i_glide_erotb>
0.891753762152612

> <r_i_glide_esite>
-0.0555997244754677

> <r_i_glide_emodel>
-58.3624676864612

> <r_i_glide_energy>
-41.1497430801392

> <r_i_glide_einternal>
5.4272255897522

> <i_i_glide_confnum>
21

> <i_i_glide_posenum>
269

> <r_i_glide_eff_state_penalty>
0

> <s_user_duplicate_titles>
CHEMBL258_lig34

> <s_m_subgroup_title>
dock_pv

> <s_m_subgroupid>
dock_pv

> <b_m_subgroup_collapsed>
1

$$$$
CHEMBL258_lig48
                    3D
 Schrodinger Suite 2021-1.
 48 52  0  0  1  0            999 V2000
   27.4596   41.7405   88.0867 N   0  0  2  0  0  0
   26.5483   40.6001   88.0039 C   0  0  0  0  0  0
   27.0931   39.5741   86.9919 C   0  0  0  0  0  0
   27.2996   40.2104   85.5991 C   0  0  0  0  0  0
   28.0893   41.5304   85.7179 C   0  0  0  0  0  0
   27.5102   42.4526   86.8106 C   0  0  0  0  0  0
   28.0535   39.2950   84.7438 N   0  0  0  0  0  0
   27.4550   38.1984   84.1087 C   0  0  0  0  0  0
   26.1315   37.9566   84.3030 N   0  0  0  0  0  0
   27.6905   36.3781   82.5229 C   0  0  0  0  0  0
   28.2536   37.4205   83.2711 C   0  0  0  0  0  0
   26.3215   36.1146   82.6905 C   0  0  0  0  0  0
   25.6275   36.9217   83.6083 N   0  0  0  0  0  0
   24.3390   36.4295   83.6423 C   0  0  0  0  0  0
   24.3354   35.4211   82.6764 C   0  0  0  0  0  0
   25.5052   35.1936   82.1212 N   0  0  0  0  0  0
   23.2489   36.9287   84.4642 C   0  0  0  0  0  0
   22.0475   36.2832   84.7841 C   0  0  0  0  0  0
   21.2460   37.0121   85.5227 N   0  0  0  0  0  0
   21.9006   38.1703   85.7104 N   0  0  0  0  0  0
   23.1210   38.1580   85.0812 C   0  0  0  0  0  0
   21.3098   39.2429   86.4119 C   0  0  0  0  0  0
   22.1244   40.1736   87.0700 C   0  0  0  0  0  0
   21.5497   41.2664   87.7100 C   0  0  0  0  0  0
   20.1666   41.4216   87.6921 C   0  0  0  0  0  0
   19.3498   40.4971   87.0509 C   0  0  0  0  0  0
   19.9169   39.4020   86.4134 C   0  0  0  0  0  0
   28.3876   41.3685   88.2399 H   0  0  0  0  0  0
   25.5553   40.9443   87.7082 H   0  0  0  0  0  0
   26.4458   40.1469   88.9891 H   0  0  0  0  0  0
   26.3775   38.7553   86.9167 H   0  0  0  0  0  0
   28.0083   39.1192   87.3703 H   0  0  0  0  0  0
   26.3233   40.3975   85.1471 H   0  0  0  0  0  0
   29.1532   41.3646   85.9003 H   0  0  0  0  0  0
   28.0439   42.0592   84.7644 H   0  0  0  0  0  0
   26.5108   42.8001   86.5380 H   0  0  0  0  0  0
   28.1370   43.3368   86.9303 H   0  0  0  0  0  0
   29.0564   39.2709   84.8590 H   0  0  0  0  0  0
   28.2871   35.7910   81.8379 H   0  0  0  0  0  0
   29.3047   37.6453   83.1568 H   0  0  0  0  0  0
   23.4704   34.8345   82.3981 H   0  0  0  0  0  0
   21.7515   35.2934   84.4697 H   0  0  0  0  0  0
   23.7708   39.0190   85.0994 H   0  0  0  0  0  0
   23.1997   40.0681   87.0815 H   0  0  0  0  0  0
   22.1712   42.0007   88.2000 H   0  0  0  0  0  0
   19.7228   42.2906   88.1572 H   0  0  0  0  0  0
   18.2779   40.6421   87.0274 H   0  0  0  0  0  0
   19.2710   38.7011   85.9034 H   0  0  0  0  0  0
  1  2  1  0  0  0
  1  6  1  0  0  0
  1 28  1  0  0  0
  2  3  1  0  0  0
  2 29  1  0  0  0
  2 30  1  0  0  0
  3  4  1  0  0  0
  3 31  1  0  0  0
  3 32  1  0  0  0
  4  5  1  0  0  0
  4  7  1  0  0  0
  4 33  1  0  0  0
  5  6  1  0  0  0
  5 34  1  0  0  0
  5 35  1  0  0  0
  6 36  1  0  0  0
  6 37  1  0  0  0
  7  8  1  0  0  0
  7 38  1  0  0  0
  8  9  2  0  0  0
  8 11  1  0  0  0
  9 13  1  0  0  0
 10 12  1  0  0  0
 10 11  2  0  0  0
 10 39  1  0  0  0
 11 40  1  0  0  0
 12 13  1  0  0  0
 12 16  2  0  0  0
 13 14  1  0  0  0
 14 15  2  0  0  0
 14 17  1  0  0  0
 15 16  1  0  0  0
 15 41  1  0  0  0
 17 18  1  0  0  0
 17 21  2  0  0  0
 18 19  2  0  0  0
 18 42  1  0  0  0
 19 20  1  0  0  0
 20 21  1  0  0  0
 20 22  1  0  0  0
 21 43  1  0  0  0
 22 23  2  0  0  0
 22 27  1  0  0  0
 23 24  1  0  0  0
 23 44  1  0  0  0
 24 25  2  0  0  0
 24 45  1  0  0  0
 25 26  1  0  0  0
 25 46  1  0  0  0
 26 27  2  0  0  0
 26 47  1  0  0  0
 27 48  1  0  0  0
M  END
> <s_m_entry_id>
4612

> <s_m_entry_name>
dock_pv.100

> <s_m_Source_Path>
/home/csk/Desktop/cluster/DUD-E-result/lck

> <s_m_Source_File>
dock_pv.maegz

> <i_m_Source_File_Index>
100

> <chembl_id>
CHEMBL2436454

> <chembl_pref_name>
None

> <i_lp_mmshare_version>
53161

> <i_f3d_flags>
0

> <r_lp_tautomer_probability>
0.99999999999948

> <s_lp_Force_Field>
OPLS_2005

> <r_lp_Energy>
24.913193

> <b_lp_Chiralities_Consistent>
1

> <s_lp_Variant>
CHEMBL258_lig48-1

> <s_i_glide_gridfile>
glide-grid_2of2

> <i_i_glide_lignum>
54

> <i_i_glide_rotatable_bonds>
4

> <r_i_docking_score>
-7.55385502749771

> <r_i_glide_ligand_efficiency>
-0.279772408425841

> <r_i_glide_ligand_efficiency_sa>
-0.83931722435544

> <r_i_glide_ligand_efficiency_ln>
-1.7584129153684

> <r_i_glide_gscore>
-7.55385502749771

> <r_i_glide_lipo>
-2.42404644354557

> <r_i_glide_hbond>
-0.314651012585441

> <r_i_glide_metal>
0

> <r_i_glide_rewards>
-2.72374930135742

> <r_i_glide_evdw>
-38.942569732666

> <r_i_glide_ecoul>
-4.9183201789856

> <r_i_glide_erotb>
0.593468243471853

> <r_i_glide_esite>
0

> <r_i_glide_emodel>
-63.9414356087701

> <r_i_glide_energy>
-43.8608899116516

> <r_i_glide_einternal>
0.833495140075684

> <i_i_glide_confnum>
35

> <i_i_glide_posenum>
65

> <r_i_glide_eff_state_penalty>
0

> <s_user_duplicate_titles>
CHEMBL258_lig48

> <s_m_subgroup_title>
dock_pv

> <s_m_subgroupid>
dock_pv

> <b_m_subgroup_collapsed>
1

$$$$
CHEMBL258_lig626
                    3D
 Schrodinger Suite 2021-1.
 54 56  0  0  1  0            999 V2000
   27.2675   38.2927   84.1157 C   0  0  0  0  0  0
   27.8213   37.3974   83.1845 C   0  0  0  0  0  0
   27.0026   36.4298   82.5774 C   0  0  0  0  0  0
   25.9554   38.0952   84.5484 C   0  0  0  0  0  0
   25.1053   37.1594   83.9331 C   0  0  0  0  0  0
   25.6395   36.3183   82.9166 C   0  0  0  0  0  0
   24.8618   35.4211   82.2521 N   0  0  0  0  0  0
   23.5464   35.4195   82.5740 C   0  0  0  0  0  0
   22.9310   36.1480   83.5338 N   0  0  0  0  0  0
   23.7144   37.0159   84.2171 C   0  0  0  0  0  0
   23.0882   37.8337   85.1761 N   0  0  0  0  0  0
   21.7259   37.9387   85.4971 C   0  0  0  0  0  0
   21.0785   39.1495   85.2404 C   0  0  0  0  0  0
   19.7382   39.3175   85.5878 C   0  0  0  0  0  0
   19.0415   38.2806   86.2036 C   0  0  0  0  0  0
   19.6878   37.0761   86.4863 C   0  0  0  0  0  0
   21.0325   36.9014   86.1398 C   0  0  0  0  0  0
   29.1694   37.5071   82.8932 O   0  0  0  0  0  0
   28.1064   39.4432   84.6971 C   0  0  0  0  0  0
   29.8368   36.4127   82.2666 C   0  0  0  0  0  0
   18.8136   35.8209   87.2869 Cl  0  0  0  0  0  0
   21.6635   35.7418   86.4461 F   0  0  0  0  0  0
   27.6578   40.8217   84.3714 N   0  0  1  0  0  0
   26.3624   41.2827   85.0071 C   0  0  1  0  0  0
   26.2990   41.3273   86.5559 C   0  0  0  0  0  0
   25.8805   42.6420   84.4454 C   0  0  0  0  0  0
   24.8937   42.6210   83.5498 N   0  0  0  0  0  0
   26.3718   43.6966   84.8441 O   0  0  0  0  0  0
   28.7930   41.7192   84.6363 C   0  0  0  0  0  0
   26.2711   39.9804   86.9951 O   0  0  0  0  0  0
   27.1010   39.6915   88.0888 C   0  0  0  0  0  0
   27.3870   35.7636   81.8218 H   0  0  0  0  0  0
   25.5351   38.6802   85.3381 H   0  0  0  0  0  0
   22.9438   34.6943   82.0576 H   0  0  0  0  0  0
   23.6799   38.5382   85.5872 H   0  0  0  0  0  0
   21.6083   39.9650   84.7668 H   0  0  0  0  0  0
   19.2415   40.2556   85.3847 H   0  0  0  0  0  0
   18.0011   38.4204   86.4696 H   0  0  0  0  0  0
   29.1227   39.3189   84.3250 H   0  0  0  0  0  0
   28.2096   39.3071   85.7704 H   0  0  0  0  0  0
   30.9077   36.6137   82.2364 H   0  0  0  0  0  0
   29.6916   35.4841   82.8215 H   0  0  0  0  0  0
   29.5049   36.2607   81.2372 H   0  0  0  0  0  0
   25.5639   40.6170   84.7017 H   0  0  0  0  0  0
   25.3819   41.8009   86.9169 H   0  0  0  0  0  0
   27.1269   41.9136   86.9625 H   0  0  0  0  0  0
   24.5496   43.5168   83.2112 H   0  0  0  0  0  0
   24.4868   41.7581   83.2295 H   0  0  0  0  0  0
   29.6840   41.3993   84.0929 H   0  0  0  0  0  0
   28.5999   42.7391   84.3024 H   0  0  0  0  0  0
   29.0446   41.7523   85.6976 H   0  0  0  0  0  0
   27.3500   38.6298   88.0874 H   0  0  0  0  0  0
   26.5499   39.9229   89.0029 H   0  0  0  0  0  0
   28.0481   40.2339   88.0783 H   0  0  0  0  0  0
  1  2  2  0  0  0
  1 19  1  0  0  0
  1  4  1  0  0  0
  2 18  1  0  0  0
  2  3  1  0  0  0
  3  6  2  0  0  0
  3 32  1  0  0  0
  4  5  2  0  0  0
  4 33  1  0  0  0
  5 10  1  0  0  0
  5  6  1  0  0  0
  6  7  1  0  0  0
  7  8  2  0  0  0
  8  9  1  0  0  0
  8 34  1  0  0  0
  9 10  2  0  0  0
 10 11  1  0  0  0
 11 12  1  0  0  0
 11 35  1  0  0  0
 12 17  2  0  0  0
 12 13  1  0  0  0
 13 14  2  0  0  0
 13 36  1  0  0  0
 14 15  1  0  0  0
 14 37  1  0  0  0
 15 16  2  0  0  0
 15 38  1  0  0  0
 16 17  1  0  0  0
 16 21  1  0  0  0
 17 22  1  0  0  0
 18 20  1  0  0  0
 19 23  1  0  0  0
 19 39  1  0  0  0
 19 40  1  0  0  0
 20 41  1  0  0  0
 20 42  1  0  0  0
 20 43  1  0  0  0
 23 24  1  0  0  0
 23 29  1  0  0  0
 24 25  1  0  0  0
 24 26  1  0  0  0
 24 44  1  0  0  0
 25 30  1  0  0  0
 25 45  1  0  0  0
 25 46  1  0  0  0
 26 27  1  0  0  0
 26 28  2  0  0  0
 27 47  1  0  0  0
 27 48  1  0  0  0
 29 49  1  0  0  0
 29 50  1  0  0  0
 29 51  1  0  0  0
 30 31  1  0  0  0
 31 52  1  0  0  0
 31 53  1  0  0  0
 31 54  1  0  0  0
M  END
> <s_m_entry_id>
4613

> <s_m_entry_name>
dock_pv.101

> <s_m_Source_Path>
/home/csk/Desktop/cluster/DUD-E-result/lck

> <s_m_Source_File>
dock_pv.maegz

> <i_m_Source_File_Index>
101

> <chembl_id>
CHEMBL379905

> <chembl_pref_name>
None

> <i_lp_mmshare_version>
53161

> <i_f3d_flags>
0

> <r_lp_tautomer_probability>
0.999978000241998

> <s_lp_Force_Field>
OPLS_2005

> <r_lp_Energy>
30.42843

> <b_lp_Chiralities_Consistent>
1

> <s_lp_Variant>
CHEMBL258_lig626-1

> <s_i_glide_gridfile>
glide-grid_2of2

> <i_i_glide_lignum>
705

> <i_i_glide_rotatable_bonds>
9

> <r_i_docking_score>
-7.55256910654947

> <r_i_glide_ligand_efficiency>
-0.243631261501596

> <r_i_glide_ligand_efficiency_sa>
-0.765338530322767

> <r_i_glide_ligand_efficiency_ln>
-1.70333579197291

> <r_i_glide_gscore>
-7.55256910654947

> <r_i_glide_lipo>
-3.02922617220659

> <r_i_glide_hbond>
-0.380787377217019

> <r_i_glide_metal>
0

> <r_i_glide_rewards>
-1.71249917271259

> <r_i_glide_evdw>
-42.8724479675293

> <r_i_glide_ecoul>
-5.72391796112061

> <r_i_glide_erotb>
0.599035248644036

> <r_i_glide_esite>
-0.0268815405127609

> <r_i_glide_emodel>
-68.4810807767151

> <r_i_glide_energy>
-48.5963659286499

> <r_i_glide_einternal>
7.67617797851562

> <i_i_glide_confnum>
42

> <i_i_glide_posenum>
346

> <r_i_glide_eff_state_penalty>
0

> <s_user_duplicate_titles>
CHEMBL258_lig626

> <s_m_subgroup_title>
dock_pv

> <s_m_subgroupid>
dock_pv

> <b_m_subgroup_collapsed>
1

$$$$
CHEMBL258_lig114
                    3D
 Schrodinger Suite 2021-1.
 37 39  0  0  1  0            999 V2000
   24.0714   36.8687   83.9014 C   0  0  0  0  0  0
   26.2322   37.8031   83.9741 C   0  0  0  0  0  0
   26.3157   36.6593   83.2091 C   0  0  0  0  0  0
   24.8481   38.0064   84.4174 C   0  0  0  0  0  0
   24.9905   36.0334   83.1143 C   0  0  0  0  0  0
   22.7427   36.6108   84.0515 C   0  0  0  0  0  0
   27.3652   38.5798   84.2139 C   0  0  0  0  0  0
   27.5383   36.2624   82.6648 C   0  0  0  0  0  0
   19.7328   38.7739   86.2447 C   0  0  0  0  0  0
   19.4731   38.2962   84.9547 C   0  0  0  0  0  0
   20.9761   38.5134   86.8358 C   0  0  0  0  0  0
   21.7132   37.3409   84.8353 C   0  0  0  0  0  0
   28.6990   37.0210   82.9104 C   0  0  0  0  0  0
   28.6101   38.1918   83.6866 C   0  0  0  0  0  0
   20.4551   37.5750   84.2712 C   0  0  0  0  0  0
   21.9475   37.7999   86.1344 C   0  0  0  0  0  0
   24.6732   35.0213   82.4872 O   0  0  0  0  0  0
   24.4071   38.9457   85.0760 O   0  0  0  0  0  0
   17.9549   38.5950   84.1771 Cl  0  0  0  0  0  0
   21.3501   39.0722   88.4284 Cl  0  0  0  0  0  0
   18.7825   39.4909   86.9317 O   0  0  0  0  0  0
   29.9504   36.6901   82.4207 O   0  0  0  0  0  0
   29.7781   38.9075   83.8860 O   0  0  0  0  0  0
   30.1545   35.4208   81.8139 C   0  0  0  0  0  0
   29.7714   40.0482   84.7388 C   0  0  0  0  0  0
   22.3502   35.7312   83.5559 H   0  0  0  0  0  0
   27.2737   39.4750   84.8106 H   0  0  0  0  0  0
   27.5893   35.3540   82.0870 H   0  0  0  0  0  0
   20.2345   37.2051   83.2869 H   0  0  0  0  0  0
   22.8997   37.6176   86.6028 H   0  0  0  0  0  0
   17.9216   39.5558   86.4948 H   0  0  0  0  0  0
   31.2104   35.2959   81.5741 H   0  0  0  0  0  0
   29.8738   34.6204   82.4960 H   0  0  0  0  0  0
   29.5931   35.3194   80.8865 H   0  0  0  0  0  0
   30.7815   40.4524   84.8069 H   0  0  0  0  0  0
   29.1288   40.8377   84.3461 H   0  0  0  0  0  0
   29.4510   39.7917   85.7495 H   0  0  0  0  0  0
  1  4  1  0  0  0
  1  5  1  0  0  0
  1  6  2  0  0  0
  2  4  1  0  0  0
  2  7  2  0  0  0
  2  3  1  0  0  0
  3  5  1  0  0  0
  3  8  2  0  0  0
  4 18  2  0  0  0
  5 17  2  0  0  0
  6 12  1  0  0  0
  6 26  1  0  0  0
  7 14  1  0  0  0
  7 27  1  0  0  0
  8 13  1  0  0  0
  8 28  1  0  0  0
  9 11  1  0  0  0
  9 21  1  0  0  0
  9 10  2  0  0  0
 10 15  1  0  0  0
 10 19  1  0  0  0
 11 16  2  0  0  0
 11 20  1  0  0  0
 12 15  2  0  0  0
 12 16  1  0  0  0
 13 22  1  0  0  0
 13 14  2  0  0  0
 14 23  1  0  0  0
 15 29  1  0  0  0
 16 30  1  0  0  0
 21 31  1  0  0  0
 22 24  1  0  0  0
 23 25  1  0  0  0
 24 32  1  0  0  0
 24 33  1  0  0  0
 24 34  1  0  0  0
 25 35  1  0  0  0
 25 36  1  0  0  0
 25 37  1  0  0  0
M  END
> <s_m_entry_id>
4614

> <s_m_entry_name>
dock_pv.102

> <s_m_Source_Path>
/home/csk/Desktop/cluster/DUD-E-result/lck

> <s_m_Source_File>
dock_pv.maegz

> <i_m_Source_File_Index>
102

> <chembl_id>
CHEMBL421341

> <chembl_pref_name>
None

> <i_lp_mmshare_version>
53161

> <i_f3d_flags>
0

> <r_lp_tautomer_probability>
1

> <s_lp_Force_Field>
OPLS_2005

> <r_lp_Energy>
37.309383

> <b_lp_Chiralities_Consistent>
1

> <s_lp_Variant>
CHEMBL258_lig114-1

> <s_i_glide_gridfile>
glide-grid_2of2

> <i_i_glide_lignum>
135

> <i_i_glide_rotatable_bonds>
4

> <r_i_docking_score>
-7.55023004177583

> <r_i_glide_ligand_efficiency>
-0.302009201671033

> <r_i_glide_ligand_efficiency_sa>
-0.883080261842099

> <r_i_glide_ligand_efficiency_ln>
-1.78963078203699

> <r_i_glide_gscore>
-7.55023004177583

> <r_i_glide_lipo>
-3.03999554765152

> <r_i_glide_hbond>
-0.185000078830295

> <r_i_glide_metal>
0

> <r_i_glide_rewards>
-1.58445966433758

> <r_i_glide_evdw>
-37.8479957580566

> <r_i_glide_ecoul>
-6.55472946166992

> <r_i_glide_erotb>
0.134834456196893

> <r_i_glide_esite>
0

> <r_i_glide_emodel>
-64.8877191831707

> <r_i_glide_energy>
-44.4027252197266

> <r_i_glide_einternal>
1.60653531551361

> <i_i_glide_confnum>
4

> <i_i_glide_posenum>
4

> <r_i_glide_eff_state_penalty>
0

> <s_user_duplicate_titles>
CHEMBL258_lig114,132279

> <s_m_subgroup_title>
dock_pv

> <s_m_subgroupid>
dock_pv

> <b_m_subgroup_collapsed>
1

$$$$
CHEMBL258_lig634
                    3D
 Schrodinger Suite 2021-1.
 50 52  0  0  1  0            999 V2000
   27.3227   38.2667   84.2830 C   0  0  0  0  0  0
   27.8470   37.4213   83.2881 C   0  0  0  0  0  0
   27.0171   36.4665   82.6790 C   0  0  0  0  0  0
   26.0100   38.0914   84.7225 C   0  0  0  0  0  0
   25.1412   37.1748   84.0808 C   0  0  0  0  0  0
   25.6631   36.3350   83.0520 C   0  0  0  0  0  0
   24.8856   35.4217   82.4015 N   0  0  0  0  0  0
   23.5713   35.4210   82.7277 C   0  0  0  0  0  0
   22.9629   36.1749   83.6730 N   0  0  0  0  0  0
   23.7477   37.0437   84.3521 C   0  0  0  0  0  0
   23.1147   37.8812   85.2868 N   0  0  0  0  0  0
   21.7451   37.9794   85.5766 C   0  0  0  0  0  0
   21.0867   39.1791   85.2973 C   0  0  0  0  0  0
   19.7325   39.3253   85.5948 C   0  0  0  0  0  0
   19.0302   38.2776   86.1875 C   0  0  0  0  0  0
   19.6876   37.0860   86.4951 C   0  0  0  0  0  0
   21.0457   36.9323   86.1969 C   0  0  0  0  0  0
   29.1843   37.5561   82.9549 O   0  0  0  0  0  0
   28.1922   39.3495   84.9403 C   0  0  0  0  0  0
   29.8466   36.4812   82.2915 C   0  0  0  0  0  0
   18.8170   35.8218   87.2870 Cl  0  0  0  0  0  0
   21.6848   35.7841   86.5320 F   0  0  0  0  0  0
   27.8628   40.7413   84.5506 N   0  0  1  0  0  0
   26.6149   41.2948   85.1896 C   0  0  1  0  0  0
   26.6205   41.4049   86.7364 C   0  0  0  0  0  0
   26.1757   42.6407   84.5390 C   0  0  0  0  0  0
   25.1485   42.6210   83.6871 N   0  0  0  0  0  0
   26.7403   43.6898   84.8389 O   0  0  0  0  0  0
   29.0560   41.5626   84.7991 C   0  0  0  0  0  0
   27.3889   35.8187   81.9000 H   0  0  0  0  0  0
   25.6291   38.6747   85.5460 H   0  0  0  0  0  0
   22.9513   34.7139   82.1981 H   0  0  0  0  0  0
   23.6871   38.6203   85.6605 H   0  0  0  0  0  0
   21.6186   40.0007   84.8388 H   0  0  0  0  0  0
   19.2267   40.2523   85.3719 H   0  0  0  0  0  0
   17.9815   38.3994   86.4238 H   0  0  0  0  0  0
   29.2313   39.1335   84.6877 H   0  0  0  0  0  0
   28.1500   39.2372   86.0247 H   0  0  0  0  0  0
   30.9152   36.6919   82.2450 H   0  0  0  0  0  0
   29.7181   35.5376   82.8233 H   0  0  0  0  0  0
   29.4965   36.3544   81.2663 H   0  0  0  0  0  0
   25.7829   40.6391   84.9581 H   0  0  0  0  0  0
   25.6979   41.8530   87.1078 H   0  0  0  0  0  0
   26.7053   40.4277   87.2111 H   0  0  0  0  0  0
   27.4436   42.0216   87.0991 H   0  0  0  0  0  0
   24.8293   43.5051   83.3005 H   0  0  0  0  0  0
   24.6787   41.7625   83.4554 H   0  0  0  0  0  0
   29.9143   41.1799   84.2461 H   0  0  0  0  0  0
   28.9271   42.5919   84.4667 H   0  0  0  0  0  0
   29.3235   41.5784   85.8554 H   0  0  0  0  0  0
  1  2  1  0  0  0
  1 19  1  0  0  0
  1  4  2  0  0  0
  2 18  1  0  0  0
  2  3  2  0  0  0
  3  6  1  0  0  0
  3 30  1  0  0  0
  4  5  1  0  0  0
  4 31  1  0  0  0
  5 10  2  0  0  0
  5  6  1  0  0  0
  6  7  2  0  0  0
  7  8  1  0  0  0
  8  9  2  0  0  0
  8 32  1  0  0  0
  9 10  1  0  0  0
 10 11  1  0  0  0
 11 12  1  0  0  0
 11 33  1  0  0  0
 12 17  2  0  0  0
 12 13  1  0  0  0
 13 14  2  0  0  0
 13 34  1  0  0  0
 14 15  1  0  0  0
 14 35  1  0  0  0
 15 16  2  0  0  0
 15 36  1  0  0  0
 16 17  1  0  0  0
 16 21  1  0  0  0
 17 22  1  0  0  0
 18 20  1  0  0  0
 19 23  1  0  0  0
 19 37  1  0  0  0
 19 38  1  0  0  0
 20 39  1  0  0  0
 20 40  1  0  0  0
 20 41  1  0  0  0
 23 24  1  0  0  0
 23 29  1  0  0  0
 24 25  1  0  0  0
 24 26  1  0  0  0
 24 42  1  0  0  0
 25 43  1  0  0  0
 25 44  1  0  0  0
 25 45  1  0  0  0
 26 27  1  0  0  0
 26 28  2  0  0  0
 27 46  1  0  0  0
 27 47  1  0  0  0
 29 48  1  0  0  0
 29 49  1  0  0  0
 29 50  1  0  0  0
M  END
> <s_m_entry_id>
4615

> <s_m_entry_name>
dock_pv.103

> <s_m_Source_Path>
/home/csk/Desktop/cluster/DUD-E-result/lck

> <s_m_Source_File>
dock_pv.maegz

> <i_m_Source_File_Index>
103

> <chembl_id>
CHEMBL207687

> <chembl_pref_name>
None

> <i_lp_mmshare_version>
53161

> <i_f3d_flags>
0

> <r_lp_tautomer_probability>
0.999978000241998

> <s_lp_Force_Field>
OPLS_2005

> <r_lp_Energy>
31.074568

> <b_lp_Chiralities_Consistent>
1

> <s_lp_Variant>
CHEMBL258_lig634-1

> <s_i_glide_gridfile>
glide-grid_2of2

> <i_i_glide_lignum>
714

> <i_i_glide_rotatable_bonds>
7

> <r_i_docking_score>
-7.54824075238297

> <r_i_glide_ligand_efficiency>
-0.260284163875275

> <r_i_glide_ligand_efficiency_sa>
-0.799675415235998

> <r_i_glide_ligand_efficiency_ln>
-1.72835572542526

> <r_i_glide_gscore>
-7.54824075238297

> <r_i_glide_lipo>
-3.0231928206432

> <r_i_glide_hbond>
-0.32

> <r_i_glide_metal>
0

> <r_i_glide_rewards>
-1.93247390885161

> <r_i_glide_evdw>
-41.396167755127

> <r_i_glide_ecoul>
-5.02510929107666

> <r_i_glide_erotb>
0.566089554587947

> <r_i_glide_esite>
-0.0150887960582625

> <r_i_glide_emodel>
-64.7574146695196

> <r_i_glide_energy>
-46.4212770462036

> <r_i_glide_einternal>
6.54875135421753

> <i_i_glide_confnum>
51

> <i_i_glide_posenum>
359

> <r_i_glide_eff_state_penalty>
0

> <s_user_duplicate_titles>
CHEMBL258_lig634

> <s_m_subgroup_title>
dock_pv

> <s_m_subgroupid>
dock_pv

> <b_m_subgroup_collapsed>
1

$$$$
CHEMBL258_lig798
                    3D
 Schrodinger Suite 2021-1.
 41 43  0  0  1  0            999 V2000
   20.2504   36.6215   85.5727 C   0  0  0  0  0  0
   19.7832   35.8499   86.6555 C   0  0  0  0  0  0
   18.5844   36.2079   87.2870 C   0  0  0  0  0  0
   17.8385   37.2941   86.8402 C   0  0  0  0  0  0
   18.2773   38.0276   85.7434 C   0  0  0  0  0  0
   19.4665   37.6953   85.0982 C   0  0  0  0  0  0
   20.5605   34.6369   87.1734 C   0  0  0  0  0  0
   21.4586   36.2642   84.9405 N   0  0  0  0  0  0
   22.5474   37.0591   84.8939 C   0  0  0  0  0  0
   22.6319   38.1352   85.4906 O   0  0  0  0  0  0
   23.6378   36.5687   84.0872 C   0  0  0  0  0  0
   23.6783   35.6704   83.0119 C   0  0  0  0  0  0
   24.8605   35.4682   82.4488 N   0  0  0  0  0  0
   25.7962   36.2332   82.9602 C   0  0  0  0  0  0
   25.2387   37.2109   84.2961 S   0  0  0  0  0  0
   27.1003   36.2364   82.4878 N   0  0  0  0  0  0
   19.8931   38.6135   83.6938 Cl  0  0  0  0  0  0
   28.2304   36.9865   82.8956 C   0  0  0  0  0  0
   28.0770   38.0875   83.6874 N   0  0  0  0  0  0
   29.1747   38.7938   84.0565 C   0  0  0  0  0  0
   30.4462   38.4146   83.6308 C   0  0  0  0  0  0
   30.6282   37.3292   82.8369 N   0  0  0  0  0  0
   29.5248   36.6131   82.4821 C   0  0  0  0  0  0
   29.8029   35.4258   81.5706 C   0  0  0  0  0  0
   31.6918   39.1830   84.0280 C   0  0  0  0  0  0
   18.2193   35.6299   88.1236 H   0  0  0  0  0  0
   16.9137   37.5631   87.3305 H   0  0  0  0  0  0
   17.6850   38.8579   85.3876 H   0  0  0  0  0  0
   21.6024   34.8979   87.3628 H   0  0  0  0  0  0
   20.1500   34.2213   88.0870 H   0  0  0  0  0  0
   20.5496   33.8229   86.4591 H   0  0  0  0  0  0
   21.4829   35.3545   84.5062 H   0  0  0  0  0  0
   22.8278   35.1300   82.6180 H   0  0  0  0  0  0
   27.3486   35.5543   81.7844 H   0  0  0  0  0  0
   29.0189   39.6541   84.6917 H   0  0  0  0  0  0
   29.7531   35.7382   80.5276 H   0  0  0  0  0  0
   30.7951   35.0074   81.7476 H   0  0  0  0  0  0
   29.0840   34.6212   81.7169 H   0  0  0  0  0  0
   31.4531   40.0293   84.6739 H   0  0  0  0  0  0
   32.3833   38.5343   84.5676 H   0  0  0  0  0  0
   32.2007   39.5682   83.1436 H   0  0  0  0  0  0
  1  6  2  0  0  0
  1  2  1  0  0  0
  1  8  1  0  0  0
  2  7  1  0  0  0
  2  3  2  0  0  0
  3  4  1  0  0  0
  3 26  1  0  0  0
  4  5  2  0  0  0
  4 27  1  0  0  0
  5  6  1  0  0  0
  5 28  1  0  0  0
  6 17  1  0  0  0
  7 29  1  0  0  0
  7 30  1  0  0  0
  7 31  1  0  0  0
  8  9  1  0  0  0
  8 32  1  0  0  0
  9 10  2  0  0  0
  9 11  1  0  0  0
 11 15  1  0  0  0
 11 12  2  0  0  0
 12 13  1  0  0  0
 12 33  1  0  0  0
 13 14  2  0  0  0
 14 15  1  0  0  0
 14 16  1  0  0  0
 16 18  1  0  0  0
 16 34  1  0  0  0
 18 19  2  0  0  0
 18 23  1  0  0  0
 19 20  1  0  0  0
 20 21  2  0  0  0
 20 35  1  0  0  0
 21 22  1  0  0  0
 21 25  1  0  0  0
 22 23  2  0  0  0
 23 24  1  0  0  0
 24 36  1  0  0  0
 24 37  1  0  0  0
 24 38  1  0  0  0
 25 39  1  0  0  0
 25 40  1  0  0  0
 25 41  1  0  0  0
M  END
> <s_m_entry_id>
4616

> <s_m_entry_name>
dock_pv.104

> <s_m_Source_Path>
/home/csk/Desktop/cluster/DUD-E-result/lck

> <s_m_Source_File>
dock_pv.maegz

> <i_m_Source_File_Index>
104

> <chembl_id>
CHEMBL384545

> <chembl_pref_name>
None

> <i_lp_mmshare_version>
53161

> <i_f3d_flags>
0

> <r_lp_tautomer_probability>
0.999999901280008

> <s_lp_Force_Field>
OPLS_2005

> <r_lp_Energy>
23.181158

> <b_lp_Chiralities_Consistent>
1

> <s_lp_Variant>
CHEMBL258_lig798-1

> <s_i_glide_gridfile>
glide-grid_2of2

> <i_i_glide_lignum>
883

> <i_i_glide_rotatable_bonds>
5

> <r_i_docking_score>
-7.54679048455067

> <r_i_glide_ligand_efficiency>
-0.301871619382027

> <r_i_glide_ligand_efficiency_sa>
-0.882677968789013

> <r_i_glide_ligand_efficiency_ln>
-1.78881550389942

> <r_i_glide_gscore>
-7.54679048455067

> <r_i_glide_lipo>
-2.91860958395642

> <r_i_glide_hbond>
-0.264355573739202

> <r_i_glide_metal>
0

> <r_i_glide_rewards>
-2.10440735518724

> <r_i_glide_evdw>
-40.3058586120605

> <r_i_glide_ecoul>
-6.23732757568359

> <r_i_glide_erotb>
0.691474095287753

> <r_i_glide_esite>
0

> <r_i_glide_emodel>
-64.8823610210047

> <r_i_glide_energy>
-46.5431861877441

> <r_i_glide_einternal>
6.03493738174438

> <i_i_glide_confnum>
16

> <i_i_glide_posenum>
79

> <r_i_glide_eff_state_penalty>
0

> <s_user_duplicate_titles>
CHEMBL258_lig798,361468

> <s_m_subgroup_title>
dock_pv

> <s_m_subgroupid>
dock_pv

> <b_m_subgroup_collapsed>
1

$$$$
CHEMBL258_lig772
                    3D
 Schrodinger Suite 2021-1.
 36 38  0  0  1  0            999 V2000
   23.5951   36.5622   83.8946 C   0  0  0  0  0  0
   25.7755   36.0725   82.8892 C   0  0  0  0  0  0
   25.2194   37.1634   84.1265 S   0  0  0  0  0  0
   22.5040   37.0221   84.7208 C   0  0  0  0  0  0
   21.2752   36.6546   84.2988 N   0  0  0  0  0  0
   24.8250   35.3414   82.3628 N   0  0  0  0  0  0
   27.0904   35.9398   82.4869 N   0  0  0  0  0  0
   23.6398   35.5911   82.8870 C   0  0  0  0  0  0
   20.0899   36.8288   85.0434 C   0  0  0  0  0  0
   28.2727   36.6210   82.8226 C   0  0  0  0  0  0
   28.2671   37.6765   83.6844 N   0  0  0  0  0  0
   22.7095   37.6807   85.7420 O   0  0  0  0  0  0
   19.0387   37.5829   84.4902 C   0  0  0  0  0  0
   19.9205   36.2390   86.3184 C   0  0  0  0  0  0
   19.1140   38.2208   82.8870 Cl  0  0  0  0  0  0
   17.7453   37.2965   86.5127 C   0  0  0  0  0  0
   29.4308   38.3376   83.9096 C   0  0  0  0  0  0
   17.8822   37.8220   85.2326 C   0  0  0  0  0  0
   18.7480   36.4888   87.0395 C   0  0  0  0  0  0
   29.4484   36.2008   82.1862 C   0  0  0  0  0  0
   20.9289   35.2436   86.8870 C   0  0  0  0  0  0
   30.6330   37.9777   83.3012 C   0  0  0  0  0  0
   30.6396   36.8866   82.4320 C   0  0  0  0  0  0
   21.1828   36.2055   83.4023 H   0  0  0  0  0  0
   27.2920   35.2472   81.7800 H   0  0  0  0  0  0
   22.7956   35.0211   82.5258 H   0  0  0  0  0  0
   16.8431   37.4894   87.0765 H   0  0  0  0  0  0
   29.3877   39.1685   84.5994 H   0  0  0  0  0  0
   17.0811   38.4192   84.8210 H   0  0  0  0  0  0
   18.5951   36.0370   88.0091 H   0  0  0  0  0  0
   29.4455   35.3637   81.5014 H   0  0  0  0  0  0
   21.3496   34.6225   86.0964 H   0  0  0  0  0  0
   21.7495   35.7523   87.3933 H   0  0  0  0  0  0
   20.4549   34.5505   87.5845 H   0  0  0  0  0  0
   31.5417   38.5234   83.5077 H   0  0  0  0  0  0
   31.5552   36.5763   81.9468 H   0  0  0  0  0  0
  1  3  1  0  0  0
  1  4  1  0  0  0
  1  8  2  0  0  0
  2  3  1  0  0  0
  2  7  1  0  0  0
  2  6  2  0  0  0
  4  5  1  0  0  0
  4 12  2  0  0  0
  5  9  1  0  0  0
  5 24  1  0  0  0
  6  8  1  0  0  0
  7 10  1  0  0  0
  7 25  1  0  0  0
  8 26  1  0  0  0
  9 13  1  0  0  0
  9 14  2  0  0  0
 10 11  2  0  0  0
 10 20  1  0  0  0
 11 17  1  0  0  0
 13 15  1  0  0  0
 13 18  2  0  0  0
 14 19  1  0  0  0
 14 21  1  0  0  0
 16 19  2  0  0  0
 16 18  1  0  0  0
 16 27  1  0  0  0
 17 22  2  0  0  0
 17 28  1  0  0  0
 18 29  1  0  0  0
 19 30  1  0  0  0
 20 23  2  0  0  0
 20 31  1  0  0  0
 21 32  1  0  0  0
 21 33  1  0  0  0
 21 34  1  0  0  0
 22 23  1  0  0  0
 22 35  1  0  0  0
 23 36  1  0  0  0
M  END
> <s_m_entry_id>
4617

> <s_m_entry_name>
dock_pv.105

> <s_m_Source_Path>
/home/csk/Desktop/cluster/DUD-E-result/lck

> <s_m_Source_File>
dock_pv.maegz

> <i_m_Source_File_Index>
105

> <chembl_id>
CHEMBL189776

> <chembl_pref_name>
None

> <i_lp_mmshare_version>
53161

> <i_f3d_flags>
0

> <r_lp_tautomer_probability>
0.999999772200052

> <s_lp_Force_Field>
OPLS_2005

> <r_lp_Energy>
19.206308

> <b_lp_Chiralities_Consistent>
1

> <s_lp_Variant>
CHEMBL258_lig772-1

> <s_i_glide_gridfile>
glide-grid_2of2

> <i_i_glide_lignum>
857

> <i_i_glide_rotatable_bonds>
5

> <r_i_docking_score>
-7.54028099724486

> <r_i_glide_ligand_efficiency>
-0.327838304228037

> <r_i_glide_ligand_efficiency_sa>
-0.932328527150211

> <r_i_glide_ligand_efficiency_ln>
-1.82330831662177

> <r_i_glide_gscore>
-7.54028099724486

> <r_i_glide_lipo>
-2.91270897796093

> <r_i_glide_hbond>
-0.170884483304003

> <r_i_glide_metal>
0

> <r_i_glide_rewards>
-2.27659762409093

> <r_i_glide_evdw>
-40.5906944274902

> <r_i_glide_ecoul>
-4.73077201843262

> <r_i_glide_erotb>
0.559060612250399

> <r_i_glide_esite>
0

> <r_i_glide_emodel>
-64.3729761777945

> <r_i_glide_energy>
-45.3214664459229

> <r_i_glide_einternal>
1.64312899112701

> <i_i_glide_confnum>
9

> <i_i_glide_posenum>
388

> <r_i_glide_eff_state_penalty>
0

> <s_user_duplicate_titles>
CHEMBL258_lig772,312828

> <s_m_subgroup_title>
dock_pv

> <s_m_subgroupid>
dock_pv

> <b_m_subgroup_collapsed>
1

$$$$
CHEMBL258_lig539
                    3D
 Schrodinger Suite 2021-1.
 54 57  0  0  1  0            999 V2000
   25.6546   37.0747   83.6986 C   0  0  0  0  0  0
   22.0763   37.0381   84.4831 C   0  0  0  0  0  0
   24.2616   37.1319   84.0866 C   0  0  0  0  0  0
   26.2594   36.0924   82.8431 C   0  0  0  0  0  0
   23.0762   36.4984   83.6862 N   0  0  0  0  0  0
   22.4895   37.9577   85.3110 N   0  0  0  0  0  0
   26.5321   38.0835   84.2289 C   0  0  0  0  0  0
   27.5564   36.1348   82.4878 N   0  0  0  0  0  0
   20.7791   36.6215   84.3470 N   0  0  0  0  0  0
   23.8176   38.0888   85.0336 C   0  0  0  0  0  0
   28.3802   37.0836   82.9822 C   0  0  0  0  0  0
   27.9088   38.1076   83.8203 C   0  0  0  0  0  0
   19.7268   36.8781   85.2298 C   0  0  0  0  0  0
   26.0166   39.0236   85.1661 C   0  0  0  0  0  0
   25.5197   35.0202   82.4541 O   0  0  0  0  0  0
   24.6941   39.0237   85.5772 C   0  0  0  0  0  0
   29.8169   36.9351   82.6405 C   0  0  0  0  0  0
   18.6608   37.6914   84.8225 C   0  0  0  0  0  0
   19.6625   36.1996   86.4578 C   0  0  0  0  0  0
   30.3642   36.0337   81.8013 C   0  0  0  0  0  0
   22.8134   35.5444   82.5914 C   0  0  0  0  0  0
   20.8821   35.0461   86.8986 Cl  0  0  0  0  0  0
   18.6399   38.4908   83.2877 Cl  0  0  0  0  0  0
   28.8216   39.2357   84.3236 C   0  0  0  0  0  0
   32.3721   34.6571   82.0868 N   0  0  2  0  0  0
   31.8503   35.9068   81.5624 C   0  0  0  0  0  0
   17.4922   37.1736   86.8796 C   0  0  0  0  0  0
   17.5483   37.8209   85.6441 C   0  0  0  0  0  0
   18.5500   36.3604   87.2865 C   0  0  0  0  0  0
   33.7424   34.4165   81.6648 C   0  0  0  0  0  0
   34.2022   33.0683   82.2262 C   0  0  0  0  0  0
   20.5502   35.8741   83.7027 H   0  0  0  0  0  0
   26.6673   39.7604   85.6079 H   0  0  0  0  0  0
   24.6537   35.0619   82.8622 H   0  0  0  0  0  0
   24.3477   39.7491   86.3003 H   0  0  0  0  0  0
   30.5120   37.5923   83.1334 H   0  0  0  0  0  0
   29.7379   35.3250   81.2741 H   0  0  0  0  0  0
   21.7626   35.5508   82.3037 H   0  0  0  0  0  0
   23.3567   35.8209   81.6909 H   0  0  0  0  0  0
   23.0574   34.5348   82.8861 H   0  0  0  0  0  0
   28.3066   40.1957   84.2969 H   0  0  0  0  0  0
   29.1415   39.0406   85.3490 H   0  0  0  0  0  0
   29.7036   39.3950   83.7067 H   0  0  0  0  0  0
   31.7676   33.8832   81.8322 H   0  0  0  0  0  0
   32.3846   36.7543   81.9963 H   0  0  0  0  0  0
   32.0213   35.9369   80.4875 H   0  0  0  0  0  0
   16.6143   37.2838   87.5003 H   0  0  0  0  0  0
   16.7133   38.4111   85.2899 H   0  0  0  0  0  0
   18.4831   35.8143   88.2158 H   0  0  0  0  0  0
   34.3908   35.2121   82.0331 H   0  0  0  0  0  0
   33.8058   34.3998   80.5751 H   0  0  0  0  0  0
   35.2329   32.8629   81.9407 H   0  0  0  0  0  0
   33.5855   32.2496   81.8529 H   0  0  0  0  0  0
   34.1546   33.0526   83.3164 H   0  0  0  0  0  0
  1  3  2  0  0  0
  1  4  1  0  0  0
  1  7  1  0  0  0
  2  5  1  0  0  0
  2  9  1  0  0  0
  2  6  2  0  0  0
  3  5  1  0  0  0
  3 10  1  0  0  0
  4  8  2  0  0  0
  4 15  1  0  0  0
  5 21  1  0  0  0
  6 10  1  0  0  0
  7 12  1  0  0  0
  7 14  2  0  0  0
  8 11  1  0  0  0
  9 13  1  0  0  0
  9 32  1  0  0  0
 10 16  2  0  0  0
 11 12  2  0  0  0
 11 17  1  0  0  0
 12 24  1  0  0  0
 13 18  2  0  0  0
 13 19  1  0  0  0
 14 16  1  0  0  0
 14 33  1  0  0  0
 15 34  1  0  0  0
 16 35  1  0  0  0
 17 20  2  0  0  0
 17 36  1  0  0  0
 18 23  1  0  0  0
 18 28  1  0  0  0
 19 22  1  0  0  0
 19 29  2  0  0  0
 20 26  1  0  0  0
 20 37  1  0  0  0
 21 38  1  0  0  0
 21 39  1  0  0  0
 21 40  1  0  0  0
 24 41  1  0  0  0
 24 42  1  0  0  0
 24 43  1  0  0  0
 25 26  1  0  0  0
 25 30  1  0  0  0
 25 44  1  0  0  0
 26 45  1  0  0  0
 26 46  1  0  0  0
 27 29  1  0  0  0
 27 28  2  0  0  0
 27 47  1  0  0  0
 28 48  1  0  0  0
 29 49  1  0  0  0
 30 31  1  0  0  0
 30 50  1  0  0  0
 30 51  1  0  0  0
 31 52  1  0  0  0
 31 53  1  0  0  0
 31 54  1  0  0  0
M  END
> <s_m_entry_id>
4618

> <s_m_entry_name>
dock_pv.106

> <s_m_Source_Path>
/home/csk/Desktop/cluster/DUD-E-result/lck

> <s_m_Source_File>
dock_pv.maegz

> <i_m_Source_File_Index>
106

> <chembl_id>
CHEMBL27350

> <chembl_pref_name>
None

> <i_lp_mmshare_version>
53161

> <i_f3d_flags>
0

> <r_lp_tautomer_probability>
1

> <s_lp_Force_Field>
OPLS_2005

> <r_lp_Energy>
30.939773

> <b_lp_Chiralities_Consistent>
1

> <s_lp_Variant>
CHEMBL258_lig539-1

> <s_i_glide_gridfile>
glide-grid_2of2

> <i_i_glide_lignum>
611

> <i_i_glide_rotatable_bonds>
7

> <r_i_docking_score>
-7.52421701809456

> <r_i_glide_ligand_efficiency>
-0.24271667800305

> <r_i_glide_ligand_efficiency_sa>
-0.762465475418728

> <r_i_glide_ligand_efficiency_ln>
-1.69694152713917

> <r_i_glide_gscore>
-7.52421701809456

> <r_i_glide_lipo>
-3.63676823886038

> <r_i_glide_hbond>
-0.575722395240495

> <r_i_glide_metal>
0

> <r_i_glide_rewards>
-0.869104945158275

> <r_i_glide_evdw>
-46.1119155883789

> <r_i_glide_ecoul>
-4.12989807128906

> <r_i_glide_erotb>
0.482459051276893

> <r_i_glide_esite>
0

> <r_i_glide_emodel>
-69.0309463273199

> <r_i_glide_energy>
-50.241813659668

> <r_i_glide_einternal>
3.02166962623596

> <i_i_glide_confnum>
9

> <i_i_glide_posenum>
361

> <r_i_glide_eff_state_penalty>
0

> <s_user_duplicate_titles>
CHEMBL258_lig539

> <s_m_subgroup_title>
dock_pv

> <s_m_subgroupid>
dock_pv

> <b_m_subgroup_collapsed>
1

$$$$
CHEMBL258_lig619
                    3D
 Schrodinger Suite 2021-1.
 63 66  0  0  1  0            999 V2000
   27.4439   41.7187   85.9174 C   0  0  0  0  0  0
   26.1560   41.7336   86.7675 C   0  0  0  0  0  0
   26.9321   42.0089   87.9806 N   0  0  2  0  0  0
   28.1520   41.5784   87.2872 C   0  0  0  0  0  0
   26.8535   38.2296   84.5922 C   0  0  0  0  0  0
   27.5631   37.4401   83.6740 C   0  0  0  0  0  0
   26.8663   36.5138   82.8864 C   0  0  0  0  0  0
   25.4717   38.0710   84.7556 C   0  0  0  0  0  0
   24.7571   37.1056   84.0030 C   0  0  0  0  0  0
   25.4775   36.3316   83.0412 C   0  0  0  0  0  0
   24.8625   35.4211   82.2413 N   0  0  0  0  0  0
   23.5242   35.2957   82.3996 C   0  0  0  0  0  0
   22.7382   35.9323   83.2880 N   0  0  0  0  0  0
   23.3481   36.8406   84.0885 C   0  0  0  0  0  0
   22.5207   37.5203   84.9999 N   0  0  0  0  0  0
   21.1235   37.4436   85.1570 C   0  0  0  0  0  0
   20.6137   37.0526   86.3988 C   0  0  0  0  0  0
   19.2363   37.0233   86.6195 C   0  0  0  0  0  0
   18.3572   37.4228   85.6151 C   0  0  0  0  0  0
   18.8528   37.8165   84.3716 C   0  0  0  0  0  0
   20.2308   37.8259   84.1420 C   0  0  0  0  0  0
   28.9384   37.5975   83.6072 O   0  0  0  0  0  0
   27.5668   39.2609   85.4660 C   0  0  0  0  0  0
   29.7144   36.7699   82.7395 C   0  0  0  0  0  0
   17.7515   38.3009   83.1317 Cl  0  0  0  0  0  0
   20.6905   38.2202   82.9328 F   0  0  0  0  0  0
   27.5326   40.6226   84.8948 N   0  0  2  0  0  0
   27.6624   43.1349   85.2735 C   0  0  0  0  0  0
   28.8939   43.6589   85.2874 N   0  0  0  0  0  0
   26.7419   43.7350   84.7218 O   0  0  0  0  0  0
   28.6066   40.7399   83.8919 C   0  0  0  0  0  0
   26.5492   41.4467   89.2692 C   0  0  0  0  0  0
   25.2531   42.0846   89.8142 C   0  0  0  0  0  0
   24.7681   41.4213   90.9802 O   0  0  0  0  0  0
   25.5607   41.5609   92.1525 C   0  0  0  0  0  0
   25.6493   40.7691   86.7930 H   0  0  0  0  0  0
   25.4054   42.4918   86.5377 H   0  0  0  0  0  0
   29.0121   42.2187   87.4819 H   0  0  0  0  0  0
   28.4440   40.5562   87.5233 H   0  0  0  0  0  0
   27.3721   35.9059   82.1516 H   0  0  0  0  0  0
   24.9407   38.6856   85.4702 H   0  0  0  0  0  0
   23.0218   34.6255   81.7266 H   0  0  0  0  0  0
   22.9951   38.1218   85.6556 H   0  0  0  0  0  0
   21.2849   36.7599   87.1926 H   0  0  0  0  0  0
   18.8466   36.6995   87.5739 H   0  0  0  0  0  0
   17.2900   37.4227   85.7965 H   0  0  0  0  0  0
   28.5927   38.9633   85.6849 H   0  0  0  0  0  0
   27.0601   39.2269   86.4301 H   0  0  0  0  0  0
   30.7751   36.9391   82.9351 H   0  0  0  0  0  0
   29.5235   35.7042   82.8873 H   0  0  0  0  0  0
   29.5471   37.0156   81.6911 H   0  0  0  0  0  0
   29.0608   44.5249   84.7958 H   0  0  0  0  0  0
   29.6847   43.1248   85.6135 H   0  0  0  0  0  0
   28.5274   39.9592   83.1366 H   0  0  0  0  0  0
   28.5534   41.6744   83.3339 H   0  0  0  0  0  0
   29.5934   40.6766   84.3522 H   0  0  0  0  0  0
   27.3579   41.6555   89.9653 H   0  0  0  0  0  0
   26.4411   40.3658   89.1911 H   0  0  0  0  0  0
   24.4651   42.0181   89.0632 H   0  0  0  0  0  0
   25.3930   43.1484   90.0173 H   0  0  0  0  0  0
   25.0601   41.0726   92.9875 H   0  0  0  0  0  0
   25.7008   42.6105   92.4176 H   0  0  0  0  0  0
   26.5395   41.0926   92.0404 H   0  0  0  0  0  0
  1  4  1  0  0  0
  1  2  1  0  0  0
  1 27  1  0  0  0
  1 28  1  0  0  0
  2  3  1  0  0  0
  2 36  1  0  0  0
  2 37  1  0  0  0
  3 32  1  0  0  0
  3  4  1  0  0  0
  4 38  1  0  0  0
  4 39  1  0  0  0
  5  8  2  0  0  0
  5 23  1  0  0  0
  5  6  1  0  0  0
  6 22  1  0  0  0
  6  7  2  0  0  0
  7 10  1  0  0  0
  7 40  1  0  0  0
  8  9  1  0  0  0
  8 41  1  0  0  0
  9 10  1  0  0  0
  9 14  2  0  0  0
 10 11  2  0  0  0
 11 12  1  0  0  0
 12 13  2  0  0  0
 12 42  1  0  0  0
 13 14  1  0  0  0
 14 15  1  0  0  0
 15 16  1  0  0  0
 15 43  1  0  0  0
 16 17  2  0  0  0
 16 21  1  0  0  0
 17 18  1  0  0  0
 17 44  1  0  0  0
 18 19  2  0  0  0
 18 45  1  0  0  0
 19 20  1  0  0  0
 19 46  1  0  0  0
 20 21  2  0  0  0
 20 25  1  0  0  0
 21 26  1  0  0  0
 22 24  1  0  0  0
 23 27  1  0  0  0
 23 47  1  0  0  0
 23 48  1  0  0  0
 24 49  1  0  0  0
 24 50  1  0  0  0
 24 51  1  0  0  0
 27 31  1  0  0  0
 28 29  1  0  0  0
 28 30  2  0  0  0
 29 52  1  0  0  0
 29 53  1  0  0  0
 31 54  1  0  0  0
 31 55  1  0  0  0
 31 56  1  0  0  0
 32 33  1  0  0  0
 32 57  1  0  0  0
 32 58  1  0  0  0
 33 34  1  0  0  0
 33 59  1  0  0  0
 33 60  1  0  0  0
 34 35  1  0  0  0
 35 61  1  0  0  0
 35 62  1  0  0  0
 35 63  1  0  0  0
M  END
> <s_m_entry_id>
4619

> <s_m_entry_name>
dock_pv.107

> <s_m_Source_Path>
/home/csk/Desktop/cluster/DUD-E-result/lck

> <s_m_Source_File>
dock_pv.maegz

> <i_m_Source_File_Index>
107

> <chembl_id>
CHEMBL207815

> <chembl_pref_name>
None

> <i_lp_mmshare_version>
53161

> <i_f3d_flags>
0

> <r_lp_tautomer_probability>
0.999978000241998

> <s_lp_Force_Field>
OPLS_2005

> <r_lp_Energy>
51.690891

> <b_lp_Chiralities_Consistent>
1

> <s_lp_Variant>
CHEMBL258_lig619-1

> <s_i_glide_gridfile>
glide-grid_2of2

> <i_i_glide_lignum>
698

> <i_i_glide_rotatable_bonds>
10

> <r_i_docking_score>
-7.5207127052418

> <r_i_glide_ligand_efficiency>
-0.214877505864051

> <r_i_glide_ligand_efficiency_sa>
-0.702878569416257

> <r_i_glide_ligand_efficiency_ln>
-1.65096335202602

> <r_i_glide_gscore>
-7.5207127052418

> <r_i_glide_lipo>
-3.90674468338395

> <r_i_glide_hbond>
-0.0665857210167271

> <r_i_glide_metal>
0

> <r_i_glide_rewards>
-1.33375716801305

> <r_i_glide_evdw>
-45.169490814209

> <r_i_glide_ecoul>
-2.98064827919006

> <r_i_glide_erotb>
0.565494673034466

> <r_i_glide_esite>
-0.073548023273583

> <r_i_glide_emodel>
-65.9166331541376

> <r_i_glide_energy>
-48.150139093399

> <r_i_glide_einternal>
15.0341491699219

> <i_i_glide_confnum>
226

> <i_i_glide_posenum>
38

> <r_i_glide_eff_state_penalty>
0

> <s_user_duplicate_titles>
CHEMBL258_lig619

> <s_m_subgroup_title>
dock_pv

> <s_m_subgroupid>
dock_pv

> <b_m_subgroup_collapsed>
1

$$$$
CHEMBL258_lig1075
                    3D
 Schrodinger Suite 2021-1.
 30 32  0  0  1  0            999 V2000
   22.9726   39.1468   85.7363 C   0  0  0  0  0  0
   24.3237   39.3812   85.2010 C   0  0  0  0  0  0
   24.8654   38.2416   84.3896 C   0  0  0  0  0  0
   22.3266   37.9716   85.5362 C   0  0  0  0  0  0
   22.8395   36.9452   84.8079 O   0  0  0  0  0  0
   24.0855   37.0842   84.2389 C   0  0  0  0  0  0
   26.1173   38.2801   83.7469 C   0  0  0  0  0  0
   24.5205   36.0120   83.4718 C   0  0  0  0  0  0
   26.5506   37.1997   82.9806 C   0  0  0  0  0  0
   24.9663   40.4207   85.3737 O   0  0  0  0  0  0
   25.7535   36.0719   82.8462 C   0  0  0  0  0  0
   20.9416   37.6496   85.9541 C   0  0  0  0  0  0
   22.4591   40.2004   86.4412 O   0  0  0  0  0  0
   26.9412   39.3694   83.8365 O   0  0  0  0  0  0
   26.1661   35.0211   82.0870 O   0  0  0  0  0  0
   20.6481   36.3887   86.4865 C   0  0  0  0  0  0
   19.9123   38.5925   85.8234 C   0  0  0  0  0  0
   18.6137   38.2776   86.2126 C   0  0  0  0  0  0
   19.3508   36.0785   86.8869 C   0  0  0  0  0  0
   18.3387   37.0230   86.7479 C   0  0  0  0  0  0
   23.8906   35.1479   83.3416 H   0  0  0  0  0  0
   27.5114   37.2473   82.4901 H   0  0  0  0  0  0
   23.0821   40.9360   86.4312 H   0  0  0  0  0  0
   26.5359   40.0482   84.3907 H   0  0  0  0  0  0
   26.9503   35.2360   81.5679 H   0  0  0  0  0  0
   21.4231   35.6431   86.5936 H   0  0  0  0  0  0
   20.1147   39.5699   85.4097 H   0  0  0  0  0  0
   17.8225   39.0052   86.1014 H   0  0  0  0  0  0
   19.1317   35.1022   87.2966 H   0  0  0  0  0  0
   17.3295   36.7830   87.0520 H   0  0  0  0  0  0
  1  2  1  0  0  0
  1  4  2  0  0  0
  1 13  1  0  0  0
  2  3  1  0  0  0
  2 10  2  0  0  0
  3  7  1  0  0  0
  3  6  2  0  0  0
  4  5  1  0  0  0
  4 12  1  0  0  0
  5  6  1  0  0  0
  6  8  1  0  0  0
  7  9  2  0  0  0
  7 14  1  0  0  0
  8 11  2  0  0  0
  8 21  1  0  0  0
  9 11  1  0  0  0
  9 22  1  0  0  0
 11 15  1  0  0  0
 12 16  1  0  0  0
 12 17  2  0  0  0
 13 23  1  0  0  0
 14 24  1  0  0  0
 15 25  1  0  0  0
 16 19  2  0  0  0
 16 26  1  0  0  0
 17 18  1  0  0  0
 17 27  1  0  0  0
 18 20  2  0  0  0
 18 28  1  0  0  0
 19 20  1  0  0  0
 19 29  1  0  0  0
 20 30  1  0  0  0
M  END
> <s_m_entry_id>
4620

> <s_m_entry_name>
dock_pv.108

> <s_m_Source_Path>
/home/csk/Desktop/cluster/DUD-E-result/lck

> <s_m_Source_File>
dock_pv.maegz

> <i_m_Source_File_Index>
108

> <chembl_id>
CHEMBL309490

> <chembl_pref_name>
GALANGIN

> <i_lp_mmshare_version>
53161

> <i_f3d_flags>
0

> <r_lp_tautomer_probability>
1

> <s_lp_Force_Field>
OPLS_2005

> <r_lp_Energy>
20.645904

> <b_lp_Chiralities_Consistent>
1

> <s_lp_Variant>
CHEMBL258_lig1075-1

> <s_i_glide_gridfile>
glide-grid_2of2

> <i_i_glide_lignum>
1163

> <i_i_glide_rotatable_bonds>
4

> <r_i_docking_score>
-7.51964077515562

> <r_i_glide_ligand_efficiency>
-0.375982038757781

> <r_i_glide_ligand_efficiency_sa>
-1.02057226850827

> <r_i_glide_ligand_efficiency_ln>
-1.88191807166983

> <r_i_glide_gscore>
-7.51964077515562

> <r_i_glide_lipo>
-2.86215256645577

> <r_i_glide_hbond>
-0.531290515194981

> <r_i_glide_metal>
0

> <r_i_glide_rewards>
-2.13989752765922

> <r_i_glide_evdw>
-30.1764984130859

> <r_i_glide_ecoul>
-4.81565809249878

> <r_i_glide_erotb>
0.244873468683471

> <r_i_glide_esite>
0

> <r_i_glide_emodel>
-51.5411055249374

> <r_i_glide_energy>
-34.9921565055847

> <r_i_glide_einternal>
1.32841634750366

> <i_i_glide_confnum>
2

> <i_i_glide_posenum>
312

> <r_i_glide_eff_state_penalty>
0

> <s_user_duplicate_titles>
CHEMBL258_lig1075

> <s_m_subgroup_title>
dock_pv

> <s_m_subgroupid>
dock_pv

> <b_m_subgroup_collapsed>
1

$$$$
CHEMBL258_lig830
                    3D
 Schrodinger Suite 2021-1.
 56 60  0  0  1  0            999 V2000
   23.6320   37.5444   84.4874 N   0  0  0  0  0  0
   22.8139   38.3788   85.1922 C   0  0  0  0  0  0
   23.2857   39.6308   85.6210 C   0  0  0  0  0  0
   24.6254   39.9434   85.3891 C   0  0  0  0  0  0
   25.4505   39.0954   84.7242 N   0  0  0  0  0  0
   24.9213   37.9263   84.2880 C   0  0  0  0  0  0
   25.7540   37.0589   83.5300 N   0  0  0  0  0  0
   25.3503   35.9015   82.8862 C   0  0  0  0  0  0
   26.2921   35.2593   82.2531 N   0  0  0  0  0  0
   27.1258   37.1417   83.2873 C   0  0  0  0  0  0
   27.4173   36.0006   82.4876 C   0  0  0  0  0  0
   28.7371   35.7451   82.0871 C   0  0  0  0  0  0
   29.7371   36.6246   82.4875 C   0  0  0  0  0  0
   29.4418   37.7341   83.2826 C   0  0  0  0  0  0
   28.1383   38.0306   83.6867 C   0  0  0  0  0  0
   25.1244   41.1794   85.8248 N   0  0  0  0  0  0
   26.4415   41.6578   85.7417 C   0  0  0  0  0  0
   26.6570   42.8289   85.0124 C   0  0  0  0  0  0
   27.9475   43.3229   84.8384 C   0  0  0  0  0  0
   29.0321   42.6583   85.4052 C   0  0  0  0  0  0
   28.8234   41.5142   86.1736 C   0  0  0  0  0  0
   27.5324   41.0083   86.3571 C   0  0  0  0  0  0
   27.3571   39.7965   87.2680 C   0  0  0  0  0  0
   28.1491   44.4478   84.0870 O   0  0  0  0  0  0
   21.4568   38.0527   85.2215 N   0  0  0  0  0  0
   20.4448   38.6813   86.0927 C   0  0  0  0  0  0
   19.1613   39.0813   85.3277 C   0  0  0  0  0  0
   18.5685   37.9097   84.6834 N   0  0  0  0  0  0
   19.5359   37.3420   83.7452 C   0  0  0  0  0  0
   20.8362   36.9366   84.4755 C   0  0  0  0  0  0
   17.3481   38.2789   83.9764 C   0  0  0  0  0  0
   22.6462   40.3519   86.1018 H   0  0  0  0  0  0
   24.3154   35.5950   82.9269 H   0  0  0  0  0  0
   28.9703   34.8808   81.4821 H   0  0  0  0  0  0
   30.7581   36.4396   82.1896 H   0  0  0  0  0  0
   30.2466   38.3902   83.5827 H   0  0  0  0  0  0
   27.9444   38.8993   84.2966 H   0  0  0  0  0  0
   24.4370   41.8481   86.1388 H   0  0  0  0  0  0
   25.8295   43.3412   84.5445 H   0  0  0  0  0  0
   30.0355   43.0331   85.2604 H   0  0  0  0  0  0
   29.6705   41.0235   86.6322 H   0  0  0  0  0  0
   27.3775   38.8670   86.6974 H   0  0  0  0  0  0
   28.1498   39.7670   88.0171 H   0  0  0  0  0  0
   26.4182   39.8485   87.8216 H   0  0  0  0  0  0
   29.0684   44.5214   83.7783 H   0  0  0  0  0  0
   20.1963   37.9761   86.8880 H   0  0  0  0  0  0
   20.8328   39.5542   86.6126 H   0  0  0  0  0  0
   18.4417   39.5085   86.0274 H   0  0  0  0  0  0
   19.3894   39.8567   84.5948 H   0  0  0  0  0  0
   19.7604   38.0406   82.9383 H   0  0  0  0  0  0
   19.1015   36.4537   83.2875 H   0  0  0  0  0  0
   21.5224   36.5180   83.7393 H   0  0  0  0  0  0
   20.6380   36.1233   85.1753 H   0  0  0  0  0  0
   17.5226   39.0611   83.2385 H   0  0  0  0  0  0
   16.9498   37.4210   83.4440 H   0  0  0  0  0  0
   16.5822   38.6210   84.6721 H   0  0  0  0  0  0
  1  6  1  0  0  0
  1  2  2  0  0  0
  2  3  1  0  0  0
  2 25  1  0  0  0
  3  4  2  0  0  0
  3 32  1  0  0  0
  4 16  1  0  0  0
  4  5  1  0  0  0
  5  6  2  0  0  0
  6  7  1  0  0  0
  7  8  1  0  0  0
  7 10  1  0  0  0
  8  9  2  0  0  0
  8 33  1  0  0  0
  9 11  1  0  0  0
 10 15  1  0  0  0
 10 11  2  0  0  0
 11 12  1  0  0  0
 12 13  2  0  0  0
 12 34  1  0  0  0
 13 14  1  0  0  0
 13 35  1  0  0  0
 14 15  2  0  0  0
 14 36  1  0  0  0
 15 37  1  0  0  0
 16 17  1  0  0  0
 16 38  1  0  0  0
 17 18  2  0  0  0
 17 22  1  0  0  0
 18 19  1  0  0  0
 18 39  1  0  0  0
 19 20  2  0  0  0
 19 24  1  0  0  0
 20 21  1  0  0  0
 20 40  1  0  0  0
 21 22  2  0  0  0
 21 41  1  0  0  0
 22 23  1  0  0  0
 23 42  1  0  0  0
 23 43  1  0  0  0
 23 44  1  0  0  0
 24 45  1  0  0  0
 25 26  1  0  0  0
 25 30  1  0  0  0
 26 27  1  0  0  0
 26 46  1  0  0  0
 26 47  1  0  0  0
 27 28  1  0  0  0
 27 48  1  0  0  0
 27 49  1  0  0  0
 28 29  1  0  0  0
 28 31  1  0  0  0
 29 30  1  0  0  0
 29 50  1  0  0  0
 29 51  1  0  0  0
 30 52  1  0  0  0
 30 53  1  0  0  0
 31 54  1  0  0  0
 31 55  1  0  0  0
 31 56  1  0  0  0
M  END
> <s_m_entry_id>
4621

> <s_m_entry_name>
dock_pv.109

> <s_m_Source_Path>
/home/csk/Desktop/cluster/DUD-E-result/lck

> <s_m_Source_File>
dock_pv.maegz

> <i_m_Source_File_Index>
109

> <chembl_id>
CHEMBL220643

> <chembl_pref_name>
None

> <i_lp_mmshare_version>
53161

> <i_f3d_flags>
0

> <r_lp_tautomer_probability>
1

> <s_lp_Force_Field>
OPLS_2005

> <r_lp_Energy>
37.20078

> <b_lp_Chiralities_Consistent>
1

> <s_lp_Variant>
CHEMBL258_lig830-1

> <s_i_glide_gridfile>
glide-grid_2of2

> <i_i_glide_lignum>
915

> <i_i_glide_rotatable_bonds>
5

> <r_i_docking_score>
-7.51528534884722

> <r_i_glide_ligand_efficiency>
-0.242428559640233

> <r_i_glide_ligand_efficiency_sa>
-0.76156038596921

> <r_i_glide_ligand_efficiency_ln>
-1.6949271620011

> <r_i_glide_gscore>
-7.51528534884722

> <r_i_glide_lipo>
-2.18313917261421

> <r_i_glide_hbond>
-0.231625678848811

> <r_i_glide_metal>
0

> <r_i_glide_rewards>
-2.6395526406492

> <r_i_glide_evdw>
-41.3693656921387

> <r_i_glide_ecoul>
-5.66703224182129

> <r_i_glide_erotb>
0.457555264145138

> <r_i_glide_esite>
0

> <r_i_glide_emodel>
-67.2076298060391

> <r_i_glide_energy>
-47.03639793396

> <r_i_glide_einternal>
3.9672646522522

> <i_i_glide_confnum>
24

> <i_i_glide_posenum>
323

> <r_i_glide_eff_state_penalty>
0

> <s_user_duplicate_titles>
CHEMBL258_lig830,368669

> <s_m_subgroup_title>
dock_pv

> <s_m_subgroupid>
dock_pv

> <b_m_subgroup_collapsed>
1

$$$$
CHEMBL258_lig644
                    3D
 Schrodinger Suite 2021-1.
 51 54  0  0  1  0            999 V2000
   27.2238   38.3096   84.3949 C   0  0  0  0  0  0
   27.7982   37.4219   83.4738 C   0  0  0  0  0  0
   26.9921   36.4610   82.8444 C   0  0  0  0  0  0
   25.8713   38.1906   84.7408 C   0  0  0  0  0  0
   25.0379   37.2364   84.1082 C   0  0  0  0  0  0
   25.6170   36.3566   83.1452 C   0  0  0  0  0  0
   24.8749   35.4270   82.4797 N   0  0  0  0  0  0
   23.5480   35.4210   82.7458 C   0  0  0  0  0  0
   22.8956   36.1962   83.6381 N   0  0  0  0  0  0
   23.6320   37.0972   84.3278 C   0  0  0  0  0  0
   22.9536   37.9612   85.2123 N   0  0  0  0  0  0
   21.6017   38.1093   85.5932 C   0  0  0  0  0  0
   20.6186   37.1341   85.3587 C   0  0  0  0  0  0
   19.2888   37.3687   85.6998 C   0  0  0  0  0  0
   18.9193   38.5718   86.2873 C   0  0  0  0  0  0
   19.8804   39.5431   86.5473 C   0  0  0  0  0  0
   21.2164   39.3140   86.2052 C   0  0  0  0  0  0
   29.1557   37.5407   83.2301 O   0  0  0  0  0  0
   28.0809   39.4154   85.0312 C   0  0  0  0  0  0
   27.3319   40.6246   85.3877 N   0  0  2  0  0  0
   29.8239   36.5369   82.4711 C   0  0  0  0  0  0
   26.7510   41.3503   84.2601 C   0  0  0  0  0  0
   26.3226   42.7199   84.8348 C   0  0  2  0  0  0
   27.3049   42.9156   86.0193 C   0  0  0  0  0  0
   28.1431   41.6311   86.0553 C   0  0  0  0  0  0
   19.3966   41.0207   87.2869 Cl  0  0  0  0  0  0
   22.1381   40.2707   86.4604 F   0  0  0  0  0  0
   24.8771   42.6110   85.3958 C   0  0  0  0  0  0
   23.9471   43.4175   84.8871 N   0  0  0  0  0  0
   24.5851   41.8135   86.2841 O   0  0  0  0  0  0
   27.3984   35.7812   82.1101 H   0  0  0  0  0  0
   25.4422   38.8670   85.4667 H   0  0  0  0  0  0
   22.9499   34.6909   82.2157 H   0  0  0  0  0  0
   23.5462   38.6826   85.5974 H   0  0  0  0  0  0
   20.8547   36.1775   84.9200 H   0  0  0  0  0  0
   18.5417   36.6210   85.5008 H   0  0  0  0  0  0
   17.8819   38.7487   86.5399 H   0  0  0  0  0  0
   28.9005   39.6838   84.3619 H   0  0  0  0  0  0
   28.5407   39.0209   85.9371 H   0  0  0  0  0  0
   30.8971   36.7295   82.4853 H   0  0  0  0  0  0
   29.6656   35.5400   82.8862 H   0  0  0  0  0  0
   29.5051   36.5393   81.4288 H   0  0  0  0  0  0
   25.9330   40.7562   83.8487 H   0  0  0  0  0  0
   27.5258   41.4168   83.4944 H   0  0  0  0  0  0
   26.3370   43.5024   84.0757 H   0  0  0  0  0  0
   27.9537   43.7723   85.8387 H   0  0  0  0  0  0
   26.8290   43.0752   86.9901 H   0  0  0  0  0  0
   29.1195   41.7539   85.5807 H   0  0  0  0  0  0
   28.3602   41.2974   87.0727 H   0  0  0  0  0  0
   23.0076   43.3722   85.2546 H   0  0  0  0  0  0
   24.1522   44.0789   84.1479 H   0  0  0  0  0  0
  1  2  1  0  0  0
  1 19  1  0  0  0
  1  4  2  0  0  0
  2 18  1  0  0  0
  2  3  2  0  0  0
  3  6  1  0  0  0
  3 31  1  0  0  0
  4  5  1  0  0  0
  4 32  1  0  0  0
  5 10  2  0  0  0
  5  6  1  0  0  0
  6  7  2  0  0  0
  7  8  1  0  0  0
  8  9  2  0  0  0
  8 33  1  0  0  0
  9 10  1  0  0  0
 10 11  1  0  0  0
 11 12  1  0  0  0
 11 34  1  0  0  0
 12 17  2  0  0  0
 12 13  1  0  0  0
 13 14  2  0  0  0
 13 35  1  0  0  0
 14 15  1  0  0  0
 14 36  1  0  0  0
 15 16  2  0  0  0
 15 37  1  0  0  0
 16 17  1  0  0  0
 16 26  1  0  0  0
 17 27  1  0  0  0
 18 21  1  0  0  0
 19 20  1  0  0  0
 19 38  1  0  0  0
 19 39  1  0  0  0
 20 22  1  0  0  0
 20 25  1  0  0  0
 21 40  1  0  0  0
 21 41  1  0  0  0
 21 42  1  0  0  0
 22 23  1  0  0  0
 22 43  1  0  0  0
 22 44  1  0  0  0
 23 24  1  0  0  0
 23 28  1  0  0  0
 23 45  1  0  0  0
 24 25  1  0  0  0
 24 46  1  0  0  0
 24 47  1  0  0  0
 25 48  1  0  0  0
 25 49  1  0  0  0
 28 29  1  0  0  0
 28 30  2  0  0  0
 29 50  1  0  0  0
 29 51  1  0  0  0
M  END
> <s_m_entry_id>
4622

> <s_m_entry_name>
dock_pv.110

> <s_m_Source_Path>
/home/csk/Desktop/cluster/DUD-E-result/lck

> <s_m_Source_File>
dock_pv.maegz

> <i_m_Source_File_Index>
110

> <chembl_id>
CHEMBL380454

> <chembl_pref_name>
None

> <i_lp_mmshare_version>
53161

> <i_f3d_flags>
0

> <r_lp_tautomer_probability>
0.999978000241998

> <s_lp_Force_Field>
OPLS_2005

> <r_lp_Energy>
34.751588

> <b_lp_Chiralities_Consistent>
1

> <s_lp_Variant>
CHEMBL258_lig644-1

> <s_i_glide_gridfile>
glide-grid_2of2

> <i_i_glide_lignum>
727

> <i_i_glide_rotatable_bonds>
6

> <r_i_docking_score>
-7.51128405193204

> <r_i_glide_ligand_efficiency>
-0.250376135064401

> <r_i_glide_ligand_efficiency_sa>
-0.777976864705184

> <r_i_glide_ligand_efficiency_ln>
-1.70664557859373

> <r_i_glide_gscore>
-7.51128405193204

> <r_i_glide_lipo>
-2.63917708607847

> <r_i_glide_hbond>
-0.32

> <r_i_glide_metal>
0

> <r_i_glide_rewards>
-1.77973922916857

> <r_i_glide_evdw>
-39.3471984863281

> <r_i_glide_ecoul>
-7.84816122055054

> <r_i_glide_erotb>
0.430239960077135

> <r_i_glide_esite>
-0.0580235893631419

> <r_i_glide_emodel>
-68.3363086790002

> <r_i_glide_energy>
-47.1953597068787

> <r_i_glide_einternal>
1.64978539943695

> <i_i_glide_confnum>
44

> <i_i_glide_posenum>
22

> <r_i_glide_eff_state_penalty>
0

> <s_user_duplicate_titles>
CHEMBL258_lig644

> <s_m_subgroup_title>
dock_pv

> <s_m_subgroupid>
dock_pv

> <b_m_subgroup_collapsed>
1

$$$$
CHEMBL258_lig1287
                    3D
 Schrodinger Suite 2021-1.
 58 60  0  0  1  0            999 V2000
   24.9162   35.3558   82.1476 N   0  0  0  0  0  0
   23.6100   35.4206   82.4872 C   0  0  0  0  0  0
   23.0567   36.1814   83.4529 N   0  0  0  0  0  0
   23.8889   36.9998   84.1373 C   0  0  0  0  0  0
   25.7556   36.1808   82.8259 C   0  0  0  0  0  0
   25.2908   37.0595   83.8485 C   0  0  0  0  0  0
   26.2226   37.9275   84.4709 C   0  0  0  0  0  0
   27.5742   37.9304   84.0866 C   0  0  0  0  0  0
   28.0274   37.0243   83.1154 C   0  0  0  0  0  0
   27.1204   36.1640   82.4871 C   0  0  0  0  0  0
   29.3824   37.0225   82.8284 O   0  0  0  0  0  0
   29.9124   36.0789   81.8992 C   0  0  0  0  0  0
   28.5244   38.7980   84.5959 O   0  0  0  0  0  0
   28.2669   39.6537   85.7088 C   0  0  0  0  0  0
   28.5930   41.1081   85.3372 C   0  0  0  0  0  0
   27.6431   41.7301   84.2975 C   0  0  0  0  0  0
   26.1776   41.7955   84.7643 C   0  0  0  0  0  0
   25.2428   42.5838   83.8237 C   0  0  0  0  0  0
   23.7425   42.4914   84.1844 C   0  0  0  0  0  0
   23.4202   42.9689   85.6045 C   0  0  0  0  0  0
   23.5956   42.2025   86.5550 O   0  0  0  0  0  0
   22.9500   44.2198   85.7167 N   0  0  0  0  0  0
   22.5500   44.6668   86.9824 O   0  0  0  0  0  0
   23.3217   37.8275   85.1250 N   0  0  0  0  0  0
   22.0041   38.0446   85.5723 C   0  0  0  0  0  0
   21.7657   39.2206   86.2870 C   0  0  0  0  0  0
   20.4840   39.5359   86.7445 C   0  0  0  0  0  0
   19.4208   38.6678   86.4865 C   0  0  0  0  0  0
   19.6520   37.4739   85.8057 C   0  0  0  0  0  0
   20.9354   37.1599   85.3574 C   0  0  0  0  0  0
   20.2677   40.7672   87.4859 C   0  0  0  0  0  0
   20.1274   41.8201   88.0870 C   0  0  0  0  0  0
   22.9502   34.7619   81.9474 H   0  0  0  0  0  0
   25.8421   38.5957   85.2207 H   0  0  0  0  0  0
   27.4394   35.4819   81.7121 H   0  0  0  0  0  0
   30.9918   36.2110   81.8275 H   0  0  0  0  0  0
   29.7284   35.0516   82.2197 H   0  0  0  0  0  0
   29.5003   36.2204   80.8988 H   0  0  0  0  0  0
   27.2915   39.5835   86.1796 H   0  0  0  0  0  0
   28.9500   39.3369   86.4869 H   0  0  0  0  0  0
   28.5828   41.7178   86.2411 H   0  0  0  0  0  0
   29.6159   41.1591   84.9620 H   0  0  0  0  0  0
   27.9957   42.7409   84.0874 H   0  0  0  0  0  0
   27.7111   41.1700   83.3630 H   0  0  0  0  0  0
   25.7825   40.7879   84.8765 H   0  0  0  0  0  0
   26.1504   42.2429   85.7588 H   0  0  0  0  0  0
   25.5565   43.6286   83.7943 H   0  0  0  0  0  0
   25.3504   42.2211   82.8030 H   0  0  0  0  0  0
   23.1580   43.0611   83.4603 H   0  0  0  0  0  0
   23.3980   41.4611   84.0853 H   0  0  0  0  0  0
   22.6800   44.8534   84.9691 H   0  0  0  0  0  0
   21.5799   44.6316   86.9263 H   0  0  0  0  0  0
   23.9805   38.4838   85.5113 H   0  0  0  0  0  0
   22.5823   39.9016   86.4785 H   0  0  0  0  0  0
   18.4185   38.9038   86.8215 H   0  0  0  0  0  0
   18.8377   36.7874   85.6276 H   0  0  0  0  0  0
   21.0696   36.2182   84.8505 H   0  0  0  0  0  0
   20.0181   42.7734   88.5526 H   0  0  0  0  0  0
  1  2  2  0  0  0
  1  5  1  0  0  0
  2  3  1  0  0  0
  2 33  1  0  0  0
  3  4  2  0  0  0
  4  6  1  0  0  0
  4 24  1  0  0  0
  5 10  2  0  0  0
  5  6  1  0  0  0
  6  7  2  0  0  0
  7  8  1  0  0  0
  7 34  1  0  0  0
  8  9  2  0  0  0
  8 13  1  0  0  0
  9 10  1  0  0  0
  9 11  1  0  0  0
 10 35  1  0  0  0
 11 12  1  0  0  0
 12 36  1  0  0  0
 12 37  1  0  0  0
 12 38  1  0  0  0
 13 14  1  0  0  0
 14 15  1  0  0  0
 14 39  1  0  0  0
 14 40  1  0  0  0
 15 16  1  0  0  0
 15 41  1  0  0  0
 15 42  1  0  0  0
 16 17  1  0  0  0
 16 43  1  0  0  0
 16 44  1  0  0  0
 17 18  1  0  0  0
 17 45  1  0  0  0
 17 46  1  0  0  0
 18 19  1  0  0  0
 18 47  1  0  0  0
 18 48  1  0  0  0
 19 20  1  0  0  0
 19 49  1  0  0  0
 19 50  1  0  0  0
 20 21  2  0  0  0
 20 22  1  0  0  0
 22 23  1  0  0  0
 22 51  1  0  0  0
 23 52  1  0  0  0
 24 25  1  0  0  0
 24 53  1  0  0  0
 25 26  2  0  0  0
 25 30  1  0  0  0
 26 27  1  0  0  0
 26 54  1  0  0  0
 27 28  2  0  0  0
 27 31  1  0  0  0
 28 29  1  0  0  0
 28 55  1  0  0  0
 29 30  2  0  0  0
 29 56  1  0  0  0
 30 57  1  0  0  0
 31 32  3  0  0  0
 32 58  1  0  0  0
M  END
> <s_m_entry_id>
4623

> <s_m_entry_name>
dock_pv.111

> <s_m_Source_Path>
/home/csk/Desktop/cluster/DUD-E-result/lck

> <s_m_Source_File>
dock_pv.maegz

> <i_m_Source_File_Index>
111

> <chembl_id>
CHEMBL598797

> <chembl_pref_name>
CUDC-101

> <i_lp_mmshare_version>
53161

> <i_f3d_flags>
0

> <r_lp_tautomer_probability>
0.999978000241998

> <s_lp_Force_Field>
OPLS_2005

> <r_lp_Energy>
25.18703

> <b_lp_Chiralities_Consistent>
1

> <s_lp_Variant>
CHEMBL258_lig1287-1

> <s_i_glide_gridfile>
glide-grid_2of2

> <i_i_glide_lignum>
1438

> <i_i_glide_rotatable_bonds>
14

> <r_i_docking_score>
-7.51028265453168

> <r_i_glide_ligand_efficiency>
-0.234696332954115

> <r_i_glide_ligand_efficiency_sa>
-0.745114410788092

> <r_i_glide_ligand_efficiency_ln>
-1.68175700892281

> <r_i_glide_gscore>
-7.51028265453168

> <r_i_glide_lipo>
-2.54452813313204

> <r_i_glide_hbond>
-0.418142414416892

> <r_i_glide_metal>
0

> <r_i_glide_rewards>
-1.43378971099963

> <r_i_glide_evdw>
-41.7638816833496

> <r_i_glide_ecoul>
-14.5635261535645

> <r_i_glide_erotb>
1.26599571966862

> <r_i_glide_esite>
-0.107095108449579

> <r_i_glide_emodel>
-79.7023023990138

> <r_i_glide_energy>
-56.3274078369141

> <r_i_glide_einternal>
5.83107995986938

> <i_i_glide_confnum>
54

> <i_i_glide_posenum>
162

> <r_i_glide_eff_state_penalty>
0

> <s_user_duplicate_titles>
CHEMBL258_lig1287

> <s_m_subgroup_title>
dock_pv

> <s_m_subgroupid>
dock_pv

> <b_m_subgroup_collapsed>
1

$$$$
CHEMBL258_lig200
                    3D
 Schrodinger Suite 2021-1.
 37 40  0  0  1  0            999 V2000
   23.5908   36.2492   83.4554 C   0  0  0  0  0  0
   22.5844   36.9369   84.1622 C   0  0  0  0  0  0
   24.9058   36.6721   83.6869 N   0  0  0  0  0  0
   22.8759   37.9559   85.0146 N   0  0  0  0  0  0
   24.1668   38.3435   85.1856 C   0  0  0  0  0  0
   21.2364   36.6209   83.9440 N   0  0  0  0  0  0
   25.2351   37.6827   84.5214 C   0  0  0  0  0  0
   24.9959   35.0219   82.1871 N   0  0  0  0  0  0
   20.1311   36.8785   84.7810 C   0  0  0  0  0  0
   25.7028   35.8787   82.8908 C   0  0  0  0  0  0
   23.7294   35.2253   82.4870 C   0  0  0  0  0  0
   24.4593   39.4214   86.0521 C   0  0  0  0  0  0
   26.5755   38.0976   84.7447 C   0  0  0  0  0  0
   19.0406   37.6390   84.3135 C   0  0  0  0  0  0
   20.0802   36.3464   86.0879 C   0  0  0  0  0  0
   25.7816   39.8102   86.2643 C   0  0  0  0  0  0
   26.8275   39.1534   85.6181 C   0  0  0  0  0  0
   18.9496   38.2209   82.6897 Cl  0  0  0  0  0  0
   26.0647   40.8597   87.1338 N   0  0  0  0  0  0
   17.9373   37.4206   86.4532 C   0  0  0  0  0  0
   17.9624   37.9155   85.1543 C   0  0  0  0  0  0
   18.9813   36.6204   86.9023 C   0  0  0  0  0  0
   21.1402   35.3832   86.6122 C   0  0  0  0  0  0
   21.0839   35.8857   83.2723 H   0  0  0  0  0  0
   26.7766   35.9794   82.8572 H   0  0  0  0  0  0
   22.9501   34.6365   82.0277 H   0  0  0  0  0  0
   23.6443   39.9231   86.5518 H   0  0  0  0  0  0
   27.4015   37.6029   84.2543 H   0  0  0  0  0  0
   27.8492   39.4598   85.7918 H   0  0  0  0  0  0
   27.0142   41.1996   87.1928 H   0  0  0  0  0  0
   25.3034   41.4071   87.5051 H   0  0  0  0  0  0
   17.0951   37.6401   87.0951 H   0  0  0  0  0  0
   17.1317   38.5110   84.8037 H   0  0  0  0  0  0
   18.9384   36.2044   87.8982 H   0  0  0  0  0  0
   22.0642   35.9060   86.8590 H   0  0  0  0  0  0
   20.7978   34.8191   87.4805 H   0  0  0  0  0  0
   21.3543   34.6346   85.8505 H   0  0  0  0  0  0
  1  2  1  0  0  0
  1  3  1  0  0  0
  1 11  2  0  0  0
  2  4  2  0  0  0
  2  6  1  0  0  0
  3  7  1  0  0  0
  3 10  1  0  0  0
  4  5  1  0  0  0
  5  7  1  0  0  0
  5 12  2  0  0  0
  6  9  1  0  0  0
  6 24  1  0  0  0
  7 13  2  0  0  0
  8 11  1  0  0  0
  8 10  2  0  0  0
  9 14  2  0  0  0
  9 15  1  0  0  0
 10 25  1  0  0  0
 11 26  1  0  0  0
 12 16  1  0  0  0
 12 27  1  0  0  0
 13 17  1  0  0  0
 13 28  1  0  0  0
 14 18  1  0  0  0
 14 21  1  0  0  0
 15 22  2  0  0  0
 15 23  1  0  0  0
 16 17  2  0  0  0
 16 19  1  0  0  0
 17 29  1  0  0  0
 19 30  1  0  0  0
 19 31  1  0  0  0
 20 22  1  0  0  0
 20 21  2  0  0  0
 20 32  1  0  0  0
 21 33  1  0  0  0
 22 34  1  0  0  0
 23 35  1  0  0  0
 23 36  1  0  0  0
 23 37  1  0  0  0
M  END
> <s_m_entry_id>
4624

> <s_m_entry_name>
dock_pv.112

> <s_m_Source_Path>
/home/csk/Desktop/cluster/DUD-E-result/lck

> <s_m_Source_File>
dock_pv.maegz

> <i_m_Source_File_Index>
112

> <chembl_id>
CHEMBL83008

> <chembl_pref_name>
None

> <i_lp_mmshare_version>
53161

> <i_f3d_flags>
0

> <r_lp_tautomer_probability>
1

> <s_lp_Force_Field>
OPLS_2005

> <r_lp_Energy>
60.935515

> <b_lp_Chiralities_Consistent>
1

> <s_lp_Variant>
CHEMBL258_lig200-1

> <s_i_glide_gridfile>
glide-grid_2of2

> <i_i_glide_lignum>
228

> <i_i_glide_rotatable_bonds>
2

> <r_i_docking_score>
-7.49937677792363

> <r_i_glide_ligand_efficiency>
-0.326059859909723

> <r_i_glide_ligand_efficiency_sa>
-0.927270868083138

> <r_i_glide_ligand_efficiency_ln>
-1.81341730549095

> <r_i_glide_gscore>
-7.49937677792363

> <r_i_glide_lipo>
-2.59770002737453

> <r_i_glide_hbond>
-0.318302560104401

> <r_i_glide_metal>
0

> <r_i_glide_rewards>
-2.80465176878325

> <r_i_glide_evdw>
-33.5710716247559

> <r_i_glide_ecoul>
-3.04855489730835

> <r_i_glide_erotb>
0.357114394172605

> <r_i_glide_esite>
0

> <r_i_glide_emodel>
-53.3401870726856

> <r_i_glide_energy>
-36.6196265220642

> <r_i_glide_einternal>
0.914944469928741

> <i_i_glide_confnum>
2

> <i_i_glide_posenum>
51

> <r_i_glide_eff_state_penalty>
0

> <s_user_duplicate_titles>
CHEMBL258_lig200,137020

> <s_m_subgroup_title>
dock_pv

> <s_m_subgroupid>
dock_pv

> <b_m_subgroup_collapsed>
1

$$$$
CHEMBL258_lig542
                    3D
 Schrodinger Suite 2021-1.
 43 46  0  0  1  0            999 V2000
   26.0135   37.3658   83.7300 C   0  0  0  0  0  0
   22.4063   37.0909   84.3394 C   0  0  0  0  0  0
   24.6042   37.3205   84.0552 C   0  0  0  0  0  0
   26.6904   36.5898   82.7254 C   0  0  0  0  0  0
   23.5018   36.5319   83.6871 N   0  0  0  0  0  0
   22.7132   38.0774   85.1363 N   0  0  0  0  0  0
   26.8399   38.2931   84.4612 C   0  0  0  0  0  0
   28.0210   36.6208   82.5626 N   0  0  0  0  0  0
   21.1256   36.6210   84.1448 N   0  0  0  0  0  0
   24.0571   38.2430   84.9815 C   0  0  0  0  0  0
   28.8055   37.4442   83.2850 C   0  0  0  0  0  0
   28.2629   38.3116   84.2414 C   0  0  0  0  0  0
   20.0103   36.9095   84.9490 C   0  0  0  0  0  0
   26.2202   39.1879   85.3773 C   0  0  0  0  0  0
   25.9974   35.8428   81.8307 O   0  0  0  0  0  0
   24.8559   39.1859   85.6232 C   0  0  0  0  0  0
   30.2436   37.4213   82.8967 C   0  0  0  0  0  0
   19.9075   36.3636   86.2414 C   0  0  0  0  0  0
   18.9368   37.6578   84.4364 C   0  0  0  0  0  0
   30.8459   36.5282   82.0867 C   0  0  0  0  0  0
   23.4008   35.4215   82.7379 C   0  0  0  0  0  0
   18.9206   38.2209   82.8041 Cl  0  0  0  0  0  0
   21.1323   35.3185   86.8867 Cl  0  0  0  0  0  0
   29.1442   39.2721   85.0473 C   0  0  0  0  0  0
   17.7495   37.4208   86.5276 C   0  0  0  0  0  0
   17.8232   37.9238   85.2332 C   0  0  0  0  0  0
   18.7766   36.6209   87.0176 C   0  0  0  0  0  0
   20.9605   35.8402   83.5284 H   0  0  0  0  0  0
   26.8094   39.9220   85.9034 H   0  0  0  0  0  0
   26.6224   35.5524   81.1547 H   0  0  0  0  0  0
   24.4289   39.8890   86.3253 H   0  0  0  0  0  0
   30.8779   38.1987   83.2917 H   0  0  0  0  0  0
   30.3049   35.7100   81.6316 H   0  0  0  0  0  0
   31.9004   36.6015   81.8632 H   0  0  0  0  0  0
   22.4793   34.8622   82.8866 H   0  0  0  0  0  0
   23.4131   35.8173   81.7226 H   0  0  0  0  0  0
   24.2120   34.7151   82.8870 H   0  0  0  0  0  0
   28.8472   39.2914   86.0937 H   0  0  0  0  0  0
   30.1950   38.9898   85.0751 H   0  0  0  0  0  0
   29.0677   40.2844   84.6494 H   0  0  0  0  0  0
   16.8827   37.6330   87.1379 H   0  0  0  0  0  0
   17.0022   38.5154   84.8507 H   0  0  0  0  0  0
   18.6892   36.1902   88.0035 H   0  0  0  0  0  0
  1  3  2  0  0  0
  1  4  1  0  0  0
  1  7  1  0  0  0
  2  5  1  0  0  0
  2  9  1  0  0  0
  2  6  2  0  0  0
  3  5  1  0  0  0
  3 10  1  0  0  0
  4  8  2  0  0  0
  4 15  1  0  0  0
  5 21  1  0  0  0
  6 10  1  0  0  0
  7 12  1  0  0  0
  7 14  2  0  0  0
  8 11  1  0  0  0
  9 13  1  0  0  0
  9 28  1  0  0  0
 10 16  2  0  0  0
 11 12  2  0  0  0
 11 17  1  0  0  0
 12 24  1  0  0  0
 13 18  2  0  0  0
 13 19  1  0  0  0
 14 16  1  0  0  0
 14 29  1  0  0  0
 15 30  1  0  0  0
 16 31  1  0  0  0
 17 20  2  0  0  0
 17 32  1  0  0  0
 18 23  1  0  0  0
 18 27  1  0  0  0
 19 22  1  0  0  0
 19 26  2  0  0  0
 20 33  1  0  0  0
 20 34  1  0  0  0
 21 35  1  0  0  0
 21 36  1  0  0  0
 21 37  1  0  0  0
 24 38  1  0  0  0
 24 39  1  0  0  0
 24 40  1  0  0  0
 25 26  1  0  0  0
 25 27  2  0  0  0
 25 41  1  0  0  0
 26 42  1  0  0  0
 27 43  1  0  0  0
M  END
> <s_m_entry_id>
4625

> <s_m_entry_name>
dock_pv.113

> <s_m_Source_Path>
/home/csk/Desktop/cluster/DUD-E-result/lck

> <s_m_Source_File>
dock_pv.maegz

> <i_m_Source_File_Index>
113

> <chembl_id>
CHEMBL26955

> <chembl_pref_name>
None

> <i_lp_mmshare_version>
53161

> <i_f3d_flags>
0

> <r_lp_tautomer_probability>
1

> <s_lp_Force_Field>
OPLS_2005

> <r_lp_Energy>
31.096244

> <b_lp_Chiralities_Consistent>
1

> <s_lp_Variant>
CHEMBL258_lig542-1

> <s_i_glide_gridfile>
glide-grid_2of2

> <i_i_glide_lignum>
614

> <i_i_glide_rotatable_bonds>
4

> <r_i_docking_score>
-7.48821203838584

> <r_i_glide_ligand_efficiency>
-0.277341186606883

> <r_i_glide_ligand_efficiency_sa>
-0.832023558906578

> <r_i_glide_ligand_efficiency_ln>
-1.74313230971241

> <r_i_glide_gscore>
-7.48821203838584

> <r_i_glide_lipo>
-3.56083358393013

> <r_i_glide_hbond>
-0.384830527136054

> <r_i_glide_metal>
0

> <r_i_glide_rewards>
-1.14192617761538

> <r_i_glide_evdw>
-40.852294921875

> <r_i_glide_ecoul>
-4.84475231170654

> <r_i_glide_erotb>
0.368705843145447

> <r_i_glide_esite>
0

> <r_i_glide_emodel>
-64.9171196269747

> <r_i_glide_energy>
-45.6970472335815

> <r_i_glide_einternal>
1.72476053237915

> <i_i_glide_confnum>
3

> <i_i_glide_posenum>
181

> <r_i_glide_eff_state_penalty>
0

> <s_user_duplicate_titles>
CHEMBL258_lig542,36431

> <s_m_subgroup_title>
dock_pv

> <s_m_subgroupid>
dock_pv

> <b_m_subgroup_collapsed>
1

$$$$
CHEMBL258_lig817
                    3D
 Schrodinger Suite 2021-1.
 39 42  0  0  1  0            999 V2000
   24.7143   35.6194   82.4889 N   0  0  0  0  0  0
   23.3795   35.4210   82.6037 C   0  0  0  0  0  0
   22.5496   36.0117   83.4983 N   0  0  0  0  0  0
   23.1195   36.9124   84.3418 C   0  0  0  0  0  0
   24.4877   37.2069   84.2906 C   0  0  0  0  0  0
   25.2665   36.5456   83.3239 C   0  0  0  0  0  0
   26.6595   36.7857   83.1590 N   0  0  0  0  0  0
   27.5405   35.9489   82.4870 C   0  0  0  0  0  0
   28.7978   36.2831   82.5580 N   0  0  0  0  0  0
   27.4614   37.8209   83.6464 C   0  0  0  0  0  0
   28.7864   37.4364   83.2870 C   0  0  0  0  0  0
   29.8818   38.2253   83.6609 C   0  0  0  0  0  0
   29.6354   39.4005   84.3673 C   0  0  0  0  0  0
   28.3368   39.7906   84.6854 C   0  0  0  0  0  0
   27.2231   39.0234   84.3347 C   0  0  0  0  0  0
   22.3144   37.5908   85.2665 N   0  0  0  0  0  0
   20.9590   37.3952   85.5830 C   0  0  0  0  0  0
   20.0122   38.2744   85.0537 C   0  0  0  0  0  0
   18.6737   38.1791   85.4326 C   0  0  0  0  0  0
   18.2728   37.2324   86.3697 C   0  0  0  0  0  0
   19.2031   36.3334   86.8841 C   0  0  0  0  0  0
   20.5428   36.4003   86.4870 C   0  0  0  0  0  0
   17.7501   39.0210   84.8869 O   0  0  0  0  0  0
   21.5168   35.3900   87.0640 C   0  0  0  0  0  0
   22.9500   34.6876   81.9417 H   0  0  0  0  0  0
   24.9072   37.8967   84.9993 H   0  0  0  0  0  0
   27.1790   35.0542   82.0003 H   0  0  0  0  0  0
   30.8890   37.9350   83.3996 H   0  0  0  0  0  0
   30.4640   40.0280   84.6652 H   0  0  0  0  0  0
   28.1907   40.7198   85.2180 H   0  0  0  0  0  0
   26.2381   39.3851   84.5766 H   0  0  0  0  0  0
   22.7458   38.3856   85.7113 H   0  0  0  0  0  0
   20.3136   39.0379   84.3525 H   0  0  0  0  0  0
   17.2369   37.1686   86.6711 H   0  0  0  0  0  0
   18.8773   35.5782   87.5855 H   0  0  0  0  0  0
   17.0325   39.2526   85.5029 H   0  0  0  0  0  0
   22.1500   35.0210   86.2692 H   0  0  0  0  0  0
   22.1500   35.8611   87.8127 H   0  0  0  0  0  0
   21.0140   34.5230   87.4948 H   0  0  0  0  0  0
  1  6  1  0  0  0
  1  2  2  0  0  0
  2  3  1  0  0  0
  2 25  1  0  0  0
  3  4  2  0  0  0
  4 16  1  0  0  0
  4  5  1  0  0  0
  5  6  2  0  0  0
  5 26  1  0  0  0
  6  7  1  0  0  0
  7  8  1  0  0  0
  7 10  1  0  0  0
  8  9  2  0  0  0
  8 27  1  0  0  0
  9 11  1  0  0  0
 10 15  1  0  0  0
 10 11  2  0  0  0
 11 12  1  0  0  0
 12 13  2  0  0  0
 12 28  1  0  0  0
 13 14  1  0  0  0
 13 29  1  0  0  0
 14 15  2  0  0  0
 14 30  1  0  0  0
 15 31  1  0  0  0
 16 17  1  0  0  0
 16 32  1  0  0  0
 17 18  2  0  0  0
 17 22  1  0  0  0
 18 19  1  0  0  0
 18 33  1  0  0  0
 19 20  2  0  0  0
 19 23  1  0  0  0
 20 21  1  0  0  0
 20 34  1  0  0  0
 21 22  2  0  0  0
 21 35  1  0  0  0
 22 24  1  0  0  0
 23 36  1  0  0  0
 24 37  1  0  0  0
 24 38  1  0  0  0
 24 39  1  0  0  0
M  END
> <s_m_entry_id>
4626

> <s_m_entry_name>
dock_pv.114

> <s_m_Source_Path>
/home/csk/Desktop/cluster/DUD-E-result/lck

> <s_m_Source_File>
dock_pv.maegz

> <i_m_Source_File_Index>
114

> <chembl_id>
CHEMBL374439

> <chembl_pref_name>
None

> <i_lp_mmshare_version>
53161

> <i_f3d_flags>
0

> <r_lp_tautomer_probability>
1

> <s_lp_Force_Field>
OPLS_2005

> <r_lp_Energy>
16.796085

> <b_lp_Chiralities_Consistent>
1

> <s_lp_Variant>
CHEMBL258_lig817-1

> <s_i_glide_gridfile>
glide-grid_2of2

> <i_i_glide_lignum>
902

> <i_i_glide_rotatable_bonds>
4

> <r_i_docking_score>
-7.48091261160718

> <r_i_glide_ligand_efficiency>
-0.311704692150299

> <r_i_glide_ligand_efficiency_sa>
-0.899111915680669

> <r_i_glide_ligand_efficiency_ln>
-1.79052566466914

> <r_i_glide_gscore>
-7.48091261160718

> <r_i_glide_lipo>
-2.56593015674927

> <r_i_glide_hbond>
-0.276956424198508

> <r_i_glide_metal>
0

> <r_i_glide_rewards>
-2.45937668607582

> <r_i_glide_evdw>
-35.9982414245605

> <r_i_glide_ecoul>
-6.06448411941528

> <r_i_glide_erotb>
0.554959675891635

> <r_i_glide_esite>
-0.0240243313348936

> <r_i_glide_emodel>
-59.6251002948797

> <r_i_glide_energy>
-42.0627255439758

> <r_i_glide_einternal>
3.74241781234741

> <i_i_glide_confnum>
3

> <i_i_glide_posenum>
51

> <r_i_glide_eff_state_penalty>
0

> <s_user_duplicate_titles>
CHEMBL258_lig817

> <s_m_subgroup_title>
dock_pv

> <s_m_subgroupid>
dock_pv

> <b_m_subgroup_collapsed>
1

$$$$
CHEMBL258_lig544
                    3D
 Schrodinger Suite 2021-1.
 46 49  0  0  1  0            999 V2000
   26.1532   37.7994   83.9299 C   0  0  0  0  0  0
   22.5650   37.2417   84.4861 C   0  0  0  0  0  0
   24.7404   37.6691   84.2238 C   0  0  0  0  0  0
   26.9199   37.0206   82.9839 C   0  0  0  0  0  0
   23.7291   36.7604   83.8961 N   0  0  0  0  0  0
   22.7586   38.3053   85.2196 N   0  0  0  0  0  0
   26.8815   38.8156   84.6458 C   0  0  0  0  0  0
   28.2598   37.1074   82.8871 N   0  0  0  0  0  0
   21.3475   36.6229   84.2784 N   0  0  0  0  0  0
   24.0898   38.5851   85.0876 C   0  0  0  0  0  0
   28.3084   38.9127   84.4841 C   0  0  0  0  0  0
   28.9347   38.0163   83.6149 C   0  0  0  0  0  0
   20.1807   36.8482   85.0284 C   0  0  0  0  0  0
   26.1654   39.7058   85.4963 C   0  0  0  0  0  0
   26.2971   36.2108   82.0869 O   0  0  0  0  0  0
   24.7957   39.6174   85.6984 C   0  0  0  0  0  0
   20.0338   36.2347   86.2834 C   0  0  0  0  0  0
   19.1182   37.6062   84.5080 C   0  0  0  0  0  0
   23.7945   35.5625   83.0774 C   0  0  0  0  0  0
   19.1444   38.2206   82.8927 Cl  0  0  0  0  0  0
   21.2371   35.1442   86.8876 Cl  0  0  0  0  0  0
   29.1216   39.9564   85.2689 C   0  0  0  0  0  0
   30.4372   38.0058   83.3764 C   0  0  0  0  0  0
   29.7989   41.4210   83.4180 O   0  0  0  0  0  0
   17.8641   37.2747   86.5468 C   0  0  0  0  0  0
   17.9771   37.8333   85.2783 C   0  0  0  0  0  0
   18.8786   36.4542   87.0354 C   0  0  0  0  0  0
   29.1092   41.3704   84.6521 C   0  0  0  0  0  0
   21.2718   35.8278   83.6616 H   0  0  0  0  0  0
   26.6845   40.5011   86.0070 H   0  0  0  0  0  0
   26.9501   35.8601   81.4703 H   0  0  0  0  0  0
   24.2948   40.3192   86.3507 H   0  0  0  0  0  0
   22.9238   34.9316   83.2359 H   0  0  0  0  0  0
   23.8390   35.8204   82.0224 H   0  0  0  0  0  0
   24.6776   35.0206   83.3861 H   0  0  0  0  0  0
   30.1551   39.6352   85.3935 H   0  0  0  0  0  0
   28.7518   39.9964   86.2941 H   0  0  0  0  0  0
   30.7732   38.9697   82.9951 H   0  0  0  0  0  0
   30.9697   37.7965   84.3039 H   0  0  0  0  0  0
   30.7387   37.2480   82.6506 H   0  0  0  0  0  0
   30.1114   42.3323   83.2861 H   0  0  0  0  0  0
   16.9739   37.4547   87.1344 H   0  0  0  0  0  0
   17.1644   38.4315   84.8890 H   0  0  0  0  0  0
   18.7582   35.9747   87.9954 H   0  0  0  0  0  0
   29.5668   42.0824   85.3420 H   0  0  0  0  0  0
   28.0885   41.7132   84.4782 H   0  0  0  0  0  0
  1  3  2  0  0  0
  1  4  1  0  0  0
  1  7  1  0  0  0
  2  5  1  0  0  0
  2  9  1  0  0  0
  2  6  2  0  0  0
  3  5  1  0  0  0
  3 10  1  0  0  0
  4  8  2  0  0  0
  4 15  1  0  0  0
  5 19  1  0  0  0
  6 10  1  0  0  0
  7 11  1  0  0  0
  7 14  2  0  0  0
  8 12  1  0  0  0
  9 13  1  0  0  0
  9 29  1  0  0  0
 10 16  2  0  0  0
 11 12  2  0  0  0
 11 22  1  0  0  0
 12 23  1  0  0  0
 13 17  2  0  0  0
 13 18  1  0  0  0
 14 16  1  0  0  0
 14 30  1  0  0  0
 15 31  1  0  0  0
 16 32  1  0  0  0
 17 21  1  0  0  0
 17 27  1  0  0  0
 18 20  1  0  0  0
 18 26  2  0  0  0
 19 33  1  0  0  0
 19 34  1  0  0  0
 19 35  1  0  0  0
 22 28  1  0  0  0
 22 36  1  0  0  0
 22 37  1  0  0  0
 23 38  1  0  0  0
 23 39  1  0  0  0
 23 40  1  0  0  0
 24 28  1  0  0  0
 24 41  1  0  0  0
 25 26  1  0  0  0
 25 27  2  0  0  0
 25 42  1  0  0  0
 26 43  1  0  0  0
 27 44  1  0  0  0
 28 45  1  0  0  0
 28 46  1  0  0  0
M  END
> <s_m_entry_id>
4627

> <s_m_entry_name>
dock_pv.115

> <s_m_Source_Path>
/home/csk/Desktop/cluster/DUD-E-result/lck

> <s_m_Source_File>
dock_pv.maegz

> <i_m_Source_File_Index>
115

> <chembl_id>
CHEMBL27079

> <chembl_pref_name>
None

> <i_lp_mmshare_version>
53161

> <i_f3d_flags>
0

> <r_lp_tautomer_probability>
1

> <s_lp_Force_Field>
OPLS_2005

> <r_lp_Energy>
26.99745

> <b_lp_Chiralities_Consistent>
1

> <s_lp_Variant>
CHEMBL258_lig544-1

> <s_i_glide_gridfile>
glide-grid_2of2

> <i_i_glide_lignum>
616

> <i_i_glide_rotatable_bonds>
6

> <r_i_docking_score>
-7.48090397775292

> <r_i_glide_ligand_efficiency>
-0.267175142062604

> <r_i_glide_ligand_efficiency_sa>
-0.811301089045477

> <r_i_glide_ligand_efficiency_ln>
-1.7268122869505

> <r_i_glide_gscore>
-7.48090397775292

> <r_i_glide_lipo>
-3.06567579801506

> <r_i_glide_hbond>
-0.437662171067761

> <r_i_glide_metal>
0

> <r_i_glide_rewards>
-1.10623267376335

> <r_i_glide_evdw>
-41.2453193664551

> <r_i_glide_ecoul>
-8.42046356201172

> <r_i_glide_erotb>
0.454002167717763

> <r_i_glide_esite>
0

> <r_i_glide_emodel>
-71.2527518931722

> <r_i_glide_energy>
-49.6657829284668

> <r_i_glide_einternal>
2.05044841766357

> <i_i_glide_confnum>
16

> <i_i_glide_posenum>
376

> <r_i_glide_eff_state_penalty>
0

> <s_user_duplicate_titles>
CHEMBL258_lig544,37576

> <s_m_subgroup_title>
dock_pv

> <s_m_subgroupid>
dock_pv

> <b_m_subgroup_collapsed>
1

$$$$
CHEMBL258_lig943
                    3D
 Schrodinger Suite 2021-1.
 34 37  0  0  1  0            999 V2000
   22.5132   37.0203   85.1842 N   0  0  0  0  0  0
   21.1557   37.0450   85.5527 C   0  0  0  0  0  0
   20.2448   37.9560   84.9853 C   0  0  0  0  0  0
   18.9169   37.9838   85.4123 C   0  0  0  0  0  0
   18.4716   37.0797   86.3723 C   0  0  0  0  0  0
   19.3512   36.1310   86.8871 C   0  0  0  0  0  0
   20.6896   36.1104   86.4872 C   0  0  0  0  0  0
   29.6469   38.3983   83.7420 C   0  0  0  0  0  0
   29.2677   39.4262   84.6012 C   0  0  0  0  0  0
   27.9452   39.5448   85.0285 C   0  0  0  0  0  0
   28.7125   37.4697   83.2870 C   0  0  0  0  0  0
   27.3562   37.5858   83.6942 C   0  0  0  0  0  0
   26.9714   38.6203   84.5858 C   0  0  0  0  0  0
   25.6943   38.7272   85.0380 N   0  0  0  0  0  0
   24.7349   37.8361   84.6457 C   0  0  0  0  0  0
   26.3895   36.7266   83.3006 N   0  0  0  0  0  0
   25.0575   36.7974   83.7367 C   0  0  0  0  0  0
   24.4301   35.7169   83.0604 C   0  0  0  0  0  0
   25.2957   35.0276   82.3508 N   0  0  0  0  0  0
   26.4609   35.6211   82.4842 C   0  0  0  0  0  0
   23.3691   38.0610   85.2690 C   0  0  0  0  0  0
   23.0760   39.1282   85.8169 O   0  0  0  0  0  0
   20.7129   39.0206   83.7126 Cl  0  0  0  0  0  0
   21.7489   34.9536   87.2190 Cl  0  0  0  0  0  0
   22.8859   36.1330   84.8870 H   0  0  0  0  0  0
   18.2230   38.6969   84.9931 H   0  0  0  0  0  0
   17.4419   37.1006   86.6992 H   0  0  0  0  0  0
   18.9968   35.4142   87.6130 H   0  0  0  0  0  0
   30.6779   38.3175   83.4290 H   0  0  0  0  0  0
   30.0080   40.1310   84.9504 H   0  0  0  0  0  0
   27.6569   40.3328   85.7092 H   0  0  0  0  0  0
   29.0268   36.6792   82.6213 H   0  0  0  0  0  0
   23.3933   35.4176   83.0805 H   0  0  0  0  0  0
   27.3797   35.3024   82.0156 H   0  0  0  0  0  0
  1  2  1  0  0  0
  1 21  1  0  0  0
  1 25  1  0  0  0
  2  3  2  0  0  0
  2  7  1  0  0  0
  3 23  1  0  0  0
  3  4  1  0  0  0
  4  5  2  0  0  0
  4 26  1  0  0  0
  5  6  1  0  0  0
  5 27  1  0  0  0
  6  7  2  0  0  0
  6 28  1  0  0  0
  7 24  1  0  0  0
  8  9  2  0  0  0
  8 11  1  0  0  0
  8 29  1  0  0  0
  9 10  1  0  0  0
  9 30  1  0  0  0
 10 13  2  0  0  0
 10 31  1  0  0  0
 11 12  2  0  0  0
 11 32  1  0  0  0
 12 16  1  0  0  0
 12 13  1  0  0  0
 13 14  1  0  0  0
 14 15  2  0  0  0
 15 17  1  0  0  0
 15 21  1  0  0  0
 16 20  1  0  0  0
 16 17  1  0  0  0
 17 18  2  0  0  0
 18 19  1  0  0  0
 18 33  1  0  0  0
 19 20  2  0  0  0
 20 34  1  0  0  0
 21 22  2  0  0  0
M  END
> <s_m_entry_id>
4628

> <s_m_entry_name>
dock_pv.116

> <s_m_Source_Path>
/home/csk/Desktop/cluster/DUD-E-result/lck

> <s_m_Source_File>
dock_pv.maegz

> <i_m_Source_File_Index>
116

> <chembl_id>
CHEMBL405503

> <chembl_pref_name>
None

> <i_lp_mmshare_version>
53161

> <i_f3d_flags>
0

> <r_lp_tautomer_probability>
1

> <s_lp_Force_Field>
OPLS_2005

> <r_lp_Energy>
68.347383

> <b_lp_Chiralities_Consistent>
1

> <s_lp_Variant>
CHEMBL258_lig943-1

> <s_i_glide_gridfile>
glide-grid_2of2

> <i_i_glide_lignum>
1031

> <i_i_glide_rotatable_bonds>
3

> <r_i_docking_score>
-7.47530806611243

> <r_i_glide_ligand_efficiency>
-0.311471169421351

> <r_i_glide_ligand_efficiency_sa>
-0.898438319570418

> <r_i_glide_ligand_efficiency_ln>
-1.78918423975641

> <r_i_glide_gscore>
-7.47530806611243

> <r_i_glide_lipo>
-2.7957922046859

> <r_i_glide_hbond>
-0.237826125265578

> <r_i_glide_metal>
0

> <r_i_glide_rewards>
-2.66303737604874

> <r_i_glide_evdw>
-36.5814552307129

> <r_i_glide_ecoul>
-2.66436505317688

> <r_i_glide_erotb>
0.450075159399964

> <r_i_glide_esite>
0

> <r_i_glide_emodel>
-57.1954468137332

> <r_i_glide_energy>
-39.2458202838898

> <r_i_glide_einternal>
0.242419004440308

> <i_i_glide_confnum>
7

> <i_i_glide_posenum>
24

> <r_i_glide_eff_state_penalty>
0

> <s_user_duplicate_titles>
CHEMBL258_lig943,441186

> <s_m_subgroup_title>
dock_pv

> <s_m_subgroupid>
dock_pv

> <b_m_subgroup_collapsed>
1

$$$$
CHEMBL258_lig620
                    3D
 Schrodinger Suite 2021-1.
 62 65  0  0  1  0            999 V2000
   27.0559   41.4715   85.6802 C   0  0  0  0  0  0
   26.4014   40.8639   86.9435 C   0  0  0  0  0  0
   27.2968   41.6151   87.8285 N   0  0  1  0  0  0
   27.7880   42.3881   86.6825 C   0  0  0  0  0  0
   27.3448   38.2771   84.2745 C   0  0  0  0  0  0
   27.8692   37.4084   83.3004 C   0  0  0  0  0  0
   27.0230   36.4692   82.6857 C   0  0  0  0  0  0
   25.9930   38.2154   84.6134 C   0  0  0  0  0  0
   25.1298   37.2680   84.0158 C   0  0  0  0  0  0
   25.6605   36.3678   83.0445 C   0  0  0  0  0  0
   24.8819   35.4225   82.4411 N   0  0  0  0  0  0
   23.5690   35.4211   82.7801 C   0  0  0  0  0  0
   22.9574   36.2231   83.6819 N   0  0  0  0  0  0
   23.7374   37.1436   84.2984 C   0  0  0  0  0  0
   23.1128   38.0265   85.1961 N   0  0  0  0  0  0
   21.7528   38.1545   85.5153 C   0  0  0  0  0  0
   21.1435   39.3912   85.2894 C   0  0  0  0  0  0
   19.8085   39.5933   85.6345 C   0  0  0  0  0  0
   19.0756   38.5638   86.2235 C   0  0  0  0  0  0
   19.6848   37.3351   86.4868 C   0  0  0  0  0  0
   21.0258   37.1272   86.1398 C   0  0  0  0  0  0
   29.2208   37.4942   83.0150 O   0  0  0  0  0  0
   28.2310   39.2772   85.0262 C   0  0  0  0  0  0
   29.8551   36.4263   82.3132 C   0  0  0  0  0  0
   18.7791   36.0975   87.2864 Cl  0  0  0  0  0  0
   21.6209   35.9447   86.4362 F   0  0  0  0  0  0
   27.8611   40.6668   84.7155 N   0  0  2  0  0  0
   25.9552   42.2088   84.8539 C   0  0  0  0  0  0
   26.1476   43.4775   84.4814 N   0  0  0  0  0  0
   24.9155   41.6272   84.5445 O   0  0  0  0  0  0
   28.9399   41.3942   84.0394 C   0  0  0  0  0  0
   26.7916   42.3348   89.0023 C   0  0  0  0  0  0
   27.9715   42.9752   89.7542 C   0  0  0  0  0  0
   25.9601   41.4278   89.9280 C   0  0  0  0  0  0
   26.4801   39.7890   87.0880 H   0  0  0  0  0  0
   25.3530   41.1439   87.0789 H   0  0  0  0  0  0
   27.4314   43.4191   86.6909 H   0  0  0  0  0  0
   28.8762   42.3989   86.6182 H   0  0  0  0  0  0
   27.3947   35.7877   81.9362 H   0  0  0  0  0  0
   25.5899   38.8980   85.3424 H   0  0  0  0  0  0
   22.9491   34.6791   82.2981 H   0  0  0  0  0  0
   23.6737   38.8309   85.4303 H   0  0  0  0  0  0
   21.7012   40.2015   84.8403 H   0  0  0  0  0  0
   19.3503   40.5540   85.4537 H   0  0  0  0  0  0
   18.0401   38.7275   86.4909 H   0  0  0  0  0  0
   29.2776   39.0959   84.7758 H   0  0  0  0  0  0
   28.1842   39.0693   86.0948 H   0  0  0  0  0  0
   30.9312   36.5999   82.2887 H   0  0  0  0  0  0
   29.6887   35.4660   82.8037 H   0  0  0  0  0  0
   29.5119   36.3585   81.2805 H   0  0  0  0  0  0
   25.4227   43.9478   83.9541 H   0  0  0  0  0  0
   27.0260   43.9442   84.6478 H   0  0  0  0  0  0
   29.2887   40.8388   83.1678 H   0  0  0  0  0  0
   28.6132   42.3727   83.6881 H   0  0  0  0  0  0
   29.7923   41.5441   84.7038 H   0  0  0  0  0  0
   26.1311   43.1294   88.6495 H   0  0  0  0  0  0
   27.6227   43.5599   90.6066 H   0  0  0  0  0  0
   28.5411   43.6488   89.1117 H   0  0  0  0  0  0
   28.6612   42.2207   90.1359 H   0  0  0  0  0  0
   25.5576   41.9990   90.7652 H   0  0  0  0  0  0
   25.1093   40.9891   89.4074 H   0  0  0  0  0  0
   26.5499   40.6189   90.3511 H   0  0  0  0  0  0
  1  4  1  0  0  0
  1  2  1  0  0  0
  1 27  1  0  0  0
  1 28  1  0  0  0
  2  3  1  0  0  0
  2 35  1  0  0  0
  2 36  1  0  0  0
  3 32  1  0  0  0
  3  4  1  0  0  0
  4 37  1  0  0  0
  4 38  1  0  0  0
  5  8  2  0  0  0
  5 23  1  0  0  0
  5  6  1  0  0  0
  6 22  1  0  0  0
  6  7  2  0  0  0
  7 10  1  0  0  0
  7 39  1  0  0  0
  8  9  1  0  0  0
  8 40  1  0  0  0
  9 10  1  0  0  0
  9 14  2  0  0  0
 10 11  2  0  0  0
 11 12  1  0  0  0
 12 13  2  0  0  0
 12 41  1  0  0  0
 13 14  1  0  0  0
 14 15  1  0  0  0
 15 16  1  0  0  0
 15 42  1  0  0  0
 16 17  2  0  0  0
 16 21  1  0  0  0
 17 18  1  0  0  0
 17 43  1  0  0  0
 18 19  2  0  0  0
 18 44  1  0  0  0
 19 20  1  0  0  0
 19 45  1  0  0  0
 20 21  2  0  0  0
 20 25  1  0  0  0
 21 26  1  0  0  0
 22 24  1  0  0  0
 23 27  1  0  0  0
 23 46  1  0  0  0
 23 47  1  0  0  0
 24 48  1  0  0  0
 24 49  1  0  0  0
 24 50  1  0  0  0
 27 31  1  0  0  0
 28 29  1  0  0  0
 28 30  2  0  0  0
 29 51  1  0  0  0
 29 52  1  0  0  0
 31 53  1  0  0  0
 31 54  1  0  0  0
 31 55  1  0  0  0
 32 33  1  0  0  0
 32 34  1  0  0  0
 32 56  1  0  0  0
 33 57  1  0  0  0
 33 58  1  0  0  0
 33 59  1  0  0  0
 34 60  1  0  0  0
 34 61  1  0  0  0
 34 62  1  0  0  0
M  END
> <s_m_entry_id>
4629

> <s_m_entry_name>
dock_pv.117

> <s_m_Source_Path>
/home/csk/Desktop/cluster/DUD-E-result/lck

> <s_m_Source_File>
dock_pv.maegz

> <i_m_Source_File_Index>
117

> <chembl_id>
CHEMBL425601

> <chembl_pref_name>
None

> <i_lp_mmshare_version>
53161

> <i_f3d_flags>
0

> <r_lp_tautomer_probability>
0.999978000241998

> <s_lp_Force_Field>
OPLS_2005

> <r_lp_Energy>
45.065712

> <b_lp_Chiralities_Consistent>
1

> <s_lp_Variant>
CHEMBL258_lig620-1

> <s_i_glide_gridfile>
glide-grid_2of2

> <i_i_glide_lignum>
699

> <i_i_glide_rotatable_bonds>
8

> <r_i_docking_score>
-7.47410011117331

> <r_i_glide_ligand_efficiency>
-0.219826473858038

> <r_i_glide_ligand_efficiency_sa>
-0.712152438106615

> <r_i_glide_ligand_efficiency_ln>
-1.65123835596527

> <r_i_glide_gscore>
-7.47410011117331

> <r_i_glide_lipo>
-3.1615859630391

> <r_i_glide_hbond>
-0.197835184733085

> <r_i_glide_metal>
0

> <r_i_glide_rewards>
-1.52027966245521

> <r_i_glide_evdw>
-45.1901779174805

> <r_i_glide_ecoul>
-5.00347995758057

> <r_i_glide_erotb>
0.428567510565929

> <r_i_glide_esite>
-0.0129359220007239

> <r_i_glide_emodel>
-66.5374588716989

> <r_i_glide_energy>
-50.193657875061

> <r_i_glide_einternal>
13.1830406188965

> <i_i_glide_confnum>
165

> <i_i_glide_posenum>
352

> <r_i_glide_eff_state_penalty>
0

> <s_user_duplicate_titles>
CHEMBL258_lig620

> <s_m_subgroup_title>
dock_pv

> <s_m_subgroupid>
dock_pv

> <b_m_subgroup_collapsed>
1

$$$$
CHEMBL258_lig639
                    3D
 Schrodinger Suite 2021-1.
 48 51  0  0  1  0            999 V2000
   27.5621   37.9047   84.1388 C   0  0  0  0  0  0
   28.0285   37.0228   83.1504 C   0  0  0  0  0  0
   27.1176   36.1924   82.4874 C   0  0  0  0  0  0
   26.2103   37.9401   84.4894 C   0  0  0  0  0  0
   25.2764   37.0870   83.8447 C   0  0  0  0  0  0
   25.7501   36.2044   82.8257 C   0  0  0  0  0  0
   24.9163   35.3683   82.1532 N   0  0  0  0  0  0
   23.6091   35.4209   82.4899 C   0  0  0  0  0  0
   23.0475   36.2099   83.4317 N   0  0  0  0  0  0
   23.8727   37.0366   84.1155 C   0  0  0  0  0  0
   23.2870   37.9007   85.0618 N   0  0  0  0  0  0
   21.9761   38.0526   85.5617 C   0  0  0  0  0  0
   20.9926   37.0538   85.4583 C   0  0  0  0  0  0
   19.6946   37.2795   85.9176 C   0  0  0  0  0  0
   19.3583   38.5044   86.4870 C   0  0  0  0  0  0
   20.3259   39.5000   86.6189 C   0  0  0  0  0  0
   21.6295   39.2753   86.1597 C   0  0  0  0  0  0
   29.3865   37.0189   82.8842 O   0  0  0  0  0  0
   28.5367   38.8272   84.8601 C   0  0  0  0  0  0
   29.9209   36.0767   81.9561 C   0  0  0  0  0  0
   19.8920   41.0029   87.3513 Cl  0  0  0  0  0  0
   22.5591   40.2537   86.2872 F   0  0  0  0  0  0
   28.6659   40.0965   84.1572 N   0  0  2  0  0  0
   29.8591   40.9223   84.3741 C   0  0  2  0  0  0
   28.9817   42.1710   84.2717 C   0  0  0  0  0  0
   27.8233   41.2259   84.5510 C   0  0  0  0  0  0
   30.9426   40.8738   83.2738 C   0  0  0  0  0  0
   30.6583   41.0210   82.0869 O   0  0  0  0  0  0
   32.2036   40.6606   83.6492 N   0  0  0  0  0  0
   27.4385   35.5117   81.7135 H   0  0  0  0  0  0
   25.8741   38.6211   85.2573 H   0  0  0  0  0  0
   22.9514   34.7521   81.9588 H   0  0  0  0  0  0
   23.9237   38.6011   85.4105 H   0  0  0  0  0  0
   21.2112   36.0875   85.0355 H   0  0  0  0  0  0
   18.9506   36.5016   85.8282 H   0  0  0  0  0  0
   18.3475   38.6803   86.8305 H   0  0  0  0  0  0
   29.5169   38.3485   84.8926 H   0  0  0  0  0  0
   28.2322   38.9924   85.8940 H   0  0  0  0  0  0
   31.0010   36.2076   81.8956 H   0  0  0  0  0  0
   29.7305   35.0498   82.2712 H   0  0  0  0  0  0
   29.5188   36.2202   80.9530 H   0  0  0  0  0  0
   30.2913   40.7875   85.3694 H   0  0  0  0  0  0
   29.1719   42.9291   85.0323 H   0  0  0  0  0  0
   28.9495   42.6386   83.2884 H   0  0  0  0  0  0
   27.5415   41.2102   85.6064 H   0  0  0  0  0  0
   26.9305   41.3410   83.9364 H   0  0  0  0  0  0
   32.9175   40.6351   82.9378 H   0  0  0  0  0  0
   32.4474   40.5320   84.6195 H   0  0  0  0  0  0
  1  2  1  0  0  0
  1 19  1  0  0  0
  1  4  2  0  0  0
  2 18  1  0  0  0
  2  3  2  0  0  0
  3  6  1  0  0  0
  3 30  1  0  0  0
  4  5  1  0  0  0
  4 31  1  0  0  0
  5 10  2  0  0  0
  5  6  1  0  0  0
  6  7  2  0  0  0
  7  8  1  0  0  0
  8  9  2  0  0  0
  8 32  1  0  0  0
  9 10  1  0  0  0
 10 11  1  0  0  0
 11 12  1  0  0  0
 11 33  1  0  0  0
 12 17  2  0  0  0
 12 13  1  0  0  0
 13 14  2  0  0  0
 13 34  1  0  0  0
 14 15  1  0  0  0
 14 35  1  0  0  0
 15 16  2  0  0  0
 15 36  1  0  0  0
 16 17  1  0  0  0
 16 21  1  0  0  0
 17 22  1  0  0  0
 18 20  1  0  0  0
 19 23  1  0  0  0
 19 37  1  0  0  0
 19 38  1  0  0  0
 20 39  1  0  0  0
 20 40  1  0  0  0
 20 41  1  0  0  0
 23 24  1  0  0  0
 23 26  1  0  0  0
 24 25  1  0  0  0
 24 27  1  0  0  0
 24 42  1  0  0  0
 25 26  1  0  0  0
 25 43  1  0  0  0
 25 44  1  0  0  0
 26 45  1  0  0  0
 26 46  1  0  0  0
 27 28  2  0  0  0
 27 29  1  0  0  0
 29 47  1  0  0  0
 29 48  1  0  0  0
M  END
> <s_m_entry_id>
4630

> <s_m_entry_name>
dock_pv.118

> <s_m_Source_Path>
/home/csk/Desktop/cluster/DUD-E-result/lck

> <s_m_Source_File>
dock_pv.maegz

> <i_m_Source_File_Index>
118

> <chembl_id>
CHEMBL207246

> <chembl_pref_name>
None

> <i_lp_mmshare_version>
53161

> <i_f3d_flags>
0

> <r_lp_tautomer_probability>
0.999978000241998

> <s_lp_Force_Field>
OPLS_2005

> <r_lp_Energy>
27.861415

> <b_lp_Chiralities_Consistent>
1

> <s_lp_Variant>
CHEMBL258_lig639-1

> <s_i_glide_gridfile>
glide-grid_2of2

> <i_i_glide_lignum>
719

> <i_i_glide_rotatable_bonds>
6

> <r_i_docking_score>
-7.46843994971589

> <r_i_glide_ligand_efficiency>
-0.257532412059169

> <r_i_glide_ligand_efficiency_sa>
-0.791221161840753

> <r_i_glide_ligand_efficiency_ln>
-1.71008336518825

> <r_i_glide_gscore>
-7.46843994971589

> <r_i_glide_lipo>
-2.55822861418257

> <r_i_glide_hbond>
-0.469192438789629

> <r_i_glide_metal>
0

> <r_i_glide_rewards>
-1.53043503176424

> <r_i_glide_evdw>
-39.4406585693359

> <r_i_glide_ecoul>
-8.94181728363037

> <r_i_glide_erotb>
0.456845352757372

> <r_i_glide_esite>
-0.0541236967254681

> <r_i_glide_emodel>
-68.8285583155161

> <r_i_glide_energy>
-48.3824758529663

> <r_i_glide_einternal>
3.21493077278137

> <i_i_glide_confnum>
6

> <i_i_glide_posenum>
298

> <r_i_glide_eff_state_penalty>
0

> <s_user_duplicate_titles>
CHEMBL258_lig639

> <s_m_subgroup_title>
dock_pv

> <s_m_subgroupid>
dock_pv

> <b_m_subgroup_collapsed>
1

$$$$
CHEMBL258_lig130
                    3D
 Schrodinger Suite 2021-1.
 33 35  0  0  1  0            999 V2000
   24.0901   36.7925   83.7226 C   0  0  0  0  0  0
   26.3168   36.4521   83.0436 C   0  0  0  0  0  0
   26.3143   37.5415   83.8925 C   0  0  0  0  0  0
   24.9501   35.9475   82.8870 C   0  0  0  0  0  0
   24.9426   37.8293   84.3229 C   0  0  0  0  0  0
   22.7456   36.6198   83.8397 C   0  0  0  0  0  0
   27.5115   35.9918   82.4871 C   0  0  0  0  0  0
   27.5060   38.1962   84.2134 C   0  0  0  0  0  0
   19.8568   38.8441   86.1139 C   0  0  0  0  0  0
   21.0746   38.4854   86.6989 C   0  0  0  0  0  0
   19.5599   38.4448   84.8030 C   0  0  0  0  0  0
   21.7559   37.3690   84.6533 C   0  0  0  0  0  0
   28.7121   37.7285   83.6839 C   0  0  0  0  0  0
   28.7138   36.6223   82.8154 C   0  0  0  0  0  0
   22.0029   37.7373   85.9791 C   0  0  0  0  0  0
   20.5240   37.7124   84.0839 C   0  0  0  0  0  0
   24.5653   38.7559   85.0365 O   0  0  0  0  0  0
   24.5578   35.0205   82.1804 O   0  0  0  0  0  0
   21.5020   39.0212   88.4753 Br  0  0  0  0  0  0
   18.9494   39.5725   86.8455 O   0  0  0  0  0  0
   30.1731   36.0334   82.0985 Cl  0  0  0  0  0  0
   30.1801   38.5362   84.1117 Cl  0  0  0  0  0  0
   18.3312   38.8147   84.2833 O   0  0  0  0  0  0
   17.8863   38.2242   83.0677 C   0  0  0  0  0  0
   22.3009   35.8068   83.2799 H   0  0  0  0  0  0
   27.5276   35.1432   81.8176 H   0  0  0  0  0  0
   27.5110   39.0488   84.8777 H   0  0  0  0  0  0
   22.9300   37.4590   86.4584 H   0  0  0  0  0  0
   20.3324   37.4211   83.0631 H   0  0  0  0  0  0
   18.0828   39.6628   86.4239 H   0  0  0  0  0  0
   16.8566   38.5263   82.8865 H   0  0  0  0  0  0
   18.4868   38.5517   82.2172 H   0  0  0  0  0  0
   17.9009   37.1333   83.1170 H   0  0  0  0  0  0
  1  4  1  0  0  0
  1  5  1  0  0  0
  1  6  2  0  0  0
  2  4  1  0  0  0
  2  7  2  0  0  0
  2  3  1  0  0  0
  3  5  1  0  0  0
  3  8  2  0  0  0
  4 18  2  0  0  0
  5 17  2  0  0  0
  6 12  1  0  0  0
  6 25  1  0  0  0
  7 14  1  0  0  0
  7 26  1  0  0  0
  8 13  1  0  0  0
  8 27  1  0  0  0
  9 11  1  0  0  0
  9 20  1  0  0  0
  9 10  2  0  0  0
 10 15  1  0  0  0
 10 19  1  0  0  0
 11 16  2  0  0  0
 11 23  1  0  0  0
 12 15  2  0  0  0
 12 16  1  0  0  0
 13 22  1  0  0  0
 13 14  2  0  0  0
 14 21  1  0  0  0
 15 28  1  0  0  0
 16 29  1  0  0  0
 20 30  1  0  0  0
 23 24  1  0  0  0
 24 31  1  0  0  0
 24 32  1  0  0  0
 24 33  1  0  0  0
M  END
> <s_m_entry_id>
4631

> <s_m_entry_name>
dock_pv.119

> <s_m_Source_Path>
/home/csk/Desktop/cluster/DUD-E-result/lck

> <s_m_Source_File>
dock_pv.maegz

> <i_m_Source_File_Index>
119

> <chembl_id>
CHEMBL309230

> <chembl_pref_name>
None

> <i_lp_mmshare_version>
53161

> <i_f3d_flags>
0

> <r_lp_tautomer_probability>
1

> <s_lp_Force_Field>
OPLS_2005

> <r_lp_Energy>
33.048927

> <b_lp_Chiralities_Consistent>
1

> <s_lp_Variant>
CHEMBL258_lig130-1

> <s_i_glide_gridfile>
glide-grid_2of2

> <i_i_glide_lignum>
151

> <i_i_glide_rotatable_bonds>
3

> <r_i_docking_score>
-7.46388337358989

> <r_i_glide_ligand_efficiency>
-0.310995140566245

> <r_i_glide_ligand_efficiency_sa>
-0.897065214748412

> <r_i_glide_ligand_efficiency_ln>
-1.78644978659078

> <r_i_glide_gscore>
-7.46388337358989

> <r_i_glide_lipo>
-3.367909180413

> <r_i_glide_hbond>
-0.437045329246837

> <r_i_glide_metal>
0

> <r_i_glide_rewards>
-1.19908273709125

> <r_i_glide_evdw>
-38.6007080078125

> <r_i_glide_ecoul>
-4.25465202331543

> <r_i_glide_erotb>
0.108387077049146

> <r_i_glide_esite>
0

> <r_i_glide_emodel>
-62.0183414770415

> <r_i_glide_energy>
-42.8553600311279

> <r_i_glide_einternal>
0.829593658447266

> <i_i_glide_confnum>
3

> <i_i_glide_posenum>
317

> <r_i_glide_eff_state_penalty>
0

> <s_user_duplicate_titles>
CHEMBL258_lig130

> <s_m_subgroup_title>
dock_pv

> <s_m_subgroupid>
dock_pv

> <b_m_subgroup_collapsed>
1

$$$$
CHEMBL258_lig212
                    3D
 Schrodinger Suite 2021-1.
 32 35  0  0  1  0            999 V2000
   24.7307   36.6963   83.6668 C   0  0  0  0  0  0
   24.2138   37.6783   84.5330 C   0  0  0  0  0  0
   26.0903   36.8035   83.3477 N   0  0  0  0  0  0
   24.9986   38.6728   85.0258 N   0  0  0  0  0  0
   26.9046   37.7656   83.8354 C   0  0  0  0  0  0
   22.8480   37.6372   84.8610 N   0  0  0  0  0  0
   26.3174   38.7241   84.7030 C   0  0  0  0  0  0
   25.2915   35.0232   82.2579 N   0  0  0  0  0  0
   26.3569   35.7597   82.4871 C   0  0  0  0  0  0
   24.2966   35.5630   82.9266 C   0  0  0  0  0  0
   21.9888   38.5132   85.5587 C   0  0  0  0  0  0
   20.6124   38.5054   85.2592 C   0  0  0  0  0  0
   19.9429   37.4210   84.0867 Cl  0  0  0  0  0  0
   28.2907   37.8394   83.5297 C   0  0  0  0  0  0
   27.1275   39.7477   85.2459 C   0  0  0  0  0  0
   22.4567   39.4195   86.5224 C   0  0  0  0  0  0
   19.7434   39.3905   85.9027 C   0  0  0  0  0  0
   29.0595   38.8615   84.0842 C   0  0  0  0  0  0
   28.4857   39.8052   84.9332 C   0  0  0  0  0  0
   21.5861   40.3070   87.1558 C   0  0  0  0  0  0
   20.2298   40.2972   86.8409 C   0  0  0  0  0  0
   22.3520   36.9067   84.3732 H   0  0  0  0  0  0
   27.3377   35.5834   82.0709 H   0  0  0  0  0  0
   23.3030   35.1403   82.8748 H   0  0  0  0  0  0
   28.7564   37.1110   82.8817 H   0  0  0  0  0  0
   26.6833   40.4776   85.9073 H   0  0  0  0  0  0
   23.4981   39.4476   86.8027 H   0  0  0  0  0  0
   18.6870   39.3842   85.6722 H   0  0  0  0  0  0
   30.1145   38.9215   83.8594 H   0  0  0  0  0  0
   29.1021   40.5858   85.3563 H   0  0  0  0  0  0
   21.9665   41.0087   87.8840 H   0  0  0  0  0  0
   19.5568   40.9963   87.3150 H   0  0  0  0  0  0
  1  2  1  0  0  0
  1  3  1  0  0  0
  1 10  2  0  0  0
  2  4  2  0  0  0
  2  6  1  0  0  0
  3  5  1  0  0  0
  3  9  1  0  0  0
  4  7  1  0  0  0
  5  7  1  0  0  0
  5 14  2  0  0  0
  6 11  1  0  0  0
  6 22  1  0  0  0
  7 15  2  0  0  0
  8 10  1  0  0  0
  8  9  2  0  0  0
  9 23  1  0  0  0
 10 24  1  0  0  0
 11 12  1  0  0  0
 11 16  2  0  0  0
 12 13  1  0  0  0
 12 17  2  0  0  0
 14 18  1  0  0  0
 14 25  1  0  0  0
 15 19  1  0  0  0
 15 26  1  0  0  0
 16 20  1  0  0  0
 16 27  1  0  0  0
 17 21  1  0  0  0
 17 28  1  0  0  0
 18 19  2  0  0  0
 18 29  1  0  0  0
 19 30  1  0  0  0
 20 21  2  0  0  0
 20 31  1  0  0  0
 21 32  1  0  0  0
M  END
> <s_m_entry_id>
4632

> <s_m_entry_name>
dock_pv.120

> <s_m_Source_Path>
/home/csk/Desktop/cluster/DUD-E-result/lck

> <s_m_Source_File>
dock_pv.maegz

> <i_m_Source_File_Index>
120

> <chembl_id>
CHEMBL282607

> <chembl_pref_name>
None

> <i_lp_mmshare_version>
53161

> <i_f3d_flags>
0

> <r_lp_tautomer_probability>
1

> <s_lp_Force_Field>
OPLS_2005

> <r_lp_Energy>
58.683367

> <b_lp_Chiralities_Consistent>
1

> <s_lp_Variant>
CHEMBL258_lig212-1

> <s_i_glide_gridfile>
glide-grid_2of2

> <i_i_glide_lignum>
240

> <i_i_glide_rotatable_bonds>
2

> <r_i_docking_score>
-7.46281237518094

> <r_i_glide_ligand_efficiency>
-0.355372017865759

> <r_i_glide_ligand_efficiency_sa>
-0.980444450704192

> <r_i_glide_ligand_efficiency_ln>
-1.84516527973117

> <r_i_glide_gscore>
-7.46281237518094

> <r_i_glide_lipo>
-2.63542377917135

> <r_i_glide_hbond>
-0.30248313649555

> <r_i_glide_metal>
0

> <r_i_glide_rewards>
-2.94924233267039

> <r_i_glide_evdw>
-33.6086006164551

> <r_i_glide_ecoul>
-2.10931181907654

> <r_i_glide_erotb>
0.421163676840586

> <r_i_glide_esite>
0

> <r_i_glide_emodel>
-51.1447364283697

> <r_i_glide_energy>
-35.7179124355316

> <r_i_glide_einternal>
1.0071040391922

> <i_i_glide_confnum>
1

> <i_i_glide_posenum>
235

> <r_i_glide_eff_state_penalty>
0

> <s_user_duplicate_titles>
CHEMBL258_lig212,39858

> <s_m_subgroup_title>
dock_pv

> <s_m_subgroupid>
dock_pv

> <b_m_subgroup_collapsed>
1

$$$$
CHEMBL258_lig1213
                    3D
 Schrodinger Suite 2021-1.
 66 71  0  0  1  0            999 V2000
   29.4131   35.8662   82.0983 C   0  0  0  0  0  0
   30.7054   36.3756   82.0928 C   0  0  0  0  0  0
   31.0450   37.4712   82.8053 N   0  0  0  0  0  0
   30.0745   38.0544   83.5498 C   0  0  0  0  0  0
   28.7792   37.6135   83.6379 N   0  0  0  0  0  0
   28.4417   36.5206   82.8845 C   0  0  0  0  0  0
   27.0757   36.0873   82.8111 N   0  0  0  0  0  0
   30.5426   39.2099   84.1955 N   0  0  0  0  0  0
   25.3501   34.7547   82.1127 N   0  0  0  0  0  0
   26.6243   34.9937   82.1061 C   0  0  0  0  0  0
   24.8641   35.7211   82.9154 C   0  0  0  0  0  0
   25.9061   36.5713   83.3869 C   0  0  0  0  0  0
   25.6155   37.6181   84.2473 C   0  0  0  0  0  0
   24.2728   37.8732   84.4940 C   0  0  0  0  0  0
   23.2507   37.0218   84.0870 C   0  0  0  0  0  0
   23.5317   35.9176   83.2907 C   0  0  0  0  0  0
   29.8837   40.0728   85.1778 C   0  0  2  0  0  0
   28.3761   40.3639   84.9547 C   0  0  2  0  0  0
   28.0582   40.7707   83.5050 C   0  0  0  0  0  0
   26.5533   40.8957   83.3174 C   0  0  0  0  0  0
   25.9894   41.9874   84.2665 C   0  0  0  0  0  0
   26.2948   41.5691   85.6630 N   0  0  0  0  0  0
   27.7487   41.4040   85.9362 C   0  0  0  0  0  0
   25.3856   40.8485   86.3832 C   0  0  0  0  0  0
   25.6928   39.8390   87.0207 O   0  0  0  0  0  0
   30.7338   41.3416   85.3879 C   0  0  0  0  0  0
   24.1278   41.3567   86.3414 N   0  0  0  0  0  0
   22.8818   40.7495   86.6226 C   0  0  0  0  0  0
   22.7018   39.3842   86.8863 C   0  0  0  0  0  0
   20.4729   41.0224   86.5695 C   0  0  0  0  0  0
   21.7558   41.5645   86.5194 C   0  0  0  0  0  0
   20.2827   39.6267   86.6377 C   0  0  0  0  0  0
   21.4182   38.7897   86.8256 C   0  0  0  0  0  0
   21.2334   37.3848   86.8851 C   0  0  0  0  0  0
   19.9678   36.8328   86.6880 C   0  0  0  0  0  0
   18.8623   37.6541   86.4879 C   0  0  0  0  0  0
   19.0047   39.0388   86.4903 C   0  0  0  0  0  0
   29.2167   35.0120   81.4713 H   0  0  0  0  0  0
   31.4814   35.9187   81.4941 H   0  0  0  0  0  0
   31.5223   39.4022   84.0482 H   0  0  0  0  0  0
   27.3249   34.3318   81.6324 H   0  0  0  0  0  0
   26.3792   38.2423   84.6570 H   0  0  0  0  0  0
   24.0379   38.7835   84.9990 H   0  0  0  0  0  0
   22.2253   37.2563   84.3333 H   0  0  0  0  0  0
   22.7463   35.2642   82.9365 H   0  0  0  0  0  0
   29.9435   39.4903   86.0872 H   0  0  0  0  0  0
   27.8726   39.4363   85.1872 H   0  0  0  0  0  0
   28.5772   41.7010   83.2694 H   0  0  0  0  0  0
   28.4402   40.0534   82.7828 H   0  0  0  0  0  0
   26.3657   41.0211   82.2621 H   0  0  0  0  0  0
   26.0373   39.9682   83.5154 H   0  0  0  0  0  0
   26.5051   42.9341   84.0969 H   0  0  0  0  0  0
   24.9372   42.2220   84.1001 H   0  0  0  0  0  0
   27.9364   41.1744   86.9869 H   0  0  0  0  0  0
   28.2105   42.3805   85.7853 H   0  0  0  0  0  0
   30.3917   41.9217   86.2437 H   0  0  0  0  0  0
   31.7776   41.0935   85.5842 H   0  0  0  0  0  0
   30.7117   41.9910   84.5106 H   0  0  0  0  0  0
   24.0463   42.2724   85.9267 H   0  0  0  0  0  0
   23.5422   38.7257   87.0189 H   0  0  0  0  0  0
   19.6128   41.6698   86.4869 H   0  0  0  0  0  0
   21.8582   42.6301   86.3614 H   0  0  0  0  0  0
   22.0894   36.7392   87.0244 H   0  0  0  0  0  0
   19.8426   35.7588   86.6905 H   0  0  0  0  0  0
   17.8844   37.2180   86.3428 H   0  0  0  0  0  0
   18.1491   39.6779   86.3379 H   0  0  0  0  0  0
  1  6  1  0  0  0
  1  2  2  0  0  0
  1 38  1  0  0  0
  2  3  1  0  0  0
  2 39  1  0  0  0
  3  4  2  0  0  0
  4  5  1  0  0  0
  4  8  1  0  0  0
  5  6  2  0  0  0
  6  7  1  0  0  0
  7 12  1  0  0  0
  7 10  1  0  0  0
  8 17  1  0  0  0
  8 40  1  0  0  0
  9 11  1  0  0  0
  9 10  2  0  0  0
 10 41  1  0  0  0
 11 12  2  0  0  0
 11 16  1  0  0  0
 12 13  1  0  0  0
 13 14  2  0  0  0
 13 42  1  0  0  0
 14 15  1  0  0  0
 14 43  1  0  0  0
 15 16  2  0  0  0
 15 44  1  0  0  0
 16 45  1  0  0  0
 17 18  1  0  0  0
 17 26  1  0  0  0
 17 46  1  0  0  0
 18 19  1  0  0  0
 18 23  1  0  0  0
 18 47  1  0  0  0
 19 20  1  0  0  0
 19 48  1  0  0  0
 19 49  1  0  0  0
 20 21  1  0  0  0
 20 50  1  0  0  0
 20 51  1  0  0  0
 21 22  1  0  0  0
 21 52  1  0  0  0
 21 53  1  0  0  0
 22 23  1  0  0  0
 22 24  1  0  0  0
 23 54  1  0  0  0
 23 55  1  0  0  0
 24 25  2  0  0  0
 24 27  1  0  0  0
 26 56  1  0  0  0
 26 57  1  0  0  0
 26 58  1  0  0  0
 27 28  1  0  0  0
 27 59  1  0  0  0
 28 29  2  0  0  0
 28 31  1  0  0  0
 29 33  1  0  0  0
 29 60  1  0  0  0
 30 32  1  0  0  0
 30 31  2  0  0  0
 30 61  1  0  0  0
 31 62  1  0  0  0
 32 33  1  0  0  0
 32 37  2  0  0  0
 33 34  2  0  0  0
 34 35  1  0  0  0
 34 63  1  0  0  0
 35 36  2  0  0  0
 35 64  1  0  0  0
 36 37  1  0  0  0
 36 65  1  0  0  0
 37 66  1  0  0  0
M  END
> <s_m_entry_id>
4633

> <s_m_entry_name>
dock_pv.121

> <s_m_Source_Path>
/home/csk/Desktop/cluster/DUD-E-result/lck

> <s_m_Source_File>
dock_pv.maegz

> <i_m_Source_File_Index>
121

> <chembl_id>
CHEMBL583850

> <chembl_pref_name>
None

> <i_lp_mmshare_version>
53161

> <i_f3d_flags>
0

> <r_lp_tautomer_probability>
1

> <s_lp_Force_Field>
OPLS_2005

> <r_lp_Energy>
50.189004

> <b_lp_Chiralities_Consistent>
1

> <s_lp_Variant>
CHEMBL258_lig1213-1

> <s_i_glide_gridfile>
glide-grid_2of2

> <i_i_glide_lignum>
1321

> <i_i_glide_rotatable_bonds>
7

> <r_i_docking_score>
-7.45717053319227

> <r_i_glide_ligand_efficiency>
-0.201545149545737

> <r_i_glide_ligand_efficiency_sa>
-0.671593150601201

> <r_i_glide_ligand_efficiency_ln>
-1.61728546776835

> <r_i_glide_gscore>
-7.45717053319227

> <r_i_glide_lipo>
-2.9411176654335

> <r_i_glide_hbond>
-0.32

> <r_i_glide_metal>
0

> <r_i_glide_rewards>
-1.48936671431878

> <r_i_glide_evdw>
-37.9830589294434

> <r_i_glide_ecoul>
-9.31223678588867

> <r_i_glide_erotb>
0.589719297446562

> <r_i_glide_esite>
-0.000416986531086759

> <r_i_glide_emodel>
-65.3176660739076

> <r_i_glide_energy>
-47.295295715332

> <r_i_glide_einternal>
13.2994146347046

> <i_i_glide_confnum>
63

> <i_i_glide_posenum>
303

> <r_i_glide_eff_state_penalty>
0

> <s_user_duplicate_titles>
CHEMBL258_lig1213,580713

> <s_m_subgroup_title>
dock_pv

> <s_m_subgroupid>
dock_pv

> <b_m_subgroup_collapsed>
1

$$$$
CHEMBL258_lig290
                    3D
 Schrodinger Suite 2021-1.
 44 46  0  0  1  0            999 V2000
   25.4740   37.1100   83.8278 C   0  0  0  0  0  0
   24.0705   37.0211   84.1108 C   0  0  0  0  0  0
   25.9591   36.2269   82.8135 C   0  0  0  0  0  0
   26.3962   37.9926   84.4527 C   0  0  0  0  0  0
   23.2595   36.1855   83.4179 N   0  0  0  0  0  0
   27.3278   36.2209   82.4875 C   0  0  0  0  0  0
   23.4574   37.8138   85.0991 N   0  0  0  0  0  0
   27.7578   37.9847   84.0954 C   0  0  0  0  0  0
   28.2274   37.0754   83.1365 C   0  0  0  0  0  0
   25.1401   35.3748   82.1413 N   0  0  0  0  0  0
   21.6506   39.0242   86.1344 C   0  0  0  0  0  0
   20.3237   39.1301   86.5880 C   0  0  0  0  0  0
   23.8322   35.4129   82.4723 C   0  0  0  0  0  0
   22.1364   37.8344   85.5921 C   0  0  0  0  0  0
   19.4663   38.0229   86.4851 C   0  0  0  0  0  0
   19.9716   36.8117   85.9966 C   0  0  0  0  0  0
   21.2942   36.7145   85.5719 C   0  0  0  0  0  0
   28.6951   38.8331   84.6593 O   0  0  0  0  0  0
   29.5866   37.0724   82.8739 O   0  0  0  0  0  0
   19.7906   40.2807   87.1408 O   0  0  0  0  0  0
   18.1547   38.1966   86.8881 O   0  0  0  0  0  0
   28.3069   39.7474   85.6794 C   0  0  0  0  0  0
   20.5939   41.4474   87.2529 C   0  0  0  0  0  0
   30.1331   36.1081   81.9754 C   0  0  0  0  0  0
   17.2059   37.1576   86.6788 C   0  0  0  0  0  0
   26.0277   38.6695   85.2060 H   0  0  0  0  0  0
   27.6589   35.5328   81.7256 H   0  0  0  0  0  0
   24.0662   38.5062   85.5083 H   0  0  0  0  0  0
   22.3107   39.8762   86.1784 H   0  0  0  0  0  0
   23.1716   34.7464   81.9352 H   0  0  0  0  0  0
   19.3574   35.9275   85.9260 H   0  0  0  0  0  0
   21.6341   35.7551   85.2173 H   0  0  0  0  0  0
   29.1801   40.3090   86.0116 H   0  0  0  0  0  0
   27.9012   39.2309   86.5513 H   0  0  0  0  0  0
   27.5735   40.4665   85.3105 H   0  0  0  0  0  0
   20.0047   42.2305   87.7286 H   0  0  0  0  0  0
   21.4724   41.2723   87.8772 H   0  0  0  0  0  0
   20.9131   41.8162   86.2761 H   0  0  0  0  0  0
   31.2146   36.2384   81.9237 H   0  0  0  0  0  0
   29.9420   35.0889   82.3168 H   0  0  0  0  0  0
   29.7427   36.2224   80.9630 H   0  0  0  0  0  0
   16.2489   37.4270   87.1264 H   0  0  0  0  0  0
   17.0346   37.0193   85.6103 H   0  0  0  0  0  0
   17.5157   36.2164   87.1330 H   0  0  0  0  0  0
  1  2  1  0  0  0
  1  3  1  0  0  0
  1  4  2  0  0  0
  2  5  2  0  0  0
  2  7  1  0  0  0
  3  6  2  0  0  0
  3 10  1  0  0  0
  4  8  1  0  0  0
  4 26  1  0  0  0
  5 13  1  0  0  0
  6  9  1  0  0  0
  6 27  1  0  0  0
  7 14  1  0  0  0
  7 28  1  0  0  0
  8  9  2  0  0  0
  8 18  1  0  0  0
  9 19  1  0  0  0
 10 13  2  0  0  0
 11 12  1  0  0  0
 11 14  2  0  0  0
 11 29  1  0  0  0
 12 15  2  0  0  0
 12 20  1  0  0  0
 13 30  1  0  0  0
 14 17  1  0  0  0
 15 16  1  0  0  0
 15 21  1  0  0  0
 16 17  2  0  0  0
 16 31  1  0  0  0
 17 32  1  0  0  0
 18 22  1  0  0  0
 19 24  1  0  0  0
 20 23  1  0  0  0
 21 25  1  0  0  0
 22 33  1  0  0  0
 22 34  1  0  0  0
 22 35  1  0  0  0
 23 36  1  0  0  0
 23 37  1  0  0  0
 23 38  1  0  0  0
 24 39  1  0  0  0
 24 40  1  0  0  0
 24 41  1  0  0  0
 25 42  1  0  0  0
 25 43  1  0  0  0
 25 44  1  0  0  0
M  END
> <s_m_entry_id>
4634

> <s_m_entry_name>
dock_pv.122

> <s_m_Source_Path>
/home/csk/Desktop/cluster/DUD-E-result/lck

> <s_m_Source_File>
dock_pv.maegz

> <i_m_Source_File_Index>
122

> <chembl_id>
CHEMBL544833

> <chembl_pref_name>
None

> <i_lp_mmshare_version>
53161

> <i_f3d_flags>
0

> <r_lp_tautomer_probability>
0.999978000241998

> <s_lp_Force_Field>
OPLS_2005

> <r_lp_Energy>
28.947758

> <b_lp_Chiralities_Consistent>
1

> <s_lp_Variant>
CHEMBL258_lig290-1

> <s_i_glide_gridfile>
glide-grid_2of2

> <i_i_glide_lignum>
322

> <i_i_glide_rotatable_bonds>
6

> <r_i_docking_score>
-7.4501677794341

> <r_i_glide_ligand_efficiency>
-0.298006711177364

> <r_i_glide_ligand_efficiency_sa>
-0.87137690865414

> <r_i_glide_ligand_efficiency_ln>
-1.76591302723797

> <r_i_glide_gscore>
-7.4501677794341

> <r_i_glide_lipo>
-2.57075782155852

> <r_i_glide_hbond>
-0.195555840288999

> <r_i_glide_metal>
0

> <r_i_glide_rewards>
-2.28162845454545

> <r_i_glide_evdw>
-38.6519584655762

> <r_i_glide_ecoul>
-5.29903793334961

> <r_i_glide_erotb>
0.325227950240122

> <r_i_glide_esite>
0

> <r_i_glide_emodel>
-62.41466181952

> <r_i_glide_energy>
-43.9509963989258

> <r_i_glide_einternal>
2.15743660926819

> <i_i_glide_confnum>
2

> <i_i_glide_posenum>
11

> <r_i_glide_eff_state_penalty>
0

> <s_user_duplicate_titles>
CHEMBL258_lig290

> <s_m_subgroup_title>
dock_pv

> <s_m_subgroupid>
dock_pv

> <b_m_subgroup_collapsed>
1

$$$$
CHEMBL258_lig650
                    3D
 Schrodinger Suite 2021-1.
 51 54  0  0  1  0            999 V2000
   27.0644   38.3260   84.4247 C   0  0  0  0  0  0
   27.7751   37.5965   83.4590 C   0  0  0  0  0  0
   27.1071   36.6211   82.7084 C   0  0  0  0  0  0
   25.7158   38.0549   84.6788 C   0  0  0  0  0  0
   25.0224   37.0709   83.9291 C   0  0  0  0  0  0
   25.7406   36.3533   82.9236 C   0  0  0  0  0  0
   25.1405   35.4210   82.1376 N   0  0  0  0  0  0
   23.8207   35.2237   82.3438 C   0  0  0  0  0  0
   23.0363   35.8211   83.2661 N   0  0  0  0  0  0
   23.6329   36.7441   84.0600 C   0  0  0  0  0  0
   22.8104   37.3872   85.0023 N   0  0  0  0  0  0
   21.4101   37.3730   85.1246 C   0  0  0  0  0  0
   20.8445   37.0492   86.3593 C   0  0  0  0  0  0
   19.4583   37.0568   86.5210 C   0  0  0  0  0  0
   18.6273   37.4211   85.4629 C   0  0  0  0  0  0
   19.1819   37.7533   84.2252 C   0  0  0  0  0  0
   20.5670   37.7177   84.0572 C   0  0  0  0  0  0
   29.1208   37.8749   83.2913 O   0  0  0  0  0  0
   27.7598   39.4165   85.2345 C   0  0  0  0  0  0
   27.5216   40.7663   84.6956 N   0  0  2  0  0  0
   29.9446   36.9669   82.5614 C   0  0  0  0  0  0
   28.5058   41.8076   85.0504 C   0  0  1  0  0  0
   27.8072   43.1334   84.6746 C   0  0  0  0  0  0
   26.3038   42.8288   84.6570 C   0  0  0  0  0  0
   26.2035   41.3344   84.9701 C   0  0  0  0  0  0
   18.1702   38.2099   82.8979 Cl  0  0  0  0  0  0
   17.2875   37.4216   85.6415 F   0  0  0  0  0  0
   28.9586   41.8103   86.5437 C   0  0  0  0  0  0
   28.1514   41.7872   87.4710 O   0  0  0  0  0  0
   30.2686   41.8234   86.7853 N   0  0  0  0  0  0
   27.6171   36.0598   81.9391 H   0  0  0  0  0  0
   25.1891   38.6176   85.4356 H   0  0  0  0  0  0
   23.3500   34.5228   81.6779 H   0  0  0  0  0  0
   23.2830   38.0392   85.6082 H   0  0  0  0  0  0
   21.4773   36.7761   87.1915 H   0  0  0  0  0  0
   19.0218   36.7785   87.4683 H   0  0  0  0  0  0
   20.9650   37.9706   83.0891 H   0  0  0  0  0  0
   28.8323   39.2173   85.2521 H   0  0  0  0  0  0
   27.4357   39.3595   86.2757 H   0  0  0  0  0  0
   30.9911   37.2305   82.7132 H   0  0  0  0  0  0
   29.8150   35.9342   82.8868 H   0  0  0  0  0  0
   29.7508   37.0143   81.4918 H   0  0  0  0  0  0
   29.3970   41.6721   84.4343 H   0  0  0  0  0  0
   28.0360   43.9511   85.3613 H   0  0  0  0  0  0
   28.1535   43.4768   83.6990 H   0  0  0  0  0  0
   25.7751   43.4177   85.4076 H   0  0  0  0  0  0
   25.8576   43.0624   83.6884 H   0  0  0  0  0  0
   25.8840   41.1560   85.9991 H   0  0  0  0  0  0
   25.4573   40.8391   84.3478 H   0  0  0  0  0  0
   30.5852   41.7570   87.7392 H   0  0  0  0  0  0
   30.9353   41.8642   86.0296 H   0  0  0  0  0  0
  1  2  1  0  0  0
  1 19  1  0  0  0
  1  4  2  0  0  0
  2 18  1  0  0  0
  2  3  2  0  0  0
  3  6  1  0  0  0
  3 31  1  0  0  0
  4  5  1  0  0  0
  4 32  1  0  0  0
  5 10  2  0  0  0
  5  6  1  0  0  0
  6  7  2  0  0  0
  7  8  1  0  0  0
  8  9  2  0  0  0
  8 33  1  0  0  0
  9 10  1  0  0  0
 10 11  1  0  0  0
 11 12  1  0  0  0
 11 34  1  0  0  0
 12 17  2  0  0  0
 12 13  1  0  0  0
 13 14  2  0  0  0
 13 35  1  0  0  0
 14 15  1  0  0  0
 14 36  1  0  0  0
 15 16  2  0  0  0
 15 27  1  0  0  0
 16 17  1  0  0  0
 16 26  1  0  0  0
 17 37  1  0  0  0
 18 21  1  0  0  0
 19 20  1  0  0  0
 19 38  1  0  0  0
 19 39  1  0  0  0
 20 22  1  0  0  0
 20 25  1  0  0  0
 21 40  1  0  0  0
 21 41  1  0  0  0
 21 42  1  0  0  0
 22 23  1  0  0  0
 22 28  1  0  0  0
 22 43  1  0  0  0
 23 24  1  0  0  0
 23 44  1  0  0  0
 23 45  1  0  0  0
 24 25  1  0  0  0
 24 46  1  0  0  0
 24 47  1  0  0  0
 25 48  1  0  0  0
 25 49  1  0  0  0
 28 29  2  0  0  0
 28 30  1  0  0  0
 30 50  1  0  0  0
 30 51  1  0  0  0
M  END
> <s_m_entry_id>
4635

> <s_m_entry_name>
dock_pv.123

> <s_m_Source_Path>
/home/csk/Desktop/cluster/DUD-E-result/lck

> <s_m_Source_File>
dock_pv.maegz

> <i_m_Source_File_Index>
123

> <chembl_id>
CHEMBL382638

> <chembl_pref_name>
None

> <i_lp_mmshare_version>
53161

> <i_f3d_flags>
0

> <r_lp_tautomer_probability>
0.999978000241998

> <s_lp_Force_Field>
OPLS_2005

> <r_lp_Energy>
36.764267

> <b_lp_Chiralities_Consistent>
1

> <s_lp_Variant>
CHEMBL258_lig650-1

> <s_i_glide_gridfile>
glide-grid_2of2

> <i_i_glide_lignum>
733

> <i_i_glide_rotatable_bonds>
6

> <r_i_docking_score>
-7.44992745770637

> <r_i_glide_ligand_efficiency>
-0.248330915256879

> <r_i_glide_ligand_efficiency_sa>
-0.771621891244635

> <r_i_glide_ligand_efficiency_ln>
-1.69270469185202

> <r_i_glide_gscore>
-7.44992745770637

> <r_i_glide_lipo>
-3.39221444427277

> <r_i_glide_hbond>
-0.171695562229959

> <r_i_glide_metal>
0

> <r_i_glide_rewards>
-1.60955279867937

> <r_i_glide_evdw>
-42.3723678588867

> <r_i_glide_ecoul>
-3.74538421630859

> <r_i_glide_erotb>
0.430239960077135

> <r_i_glide_esite>
-0.0262785872107843

> <r_i_glide_emodel>
-64.3771670797193

> <r_i_glide_energy>
-46.1177520751953

> <r_i_glide_einternal>
4.05429840087891

> <i_i_glide_confnum>
32

> <i_i_glide_posenum>
162

> <r_i_glide_eff_state_penalty>
0

> <s_user_duplicate_titles>
CHEMBL258_lig650

> <s_m_subgroup_title>
dock_pv

> <s_m_subgroupid>
dock_pv

> <b_m_subgroup_collapsed>
1

$$$$
CHEMBL258_lig804
                    3D
 Schrodinger Suite 2021-1.
 36 38  0  0  1  0            999 V2000
   23.6676   36.6212   84.0876 C   0  0  0  0  0  0
   25.7939   36.1157   82.9797 C   0  0  0  0  0  0
   25.3131   37.1672   84.2846 S   0  0  0  0  0  0
   22.5904   37.1629   84.8793 C   0  0  0  0  0  0
   21.4929   36.3824   84.9105 N   0  0  0  0  0  0
   24.8065   35.4213   82.4702 N   0  0  0  0  0  0
   23.6447   35.7113   83.0255 C   0  0  0  0  0  0
   20.2905   36.6919   85.5693 C   0  0  0  0  0  0
   27.0766   35.9861   82.4870 N   0  0  0  0  0  0
   22.6941   38.2409   85.4676 O   0  0  0  0  0  0
   19.4347   37.7059   85.1027 C   0  0  0  0  0  0
   19.8826   35.8895   86.6481 C   0  0  0  0  0  0
   30.6779   36.6240   82.1895 N   0  0  0  0  0  0
   28.3094   36.6172   82.7470 C   0  0  0  0  0  0
   19.7988   38.6209   83.6870 Cl  0  0  0  0  0  0
   29.4318   36.0967   82.0875 C   0  0  0  0  0  0
   17.8423   37.1865   86.8466 C   0  0  0  0  0  0
   18.2238   37.9521   85.7492 C   0  0  0  0  0  0
   30.8381   37.7127   82.9819 C   0  0  0  0  0  0
   18.6648   36.1537   87.2869 C   0  0  0  0  0  0
   20.7282   34.7087   87.1120 C   0  0  0  0  0  0
   28.5085   37.7439   83.5623 C   0  0  0  0  0  0
   29.7853   38.2973   83.6865 C   0  0  0  0  0  0
   21.5293   35.4745   84.4749 H   0  0  0  0  0  0
   22.7611   35.2238   82.6362 H   0  0  0  0  0  0
   27.1951   35.3265   81.7306 H   0  0  0  0  0  0
   29.3498   35.2373   81.4357 H   0  0  0  0  0  0
   16.8989   37.3822   87.3368 H   0  0  0  0  0  0
   17.5645   38.7290   85.3893 H   0  0  0  0  0  0
   31.8393   38.1127   83.0505 H   0  0  0  0  0  0
   18.3425   35.5389   88.1145 H   0  0  0  0  0  0
   21.1136   34.1792   86.2454 H   0  0  0  0  0  0
   21.5926   35.0379   87.6868 H   0  0  0  0  0  0
   20.1503   33.9871   87.6867 H   0  0  0  0  0  0
   27.7063   38.2261   84.0910 H   0  0  0  0  0  0
   29.9521   39.1643   84.3094 H   0  0  0  0  0  0
  1  3  1  0  0  0
  1  4  1  0  0  0
  1  7  2  0  0  0
  2  3  1  0  0  0
  2  9  1  0  0  0
  2  6  2  0  0  0
  4  5  1  0  0  0
  4 10  2  0  0  0
  5  8  1  0  0  0
  5 24  1  0  0  0
  6  7  1  0  0  0
  7 25  1  0  0  0
  8 11  1  0  0  0
  8 12  2  0  0  0
  9 14  1  0  0  0
  9 26  1  0  0  0
 11 15  1  0  0  0
 11 18  2  0  0  0
 12 20  1  0  0  0
 12 21  1  0  0  0
 13 16  1  0  0  0
 13 19  2  0  0  0
 14 16  2  0  0  0
 14 22  1  0  0  0
 16 27  1  0  0  0
 17 20  2  0  0  0
 17 18  1  0  0  0
 17 28  1  0  0  0
 18 29  1  0  0  0
 19 23  1  0  0  0
 19 30  1  0  0  0
 20 31  1  0  0  0
 21 32  1  0  0  0
 21 33  1  0  0  0
 21 34  1  0  0  0
 22 23  2  0  0  0
 22 35  1  0  0  0
 23 36  1  0  0  0
M  END
> <s_m_entry_id>
4636

> <s_m_entry_name>
dock_pv.124

> <s_m_Source_Path>
/home/csk/Desktop/cluster/DUD-E-result/lck

> <s_m_Source_File>
dock_pv.maegz

> <i_m_Source_File_Index>
124

> <chembl_id>
CHEMBL189675

> <chembl_pref_name>
None

> <i_lp_mmshare_version>
53161

> <i_f3d_flags>
0

> <r_lp_tautomer_probability>
0.999999999999999

> <s_lp_Force_Field>
OPLS_2005

> <r_lp_Energy>
19.438891

> <b_lp_Chiralities_Consistent>
1

> <s_lp_Variant>
CHEMBL258_lig804-1

> <s_i_glide_gridfile>
glide-grid_2of2

> <i_i_glide_lignum>
889

> <i_i_glide_rotatable_bonds>
5

> <r_i_docking_score>
-7.44530196929121

> <r_i_glide_ligand_efficiency>
-0.323708781273531

> <r_i_glide_ligand_efficiency_sa>
-0.920584713189625

> <r_i_glide_ligand_efficiency_ln>
-1.80034152644037

> <r_i_glide_gscore>
-7.44530196929121

> <r_i_glide_lipo>
-2.98452247712566

> <r_i_glide_hbond>
-0.236798043473981

> <r_i_glide_metal>
0

> <r_i_glide_rewards>
-2.26212933149519

> <r_i_glide_evdw>
-38.9183120727539

> <r_i_glide_ecoul>
-5.43063020706177

> <r_i_glide_erotb>
0.79865801750057

> <r_i_glide_esite>
0

> <r_i_glide_emodel>
-62.0329726120195

> <r_i_glide_energy>
-44.3489422798157

> <r_i_glide_einternal>
3.78375172615051

> <i_i_glide_confnum>
22

> <i_i_glide_posenum>
53

> <r_i_glide_eff_state_penalty>
0

> <s_user_duplicate_titles>
CHEMBL258_lig804,312484

> <s_m_subgroup_title>
dock_pv

> <s_m_subgroupid>
dock_pv

> <b_m_subgroup_collapsed>
1

$$$$
CHEMBL258_lig324
                    3D
 Schrodinger Suite 2021-1.
 30 32  0  0  1  0            999 V2000
   28.7468   38.1323   83.7081 C   0  0  0  0  0  0
   28.8861   37.0125   82.8871 C   0  0  0  0  0  0
   27.7663   36.2495   82.5456 C   0  0  0  0  0  0
   27.4927   38.4787   84.2137 C   0  0  0  0  0  0
   26.3816   37.6978   83.9041 C   0  0  0  0  0  0
   26.5041   36.5745   83.0708 C   0  0  0  0  0  0
   25.3098   35.7280   82.8005 C   0  0  0  0  0  0
   24.1031   36.1928   83.4630 C   0  0  0  0  0  0
   24.0729   37.3096   84.2222 C   0  0  0  0  0  0
   25.1774   38.0676   84.4710 O   0  0  0  0  0  0
   25.3502   34.7279   82.0871 O   0  0  0  0  0  0
   22.8573   37.8493   84.8932 C   0  0  0  0  0  0
   21.7621   37.0240   85.1955 C   0  0  0  0  0  0
   20.5198   38.9207   86.0179 C   0  0  0  0  0  0
   21.6004   39.7527   85.7379 C   0  0  0  0  0  0
   20.6011   37.5551   85.7562 C   0  0  0  0  0  0
   22.7604   39.2189   85.1796 C   0  0  0  0  0  0
   19.3502   39.4645   86.5471 N   0  0  0  0  0  0
   30.1222   36.6745   82.4033 O   0  0  0  0  0  0
   29.6141   38.7255   83.9603 H   0  0  0  0  0  0
   27.8884   35.3856   81.9054 H   0  0  0  0  0  0
   27.3833   39.3376   84.8585 H   0  0  0  0  0  0
   23.1961   35.6349   83.2933 H   0  0  0  0  0  0
   21.7936   35.9629   84.9942 H   0  0  0  0  0  0
   21.5430   40.8136   85.9368 H   0  0  0  0  0  0
   19.7673   36.9027   85.9725 H   0  0  0  0  0  0
   23.5792   39.8854   84.9494 H   0  0  0  0  0  0
   19.2589   40.4698   86.4995 H   0  0  0  0  0  0
   18.5013   38.9166   86.4872 H   0  0  0  0  0  0
   30.1271   35.8869   81.8522 H   0  0  0  0  0  0
  1  4  1  0  0  0
  1  2  2  0  0  0
  1 20  1  0  0  0
  2  3  1  0  0  0
  2 19  1  0  0  0
  3  6  2  0  0  0
  3 21  1  0  0  0
  4  5  2  0  0  0
  4 22  1  0  0  0
  5 10  1  0  0  0
  5  6  1  0  0  0
  6  7  1  0  0  0
  7 11  2  0  0  0
  7  8  1  0  0  0
  8  9  2  0  0  0
  8 23  1  0  0  0
  9 10  1  0  0  0
  9 12  1  0  0  0
 12 13  2  0  0  0
 12 17  1  0  0  0
 13 16  1  0  0  0
 13 24  1  0  0  0
 14 15  1  0  0  0
 14 16  2  0  0  0
 14 18  1  0  0  0
 15 17  2  0  0  0
 15 25  1  0  0  0
 16 26  1  0  0  0
 17 27  1  0  0  0
 18 28  1  0  0  0
 18 29  1  0  0  0
 19 30  1  0  0  0
M  END
> <s_m_entry_id>
4638

> <s_m_entry_name>
dock_pv.126

> <s_m_Source_Path>
/home/csk/Desktop/cluster/DUD-E-result/lck

> <s_m_Source_File>
dock_pv.maegz

> <i_m_Source_File_Index>
126

> <chembl_id>
CHEMBL166851

> <chembl_pref_name>
None

> <i_lp_mmshare_version>
53161

> <i_f3d_flags>
0

> <r_lp_tautomer_probability>
1

> <s_lp_Force_Field>
OPLS_2005

> <r_lp_Energy>
13.176366

> <b_lp_Chiralities_Consistent>
1

> <s_lp_Variant>
CHEMBL258_lig324-1

> <s_i_glide_gridfile>
glide-grid_2of2

> <i_i_glide_lignum>
362

> <i_i_glide_rotatable_bonds>
2

> <r_i_docking_score>
-7.41798560921656

> <r_i_glide_ligand_efficiency>
-0.390420295221924

> <r_i_glide_ligand_efficiency_sa>
-1.04179815844219

> <r_i_glide_ligand_efficiency_ln>
-1.8806186756587

> <r_i_glide_gscore>
-7.41798560921656

> <r_i_glide_lipo>
-2.6359024318071

> <r_i_glide_hbond>
-0.32

> <r_i_glide_metal>
0

> <r_i_glide_rewards>
-2.24903434848485

> <r_i_glide_evdw>
-27.4071807861328

> <r_i_glide_ecoul>
-7.4436559677124

> <r_i_glide_erotb>
0.27385860553889

> <r_i_glide_esite>
0

> <r_i_glide_emodel>
-51.0583705284576

> <r_i_glide_energy>
-34.8508367538452

> <r_i_glide_einternal>
0.0866401270031929

> <i_i_glide_confnum>
1

> <i_i_glide_posenum>
308

> <r_i_glide_eff_state_penalty>
0

> <s_user_duplicate_titles>
CHEMBL258_lig324

> <s_m_subgroup_title>
dock_pv

> <s_m_subgroupid>
dock_pv

> <b_m_subgroup_collapsed>
1

$$$$
CHEMBL258_lig125
                    3D
 Schrodinger Suite 2021-1.
 39 41  0  0  1  0            999 V2000
   24.5132   37.0058   83.7610 C   0  0  0  0  0  0
   25.3235   36.0453   83.0106 C   0  0  0  0  0  0
   25.3971   38.1195   84.1433 C   0  0  0  0  0  0
   26.6944   36.5484   83.0123 C   0  0  0  0  0  0
   26.7477   37.7577   83.6777 C   0  0  0  0  0  0
   23.1792   36.8379   83.9746 C   0  0  0  0  0  0
   20.2569   39.3636   85.8351 C   0  0  0  0  0  0
   21.4990   39.1934   86.4535 C   0  0  0  0  0  0
   19.9465   38.6777   84.6518 C   0  0  0  0  0  0
   22.1869   37.6886   84.6738 C   0  0  0  0  0  0
   27.9682   38.4260   83.8180 C   0  0  0  0  0  0
   27.8504   35.9682   82.4870 C   0  0  0  0  0  0
   22.4485   38.3476   85.8774 C   0  0  0  0  0  0
   20.9251   37.8413   84.0875 C   0  0  0  0  0  0
   24.8962   35.0209   82.4833 O   0  0  0  0  0  0
   25.0562   39.1412   84.7349 O   0  0  0  0  0  0
   29.0737   36.6209   82.6274 C   0  0  0  0  0  0
   19.3501   40.2210   86.4049 O   0  0  0  0  0  0
   29.1319   37.8500   83.2936 C   0  0  0  0  0  0
   18.6978   38.8858   84.0871 O   0  0  0  0  0  0
   21.7716   39.8485   87.6321 O   0  0  0  0  0  0
   30.2274   36.0574   82.0869 N   0  0  0  0  0  0
   18.2715   38.0616   83.0069 C   0  0  0  0  0  0
   22.7313   40.8922   87.5177 C   0  0  0  0  0  0
   22.7344   35.9306   83.5835 H   0  0  0  0  0  0
   28.0306   39.3740   84.3339 H   0  0  0  0  0  0
   27.8086   35.0194   81.9717 H   0  0  0  0  0  0
   23.3943   38.2211   86.3758 H   0  0  0  0  0  0
   20.7241   37.3208   83.1638 H   0  0  0  0  0  0
   19.7651   40.8060   87.0426 H   0  0  0  0  0  0
   30.0756   38.3635   83.4072 H   0  0  0  0  0  0
   31.1152   36.5245   82.1974 H   0  0  0  0  0  0
   30.1725   35.1723   81.6002 H   0  0  0  0  0  0
   17.2415   38.3085   82.7516 H   0  0  0  0  0  0
   18.8792   38.2213   82.1155 H   0  0  0  0  0  0
   18.2976   37.0042   83.2758 H   0  0  0  0  0  0
   22.7991   41.4256   88.4655 H   0  0  0  0  0  0
   23.7240   40.5027   87.2876 H   0  0  0  0  0  0
   22.4518   41.6159   86.7499 H   0  0  0  0  0  0
  1  2  1  0  0  0
  1  3  1  0  0  0
  1  6  2  0  0  0
  2  4  1  0  0  0
  2 15  2  0  0  0
  3  5  1  0  0  0
  3 16  2  0  0  0
  4 12  2  0  0  0
  4  5  1  0  0  0
  5 11  2  0  0  0
  6 10  1  0  0  0
  6 25  1  0  0  0
  7  9  1  0  0  0
  7 18  1  0  0  0
  7  8  2  0  0  0
  8 13  1  0  0  0
  8 21  1  0  0  0
  9 14  2  0  0  0
  9 20  1  0  0  0
 10 13  2  0  0  0
 10 14  1  0  0  0
 11 19  1  0  0  0
 11 26  1  0  0  0
 12 17  1  0  0  0
 12 27  1  0  0  0
 13 28  1  0  0  0
 14 29  1  0  0  0
 17 22  1  0  0  0
 17 19  2  0  0  0
 18 30  1  0  0  0
 19 31  1  0  0  0
 20 23  1  0  0  0
 21 24  1  0  0  0
 22 32  1  0  0  0
 22 33  1  0  0  0
 23 34  1  0  0  0
 23 35  1  0  0  0
 23 36  1  0  0  0
 24 37  1  0  0  0
 24 38  1  0  0  0
 24 39  1  0  0  0
M  END
> <s_m_entry_id>
4639

> <s_m_entry_name>
dock_pv.127

> <s_m_Source_Path>
/home/csk/Desktop/cluster/DUD-E-result/lck

> <s_m_Source_File>
dock_pv.maegz

> <i_m_Source_File_Index>
127

> <chembl_id>
CHEMBL79872

> <chembl_pref_name>
None

> <i_lp_mmshare_version>
53161

> <i_f3d_flags>
0

> <r_lp_tautomer_probability>
1

> <s_lp_Force_Field>
OPLS_2005

> <r_lp_Energy>
38.537006

> <b_lp_Chiralities_Consistent>
1

> <s_lp_Variant>
CHEMBL258_lig125-1

> <s_i_glide_gridfile>
glide-grid_2of2

> <i_i_glide_lignum>
146

> <i_i_glide_rotatable_bonds>
4

> <r_i_docking_score>
-7.41540849247295

> <r_i_glide_ligand_efficiency>
-0.308975353853039

> <r_i_glide_ligand_efficiency_sa>
-0.891239141716116

> <r_i_glide_ligand_efficiency_ln>
-1.77484752317215

> <r_i_glide_gscore>
-7.41540849247295

> <r_i_glide_lipo>
-2.68201311754973

> <r_i_glide_hbond>
-0.424190774616446

> <r_i_glide_metal>
0

> <r_i_glide_rewards>
-1.95235659552893

> <r_i_glide_evdw>
-36.9075393676758

> <r_i_glide_ecoul>
-4.59028816223145

> <r_i_glide_erotb>
0.177072187940664

> <r_i_glide_esite>
0

> <r_i_glide_emodel>
-57.2714647892589

> <r_i_glide_energy>
-41.4978275299072

> <r_i_glide_einternal>
3.74752855300903

> <i_i_glide_confnum>
2

> <i_i_glide_posenum>
3

> <r_i_glide_eff_state_penalty>
0

> <s_user_duplicate_titles>
CHEMBL258_lig125

> <s_m_subgroup_title>
dock_pv

> <s_m_subgroupid>
dock_pv

> <b_m_subgroup_collapsed>
1

$$$$
CHEMBL258_lig1048
                    3D
 Schrodinger Suite 2021-1.
 30 32  0  0  1  0            999 V2000
   18.5503   40.6054   87.2873 O   0  0  0  0  0  0
   19.7893   40.2971   86.8007 C   0  0  0  0  0  0
   19.9559   39.2963   85.8457 C   0  0  0  0  0  0
   21.2351   39.0038   85.3737 C   0  0  0  0  0  0
   22.3557   39.7072   85.8484 C   0  0  0  0  0  0
   22.1596   40.7056   86.8164 C   0  0  0  0  0  0
   20.8853   41.0004   87.2874 C   0  0  0  0  0  0
   23.7181   39.4318   85.3115 C   0  0  0  0  0  0
   24.7729   40.2691   85.4194 C   0  0  0  0  0  0
   26.0862   39.9450   84.9041 C   0  0  0  0  0  0
   27.0553   40.6942   85.0042 O   0  0  0  0  0  0
   26.1531   38.6274   84.2050 C   0  0  0  0  0  0
   27.3181   38.1631   83.5726 C   0  0  0  0  0  0
   28.4882   38.8752   83.5844 O   0  0  0  0  0  0
   27.3063   36.9540   82.8871 C   0  0  0  0  0  0
   26.1502   36.1872   82.8252 C   0  0  0  0  0  0
   26.1507   35.0407   82.0871 O   0  0  0  0  0  0
   25.0021   36.6045   83.4831 C   0  0  0  0  0  0
   25.0037   37.8223   84.1556 C   0  0  0  0  0  0
   23.8123   38.1978   84.7450 O   0  0  0  0  0  0
   17.7793   40.2215   86.8465 H   0  0  0  0  0  0
   19.1025   38.7480   85.4711 H   0  0  0  0  0  0
   21.3504   38.2298   84.6248 H   0  0  0  0  0  0
   22.9885   41.2709   87.2180 H   0  0  0  0  0  0
   20.7454   41.7859   88.0171 H   0  0  0  0  0  0
   24.6547   41.2345   85.8833 H   0  0  0  0  0  0
   28.3829   39.6899   84.0914 H   0  0  0  0  0  0
   28.2029   36.6175   82.3872 H   0  0  0  0  0  0
   26.9434   35.0188   81.5382 H   0  0  0  0  0  0
   24.1008   36.0122   83.4364 H   0  0  0  0  0  0
  1  2  1  0  0  0
  1 21  1  0  0  0
  2  3  2  0  0  0
  2  7  1  0  0  0
  3  4  1  0  0  0
  3 22  1  0  0  0
  4  5  2  0  0  0
  4 23  1  0  0  0
  5  6  1  0  0  0
  5  8  1  0  0  0
  6  7  2  0  0  0
  6 24  1  0  0  0
  7 25  1  0  0  0
  8  9  2  0  0  0
  8 20  1  0  0  0
  9 10  1  0  0  0
  9 26  1  0  0  0
 10 11  2  0  0  0
 10 12  1  0  0  0
 12 13  2  0  0  0
 12 19  1  0  0  0
 13 14  1  0  0  0
 13 15  1  0  0  0
 14 27  1  0  0  0
 15 16  2  0  0  0
 15 28  1  0  0  0
 16 17  1  0  0  0
 16 18  1  0  0  0
 17 29  1  0  0  0
 18 19  2  0  0  0
 18 30  1  0  0  0
 19 20  1  0  0  0
M  END
> <s_m_entry_id>
4640

> <s_m_entry_name>
dock_pv.128

> <s_m_Source_Path>
/home/csk/Desktop/cluster/DUD-E-result/lck

> <s_m_Source_File>
dock_pv.maegz

> <i_m_Source_File_Index>
128

> <chembl_id>
CHEMBL28

> <chembl_pref_name>
APIGENIN

> <i_lp_mmshare_version>
53161

> <i_f3d_flags>
0

> <r_lp_tautomer_probability>
0.999999999997365

> <s_lp_Force_Field>
OPLS_2005

> <r_lp_Energy>
16.552935

> <b_lp_Chiralities_Consistent>
1

> <s_lp_Variant>
CHEMBL258_lig1048-1

> <s_i_glide_gridfile>
glide-grid_2of2

> <i_i_glide_lignum>
1136

> <i_i_glide_rotatable_bonds>
4

> <r_i_docking_score>
-7.41404373119791

> <r_i_glide_ligand_efficiency>
-0.370702186559895

> <r_i_glide_ligand_efficiency_sa>
-1.00624054470362

> <r_i_glide_ligand_efficiency_ln>
-1.85549061439082

> <r_i_glide_gscore>
-7.41404373119791

> <r_i_glide_lipo>
-2.20877031983475

> <r_i_glide_hbond>
-0.811740861189541

> <r_i_glide_metal>
0

> <r_i_glide_rewards>
-2.06656659090909

> <r_i_glide_evdw>
-26.7678070068359

> <r_i_glide_ecoul>
-8.22299385070801

> <r_i_glide_erotb>
0.244873468683471

> <r_i_glide_esite>
0

> <r_i_glide_emodel>
-51.8068037326307

> <r_i_glide_energy>
-34.9908008575439

> <r_i_glide_einternal>
2.07954549789429

> <i_i_glide_confnum>
2

> <i_i_glide_posenum>
237

> <r_i_glide_eff_state_penalty>
0

> <s_user_duplicate_titles>
CHEMBL258_lig1048

> <s_m_subgroup_title>
dock_pv

> <s_m_subgroupid>
dock_pv

> <b_m_subgroup_collapsed>
1

$$$$
CHEMBL258_lig627
                    3D
 Schrodinger Suite 2021-1.
 51 53  0  0  1  0            999 V2000
   27.6003   37.9655   84.0295 C   0  0  0  0  0  0
   28.0570   37.0292   83.0879 C   0  0  0  0  0  0
   27.1435   36.1568   82.4873 C   0  0  0  0  0  0
   26.2623   37.9654   84.4421 C   0  0  0  0  0  0
   25.3218   37.0851   83.8487 C   0  0  0  0  0  0
   25.7789   36.1825   82.8392 C   0  0  0  0  0  0
   24.9340   35.3414   82.1838 N   0  0  0  0  0  0
   23.6270   35.4208   82.5254 C   0  0  0  0  0  0
   23.0849   36.2107   83.4763 N   0  0  0  0  0  0
   23.9199   37.0365   84.1443 C   0  0  0  0  0  0
   23.3477   37.9016   85.0979 N   0  0  0  0  0  0
   22.0330   38.0837   85.5880 C   0  0  0  0  0  0
   20.9996   37.1487   85.4061 C   0  0  0  0  0  0
   19.7023   37.4181   85.8452 C   0  0  0  0  0  0
   19.4178   38.6226   86.4794 C   0  0  0  0  0  0
   20.4363   39.5490   86.7026 C   0  0  0  0  0  0
   21.7369   39.2813   86.2600 C   0  0  0  0  0  0
   29.4087   37.0215   82.7906 O   0  0  0  0  0  0
   28.5549   39.0188   84.5994 C   0  0  0  0  0  0
   29.9383   36.0490   81.8932 C   0  0  0  0  0  0
   20.0672   41.0225   87.5245 Cl  0  0  0  0  0  0
   22.7139   40.1994   86.4712 F   0  0  0  0  0  0
   28.5113   40.2769   83.8265 N   0  0  2  0  0  0
   29.7319   41.1500   83.8912 C   0  0  1  0  0  0
   30.2377   41.5059   85.3157 C   0  0  0  0  0  0
   30.8568   40.5795   82.9793 C   0  0  0  0  0  0
   31.4097   41.4210   82.1063 N   0  0  0  0  0  0
   31.2281   39.4111   83.0624 O   0  0  0  0  0  0
   27.2915   41.0232   84.1558 C   0  0  0  0  0  0
   31.2187   42.5293   85.2870 O   0  0  0  0  0  0
   27.4582   35.4499   81.7378 H   0  0  0  0  0  0
   25.9320   38.6724   85.1872 H   0  0  0  0  0  0
   22.9499   34.7567   82.0094 H   0  0  0  0  0  0
   24.0009   38.5719   85.4726 H   0  0  0  0  0  0
   21.1717   36.1982   84.9308 H   0  0  0  0  0  0
   18.9207   36.6903   85.6870 H   0  0  0  0  0  0
   18.4090   38.8330   86.8128 H   0  0  0  0  0  0
   29.5603   38.6016   84.6048 H   0  0  0  0  0  0
   28.3309   39.2031   85.6509 H   0  0  0  0  0  0
   31.0188   36.1814   81.8228 H   0  0  0  0  0  0
   29.7530   35.0313   82.2410 H   0  0  0  0  0  0
   29.5308   36.1664   80.8881 H   0  0  0  0  0  0
   29.4597   42.1083   83.4439 H   0  0  0  0  0  0
   29.4127   41.8544   85.9372 H   0  0  0  0  0  0
   30.6556   40.6297   85.8155 H   0  0  0  0  0  0
   32.1460   41.0922   81.5006 H   0  0  0  0  0  0
   31.1637   42.4068   82.1331 H   0  0  0  0  0  0
   27.2761   42.0062   83.6924 H   0  0  0  0  0  0
   26.4029   40.5062   83.7957 H   0  0  0  0  0  0
   27.1882   41.1766   85.2293 H   0  0  0  0  0  0
   30.9500   43.2197   84.6645 H   0  0  0  0  0  0
  1  2  1  0  0  0
  1 19  1  0  0  0
  1  4  2  0  0  0
  2 18  1  0  0  0
  2  3  2  0  0  0
  3  6  1  0  0  0
  3 31  1  0  0  0
  4  5  1  0  0  0
  4 32  1  0  0  0
  5 10  2  0  0  0
  5  6  1  0  0  0
  6  7  2  0  0  0
  7  8  1  0  0  0
  8  9  2  0  0  0
  8 33  1  0  0  0
  9 10  1  0  0  0
 10 11  1  0  0  0
 11 12  1  0  0  0
 11 34  1  0  0  0
 12 17  2  0  0  0
 12 13  1  0  0  0
 13 14  2  0  0  0
 13 35  1  0  0  0
 14 15  1  0  0  0
 14 36  1  0  0  0
 15 16  2  0  0  0
 15 37  1  0  0  0
 16 17  1  0  0  0
 16 21  1  0  0  0
 17 22  1  0  0  0
 18 20  1  0  0  0
 19 23  1  0  0  0
 19 38  1  0  0  0
 19 39  1  0  0  0
 20 40  1  0  0  0
 20 41  1  0  0  0
 20 42  1  0  0  0
 23 24  1  0  0  0
 23 29  1  0  0  0
 24 25  1  0  0  0
 24 26  1  0  0  0
 24 43  1  0  0  0
 25 30  1  0  0  0
 25 44  1  0  0  0
 25 45  1  0  0  0
 26 27  1  0  0  0
 26 28  2  0  0  0
 27 46  1  0  0  0
 27 47  1  0  0  0
 29 48  1  0  0  0
 29 49  1  0  0  0
 29 50  1  0  0  0
 30 51  1  0  0  0
M  END
> <s_m_entry_id>
4641

> <s_m_entry_name>
dock_pv.129

> <s_m_Source_Path>
/home/csk/Desktop/cluster/DUD-E-result/lck

> <s_m_Source_File>
dock_pv.maegz

> <i_m_Source_File_Index>
129

> <chembl_id>
CHEMBL208286

> <chembl_pref_name>
None

> <i_lp_mmshare_version>
53161

> <i_f3d_flags>
0

> <r_lp_tautomer_probability>
0.999978000241998

> <s_lp_Force_Field>
OPLS_2005

> <r_lp_Energy>
26.522218

> <b_lp_Chiralities_Consistent>
1

> <s_lp_Variant>
CHEMBL258_lig627-1

> <s_i_glide_gridfile>
glide-grid_2of2

> <i_i_glide_lignum>
706

> <i_i_glide_rotatable_bonds>
9

> <r_i_docking_score>
-7.41269463511264

> <r_i_glide_ligand_efficiency>
-0.247089821170421

> <r_i_glide_ligand_efficiency_sa>
-0.767765523360618

> <r_i_glide_ligand_efficiency_ln>
-1.68424498887463

> <r_i_glide_gscore>
-7.41269463511264

> <r_i_glide_lipo>
-2.66354116913935

> <r_i_glide_hbond>
-0.431656196326363

> <r_i_glide_metal>
0

> <r_i_glide_rewards>
-1.42923322189012

> <r_i_glide_evdw>
-39.4857292175293

> <r_i_glide_ecoul>
-9.64067554473877

> <r_i_glide_erotb>
0.63464945575407

> <r_i_glide_esite>
-0.102525710923598

> <r_i_glide_emodel>
-69.3751007723296

> <r_i_glide_energy>
-49.1264047622681

> <r_i_glide_einternal>
6.79925203323364

> <i_i_glide_confnum>
142

> <i_i_glide_posenum>
277

> <r_i_glide_eff_state_penalty>
0

> <s_user_duplicate_titles>
CHEMBL258_lig627

> <s_m_subgroup_title>
dock_pv

> <s_m_subgroupid>
dock_pv

> <b_m_subgroup_collapsed>
1

$$$$
CHEMBL258_lig209
                    3D
 Schrodinger Suite 2021-1.
 32 35  0  0  1  0            999 V2000
   24.4783   36.5266   83.6058 C   0  0  0  0  0  0
   23.7278   37.3234   84.4873 C   0  0  0  0  0  0
   25.8210   36.8783   83.4361 N   0  0  0  0  0  0
   24.2792   38.3906   85.1224 N   0  0  0  0  0  0
   26.4116   37.9144   84.0701 C   0  0  0  0  0  0
   25.5936   38.6862   84.9384 C   0  0  0  0  0  0
   25.4223   35.1167   82.1212 N   0  0  0  0  0  0
   22.3676   37.0152   84.6491 N   0  0  0  0  0  0
   26.3318   35.9771   82.5248 C   0  0  0  0  0  0
   24.3011   35.4210   82.7349 C   0  0  0  0  0  0
   21.2858   37.6496   85.2859 C   0  0  0  0  0  0
   21.4239   38.6859   86.2205 C   0  0  0  0  0  0
   20.2972   39.2792   86.7884 C   0  0  0  0  0  0
   20.4407   40.2757   87.6894 F   0  0  0  0  0  0
   27.7829   38.2482   83.8987 C   0  0  0  0  0  0
   26.1630   39.7839   85.6215 C   0  0  0  0  0  0
   18.8714   37.8018   85.5219 C   0  0  0  0  0  0
   19.9990   37.2056   84.9560 C   0  0  0  0  0  0
   19.0216   38.8424   86.4356 C   0  0  0  0  0  0
   28.3105   39.3381   84.5913 C   0  0  0  0  0  0
   27.5102   40.0959   85.4442 C   0  0  0  0  0  0
   22.0894   36.2262   84.0876 H   0  0  0  0  0  0
   27.3572   36.0023   82.1845 H   0  0  0  0  0  0
   23.3974   34.8620   82.5363 H   0  0  0  0  0  0
   22.3938   39.0483   86.5224 H   0  0  0  0  0  0
   28.4203   37.6681   83.2457 H   0  0  0  0  0  0
   25.5426   40.3700   86.2821 H   0  0  0  0  0  0
   17.8827   37.4598   85.2527 H   0  0  0  0  0  0
   19.8645   36.3981   84.2497 H   0  0  0  0  0  0
   18.1507   39.3094   86.8716 H   0  0  0  0  0  0
   29.3543   39.5956   84.4725 H   0  0  0  0  0  0
   27.9402   40.9341   85.9723 H   0  0  0  0  0  0
  1  2  1  0  0  0
  1  3  1  0  0  0
  1 10  2  0  0  0
  2  4  2  0  0  0
  2  8  1  0  0  0
  3  5  1  0  0  0
  3  9  1  0  0  0
  4  6  1  0  0  0
  5  6  1  0  0  0
  5 15  2  0  0  0
  6 16  2  0  0  0
  7 10  1  0  0  0
  7  9  2  0  0  0
  8 11  1  0  0  0
  8 22  1  0  0  0
  9 23  1  0  0  0
 10 24  1  0  0  0
 11 12  1  0  0  0
 11 18  2  0  0  0
 12 13  2  0  0  0
 12 25  1  0  0  0
 13 14  1  0  0  0
 13 19  1  0  0  0
 15 20  1  0  0  0
 15 26  1  0  0  0
 16 21  1  0  0  0
 16 27  1  0  0  0
 17 18  1  0  0  0
 17 19  2  0  0  0
 17 28  1  0  0  0
 18 29  1  0  0  0
 19 30  1  0  0  0
 20 21  2  0  0  0
 20 31  1  0  0  0
 21 32  1  0  0  0
M  END
> <s_m_entry_id>
4642

> <s_m_entry_name>
dock_pv.130

> <s_m_Source_Path>
/home/csk/Desktop/cluster/DUD-E-result/lck

> <s_m_Source_File>
dock_pv.maegz

> <i_m_Source_File_Index>
130

> <chembl_id>
CHEMBL28864

> <chembl_pref_name>
None

> <i_lp_mmshare_version>
53161

> <i_f3d_flags>
0

> <r_lp_tautomer_probability>
1

> <s_lp_Force_Field>
OPLS_2005

> <r_lp_Energy>
56.593944

> <b_lp_Chiralities_Consistent>
1

> <s_lp_Variant>
CHEMBL258_lig209-1

> <s_i_glide_gridfile>
glide-grid_2of2

> <i_i_glide_lignum>
237

> <i_i_glide_rotatable_bonds>
2

> <r_i_docking_score>
-7.41191861325756

> <r_i_glide_ligand_efficiency>
-0.352948505393217

> <r_i_glide_ligand_efficiency_sa>
-0.973758163558719

> <r_i_glide_ligand_efficiency_ln>
-1.83258189993614

> <r_i_glide_gscore>
-7.41191861325756

> <r_i_glide_lipo>
-2.33286799658179

> <r_i_glide_hbond>
-0.32

> <r_i_glide_metal>
0

> <r_i_glide_rewards>
-3.1163363771286

> <r_i_glide_evdw>
-31.7803001403809

> <r_i_glide_ecoul>
-3.36469125747681

> <r_i_glide_erotb>
0.465468789748912

> <r_i_glide_esite>
-0.0144643336555109

> <r_i_glide_emodel>
-51.1018253920768

> <r_i_glide_energy>
-35.1449913978577

> <r_i_glide_einternal>
0.427342474460602

> <i_i_glide_confnum>
1

> <i_i_glide_posenum>
152

> <r_i_glide_eff_state_penalty>
0

> <s_user_duplicate_titles>
CHEMBL258_lig209

> <s_m_subgroup_title>
dock_pv

> <s_m_subgroupid>
dock_pv

> <b_m_subgroup_collapsed>
1

$$$$
CHEMBL258_lig631
                    3D
 Schrodinger Suite 2021-1.
 51 54  0  0  1  0            999 V2000
   27.3192   38.2257   84.2314 C   0  0  0  0  0  0
   27.8611   37.3409   83.2868 C   0  0  0  0  0  0
   27.0236   36.4073   82.6590 C   0  0  0  0  0  0
   25.9736   38.1369   84.5981 C   0  0  0  0  0  0
   25.1107   37.1992   83.9732 C   0  0  0  0  0  0
   25.6548   36.3255   82.9830 C   0  0  0  0  0  0
   24.8846   35.4209   82.3179 N   0  0  0  0  0  0
   23.5659   35.4205   82.6201 C   0  0  0  0  0  0
   22.9434   36.1839   83.5434 N   0  0  0  0  0  0
   23.7066   37.0713   84.2209 C   0  0  0  0  0  0
   23.0669   37.9276   85.1387 N   0  0  0  0  0  0
   21.7299   38.1483   85.5356 C   0  0  0  0  0  0
   20.6502   37.3369   85.1495 C   0  0  0  0  0  0
   19.3479   37.6496   85.5374 C   0  0  0  0  0  0
   19.1032   38.7769   86.3157 C   0  0  0  0  0  0
   20.1618   39.5871   86.7198 C   0  0  0  0  0  0
   21.4704   39.2726   86.3372 C   0  0  0  0  0  0
   29.2154   37.4260   83.0161 O   0  0  0  0  0  0
   28.1959   39.2906   84.8894 C   0  0  0  0  0  0
   29.8534   36.3846   82.2786 C   0  0  0  0  0  0
   19.8372   40.9807   87.6866 Cl  0  0  0  0  0  0
   22.4914   40.0699   86.7395 F   0  0  0  0  0  0
   28.1053   40.6035   84.2211 N   0  0  2  0  0  0
   29.2875   41.4707   84.4264 C   0  0  2  0  0  0
   26.8767   41.3183   84.5765 C   0  0  0  0  0  0
   30.5381   41.0210   83.6471 C   0  0  0  0  0  0
   31.5773   41.2701   84.4643 N   0  0  0  0  0  0
   31.2373   42.0271   85.6655 C   0  0  0  0  0  0
   29.7698   41.6911   85.8596 C   0  0  0  0  0  0
   30.5848   40.6186   82.4870 O   0  0  0  0  0  0
   27.4032   35.7301   81.9095 H   0  0  0  0  0  0
   25.5780   38.8087   85.3452 H   0  0  0  0  0  0
   22.9506   34.7074   82.0928 H   0  0  0  0  0  0
   23.7017   38.5837   85.5663 H   0  0  0  0  0  0
   20.7821   36.4503   84.5526 H   0  0  0  0  0  0
   18.5271   37.0187   85.2304 H   0  0  0  0  0  0
   18.0908   39.0217   86.6041 H   0  0  0  0  0  0
   29.2255   38.9329   84.8643 H   0  0  0  0  0  0
   27.9536   39.3758   85.9505 H   0  0  0  0  0  0
   30.9274   36.5682   82.2531 H   0  0  0  0  0  0
   29.6966   35.4094   82.7414 H   0  0  0  0  0  0
   29.5058   36.3433   81.2465 H   0  0  0  0  0  0
   29.0738   42.4446   83.9776 H   0  0  0  0  0  0
   26.8300   42.2919   84.0869 H   0  0  0  0  0  0
   25.9916   40.7728   84.2524 H   0  0  0  0  0  0
   26.8057   41.4823   85.6529 H   0  0  0  0  0  0
   32.5294   41.1782   84.1447 H   0  0  0  0  0  0
   31.4131   43.0917   85.4921 H   0  0  0  0  0  0
   31.8463   41.7109   86.5139 H   0  0  0  0  0  0
   29.7210   40.7757   86.4517 H   0  0  0  0  0  0
   29.2234   42.4668   86.3968 H   0  0  0  0  0  0
  1  2  1  0  0  0
  1 19  1  0  0  0
  1  4  2  0  0  0
  2 18  1  0  0  0
  2  3  2  0  0  0
  3  6  1  0  0  0
  3 31  1  0  0  0
  4  5  1  0  0  0
  4 32  1  0  0  0
  5 10  2  0  0  0
  5  6  1  0  0  0
  6  7  2  0  0  0
  7  8  1  0  0  0
  8  9  2  0  0  0
  8 33  1  0  0  0
  9 10  1  0  0  0
 10 11  1  0  0  0
 11 12  1  0  0  0
 11 34  1  0  0  0
 12 17  2  0  0  0
 12 13  1  0  0  0
 13 14  2  0  0  0
 13 35  1  0  0  0
 14 15  1  0  0  0
 14 36  1  0  0  0
 15 16  2  0  0  0
 15 37  1  0  0  0
 16 17  1  0  0  0
 16 21  1  0  0  0
 17 22  1  0  0  0
 18 20  1  0  0  0
 19 23  1  0  0  0
 19 38  1  0  0  0
 19 39  1  0  0  0
 20 40  1  0  0  0
 20 41  1  0  0  0
 20 42  1  0  0  0
 23 24  1  0  0  0
 23 25  1  0  0  0
 24 26  1  0  0  0
 24 29  1  0  0  0
 24 43  1  0  0  0
 25 44  1  0  0  0
 25 45  1  0  0  0
 25 46  1  0  0  0
 26 27  1  0  0  0
 26 30  2  0  0  0
 27 28  1  0  0  0
 27 47  1  0  0  0
 28 29  1  0  0  0
 28 48  1  0  0  0
 28 49  1  0  0  0
 29 50  1  0  0  0
 29 51  1  0  0  0
M  END
> <s_m_entry_id>
4643

> <s_m_entry_name>
dock_pv.131

> <s_m_Source_Path>
/home/csk/Desktop/cluster/DUD-E-result/lck

> <s_m_Source_File>
dock_pv.maegz

> <i_m_Source_File_Index>
131

> <chembl_id>
CHEMBL378370

> <chembl_pref_name>
None

> <i_lp_mmshare_version>
53161

> <i_f3d_flags>
0

> <r_lp_tautomer_probability>
0.999978000241998

> <s_lp_Force_Field>
OPLS_2005

> <r_lp_Energy>
35.926426

> <b_lp_Chiralities_Consistent>
1

> <s_lp_Variant>
CHEMBL258_lig631-1

> <s_i_glide_gridfile>
glide-grid_2of2

> <i_i_glide_lignum>
710

> <i_i_glide_rotatable_bonds>
6

> <r_i_docking_score>
-7.41028718763077

> <r_i_glide_ligand_efficiency>
-0.247009572921026

> <r_i_glide_ligand_efficiency_sa>
-0.767516173391833

> <r_i_glide_ligand_efficiency_ln>
-1.68369799057551

> <r_i_glide_gscore>
-7.41028718763077

> <r_i_glide_lipo>
-2.64599765868607

> <r_i_glide_hbond>
-0.162531498266098

> <r_i_glide_metal>
0

> <r_i_glide_rewards>
-1.80969417544966

> <r_i_glide_evdw>
-40.1959075927734

> <r_i_glide_ecoul>
-8.27089786529541

> <r_i_glide_erotb>
0.537799950096419

> <r_i_glide_esite>
-0.0794337458923756

> <r_i_glide_emodel>
-69.5377059725746

> <r_i_glide_energy>
-48.4668054580688

> <r_i_glide_einternal>
2.46240639686584

> <i_i_glide_confnum>
134

> <i_i_glide_posenum>
286

> <r_i_glide_eff_state_penalty>
0

> <s_user_duplicate_titles>
CHEMBL258_lig631

> <s_m_subgroup_title>
dock_pv

> <s_m_subgroupid>
dock_pv

> <b_m_subgroup_collapsed>
1

$$$$
CHEMBL258_lig195
                    3D
 Schrodinger Suite 2021-1.
 29 31  0  0  1  0            999 V2000
   26.1735   36.8258   83.3464 N   0  0  0  0  0  0
   24.8148   36.6170   83.5859 C   0  0  0  0  0  0
   24.8493   38.5868   84.9891 N   0  0  0  0  0  0
   24.1773   37.5466   84.4257 C   0  0  0  0  0  0
   26.8846   37.8361   83.8960 C   0  0  0  0  0  0
   26.1814   38.7366   84.7449 C   0  0  0  0  0  0
   25.5624   35.0244   82.1815 N   0  0  0  0  0  0
   26.5593   35.8235   82.4872 C   0  0  0  0  0  0
   24.5041   35.4632   82.8260 C   0  0  0  0  0  0
   22.6933   37.4803   84.7561 C   0  0  0  0  0  0
   28.2733   38.0156   83.6651 C   0  0  0  0  0  0
   26.8892   39.8071   85.3437 C   0  0  0  0  0  0
   22.4147   36.7887   86.0995 C   0  0  0  0  0  0
   28.9378   39.0812   84.2685 C   0  0  0  0  0  0
   28.2543   39.9679   85.0996 C   0  0  0  0  0  0
   20.9247   36.5075   86.3266 C   0  0  0  0  0  0
   27.5697   35.7363   82.1114 H   0  0  0  0  0  0
   23.5454   34.9744   82.7222 H   0  0  0  0  0  0
   22.1865   36.9516   83.9474 H   0  0  0  0  0  0
   22.2766   38.4888   84.7611 H   0  0  0  0  0  0
   28.8195   37.3339   83.0303 H   0  0  0  0  0  0
   26.3653   40.4973   85.9903 H   0  0  0  0  0  0
   22.7909   37.4083   86.9143 H   0  0  0  0  0  0
   22.9605   35.8461   86.1469 H   0  0  0  0  0  0
   29.9959   39.2197   84.0956 H   0  0  0  0  0  0
   28.7917   40.7841   85.5598 H   0  0  0  0  0  0
   20.7662   36.0192   87.2851 H   0  0  0  0  0  0
   20.5298   35.8436   85.5573 H   0  0  0  0  0  0
   20.3363   37.4257   86.3161 H   0  0  0  0  0  0
  1  2  1  0  0  0
  1  5  1  0  0  0
  1  8  1  0  0  0
  2  4  1  0  0  0
  2  9  2  0  0  0
  3  6  1  0  0  0
  3  4  2  0  0  0
  4 10  1  0  0  0
  5  6  1  0  0  0
  5 11  2  0  0  0
  6 12  2  0  0  0
  7  8  2  0  0  0
  7  9  1  0  0  0
  8 17  1  0  0  0
  9 18  1  0  0  0
 10 13  1  0  0  0
 10 19  1  0  0  0
 10 20  1  0  0  0
 11 14  1  0  0  0
 11 21  1  0  0  0
 12 15  1  0  0  0
 12 22  1  0  0  0
 13 16  1  0  0  0
 13 23  1  0  0  0
 13 24  1  0  0  0
 14 15  2  0  0  0
 14 25  1  0  0  0
 15 26  1  0  0  0
 16 27  1  0  0  0
 16 28  1  0  0  0
 16 29  1  0  0  0
M  END
> <s_m_entry_id>
4644

> <s_m_entry_name>
dock_pv.132

> <s_m_Source_Path>
/home/csk/Desktop/cluster/DUD-E-result/lck

> <s_m_Source_File>
dock_pv.maegz

> <i_m_Source_File_Index>
132

> <chembl_id>
CHEMBL85472

> <chembl_pref_name>
None

> <i_lp_mmshare_version>
53161

> <i_f3d_flags>
0

> <r_lp_tautomer_probability>
1

> <s_lp_Force_Field>
OPLS_2005

> <r_lp_Energy>
46.557445

> <b_lp_Chiralities_Consistent>
1

> <s_lp_Variant>
CHEMBL258_lig195-1

> <s_i_glide_gridfile>
glide-grid_2of2

> <i_i_glide_lignum>
223

> <i_i_glide_rotatable_bonds>
2

> <r_i_docking_score>
-7.40456857551875

> <r_i_glide_ligand_efficiency>
-0.462785535969922

> <r_i_glide_ligand_efficiency_sa>
-1.16614647563302

> <r_i_glide_ligand_efficiency_ln>
-1.96272881055602

> <r_i_glide_gscore>
-7.40456857551875

> <r_i_glide_lipo>
-2.17405379628323

> <r_i_glide_hbond>
-0.32

> <r_i_glide_metal>
0

> <r_i_glide_rewards>
-3.39945131077925

> <r_i_glide_evdw>
-23.9822673797607

> <r_i_glide_ecoul>
-2.07966732978821

> <r_i_glide_erotb>
0

> <r_i_glide_esite>
0

> <r_i_glide_emodel>
-37.8600933544053

> <r_i_glide_energy>
-26.061934709549

> <r_i_glide_einternal>
0.66518223285675

> <i_i_glide_confnum>
1

> <i_i_glide_posenum>
26

> <r_i_glide_eff_state_penalty>
0

> <s_user_duplicate_titles>
CHEMBL258_lig195

> <s_m_subgroup_title>
dock_pv

> <s_m_subgroupid>
dock_pv

> <b_m_subgroup_collapsed>
1

$$$$
CHEMBL258_lig1050
                    3D
 Schrodinger Suite 2021-1.
 37 39  0  0  1  0            999 V2000
   28.7665   38.1579   83.6920 C   0  0  0  0  0  0
   28.8425   37.0203   82.8870 C   0  0  0  0  0  0
   27.6916   36.2798   82.6045 C   0  0  0  0  0  0
   27.5421   38.5458   84.2372 C   0  0  0  0  0  0
   26.4008   37.7882   83.9854 C   0  0  0  0  0  0
   26.4597   36.6439   83.1737 C   0  0  0  0  0  0
   25.2345   35.8215   82.9637 C   0  0  0  0  0  0
   24.0709   36.3212   83.6870 C   0  0  0  0  0  0
   24.1023   37.4653   84.4091 C   0  0  0  0  0  0
   25.2307   38.2056   84.5840 O   0  0  0  0  0  0
   22.9487   38.0660   85.1343 C   0  0  0  0  0  0
   22.8381   39.4591   85.2429 C   0  0  0  0  0  0
   21.7349   40.0670   85.8648 C   0  0  0  0  0  0
   20.7273   39.2518   86.3945 C   0  0  0  0  0  0
   20.8158   37.8573   86.3169 C   0  0  0  0  0  0
   21.9262   37.2767   85.6745 C   0  0  0  0  0  0
   25.2300   34.8227   82.2465 O   0  0  0  0  0  0
   19.6191   39.8205   86.9822 O   0  0  0  0  0  0
   21.5727   41.4358   85.9792 O   0  0  0  0  0  0
   22.5037   42.3187   85.3593 C   0  0  0  0  0  0
   19.7802   37.1351   86.8878 O   0  0  0  0  0  0
   19.7905   35.7184   86.8039 C   0  0  0  0  0  0
   30.0487   36.6226   82.3715 O   0  0  0  0  0  0
   29.6583   38.7301   83.9029 H   0  0  0  0  0  0
   27.7677   35.3980   81.9793 H   0  0  0  0  0  0
   27.4748   39.4183   84.8712 H   0  0  0  0  0  0
   23.1422   35.7796   83.5887 H   0  0  0  0  0  0
   23.6189   40.0718   84.8170 H   0  0  0  0  0  0
   22.0027   36.2021   85.5951 H   0  0  0  0  0  0
   18.8507   39.2411   86.9251 H   0  0  0  0  0  0
   22.1858   43.3499   85.5227 H   0  0  0  0  0  0
   23.5035   42.2108   85.7836 H   0  0  0  0  0  0
   22.5510   42.1588   84.2813 H   0  0  0  0  0  0
   18.9062   35.3172   87.2971 H   0  0  0  0  0  0
   20.6677   35.2793   87.2846 H   0  0  0  0  0  0
   19.7613   35.4210   85.7582 H   0  0  0  0  0  0
   30.0072   35.8186   81.8442 H   0  0  0  0  0  0
  1  2  1  0  0  0
  1  4  2  0  0  0
  1 24  1  0  0  0
  2  3  2  0  0  0
  2 23  1  0  0  0
  3  6  1  0  0  0
  3 25  1  0  0  0
  4  5  1  0  0  0
  4 26  1  0  0  0
  5  6  2  0  0  0
  5 10  1  0  0  0
  6  7  1  0  0  0
  7 17  2  0  0  0
  7  8  1  0  0  0
  8  9  2  0  0  0
  8 27  1  0  0  0
  9 11  1  0  0  0
  9 10  1  0  0  0
 11 16  1  0  0  0
 11 12  2  0  0  0
 12 13  1  0  0  0
 12 28  1  0  0  0
 13 14  2  0  0  0
 13 19  1  0  0  0
 14 15  1  0  0  0
 14 18  1  0  0  0
 15 16  2  0  0  0
 15 21  1  0  0  0
 16 29  1  0  0  0
 18 30  1  0  0  0
 19 20  1  0  0  0
 20 31  1  0  0  0
 20 32  1  0  0  0
 20 33  1  0  0  0
 21 22  1  0  0  0
 22 34  1  0  0  0
 22 35  1  0  0  0
 22 36  1  0  0  0
 23 37  1  0  0  0
M  END
> <s_m_entry_id>
4645

> <s_m_entry_name>
dock_pv.133

> <s_m_Source_Path>
/home/csk/Desktop/cluster/DUD-E-result/lck

> <s_m_Source_File>
dock_pv.maegz

> <i_m_Source_File_Index>
133

> <chembl_id>
CHEMBL489763

> <chembl_pref_name>
None

> <i_lp_mmshare_version>
53161

> <i_f3d_flags>
0

> <r_lp_tautomer_probability>
0.99999999999482

> <s_lp_Force_Field>
OPLS_2005

> <r_lp_Energy>
18.860999

> <b_lp_Chiralities_Consistent>
1

> <s_lp_Variant>
CHEMBL258_lig1050-1

> <s_i_glide_gridfile>
glide-grid_2of2

> <i_i_glide_lignum>
1138

> <i_i_glide_rotatable_bonds>
5

> <r_i_docking_score>
-7.40277286863044

> <r_i_glide_ligand_efficiency>
-0.321859689940454

> <r_i_glide_ligand_efficiency_sa>
-0.915326143410253

> <r_i_glide_ligand_efficiency_ln>
-1.79005760426803

> <r_i_glide_gscore>
-7.40277286863044

> <r_i_glide_lipo>
-2.67388668462858

> <r_i_glide_hbond>
-0.32

> <r_i_glide_metal>
0

> <r_i_glide_rewards>
-1.81846471472259

> <r_i_glide_evdw>
-32.6864166259766

> <r_i_glide_ecoul>
-7.62841892242432

> <r_i_glide_erotb>
0.18816220038321

> <r_i_glide_esite>
0

> <r_i_glide_emodel>
-57.2617812927125

> <r_i_glide_energy>
-40.3148355484009

> <r_i_glide_einternal>
2.12340211868286

> <i_i_glide_confnum>
2

> <i_i_glide_posenum>
325

> <r_i_glide_eff_state_penalty>
0

> <s_user_duplicate_titles>
CHEMBL258_lig1050

> <s_m_subgroup_title>
dock_pv

> <s_m_subgroupid>
dock_pv

> <b_m_subgroup_collapsed>
1

$$$$
CHEMBL258_lig803
                    3D
 Schrodinger Suite 2021-1.
 36 38  0  0  1  0            999 V2000
   23.3845   36.4882   84.0353 C   0  0  0  0  0  0
   25.5475   36.0865   82.9495 C   0  0  0  0  0  0
   25.0242   36.9701   84.3581 S   0  0  0  0  0  0
   22.3137   36.9181   84.9053 C   0  0  0  0  0  0
   21.0676   36.6215   84.4810 N   0  0  0  0  0  0
   24.5835   35.4209   82.3598 N   0  0  0  0  0  0
   23.4021   35.6436   82.9133 C   0  0  0  0  0  0
   19.9095   36.7712   85.2729 C   0  0  0  0  0  0
   26.8494   36.0647   82.4886 N   0  0  0  0  0  0
   22.5488   37.4926   85.9717 O   0  0  0  0  0  0
   18.8815   37.6235   84.8298 C   0  0  0  0  0  0
   19.7500   36.0636   86.4871 C   0  0  0  0  0  0
   30.3784   38.2217   83.3391 N   0  0  0  0  0  0
   27.9952   36.7862   82.8846 C   0  0  0  0  0  0
   18.9512   38.4321   83.3012 Cl  0  0  0  0  0  0
   29.2336   36.2708   82.4854 C   0  0  0  0  0  0
   27.9751   38.0408   83.5188 C   0  0  0  0  0  0
   30.3899   37.0210   82.7119 C   0  0  0  0  0  0
   29.1793   38.7121   83.7373 C   0  0  0  0  0  0
   17.6118   37.1501   86.8361 C   0  0  0  0  0  0
   17.7507   37.8203   85.6213 C   0  0  0  0  0  0
   18.5982   36.2619   87.2581 C   0  0  0  0  0  0
   20.7486   34.9977   86.9363 C   0  0  0  0  0  0
   20.9390   36.2354   83.5593 H   0  0  0  0  0  0
   22.5409   35.1477   82.4866 H   0  0  0  0  0  0
   27.0754   35.4249   81.7368 H   0  0  0  0  0  0
   29.3035   35.3244   81.9667 H   0  0  0  0  0  0
   27.0620   38.5377   83.7971 H   0  0  0  0  0  0
   31.3566   36.6530   82.3946 H   0  0  0  0  0  0
   29.1954   39.6813   84.2147 H   0  0  0  0  0  0
   16.7237   37.3020   87.4322 H   0  0  0  0  0  0
   16.9655   38.4835   85.2859 H   0  0  0  0  0  0
   18.4550   35.7126   88.1764 H   0  0  0  0  0  0
   21.1061   34.4170   86.0876 H   0  0  0  0  0  0
   21.6201   35.4452   87.4144 H   0  0  0  0  0  0
   20.2936   34.2777   87.6187 H   0  0  0  0  0  0
  1  3  1  0  0  0
  1  4  1  0  0  0
  1  7  2  0  0  0
  2  3  1  0  0  0
  2  9  1  0  0  0
  2  6  2  0  0  0
  4  5  1  0  0  0
  4 10  2  0  0  0
  5  8  1  0  0  0
  5 24  1  0  0  0
  6  7  1  0  0  0
  7 25  1  0  0  0
  8 11  1  0  0  0
  8 12  2  0  0  0
  9 14  1  0  0  0
  9 26  1  0  0  0
 11 15  1  0  0  0
 11 21  2  0  0  0
 12 22  1  0  0  0
 12 23  1  0  0  0
 13 19  2  0  0  0
 13 18  1  0  0  0
 14 16  1  0  0  0
 14 17  2  0  0  0
 16 18  2  0  0  0
 16 27  1  0  0  0
 17 19  1  0  0  0
 17 28  1  0  0  0
 18 29  1  0  0  0
 19 30  1  0  0  0
 20 22  2  0  0  0
 20 21  1  0  0  0
 20 31  1  0  0  0
 21 32  1  0  0  0
 22 33  1  0  0  0
 23 34  1  0  0  0
 23 35  1  0  0  0
 23 36  1  0  0  0
M  END
> <s_m_entry_id>
4646

> <s_m_entry_name>
dock_pv.134

> <s_m_Source_Path>
/home/csk/Desktop/cluster/DUD-E-result/lck

> <s_m_Source_File>
dock_pv.maegz

> <i_m_Source_File_Index>
134

> <chembl_id>
CHEMBL360810

> <chembl_pref_name>
None

> <i_lp_mmshare_version>
53161

> <i_f3d_flags>
0

> <r_lp_tautomer_probability>
0.999999106000799

> <s_lp_Force_Field>
OPLS_2005

> <r_lp_Energy>
20.417643

> <b_lp_Chiralities_Consistent>
1

> <s_lp_Variant>
CHEMBL258_lig803-1

> <s_i_glide_gridfile>
glide-grid_2of2

> <i_i_glide_lignum>
888

> <i_i_glide_rotatable_bonds>
5

> <r_i_docking_score>
-7.40234000377536

> <r_i_glide_ligand_efficiency>
-0.321840869729364

> <r_i_glide_ligand_efficiency_sa>
-0.915272621233436

> <r_i_glide_ligand_efficiency_ln>
-1.78995293362107

> <r_i_glide_gscore>
-7.40234000377536

> <r_i_glide_lipo>
-2.96463734898651

> <r_i_glide_hbond>
-0.172286743921871

> <r_i_glide_metal>
0

> <r_i_glide_rewards>
-2.32985697604364

> <r_i_glide_evdw>
-39.4698066711426

> <r_i_glide_ecoul>
-5.07151079177856

> <r_i_glide_erotb>
0.79865801750057

> <r_i_glide_esite>
0

> <r_i_glide_emodel>
-62.0917726347245

> <r_i_glide_energy>
-44.5413174629211

> <r_i_glide_einternal>
3.30976223945618

> <i_i_glide_confnum>
14

> <i_i_glide_posenum>
309

> <r_i_glide_eff_state_penalty>
0

> <s_user_duplicate_titles>
CHEMBL258_lig803,312384

> <s_m_subgroup_title>
dock_pv

> <s_m_subgroupid>
dock_pv

> <b_m_subgroup_collapsed>
1

$$$$
CHEMBL258_lig194
                    3D
 Schrodinger Suite 2021-1.
 43 46  0  0  1  0            999 V2000
   22.5197   36.9567   84.1672 C   0  0  0  0  0  0
   23.5435   36.2975   83.4658 C   0  0  0  0  0  0
   22.7830   37.9817   85.0124 N   0  0  0  0  0  0
   24.8418   36.7558   83.7085 N   0  0  0  0  0  0
   24.0568   38.4240   85.2187 C   0  0  0  0  0  0
   25.1391   37.7784   84.5458 C   0  0  0  0  0  0
   21.1795   36.6190   83.9526 N   0  0  0  0  0  0
   24.3239   39.5482   86.0873 C   0  0  0  0  0  0
   24.9837   35.1112   82.2013 N   0  0  0  0  0  0
   20.0696   36.8812   84.7816 C   0  0  0  0  0  0
   25.6638   35.9798   82.9172 C   0  0  0  0  0  0
   23.7124   35.2854   82.4876 C   0  0  0  0  0  0
   23.3180   40.2672   86.7988 N   0  0  0  0  0  0
   18.9905   37.6406   84.2950 C   0  0  0  0  0  0
   20.0019   36.3559   86.0903 C   0  0  0  0  0  0
   18.9458   38.2210   82.6686 Cl  0  0  0  0  0  0
   26.4702   38.2209   84.7469 C   0  0  0  0  0  0
   25.6645   39.9452   86.2326 C   0  0  0  0  0  0
   26.7112   39.2961   85.5891 C   0  0  0  0  0  0
   17.8485   37.4212   86.4130 C   0  0  0  0  0  0
   17.8966   37.9174   85.1151 C   0  0  0  0  0  0
   18.8859   36.6240   86.8872 C   0  0  0  0  0  0
   23.5346   41.6512   87.2165 C   0  0  0  0  0  0
   22.1222   39.6003   87.3115 C   0  0  0  0  0  0
   21.0626   35.4054   86.6347 C   0  0  0  0  0  0
   21.0396   35.8658   83.2982 H   0  0  0  0  0  0
   26.7353   36.1024   82.8878 H   0  0  0  0  0  0
   22.9505   34.6821   82.0192 H   0  0  0  0  0  0
   27.3003   37.7392   84.2516 H   0  0  0  0  0  0
   25.9232   40.7698   86.8797 H   0  0  0  0  0  0
   27.7250   39.6365   85.7454 H   0  0  0  0  0  0
   16.9930   37.6366   87.0375 H   0  0  0  0  0  0
   17.0715   38.5114   84.7476 H   0  0  0  0  0  0
   18.8112   36.2071   87.8808 H   0  0  0  0  0  0
   24.1187   42.2029   86.4791 H   0  0  0  0  0  0
   22.5863   42.1767   87.3414 H   0  0  0  0  0  0
   24.0718   41.6837   88.1647 H   0  0  0  0  0  0
   22.3187   38.5552   87.5541 H   0  0  0  0  0  0
   21.7526   40.0848   88.2160 H   0  0  0  0  0  0
   21.3269   39.6311   86.5657 H   0  0  0  0  0  0
   21.3524   34.7024   85.8564 H   0  0  0  0  0  0
   21.9489   35.9483   86.9638 H   0  0  0  0  0  0
   20.6846   34.7847   87.4471 H   0  0  0  0  0  0
  1  2  1  0  0  0
  1  3  2  0  0  0
  1  7  1  0  0  0
  2  4  1  0  0  0
  2 12  2  0  0  0
  3  5  1  0  0  0
  4 11  1  0  0  0
  4  6  1  0  0  0
  5  6  1  0  0  0
  5  8  2  0  0  0
  6 17  2  0  0  0
  7 10  1  0  0  0
  7 26  1  0  0  0
  8 13  1  0  0  0
  8 18  1  0  0  0
  9 12  1  0  0  0
  9 11  2  0  0  0
 10 14  2  0  0  0
 10 15  1  0  0  0
 11 27  1  0  0  0
 12 28  1  0  0  0
 13 23  1  0  0  0
 13 24  1  0  0  0
 14 16  1  0  0  0
 14 21  1  0  0  0
 15 22  2  0  0  0
 15 25  1  0  0  0
 17 19  1  0  0  0
 17 29  1  0  0  0
 18 19  2  0  0  0
 18 30  1  0  0  0
 19 31  1  0  0  0
 20 22  1  0  0  0
 20 21  2  0  0  0
 20 32  1  0  0  0
 21 33  1  0  0  0
 22 34  1  0  0  0
 23 35  1  0  0  0
 23 36  1  0  0  0
 23 37  1  0  0  0
 24 38  1  0  0  0
 24 39  1  0  0  0
 24 40  1  0  0  0
 25 41  1  0  0  0
 25 42  1  0  0  0
 25 43  1  0  0  0
M  END
> <s_m_entry_id>
4647

> <s_m_entry_name>
dock_pv.135

> <s_m_Source_Path>
/home/csk/Desktop/cluster/DUD-E-result/lck

> <s_m_Source_File>
dock_pv.maegz

> <i_m_Source_File_Index>
135

> <chembl_id>
CHEMBL315066

> <chembl_pref_name>
None

> <i_lp_mmshare_version>
53161

> <i_f3d_flags>
0

> <r_lp_tautomer_probability>
1

> <s_lp_Force_Field>
OPLS_2005

> <r_lp_Energy>
70.702097

> <b_lp_Chiralities_Consistent>
1

> <s_lp_Variant>
CHEMBL258_lig194-1

> <s_i_glide_gridfile>
glide-grid_2of2

> <i_i_glide_lignum>
222

> <i_i_glide_rotatable_bonds>
3

> <r_i_docking_score>
-7.39820644195929

> <r_i_glide_ligand_efficiency>
-0.295928257678372

> <r_i_glide_ligand_efficiency_sa>
-0.865299473761556

> <r_i_glide_ligand_efficiency_ln>
-1.75359663310081

> <r_i_glide_gscore>
-7.39820644195929

> <r_i_glide_lipo>
-2.6311693264466

> <r_i_glide_hbond>
-0.267637438950462

> <r_i_glide_metal>
0

> <r_i_glide_rewards>
-2.63718037270062

> <r_i_glide_evdw>
-35.0123138427734

> <r_i_glide_ecoul>
-2.79892826080322

> <r_i_glide_erotb>
0.308235627397543

> <r_i_glide_esite>
0

> <r_i_glide_emodel>
-53.7633884309082

> <r_i_glide_energy>
-37.8112421035767

> <r_i_glide_einternal>
1.97591769695282

> <i_i_glide_confnum>
2

> <i_i_glide_posenum>
258

> <r_i_glide_eff_state_penalty>
0

> <s_user_duplicate_titles>
CHEMBL258_lig194,136924

> <s_m_subgroup_title>
dock_pv

> <s_m_subgroupid>
dock_pv

> <b_m_subgroup_collapsed>
1

$$$$
CHEMBL258_lig821
                    3D
 Schrodinger Suite 2021-1.
 58 62  0  0  1  0            999 V2000
   22.0526   37.4192   86.0339 N   0  0  0  0  0  0
   24.0457   37.3836   84.8680 N   0  0  0  0  0  0
   23.1480   38.1334   85.5438 C   0  0  0  0  0  0
   23.3479   39.4915   85.7847 C   0  0  0  0  0  0
   24.5205   40.0643   85.2909 C   0  0  0  0  0  0
   25.4296   39.3383   84.5785 N   0  0  0  0  0  0
   25.1539   38.0182   84.3973 C   0  0  0  0  0  0
   26.0503   37.2165   83.6431 N   0  0  0  0  0  0
   25.7316   35.9992   83.0642 C   0  0  0  0  0  0
   26.7186   35.3824   82.4862 N   0  0  0  0  0  0
   27.4056   37.3973   83.3676 C   0  0  0  0  0  0
   27.7784   36.2282   82.6408 C   0  0  0  0  0  0
   29.1043   36.0424   82.2249 C   0  0  0  0  0  0
   30.0409   37.0209   82.5572 C   0  0  0  0  0  0
   29.6719   38.1532   83.2858 C   0  0  0  0  0  0
   28.3532   38.3785   83.6885 C   0  0  0  0  0  0
   24.7190   41.4297   85.5432 N   0  0  0  0  0  0
   25.7702   42.3120   85.2401 C   0  0  0  0  0  0
   27.0839   41.8550   85.1013 C   0  0  0  0  0  0
   28.1024   42.7150   84.7050 C   0  0  0  0  0  0
   27.8271   44.0648   84.5023 C   0  0  0  0  0  0
   26.5379   44.5507   84.7096 C   0  0  0  0  0  0
   25.5033   43.6844   85.0820 C   0  0  0  0  0  0
   24.1008   44.2540   85.2870 C   0  0  0  0  0  0
   29.3597   42.2244   84.4802 O   0  0  0  0  0  0
   20.7040   37.6841   85.5503 N   0  0  0  0  0  0
   20.6111   37.7323   84.0888 C   0  0  0  0  0  0
   19.1188   37.7646   83.6959 C   0  0  0  0  0  0
   18.4701   38.9396   84.2928 N   0  0  0  0  0  0
   18.5985   38.9067   85.7581 C   0  0  0  0  0  0
   20.0888   38.8610   86.1641 C   0  0  0  0  0  0
   17.0578   38.9419   83.9430 C   0  0  0  0  0  0
   22.1781   36.4204   85.9612 H   0  0  0  0  0  0
   22.6423   40.0653   86.3625 H   0  0  0  0  0  0
   24.7253   35.6129   83.1360 H   0  0  0  0  0  0
   29.3930   35.1590   81.6725 H   0  0  0  0  0  0
   31.0715   36.8966   82.2559 H   0  0  0  0  0  0
   30.4278   38.8853   83.5336 H   0  0  0  0  0  0
   28.1018   39.2596   84.2480 H   0  0  0  0  0  0
   23.9311   41.8833   85.9780 H   0  0  0  0  0  0
   27.3204   40.8263   85.2988 H   0  0  0  0  0  0
   28.6097   44.7397   84.1854 H   0  0  0  0  0  0
   26.3379   45.6008   84.5526 H   0  0  0  0  0  0
   23.7308   44.0155   86.2840 H   0  0  0  0  0  0
   24.0690   45.3377   85.1727 H   0  0  0  0  0  0
   23.4061   43.8205   84.5663 H   0  0  0  0  0  0
   29.9179   42.8772   84.0273 H   0  0  0  0  0  0
   21.1256   38.6120   83.6980 H   0  0  0  0  0  0
   21.0908   36.8532   83.6565 H   0  0  0  0  0  0
   19.0343   37.8215   82.6103 H   0  0  0  0  0  0
   18.6249   36.8404   84.0058 H   0  0  0  0  0  0
   18.0579   38.0579   86.1827 H   0  0  0  0  0  0
   18.1504   39.8080   86.1778 H   0  0  0  0  0  0
   20.1842   38.8058   87.2484 H   0  0  0  0  0  0
   20.5773   39.7776   85.8343 H   0  0  0  0  0  0
   16.5526   39.8142   84.3589 H   0  0  0  0  0  0
   16.9463   38.9791   82.8619 H   0  0  0  0  0  0
   16.5489   38.0502   84.3117 H   0  0  0  0  0  0
  1  3  1  0  0  0
  1 26  1  0  0  0
  1 33  1  0  0  0
  2  7  1  0  0  0
  2  3  2  0  0  0
  3  4  1  0  0  0
  4  5  2  0  0  0
  4 34  1  0  0  0
  5 17  1  0  0  0
  5  6  1  0  0  0
  6  7  2  0  0  0
  7  8  1  0  0  0
  8  9  1  0  0  0
  8 11  1  0  0  0
  9 10  2  0  0  0
  9 35  1  0  0  0
 10 12  1  0  0  0
 11 16  1  0  0  0
 11 12  2  0  0  0
 12 13  1  0  0  0
 13 14  2  0  0  0
 13 36  1  0  0  0
 14 15  1  0  0  0
 14 37  1  0  0  0
 15 16  2  0  0  0
 15 38  1  0  0  0
 16 39  1  0  0  0
 17 18  1  0  0  0
 17 40  1  0  0  0
 18 19  2  0  0  0
 18 23  1  0  0  0
 19 20  1  0  0  0
 19 41  1  0  0  0
 20 21  2  0  0  0
 20 25  1  0  0  0
 21 22  1  0  0  0
 21 42  1  0  0  0
 22 23  2  0  0  0
 22 43  1  0  0  0
 23 24  1  0  0  0
 24 44  1  0  0  0
 24 45  1  0  0  0
 24 46  1  0  0  0
 25 47  1  0  0  0
 26 27  1  0  0  0
 26 31  1  0  0  0
 27 28  1  0  0  0
 27 48  1  0  0  0
 27 49  1  0  0  0
 28 29  1  0  0  0
 28 50  1  0  0  0
 28 51  1  0  0  0
 29 30  1  0  0  0
 29 32  1  0  0  0
 30 31  1  0  0  0
 30 52  1  0  0  0
 30 53  1  0  0  0
 31 54  1  0  0  0
 31 55  1  0  0  0
 32 56  1  0  0  0
 32 57  1  0  0  0
 32 58  1  0  0  0
M  END
> <s_m_entry_id>
4648

> <s_m_entry_name>
dock_pv.136

> <s_m_Source_Path>
/home/csk/Desktop/cluster/DUD-E-result/lck

> <s_m_Source_File>
dock_pv.maegz

> <i_m_Source_File_Index>
136

> <chembl_id>
CHEMBL220600

> <chembl_pref_name>
None

> <i_lp_mmshare_version>
53161

> <i_f3d_flags>
0

> <r_lp_tautomer_probability>
1

> <s_lp_Force_Field>
OPLS_2005

> <r_lp_Energy>
25.829344

> <b_lp_Chiralities_Consistent>
1

> <s_lp_Variant>
CHEMBL258_lig821-1

> <s_i_glide_gridfile>
glide-grid_2of2

> <i_i_glide_lignum>
906

> <i_i_glide_rotatable_bonds>
6

> <r_i_docking_score>
-7.39610318335724

> <r_i_glide_ligand_efficiency>
-0.231128224479914

> <r_i_glide_ligand_efficiency_sa>
-0.733786372510211

> <r_i_glide_ligand_efficiency_ln>
-1.65618911291202

> <r_i_glide_gscore>
-7.39610318335724

> <r_i_glide_lipo>
-1.75666231086724

> <r_i_glide_hbond>
-0.456

> <r_i_glide_metal>
0

> <r_i_glide_rewards>
-2.30377298807709

> <r_i_glide_evdw>
-41.4380378723145

> <r_i_glide_ecoul>
-8.96093082427979

> <r_i_glide_erotb>
0.536373632844779

> <r_i_glide_esite>
0

> <r_i_glide_emodel>
-69.144645716356

> <r_i_glide_energy>
-50.3989686965942

> <r_i_glide_einternal>
7.17158079147339

> <i_i_glide_confnum>
46

> <i_i_glide_posenum>
170

> <r_i_glide_eff_state_penalty>
0

> <s_user_duplicate_titles>
CHEMBL258_lig821,368705

> <s_m_subgroup_title>
dock_pv

> <s_m_subgroupid>
dock_pv

> <b_m_subgroup_collapsed>
1

$$$$
CHEMBL258_lig1040
                    3D
 Schrodinger Suite 2021-1.
 28 30  0  0  1  0            999 V2000
   24.3494   36.6215   83.6871 C   0  0  0  0  0  0
   25.4652   36.0434   82.8801 C   0  0  0  0  0  0
   26.6682   36.8566   82.8885 C   0  0  0  0  0  0
   26.7618   37.9933   83.6126 C   0  0  0  0  0  0
   24.5641   37.7906   84.4323 C   0  0  0  0  0  0
   25.7775   38.4447   84.4353 O   0  0  0  0  0  0
   23.0678   36.0538   83.6866 C   0  0  0  0  0  0
   23.5404   38.3641   85.1830 C   0  0  0  0  0  0
   22.0428   36.6219   84.4448 C   0  0  0  0  0  0
   22.2777   37.7738   85.1951 C   0  0  0  0  0  0
   25.3485   35.0128   82.2201 O   0  0  0  0  0  0
   27.9505   38.8730   83.6595 C   0  0  0  0  0  0
   29.2446   38.3517   83.5296 C   0  0  0  0  0  0
   27.7817   40.2603   83.7559 C   0  0  0  0  0  0
   28.8795   41.1133   83.6871 C   0  0  0  0  0  0
   30.3434   39.2049   83.4595 C   0  0  0  0  0  0
   30.1530   40.5828   83.5162 C   0  0  0  0  0  0
   31.2232   41.4210   83.3743 O   0  0  0  0  0  0
   27.4934   36.5445   82.2668 H   0  0  0  0  0  0
   22.8570   35.1654   83.1048 H   0  0  0  0  0  0
   23.7286   39.2659   85.7455 H   0  0  0  0  0  0
   21.0611   36.1682   84.4474 H   0  0  0  0  0  0
   21.4794   38.2130   85.7757 H   0  0  0  0  0  0
   29.4034   37.2852   83.4586 H   0  0  0  0  0  0
   26.7927   40.6851   83.8543 H   0  0  0  0  0  0
   28.7382   42.1835   83.7405 H   0  0  0  0  0  0
   31.3376   38.8008   83.3356 H   0  0  0  0  0  0
   30.9799   42.3592   83.2872 H   0  0  0  0  0  0
  1  2  1  0  0  0
  1  5  1  0  0  0
  1  7  2  0  0  0
  2  3  1  0  0  0
  2 11  2  0  0  0
  3  4  2  0  0  0
  3 19  1  0  0  0
  4  6  1  0  0  0
  4 12  1  0  0  0
  5  6  1  0  0  0
  5  8  2  0  0  0
  7  9  1  0  0  0
  7 20  1  0  0  0
  8 10  1  0  0  0
  8 21  1  0  0  0
  9 10  2  0  0  0
  9 22  1  0  0  0
 10 23  1  0  0  0
 12 13  2  0  0  0
 12 14  1  0  0  0
 13 16  1  0  0  0
 13 24  1  0  0  0
 14 15  2  0  0  0
 14 25  1  0  0  0
 15 17  1  0  0  0
 15 26  1  0  0  0
 16 17  2  0  0  0
 16 27  1  0  0  0
 17 18  1  0  0  0
 18 28  1  0  0  0
M  END
> <s_m_entry_id>
4649

> <s_m_entry_name>
dock_pv.137

> <s_m_Source_Path>
/home/csk/Desktop/cluster/DUD-E-result/lck

> <s_m_Source_File>
dock_pv.maegz

> <i_m_Source_File_Index>
137

> <chembl_id>
CHEMBL327209

> <chembl_pref_name>
None

> <i_lp_mmshare_version>
53161

> <i_f3d_flags>
0

> <r_lp_tautomer_probability>
0.999999999997365

> <s_lp_Force_Field>
OPLS_2005

> <r_lp_Energy>
12.214262

> <b_lp_Chiralities_Consistent>
1

> <s_lp_Variant>
CHEMBL258_lig1040-1

> <s_i_glide_gridfile>
glide-grid_2of2

> <i_i_glide_lignum>
1128

> <i_i_glide_rotatable_bonds>
2

> <r_i_docking_score>
-7.39577069098262

> <r_i_glide_ligand_efficiency>
-0.410876149499034

> <r_i_glide_ligand_efficiency_sa>
-1.07680013184783

> <r_i_glide_ligand_efficiency_ln>
-1.90104472046191

> <r_i_glide_gscore>
-7.39577069098262

> <r_i_glide_lipo>
-2.4804242892409

> <r_i_glide_hbond>
-0.456

> <r_i_glide_metal>
0

> <r_i_glide_rewards>
-2.32948171812689

> <r_i_glide_evdw>
-26.04714012146

> <r_i_glide_ecoul>
-7.54365873336792

> <r_i_glide_erotb>
0.304041132463358

> <r_i_glide_esite>
0

> <r_i_glide_emodel>
-49.2008289803794

> <r_i_glide_energy>
-33.5907988548279

> <r_i_glide_einternal>
0.648521721363068

> <i_i_glide_confnum>
1

> <i_i_glide_posenum>
357

> <r_i_glide_eff_state_penalty>
0

> <s_user_duplicate_titles>
CHEMBL258_lig1040

> <s_m_subgroup_title>
dock_pv

> <s_m_subgroupid>
dock_pv

> <b_m_subgroup_collapsed>
1

$$$$
CHEMBL258_lig1057
                    3D
 Schrodinger Suite 2021-1.
 29 31  0  0  1  0            999 V2000
   22.5873   38.2634   85.4117 C   0  0  0  0  0  0
   23.3081   39.3913   85.5883 C   0  0  0  0  0  0
   24.6698   39.5278   85.0992 C   0  0  0  0  0  0
   25.1554   38.3464   84.3206 C   0  0  0  0  0  0
   26.4127   38.3026   83.6925 C   0  0  0  0  0  0
   26.7919   37.1834   82.9558 C   0  0  0  0  0  0
   25.9310   36.1017   82.8316 C   0  0  0  0  0  0
   24.6943   36.1195   83.4522 C   0  0  0  0  0  0
   24.3140   37.2319   84.1876 C   0  0  0  0  0  0
   23.0558   37.1778   84.7444 O   0  0  0  0  0  0
   25.3607   40.5286   85.2790 O   0  0  0  0  0  0
   27.2966   39.3457   83.7636 O   0  0  0  0  0  0
   26.2874   35.0208   82.0870 O   0  0  0  0  0  0
   20.2872   39.1684   85.8309 C   0  0  0  0  0  0
   18.9501   38.9835   86.1681 C   0  0  0  0  0  0
   18.4855   37.7107   86.4872 C   0  0  0  0  0  0
   19.3520   36.6212   86.4864 C   0  0  0  0  0  0
   20.6873   36.8052   86.1365 C   0  0  0  0  0  0
   21.1682   38.0782   85.7969 C   0  0  0  0  0  0
   22.8699   40.2323   86.1023 H   0  0  0  0  0  0
   27.7629   37.1621   82.4868 H   0  0  0  0  0  0
   24.0167   35.2883   83.3436 H   0  0  0  0  0  0
   26.9283   40.0576   84.3007 H   0  0  0  0  0  0
   27.0675   35.1901   81.5452 H   0  0  0  0  0  0
   20.6250   40.1614   85.5706 H   0  0  0  0  0  0
   18.2661   39.8207   86.1753 H   0  0  0  0  0  0
   17.4442   37.5743   86.7454 H   0  0  0  0  0  0
   18.9902   35.6357   86.7426 H   0  0  0  0  0  0
   21.3462   35.9480   86.1255 H   0  0  0  0  0  0
  1  2  2  0  0  0
  1 10  1  0  0  0
  1 19  1  0  0  0
  2  3  1  0  0  0
  2 20  1  0  0  0
  3  4  1  0  0  0
  3 11  2  0  0  0
  4  5  2  0  0  0
  4  9  1  0  0  0
  5  6  1  0  0  0
  5 12  1  0  0  0
  6  7  2  0  0  0
  6 21  1  0  0  0
  7  8  1  0  0  0
  7 13  1  0  0  0
  8  9  2  0  0  0
  8 22  1  0  0  0
  9 10  1  0  0  0
 12 23  1  0  0  0
 13 24  1  0  0  0
 14 15  2  0  0  0
 14 19  1  0  0  0
 14 25  1  0  0  0
 15 16  1  0  0  0
 15 26  1  0  0  0
 16 17  2  0  0  0
 16 27  1  0  0  0
 17 18  1  0  0  0
 17 28  1  0  0  0
 18 19  2  0  0  0
 18 29  1  0  0  0
M  END
> <s_m_entry_id>
4650

> <s_m_entry_name>
dock_pv.138

> <s_m_Source_Path>
/home/csk/Desktop/cluster/DUD-E-result/lck

> <s_m_Source_File>
dock_pv.maegz

> <i_m_Source_File_Index>
138

> <chembl_id>
CHEMBL117

> <chembl_pref_name>
CHRYSIN

> <i_lp_mmshare_version>
53161

> <i_f3d_flags>
0

> <r_lp_tautomer_probability>
1

> <s_lp_Force_Field>
OPLS_2005

> <r_lp_Energy>
16.320194

> <b_lp_Chiralities_Consistent>
1

> <s_lp_Variant>
CHEMBL258_lig1057-1

> <s_i_glide_gridfile>
glide-grid_2of2

> <i_i_glide_lignum>
1145

> <i_i_glide_rotatable_bonds>
3

> <r_i_docking_score>
-7.39412481581174

> <r_i_glide_ligand_efficiency>
-0.389164463990092

> <r_i_glide_ligand_efficiency_sa>
-1.03844709631594

> <r_i_glide_ligand_efficiency_ln>
-1.87456945204773

> <r_i_glide_gscore>
-7.39412481581174

> <r_i_glide_lipo>
-2.73062692571516

> <r_i_glide_hbond>
-0.511167076381777

> <r_i_glide_metal>
0

> <r_i_glide_rewards>
-2.21484406781563

> <r_i_glide_evdw>
-29.5564193725586

> <r_i_glide_ecoul>
-4.87803506851196

> <r_i_glide_erotb>
0.272039483005549

> <r_i_glide_esite>
0

> <r_i_glide_emodel>
-49.3603822601536

> <r_i_glide_energy>
-34.4344544410706

> <r_i_glide_einternal>
2.00077629089355

> <i_i_glide_confnum>
3

> <i_i_glide_posenum>
331

> <r_i_glide_eff_state_penalty>
0

> <s_user_duplicate_titles>
CHEMBL258_lig1057

> <s_m_subgroup_title>
dock_pv

> <s_m_subgroupid>
dock_pv

> <b_m_subgroup_collapsed>
1

$$$$
CHEMBL258_lig629
                    3D
 Schrodinger Suite 2021-1.
 57 59  0  0  1  0            999 V2000
   27.1702   38.2367   84.5626 C   0  0  0  0  0  0
   27.8607   37.5430   83.5539 C   0  0  0  0  0  0
   27.1747   36.6027   82.7683 C   0  0  0  0  0  0
   25.8153   37.9791   84.7841 C   0  0  0  0  0  0
   25.1013   37.0498   83.9877 C   0  0  0  0  0  0
   25.8049   36.3365   82.9736 C   0  0  0  0  0  0
   25.1860   35.4225   82.1727 N   0  0  0  0  0  0
   23.8561   35.2671   82.3659 C   0  0  0  0  0  0
   23.0850   35.8847   83.2861 N   0  0  0  0  0  0
   23.6995   36.7847   84.0873 C   0  0  0  0  0  0
   22.9107   37.5375   84.9792 N   0  0  0  0  0  0
   21.5279   37.7643   85.1480 C   0  0  0  0  0  0
   20.5223   37.0760   84.4490 C   0  0  0  0  0  0
   19.1786   37.4121   84.6243 C   0  0  0  0  0  0
   18.8186   38.4286   85.5041 C   0  0  0  0  0  0
   19.8016   39.1146   86.2094 C   0  0  0  0  0  0
   21.1483   38.7820   86.0376 C   0  0  0  0  0  0
   29.2061   37.8156   83.3807 O   0  0  0  0  0  0
   27.8935   39.2408   85.4837 C   0  0  0  0  0  0
   30.0091   36.9438   82.5857 C   0  0  0  0  0  0
   19.3439   40.3825   87.2875 Cl  0  0  0  0  0  0
   22.0969   39.4642   86.7294 F   0  0  0  0  0  0
   27.6880   40.6750   85.1809 N   0  0  2  0  0  0
   26.2903   41.1745   85.4568 C   0  0  1  0  0  0
   25.8153   40.9625   86.9193 C   0  0  0  0  0  0
   26.1363   42.6911   85.1279 C   0  0  0  0  0  0
   25.3490   43.0151   84.0962 N   0  0  0  0  0  0
   26.7299   43.5422   85.7876 O   0  0  0  0  0  0
   28.2777   41.0428   83.8753 C   0  0  0  0  0  0
   29.8129   40.9223   83.7717 C   0  0  0  0  0  0
   30.1494   41.0214   82.3953 O   0  0  0  0  0  0
   31.5466   41.0054   82.1416 C   0  0  0  0  0  0
   27.6759   36.0577   81.9827 H   0  0  0  0  0  0
   25.2881   38.4988   85.5688 H   0  0  0  0  0  0
   23.3486   34.6134   81.6783 H   0  0  0  0  0  0
   23.4602   38.1439   85.5682 H   0  0  0  0  0  0
   20.7474   36.2792   83.7623 H   0  0  0  0  0  0
   18.4168   36.8734   84.0787 H   0  0  0  0  0  0
   17.7765   38.6852   85.6420 H   0  0  0  0  0  0
   28.9590   39.0189   85.5146 H   0  0  0  0  0  0
   27.5841   39.0394   86.5089 H   0  0  0  0  0  0
   31.0567   37.2233   82.6907 H   0  0  0  0  0  0
   29.9104   35.8985   82.8868 H   0  0  0  0  0  0
   29.7606   37.0201   81.5289 H   0  0  0  0  0  0
   25.5775   40.6589   84.8109 H   0  0  0  0  0  0
   24.8388   41.4176   87.0986 H   0  0  0  0  0  0
   25.7100   39.9139   87.1847 H   0  0  0  0  0  0
   26.5148   41.4068   87.6289 H   0  0  0  0  0  0
   25.1998   43.9902   83.8593 H   0  0  0  0  0  0
   24.8580   42.3052   83.5799 H   0  0  0  0  0  0
   28.0921   42.0968   83.6870 H   0  0  0  0  0  0
   27.7950   40.4879   83.0676 H   0  0  0  0  0  0
   30.2028   39.9869   84.1677 H   0  0  0  0  0  0
   30.2789   41.7310   84.3377 H   0  0  0  0  0  0
   31.7244   41.1186   81.0739 H   0  0  0  0  0  0
   31.9937   40.0620   82.4622 H   0  0  0  0  0  0
   32.0590   41.8258   82.6494 H   0  0  0  0  0  0
  1  2  2  0  0  0
  1 19  1  0  0  0
  1  4  1  0  0  0
  2 18  1  0  0  0
  2  3  1  0  0  0
  3  6  2  0  0  0
  3 33  1  0  0  0
  4  5  2  0  0  0
  4 34  1  0  0  0
  5 10  1  0  0  0
  5  6  1  0  0  0
  6  7  1  0  0  0
  7  8  2  0  0  0
  8  9  1  0  0  0
  8 35  1  0  0  0
  9 10  2  0  0  0
 10 11  1  0  0  0
 11 12  1  0  0  0
 11 36  1  0  0  0
 12 17  2  0  0  0
 12 13  1  0  0  0
 13 14  2  0  0  0
 13 37  1  0  0  0
 14 15  1  0  0  0
 14 38  1  0  0  0
 15 16  2  0  0  0
 15 39  1  0  0  0
 16 17  1  0  0  0
 16 21  1  0  0  0
 17 22  1  0  0  0
 18 20  1  0  0  0
 19 23  1  0  0  0
 19 40  1  0  0  0
 19 41  1  0  0  0
 20 42  1  0  0  0
 20 43  1  0  0  0
 20 44  1  0  0  0
 23 24  1  0  0  0
 23 29  1  0  0  0
 24 25  1  0  0  0
 24 26  1  0  0  0
 24 45  1  0  0  0
 25 46  1  0  0  0
 25 47  1  0  0  0
 25 48  1  0  0  0
 26 27  1  0  0  0
 26 28  2  0  0  0
 27 49  1  0  0  0
 27 50  1  0  0  0
 29 30  1  0  0  0
 29 51  1  0  0  0
 29 52  1  0  0  0
 30 31  1  0  0  0
 30 53  1  0  0  0
 30 54  1  0  0  0
 31 32  1  0  0  0
 32 55  1  0  0  0
 32 56  1  0  0  0
 32 57  1  0  0  0
M  END
> <s_m_entry_id>
4651

> <s_m_entry_name>
dock_pv.139

> <s_m_Source_Path>
/home/csk/Desktop/cluster/DUD-E-result/lck

> <s_m_Source_File>
dock_pv.maegz

> <i_m_Source_File_Index>
139

> <chembl_id>
CHEMBL382823

> <chembl_pref_name>
None

> <i_lp_mmshare_version>
53161

> <i_f3d_flags>
0

> <r_lp_tautomer_probability>
0.999978000241998

> <s_lp_Force_Field>
OPLS_2005

> <r_lp_Energy>
33.401286

> <b_lp_Chiralities_Consistent>
1

> <s_lp_Variant>
CHEMBL258_lig629-1

> <s_i_glide_gridfile>
glide-grid_2of2

> <i_i_glide_lignum>
708

> <i_i_glide_rotatable_bonds>
10

> <r_i_docking_score>
-7.3939498349752

> <r_i_glide_ligand_efficiency>
-0.231060932342975

> <r_i_glide_ligand_efficiency_sa>
-0.733572733292527

> <r_i_glide_ligand_efficiency_ln>
-1.65570691951122

> <r_i_glide_gscore>
-7.3939498349752

> <r_i_glide_lipo>
-2.75775101390425

> <r_i_glide_hbond>
-0.706080522390322

> <r_i_glide_metal>
0

> <r_i_glide_rewards>
-1.39905306081443

> <r_i_glide_evdw>
-43.3651161193848

> <r_i_glide_ecoul>
-6.67337417602539

> <r_i_glide_erotb>
0.660736830848578

> <r_i_glide_esite>
-0.022540136341725

> <r_i_glide_emodel>
-69.9763027182826

> <r_i_glide_energy>
-50.0384902954102

> <r_i_glide_einternal>
5.26155853271484

> <i_i_glide_confnum>
111

> <i_i_glide_posenum>
286

> <r_i_glide_eff_state_penalty>
0

> <s_user_duplicate_titles>
CHEMBL258_lig629

> <s_m_subgroup_title>
dock_pv

> <s_m_subgroupid>
dock_pv

> <b_m_subgroup_collapsed>
1

$$$$
CHEMBL258_lig1066
                    3D
 Schrodinger Suite 2021-1.
 33 35  0  0  1  0            999 V2000
   27.4583   38.2457   83.9520 C   0  0  0  0  0  0
   27.4942   37.1294   83.1069 C   0  0  0  0  0  0
   26.3552   36.3549   82.8940 C   0  0  0  0  0  0
   26.2578   38.5797   84.5640 C   0  0  0  0  0  0
   25.1185   37.8168   84.3472 C   0  0  0  0  0  0
   25.1397   36.6894   83.5158 C   0  0  0  0  0  0
   23.8606   35.9439   83.2870 C   0  0  0  0  0  0
   22.7300   36.4580   84.0469 C   0  0  0  0  0  0
   22.8212   37.5532   84.8301 C   0  0  0  0  0  0
   23.9747   38.2569   84.9785 O   0  0  0  0  0  0
   21.6802   38.2381   85.4963 C   0  0  0  0  0  0
   21.9123   39.1017   86.5759 C   0  0  0  0  0  0
   20.8624   39.7948   87.1707 C   0  0  0  0  0  0
   19.5654   39.6251   86.6982 C   0  0  0  0  0  0
   19.3066   38.7525   85.6458 C   0  0  0  0  0  0
   20.3603   38.0603   85.0500 C   0  0  0  0  0  0
   23.7501   35.0210   82.4870 O   0  0  0  0  0  0
   26.4856   35.2588   82.0870 O   0  0  0  0  0  0
   28.5375   39.0561   84.2341 O   0  0  0  0  0  0
   29.8197   38.7114   83.7230 C   0  0  0  0  0  0
   18.5500   40.3273   87.2870 O   0  0  0  0  0  0
   28.4145   36.8407   82.6233 H   0  0  0  0  0  0
   26.2081   39.4424   85.2098 H   0  0  0  0  0  0
   21.7830   35.9543   83.9337 H   0  0  0  0  0  0
   22.9149   39.2584   86.9469 H   0  0  0  0  0  0
   21.0572   40.4752   87.9863 H   0  0  0  0  0  0
   18.2967   38.6155   85.2871 H   0  0  0  0  0  0
   20.1392   37.4038   84.2215 H   0  0  0  0  0  0
   27.3051   35.2529   81.5802 H   0  0  0  0  0  0
   30.5499   39.4480   84.0584 H   0  0  0  0  0  0
   30.1450   37.7366   84.0871 H   0  0  0  0  0  0
   29.8329   38.7079   82.6332 H   0  0  0  0  0  0
   17.6618   40.2210   86.8900 H   0  0  0  0  0  0
  1  2  2  0  0  0
  1  4  1  0  0  0
  1 19  1  0  0  0
  2  3  1  0  0  0
  2 22  1  0  0  0
  3  6  2  0  0  0
  3 18  1  0  0  0
  4  5  2  0  0  0
  4 23  1  0  0  0
  5  6  1  0  0  0
  5 10  1  0  0  0
  6  7  1  0  0  0
  7 17  2  0  0  0
  7  8  1  0  0  0
  8  9  2  0  0  0
  8 24  1  0  0  0
  9 10  1  0  0  0
  9 11  1  0  0  0
 11 12  2  0  0  0
 11 16  1  0  0  0
 12 13  1  0  0  0
 12 25  1  0  0  0
 13 14  2  0  0  0
 13 26  1  0  0  0
 14 15  1  0  0  0
 14 21  1  0  0  0
 15 16  2  0  0  0
 15 27  1  0  0  0
 16 28  1  0  0  0
 18 29  1  0  0  0
 19 20  1  0  0  0
 20 30  1  0  0  0
 20 31  1  0  0  0
 20 32  1  0  0  0
 21 33  1  0  0  0
M  END
> <s_m_entry_id>
4652

> <s_m_entry_name>
dock_pv.140

> <s_m_Source_Path>
/home/csk/Desktop/cluster/DUD-E-result/lck

> <s_m_Source_File>
dock_pv.maegz

> <i_m_Source_File_Index>
140

> <chembl_id>
CHEMBL210635

> <chembl_pref_name>
GENKWANIN

> <i_lp_mmshare_version>
53161

> <i_f3d_flags>
0

> <r_lp_tautomer_probability>
0.999999999997365

> <s_lp_Force_Field>
OPLS_2005

> <r_lp_Energy>
20.06087

> <b_lp_Chiralities_Consistent>
1

> <s_lp_Variant>
CHEMBL258_lig1066-1

> <s_i_glide_gridfile>
glide-grid_2of2

> <i_i_glide_lignum>
1154

> <i_i_glide_rotatable_bonds>
4

> <r_i_docking_score>
-7.38416676242158

> <r_i_glide_ligand_efficiency>
-0.351626988686742

> <r_i_glide_ligand_efficiency_sa>
-0.970112199171433

> <r_i_glide_ligand_efficiency_ln>
-1.82572031089484

> <r_i_glide_gscore>
-7.38416676242158

> <r_i_glide_lipo>
-2.96354446710372

> <r_i_glide_hbond>
-0.305115555532795

> <r_i_glide_metal>
0

> <r_i_glide_rewards>
-1.55416422071427

> <r_i_glide_evdw>
-27.4706249237061

> <r_i_glide_ecoul>
-9.41402912139893

> <r_i_glide_erotb>
0.224293095324353

> <r_i_glide_esite>
0

> <r_i_glide_emodel>
-51.0175153104208

> <r_i_glide_energy>
-36.884654045105

> <r_i_glide_einternal>
6.49990177154541

> <i_i_glide_confnum>
2

> <i_i_glide_posenum>
356

> <r_i_glide_eff_state_penalty>
0

> <s_user_duplicate_titles>
CHEMBL258_lig1066

> <s_m_subgroup_title>
dock_pv

> <s_m_subgroupid>
dock_pv

> <b_m_subgroup_collapsed>
1

$$$$
CHEMBL258_lig1212
                    3D
 Schrodinger Suite 2021-1.
 59 63  0  0  1  0            999 V2000
   28.8270   37.4667   83.4894 C   0  0  0  0  0  0
   29.7727   38.4465   83.7931 C   0  0  0  0  0  0
   29.4276   39.7308   84.0577 N   0  0  0  0  0  0
   28.1065   40.0382   84.0164 C   0  0  0  0  0  0
   27.1135   39.1560   83.7112 N   0  0  0  0  0  0
   27.4870   37.8685   83.4630 C   0  0  0  0  0  0
   26.4679   36.9410   83.1583 N   0  0  0  0  0  0
   27.8157   41.3778   84.3174 N   0  0  0  0  0  0
   25.4545   35.2189   82.0867 N   0  0  0  0  0  0
   26.5500   35.9139   82.2411 C   0  0  0  0  0  0
   24.5634   35.8209   82.9209 C   0  0  0  0  0  0
   25.1870   36.8462   83.6819 C   0  0  0  0  0  0
   24.5002   37.5257   84.6906 C   0  0  0  0  0  0
   23.1642   37.1771   84.8857 C   0  0  0  0  0  0
   22.5108   36.2419   84.0863 C   0  0  0  0  0  0
   23.1969   35.5539   83.0854 C   0  0  0  0  0  0
   26.4933   42.0102   84.2819 C   0  0  1  0  0  0
   25.4482   41.4021   85.2571 C   0  0  1  0  0  0
   25.9087   41.3662   86.7334 C   0  0  0  0  0  0
   24.8621   40.6483   87.5952 C   0  0  0  0  0  0
   23.4712   41.3106   87.4717 C   0  0  0  0  0  0
   23.1240   41.3279   86.0335 N   0  0  0  0  0  0
   24.0367   42.0458   85.1193 C   0  0  0  0  0  0
   22.0953   40.5339   85.4861 C   0  0  0  0  0  0
   21.8262   40.4695   84.2831 O   0  0  0  0  0  0
   26.6511   43.5382   84.4340 C   0  0  0  0  0  0
   21.4286   39.8193   86.4605 O   0  0  0  0  0  0
   20.3226   39.0281   86.2035 C   0  0  0  0  0  0
   19.2800   39.4220   85.3540 C   0  0  0  0  0  0
   18.1534   38.6208   85.1920 C   0  0  0  0  0  0
   18.0652   37.4214   85.8889 C   0  0  0  0  0  0
   19.1024   37.0023   86.7190 C   0  0  0  0  0  0
   20.2256   37.8109   86.8800 C   0  0  0  0  0  0
   29.1269   36.4488   83.2873 H   0  0  0  0  0  0
   30.8274   38.2115   83.8325 H   0  0  0  0  0  0
   28.6064   41.9811   84.5023 H   0  0  0  0  0  0
   27.4666   35.7616   81.6871 H   0  0  0  0  0  0
   24.9788   38.2689   85.3054 H   0  0  0  0  0  0
   22.6154   37.6619   85.6737 H   0  0  0  0  0  0
   21.4656   36.0310   84.2675 H   0  0  0  0  0  0
   22.6990   34.8050   82.4868 H   0  0  0  0  0  0
   26.0973   41.8217   83.2882 H   0  0  0  0  0  0
   25.3009   40.3703   84.9552 H   0  0  0  0  0  0
   26.8672   40.8548   86.8191 H   0  0  0  0  0  0
   26.0917   42.3779   87.0977 H   0  0  0  0  0  0
   24.7992   39.6030   87.2870 H   0  0  0  0  0  0
   25.1842   40.6470   88.6358 H   0  0  0  0  0  0
   22.7255   40.8371   88.1108 H   0  0  0  0  0  0
   23.5372   42.3498   87.7955 H   0  0  0  0  0  0
   24.0410   43.0986   85.3989 H   0  0  0  0  0  0
   23.6984   42.0140   84.0812 H   0  0  0  0  0  0
   25.7093   44.0657   84.2915 H   0  0  0  0  0  0
   27.0359   43.8073   85.4169 H   0  0  0  0  0  0
   27.3410   43.9466   83.6936 H   0  0  0  0  0  0
   19.3390   40.3734   84.8492 H   0  0  0  0  0  0
   17.3348   38.9444   84.5644 H   0  0  0  0  0  0
   17.1755   36.8178   85.7918 H   0  0  0  0  0  0
   19.0278   36.0628   87.2484 H   0  0  0  0  0  0
   21.0180   37.4986   87.5413 H   0  0  0  0  0  0
  1  6  1  0  0  0
  1  2  2  0  0  0
  1 34  1  0  0  0
  2  3  1  0  0  0
  2 35  1  0  0  0
  3  4  2  0  0  0
  4  8  1  0  0  0
  4  5  1  0  0  0
  5  6  2  0  0  0
  6  7  1  0  0  0
  7 12  1  0  0  0
  7 10  1  0  0  0
  8 17  1  0  0  0
  8 36  1  0  0  0
  9 11  1  0  0  0
  9 10  2  0  0  0
 10 37  1  0  0  0
 11 16  1  0  0  0
 11 12  2  0  0  0
 12 13  1  0  0  0
 13 14  2  0  0  0
 13 38  1  0  0  0
 14 15  1  0  0  0
 14 39  1  0  0  0
 15 16  2  0  0  0
 15 40  1  0  0  0
 16 41  1  0  0  0
 17 18  1  0  0  0
 17 26  1  0  0  0
 17 42  1  0  0  0
 18 19  1  0  0  0
 18 23  1  0  0  0
 18 43  1  0  0  0
 19 20  1  0  0  0
 19 44  1  0  0  0
 19 45  1  0  0  0
 20 21  1  0  0  0
 20 46  1  0  0  0
 20 47  1  0  0  0
 21 22  1  0  0  0
 21 48  1  0  0  0
 21 49  1  0  0  0
 22 23  1  0  0  0
 22 24  1  0  0  0
 23 50  1  0  0  0
 23 51  1  0  0  0
 24 25  2  0  0  0
 24 27  1  0  0  0
 26 52  1  0  0  0
 26 53  1  0  0  0
 26 54  1  0  0  0
 27 28  1  0  0  0
 28 29  2  0  0  0
 28 33  1  0  0  0
 29 30  1  0  0  0
 29 55  1  0  0  0
 30 31  2  0  0  0
 30 56  1  0  0  0
 31 32  1  0  0  0
 31 57  1  0  0  0
 32 33  2  0  0  0
 32 58  1  0  0  0
 33 59  1  0  0  0
M  END
> <s_m_entry_id>
4653

> <s_m_entry_name>
dock_pv.141

> <s_m_Source_Path>
/home/csk/Desktop/cluster/DUD-E-result/lck

> <s_m_Source_File>
dock_pv.maegz

> <i_m_Source_File_Index>
141

> <chembl_id>
CHEMBL567880

> <chembl_pref_name>
None

> <i_lp_mmshare_version>
53161

> <i_f3d_flags>
0

> <r_lp_tautomer_probability>
1

> <s_lp_Force_Field>
OPLS_2005

> <r_lp_Energy>
33.828008

> <b_lp_Chiralities_Consistent>
1

> <s_lp_Variant>
CHEMBL258_lig1212-4

> <s_i_glide_gridfile>
glide-grid_2of2

> <i_i_glide_lignum>
1320

> <i_i_glide_rotatable_bonds>
7

> <r_i_docking_score>
-7.37958142230243

> <r_i_glide_ligand_efficiency>
-0.22362367946371

> <r_i_glide_ligand_efficiency_sa>
-0.717280628043841

> <r_i_glide_ligand_efficiency_ln>
-1.64118069889238

> <r_i_glide_gscore>
-7.37958142230243

> <r_i_glide_lipo>
-2.77850825263464

> <r_i_glide_hbond>
-0.32

> <r_i_glide_metal>
0

> <r_i_glide_rewards>
-2.15459703340963

> <r_i_glide_evdw>
-41.752082824707

> <r_i_glide_ecoul>
-4.97603321075439

> <r_i_glide_erotb>
0.714377961374986

> <r_i_glide_esite>
-0.00684497478463175

> <r_i_glide_emodel>
-64.6524391512252

> <r_i_glide_energy>
-46.7281160354614

> <r_i_glide_einternal>
6.04270696640015

> <i_i_glide_confnum>
16

> <i_i_glide_posenum>
8

> <r_i_glide_eff_state_penalty>
0

> <s_user_duplicate_titles>
CHEMBL258_lig1212,580662

> <s_m_subgroup_title>
dock_pv

> <s_m_subgroupid>
dock_pv

> <b_m_subgroup_collapsed>
1

$$$$
CHEMBL258_lig1062
                    3D
 Schrodinger Suite 2021-1.
 31 33  0  0  1  0            999 V2000
   28.3838   38.8958   84.1724 C   0  0  0  0  0  0
   28.8098   37.8631   83.3397 C   0  0  0  0  0  0
   27.8995   36.8920   82.8901 C   0  0  0  0  0  0
   27.0529   38.9567   84.5770 C   0  0  0  0  0  0
   26.1522   37.9906   84.1445 C   0  0  0  0  0  0
   26.5458   36.9462   83.2880 C   0  0  0  0  0  0
   25.5176   35.9373   82.8723 C   0  0  0  0  0  0
   24.2079   36.1468   83.4679 C   0  0  0  0  0  0
   23.9325   37.1983   84.2687 C   0  0  0  0  0  0
   24.8656   38.1190   84.6247 O   0  0  0  0  0  0
   25.7510   35.0189   82.0871 O   0  0  0  0  0  0
   22.6096   37.4794   84.8936 C   0  0  0  0  0  0
   21.6858   36.4517   85.1324 C   0  0  0  0  0  0
   20.0738   38.0413   85.9658 C   0  0  0  0  0  0
   20.9766   39.0764   85.7371 C   0  0  0  0  0  0
   20.4307   36.7284   85.6719 C   0  0  0  0  0  0
   22.2357   38.7955   85.2051 C   0  0  0  0  0  0
   18.8058   38.3112   86.4807 N   0  0  0  0  0  0
   28.3892   35.8872   82.0886 O   0  0  0  0  0  0
   30.1308   37.8167   82.9691 O   0  0  0  0  0  0
   29.0893   39.6403   84.5110 H   0  0  0  0  0  0
   26.7226   39.7456   85.2345 H   0  0  0  0  0  0
   23.4261   35.4479   83.2167 H   0  0  0  0  0  0
   21.9220   35.4237   84.9043 H   0  0  0  0  0  0
   20.7065   40.0971   85.9606 H   0  0  0  0  0  0
   19.7386   35.9173   85.8447 H   0  0  0  0  0  0
   22.9159   39.6137   85.0203 H   0  0  0  0  0  0
   18.4701   39.2646   86.4865 H   0  0  0  0  0  0
   18.1261   37.5656   86.4897 H   0  0  0  0  0  0
   27.7109   35.4198   81.5845 H   0  0  0  0  0  0
   30.3208   37.0348   82.4414 H   0  0  0  0  0  0
  1  2  2  0  0  0
  1  4  1  0  0  0
  1 21  1  0  0  0
  2  3  1  0  0  0
  2 20  1  0  0  0
  3  6  2  0  0  0
  3 19  1  0  0  0
  4  5  2  0  0  0
  4 22  1  0  0  0
  5 10  1  0  0  0
  5  6  1  0  0  0
  6  7  1  0  0  0
  7 11  2  0  0  0
  7  8  1  0  0  0
  8  9  2  0  0  0
  8 23  1  0  0  0
  9 10  1  0  0  0
  9 12  1  0  0  0
 12 13  2  0  0  0
 12 17  1  0  0  0
 13 16  1  0  0  0
 13 24  1  0  0  0
 14 15  1  0  0  0
 14 16  2  0  0  0
 14 18  1  0  0  0
 15 17  2  0  0  0
 15 25  1  0  0  0
 16 26  1  0  0  0
 17 27  1  0  0  0
 18 28  1  0  0  0
 18 29  1  0  0  0
 19 30  1  0  0  0
 20 31  1  0  0  0
M  END
> <s_m_entry_id>
4654

> <s_m_entry_name>
dock_pv.142

> <s_m_Source_Path>
/home/csk/Desktop/cluster/DUD-E-result/lck

> <s_m_Source_File>
dock_pv.maegz

> <i_m_Source_File_Index>
142

> <chembl_id>
CHEMBL483442

> <chembl_pref_name>
None

> <i_lp_mmshare_version>
53161

> <i_f3d_flags>
0

> <r_lp_tautomer_probability>
1

> <s_lp_Force_Field>
OPLS_2005

> <r_lp_Energy>
16.752732

> <b_lp_Chiralities_Consistent>
1

> <s_lp_Variant>
CHEMBL258_lig1062-1

> <s_i_glide_gridfile>
glide-grid_2of2

> <i_i_glide_lignum>
1150

> <i_i_glide_rotatable_bonds>
3

> <r_i_docking_score>
-7.37680599695064

> <r_i_glide_ligand_efficiency>
-0.368840299847532

> <r_i_glide_ligand_efficiency_sa>
-1.00118660661653

> <r_i_glide_ligand_efficiency_ln>
-1.8461712376914

> <r_i_glide_gscore>
-7.37680599695064

> <r_i_glide_lipo>
-2.70615257273413

> <r_i_glide_hbond>
-0.311500763097413

> <r_i_glide_metal>
0

> <r_i_glide_rewards>
-2.14828086363636

> <r_i_glide_evdw>
-29.7658271789551

> <r_i_glide_ecoul>
-6.35919284820557

> <r_i_glide_erotb>
0.246424508882524

> <r_i_glide_esite>
-0.015126020186674

> <r_i_glide_emodel>
-53.5088411646045

> <r_i_glide_energy>
-36.1250200271606

> <r_i_glide_einternal>
1.59230422973633

> <i_i_glide_confnum>
3

> <i_i_glide_posenum>
120

> <r_i_glide_eff_state_penalty>
0

> <s_user_duplicate_titles>
CHEMBL258_lig1062

> <s_m_subgroup_title>
dock_pv

> <s_m_subgroupid>
dock_pv

> <b_m_subgroup_collapsed>
1

$$$$
CHEMBL258_lig116
                    3D
 Schrodinger Suite 2021-1.
 31 33  0  0  1  0            999 V2000
   24.1030   36.7957   83.7535 C   0  0  0  0  0  0
   24.9502   35.9450   82.9131 C   0  0  0  0  0  0
   24.9650   37.8408   84.3296 C   0  0  0  0  0  0
   26.3198   36.4428   83.0509 C   0  0  0  0  0  0
   26.3319   37.5534   83.8733 C   0  0  0  0  0  0
   22.7593   36.6212   83.8834 C   0  0  0  0  0  0
   19.8604   38.8739   86.1244 C   0  0  0  0  0  0
   19.5895   38.4573   84.8147 C   0  0  0  0  0  0
   21.0794   38.5231   86.7187 C   0  0  0  0  0  0
   21.7718   37.3825   84.6861 C   0  0  0  0  0  0
   27.5307   38.2198   84.1448 C   0  0  0  0  0  0
   27.5042   35.9657   82.4870 C   0  0  0  0  0  0
   20.5428   37.7197   84.1071 C   0  0  0  0  0  0
   22.0163   37.7717   86.0076 C   0  0  0  0  0  0
   24.5455   35.0210   82.2116 O   0  0  0  0  0  0
   24.5948   38.7717   85.0411 O   0  0  0  0  0  0
   28.7075   36.6210   82.7530 C   0  0  0  0  0  0
   21.4593   39.0214   88.3302 Cl  0  0  0  0  0  0
   18.0890   38.8469   84.0449 Cl  0  0  0  0  0  0
   18.9499   39.6286   86.8276 O   0  0  0  0  0  0
   28.7209   37.7469   83.5834 C   0  0  0  0  0  0
   29.8844   36.1640   82.1630 N   0  0  0  0  0  0
   22.3134   35.7944   83.3433 H   0  0  0  0  0  0
   27.5547   39.0917   84.7836 H   0  0  0  0  0  0
   27.4994   35.0989   81.8411 H   0  0  0  0  0  0
   20.3256   37.4211   83.0923 H   0  0  0  0  0  0
   22.9469   37.5040   86.4867 H   0  0  0  0  0  0
   18.0446   39.6082   86.4871 H   0  0  0  0  0  0
   29.6486   38.2600   83.7908 H   0  0  0  0  0  0
   29.8606   35.3413   81.5748 H   0  0  0  0  0  0
   30.7637   36.6070   82.3838 H   0  0  0  0  0  0
  1  2  1  0  0  0
  1  3  1  0  0  0
  1  6  2  0  0  0
  2  4  1  0  0  0
  2 15  2  0  0  0
  3  5  1  0  0  0
  3 16  2  0  0  0
  4 12  2  0  0  0
  4  5  1  0  0  0
  5 11  2  0  0  0
  6 10  1  0  0  0
  6 23  1  0  0  0
  7  9  1  0  0  0
  7 20  1  0  0  0
  7  8  2  0  0  0
  8 13  1  0  0  0
  8 19  1  0  0  0
  9 14  2  0  0  0
  9 18  1  0  0  0
 10 13  2  0  0  0
 10 14  1  0  0  0
 11 21  1  0  0  0
 11 24  1  0  0  0
 12 17  1  0  0  0
 12 25  1  0  0  0
 13 26  1  0  0  0
 14 27  1  0  0  0
 17 22  1  0  0  0
 17 21  2  0  0  0
 20 28  1  0  0  0
 21 29  1  0  0  0
 22 30  1  0  0  0
 22 31  1  0  0  0
M  END
> <s_m_entry_id>
4655

> <s_m_entry_name>
dock_pv.143

> <s_m_Source_Path>
/home/csk/Desktop/cluster/DUD-E-result/lck

> <s_m_Source_File>
dock_pv.maegz

> <i_m_Source_File_Index>
143

> <chembl_id>
CHEMBL84808

> <chembl_pref_name>
None

> <i_lp_mmshare_version>
53161

> <i_f3d_flags>
0

> <r_lp_tautomer_probability>
1

> <s_lp_Force_Field>
OPLS_2005

> <r_lp_Energy>
31.453779

> <b_lp_Chiralities_Consistent>
1

> <s_lp_Variant>
CHEMBL258_lig116-1

> <s_i_glide_gridfile>
glide-grid_2of2

> <i_i_glide_lignum>
137

> <i_i_glide_rotatable_bonds>
2

> <r_i_docking_score>
-7.37008627581493

> <r_i_glide_ligand_efficiency>
-0.335003921627952

> <r_i_glide_ligand_efficiency_sa>
-0.938694163358134

> <r_i_glide_ligand_efficiency_ln>
-1.80151791623792

> <r_i_glide_gscore>
-7.37008627581493

> <r_i_glide_lipo>
-2.71787555487313

> <r_i_glide_hbond>
-0.258587167704223

> <r_i_glide_metal>
0

> <r_i_glide_rewards>
-1.89942656826634

> <r_i_glide_evdw>
-34.7600708007812

> <r_i_glide_ecoul>
-6.16715574264526

> <r_i_glide_erotb>
0.168879916464607

> <r_i_glide_esite>
0

> <r_i_glide_emodel>
-59.3380885194177

> <r_i_glide_energy>
-40.9272265434265

> <r_i_glide_einternal>
1.31705892086029

> <i_i_glide_confnum>
4

> <i_i_glide_posenum>
266

> <r_i_glide_eff_state_penalty>
0

> <s_user_duplicate_titles>
CHEMBL258_lig116,133409

> <s_m_subgroup_title>
dock_pv

> <s_m_subgroupid>
dock_pv

> <b_m_subgroup_collapsed>
1

$$$$
CHEMBL258_lig356
                    3D
 Schrodinger Suite 2021-1.
 38 41  0  0  1  0            999 V2000
   25.0738   36.9328   83.8005 C   0  0  0  0  0  0
   26.3926   36.9373   83.3365 N   0  0  0  0  0  0
   24.7340   37.9358   84.7201 C   0  0  0  0  0  0
   25.6341   38.8764   85.1186 N   0  0  0  0  0  0
   27.3261   37.8328   83.7285 C   0  0  0  0  0  0
   26.9070   38.8355   84.6429 C   0  0  0  0  0  0
   25.3492   35.2014   82.3868 N   0  0  0  0  0  0
   26.4878   35.8560   82.4869 C   0  0  0  0  0  0
   24.4811   35.8207   83.1546 C   0  0  0  0  0  0
   23.4514   37.9034   85.2868 N   0  0  0  0  0  0
   19.8100   38.8931   84.5134 C   0  0  0  0  0  0
   18.6015   38.2102   84.3824 C   0  0  0  0  0  0
   17.7503   38.2196   82.8870 Cl  0  0  0  0  0  0
   20.5117   38.8693   85.7192 C   0  0  0  0  0  0
   22.9999   38.8317   86.3215 C   0  0  0  0  0  0
   28.6763   37.7915   83.2874 C   0  0  0  0  0  0
   27.8440   39.7976   85.0842 C   0  0  0  0  0  0
   18.7931   37.4357   86.6566 C   0  0  0  0  0  0
   21.7951   39.6760   85.8804 C   0  0  0  0  0  0
   18.0788   37.5075   85.4650 C   0  0  0  0  0  0
   20.0064   38.1146   86.7800 C   0  0  0  0  0  0
   29.5735   38.7527   83.7480 C   0  0  0  0  0  0
   29.1622   39.7459   84.6337 C   0  0  0  0  0  0
   27.4035   35.5945   81.9798 H   0  0  0  0  0  0
   23.4648   35.4624   83.2425 H   0  0  0  0  0  0
   22.8020   37.2015   84.9624 H   0  0  0  0  0  0
   20.2104   39.4496   83.6875 H   0  0  0  0  0  0
   23.8046   39.5159   86.5952 H   0  0  0  0  0  0
   22.7726   38.2840   87.2366 H   0  0  0  0  0  0
   29.0148   37.0246   82.6063 H   0  0  0  0  0  0
   27.5302   40.5628   85.7778 H   0  0  0  0  0  0
   18.3972   36.8703   87.4870 H   0  0  0  0  0  0
   22.0376   40.2041   84.9556 H   0  0  0  0  0  0
   21.6063   40.4537   86.6216 H   0  0  0  0  0  0
   17.1204   37.0210   85.3751 H   0  0  0  0  0  0
   20.5511   38.0672   87.7075 H   0  0  0  0  0  0
   30.6044   38.7240   83.4249 H   0  0  0  0  0  0
   29.8746   40.4795   84.9845 H   0  0  0  0  0  0
  1  2  1  0  0  0
  1  3  1  0  0  0
  1  9  2  0  0  0
  2  5  1  0  0  0
  2  8  1  0  0  0
  3  4  2  0  0  0
  3 10  1  0  0  0
  4  6  1  0  0  0
  5 16  2  0  0  0
  5  6  1  0  0  0
  6 17  2  0  0  0
  7  9  1  0  0  0
  7  8  2  0  0  0
  8 24  1  0  0  0
  9 25  1  0  0  0
 10 15  1  0  0  0
 10 26  1  0  0  0
 11 14  2  0  0  0
 11 12  1  0  0  0
 11 27  1  0  0  0
 12 13  1  0  0  0
 12 20  2  0  0  0
 14 19  1  0  0  0
 14 21  1  0  0  0
 15 19  1  0  0  0
 15 28  1  0  0  0
 15 29  1  0  0  0
 16 22  1  0  0  0
 16 30  1  0  0  0
 17 23  1  0  0  0
 17 31  1  0  0  0
 18 21  2  0  0  0
 18 20  1  0  0  0
 18 32  1  0  0  0
 19 33  1  0  0  0
 19 34  1  0  0  0
 20 35  1  0  0  0
 21 36  1  0  0  0
 22 23  2  0  0  0
 22 37  1  0  0  0
 23 38  1  0  0  0
M  END
> <s_m_entry_id>
4656

> <s_m_entry_name>
dock_pv.144

> <s_m_Source_Path>
/home/csk/Desktop/cluster/DUD-E-result/lck

> <s_m_Source_File>
dock_pv.maegz

> <i_m_Source_File_Index>
144

> <chembl_id>
CHEMBL30023

> <chembl_pref_name>
None

> <i_lp_mmshare_version>
53161

> <i_f3d_flags>
0

> <r_lp_tautomer_probability>
1

> <s_lp_Force_Field>
OPLS_2005

> <r_lp_Energy>
53.226715

> <b_lp_Chiralities_Consistent>
1

> <s_lp_Variant>
CHEMBL258_lig356-1

> <s_i_glide_gridfile>
glide-grid_2of2

> <i_i_glide_lignum>
396

> <i_i_glide_rotatable_bonds>
4

> <r_i_docking_score>
-7.3668425655419

> <r_i_glide_ligand_efficiency>
-0.320297502849648

> <r_i_glide_ligand_efficiency_sa>
-0.910883491131003

> <r_i_glide_ligand_efficiency_ln>
-1.78136933118325

> <r_i_glide_gscore>
-7.3668425655419

> <r_i_glide_lipo>
-3.11698337808185

> <r_i_glide_hbond>
-0.140121002521056

> <r_i_glide_metal>
0

> <r_i_glide_rewards>
-2.27821489588157

> <r_i_glide_evdw>
-37.0535316467285

> <r_i_glide_ecoul>
-2.25260901451111

> <r_i_glide_erotb>
0.359044645455672

> <r_i_glide_esite>
0

> <r_i_glide_emodel>
-55.6301612995195

> <r_i_glide_energy>
-39.3061406612396

> <r_i_glide_einternal>
3.03934359550476

> <i_i_glide_confnum>
4

> <i_i_glide_posenum>
62

> <r_i_glide_eff_state_penalty>
0

> <s_user_duplicate_titles>
CHEMBL258_lig356

> <s_m_subgroup_title>
dock_pv

> <s_m_subgroupid>
dock_pv

> <b_m_subgroup_collapsed>
1

$$$$
CHEMBL258_lig113
                    3D
 Schrodinger Suite 2021-1.
 32 34  0  0  1  0            999 V2000
   23.5510   36.8250   83.9883 C   0  0  0  0  0  0
   25.7931   37.5900   84.1259 C   0  0  0  0  0  0
   24.4078   37.8770   84.5548 C   0  0  0  0  0  0
   24.4067   35.9637   83.1729 C   0  0  0  0  0  0
   25.7690   36.4974   83.2734 C   0  0  0  0  0  0
   27.1144   39.3756   85.3560 N   0  3  0  0  0  0
   27.0083   38.2539   84.3996 C   0  0  0  0  0  0
   22.2023   36.6688   84.1046 C   0  0  0  0  0  0
   27.8082   40.3354   85.0355 O   0  5  0  0  0  0
   19.0844   38.6088   85.0813 C   0  0  0  0  0  0
   24.0114   38.8257   85.2272 O   0  0  0  0  0  0
   26.5493   39.2727   86.4399 O   0  0  0  0  0  0
   21.2295   37.4506   84.9082 C   0  0  0  0  0  0
   24.0141   35.0211   82.4868 O   0  0  0  0  0  0
   19.3910   38.9789   86.4008 C   0  0  0  0  0  0
   20.0066   37.8501   84.3463 C   0  0  0  0  0  0
   20.5988   38.5703   86.9638 C   0  0  0  0  0  0
   26.9319   36.0602   82.6367 C   0  0  0  0  0  0
   21.4963   37.7949   86.2368 C   0  0  0  0  0  0
   17.9000   38.9821   84.4874 O   0  0  0  0  0  0
   18.5500   39.7406   87.1779 O   0  0  0  0  0  0
   28.1706   37.8147   83.7488 C   0  0  0  0  0  0
   28.1348   36.7189   82.8867 C   0  0  0  0  0  0
   21.7449   35.8470   83.5666 H   0  0  0  0  0  0
   19.7686   37.5808   83.3272 H   0  0  0  0  0  0
   20.8442   38.8513   87.9767 H   0  0  0  0  0  0
   26.9250   35.2163   81.9608 H   0  0  0  0  0  0
   22.4136   37.4786   86.7112 H   0  0  0  0  0  0
   17.2190   39.2542   85.1153 H   0  0  0  0  0  0
   17.6241   39.8211   86.8870 H   0  0  0  0  0  0
   29.1161   38.3056   83.9348 H   0  0  0  0  0  0
   29.0406   36.3811   82.4037 H   0  0  0  0  0  0
  1  3  1  0  0  0
  1  4  1  0  0  0
  1  8  2  0  0  0
  2  3  1  0  0  0
  2  7  2  0  0  0
  2  5  1  0  0  0
  3 11  2  0  0  0
  4  5  1  0  0  0
  4 14  2  0  0  0
  5 18  2  0  0  0
  6  7  1  0  0  0
  6  9  1  0  0  0
  6 12  2  0  0  0
  7 22  1  0  0  0
  8 13  1  0  0  0
  8 24  1  0  0  0
 10 16  2  0  0  0
 10 20  1  0  0  0
 10 15  1  0  0  0
 13 16  1  0  0  0
 13 19  2  0  0  0
 15 17  2  0  0  0
 15 21  1  0  0  0
 16 25  1  0  0  0
 17 19  1  0  0  0
 17 26  1  0  0  0
 18 23  1  0  0  0
 18 27  1  0  0  0
 19 28  1  0  0  0
 20 29  1  0  0  0
 21 30  1  0  0  0
 22 23  2  0  0  0
 22 31  1  0  0  0
 23 32  1  0  0  0
M  CHG  2   6   1   9  -1
M  END
> <s_m_entry_id>
4657

> <s_m_entry_name>
dock_pv.145

> <s_m_Source_Path>
/home/csk/Desktop/cluster/DUD-E-result/lck

> <s_m_Source_File>
dock_pv.maegz

> <i_m_Source_File_Index>
145

> <chembl_id>
CHEMBL84338

> <chembl_pref_name>
None

> <i_lp_mmshare_version>
53161

> <i_f3d_flags>
0

> <r_lp_tautomer_probability>
1

> <s_lp_Force_Field>
OPLS_2005

> <r_lp_Energy>
31.773554

> <b_lp_Chiralities_Consistent>
1

> <s_lp_Variant>
CHEMBL258_lig113-1

> <s_i_glide_gridfile>
glide-grid_2of2

> <i_i_glide_lignum>
134

> <i_i_glide_rotatable_bonds>
4

> <r_i_docking_score>
-7.35977520348164

> <r_i_glide_ligand_efficiency>
-0.319990226238332

> <r_i_glide_ligand_efficiency_sa>
-0.910009637323314

> <r_i_glide_ligand_efficiency_ln>
-1.77966037895378

> <r_i_glide_gscore>
-7.35977520348164

> <r_i_glide_lipo>
-2.60885792850656

> <r_i_glide_hbond>
0

> <r_i_glide_metal>
0

> <r_i_glide_rewards>
-2.10190228074538

> <r_i_glide_evdw>
-31.3003673553467

> <r_i_glide_ecoul>
-8.50270080566406

> <r_i_glide_erotb>
0.191408494387251

> <r_i_glide_esite>
0

> <r_i_glide_emodel>
-57.5571575950115

> <r_i_glide_energy>
-39.8030681610107

> <r_i_glide_einternal>
3.77354431152344

> <i_i_glide_confnum>
3

> <i_i_glide_posenum>
352

> <r_i_glide_eff_state_penalty>
0

> <s_user_duplicate_titles>
CHEMBL258_lig113

> <s_m_subgroup_title>
dock_pv

> <s_m_subgroupid>
dock_pv

> <b_m_subgroup_collapsed>
1

$$$$
CHEMBL258_lig1043
                    3D
 Schrodinger Suite 2021-1.
 39 41  0  0  1  0            999 V2000
   23.7394   39.5078   85.1652 C   0  0  0  0  0  0
   24.7595   40.4026   85.1771 C   0  0  0  0  0  0
   24.6669   41.6874   85.6354 O   0  0  0  0  0  0
   26.0846   40.0657   84.6389 C   0  0  0  0  0  0
   27.0480   40.8369   84.6362 O   0  0  0  0  0  0
   26.1654   38.6995   84.0343 C   0  0  0  0  0  0
   27.3135   38.2251   83.3790 C   0  0  0  0  0  0
   28.4593   38.9699   83.2906 O   0  0  0  0  0  0
   27.3041   36.9792   82.7612 C   0  0  0  0  0  0
   26.1633   36.1916   82.7824 C   0  0  0  0  0  0
   26.1507   35.0210   82.0871 O   0  0  0  0  0  0
   25.0390   36.6117   83.4754 C   0  0  0  0  0  0
   25.0418   37.8603   84.0868 C   0  0  0  0  0  0
   23.8683   38.2332   84.7054 O   0  0  0  0  0  0
   22.3776   39.7165   85.7250 C   0  0  0  0  0  0
   22.1773   40.5105   86.8586 C   0  0  0  0  0  0
   20.8973   40.7428   87.3722 C   0  0  0  0  0  0
   20.6778   41.5310   88.4862 O   0  0  0  0  0  0
   21.5247   42.6608   88.6757 C   0  0  0  0  0  0
   19.7984   40.1357   86.7547 C   0  0  0  0  0  0
   18.5500   40.3362   87.2870 O   0  0  0  0  0  0
   19.9609   39.3341   85.6166 C   0  0  0  0  0  0
   18.8223   38.7861   85.0493 O   0  0  0  0  0  0
   18.9512   37.8074   84.0216 C   0  0  0  0  0  0
   21.2575   39.1394   85.1109 C   0  0  0  0  0  0
   25.5047   42.1449   85.4977 H   0  0  0  0  0  0
   28.3475   39.8068   83.7586 H   0  0  0  0  0  0
   28.1860   36.6380   82.2384 H   0  0  0  0  0  0
   26.9375   34.9653   81.5321 H   0  0  0  0  0  0
   24.1528   35.9970   83.4994 H   0  0  0  0  0  0
   23.0299   40.9480   87.3539 H   0  0  0  0  0  0
   21.0681   43.3328   89.4018 H   0  0  0  0  0  0
   22.4990   42.3658   89.0661 H   0  0  0  0  0  0
   21.6689   43.2259   87.7522 H   0  0  0  0  0  0
   17.8063   40.0736   86.7255 H   0  0  0  0  0  0
   17.9617   37.4353   83.7541 H   0  0  0  0  0  0
   19.5430   36.9526   84.3535 H   0  0  0  0  0  0
   19.4006   38.2224   83.1186 H   0  0  0  0  0  0
   21.4108   38.5359   84.2294 H   0  0  0  0  0  0
  1  2  2  0  0  0
  1 14  1  0  0  0
  1 15  1  0  0  0
  2  3  1  0  0  0
  2  4  1  0  0  0
  3 26  1  0  0  0
  4  5  2  0  0  0
  4  6  1  0  0  0
  6  7  1  0  0  0
  6 13  2  0  0  0
  7  8  1  0  0  0
  7  9  2  0  0  0
  8 27  1  0  0  0
  9 10  1  0  0  0
  9 28  1  0  0  0
 10 11  1  0  0  0
 10 12  2  0  0  0
 11 29  1  0  0  0
 12 13  1  0  0  0
 12 30  1  0  0  0
 13 14  1  0  0  0
 15 16  1  0  0  0
 15 25  2  0  0  0
 16 17  2  0  0  0
 16 31  1  0  0  0
 17 18  1  0  0  0
 17 20  1  0  0  0
 18 19  1  0  0  0
 19 32  1  0  0  0
 19 33  1  0  0  0
 19 34  1  0  0  0
 20 21  1  0  0  0
 20 22  2  0  0  0
 21 35  1  0  0  0
 22 23  1  0  0  0
 22 25  1  0  0  0
 23 24  1  0  0  0
 24 36  1  0  0  0
 24 37  1  0  0  0
 24 38  1  0  0  0
 25 39  1  0  0  0
M  END
> <s_m_entry_id>
4658

> <s_m_entry_name>
dock_pv.146

> <s_m_Source_Path>
/home/csk/Desktop/cluster/DUD-E-result/lck

> <s_m_Source_File>
dock_pv.maegz

> <i_m_Source_File_Index>
146

> <chembl_id>
CHEMBL489142

> <chembl_pref_name>
SYRINGETIN

> <i_lp_mmshare_version>
53161

> <i_f3d_flags>
0

> <r_lp_tautomer_probability>
0.99999999999482

> <s_lp_Force_Field>
OPLS_2005

> <r_lp_Energy>
27.186675

> <b_lp_Chiralities_Consistent>
1

> <s_lp_Variant>
CHEMBL258_lig1043-1

> <s_i_glide_gridfile>
glide-grid_2of2

> <i_i_glide_lignum>
1131

> <i_i_glide_rotatable_bonds>
7

> <r_i_docking_score>
-7.35901799920152

> <r_i_glide_ligand_efficiency>
-0.294360719968061

> <r_i_glide_ligand_efficiency_sa>
-0.860715965696208

> <r_i_glide_ligand_efficiency_ln>
-1.74430779778436

> <r_i_glide_gscore>
-7.35901799920152

> <r_i_glide_lipo>
-2.51038475781727

> <r_i_glide_hbond>
-0.530554406542442

> <r_i_glide_metal>
0

> <r_i_glide_rewards>
-1.54803459090909

> <r_i_glide_evdw>
-32.2859382629395

> <r_i_glide_ecoul>
-8.7618522644043

> <r_i_glide_erotb>
0.158530508874896

> <r_i_glide_esite>
0

> <r_i_glide_emodel>
-58.8439514700192

> <r_i_glide_energy>
-41.0477905273438

> <r_i_glide_einternal>
2.15624356269836

> <i_i_glide_confnum>
3

> <i_i_glide_posenum>
53

> <r_i_glide_eff_state_penalty>
0

> <s_user_duplicate_titles>
CHEMBL258_lig1043

> <s_m_subgroup_title>
dock_pv

> <s_m_subgroupid>
dock_pv

> <b_m_subgroup_collapsed>
1

$$$$
CHEMBL258_lig787
                    3D
 Schrodinger Suite 2021-1.
 48 51  0  0  1  0            999 V2000
   23.3849   36.5137   83.9967 C   0  0  0  0  0  0
   25.5670   36.1692   82.9213 C   0  0  0  0  0  0
   24.9904   37.1110   84.2733 S   0  0  0  0  0  0
   22.3149   36.9159   84.8814 C   0  0  0  0  0  0
   21.0704   36.6210   84.4622 N   0  0  0  0  0  0
   24.6378   35.4224   82.3691 N   0  0  0  0  0  0
   30.3570   37.3997   82.8677 C   0  0  0  0  0  0
   26.8867   36.1765   82.4904 N   0  0  0  0  0  0
   23.4443   35.6178   82.9141 C   0  0  0  0  0  0
   27.9859   36.9527   82.9243 C   0  0  0  0  0  0
   19.9188   36.7543   85.2683 C   0  0  0  0  0  0
   29.2640   36.6006   82.4847 C   0  0  0  0  0  0
   31.6109   37.2607   82.2643 N   0  0  0  0  0  0
   30.1627   38.5011   83.6483 N   0  0  0  0  0  0
   27.8085   38.0341   83.7292 N   0  0  0  0  0  0
   28.9028   38.7524   84.0659 C   0  0  0  0  0  0
   22.5500   37.4730   85.9574 O   0  0  0  0  0  0
   18.8829   37.5981   84.8313 C   0  0  0  0  0  0
   19.7736   36.0485   86.4870 C   0  0  0  0  0  0
   34.2019   36.9941   81.0001 O   0  0  0  0  0  0
   18.9504   38.4188   83.3070 Cl  0  0  0  0  0  0
   32.7366   38.1850   82.5298 C   0  0  0  0  0  0
   32.1020   35.9878   81.6993 C   0  0  0  0  0  0
   17.6233   37.1112   86.8402 C   0  0  0  0  0  0
   17.7503   37.7791   85.6239 C   0  0  0  0  0  0
   18.6216   36.2355   87.2611 C   0  0  0  0  0  0
   33.1244   36.1803   80.5595 C   0  0  0  0  0  0
   33.7518   38.2852   81.3712 C   0  0  0  0  0  0
   20.7854   34.9952   86.9380 C   0  0  0  0  0  0
   20.9380   36.2548   83.5338 H   0  0  0  0  0  0
   27.1692   35.4881   81.8059 H   0  0  0  0  0  0
   22.6071   35.0547   82.5251 H   0  0  0  0  0  0
   29.3747   35.7632   81.8144 H   0  0  0  0  0  0
   28.7560   39.6113   84.7051 H   0  0  0  0  0  0
   32.3564   39.1918   82.6956 H   0  0  0  0  0  0
   33.2336   37.8846   83.4530 H   0  0  0  0  0  0
   32.5319   35.3867   82.5022 H   0  0  0  0  0  0
   31.2931   35.3930   81.2774 H   0  0  0  0  0  0
   16.7356   37.2554   87.4389 H   0  0  0  0  0  0
   16.9579   38.4320   85.2875 H   0  0  0  0  0  0
   18.4864   35.6829   88.1787 H   0  0  0  0  0  0
   33.5161   35.2133   80.2439 H   0  0  0  0  0  0
   32.6419   36.6210   79.6826 H   0  0  0  0  0  0
   34.6138   38.8769   81.6820 H   0  0  0  0  0  0
   33.3156   38.8012   80.5115 H   0  0  0  0  0  0
   21.1611   34.4264   86.0875 H   0  0  0  0  0  0
   21.6417   35.4520   87.4349 H   0  0  0  0  0  0
   20.3313   34.2613   87.6064 H   0  0  0  0  0  0
  1  3  1  0  0  0
  1  4  1  0  0  0
  1  9  2  0  0  0
  2  3  1  0  0  0
  2  8  1  0  0  0
  2  6  2  0  0  0
  4  5  1  0  0  0
  4 17  2  0  0  0
  5 11  1  0  0  0
  5 30  1  0  0  0
  6  9  1  0  0  0
  7 12  2  0  0  0
  7 13  1  0  0  0
  7 14  1  0  0  0
  8 10  1  0  0  0
  8 31  1  0  0  0
  9 32  1  0  0  0
 10 12  1  0  0  0
 10 15  2  0  0  0
 11 18  1  0  0  0
 11 19  2  0  0  0
 12 33  1  0  0  0
 13 22  1  0  0  0
 13 23  1  0  0  0
 14 16  2  0  0  0
 15 16  1  0  0  0
 16 34  1  0  0  0
 18 21  1  0  0  0
 18 25  2  0  0  0
 19 26  1  0  0  0
 19 29  1  0  0  0
 20 27  1  0  0  0
 20 28  1  0  0  0
 22 28  1  0  0  0
 22 35  1  0  0  0
 22 36  1  0  0  0
 23 27  1  0  0  0
 23 37  1  0  0  0
 23 38  1  0  0  0
 24 26  2  0  0  0
 24 25  1  0  0  0
 24 39  1  0  0  0
 25 40  1  0  0  0
 26 41  1  0  0  0
 27 42  1  0  0  0
 27 43  1  0  0  0
 28 44  1  0  0  0
 28 45  1  0  0  0
 29 46  1  0  0  0
 29 47  1  0  0  0
 29 48  1  0  0  0
M  END
> <s_m_entry_id>
4659

> <s_m_entry_name>
dock_pv.147

> <s_m_Source_Path>
/home/csk/Desktop/cluster/DUD-E-result/lck

> <s_m_Source_File>
dock_pv.maegz

> <i_m_Source_File_Index>
147

> <chembl_id>
CHEMBL189649

> <chembl_pref_name>
None

> <i_lp_mmshare_version>
53161

> <i_f3d_flags>
0

> <r_lp_tautomer_probability>
0.999999999985434

> <s_lp_Force_Field>
OPLS_2005

> <r_lp_Energy>
26.331864

> <b_lp_Chiralities_Consistent>
1

> <s_lp_Variant>
CHEMBL258_lig787-1

> <s_i_glide_gridfile>
glide-grid_2of2

> <i_i_glide_lignum>
872

> <i_i_glide_rotatable_bonds>
6

> <r_i_docking_score>
-7.35391378911902

> <r_i_glide_ligand_efficiency>
-0.253583234107552

> <r_i_glide_ligand_efficiency_sa>
-0.779088035985993

> <r_i_glide_ligand_efficiency_ln>
-1.68385977854443

> <r_i_glide_gscore>
-7.35391378911902

> <r_i_glide_lipo>
-2.69272189734508

> <r_i_glide_hbond>
-0.123460982385649

> <r_i_glide_metal>
0

> <r_i_glide_rewards>
-2.11700642998958

> <r_i_glide_evdw>
-44.5403633117676

> <r_i_glide_ecoul>
-5.57503747940063

> <r_i_glide_erotb>
0.642549308099766

> <r_i_glide_esite>
0

> <r_i_glide_emodel>
-69.6211570712995

> <r_i_glide_energy>
-50.1154007911682

> <r_i_glide_einternal>
5.65539741516113

> <i_i_glide_confnum>
71

> <i_i_glide_posenum>
242

> <r_i_glide_eff_state_penalty>
0

> <s_user_duplicate_titles>
CHEMBL258_lig787,313142

> <s_m_subgroup_title>
dock_pv

> <s_m_subgroupid>
dock_pv

> <b_m_subgroup_collapsed>
1

$$$$
CHEMBL258_lig665
                    3D
 Schrodinger Suite 2021-1.
 48 49  0  0  1  0            999 V2000
   27.8478   37.5230   83.3066 C   0  0  0  0  0  0
   27.0704   36.4820   82.6435 N   0  0  0  0  0  0
   25.7147   36.2704   82.9284 C   0  0  0  0  0  0
   25.0379   36.9101   83.9826 C   0  0  0  0  0  0
   23.6474   36.6928   84.1178 C   0  0  0  0  0  0
   23.0131   35.8212   83.2833 N   0  0  0  0  0  0
   23.7507   35.2482   82.3046 C   0  0  0  0  0  0
   25.0749   35.4212   82.0874 N   0  0  0  0  0  0
   22.8496   37.3562   85.1125 N   0  0  0  0  0  0
   23.0545   38.6446   85.5542 C   0  0  0  0  0  0
   22.4432   39.1200   86.5153 O   0  0  0  0  0  0
   23.8982   39.4115   84.8278 N   0  0  0  0  0  0
   24.1043   40.7938   84.9880 C   0  0  0  0  0  0
   25.3797   41.2439   85.3756 C   0  0  0  0  0  0
   25.6164   42.6091   85.5326 C   0  0  0  0  0  0
   24.5990   43.5322   85.2974 C   0  0  0  0  0  0
   23.3420   43.0934   84.8890 C   0  0  0  0  0  0
   23.0911   41.7331   84.7121 C   0  0  0  0  0  0
   21.5446   41.2724   84.0861 Cl  0  0  0  0  0  0
   26.6805   40.1389   85.6848 Cl  0  0  0  0  0  0
   21.6394   36.6460   85.6170 C   0  0  0  0  0  0
   20.3363   36.8225   84.7921 C   0  0  0  0  0  0
   19.8895   38.2882   84.5790 C   0  0  0  0  0  0
   18.5032   38.4978   84.1483 N   0  0  0  0  0  0
   18.1867   37.8672   82.8718 C   0  0  0  0  0  0
   17.5321   38.1169   85.1716 C   0  0  0  0  0  0
   28.8875   37.4673   82.9836 H   0  0  0  0  0  0
   27.8338   37.4186   84.3907 H   0  0  0  0  0  0
   27.4670   38.5111   83.0494 H   0  0  0  0  0  0
   27.4484   36.0396   81.8159 H   0  0  0  0  0  0
   25.5797   37.5476   84.6630 H   0  0  0  0  0  0
   23.2274   34.6212   81.6059 H   0  0  0  0  0  0
   24.4185   38.9665   84.0878 H   0  0  0  0  0  0
   26.5932   42.9565   85.8357 H   0  0  0  0  0  0
   24.7846   44.5897   85.4104 H   0  0  0  0  0  0
   22.5672   43.8189   84.6780 H   0  0  0  0  0  0
   21.8680   35.5815   85.6996 H   0  0  0  0  0  0
   21.4409   36.9553   86.6458 H   0  0  0  0  0  0
   20.5090   36.3738   83.8157 H   0  0  0  0  0  0
   19.5404   36.2212   85.2297 H   0  0  0  0  0  0
   20.0745   38.8772   85.4785 H   0  0  0  0  0  0
   20.5359   38.7322   83.8227 H   0  0  0  0  0  0
   17.1745   38.1249   82.5582 H   0  0  0  0  0  0
   18.8676   38.2146   82.0928 H   0  0  0  0  0  0
   18.2493   36.7805   82.9362 H   0  0  0  0  0  0
   16.5279   38.4299   84.8836 H   0  0  0  0  0  0
   17.5050   37.0359   85.3389 H   0  0  0  0  0  0
   17.7558   38.6104   86.1202 H   0  0  0  0  0  0
  1  2  1  0  0  0
  1 27  1  0  0  0
  1 28  1  0  0  0
  1 29  1  0  0  0
  2  3  1  0  0  0
  2 30  1  0  0  0
  3  4  1  0  0  0
  3  8  2  0  0  0
  4  5  2  0  0  0
  4 31  1  0  0  0
  5  9  1  0  0  0
  5  6  1  0  0  0
  6  7  2  0  0  0
  7  8  1  0  0  0
  7 32  1  0  0  0
  9 10  1  0  0  0
  9 21  1  0  0  0
 10 11  2  0  0  0
 10 12  1  0  0  0
 12 13  1  0  0  0
 12 33  1  0  0  0
 13 14  2  0  0  0
 13 18  1  0  0  0
 14 15  1  0  0  0
 14 20  1  0  0  0
 15 16  2  0  0  0
 15 34  1  0  0  0
 16 17  1  0  0  0
 16 35  1  0  0  0
 17 18  2  0  0  0
 17 36  1  0  0  0
 18 19  1  0  0  0
 21 22  1  0  0  0
 21 37  1  0  0  0
 21 38  1  0  0  0
 22 23  1  0  0  0
 22 39  1  0  0  0
 22 40  1  0  0  0
 23 24  1  0  0  0
 23 41  1  0  0  0
 23 42  1  0  0  0
 24 25  1  0  0  0
 24 26  1  0  0  0
 25 43  1  0  0  0
 25 44  1  0  0  0
 25 45  1  0  0  0
 26 46  1  0  0  0
 26 47  1  0  0  0
 26 48  1  0  0  0
M  END
> <s_m_entry_id>
4660

> <s_m_entry_name>
dock_pv.148

> <s_m_Source_Path>
/home/csk/Desktop/cluster/DUD-E-result/lck

> <s_m_Source_File>
dock_pv.maegz

> <i_m_Source_File_Index>
148

> <chembl_id>
CHEMBL378406

> <chembl_pref_name>
None

> <i_lp_mmshare_version>
53161

> <i_f3d_flags>
0

> <r_lp_tautomer_probability>
0.999999583200174

> <s_lp_Force_Field>
OPLS_2005

> <r_lp_Energy>
30.970144

> <b_lp_Chiralities_Consistent>
1

> <s_lp_Variant>
CHEMBL258_lig665-1

> <s_i_glide_gridfile>
glide-grid_2of2

> <i_i_glide_lignum>
749

> <i_i_glide_rotatable_bonds>
9

> <r_i_docking_score>
-7.35308938893997

> <r_i_glide_ligand_efficiency>
-0.282811130343845

> <r_i_glide_ligand_efficiency_sa>
-0.837826860835578

> <r_i_glide_ligand_efficiency_ln>
-1.72684891553834

> <r_i_glide_gscore>
-7.35308938893997

> <r_i_glide_lipo>
-2.1178214331981

> <r_i_glide_hbond>
-0.325037704219498

> <r_i_glide_metal>
0

> <r_i_glide_rewards>
-2.42389084698076

> <r_i_glide_evdw>
-39.4443206787109

> <r_i_glide_ecoul>
-6.89952325820923

> <r_i_glide_erotb>
0.520805118125322

> <r_i_glide_esite>
0

> <r_i_glide_emodel>
-62.2802474877647

> <r_i_glide_energy>
-46.3438439369202

> <r_i_glide_einternal>
7.30099391937256

> <i_i_glide_confnum>
66

> <i_i_glide_posenum>
223

> <r_i_glide_eff_state_penalty>
0

> <s_user_duplicate_titles>
CHEMBL258_lig665

> <s_m_subgroup_title>
dock_pv

> <s_m_subgroupid>
dock_pv

> <b_m_subgroup_collapsed>
1

$$$$
CHEMBL258_lig323
                    3D
 Schrodinger Suite 2021-1.
 31 33  0  0  1  0            999 V2000
   25.9437   36.0855   82.8239 C   0  0  0  0  0  0
   26.7501   37.2078   82.9529 C   0  0  0  0  0  0
   26.3132   38.3047   83.6930 C   0  0  0  0  0  0
   24.7017   36.0432   83.4334 C   0  0  0  0  0  0
   24.2662   37.1315   84.1757 C   0  0  0  0  0  0
   25.0538   38.2848   84.3177 C   0  0  0  0  0  0
   24.5157   39.4365   85.1076 C   0  0  0  0  0  0
   23.1790   39.2191   85.6312 C   0  0  0  0  0  0
   22.5141   38.0577   85.4504 C   0  0  0  0  0  0
   23.0126   37.0157   84.7366 O   0  0  0  0  0  0
   21.1272   37.7890   85.8930 C   0  0  0  0  0  0
   18.8795   38.5580   86.3778 C   0  0  0  0  0  0
   18.5217   37.2674   86.7556 C   0  0  0  0  0  0
   19.4538   36.2340   86.7116 C   0  0  0  0  0  0
   20.7510   36.4953   86.2771 C   0  0  0  0  0  0
   25.1544   40.4738   85.2806 O   0  0  0  0  0  0
   20.1794   38.8194   85.9545 C   0  0  0  0  0  0
   17.2253   37.0190   87.1957 N   0  0  0  0  0  0
   26.3609   35.0208   82.0870 O   0  0  0  0  0  0
   27.1456   39.3892   83.7730 O   0  0  0  0  0  0
   27.7235   37.2344   82.4875 H   0  0  0  0  0  0
   24.0669   35.1801   83.3171 H   0  0  0  0  0  0
   22.7128   40.0209   86.1829 H   0  0  0  0  0  0
   18.1531   39.3592   86.4135 H   0  0  0  0  0  0
   19.1878   35.2311   87.0112 H   0  0  0  0  0  0
   21.4630   35.6833   86.2431 H   0  0  0  0  0  0
   20.4406   39.8263   85.6616 H   0  0  0  0  0  0
   16.5434   37.7602   87.0926 H   0  0  0  0  0  0
   16.9286   36.0657   87.3421 H   0  0  0  0  0  0
   27.1341   35.2257   81.5478 H   0  0  0  0  0  0
   26.7417   40.0833   84.3108 H   0  0  0  0  0  0
  1  2  1  0  0  0
  1  4  2  0  0  0
  1 19  1  0  0  0
  2  3  2  0  0  0
  2 21  1  0  0  0
  3  6  1  0  0  0
  3 20  1  0  0  0
  4  5  1  0  0  0
  4 22  1  0  0  0
  5  6  2  0  0  0
  5 10  1  0  0  0
  6  7  1  0  0  0
  7 16  2  0  0  0
  7  8  1  0  0  0
  8  9  2  0  0  0
  8 23  1  0  0  0
  9 10  1  0  0  0
  9 11  1  0  0  0
 11 17  2  0  0  0
 11 15  1  0  0  0
 12 17  1  0  0  0
 12 13  2  0  0  0
 12 24  1  0  0  0
 13 14  1  0  0  0
 13 18  1  0  0  0
 14 15  2  0  0  0
 14 25  1  0  0  0
 15 26  1  0  0  0
 17 27  1  0  0  0
 18 28  1  0  0  0
 18 29  1  0  0  0
 19 30  1  0  0  0
 20 31  1  0  0  0
M  END
> <s_m_entry_id>
4661

> <s_m_entry_name>
dock_pv.149

> <s_m_Source_Path>
/home/csk/Desktop/cluster/DUD-E-result/lck

> <s_m_Source_File>
dock_pv.maegz

> <i_m_Source_File_Index>
149

> <chembl_id>
CHEMBL167154

> <chembl_pref_name>
None

> <i_lp_mmshare_version>
53161

> <i_f3d_flags>
0

> <r_lp_tautomer_probability>
1

> <s_lp_Force_Field>
OPLS_2005

> <r_lp_Energy>
19.152738

> <b_lp_Chiralities_Consistent>
1

> <s_lp_Variant>
CHEMBL258_lig323-1

> <s_i_glide_gridfile>
glide-grid_2of2

> <i_i_glide_lignum>
361

> <i_i_glide_rotatable_bonds>
3

> <r_i_docking_score>
-7.35278447766125

> <r_i_glide_ligand_efficiency>
-0.367639223883063

> <r_i_glide_ligand_efficiency_sa>
-0.997926384862957

> <r_i_glide_ligand_efficiency_ln>
-1.840159443696

> <r_i_glide_gscore>
-7.35278447766125

> <r_i_glide_lipo>
-2.8414843958229

> <r_i_glide_hbond>
-0.476218312021323

> <r_i_glide_metal>
0

> <r_i_glide_rewards>
-1.96271069306723

> <r_i_glide_evdw>
-31.41357421875

> <r_i_glide_ecoul>
-4.98744583129883

> <r_i_glide_erotb>
0.246424508882524

> <r_i_glide_esite>
0

> <r_i_glide_emodel>
-51.8118852127845

> <r_i_glide_energy>
-36.4010200500488

> <r_i_glide_einternal>
2.44973611831665

> <i_i_glide_confnum>
2

> <i_i_glide_posenum>
178

> <r_i_glide_eff_state_penalty>
0

> <s_user_duplicate_titles>
CHEMBL258_lig323

> <s_m_subgroup_title>
dock_pv

> <s_m_subgroupid>
dock_pv

> <b_m_subgroup_collapsed>
1

$$$$
CHEMBL258_lig548
                    3D
 Schrodinger Suite 2021-1.
 56 60  0  0  1  0            999 V2000
   25.9552   37.3451   83.7752 C   0  0  0  0  0  0
   22.3312   37.0749   84.3406 C   0  0  0  0  0  0
   24.5380   37.2923   84.0848 C   0  0  0  0  0  0
   26.6636   36.5434   82.8052 C   0  0  0  0  0  0
   23.4296   36.5169   83.6882 N   0  0  0  0  0  0
   22.6370   38.0499   85.1515 N   0  0  0  0  0  0
   26.7560   38.3098   84.4875 C   0  0  0  0  0  0
   28.1717   38.3828   84.2490 C   0  0  0  0  0  0
   27.9938   36.6216   82.6121 N   0  0  0  0  0  0
   21.0448   36.6209   84.1426 N   0  0  0  0  0  0
   23.9794   38.2140   85.0060 C   0  0  0  0  0  0
   28.7230   37.5239   83.2940 C   0  0  0  0  0  0
   19.9370   36.9076   84.9584 C   0  0  0  0  0  0
   28.9500   40.8303   84.5079 C   0  0  0  0  0  0
   29.0537   39.3806   85.0285 C   0  0  0  0  0  0
   28.9017   41.8479   85.4035 N   0  0  0  0  0  0
   26.1214   39.1859   85.4087 C   0  0  0  0  0  0
   25.9951   35.7007   81.9856 O   0  0  0  0  0  0
   24.7601   39.1623   85.6544 C   0  0  0  0  0  0
   19.8490   36.3632   86.2539 C   0  0  0  0  0  0
   18.8616   37.6586   84.4561 C   0  0  0  0  0  0
   28.9502   41.0201   83.2877 O   0  0  0  0  0  0
   23.3209   35.4219   82.7185 C   0  0  0  0  0  0
   18.8309   38.2211   82.8226 Cl  0  0  0  0  0  0
   21.0803   35.3171   86.8870 Cl  0  0  0  0  0  0
   30.1929   37.5740   82.8970 C   0  0  0  0  0  0
   28.7572   43.2483   84.9909 C   0  0  0  0  0  0
   28.8464   41.6912   86.8650 C   0  0  0  0  0  0
   17.6964   37.4209   86.5592 C   0  0  0  0  0  0
   17.7559   37.9231   85.2630 C   0  0  0  0  0  0
   18.7263   36.6210   87.0417 C   0  0  0  0  0  0
   28.0848   43.8754   86.2092 C   0  0  0  0  0  0
   28.7135   43.1274   87.3713 C   0  0  0  0  0  0
   20.8621   35.8648   83.5012 H   0  0  0  0  0  0
   30.1049   39.1094   84.9721 H   0  0  0  0  0  0
   28.8184   39.2893   86.0872 H   0  0  0  0  0  0
   26.6961   39.9269   85.9371 H   0  0  0  0  0  0
   26.6252   35.4209   81.3125 H   0  0  0  0  0  0
   24.3207   39.8606   86.3513 H   0  0  0  0  0  0
   22.3612   34.9138   82.8121 H   0  0  0  0  0  0
   23.4060   35.8191   81.7080 H   0  0  0  0  0  0
   24.0809   34.6660   82.8869 H   0  0  0  0  0  0
   30.8397   37.4204   83.7576 H   0  0  0  0  0  0
   30.4504   36.8260   82.1453 H   0  0  0  0  0  0
   30.4310   38.5554   82.4874 H   0  0  0  0  0  0
   28.1495   43.3850   84.0937 H   0  0  0  0  0  0
   29.7491   43.6914   84.8871 H   0  0  0  0  0  0
   29.7499   41.2273   87.2635 H   0  0  0  0  0  0
   27.9611   41.1289   87.1642 H   0  0  0  0  0  0
   16.8303   37.6289   87.1717 H   0  0  0  0  0  0
   16.9339   38.5172   84.8867 H   0  0  0  0  0  0
   18.6479   36.1953   88.0297 H   0  0  0  0  0  0
   27.0082   43.6964   86.1751 H   0  0  0  0  0  0
   28.2334   44.9548   86.2525 H   0  0  0  0  0  0
   29.7049   43.5392   87.5767 H   0  0  0  0  0  0
   28.1359   43.1905   88.2948 H   0  0  0  0  0  0
  1  3  2  0  0  0
  1  4  1  0  0  0
  1  7  1  0  0  0
  2  5  1  0  0  0
  2 10  1  0  0  0
  2  6  2  0  0  0
  3  5  1  0  0  0
  3 11  1  0  0  0
  4  9  2  0  0  0
  4 18  1  0  0  0
  5 23  1  0  0  0
  6 11  1  0  0  0
  7  8  1  0  0  0
  7 17  2  0  0  0
  8 12  2  0  0  0
  8 15  1  0  0  0
  9 12  1  0  0  0
 10 13  1  0  0  0
 10 34  1  0  0  0
 11 19  2  0  0  0
 12 26  1  0  0  0
 13 20  2  0  0  0
 13 21  1  0  0  0
 14 15  1  0  0  0
 14 16  1  0  0  0
 14 22  2  0  0  0
 15 35  1  0  0  0
 15 36  1  0  0  0
 16 27  1  0  0  0
 16 28  1  0  0  0
 17 19  1  0  0  0
 17 37  1  0  0  0
 18 38  1  0  0  0
 19 39  1  0  0  0
 20 25  1  0  0  0
 20 31  1  0  0  0
 21 24  1  0  0  0
 21 30  2  0  0  0
 23 40  1  0  0  0
 23 41  1  0  0  0
 23 42  1  0  0  0
 26 43  1  0  0  0
 26 44  1  0  0  0
 26 45  1  0  0  0
 27 32  1  0  0  0
 27 46  1  0  0  0
 27 47  1  0  0  0
 28 33  1  0  0  0
 28 48  1  0  0  0
 28 49  1  0  0  0
 29 30  1  0  0  0
 29 31  2  0  0  0
 29 50  1  0  0  0
 30 51  1  0  0  0
 31 52  1  0  0  0
 32 33  1  0  0  0
 32 53  1  0  0  0
 32 54  1  0  0  0
 33 55  1  0  0  0
 33 56  1  0  0  0
M  END
> <s_m_entry_id>
4662

> <s_m_entry_name>
dock_pv.150

> <s_m_Source_Path>
/home/csk/Desktop/cluster/DUD-E-result/lck

> <s_m_Source_File>
dock_pv.maegz

> <i_m_Source_File_Index>
150

> <chembl_id>
CHEMBL26209

> <chembl_pref_name>
None

> <i_lp_mmshare_version>
53161

> <i_f3d_flags>
0

> <r_lp_tautomer_probability>
1

> <s_lp_Force_Field>
OPLS_2005

> <r_lp_Energy>
52.135622

> <b_lp_Chiralities_Consistent>
1

> <s_lp_Variant>
CHEMBL258_lig548-1

> <s_i_glide_gridfile>
glide-grid_2of2

> <i_i_glide_lignum>
620

> <i_i_glide_rotatable_bonds>
6

> <r_i_docking_score>
-7.35248829307982

> <r_i_glide_ligand_efficiency>
-0.222802675547873

> <r_i_glide_ligand_efficiency_sa>
-0.714647229801803

> <r_i_glide_ligand_efficiency_ln>
-1.63515532723399

> <r_i_glide_gscore>
-7.35248829307982

> <r_i_glide_lipo>
-3.40006222095278

> <r_i_glide_hbond>
-0.521723731720251

> <r_i_glide_metal>
0

> <r_i_glide_rewards>
-0.558849845637486

> <r_i_glide_evdw>
-45.6588134765625

> <r_i_glide_ecoul>
-6.69553184509277

> <r_i_glide_erotb>
0.432772109405967

> <r_i_glide_esite>
-0.0173541535832283

> <r_i_glide_emodel>
-72.7094450577703

> <r_i_glide_energy>
-52.3543453216553

> <r_i_glide_einternal>
2.44374823570251

> <i_i_glide_confnum>
28

> <i_i_glide_posenum>
241

> <r_i_glide_eff_state_penalty>
0

> <s_user_duplicate_titles>
CHEMBL258_lig548,37660

> <s_m_subgroup_title>
dock_pv

> <s_m_subgroupid>
dock_pv

> <b_m_subgroup_collapsed>
1

$$$$
CHEMBL258_lig367
                    3D
 Schrodinger Suite 2021-1.
 45 48  0  0  1  0            999 V2000
   23.4844   36.4885   83.7559 C   0  0  0  0  0  0
   24.7688   37.0266   83.9843 N   0  0  0  0  0  0
   22.4143   37.0949   84.4286 C   0  0  0  0  0  0
   23.8253   38.6657   85.4522 C   0  0  0  0  0  0
   22.5803   38.1781   85.2191 N   0  0  0  0  0  0
   24.9766   38.0386   84.8867 C   0  0  0  0  0  0
   21.1154   36.6206   84.2227 N   0  0  0  0  0  0
   24.9383   35.3486   82.4886 N   0  0  0  0  0  0
   23.6840   35.4213   82.8481 C   0  0  0  0  0  0
   25.5934   36.3234   83.0888 C   0  0  0  0  0  0
   23.9744   39.7885   86.3235 C   0  0  0  0  0  0
   19.9778   36.8450   85.0174 C   0  0  0  0  0  0
   26.2538   38.4571   85.3490 C   0  0  0  0  0  0
   25.2522   40.2179   86.6987 C   0  0  0  0  0  0
   18.9018   37.5882   84.5007 C   0  0  0  0  0  0
   19.8879   36.3024   86.3178 C   0  0  0  0  0  0
   26.3752   39.5295   86.2232 C   0  0  0  0  0  0
   26.9711   36.6209   82.7178 C   0  0  0  0  0  0
   27.5381   37.6943   82.8872 O   0  0  0  0  0  0
   22.8767   40.4272   86.8629 O   0  0  0  0  0  0
   18.9212   38.2208   82.8883 Cl  0  0  0  0  0  0
   25.3270   41.2934   87.5650 O   0  0  0  0  0  0
   17.6997   37.3144   86.5796 C   0  0  0  0  0  0
   17.7739   37.8219   85.2866 C   0  0  0  0  0  0
   18.7420   36.5438   87.0842 C   0  0  0  0  0  0
   20.9690   35.3830   86.8868 C   0  0  0  0  0  0
   22.2244   41.3275   85.9760 C   0  0  0  0  0  0
   26.6018   41.8203   87.9234 C   0  0  0  0  0  0
   21.0486   35.8147   83.6212 H   0  0  0  0  0  0
   22.9496   34.7423   82.4420 H   0  0  0  0  0  0
   27.1531   37.9235   85.1036 H   0  0  0  0  0  0
   27.3695   39.8047   86.5403 H   0  0  0  0  0  0
   27.4757   35.8042   82.1979 H   0  0  0  0  0  0
   16.8223   37.5064   87.1798 H   0  0  0  0  0  0
   16.9499   38.4036   84.8973 H   0  0  0  0  0  0
   18.6487   36.1266   88.0770 H   0  0  0  0  0  0
   20.5957   34.7313   87.6855 H   0  0  0  0  0  0
   21.3485   34.7155   86.1129 H   0  0  0  0  0  0
   21.8057   35.9692   87.2684 H   0  0  0  0  0  0
   21.4137   41.8299   86.5046 H   0  0  0  0  0  0
   22.9046   42.0972   85.6088 H   0  0  0  0  0  0
   21.7864   40.8135   85.1201 H   0  0  0  0  0  0
   26.4611   42.6862   88.5715 H   0  0  0  0  0  0
   27.1968   41.0919   88.4770 H   0  0  0  0  0  0
   27.1602   42.1495   87.0454 H   0  0  0  0  0  0
  1  2  1  0  0  0
  1  3  1  0  0  0
  1  9  2  0  0  0
  2  6  1  0  0  0
  2 10  1  0  0  0
  3  5  2  0  0  0
  3  7  1  0  0  0
  4  5  1  0  0  0
  4 11  2  0  0  0
  4  6  1  0  0  0
  6 13  2  0  0  0
  7 12  1  0  0  0
  7 29  1  0  0  0
  8  9  1  0  0  0
  8 10  2  0  0  0
  9 30  1  0  0  0
 10 18  1  0  0  0
 11 14  1  0  0  0
 11 20  1  0  0  0
 12 15  1  0  0  0
 12 16  2  0  0  0
 13 17  1  0  0  0
 13 31  1  0  0  0
 14 22  1  0  0  0
 14 17  2  0  0  0
 15 21  1  0  0  0
 15 24  2  0  0  0
 16 25  1  0  0  0
 16 26  1  0  0  0
 17 32  1  0  0  0
 18 19  2  0  0  0
 18 33  1  0  0  0
 20 27  1  0  0  0
 22 28  1  0  0  0
 23 25  2  0  0  0
 23 24  1  0  0  0
 23 34  1  0  0  0
 24 35  1  0  0  0
 25 36  1  0  0  0
 26 37  1  0  0  0
 26 38  1  0  0  0
 26 39  1  0  0  0
 27 40  1  0  0  0
 27 41  1  0  0  0
 27 42  1  0  0  0
 28 43  1  0  0  0
 28 44  1  0  0  0
 28 45  1  0  0  0
M  END
> <s_m_entry_id>
4663

> <s_m_entry_name>
dock_pv.151

> <s_m_Source_Path>
/home/csk/Desktop/cluster/DUD-E-result/lck

> <s_m_Source_File>
dock_pv.maegz

> <i_m_Source_File_Index>
151

> <chembl_id>
CHEMBL28728

> <chembl_pref_name>
None

> <i_lp_mmshare_version>
53161

> <i_f3d_flags>
0

> <r_lp_tautomer_probability>
1

> <s_lp_Force_Field>
OPLS_2005

> <r_lp_Energy>
80.863539

> <b_lp_Chiralities_Consistent>
1

> <s_lp_Variant>
CHEMBL258_lig367-1

> <s_i_glide_gridfile>
glide-grid_2of2

> <i_i_glide_lignum>
408

> <i_i_glide_rotatable_bonds>
5

> <r_i_docking_score>
-7.34974371290954

> <r_i_glide_ligand_efficiency>
-0.262490846889627

> <r_i_glide_ligand_efficiency_sa>
-0.797076809998002

> <r_i_glide_ligand_efficiency_ln>
-1.69653664679194

> <r_i_glide_gscore>
-7.34974371290954

> <r_i_glide_lipo>
-2.60906204943638

> <r_i_glide_hbond>
-0.0297669714128019

> <r_i_glide_metal>
0

> <r_i_glide_rewards>
-2.52759400161061

> <r_i_glide_evdw>
-39.6674270629883

> <r_i_glide_ecoul>
-2.98990607261658

> <r_i_glide_erotb>
0.248536573592149

> <r_i_glide_esite>
0

> <r_i_glide_emodel>
-59.8798505236864

> <r_i_glide_energy>
-42.6573331356049

> <r_i_glide_einternal>
3.70878171920776

> <i_i_glide_confnum>
4

> <i_i_glide_posenum>
145

> <r_i_glide_eff_state_penalty>
0

> <s_user_duplicate_titles>
CHEMBL258_lig367,39456

> <s_m_subgroup_title>
dock_pv

> <s_m_subgroupid>
dock_pv

> <b_m_subgroup_collapsed>
1

$$$$
CHEMBL258_lig1159
                    3D
 Schrodinger Suite 2021-1.
 57 60  0  0  1  0            999 V2000
   19.3077   38.9901   85.7947 C   0  0  0  0  0  0
   20.4740   39.2077   86.5259 C   0  0  0  0  0  0
   21.6430   38.5246   86.1538 C   0  0  0  0  0  0
   21.6437   37.6560   85.0577 C   0  0  0  0  0  0
   20.4587   37.4385   84.3594 C   0  0  0  0  0  0
   19.2878   38.1085   84.7037 C   0  0  0  0  0  0
   18.1845   37.8642   83.9140 O   0  0  0  0  0  0
   16.9497   38.4681   84.2675 C   0  0  0  0  0  0
   20.3833   40.1053   87.5721 O   0  0  0  0  0  0
   21.5486   40.3990   88.3295 C   0  0  0  0  0  0
   22.7934   36.9895   84.6064 N   0  0  0  0  0  0
   24.1064   37.4448   84.3898 C   0  0  0  0  0  0
   24.4266   38.6203   84.9852 N   0  0  0  0  0  0
   25.6721   39.1307   84.8810 C   0  0  0  0  0  0
   25.0123   36.7204   83.5687 C   0  0  0  0  0  0
   24.6246   35.4924   82.7700 C   0  0  0  0  0  0
   23.3748   35.4207   82.3119 N   0  0  0  0  0  0
   25.4377   34.6219   82.4868 O   0  0  0  0  0  0
   25.9888   40.3594   85.4905 N   0  0  0  0  0  0
   24.9474   41.2782   85.9651 C   0  0  2  0  0  0
   24.3592   42.1293   84.8008 C   0  0  1  0  0  0
   23.2308   43.0100   85.3827 C   0  0  0  0  0  0
   23.7310   43.9352   86.5150 C   0  0  0  0  0  0
   24.4385   43.1416   87.6389 C   0  0  0  0  0  0
   25.5098   42.1655   87.1008 C   0  0  0  0  0  0
   25.3497   42.9253   84.0869 N   0  0  0  0  0  0
   26.3273   37.2467   83.5135 C   0  0  0  0  0  0
   26.6230   38.4341   84.1877 N   0  0  0  0  0  0
   27.9315   38.7437   84.0236 N   0  0  0  0  0  0
   28.3512   37.7376   83.2871 C   0  0  0  0  0  0
   27.4660   36.8451   82.8871 N   0  0  0  0  0  0
   18.4193   39.5271   86.0915 H   0  0  0  0  0  0
   22.5556   38.6629   86.7106 H   0  0  0  0  0  0
   20.4403   36.7630   83.5174 H   0  0  0  0  0  0
   16.2054   38.2210   83.5153 H   0  0  0  0  0  0
   16.5868   38.0967   85.2271 H   0  0  0  0  0  0
   17.0128   39.5549   84.3058 H   0  0  0  0  0  0
   21.3496   41.2222   89.0153 H   0  0  0  0  0  0
   22.3775   40.7117   87.6962 H   0  0  0  0  0  0
   21.8417   39.5297   88.9186 H   0  0  0  0  0  0
   22.6037   36.1213   84.1258 H   0  0  0  0  0  0
   23.0717   34.6055   81.7933 H   0  0  0  0  0  0
   22.7927   36.2434   82.3196 H   0  0  0  0  0  0
   26.8579   40.7758   85.1877 H   0  0  0  0  0  0
   24.1385   40.6750   86.3761 H   0  0  0  0  0  0
   23.9108   41.4377   84.0869 H   0  0  0  0  0  0
   22.7809   43.6115   84.5914 H   0  0  0  0  0  0
   22.4246   42.3750   85.7555 H   0  0  0  0  0  0
   24.4150   44.6789   86.1043 H   0  0  0  0  0  0
   22.8922   44.4964   86.9297 H   0  0  0  0  0  0
   24.8897   43.8331   88.3515 H   0  0  0  0  0  0
   23.6924   42.5838   88.2043 H   0  0  0  0  0  0
   25.8754   41.5414   87.9178 H   0  0  0  0  0  0
   26.3727   42.7306   86.7441 H   0  0  0  0  0  0
   24.8700   43.5893   83.4840 H   0  0  0  0  0  0
   25.8537   43.4952   84.7500 H   0  0  0  0  0  0
   29.3860   37.6695   82.9785 H   0  0  0  0  0  0
  1  6  1  0  0  0
  1  2  2  0  0  0
  1 32  1  0  0  0
  2  9  1  0  0  0
  2  3  1  0  0  0
  3  4  2  0  0  0
  3 33  1  0  0  0
  4  5  1  0  0  0
  4 11  1  0  0  0
  5  6  2  0  0  0
  5 34  1  0  0  0
  6  7  1  0  0  0
  7  8  1  0  0  0
  8 35  1  0  0  0
  8 36  1  0  0  0
  8 37  1  0  0  0
  9 10  1  0  0  0
 10 38  1  0  0  0
 10 39  1  0  0  0
 10 40  1  0  0  0
 11 12  1  0  0  0
 11 41  1  0  0  0
 12 15  2  0  0  0
 12 13  1  0  0  0
 13 14  2  0  0  0
 14 19  1  0  0  0
 14 28  1  0  0  0
 15 27  1  0  0  0
 15 16  1  0  0  0
 16 17  1  0  0  0
 16 18  2  0  0  0
 17 42  1  0  0  0
 17 43  1  0  0  0
 19 20  1  0  0  0
 19 44  1  0  0  0
 20 21  1  0  0  0
 20 25  1  0  0  0
 20 45  1  0  0  0
 21 22  1  0  0  0
 21 26  1  0  0  0
 21 46  1  0  0  0
 22 23  1  0  0  0
 22 47  1  0  0  0
 22 48  1  0  0  0
 23 24  1  0  0  0
 23 49  1  0  0  0
 23 50  1  0  0  0
 24 25  1  0  0  0
 24 51  1  0  0  0
 24 52  1  0  0  0
 25 53  1  0  0  0
 25 54  1  0  0  0
 26 55  1  0  0  0
 26 56  1  0  0  0
 27 28  1  0  0  0
 27 31  2  0  0  0
 28 29  1  0  0  0
 29 30  2  0  0  0
 30 31  1  0  0  0
 30 57  1  0  0  0
M  END
> <s_m_entry_id>
4664

> <s_m_entry_name>
dock_pv.152

> <s_m_Source_Path>
/home/csk/Desktop/cluster/DUD-E-result/lck

> <s_m_Source_File>
dock_pv.maegz

> <i_m_Source_File_Index>
152

> <chembl_id>
CHEMBL475575

> <chembl_pref_name>
None

> <i_lp_mmshare_version>
53161

> <i_f3d_flags>
0

> <r_lp_tautomer_probability>
1

> <s_lp_Force_Field>
OPLS_2005

> <r_lp_Energy>
42.440557

> <b_lp_Chiralities_Consistent>
1

> <s_lp_Variant>
CHEMBL258_lig1159-1

> <s_i_glide_gridfile>
glide-grid_2of2

> <i_i_glide_lignum>
1247

> <i_i_glide_rotatable_bonds>
7

> <r_i_docking_score>
-7.34584791131125

> <r_i_glide_ligand_efficiency>
-0.23696283584875

> <r_i_glide_ligand_efficiency_sa>
-0.744390467018985

> <r_i_glide_ligand_efficiency_ln>
-1.65671382720289

> <r_i_glide_gscore>
-7.34584791131125

> <r_i_glide_lipo>
-1.5699733571042

> <r_i_glide_hbond>
-0.822130579551746

> <r_i_glide_metal>
0

> <r_i_glide_rewards>
-2.04762025787986

> <r_i_glide_evdw>
-42.8794479370117

> <r_i_glide_ecoul>
-7.99084520339966

> <r_i_glide_erotb>
0.436475460585085

> <r_i_glide_esite>
0

> <r_i_glide_emodel>
-71.8031072057196

> <r_i_glide_energy>
-50.8702931404114

> <r_i_glide_einternal>
5.54136848449707

> <i_i_glide_confnum>
1

> <i_i_glide_posenum>
158

> <r_i_glide_eff_state_penalty>
0

> <s_user_duplicate_titles>
CHEMBL258_lig1159,460141

> <s_m_subgroup_title>
dock_pv

> <s_m_subgroupid>
dock_pv

> <b_m_subgroup_collapsed>
1

$$$$
CHEMBL258_lig131
                    3D
 Schrodinger Suite 2021-1.
 32 34  0  0  1  0            999 V2000
   23.5927   36.8545   83.9720 C   0  0  0  0  0  0
   24.4104   35.9602   83.1472 C   0  0  0  0  0  0
   24.4894   37.8877   84.5122 C   0  0  0  0  0  0
   25.7885   36.4560   83.2100 C   0  0  0  0  0  0
   25.8398   37.5689   84.0278 C   0  0  0  0  0  0
   22.2440   36.7242   84.1144 C   0  0  0  0  0  0
   27.0535   38.2219   84.2607 C   0  0  0  0  0  0
   19.1054   38.6183   85.0951 C   0  0  0  0  0  0
   26.9431   35.9849   82.5773 C   0  0  0  0  0  0
   21.2821   37.5208   84.9158 C   0  0  0  0  0  0
   23.9754   35.0217   82.4847 O   0  0  0  0  0  0
   24.1547   38.8380   85.2160 O   0  0  0  0  0  0
   19.4141   39.0192   86.4051 C   0  0  0  0  0  0
   20.0413   37.8751   84.3633 C   0  0  0  0  0  0
   20.6449   38.6648   86.9572 C   0  0  0  0  0  0
   28.1641   36.6218   82.8181 C   0  0  0  0  0  0
   28.2188   37.7386   83.6591 C   0  0  0  0  0  0
   21.5611   37.9091   86.2298 C   0  0  0  0  0  0
   17.9040   38.9416   84.5057 O   0  0  0  0  0  0
   29.3231   36.1442   82.2097 N   0  0  0  0  0  0
   18.5500   39.7544   87.1841 O   0  0  0  0  0  0
   21.7699   35.9013   83.5927 H   0  0  0  0  0  0
   27.1066   39.0934   84.8980 H   0  0  0  0  0  0
   26.9088   35.1248   81.9240 H   0  0  0  0  0  0
   19.7952   37.5746   83.3547 H   0  0  0  0  0  0
   20.8915   38.9686   87.9634 H   0  0  0  0  0  0
   29.1591   38.2370   83.8443 H   0  0  0  0  0  0
   22.4933   37.6284   86.6978 H   0  0  0  0  0  0
   17.2230   39.2164   85.1323 H   0  0  0  0  0  0
   29.2537   35.3884   81.5404 H   0  0  0  0  0  0
   30.2113   36.5873   82.3926 H   0  0  0  0  0  0
   17.6255   39.8208   86.8870 H   0  0  0  0  0  0
  1  2  1  0  0  0
  1  3  1  0  0  0
  1  6  2  0  0  0
  2  4  1  0  0  0
  2 11  2  0  0  0
  3  5  1  0  0  0
  3 12  2  0  0  0
  4  9  2  0  0  0
  4  5  1  0  0  0
  5  7  2  0  0  0
  6 10  1  0  0  0
  6 22  1  0  0  0
  7 17  1  0  0  0
  7 23  1  0  0  0
  8 14  2  0  0  0
  8 19  1  0  0  0
  8 13  1  0  0  0
  9 16  1  0  0  0
  9 24  1  0  0  0
 10 14  1  0  0  0
 10 18  2  0  0  0
 13 15  2  0  0  0
 13 21  1  0  0  0
 14 25  1  0  0  0
 15 18  1  0  0  0
 15 26  1  0  0  0
 16 20  1  0  0  0
 16 17  2  0  0  0
 17 27  1  0  0  0
 18 28  1  0  0  0
 19 29  1  0  0  0
 20 30  1  0  0  0
 20 31  1  0  0  0
 21 32  1  0  0  0
M  END
> <s_m_entry_id>
4665

> <s_m_entry_name>
dock_pv.153

> <s_m_Source_Path>
/home/csk/Desktop/cluster/DUD-E-result/lck

> <s_m_Source_File>
dock_pv.maegz

> <i_m_Source_File_Index>
153

> <chembl_id>
CHEMBL81793

> <chembl_pref_name>
None

> <i_lp_mmshare_version>
53161

> <i_f3d_flags>
0

> <r_lp_tautomer_probability>
1

> <s_lp_Force_Field>
OPLS_2005

> <r_lp_Energy>
30.925065

> <b_lp_Chiralities_Consistent>
1

> <s_lp_Variant>
CHEMBL258_lig131-1

> <s_i_glide_gridfile>
glide-grid_2of2

> <i_i_glide_lignum>
152

> <i_i_glide_rotatable_bonds>
3

> <r_i_docking_score>
-7.33842822591419

> <r_i_glide_ligand_efficiency>
-0.349448963138771

> <r_i_glide_ligand_efficiency_sa>
-0.964103191836459

> <r_i_glide_ligand_efficiency_ln>
-1.81441155016681

> <r_i_glide_gscore>
-7.33842822591419

> <r_i_glide_lipo>
-2.56115040212104

> <r_i_glide_hbond>
0

> <r_i_glide_metal>
0

> <r_i_glide_rewards>
-2.10004450486167

> <r_i_glide_evdw>
-29.8800964355469

> <r_i_glide_ecoul>
-9.41132354736328

> <r_i_glide_erotb>
0.22847003495035

> <r_i_glide_esite>
0

> <r_i_glide_emodel>
-56.4357858126588

> <r_i_glide_energy>
-39.2914199829102

> <r_i_glide_einternal>
4.3069486618042

> <i_i_glide_confnum>
2

> <i_i_glide_posenum>
321

> <r_i_glide_eff_state_penalty>
0

> <s_user_duplicate_titles>
CHEMBL258_lig131,132618

> <s_m_subgroup_title>
dock_pv

> <s_m_subgroupid>
dock_pv

> <b_m_subgroup_collapsed>
1

$$$$
CHEMBL258_lig1206
                    3D
 Schrodinger Suite 2021-1.
 59 63  0  0  1  0            999 V2000
   28.9769   37.8205   83.6866 C   0  0  0  0  0  0
   29.8090   38.8888   84.0223 C   0  0  0  0  0  0
   29.3273   40.1317   84.2765 N   0  0  0  0  0  0
   27.9832   40.2984   84.1929 C   0  0  0  0  0  0
   27.0960   39.3195   83.8656 N   0  0  0  0  0  0
   27.6028   38.0795   83.6218 C   0  0  0  0  0  0
   26.6867   37.0595   83.2776 N   0  0  0  0  0  0
   27.5267   41.5887   84.4913 N   0  0  0  0  0  0
   25.9124   35.2047   82.2222 N   0  0  0  0  0  0
   26.9469   35.9574   82.4862 C   0  0  0  0  0  0
   24.8895   35.8137   82.8859 C   0  0  0  0  0  0
   25.3470   36.9429   83.6198 C   0  0  0  0  0  0
   24.4829   37.6914   84.4281 C   0  0  0  0  0  0
   23.1456   37.2968   84.4456 C   0  0  0  0  0  0
   22.6732   36.2208   83.6907 C   0  0  0  0  0  0
   23.5328   35.4628   82.8937 C   0  0  0  0  0  0
   26.1091   41.9256   84.6225 C   0  0  0  0  0  0
   25.5456   41.7451   86.0518 C   0  0  1  0  0  0
   26.3642   42.4780   87.1326 C   0  0  0  0  0  0
   25.7904   42.1638   88.5150 C   0  0  0  0  0  0
   24.3227   42.6146   88.6333 C   0  0  0  0  0  0
   23.5367   42.0869   87.4929 N   0  0  0  0  0  0
   24.0568   42.1790   86.1006 C   0  0  0  0  0  0
   22.2575   41.5664   87.7745 C   0  0  0  0  0  0
   21.5563   41.2700   86.6479 O   0  0  0  0  0  0
   21.7941   41.3976   88.9062 O   0  0  0  0  0  0
   20.1975   40.8319   86.7072 C   0  0  0  0  0  0
   20.0593   39.3168   86.5778 C   0  0  0  0  0  0
   18.9205   38.8071   85.9502 C   0  0  0  0  0  0
   18.7632   37.4348   85.7840 C   0  0  0  0  0  0
   19.7504   36.5692   86.2447 C   0  0  0  0  0  0
   20.8807   37.0636   86.8869 C   0  0  0  0  0  0
   21.0304   38.4366   87.0694 C   0  0  0  0  0  0
   29.3848   36.8415   83.4904 H   0  0  0  0  0  0
   30.8796   38.7606   84.0969 H   0  0  0  0  0  0
   28.2092   42.2439   84.8453 H   0  0  0  0  0  0
   27.9345   35.8026   82.0750 H   0  0  0  0  0  0
   24.8159   38.5533   84.9865 H   0  0  0  0  0  0
   22.4457   37.8875   85.0089 H   0  0  0  0  0  0
   21.6210   35.9741   83.7253 H   0  0  0  0  0  0
   23.1657   34.6230   82.3208 H   0  0  0  0  0  0
   25.5193   41.3343   83.9205 H   0  0  0  0  0  0
   25.9851   42.9585   84.2930 H   0  0  0  0  0  0
   25.5787   40.6788   86.2868 H   0  0  0  0  0  0
   26.3753   43.5521   86.9390 H   0  0  0  0  0  0
   27.4109   42.1731   87.0937 H   0  0  0  0  0  0
   26.3848   42.6529   89.2876 H   0  0  0  0  0  0
   25.8658   41.0941   88.7192 H   0  0  0  0  0  0
   24.1855   43.6956   88.6907 H   0  0  0  0  0  0
   23.9672   42.1963   89.5770 H   0  0  0  0  0  0
   23.5415   41.4661   85.4550 H   0  0  0  0  0  0
   23.8558   43.1762   85.7055 H   0  0  0  0  0  0
   19.6863   41.2874   85.8616 H   0  0  0  0  0  0
   19.6826   41.1806   87.6044 H   0  0  0  0  0  0
   18.1497   39.4721   85.5892 H   0  0  0  0  0  0
   17.8820   37.0455   85.2963 H   0  0  0  0  0  0
   19.6403   35.5032   86.1022 H   0  0  0  0  0  0
   21.6410   36.3832   87.2433 H   0  0  0  0  0  0
   21.9138   38.8034   87.5701 H   0  0  0  0  0  0
  1  6  1  0  0  0
  1  2  2  0  0  0
  1 34  1  0  0  0
  2  3  1  0  0  0
  2 35  1  0  0  0
  3  4  2  0  0  0
  4  8  1  0  0  0
  4  5  1  0  0  0
  5  6  2  0  0  0
  6  7  1  0  0  0
  7 12  1  0  0  0
  7 10  1  0  0  0
  8 17  1  0  0  0
  8 36  1  0  0  0
  9 11  1  0  0  0
  9 10  2  0  0  0
 10 37  1  0  0  0
 11 16  1  0  0  0
 11 12  2  0  0  0
 12 13  1  0  0  0
 13 14  2  0  0  0
 13 38  1  0  0  0
 14 15  1  0  0  0
 14 39  1  0  0  0
 15 16  2  0  0  0
 15 40  1  0  0  0
 16 41  1  0  0  0
 17 18  1  0  0  0
 17 42  1  0  0  0
 17 43  1  0  0  0
 18 19  1  0  0  0
 18 23  1  0  0  0
 18 44  1  0  0  0
 19 20  1  0  0  0
 19 45  1  0  0  0
 19 46  1  0  0  0
 20 21  1  0  0  0
 20 47  1  0  0  0
 20 48  1  0  0  0
 21 22  1  0  0  0
 21 49  1  0  0  0
 21 50  1  0  0  0
 22 23  1  0  0  0
 22 24  1  0  0  0
 23 51  1  0  0  0
 23 52  1  0  0  0
 24 25  1  0  0  0
 24 26  2  0  0  0
 25 27  1  0  0  0
 27 28  1  0  0  0
 27 53  1  0  0  0
 27 54  1  0  0  0
 28 29  2  0  0  0
 28 33  1  0  0  0
 29 30  1  0  0  0
 29 55  1  0  0  0
 30 31  2  0  0  0
 30 56  1  0  0  0
 31 32  1  0  0  0
 31 57  1  0  0  0
 32 33  2  0  0  0
 32 58  1  0  0  0
 33 59  1  0  0  0
M  END
> <s_m_entry_id>
4666

> <s_m_entry_name>
dock_pv.154

> <s_m_Source_Path>
/home/csk/Desktop/cluster/DUD-E-result/lck

> <s_m_Source_File>
dock_pv.maegz

> <i_m_Source_File_Index>
154

> <chembl_id>
CHEMBL572354

> <chembl_pref_name>
None

> <i_lp_mmshare_version>
53161

> <i_f3d_flags>
0

> <r_lp_tautomer_probability>
1

> <s_lp_Force_Field>
OPLS_2005

> <r_lp_Energy>
28.878757

> <b_lp_Chiralities_Consistent>
1

> <s_lp_Variant>
CHEMBL258_lig1206-2

> <s_i_glide_gridfile>
glide-grid_2of2

> <i_i_glide_lignum>
1296

> <i_i_glide_rotatable_bonds>
8

> <r_i_docking_score>
-7.33670106961068

> <r_i_glide_ligand_efficiency>
-0.222324274836687

> <r_i_glide_ligand_efficiency_sa>
-0.713112743098967

> <r_i_glide_ligand_efficiency_ln>
-1.63164433047632

> <r_i_glide_gscore>
-7.33670106961068

> <r_i_glide_lipo>
-2.73282331882189

> <r_i_glide_hbond>
-0.203892649454929

> <r_i_glide_metal>
0

> <r_i_glide_rewards>
-2.17154592133598

> <r_i_glide_evdw>
-42.9235229492188

> <r_i_glide_ecoul>
-5.1023964881897

> <r_i_glide_erotb>
0.714377961374986

> <r_i_glide_esite>
-0.0312815206834783

> <r_i_glide_emodel>
-67.184626812355

> <r_i_glide_energy>
-48.0259194374084

> <r_i_glide_einternal>
6.72782850265503

> <i_i_glide_confnum>
17

> <i_i_glide_posenum>
15

> <r_i_glide_eff_state_penalty>
0

> <s_user_duplicate_titles>
CHEMBL258_lig1206,580686

> <s_m_subgroup_title>
dock_pv

> <s_m_subgroupid>
dock_pv

> <b_m_subgroup_collapsed>
1

$$$$
CHEMBL258_lig1047
                    3D
 Schrodinger Suite 2021-1.
 29 31  0  0  1  0            999 V2000
   27.4550   38.2213   83.9155 C   0  0  0  0  0  0
   27.4879   37.1064   83.0823 C   0  0  0  0  0  0
   26.3453   36.3315   82.8870 C   0  0  0  0  0  0
   26.2680   38.5708   84.5504 C   0  0  0  0  0  0
   25.1217   37.8096   84.3443 C   0  0  0  0  0  0
   25.1336   36.6782   83.5138 C   0  0  0  0  0  0
   23.8487   35.9425   83.2870 C   0  0  0  0  0  0
   22.7237   36.4644   84.0487 C   0  0  0  0  0  0
   22.8229   37.5593   84.8311 C   0  0  0  0  0  0
   23.9813   38.2560   84.9791 O   0  0  0  0  0  0
   21.6837   38.2495   85.4944 C   0  0  0  0  0  0
   20.3659   38.0844   85.0370 C   0  0  0  0  0  0
   19.3117   38.7744   85.6336 C   0  0  0  0  0  0
   19.5679   39.6340   86.6969 C   0  0  0  0  0  0
   20.8632   39.7943   87.1781 C   0  0  0  0  0  0
   21.9138   39.1021   86.5829 C   0  0  0  0  0  0
   23.7296   35.0210   82.4870 O   0  0  0  0  0  0
   26.4660   35.2283   82.0870 O   0  0  0  0  0  0
   18.5500   40.3315   87.2870 O   0  0  0  0  0  0
   28.3478   38.8103   84.0705 H   0  0  0  0  0  0
   28.4175   36.8343   82.6031 H   0  0  0  0  0  0
   26.2274   39.4377   85.1928 H   0  0  0  0  0  0
   21.7732   35.9670   83.9367 H   0  0  0  0  0  0
   20.1468   37.4389   84.1996 H   0  0  0  0  0  0
   18.3033   38.6456   85.2677 H   0  0  0  0  0  0
   21.0558   40.4653   88.0019 H   0  0  0  0  0  0
   22.9152   39.2491   86.9610 H   0  0  0  0  0  0
   27.2846   35.2125   81.5787 H   0  0  0  0  0  0
   17.6623   40.2210   86.8900 H   0  0  0  0  0  0
  1  2  2  0  0  0
  1  4  1  0  0  0
  1 20  1  0  0  0
  2  3  1  0  0  0
  2 21  1  0  0  0
  3  6  2  0  0  0
  3 18  1  0  0  0
  4  5  2  0  0  0
  4 22  1  0  0  0
  5  6  1  0  0  0
  5 10  1  0  0  0
  6  7  1  0  0  0
  7  8  1  0  0  0
  7 17  2  0  0  0
  8  9  2  0  0  0
  8 23  1  0  0  0
  9 10  1  0  0  0
  9 11  1  0  0  0
 11 12  2  0  0  0
 11 16  1  0  0  0
 12 13  1  0  0  0
 12 24  1  0  0  0
 13 14  2  0  0  0
 13 25  1  0  0  0
 14 15  1  0  0  0
 14 19  1  0  0  0
 15 16  2  0  0  0
 15 26  1  0  0  0
 16 27  1  0  0  0
 18 28  1  0  0  0
 19 29  1  0  0  0
M  END
> <s_m_entry_id>
4667

> <s_m_entry_name>
dock_pv.155

> <s_m_Source_Path>
/home/csk/Desktop/cluster/DUD-E-result/lck

> <s_m_Source_File>
dock_pv.maegz

> <i_m_Source_File_Index>
155

> <chembl_id>
CHEMBL484662

> <chembl_pref_name>
None

> <i_lp_mmshare_version>
53161

> <i_f3d_flags>
0

> <r_lp_tautomer_probability>
0.999999999997365

> <s_lp_Force_Field>
OPLS_2005

> <r_lp_Energy>
16.006422

> <b_lp_Chiralities_Consistent>
1

> <s_lp_Variant>
CHEMBL258_lig1047-1

> <s_i_glide_gridfile>
glide-grid_2of2

> <i_i_glide_lignum>
1135

> <i_i_glide_rotatable_bonds>
3

> <r_i_docking_score>
-7.33449696776915

> <r_i_glide_ligand_efficiency>
-0.386026156198376

> <r_i_glide_ligand_efficiency_sa>
-1.03007283063855

> <r_i_glide_ligand_efficiency_ln>
-1.85945251188019

> <r_i_glide_gscore>
-7.33449696776915

> <r_i_glide_lipo>
-2.84688322744067

> <r_i_glide_hbond>
-0.303858680976976

> <r_i_glide_metal>
0

> <r_i_glide_rewards>
-1.76058418087634

> <r_i_glide_evdw>
-25.4745998382568

> <r_i_glide_ecoul>
-9.47653579711914

> <r_i_glide_erotb>
0.272039483005549

> <r_i_glide_esite>
0

> <r_i_glide_emodel>
-48.471579791493

> <r_i_glide_energy>
-34.951135635376

> <r_i_glide_einternal>
5.95320796966553

> <i_i_glide_confnum>
1

> <i_i_glide_posenum>
17

> <r_i_glide_eff_state_penalty>
0

> <s_user_duplicate_titles>
CHEMBL258_lig1047

> <s_m_subgroup_title>
dock_pv

> <s_m_subgroupid>
dock_pv

> <b_m_subgroup_collapsed>
1

$$$$
CHEMBL258_lig246
                    3D
 Schrodinger Suite 2021-1.
 49 52  0  0  1  0            999 V2000
   24.4509   35.4044   82.5819 N   0  0  0  0  0  0
   25.6722   35.8972   82.8864 C   0  0  0  0  0  0
   25.9602   36.8950   83.7549 N   0  0  0  0  0  0
   23.3870   35.9485   83.2215 C   0  0  0  0  0  0
   23.5273   37.0264   84.1217 C   0  0  0  0  0  0
   24.8797   37.4301   84.3431 C   0  0  0  0  0  0
   24.8822   38.4815   85.2436 N   0  0  0  0  0  0
   23.5646   38.7398   85.5682 C   0  0  0  0  0  0
   22.6780   37.9225   84.8870 C   0  0  0  0  0  0
   21.1873   38.1244   84.8724 C   0  0  0  0  0  0
   20.5338   38.6428   86.0009 C   0  0  0  0  0  0
   19.1627   38.9095   85.9762 C   0  0  0  0  0  0
   18.4167   38.6207   84.8353 C   0  0  0  0  0  0
   19.0475   38.0996   83.7080 C   0  0  0  0  0  0
   20.4241   37.8708   83.7251 C   0  0  0  0  0  0
   22.1506   35.4211   82.8870 N   0  0  0  0  0  0
   26.0844   39.2271   85.6731 C   0  0  0  0  0  0
   26.6737   40.0632   84.5302 C   0  0  0  0  0  0
   25.7816   41.2796   84.2578 C   0  0  0  0  0  0
   25.6746   42.1511   85.4349 N   0  0  2  0  0  0
   25.2299   41.4766   86.6676 C   0  0  0  0  0  0
   25.9266   40.1169   86.9224 C   0  0  0  0  0  0
   18.5500   39.4788   87.0608 O   0  0  0  0  0  0
   24.9039   43.3707   85.1415 C   0  0  0  0  0  0
   23.3835   43.2248   84.8545 C   0  0  0  0  0  0
   23.1097   42.6213   83.6024 O   0  0  0  0  0  0
   26.5129   35.4507   82.3730 H   0  0  0  0  0  0
   23.3251   39.5514   86.2316 H   0  0  0  0  0  0
   21.0924   38.8701   86.8958 H   0  0  0  0  0  0
   17.3534   38.8164   84.8173 H   0  0  0  0  0  0
   18.4768   37.8991   82.8128 H   0  0  0  0  0  0
   20.8998   37.5528   82.8129 H   0  0  0  0  0  0
   21.3297   35.7379   83.3846 H   0  0  0  0  0  0
   22.1078   34.6629   82.2124 H   0  0  0  0  0  0
   26.7859   38.4327   85.9372 H   0  0  0  0  0  0
   26.7962   39.4591   83.6311 H   0  0  0  0  0  0
   27.7022   40.3507   84.7532 H   0  0  0  0  0  0
   24.7825   40.9323   84.0082 H   0  0  0  0  0  0
   26.1508   41.8259   83.3927 H   0  0  0  0  0  0
   25.4172   42.1527   87.5030 H   0  0  0  0  0  0
   24.1534   41.3402   86.6571 H   0  0  0  0  0  0
   26.8994   40.2829   87.3875 H   0  0  0  0  0  0
   25.4019   39.5534   87.6871 H   0  0  0  0  0  0
   17.6154   39.7014   86.8870 H   0  0  0  0  0  0
   25.3870   44.0186   84.4091 H   0  0  0  0  0  0
   24.9819   43.9739   86.0474 H   0  0  0  0  0  0
   22.9454   44.2211   84.8420 H   0  0  0  0  0  0
   22.8584   42.6951   85.6478 H   0  0  0  0  0  0
   23.3487   43.2622   82.9246 H   0  0  0  0  0  0
  1  2  2  0  0  0
  1  4  1  0  0  0
  2  3  1  0  0  0
  2 27  1  0  0  0
  3  6  2  0  0  0
  4  5  2  0  0  0
  4 16  1  0  0  0
  5  9  1  0  0  0
  5  6  1  0  0  0
  6  7  1  0  0  0
  7  8  1  0  0  0
  7 17  1  0  0  0
  8  9  2  0  0  0
  8 28  1  0  0  0
  9 10  1  0  0  0
 10 15  1  0  0  0
 10 11  2  0  0  0
 11 12  1  0  0  0
 11 29  1  0  0  0
 12 13  2  0  0  0
 12 23  1  0  0  0
 13 14  1  0  0  0
 13 30  1  0  0  0
 14 15  2  0  0  0
 14 31  1  0  0  0
 15 32  1  0  0  0
 16 33  1  0  0  0
 16 34  1  0  0  0
 17 18  1  0  0  0
 17 22  1  0  0  0
 17 35  1  0  0  0
 18 19  1  0  0  0
 18 36  1  0  0  0
 18 37  1  0  0  0
 19 20  1  0  0  0
 19 38  1  0  0  0
 19 39  1  0  0  0
 20 21  1  0  0  0
 20 24  1  0  0  0
 21 22  1  0  0  0
 21 40  1  0  0  0
 21 41  1  0  0  0
 22 42  1  0  0  0
 22 43  1  0  0  0
 23 44  1  0  0  0
 24 25  1  0  0  0
 24 45  1  0  0  0
 24 46  1  0  0  0
 25 26  1  0  0  0
 25 47  1  0  0  0
 25 48  1  0  0  0
 26 49  1  0  0  0
M  END
> <s_m_entry_id>
4668

> <s_m_entry_name>
dock_pv.156

> <s_m_Source_Path>
/home/csk/Desktop/cluster/DUD-E-result/lck

> <s_m_Source_File>
dock_pv.maegz

> <i_m_Source_File_Index>
156

> <chembl_id>
CHEMBL169780

> <chembl_pref_name>
None

> <i_lp_mmshare_version>
53161

> <i_f3d_flags>
0

> <r_lp_tautomer_probability>
0.999999999997365

> <s_lp_Force_Field>
OPLS_2005

> <r_lp_Energy>
41.566242

> <b_lp_Chiralities_Consistent>
1

> <s_lp_Variant>
CHEMBL258_lig246-1

> <s_i_glide_gridfile>
glide-grid_2of2

> <i_i_glide_lignum>
274

> <i_i_glide_rotatable_bonds>
6

> <r_i_docking_score>
-7.32738593262509

> <r_i_glide_ligand_efficiency>
-0.281822535870196

> <r_i_glide_ligand_efficiency_sa>
-0.834898153597323

> <r_i_glide_ligand_efficiency_ln>
-1.72081254316271

> <r_i_glide_gscore>
-7.32738593262509

> <r_i_glide_lipo>
-1.97540588623606

> <r_i_glide_hbond>
-0.656610107900313

> <r_i_glide_metal>
0

> <r_i_glide_rewards>
-1.95076860376925

> <r_i_glide_evdw>
-32.6689720153809

> <r_i_glide_ecoul>
-11.4847431182861

> <r_i_glide_erotb>
0.611558733792501

> <r_i_glide_esite>
0

> <r_i_glide_emodel>
-60.8078273078987

> <r_i_glide_energy>
-44.153715133667

> <r_i_glide_einternal>
7.54715013504028

> <i_i_glide_confnum>
286

> <i_i_glide_posenum>
398

> <r_i_glide_eff_state_penalty>
0

> <s_user_duplicate_titles>
CHEMBL258_lig246,282629

> <s_m_subgroup_title>
dock_pv

> <s_m_subgroupid>
dock_pv

> <b_m_subgroup_collapsed>
1

$$$$
CHEMBL258_lig234
                    3D
 Schrodinger Suite 2021-1.
 32 35  0  0  1  0            999 V2000
   24.3763   36.5549   83.6621 C   0  0  0  0  0  0
   23.7213   37.4650   84.5151 C   0  0  0  0  0  0
   25.7438   36.7736   83.4503 N   0  0  0  0  0  0
   24.3922   38.4893   85.1021 N   0  0  0  0  0  0
   26.4429   37.7729   84.0304 C   0  0  0  0  0  0
   22.3318   37.3485   84.6990 N   0  0  0  0  0  0
   25.7238   38.6475   84.8892 C   0  0  0  0  0  0
   25.1581   35.0210   82.2027 N   0  0  0  0  0  0
   26.1507   35.8041   82.5605 C   0  0  0  0  0  0
   24.0841   35.4305   82.8450 C   0  0  0  0  0  0
   21.3697   38.1477   85.3590 C   0  0  0  0  0  0
   20.0192   37.9782   85.0107 C   0  0  0  0  0  0
   19.6542   37.0437   84.1000 F   0  0  0  0  0  0
   27.8348   37.9762   83.8188 C   0  0  0  0  0  0
   26.4100   39.7022   85.5336 C   0  0  0  0  0  0
   21.6979   39.1408   86.2992 C   0  0  0  0  0  0
   19.0323   38.7888   85.5759 C   0  0  0  0  0  0
   28.4804   39.0240   84.4737 C   0  0  0  0  0  0
   27.7781   39.8742   85.3247 C   0  0  0  0  0  0
   20.7090   39.9569   86.8530 C   0  0  0  0  0  0
   19.3754   39.7857   86.4868 C   0  0  0  0  0  0
   21.9207   36.5936   84.1690 H   0  0  0  0  0  0
   27.1657   35.7334   82.2023 H   0  0  0  0  0  0
   23.1294   34.9418   82.6915 H   0  0  0  0  0  0
   28.3963   37.3213   83.1696 H   0  0  0  0  0  0
   25.8636   40.3663   86.1869 H   0  0  0  0  0  0
   22.7141   39.3039   86.6160 H   0  0  0  0  0  0
   17.9978   38.6586   85.2972 H   0  0  0  0  0  0
   29.5390   39.1765   84.3251 H   0  0  0  0  0  0
   28.2993   40.6756   85.8272 H   0  0  0  0  0  0
   20.9792   40.7313   87.5555 H   0  0  0  0  0  0
   18.6060   40.4254   86.8977 H   0  0  0  0  0  0
  1  2  1  0  0  0
  1  3  1  0  0  0
  1 10  2  0  0  0
  2  4  2  0  0  0
  2  6  1  0  0  0
  3  5  1  0  0  0
  3  9  1  0  0  0
  4  7  1  0  0  0
  5  7  1  0  0  0
  5 14  2  0  0  0
  6 11  1  0  0  0
  6 22  1  0  0  0
  7 15  2  0  0  0
  8 10  1  0  0  0
  8  9  2  0  0  0
  9 23  1  0  0  0
 10 24  1  0  0  0
 11 12  1  0  0  0
 11 16  2  0  0  0
 12 13  1  0  0  0
 12 17  2  0  0  0
 14 18  1  0  0  0
 14 25  1  0  0  0
 15 19  1  0  0  0
 15 26  1  0  0  0
 16 20  1  0  0  0
 16 27  1  0  0  0
 17 21  1  0  0  0
 17 28  1  0  0  0
 18 19  2  0  0  0
 18 29  1  0  0  0
 19 30  1  0  0  0
 20 21  2  0  0  0
 20 31  1  0  0  0
 21 32  1  0  0  0
M  END
> <s_m_entry_id>
4669

> <s_m_entry_name>
dock_pv.157

> <s_m_Source_Path>
/home/csk/Desktop/cluster/DUD-E-result/lck

> <s_m_Source_File>
dock_pv.maegz

> <i_m_Source_File_Index>
157

> <chembl_id>
CHEMBL433437

> <chembl_pref_name>
None

> <i_lp_mmshare_version>
53161

> <i_f3d_flags>
0

> <r_lp_tautomer_probability>
1

> <s_lp_Force_Field>
OPLS_2005

> <r_lp_Energy>
56.788156

> <b_lp_Chiralities_Consistent>
1

> <s_lp_Variant>
CHEMBL258_lig234-1

> <s_i_glide_gridfile>
glide-grid_2of2

> <i_i_glide_lignum>
262

> <i_i_glide_rotatable_bonds>
2

> <r_i_docking_score>
-7.3234395582384

> <r_i_glide_ligand_efficiency>
-0.348735217058971

> <r_i_glide_ligand_efficiency_sa>
-0.962134020523101

> <r_i_glide_ligand_efficiency_ln>
-1.81070563237142

> <r_i_glide_gscore>
-7.3234395582384

> <r_i_glide_lipo>
-2.36307947661141

> <r_i_glide_hbond>
-0.32

> <r_i_glide_metal>
0

> <r_i_glide_rewards>
-3.18485685790238

> <r_i_glide_evdw>
-31.7395095825195

> <r_i_glide_ecoul>
-2.22664356231689

> <r_i_glide_erotb>
0.465468789748912

> <r_i_glide_esite>
0

> <r_i_glide_emodel>
-49.4582183311756

> <r_i_glide_energy>
-33.9661531448364

> <r_i_glide_einternal>
0.360131710767746

> <i_i_glide_confnum>
1

> <i_i_glide_posenum>
377

> <r_i_glide_eff_state_penalty>
0

> <s_user_duplicate_titles>
CHEMBL258_lig234,38646

> <s_m_subgroup_title>
dock_pv

> <s_m_subgroupid>
dock_pv

> <b_m_subgroup_collapsed>
1

$$$$
CHEMBL258_lig227
                    3D
 Schrodinger Suite 2021-1.
 32 35  0  0  1  0            999 V2000
   24.3890   36.5468   83.6854 C   0  0  0  0  0  0
   23.6219   37.3742   84.5192 C   0  0  0  0  0  0
   25.7414   36.8744   83.5586 N   0  0  0  0  0  0
   24.1657   38.4405   85.1653 N   0  0  0  0  0  0
   26.3273   37.9115   84.1951 C   0  0  0  0  0  0
   25.4904   38.7109   85.0240 C   0  0  0  0  0  0
   25.3619   35.0854   82.2737 N   0  0  0  0  0  0
   26.2678   35.9472   82.6853 C   0  0  0  0  0  0
   22.2603   37.0771   84.6742 N   0  0  0  0  0  0
   24.2258   35.4210   82.8386 C   0  0  0  0  0  0
   21.2018   37.7686   85.2841 C   0  0  0  0  0  0
   27.7083   38.2213   84.0698 C   0  0  0  0  0  0
   26.0567   39.8023   85.7192 C   0  0  0  0  0  0
   20.1045   37.0212   85.7171 C   0  0  0  0  0  0
   21.1867   39.1621   85.4205 C   0  0  0  0  0  0
   28.2307   39.3038   84.7740 C   0  0  0  0  0  0
   27.4170   40.0849   85.5916 C   0  0  0  0  0  0
   19.0048   37.6546   86.2904 C   0  0  0  0  0  0
   20.0889   39.7990   85.9943 C   0  0  0  0  0  0
   19.0041   39.0411   86.4290 C   0  0  0  0  0  0
   27.3026   35.9494   82.3829 H   0  0  0  0  0  0
   22.0087   36.1639   84.3321 H   0  0  0  0  0  0
   23.3186   34.8705   82.6282 H   0  0  0  0  0  0
   28.3554   37.6229   83.4472 H   0  0  0  0  0  0
   25.4247   40.4095   86.3493 H   0  0  0  0  0  0
   20.0957   35.9448   85.6094 H   0  0  0  0  0  0
   22.0119   39.7630   85.0660 H   0  0  0  0  0  0
   29.2835   39.5384   84.6916 H   0  0  0  0  0  0
   27.8461   40.9175   86.1314 H   0  0  0  0  0  0
   18.1551   37.0762   86.6237 H   0  0  0  0  0  0
   20.0760   40.8762   86.0944 H   0  0  0  0  0  0
   18.1504   39.5326   86.8716 H   0  0  0  0  0  0
  1  2  1  0  0  0
  1  3  1  0  0  0
  1 10  2  0  0  0
  2  4  2  0  0  0
  2  9  1  0  0  0
  3  5  1  0  0  0
  3  8  1  0  0  0
  4  6  1  0  0  0
  5  6  1  0  0  0
  5 12  2  0  0  0
  6 13  2  0  0  0
  7 10  1  0  0  0
  7  8  2  0  0  0
  8 21  1  0  0  0
  9 11  1  0  0  0
  9 22  1  0  0  0
 10 23  1  0  0  0
 11 14  1  0  0  0
 11 15  2  0  0  0
 12 16  1  0  0  0
 12 24  1  0  0  0
 13 17  1  0  0  0
 13 25  1  0  0  0
 14 18  2  0  0  0
 14 26  1  0  0  0
 15 19  1  0  0  0
 15 27  1  0  0  0
 16 17  2  0  0  0
 16 28  1  0  0  0
 17 29  1  0  0  0
 18 20  1  0  0  0
 18 30  1  0  0  0
 19 20  2  0  0  0
 19 31  1  0  0  0
 20 32  1  0  0  0
M  END
> <s_m_entry_id>
4670

> <s_m_entry_name>
dock_pv.158

> <s_m_Source_Path>
/home/csk/Desktop/cluster/DUD-E-result/lck

> <s_m_Source_File>
dock_pv.maegz

> <i_m_Source_File_Index>
158

> <chembl_id>
CHEMBL29856

> <chembl_pref_name>
None

> <i_lp_mmshare_version>
53161

> <i_f3d_flags>
0

> <r_lp_tautomer_probability>
1

> <s_lp_Force_Field>
OPLS_2005

> <r_lp_Energy>
56.166046

> <b_lp_Chiralities_Consistent>
1

> <s_lp_Variant>
CHEMBL258_lig227-1

> <s_i_glide_gridfile>
glide-grid_2of2

> <i_i_glide_lignum>
255

> <i_i_glide_rotatable_bonds>
2

> <r_i_docking_score>
-7.31798142030231

> <r_i_glide_ligand_efficiency>
-0.365899071015116

> <r_i_glide_ligand_efficiency_sa>
-0.993202883267351

> <r_i_glide_ligand_efficiency_ln>
-1.83144938632071

> <r_i_glide_gscore>
-7.31798142030231

> <r_i_glide_lipo>
-2.34758105342533

> <r_i_glide_hbond>
-0.267364185141284

> <r_i_glide_metal>
0

> <r_i_glide_rewards>
-3.17194019911427

> <r_i_glide_evdw>
-31.2140312194824

> <r_i_glide_ecoul>
-3.28588795661926

> <r_i_glide_erotb>
0.522488771845579

> <r_i_glide_esite>
0

> <r_i_glide_emodel>
-49.811951104687

> <r_i_glide_energy>
-34.4999191761017

> <r_i_glide_einternal>
0.485924005508423

> <i_i_glide_confnum>
1

> <i_i_glide_posenum>
366

> <r_i_glide_eff_state_penalty>
0

> <s_user_duplicate_titles>
CHEMBL258_lig227,38647

> <s_m_subgroup_title>
dock_pv

> <s_m_subgroupid>
dock_pv

> <b_m_subgroup_collapsed>
1

$$$$
CHEMBL258_lig364
                    3D
 Schrodinger Suite 2021-1.
 34 37  0  0  1  0            999 V2000
   24.8939   36.7850   83.6687 C   0  0  0  0  0  0
   24.3862   37.7892   84.5119 C   0  0  0  0  0  0
   26.2537   36.8675   83.3493 N   0  0  0  0  0  0
   25.1903   38.7675   85.0202 N   0  0  0  0  0  0
   23.0143   37.7607   84.7999 N   0  0  0  0  0  0
   22.2040   38.8086   85.0643 C   0  0  0  0  0  0
   27.0833   37.8200   83.8340 C   0  0  0  0  0  0
   20.7352   38.4706   85.1018 C   0  0  0  0  0  0
   26.5119   38.7920   84.6999 C   0  0  0  0  0  0
   25.4246   35.0821   82.2899 N   0  0  0  0  0  0
   26.5007   35.8090   82.4998 C   0  0  0  0  0  0
   24.4412   35.6451   82.9543 C   0  0  0  0  0  0
   19.9107   38.8627   86.1760 C   0  0  0  0  0  0
   22.5774   39.9708   85.2254 O   0  0  0  0  0  0
   20.5710   39.8278   87.6875 Br  0  0  0  0  0  0
   20.1671   37.7386   84.0449 C   0  0  0  0  0  0
   28.4714   37.8638   83.5334 C   0  0  0  0  0  0
   27.3413   39.8014   85.2410 C   0  0  0  0  0  0
   18.5537   38.5363   86.1645 C   0  0  0  0  0  0
   18.8091   37.4220   84.0441 C   0  0  0  0  0  0
   29.2581   38.8730   84.0861 C   0  0  0  0  0  0
   28.7002   39.8314   84.9294 C   0  0  0  0  0  0
   18.0010   37.8254   85.1027 C   0  0  0  0  0  0
   22.5675   36.8670   84.6691 H   0  0  0  0  0  0
   27.4766   35.6099   82.0833 H   0  0  0  0  0  0
   23.4419   35.2351   82.9106 H   0  0  0  0  0  0
   20.7694   37.4210   83.2048 H   0  0  0  0  0  0
   28.9244   37.1226   82.8905 H   0  0  0  0  0  0
   26.9120   40.5435   85.8986 H   0  0  0  0  0  0
   17.9172   38.8425   86.9821 H   0  0  0  0  0  0
   18.3820   36.8635   83.2246 H   0  0  0  0  0  0
   30.3150   38.9106   83.8648 H   0  0  0  0  0  0
   29.3296   40.6022   85.3519 H   0  0  0  0  0  0
   16.9464   37.5890   85.1071 H   0  0  0  0  0  0
  1  2  1  0  0  0
  1  3  1  0  0  0
  1 12  2  0  0  0
  2  4  2  0  0  0
  2  5  1  0  0  0
  3  7  1  0  0  0
  3 11  1  0  0  0
  4  9  1  0  0  0
  5  6  1  0  0  0
  5 24  1  0  0  0
  6  8  1  0  0  0
  6 14  2  0  0  0
  7  9  1  0  0  0
  7 17  2  0  0  0
  8 13  1  0  0  0
  8 16  2  0  0  0
  9 18  2  0  0  0
 10 12  1  0  0  0
 10 11  2  0  0  0
 11 25  1  0  0  0
 12 26  1  0  0  0
 13 15  1  0  0  0
 13 19  2  0  0  0
 16 20  1  0  0  0
 16 27  1  0  0  0
 17 21  1  0  0  0
 17 28  1  0  0  0
 18 22  1  0  0  0
 18 29  1  0  0  0
 19 23  1  0  0  0
 19 30  1  0  0  0
 20 23  2  0  0  0
 20 31  1  0  0  0
 21 22  2  0  0  0
 21 32  1  0  0  0
 22 33  1  0  0  0
 23 34  1  0  0  0
M  END
> <s_m_entry_id>
4671

> <s_m_entry_name>
dock_pv.159

> <s_m_Source_Path>
/home/csk/Desktop/cluster/DUD-E-result/lck

> <s_m_Source_File>
dock_pv.maegz

> <i_m_Source_File_Index>
159

> <chembl_id>
CHEMBL282587

> <chembl_pref_name>
None

> <i_lp_mmshare_version>
53161

> <i_f3d_flags>
0

> <r_lp_tautomer_probability>
1

> <s_lp_Force_Field>
OPLS_2005

> <r_lp_Energy>
60.993291

> <b_lp_Chiralities_Consistent>
1

> <s_lp_Variant>
CHEMBL258_lig364-1

> <s_i_glide_gridfile>
glide-grid_2of2

> <i_i_glide_lignum>
404

> <i_i_glide_rotatable_bonds>
3

> <r_i_docking_score>
-7.31673175305606

> <r_i_glide_ligand_efficiency>
-0.318118771872003

> <r_i_glide_ligand_efficiency_sa>
-0.904687470052174

> <r_i_glide_ligand_efficiency_ln>
-1.76925208234445

> <r_i_glide_gscore>
-7.31673175305606

> <r_i_glide_lipo>
-2.66668685224799

> <r_i_glide_hbond>
-0.258805867010814

> <r_i_glide_metal>
0

> <r_i_glide_rewards>
-2.55901219975648

> <r_i_glide_evdw>
-37.3998794555664

> <r_i_glide_ecoul>
-2.6044397354126

> <r_i_glide_erotb>
0.428433099049436

> <r_i_glide_esite>
0

> <r_i_glide_emodel>
-58.784788011015

> <r_i_glide_energy>
-40.004319190979

> <r_i_glide_einternal>
0.0761968046426773

> <i_i_glide_confnum>
3

> <i_i_glide_posenum>
281

> <r_i_glide_eff_state_penalty>
0

> <s_user_duplicate_titles>
CHEMBL258_lig364,39691

> <s_m_subgroup_title>
dock_pv

> <s_m_subgroupid>
dock_pv

> <b_m_subgroup_collapsed>
1

$$$$
CHEMBL258_lig562
                    3D
 Schrodinger Suite 2021-1.
 51 54  0  0  1  0            999 V2000
   26.0284   37.3930   83.7039 C   0  0  0  0  0  0
   22.4234   37.0921   84.3368 C   0  0  0  0  0  0
   24.6203   37.3366   84.0407 C   0  0  0  0  0  0
   26.7167   36.6010   82.7148 C   0  0  0  0  0  0
   23.5224   36.5361   83.6871 N   0  0  0  0  0  0
   22.7267   38.0847   85.1273 N   0  0  0  0  0  0
   26.8412   38.3492   84.4127 C   0  0  0  0  0  0
   28.0530   36.6205   82.5716 N   0  0  0  0  0  0
   21.1429   36.6208   84.1456 N   0  0  0  0  0  0
   24.0675   38.2621   84.9611 C   0  0  0  0  0  0
   28.8147   37.4711   83.2869 C   0  0  0  0  0  0
   28.2562   38.3940   84.1776 C   0  0  0  0  0  0
   20.0236   36.9125   84.9433 C   0  0  0  0  0  0
   26.2189   39.2383   85.3335 C   0  0  0  0  0  0
   26.0312   35.8476   81.8186 O   0  0  0  0  0  0
   24.8570   39.2195   85.5893 C   0  0  0  0  0  0
   32.3155   35.9020   82.3318 C   0  0  0  0  0  0
   19.9134   36.3671   86.2356 C   0  0  0  0  0  0
   18.9548   37.6629   84.4227 C   0  0  0  0  0  0
   30.3255   37.3841   83.0260 C   0  0  0  0  0  0
   33.1235   36.8034   82.0983 O   0  0  0  0  0  0
   30.8068   36.1330   82.2381 C   0  0  0  0  0  0
   23.4292   35.4232   82.7405 C   0  0  0  0  0  0
   18.9488   38.2210   82.7887 Cl  0  0  0  0  0  0
   21.1366   35.3236   86.8870 Cl  0  0  0  0  0  0
   29.1134   39.4320   84.9102 C   0  0  0  0  0  0
   32.6141   34.6488   82.7278 O   0  0  0  0  0  0
   17.7496   37.4199   86.5017 C   0  0  0  0  0  0
   18.7746   36.6215   87.0022 C   0  0  0  0  0  0
   17.8350   37.9276   85.2095 C   0  0  0  0  0  0
   33.9633   34.2546   82.9298 C   0  0  0  0  0  0
   20.9724   35.8507   83.5173 H   0  0  0  0  0  0
   26.8101   39.9701   85.8629 H   0  0  0  0  0  0
   26.6631   35.5485   81.1510 H   0  0  0  0  0  0
   24.4232   39.9190   86.2896 H   0  0  0  0  0  0
   30.8376   37.4210   83.9887 H   0  0  0  0  0  0
   30.6197   38.2851   82.4867 H   0  0  0  0  0  0
   30.5479   36.2236   81.1818 H   0  0  0  0  0  0
   30.3020   35.2376   82.6098 H   0  0  0  0  0  0
   22.5107   34.8569   82.8869 H   0  0  0  0  0  0
   23.4370   35.8206   81.7270 H   0  0  0  0  0  0
   24.2495   34.7272   82.8869 H   0  0  0  0  0  0
   29.0843   39.2588   85.9867 H   0  0  0  0  0  0
   30.1582   39.4389   84.6078 H   0  0  0  0  0  0
   28.7340   40.4367   84.7184 H   0  0  0  0  0  0
   16.8752   37.6292   87.1023 H   0  0  0  0  0  0
   18.6793   36.1927   87.9887 H   0  0  0  0  0  0
   17.0174   38.5175   84.8210 H   0  0  0  0  0  0
   33.9971   33.2220   83.2749 H   0  0  0  0  0  0
   34.4456   34.8758   83.6857 H   0  0  0  0  0  0
   34.5363   34.3246   82.0047 H   0  0  0  0  0  0
  1  3  2  0  0  0
  1  4  1  0  0  0
  1  7  1  0  0  0
  2  5  1  0  0  0
  2  9  1  0  0  0
  2  6  2  0  0  0
  3  5  1  0  0  0
  3 10  1  0  0  0
  4  8  2  0  0  0
  4 15  1  0  0  0
  5 23  1  0  0  0
  6 10  1  0  0  0
  7 12  1  0  0  0
  7 14  2  0  0  0
  8 11  1  0  0  0
  9 13  1  0  0  0
  9 32  1  0  0  0
 10 16  2  0  0  0
 11 12  2  0  0  0
 11 20  1  0  0  0
 12 26  1  0  0  0
 13 18  2  0  0  0
 13 19  1  0  0  0
 14 16  1  0  0  0
 14 33  1  0  0  0
 15 34  1  0  0  0
 16 35  1  0  0  0
 17 22  1  0  0  0
 17 21  2  0  0  0
 17 27  1  0  0  0
 18 25  1  0  0  0
 18 29  1  0  0  0
 19 24  1  0  0  0
 19 30  2  0  0  0
 20 22  1  0  0  0
 20 36  1  0  0  0
 20 37  1  0  0  0
 22 38  1  0  0  0
 22 39  1  0  0  0
 23 40  1  0  0  0
 23 41  1  0  0  0
 23 42  1  0  0  0
 26 43  1  0  0  0
 26 44  1  0  0  0
 26 45  1  0  0  0
 27 31  1  0  0  0
 28 30  1  0  0  0
 28 29  2  0  0  0
 28 46  1  0  0  0
 29 47  1  0  0  0
 30 48  1  0  0  0
 31 49  1  0  0  0
 31 50  1  0  0  0
 31 51  1  0  0  0
M  END
> <s_m_entry_id>
4672

> <s_m_entry_name>
dock_pv.160

> <s_m_Source_Path>
/home/csk/Desktop/cluster/DUD-E-result/lck

> <s_m_Source_File>
dock_pv.maegz

> <i_m_Source_File_Index>
160

> <chembl_id>
CHEMBL284677

> <chembl_pref_name>
None

> <i_lp_mmshare_version>
53161

> <i_f3d_flags>
0

> <r_lp_tautomer_probability>
1

> <s_lp_Force_Field>
OPLS_2005

> <r_lp_Energy>
27.132428

> <b_lp_Chiralities_Consistent>
1

> <s_lp_Variant>
CHEMBL258_lig562-1

> <s_i_glide_gridfile>
glide-grid_2of2

> <i_i_glide_lignum>
635

> <i_i_glide_rotatable_bonds>
7

> <r_i_docking_score>
-7.31485178942223

> <r_i_glide_ligand_efficiency>
-0.235962960949104

> <r_i_glide_ligand_efficiency_sa>
-0.741249479358021

> <r_i_glide_ligand_efficiency_ln>
-1.64972325179986

> <r_i_glide_gscore>
-7.31485178942223

> <r_i_glide_lipo>
-3.56841932717799

> <r_i_glide_hbond>
-0.373675959489051

> <r_i_glide_metal>
0

> <r_i_glide_rewards>
-0.84524049986737

> <r_i_glide_evdw>
-44.6467666625977

> <r_i_glide_ecoul>
-5.14663648605347

> <r_i_glide_erotb>
0.476817803150089

> <r_i_glide_esite>
0

> <r_i_glide_emodel>
-68.2741574426302

> <r_i_glide_energy>
-49.7934031486511

> <r_i_glide_einternal>
5.24945402145386

> <i_i_glide_confnum>
26

> <i_i_glide_posenum>
376

> <r_i_glide_eff_state_penalty>
0

> <s_user_duplicate_titles>
CHEMBL258_lig562,36780

> <s_m_subgroup_title>
dock_pv

> <s_m_subgroupid>
dock_pv

> <b_m_subgroup_collapsed>
1

$$$$
CHEMBL258_lig357
                    3D
 Schrodinger Suite 2021-1.
 31 34  0  0  1  0            999 V2000
   24.4346   36.5310   83.6051 C   0  0  0  0  0  0
   23.6979   37.3364   84.4880 C   0  0  0  0  0  0
   25.7753   36.8780   83.4162 N   0  0  0  0  0  0
   24.2580   38.4018   85.1196 N   0  0  0  0  0  0
   26.3766   37.9164   84.0364 C   0  0  0  0  0  0
   25.5709   38.6937   84.9127 C   0  0  0  0  0  0
   25.3550   35.1081   82.1198 N   0  0  0  0  0  0
   26.2714   35.9699   82.5049 C   0  0  0  0  0  0
   22.3486   37.0190   84.6994 N   0  0  0  0  0  0
   24.2421   35.4210   82.7443 C   0  0  0  0  0  0
   19.0316   37.6133   86.1838 N   0  0  0  0  0  0
   21.2809   37.7277   85.2753 C   0  0  0  0  0  0
   27.7460   38.2460   83.8456 C   0  0  0  0  0  0
   26.1541   39.7911   85.5863 C   0  0  0  0  0  0
   20.1365   37.0208   85.6614 C   0  0  0  0  0  0
   19.0465   38.9630   86.3260 C   0  0  0  0  0  0
   21.2683   39.1214   85.4338 C   0  0  0  0  0  0
   28.2861   39.3343   84.5283 C   0  0  0  0  0  0
   20.1404   39.7513   85.9659 C   0  0  0  0  0  0
   27.5005   40.0977   85.3895 C   0  0  0  0  0  0
   27.2926   35.9886   82.1551 H   0  0  0  0  0  0
   22.0792   36.1424   84.2819 H   0  0  0  0  0  0
   23.3332   34.8629   82.5655 H   0  0  0  0  0  0
   28.3715   37.6620   83.1863 H   0  0  0  0  0  0
   25.5451   40.3837   86.2531 H   0  0  0  0  0  0
   20.0846   35.9465   85.5517 H   0  0  0  0  0  0
   18.1501   39.4140   86.7284 H   0  0  0  0  0  0
   22.1092   39.7256   85.1293 H   0  0  0  0  0  0
   29.3277   39.5888   84.3938 H   0  0  0  0  0  0
   20.1115   40.8255   86.0844 H   0  0  0  0  0  0
   27.9415   40.9358   85.9097 H   0  0  0  0  0  0
  1  2  1  0  0  0
  1  3  1  0  0  0
  1 10  2  0  0  0
  2  4  2  0  0  0
  2  9  1  0  0  0
  3  5  1  0  0  0
  3  8  1  0  0  0
  4  6  1  0  0  0
  5  6  1  0  0  0
  5 13  2  0  0  0
  6 14  2  0  0  0
  7 10  1  0  0  0
  7  8  2  0  0  0
  8 21  1  0  0  0
  9 12  1  0  0  0
  9 22  1  0  0  0
 10 23  1  0  0  0
 11 15  2  0  0  0
 11 16  1  0  0  0
 12 15  1  0  0  0
 12 17  2  0  0  0
 13 18  1  0  0  0
 13 24  1  0  0  0
 14 20  1  0  0  0
 14 25  1  0  0  0
 15 26  1  0  0  0
 16 19  2  0  0  0
 16 27  1  0  0  0
 17 19  1  0  0  0
 17 28  1  0  0  0
 18 20  2  0  0  0
 18 29  1  0  0  0
 19 30  1  0  0  0
 20 31  1  0  0  0
M  END
> <s_m_entry_id>
4673

> <s_m_entry_name>
dock_pv.161

> <s_m_Source_Path>
/home/csk/Desktop/cluster/DUD-E-result/lck

> <s_m_Source_File>
dock_pv.maegz

> <i_m_Source_File_Index>
161

> <chembl_id>
CHEMBL29531

> <chembl_pref_name>
None

> <i_lp_mmshare_version>
53161

> <i_f3d_flags>
0

> <r_lp_tautomer_probability>
0.999999999999999

> <s_lp_Force_Field>
OPLS_2005

> <r_lp_Energy>
54.695665

> <b_lp_Chiralities_Consistent>
1

> <s_lp_Variant>
CHEMBL258_lig357-1

> <s_i_glide_gridfile>
glide-grid_2of2

> <i_i_glide_lignum>
397

> <i_i_glide_rotatable_bonds>
2

> <r_i_docking_score>
-7.31370475489122

> <r_i_glide_ligand_efficiency>
-0.365685237744561

> <r_i_glide_ligand_efficiency_sa>
-0.992622450471323

> <r_i_glide_ligand_efficiency_ln>
-1.83037907802218

> <r_i_glide_gscore>
-7.31370475489122

> <r_i_glide_lipo>
-2.17810221352828

> <r_i_glide_hbond>
-0.32

> <r_i_glide_metal>
0

> <r_i_glide_rewards>
-3.18219588210605

> <r_i_glide_evdw>
-31.6157512664795

> <r_i_glide_ecoul>
-3.8113899230957

> <r_i_glide_erotb>
0.519089392531439

> <r_i_glide_esite>
0

> <r_i_glide_emodel>
-51.7202903495121

> <r_i_glide_energy>
-35.4271411895752

> <r_i_glide_einternal>
0.655229687690735

> <i_i_glide_confnum>
6

> <i_i_glide_posenum>
317

> <r_i_glide_eff_state_penalty>
0

> <s_user_duplicate_titles>
CHEMBL258_lig357,39077

> <s_m_subgroup_title>
dock_pv

> <s_m_subgroupid>
dock_pv

> <b_m_subgroup_collapsed>
1

$$$$
CHEMBL258_lig793
                    3D
 Schrodinger Suite 2021-1.
 41 43  0  0  1  0            999 V2000
   23.5873   36.6310   84.0956 C   0  0  0  0  0  0
   25.7055   36.1208   82.9703 C   0  0  0  0  0  0
   25.2295   37.1990   84.2607 S   0  0  0  0  0  0
   22.5134   37.1807   84.8855 C   0  0  0  0  0  0
   21.4367   36.3752   84.9794 N   0  0  0  0  0  0
   28.2027   36.6209   82.8082 C   0  0  0  0  0  0
   24.7135   35.4232   82.4756 N   0  0  0  0  0  0
   26.9924   35.9816   82.4871 N   0  0  0  0  0  0
   28.2509   37.6621   83.6860 N   0  0  0  0  0  0
   23.5574   35.7106   83.0442 C   0  0  0  0  0  0
   20.2078   36.7067   85.5785 C   0  0  0  0  0  0
   29.4667   38.2324   83.8892 C   0  0  0  0  0  0
   30.6330   37.8659   83.3004 N   0  0  0  0  0  0
   29.3542   36.1633   82.1578 C   0  0  0  0  0  0
   30.5567   36.8177   82.4401 C   0  0  0  0  0  0
   22.5962   38.2957   85.4032 O   0  0  0  0  0  0
   19.7721   35.9392   86.6720 C   0  0  0  0  0  0
   19.3821   37.7394   85.0821 C   0  0  0  0  0  0
   20.7152   34.6212   87.2858 Cl  0  0  0  0  0  0
   29.5373   39.3735   84.8844 C   0  0  0  0  0  0
   17.7494   37.2541   86.8102 C   0  0  0  0  0  0
   18.5510   36.2216   87.2869 C   0  0  0  0  0  0
   18.1575   37.9976   85.7057 C   0  0  0  0  0  0
   31.8544   36.3956   81.7806 C   0  0  0  0  0  0
   19.7361   38.5432   83.8379 C   0  0  0  0  0  0
   21.5035   35.4345   84.6228 H   0  0  0  0  0  0
   27.1493   35.3081   81.7513 H   0  0  0  0  0  0
   22.6724   35.2131   82.6716 H   0  0  0  0  0  0
   29.3238   35.3405   81.4568 H   0  0  0  0  0  0
   30.2372   39.1310   85.6851 H   0  0  0  0  0  0
   29.8892   40.2816   84.3944 H   0  0  0  0  0  0
   28.5672   39.5826   85.3384 H   0  0  0  0  0  0
   16.8011   37.4707   87.2806 H   0  0  0  0  0  0
   18.2196   35.6284   88.1266 H   0  0  0  0  0  0
   17.5084   38.7760   85.3295 H   0  0  0  0  0  0
   31.7528   35.4274   81.2879 H   0  0  0  0  0  0
   32.1528   37.1295   81.0307 H   0  0  0  0  0  0
   32.6527   36.3112   82.5193 H   0  0  0  0  0  0
   20.2309   37.9160   83.0958 H   0  0  0  0  0  0
   18.8432   38.9389   83.3532 H   0  0  0  0  0  0
   20.3991   39.3711   84.0911 H   0  0  0  0  0  0
  1  3  1  0  0  0
  1  4  1  0  0  0
  1 10  2  0  0  0
  2  3  1  0  0  0
  2  8  1  0  0  0
  2  7  2  0  0  0
  4  5  1  0  0  0
  4 16  2  0  0  0
  5 11  1  0  0  0
  5 26  1  0  0  0
  6  8  1  0  0  0
  6  9  2  0  0  0
  6 14  1  0  0  0
  7 10  1  0  0  0
  8 27  1  0  0  0
  9 12  1  0  0  0
 10 28  1  0  0  0
 11 17  1  0  0  0
 11 18  2  0  0  0
 12 20  1  0  0  0
 12 13  2  0  0  0
 13 15  1  0  0  0
 14 15  2  0  0  0
 14 29  1  0  0  0
 15 24  1  0  0  0
 17 19  1  0  0  0
 17 22  2  0  0  0
 18 23  1  0  0  0
 18 25  1  0  0  0
 20 30  1  0  0  0
 20 31  1  0  0  0
 20 32  1  0  0  0
 21 23  2  0  0  0
 21 22  1  0  0  0
 21 33  1  0  0  0
 22 34  1  0  0  0
 23 35  1  0  0  0
 24 36  1  0  0  0
 24 37  1  0  0  0
 24 38  1  0  0  0
 25 39  1  0  0  0
 25 40  1  0  0  0
 25 41  1  0  0  0
M  END
> <s_m_entry_id>
4674

> <s_m_entry_name>
dock_pv.162

> <s_m_Source_Path>
/home/csk/Desktop/cluster/DUD-E-result/lck

> <s_m_Source_File>
dock_pv.maegz

> <i_m_Source_File_Index>
162

> <chembl_id>
CHEMBL364623

> <chembl_pref_name>
None

> <i_lp_mmshare_version>
53161

> <i_f3d_flags>
0

> <r_lp_tautomer_probability>
0.999999583200174

> <s_lp_Force_Field>
OPLS_2005

> <r_lp_Energy>
13.071627

> <b_lp_Chiralities_Consistent>
1

> <s_lp_Variant>
CHEMBL258_lig793-1

> <s_i_glide_gridfile>
glide-grid_2of2

> <i_i_glide_lignum>
878

> <i_i_glide_rotatable_bonds>
5

> <r_i_docking_score>
-7.31100642872793

> <r_i_glide_ligand_efficiency>
-0.292440257149117

> <r_i_glide_ligand_efficiency_sa>
-0.855100498354063

> <r_i_glide_ligand_efficiency_ln>
-1.73292761679145

> <r_i_glide_gscore>
-7.31100642872793

> <r_i_glide_lipo>
-2.77001942758235

> <r_i_glide_hbond>
-0.225824766791925

> <r_i_glide_metal>
0

> <r_i_glide_rewards>
-2.22601551627165

> <r_i_glide_evdw>
-42.7244720458984

> <r_i_glide_ecoul>
-4.29598140716553

> <r_i_glide_erotb>
0.691474095287753

> <r_i_glide_esite>
0

> <r_i_glide_emodel>
-64.686373353675

> <r_i_glide_energy>
-47.020453453064

> <r_i_glide_einternal>
5.03158855438232

> <i_i_glide_confnum>
20

> <i_i_glide_posenum>
293

> <r_i_glide_eff_state_penalty>
0

> <s_user_duplicate_titles>
CHEMBL258_lig793,312479

> <s_m_subgroup_title>
dock_pv

> <s_m_subgroupid>
dock_pv

> <b_m_subgroup_collapsed>
1

$$$$
CHEMBL258_lig196
                    3D
 Schrodinger Suite 2021-1.
 32 35  0  0  1  0            999 V2000
   24.1890   36.5682   83.6872 C   0  0  0  0  0  0
   23.4793   37.4367   84.5332 C   0  0  0  0  0  0
   25.5394   36.8654   83.4784 N   0  0  0  0  0  0
   24.0635   38.5391   85.0693 N   0  0  0  0  0  0
   22.1241   37.1678   84.7850 N   0  0  0  0  0  0
   21.1025   37.9250   85.3984 C   0  0  0  0  0  0
   26.1699   37.9248   84.0315 C   0  0  0  0  0  0
   25.3840   38.7824   84.8502 C   0  0  0  0  0  0
   25.0734   35.0322   82.2935 N   0  0  0  0  0  0
   26.0148   35.8856   82.6319 C   0  0  0  0  0  0
   23.9643   35.4216   82.8867 C   0  0  0  0  0  0
   19.8336   37.9189   84.7977 C   0  0  0  0  0  0
   21.2755   38.6575   86.5892 C   0  0  0  0  0  0
   22.4324   38.6220   87.2860 F   0  0  0  0  0  0
   19.5985   37.1818   83.6868 F   0  0  0  0  0  0
   27.5454   38.2077   83.8180 C   0  0  0  0  0  0
   25.9960   39.9068   85.4491 C   0  0  0  0  0  0
   18.9775   39.4217   86.4846 C   0  0  0  0  0  0
   18.7816   38.6585   85.3380 C   0  0  0  0  0  0
   20.2254   39.4212   87.1067 C   0  0  0  0  0  0
   28.1154   39.3230   84.4285 C   0  0  0  0  0  0
   27.3516   40.1621   85.2360 C   0  0  0  0  0  0
   21.7938   36.3243   84.3413 H   0  0  0  0  0  0
   27.0398   35.8522   82.2916 H   0  0  0  0  0  0
   23.0388   34.8803   82.7384 H   0  0  0  0  0  0
   28.1546   37.5679   83.1969 H   0  0  0  0  0  0
   25.4032   40.5587   86.0749 H   0  0  0  0  0  0
   18.1518   39.9918   86.8893 H   0  0  0  0  0  0
   17.8082   38.6416   84.8700 H   0  0  0  0  0  0
   20.3770   39.9969   88.0057 H   0  0  0  0  0  0
   29.1632   39.5395   84.2774 H   0  0  0  0  0  0
   27.8125   41.0211   85.7025 H   0  0  0  0  0  0
  1  2  1  0  0  0
  1  3  1  0  0  0
  1 11  2  0  0  0
  2  4  2  0  0  0
  2  5  1  0  0  0
  3  7  1  0  0  0
  3 10  1  0  0  0
  4  8  1  0  0  0
  5  6  1  0  0  0
  5 23  1  0  0  0
  6 12  1  0  0  0
  6 13  2  0  0  0
  7  8  1  0  0  0
  7 16  2  0  0  0
  8 17  2  0  0  0
  9 11  1  0  0  0
  9 10  2  0  0  0
 10 24  1  0  0  0
 11 25  1  0  0  0
 12 15  1  0  0  0
 12 19  2  0  0  0
 13 14  1  0  0  0
 13 20  1  0  0  0
 16 21  1  0  0  0
 16 26  1  0  0  0
 17 22  1  0  0  0
 17 27  1  0  0  0
 18 20  2  0  0  0
 18 19  1  0  0  0
 18 28  1  0  0  0
 19 29  1  0  0  0
 20 30  1  0  0  0
 21 22  2  0  0  0
 21 31  1  0  0  0
 22 32  1  0  0  0
M  END
> <s_m_entry_id>
4675

> <s_m_entry_name>
dock_pv.163

> <s_m_Source_Path>
/home/csk/Desktop/cluster/DUD-E-result/lck

> <s_m_Source_File>
dock_pv.maegz

> <i_m_Source_File_Index>
163

> <chembl_id>
CHEMBL281218

> <chembl_pref_name>
None

> <i_lp_mmshare_version>
53161

> <i_f3d_flags>
0

> <r_lp_tautomer_probability>
1

> <s_lp_Force_Field>
OPLS_2005

> <r_lp_Energy>
58.474292

> <b_lp_Chiralities_Consistent>
1

> <s_lp_Variant>
CHEMBL258_lig196-1

> <s_i_glide_gridfile>
glide-grid_2of2

> <i_i_glide_lignum>
224

> <i_i_glide_rotatable_bonds>
2

> <r_i_docking_score>
-7.3099875969135

> <r_i_glide_ligand_efficiency>
-0.332272163496068

> <r_i_glide_ligand_efficiency_sa>
-0.931039669638645

> <r_i_glide_ligand_efficiency_ln>
-1.78682760696183

> <r_i_glide_gscore>
-7.3099875969135

> <r_i_glide_lipo>
-2.29306518534785

> <r_i_glide_hbond>
-0.254958862840316

> <r_i_glide_metal>
0

> <r_i_glide_rewards>
-3.27546576941316

> <r_i_glide_evdw>
-31.1978816986084

> <r_i_glide_ecoul>
-2.29306316375732

> <r_i_glide_erotb>
0.417355780181847

> <r_i_glide_esite>
0

> <r_i_glide_emodel>
-48.445361411447

> <r_i_glide_energy>
-33.4909448623657

> <r_i_glide_einternal>
0.768513202667236

> <i_i_glide_confnum>
1

> <i_i_glide_posenum>
167

> <r_i_glide_eff_state_penalty>
0

> <s_user_duplicate_titles>
CHEMBL258_lig196,39351

> <s_m_subgroup_title>
dock_pv

> <s_m_subgroupid>
dock_pv

> <b_m_subgroup_collapsed>
1

$$$$
CHEMBL258_lig286
                    3D
 Schrodinger Suite 2021-1.
 36 38  0  0  1  0            999 V2000
   25.3604   37.1633   83.8581 C   0  0  0  0  0  0
   23.9675   37.1418   84.1925 C   0  0  0  0  0  0
   25.7818   36.2129   82.8798 C   0  0  0  0  0  0
   26.3276   38.0489   84.4042 C   0  0  0  0  0  0
   23.1119   36.2483   83.6367 N   0  0  0  0  0  0
   27.1355   36.1614   82.4892 C   0  0  0  0  0  0
   23.4325   38.1107   85.0660 N   0  0  0  0  0  0
   27.6729   37.9756   84.0107 C   0  0  0  0  0  0
   28.0799   37.0211   83.0682 C   0  0  0  0  0  0
   24.9118   35.3455   82.2995 N   0  0  0  0  0  0
   23.6241   35.4210   82.7032 C   0  0  0  0  0  0
   22.1190   38.4399   85.4484 C   0  0  0  0  0  0
   21.0648   37.5148   85.4887 C   0  0  0  0  0  0
   19.7861   37.9203   85.8739 C   0  0  0  0  0  0
   28.6582   38.8082   84.5147 O   0  0  0  0  0  0
   29.4315   36.9750   82.7650 O   0  0  0  0  0  0
   18.7765   37.0215   85.9120 F   0  0  0  0  0  0
   20.5888   40.1726   86.2048 C   0  0  0  0  0  0
   21.8704   39.7657   85.8281 C   0  0  0  0  0  0
   19.5432   39.2493   86.2234 C   0  0  0  0  0  0
   28.3402   39.7479   85.5362 C   0  0  0  0  0  0
   29.9236   35.9708   81.8807 C   0  0  0  0  0  0
   26.0095   38.7739   85.1389 H   0  0  0  0  0  0
   27.4209   35.4270   81.7509 H   0  0  0  0  0  0
   24.1059   38.8126   85.3276 H   0  0  0  0  0  0
   22.9492   34.7080   82.2524 H   0  0  0  0  0  0
   21.2189   36.4753   85.2334 H   0  0  0  0  0  0
   20.4035   41.2034   86.4777 H   0  0  0  0  0  0
   22.6679   40.4973   85.8156 H   0  0  0  0  0  0
   18.5458   39.5571   86.5077 H   0  0  0  0  0  0
   29.2466   40.2774   85.8286 H   0  0  0  0  0  0
   27.9495   39.2548   86.4278 H   0  0  0  0  0  0
   27.6213   40.4899   85.1891 H   0  0  0  0  0  0
   31.0029   36.0786   81.7760 H   0  0  0  0  0  0
   29.7282   34.9669   82.2627 H   0  0  0  0  0  0
   29.4901   36.0692   80.8862 H   0  0  0  0  0  0
  1  2  1  0  0  0
  1  3  1  0  0  0
  1  4  2  0  0  0
  2  5  2  0  0  0
  2  7  1  0  0  0
  3  6  2  0  0  0
  3 10  1  0  0  0
  4  8  1  0  0  0
  4 23  1  0  0  0
  5 11  1  0  0  0
  6  9  1  0  0  0
  6 24  1  0  0  0
  7 12  1  0  0  0
  7 25  1  0  0  0
  8  9  2  0  0  0
  8 15  1  0  0  0
  9 16  1  0  0  0
 10 11  2  0  0  0
 11 26  1  0  0  0
 12 13  2  0  0  0
 12 19  1  0  0  0
 13 14  1  0  0  0
 13 27  1  0  0  0
 14 17  1  0  0  0
 14 20  2  0  0  0
 15 21  1  0  0  0
 16 22  1  0  0  0
 18 19  2  0  0  0
 18 20  1  0  0  0
 18 28  1  0  0  0
 19 29  1  0  0  0
 20 30  1  0  0  0
 21 31  1  0  0  0
 21 32  1  0  0  0
 21 33  1  0  0  0
 22 34  1  0  0  0
 22 35  1  0  0  0
 22 36  1  0  0  0
M  END
> <s_m_entry_id>
4676

> <s_m_entry_name>
dock_pv.164

> <s_m_Source_Path>
/home/csk/Desktop/cluster/DUD-E-result/lck

> <s_m_Source_File>
dock_pv.maegz

> <i_m_Source_File_Index>
164

> <chembl_id>
CHEMBL541586

> <chembl_pref_name>
None

> <i_lp_mmshare_version>
53161

> <i_f3d_flags>
0

> <r_lp_tautomer_probability>
0.999978000241998

> <s_lp_Force_Field>
OPLS_2005

> <r_lp_Energy>
20.922354

> <b_lp_Chiralities_Consistent>
1

> <s_lp_Variant>
CHEMBL258_lig286-1

> <s_i_glide_gridfile>
glide-grid_2of2

> <i_i_glide_lignum>
318

> <i_i_glide_rotatable_bonds>
4

> <r_i_docking_score>
-7.30961290173168

> <r_i_glide_ligand_efficiency>
-0.332255131896895

> <r_i_glide_ligand_efficiency_sa>
-0.930991946427947

> <r_i_glide_ligand_efficiency_ln>
-1.78673601779206

> <r_i_glide_gscore>
-7.30961290173168

> <r_i_glide_lipo>
-2.50087477243563

> <r_i_glide_hbond>
-0.0812593859243719

> <r_i_glide_metal>
0

> <r_i_glide_rewards>
-2.844297091085

> <r_i_glide_evdw>
-32.3654899597168

> <r_i_glide_ecoul>
-4.49942541122437

> <r_i_glide_erotb>
0.410006657382818

> <r_i_glide_esite>
0

> <r_i_glide_emodel>
-53.0855827530592

> <r_i_glide_energy>
-36.8649153709412

> <r_i_glide_einternal>
0.474823832511902

> <i_i_glide_confnum>
1

> <i_i_glide_posenum>
7

> <r_i_glide_eff_state_penalty>
0

> <s_user_duplicate_titles>
CHEMBL258_lig286

> <s_m_subgroup_title>
dock_pv

> <s_m_subgroupid>
dock_pv

> <b_m_subgroup_collapsed>
1

$$$$
CHEMBL258_lig287
                    3D
 Schrodinger Suite 2021-1.
 36 38  0  0  1  0            999 V2000
   25.2729   37.1149   83.8250 C   0  0  0  0  0  0
   23.8622   37.0698   84.0865 C   0  0  0  0  0  0
   25.7504   36.2155   82.8227 C   0  0  0  0  0  0
   26.2021   37.9937   84.4486 C   0  0  0  0  0  0
   23.0465   36.2203   83.4175 N   0  0  0  0  0  0
   27.1193   36.2063   82.4871 C   0  0  0  0  0  0
   23.2737   37.9753   84.9952 N   0  0  0  0  0  0
   27.5627   37.9656   84.0996 C   0  0  0  0  0  0
   28.0244   37.0556   83.1377 C   0  0  0  0  0  0
   24.9215   35.3636   82.1579 N   0  0  0  0  0  0
   23.6114   35.4208   82.4878 C   0  0  0  0  0  0
   21.9474   38.3723   85.2728 C   0  0  0  0  0  0
   20.7980   37.7265   84.7893 C   0  0  0  0  0  0
   19.5233   38.2281   85.0752 C   0  0  0  0  0  0
   28.5120   38.7971   84.6729 O   0  0  0  0  0  0
   29.3861   37.0365   82.8866 O   0  0  0  0  0  0
   18.1243   37.4472   84.4301 Cl  0  0  0  0  0  0
   20.5139   40.0115   86.3581 C   0  0  0  0  0  0
   21.7847   39.5149   86.0634 C   0  0  0  0  0  0
   19.3812   39.3687   85.8624 C   0  0  0  0  0  0
   28.1357   39.6968   85.7093 C   0  0  0  0  0  0
   29.9247   36.0802   81.9769 C   0  0  0  0  0  0
   25.8424   38.6865   85.1929 H   0  0  0  0  0  0
   27.4491   35.5062   81.7324 H   0  0  0  0  0  0
   23.9544   38.5592   85.4544 H   0  0  0  0  0  0
   22.9508   34.7443   81.9708 H   0  0  0  0  0  0
   20.8587   36.8381   84.1838 H   0  0  0  0  0  0
   20.4061   40.9071   86.9557 H   0  0  0  0  0  0
   22.6471   40.0449   86.4435 H   0  0  0  0  0  0
   18.3933   39.7520   86.0868 H   0  0  0  0  0  0
   29.0202   40.2362   86.0486 H   0  0  0  0  0  0
   27.7233   39.1715   86.5714 H   0  0  0  0  0  0
   27.4151   40.4354   85.3577 H   0  0  0  0  0  0
   31.0059   36.1942   81.9310 H   0  0  0  0  0  0
   29.7178   35.0571   82.2977 H   0  0  0  0  0  0
   29.5375   36.2198   80.9662 H   0  0  0  0  0  0
  1  2  1  0  0  0
  1  3  1  0  0  0
  1  4  2  0  0  0
  2  5  2  0  0  0
  2  7  1  0  0  0
  3  6  2  0  0  0
  3 10  1  0  0  0
  4  8  1  0  0  0
  4 23  1  0  0  0
  5 11  1  0  0  0
  6  9  1  0  0  0
  6 24  1  0  0  0
  7 12  1  0  0  0
  7 25  1  0  0  0
  8  9  2  0  0  0
  8 15  1  0  0  0
  9 16  1  0  0  0
 10 11  2  0  0  0
 11 26  1  0  0  0
 12 13  2  0  0  0
 12 19  1  0  0  0
 13 14  1  0  0  0
 13 27  1  0  0  0
 14 17  1  0  0  0
 14 20  2  0  0  0
 15 21  1  0  0  0
 16 22  1  0  0  0
 18 19  2  0  0  0
 18 20  1  0  0  0
 18 28  1  0  0  0
 19 29  1  0  0  0
 20 30  1  0  0  0
 21 31  1  0  0  0
 21 32  1  0  0  0
 21 33  1  0  0  0
 22 34  1  0  0  0
 22 35  1  0  0  0
 22 36  1  0  0  0
M  END
> <s_m_entry_id>
4677

> <s_m_entry_name>
dock_pv.165

> <s_m_Source_Path>
/home/csk/Desktop/cluster/DUD-E-result/lck

> <s_m_Source_File>
dock_pv.maegz

> <i_m_Source_File_Index>
165

> <chembl_id>
CHEMBL540068

> <chembl_pref_name>
None

> <i_lp_mmshare_version>
53161

> <i_f3d_flags>
0

> <r_lp_tautomer_probability>
0.999978000241998

> <s_lp_Force_Field>
OPLS_2005

> <r_lp_Energy>
20.230905

> <b_lp_Chiralities_Consistent>
1

> <s_lp_Variant>
CHEMBL258_lig287-1

> <s_i_glide_gridfile>
glide-grid_2of2

> <i_i_glide_lignum>
319

> <i_i_glide_rotatable_bonds>
4

> <r_i_docking_score>
-7.30861110936269

> <r_i_glide_ligand_efficiency>
-0.332209595880122

> <r_i_glide_ligand_efficiency_sa>
-0.930864352718121

> <r_i_glide_ligand_efficiency_ln>
-1.78649114319581

> <r_i_glide_gscore>
-7.30861110936269

> <r_i_glide_lipo>
-2.93791016936153

> <r_i_glide_hbond>
-0.150414410010811

> <r_i_glide_metal>
0

> <r_i_glide_rewards>
-2.22617302476815

> <r_i_glide_evdw>
-33.4888038635254

> <r_i_glide_ecoul>
-4.61955213546753

> <r_i_glide_erotb>
0.373259508274203

> <r_i_glide_esite>
0

> <r_i_glide_emodel>
-54.2453156935035

> <r_i_glide_energy>
-38.1083559989929

> <r_i_glide_einternal>
1.76136004924774

> <i_i_glide_confnum>
4

> <i_i_glide_posenum>
114

> <r_i_glide_eff_state_penalty>
0

> <s_user_duplicate_titles>
CHEMBL258_lig287

> <s_m_subgroup_title>
dock_pv

> <s_m_subgroupid>
dock_pv

> <b_m_subgroup_collapsed>
1

$$$$
CHEMBL258_lig794
                    3D
 Schrodinger Suite 2021-1.
 42 44  0  0  1  0            999 V2000
   23.5772   36.6212   84.0882 C   0  0  0  0  0  0
   25.6980   36.1134   82.9671 C   0  0  0  0  0  0
   25.2207   37.1791   84.2681 S   0  0  0  0  0  0
   22.5015   37.1657   84.8778 C   0  0  0  0  0  0
   21.4254   36.3584   84.9659 N   0  0  0  0  0  0
   24.7068   35.4211   82.4636 N   0  0  0  0  0  0
   26.9858   35.9762   82.4870 N   0  0  0  0  0  0
   28.1919   36.6209   82.8132 C   0  0  0  0  0  0
   23.5490   35.7092   83.0286 C   0  0  0  0  0  0
   20.1977   36.6908   85.5657 C   0  0  0  0  0  0
   28.2112   37.7183   83.6178 N   0  0  0  0  0  0
   22.5816   38.2783   85.4013 O   0  0  0  0  0  0
   19.7658   35.9314   86.6660 C   0  0  0  0  0  0
   29.3974   38.3357   83.8477 C   0  0  0  0  0  0
   19.3746   37.7268   85.0705 C   0  0  0  0  0  0
   29.3602   36.1149   82.2345 C   0  0  0  0  0  0
   30.5779   36.7562   82.4799 C   0  0  0  0  0  0
   30.5982   37.8934   83.2901 C   0  0  0  0  0  0
   20.7141   34.6214   87.2865 Cl  0  0  0  0  0  0
   17.7492   37.2537   86.8089 C   0  0  0  0  0  0
   18.5501   36.2212   87.2869 C   0  0  0  0  0  0
   18.1551   37.9917   85.7000 C   0  0  0  0  0  0
   19.7287   38.5346   83.8287 C   0  0  0  0  0  0
   29.3441   39.5463   84.7582 C   0  0  0  0  0  0
   31.8554   36.2412   81.8456 C   0  0  0  0  0  0
   21.4911   35.4189   84.6048 H   0  0  0  0  0  0
   27.1583   35.2501   81.8072 H   0  0  0  0  0  0
   22.6629   35.2194   82.6479 H   0  0  0  0  0  0
   29.3300   35.2459   81.5914 H   0  0  0  0  0  0
   31.5247   38.4106   83.4917 H   0  0  0  0  0  0
   16.8044   37.4771   87.2838 H   0  0  0  0  0  0
   18.2215   35.6343   88.1320 H   0  0  0  0  0  0
   17.5079   38.7733   85.3266 H   0  0  0  0  0  0
   20.2459   37.9212   83.0910 H   0  0  0  0  0  0
   18.8339   38.9113   83.3332 H   0  0  0  0  0  0
   20.3692   39.3768   84.0912 H   0  0  0  0  0  0
   30.3395   39.9430   84.9594 H   0  0  0  0  0  0
   28.7489   40.3383   84.3024 H   0  0  0  0  0  0
   28.8902   39.2865   85.7154 H   0  0  0  0  0  0
   32.5468   37.0590   81.6383 H   0  0  0  0  0  0
   32.3470   35.5221   82.5022 H   0  0  0  0  0  0
   31.6483   35.7584   80.8898 H   0  0  0  0  0  0
  1  3  1  0  0  0
  1  4  1  0  0  0
  1  9  2  0  0  0
  2  3  1  0  0  0
  2  7  1  0  0  0
  2  6  2  0  0  0
  4  5  1  0  0  0
  4 12  2  0  0  0
  5 10  1  0  0  0
  5 26  1  0  0  0
  6  9  1  0  0  0
  7  8  1  0  0  0
  7 27  1  0  0  0
  8 11  2  0  0  0
  8 16  1  0  0  0
  9 28  1  0  0  0
 10 13  1  0  0  0
 10 15  2  0  0  0
 11 14  1  0  0  0
 13 19  1  0  0  0
 13 21  2  0  0  0
 14 24  1  0  0  0
 14 18  2  0  0  0
 15 22  1  0  0  0
 15 23  1  0  0  0
 16 17  2  0  0  0
 16 29  1  0  0  0
 17 18  1  0  0  0
 17 25  1  0  0  0
 18 30  1  0  0  0
 20 22  2  0  0  0
 20 21  1  0  0  0
 20 31  1  0  0  0
 21 32  1  0  0  0
 22 33  1  0  0  0
 23 34  1  0  0  0
 23 35  1  0  0  0
 23 36  1  0  0  0
 24 37  1  0  0  0
 24 38  1  0  0  0
 24 39  1  0  0  0
 25 40  1  0  0  0
 25 41  1  0  0  0
 25 42  1  0  0  0
M  END
> <s_m_entry_id>
4678

> <s_m_entry_name>
dock_pv.166

> <s_m_Source_Path>
/home/csk/Desktop/cluster/DUD-E-result/lck

> <s_m_Source_File>
dock_pv.maegz

> <i_m_Source_File_Index>
166

> <chembl_id>
CHEMBL188478

> <chembl_pref_name>
None

> <i_lp_mmshare_version>
53161

> <i_f3d_flags>
0

> <r_lp_tautomer_probability>
0.999999772200052

> <s_lp_Force_Field>
OPLS_2005

> <r_lp_Energy>
18.152217

> <b_lp_Chiralities_Consistent>
1

> <s_lp_Variant>
CHEMBL258_lig794-1

> <s_i_glide_gridfile>
glide-grid_2of2

> <i_i_glide_lignum>
879

> <i_i_glide_rotatable_bonds>
5

> <r_i_docking_score>
-7.29980124212217

> <r_i_glide_ligand_efficiency>
-0.291992049684887

> <r_i_glide_ligand_efficiency_sa>
-0.85378993177966

> <r_i_glide_ligand_efficiency_ln>
-1.73027165177354

> <r_i_glide_gscore>
-7.29980124212217

> <r_i_glide_lipo>
-3.05528532063156

> <r_i_glide_hbond>
-0.185178324215183

> <r_i_glide_metal>
0

> <r_i_glide_rewards>
-2.03386491355697

> <r_i_glide_evdw>
-42.3117218017578

> <r_i_glide_ecoul>
-4.03094434738159

> <r_i_glide_erotb>
0.694755058476682

> <r_i_glide_esite>
0

> <r_i_glide_emodel>
-64.1036379267813

> <r_i_glide_energy>
-46.3426661491394

> <r_i_glide_einternal>
4.84649085998535

> <i_i_glide_confnum>
4

> <i_i_glide_posenum>
369

> <r_i_glide_eff_state_penalty>
0

> <s_user_duplicate_titles>
CHEMBL258_lig794,312833

> <s_m_subgroup_title>
dock_pv

> <s_m_subgroupid>
dock_pv

> <b_m_subgroup_collapsed>
1

$$$$
CHEMBL258_lig221
                    3D
 Schrodinger Suite 2021-1.
 44 47  0  0  1  0            999 V2000
   23.5180   36.6210   83.7880 C   0  0  0  0  0  0
   22.5090   37.3456   84.4501 C   0  0  0  0  0  0
   24.8297   37.0476   84.0153 N   0  0  0  0  0  0
   22.7892   38.3843   85.2802 N   0  0  0  0  0  0
   21.1687   37.0164   84.2115 N   0  0  0  0  0  0
   25.1556   38.0843   84.8191 C   0  0  0  0  0  0
   24.0820   38.7695   85.4529 C   0  0  0  0  0  0
   24.9224   35.3411   82.5736 N   0  0  0  0  0  0
   20.0583   37.1282   85.0714 C   0  0  0  0  0  0
   25.6276   36.2212   83.2529 C   0  0  0  0  0  0
   23.6583   35.5346   82.8869 C   0  0  0  0  0  0
   18.8691   37.7384   84.6198 C   0  0  0  0  0  0
   20.0795   36.5471   86.3554 C   0  0  0  0  0  0
   26.4974   38.4956   85.0470 C   0  0  0  0  0  0
   24.3733   39.8652   86.2968 C   0  0  0  0  0  0
   17.7887   37.2600   86.7357 C   0  0  0  0  0  0
   17.7609   37.8210   85.4729 C   0  0  0  0  0  0
   18.9344   36.6106   87.1569 C   0  0  0  0  0  0
   21.2812   35.7659   86.8870 C   0  0  0  0  0  0
   18.7524   38.3545   83.2324 C   0  0  0  0  0  0
   17.4218   38.0599   82.5337 C   0  0  0  0  0  0
   20.9040   34.3556   87.3161 C   0  0  0  0  0  0
   26.7456   39.5729   85.8953 C   0  0  0  0  0  0
   25.6961   40.2526   86.5104 C   0  0  0  0  0  0
   21.0264   36.3834   83.4406 H   0  0  0  0  0  0
   26.7010   36.3217   83.2148 H   0  0  0  0  0  0
   22.8794   34.9221   82.4553 H   0  0  0  0  0  0
   27.3237   37.9823   84.5776 H   0  0  0  0  0  0
   23.5606   40.3907   86.7768 H   0  0  0  0  0  0
   16.9207   37.3214   87.3765 H   0  0  0  0  0  0
   16.8555   38.3289   85.1820 H   0  0  0  0  0  0
   18.9159   36.1440   88.1234 H   0  0  0  0  0  0
   22.0574   35.6177   86.1455 H   0  0  0  0  0  0
   21.7500   36.3345   87.6870 H   0  0  0  0  0  0
   18.8893   39.4210   83.3611 H   0  0  0  0  0  0
   19.5499   38.0222   82.5695 H   0  0  0  0  0  0
   17.3500   38.6210   81.6173 H   0  0  0  0  0  0
   17.3491   37.0038   82.2885 H   0  0  0  0  0  0
   16.5500   38.3391   83.1178 H   0  0  0  0  0  0
   21.7733   33.8210   87.6870 H   0  0  0  0  0  0
   20.1500   34.3191   88.0870 H   0  0  0  0  0  0
   20.4707   33.8210   86.4870 H   0  0  0  0  0  0
   27.7636   39.8879   86.0764 H   0  0  0  0  0  0
   25.9104   41.0888   87.1598 H   0  0  0  0  0  0
  1  2  1  0  0  0
  1  3  1  0  0  0
  1 11  2  0  0  0
  2  4  2  0  0  0
  2  5  1  0  0  0
  3  6  1  0  0  0
  3 10  1  0  0  0
  4  7  1  0  0  0
  5  9  1  0  0  0
  5 25  1  0  0  0
  6  7  1  0  0  0
  6 14  2  0  0  0
  7 15  2  0  0  0
  8 11  1  0  0  0
  8 10  2  0  0  0
  9 12  1  0  0  0
  9 13  2  0  0  0
 10 26  1  0  0  0
 11 27  1  0  0  0
 12 17  2  0  0  0
 12 20  1  0  0  0
 13 18  1  0  0  0
 13 19  1  0  0  0
 14 23  1  0  0  0
 14 28  1  0  0  0
 15 24  1  0  0  0
 15 29  1  0  0  0
 16 18  2  0  0  0
 16 17  1  0  0  0
 16 30  1  0  0  0
 17 31  1  0  0  0
 18 32  1  0  0  0
 19 22  1  0  0  0
 19 33  1  0  0  0
 19 34  1  0  0  0
 20 21  1  0  0  0
 20 35  1  0  0  0
 20 36  1  0  0  0
 21 37  1  0  0  0
 21 38  1  0  0  0
 21 39  1  0  0  0
 22 40  1  0  0  0
 22 41  1  0  0  0
 22 42  1  0  0  0
 23 24  2  0  0  0
 23 43  1  0  0  0
 24 44  1  0  0  0
M  END
> <s_m_entry_id>
4679

> <s_m_entry_name>
dock_pv.167

> <s_m_Source_Path>
/home/csk/Desktop/cluster/DUD-E-result/lck

> <s_m_Source_File>
dock_pv.maegz

> <i_m_Source_File_Index>
167

> <chembl_id>
CHEMBL287446

> <chembl_pref_name>
None

> <i_lp_mmshare_version>
53161

> <i_f3d_flags>
0

> <r_lp_tautomer_probability>
1

> <s_lp_Force_Field>
OPLS_2005

> <r_lp_Energy>
59.324488

> <b_lp_Chiralities_Consistent>
1

> <s_lp_Variant>
CHEMBL258_lig221-1

> <s_i_glide_gridfile>
glide-grid_2of2

> <i_i_glide_lignum>
249

> <i_i_glide_rotatable_bonds>
4

> <r_i_docking_score>
-7.2993931612657

> <r_i_glide_ligand_efficiency>
-0.304141381719404

> <r_i_glide_ligand_efficiency_sa>
-0.87729555326566

> <r_i_glide_ligand_efficiency_ln>
-1.74707973081759

> <r_i_glide_gscore>
-7.2993931612657

> <r_i_glide_lipo>
-3.03116680344645

> <r_i_glide_hbond>
0

> <r_i_glide_metal>
0

> <r_i_glide_rewards>
-2.87773876651438

> <r_i_glide_evdw>
-32.0062370300293

> <r_i_glide_ecoul>
-1.08064007759094

> <r_i_glide_erotb>
0.371920271835243

> <r_i_glide_esite>
0

> <r_i_glide_emodel>
-43.4393456219733

> <r_i_glide_energy>
-33.0868771076202

> <r_i_glide_einternal>
6.63061094284058

> <i_i_glide_confnum>
4

> <i_i_glide_posenum>
282

> <r_i_glide_eff_state_penalty>
0

> <s_user_duplicate_titles>
CHEMBL258_lig221

> <s_m_subgroup_title>
dock_pv

> <s_m_subgroupid>
dock_pv

> <b_m_subgroup_collapsed>
1

$$$$
CHEMBL258_lig416
                    3D
 Schrodinger Suite 2021-1.
 39 42  0  0  1  0            999 V2000
   24.7934   37.0193   83.8592 N   0  0  0  0  0  0
   23.5119   36.4719   83.6874 C   0  0  0  0  0  0
   22.4686   37.0788   84.4029 C   0  0  0  0  0  0
   22.6799   38.1493   85.2054 N   0  0  0  0  0  0
   25.0515   38.1059   84.6373 C   0  0  0  0  0  0
   21.1586   36.6214   84.2246 N   0  0  0  0  0  0
   23.9273   38.6750   85.3051 C   0  0  0  0  0  0
   24.9594   35.2957   82.4287 N   0  0  0  0  0  0
   20.0232   36.8584   85.0219 C   0  0  0  0  0  0
   25.6179   36.2330   83.0741 C   0  0  0  0  0  0
   23.6950   35.4210   82.7563 C   0  0  0  0  0  0
   26.3498   38.6995   84.7989 C   0  0  0  0  0  0
   18.9505   37.6082   84.5059 C   0  0  0  0  0  0
   19.9216   36.3094   86.3190 C   0  0  0  0  0  0
   18.9513   38.2205   82.8879 Cl  0  0  0  0  0  0
   24.0966   39.8193   86.1094 C   0  0  0  0  0  0
   27.4399   38.1523   84.1489 O   0  0  0  0  0  0
   25.3550   40.3845   86.2609 C   0  0  0  0  0  0
   17.7461   37.3489   86.5833 C   0  0  0  0  0  0
   26.4585   39.8329   85.6214 C   0  0  0  0  0  0
   17.8258   37.8548   85.2907 C   0  0  0  0  0  0
   18.7782   36.5618   87.0842 C   0  0  0  0  0  0
   20.9813   35.3629   86.8812 C   0  0  0  0  0  0
   28.7225   38.7648   84.2543 C   0  0  0  0  0  0
   21.0706   35.8309   83.6064 H   0  0  0  0  0  0
   26.6798   36.3829   82.9830 H   0  0  0  0  0  0
   22.9503   34.7575   82.3438 H   0  0  0  0  0  0
   23.2394   40.2494   86.6076 H   0  0  0  0  0  0
   25.4767   41.2615   86.8802 H   0  0  0  0  0  0
   16.8687   37.5458   87.1829 H   0  0  0  0  0  0
   27.4100   40.3159   85.7805 H   0  0  0  0  0  0
   17.0064   38.4426   84.9010 H   0  0  0  0  0  0
   18.6760   36.1363   88.0721 H   0  0  0  0  0  0
   21.8260   35.9220   87.2852 H   0  0  0  0  0  0
   20.5811   34.6939   87.6486 H   0  0  0  0  0  0
   21.3506   34.7048   86.0947 H   0  0  0  0  0  0
   29.4416   38.1843   83.6770 H   0  0  0  0  0  0
   28.7154   39.7783   83.8508 H   0  0  0  0  0  0
   29.0773   38.7929   85.2856 H   0  0  0  0  0  0
  1  2  1  0  0  0
  1  5  1  0  0  0
  1 10  1  0  0  0
  2  3  1  0  0  0
  2 11  2  0  0  0
  3  6  1  0  0  0
  3  4  2  0  0  0
  4  7  1  0  0  0
  5  7  1  0  0  0
  5 12  2  0  0  0
  6  9  1  0  0  0
  6 25  1  0  0  0
  7 16  2  0  0  0
  8 10  2  0  0  0
  8 11  1  0  0  0
  9 13  1  0  0  0
  9 14  2  0  0  0
 10 26  1  0  0  0
 11 27  1  0  0  0
 12 17  1  0  0  0
 12 20  1  0  0  0
 13 15  1  0  0  0
 13 21  2  0  0  0
 14 22  1  0  0  0
 14 23  1  0  0  0
 16 18  1  0  0  0
 16 28  1  0  0  0
 17 24  1  0  0  0
 18 20  2  0  0  0
 18 29  1  0  0  0
 19 22  2  0  0  0
 19 21  1  0  0  0
 19 30  1  0  0  0
 20 31  1  0  0  0
 21 32  1  0  0  0
 22 33  1  0  0  0
 23 34  1  0  0  0
 23 35  1  0  0  0
 23 36  1  0  0  0
 24 37  1  0  0  0
 24 38  1  0  0  0
 24 39  1  0  0  0
M  END
> <s_m_entry_id>
4680

> <s_m_entry_name>
dock_pv.168

> <s_m_Source_Path>
/home/csk/Desktop/cluster/DUD-E-result/lck

> <s_m_Source_File>
dock_pv.maegz

> <i_m_Source_File_Index>
168

> <chembl_id>
CHEMBL106378

> <chembl_pref_name>
None

> <i_lp_mmshare_version>
53161

> <i_f3d_flags>
0

> <r_lp_tautomer_probability>
1

> <s_lp_Force_Field>
OPLS_2005

> <r_lp_Energy>
66.645929

> <b_lp_Chiralities_Consistent>
1

> <s_lp_Variant>
CHEMBL258_lig416-1

> <s_i_glide_gridfile>
glide-grid_2of2

> <i_i_glide_lignum>
461

> <i_i_glide_rotatable_bonds>
3

> <r_i_docking_score>
-7.29560757345401

> <r_i_glide_ligand_efficiency>
-0.303983648893917

> <r_i_glide_ligand_efficiency_sa>
-0.876840573066578

> <r_i_glide_ligand_efficiency_ln>
-1.74617366594495

> <r_i_glide_gscore>
-7.29560757345401

> <r_i_glide_lipo>
-2.66884463421298

> <r_i_glide_hbond>
-0.0535976797338404

> <r_i_glide_metal>
0

> <r_i_glide_rewards>
-2.67934200091555

> <r_i_glide_evdw>
-36.4751968383789

> <r_i_glide_ecoul>
-2.66452503204346

> <r_i_glide_erotb>
0.329615338133814

> <r_i_glide_esite>
0

> <r_i_glide_emodel>
-54.9430409673103

> <r_i_glide_energy>
-39.1397218704224

> <r_i_glide_einternal>
1.19926643371582

> <i_i_glide_confnum>
2

> <i_i_glide_posenum>
138

> <r_i_glide_eff_state_penalty>
0

> <s_user_duplicate_titles>
CHEMBL258_lig416,176407

> <s_m_subgroup_title>
dock_pv

> <s_m_subgroupid>
dock_pv

> <b_m_subgroup_collapsed>
1

$$$$
CHEMBL258_lig1284
                    3D
 Schrodinger Suite 2021-1.
 50 53  0  0  1  0            999 V2000
   24.2810   40.2532   85.6944 N   0  0  0  0  0  0
   23.8892   38.9812   85.4378 C   0  0  0  0  0  0
   24.6344   38.0629   84.7647 N   0  0  0  0  0  0
   25.5003   40.6290   85.2239 C   0  0  0  0  0  0
   22.6269   38.6294   85.9408 N   0  0  0  0  0  0
   26.3355   39.7710   84.4993 C   0  0  0  0  0  0
   25.8446   38.4723   84.3050 C   0  0  0  0  0  0
   28.7374   39.0379   83.8898 C   0  0  0  0  0  0
   27.6827   40.1877   83.8970 C   0  0  0  0  0  0
   28.0973   37.7429   83.3862 C   0  0  0  0  0  0
   26.7372   37.5278   83.5820 C   0  0  0  0  0  0
   26.4809   36.3110   83.0062 N   0  0  0  0  0  0
   27.5767   35.7529   82.4868 N   0  0  0  0  0  0
   28.5617   36.6204   82.6532 C   0  0  0  0  0  0
   25.2244   35.5840   82.9557 C   0  0  0  0  0  0
   29.9199   36.4215   82.1720 C   0  0  0  0  0  0
   30.8485   37.1596   82.4894 O   0  0  0  0  0  0
   21.9752   37.3282   85.7314 C   0  0  0  0  0  0
   30.0874   35.4238   81.3026 N   0  0  0  0  0  0
   20.6147   37.3097   86.4525 C   0  0  0  0  0  0
   19.5788   38.3025   85.8646 C   0  0  0  0  0  0
   19.4932   38.0918   84.3965 N   0  0  0  0  0  0
   20.7530   38.1082   83.6209 C   0  0  0  0  0  0
   21.6890   37.0523   84.2437 C   0  0  0  0  0  0
   18.3136   38.1586   83.7224 C   0  0  0  0  0  0
   17.0051   38.0181   84.4835 C   0  0  0  0  0  0
   18.2336   38.2210   82.4962 O   0  0  0  0  0  0
   25.7912   41.6515   85.4133 H   0  0  0  0  0  0
   22.1158   39.3383   86.4431 H   0  0  0  0  0  0
   29.5787   39.3278   83.2588 H   0  0  0  0  0  0
   29.1491   38.8923   84.8892 H   0  0  0  0  0  0
   27.5045   40.5120   82.8708 H   0  0  0  0  0  0
   28.0837   41.0563   84.4194 H   0  0  0  0  0  0
   24.4748   36.2200   82.4895 H   0  0  0  0  0  0
   25.3232   34.6627   82.3810 H   0  0  0  0  0  0
   24.9132   35.3445   83.9731 H   0  0  0  0  0  0
   22.6245   36.5537   86.1418 H   0  0  0  0  0  0
   30.9774   35.2846   80.8406 H   0  0  0  0  0  0
   29.2932   34.8603   81.0322 H   0  0  0  0  0  0
   20.7562   37.5233   87.5125 H   0  0  0  0  0  0
   20.2036   36.2988   86.4200 H   0  0  0  0  0  0
   19.8921   39.3314   86.0525 H   0  0  0  0  0  0
   18.6416   38.0851   86.3780 H   0  0  0  0  0  0
   20.6101   37.8370   82.5724 H   0  0  0  0  0  0
   21.2024   39.0999   83.6882 H   0  0  0  0  0  0
   21.2571   36.0573   84.1194 H   0  0  0  0  0  0
   22.6169   37.0093   83.6856 H   0  0  0  0  0  0
   16.9525   38.7378   85.2868 H   0  0  0  0  0  0
   16.9227   37.0191   84.9038 H   0  0  0  0  0  0
   16.1535   38.2175   83.8345 H   0  0  0  0  0  0
  1  2  2  0  0  0
  1  4  1  0  0  0
  2  5  1  0  0  0
  2  3  1  0  0  0
  3  7  2  0  0  0
  4  6  2  0  0  0
  4 28  1  0  0  0
  5 18  1  0  0  0
  5 29  1  0  0  0
  6  9  1  0  0  0
  6  7  1  0  0  0
  7 11  1  0  0  0
  8 10  1  0  0  0
  8  9  1  0  0  0
  8 30  1  0  0  0
  8 31  1  0  0  0
  9 32  1  0  0  0
  9 33  1  0  0  0
 10 14  1  0  0  0
 10 11  2  0  0  0
 11 12  1  0  0  0
 12 13  1  0  0  0
 12 15  1  0  0  0
 13 14  2  0  0  0
 14 16  1  0  0  0
 15 34  1  0  0  0
 15 35  1  0  0  0
 15 36  1  0  0  0
 16 17  2  0  0  0
 16 19  1  0  0  0
 18 20  1  0  0  0
 18 24  1  0  0  0
 18 37  1  0  0  0
 19 38  1  0  0  0
 19 39  1  0  0  0
 20 21  1  0  0  0
 20 40  1  0  0  0
 20 41  1  0  0  0
 21 22  1  0  0  0
 21 42  1  0  0  0
 21 43  1  0  0  0
 22 23  1  0  0  0
 22 25  1  0  0  0
 23 24  1  0  0  0
 23 44  1  0  0  0
 23 45  1  0  0  0
 24 46  1  0  0  0
 24 47  1  0  0  0
 25 26  1  0  0  0
 25 27  2  0  0  0
 26 48  1  0  0  0
 26 49  1  0  0  0
 26 50  1  0  0  0
M  END
> <s_m_entry_id>
4681

> <s_m_entry_name>
dock_pv.169

> <s_m_Source_Path>
/home/csk/Desktop/cluster/DUD-E-result/lck

> <s_m_Source_File>
dock_pv.maegz

> <i_m_Source_File_Index>
169

> <chembl_id>
CHEMBL599224

> <chembl_pref_name>
None

> <i_lp_mmshare_version>
53161

> <i_f3d_flags>
0

> <r_lp_tautomer_probability>
0.999999987636

> <s_lp_Force_Field>
OPLS_2005

> <r_lp_Energy>
26.655429

> <b_lp_Chiralities_Consistent>
1

> <s_lp_Variant>
CHEMBL258_lig1284-1

> <s_i_glide_gridfile>
glide-grid_2of2

> <i_i_glide_lignum>
1435

> <i_i_glide_rotatable_bonds>
4

> <r_i_docking_score>
-7.29449357605502

> <r_i_glide_ligand_efficiency>
-0.270166428742779

> <r_i_glide_ligand_efficiency_sa>
-0.810499285337911

> <r_i_glide_ligand_efficiency_ln>
-1.69803784538025

> <r_i_glide_gscore>
-7.29449357605502

> <r_i_glide_lipo>
-2.38926759870545

> <r_i_glide_hbond>
-0.24199930669893

> <r_i_glide_metal>
0

> <r_i_glide_rewards>
-2.50494213557004

> <r_i_glide_evdw>
-38.6022720336914

> <r_i_glide_ecoul>
-3.26522493362427

> <r_i_glide_erotb>
0.282560957926378

> <r_i_glide_esite>
-0.0209481512787726

> <r_i_glide_emodel>
-60.1478793113798

> <r_i_glide_energy>
-41.8674969673157

> <r_i_glide_einternal>
0.694098591804504

> <i_i_glide_confnum>
9

> <i_i_glide_posenum>
203

> <r_i_glide_eff_state_penalty>
0

> <s_user_duplicate_titles>
CHEMBL258_lig1284

> <s_m_subgroup_title>
dock_pv

> <s_m_subgroupid>
dock_pv

> <b_m_subgroup_collapsed>
1

$$$$
CHEMBL258_lig1081
                    3D
 Schrodinger Suite 2021-1.
 25 27  0  0  1  0            999 V2000
   22.5980   37.4663   84.8439 C   0  0  0  0  0  0
   22.4840   36.3081   84.0831 C   0  0  0  0  0  0
   23.5883   35.8217   83.3854 C   0  0  0  0  0  0
   23.8105   38.1501   84.8866 C   0  0  0  0  0  0
   24.9384   37.6779   84.1935 C   0  0  0  0  0  0
   24.8302   36.4787   83.4512 C   0  0  0  0  0  0
   26.0071   35.8988   82.7300 C   0  0  0  0  0  0
   26.2237   38.4548   84.2566 C   0  0  0  0  0  0
   27.4411   37.8318   83.6097 C   0  0  0  0  0  0
   27.3248   36.6138   82.8870 C   0  0  0  0  0  0
   28.4825   36.0216   82.3563 C   0  0  0  0  0  0
   29.7285   36.6217   82.4874 C   0  0  0  0  0  0
   29.8453   37.8207   83.1780 C   0  0  0  0  0  0
   28.7211   38.4247   83.7328 C   0  0  0  0  0  0
   25.8996   34.8527   82.0870 O   0  0  0  0  0  0
   26.2860   39.5312   84.8580 O   0  0  0  0  0  0
   28.9302   39.6045   84.4008 O   0  0  0  0  0  0
   21.7431   37.8459   85.3840 H   0  0  0  0  0  0
   21.5386   35.7862   84.0339 H   0  0  0  0  0  0
   23.4639   34.9209   82.8009 H   0  0  0  0  0  0
   23.8601   39.0600   85.4691 H   0  0  0  0  0  0
   28.4285   35.0829   81.8198 H   0  0  0  0  0  0
   30.6029   36.1508   82.0602 H   0  0  0  0  0  0
   30.8163   38.2823   83.2886 H   0  0  0  0  0  0
   28.1100   39.9521   84.7687 H   0  0  0  0  0  0
  1  4  1  0  0  0
  1  2  2  0  0  0
  1 18  1  0  0  0
  2  3  1  0  0  0
  2 19  1  0  0  0
  3  6  2  0  0  0
  3 20  1  0  0  0
  4  5  2  0  0  0
  4 21  1  0  0  0
  5  6  1  0  0  0
  5  8  1  0  0  0
  6  7  1  0  0  0
  7 10  1  0  0  0
  7 15  2  0  0  0
  8  9  1  0  0  0
  8 16  2  0  0  0
  9 10  2  0  0  0
  9 14  1  0  0  0
 10 11  1  0  0  0
 11 12  2  0  0  0
 11 22  1  0  0  0
 12 13  1  0  0  0
 12 23  1  0  0  0
 13 14  2  0  0  0
 13 24  1  0  0  0
 14 17  1  0  0  0
 17 25  1  0  0  0
M  END
> <s_m_entry_id>
4682

> <s_m_entry_name>
dock_pv.170

> <s_m_Source_Path>
/home/csk/Desktop/cluster/DUD-E-result/lck

> <s_m_Source_File>
dock_pv.maegz

> <i_m_Source_File_Index>
170

> <chembl_id>
CHEMBL501834

> <chembl_pref_name>
1-HYDROXYANTHRAQUINONE

> <i_lp_mmshare_version>
53161

> <i_f3d_flags>
0

> <r_lp_tautomer_probability>
1

> <s_lp_Force_Field>
OPLS_2005

> <r_lp_Energy>
22.361001

> <b_lp_Chiralities_Consistent>
1

> <s_lp_Variant>
CHEMBL258_lig1081-1

> <s_i_glide_gridfile>
glide-grid_2of2

> <i_i_glide_lignum>
1169

> <i_i_glide_rotatable_bonds>
1

> <r_i_docking_score>
-7.29441653865628

> <r_i_glide_ligand_efficiency>
-0.429083325803311

> <r_i_glide_ligand_efficiency_sa>
-1.10329405545451

> <r_i_glide_ligand_efficiency_ln>
-1.90295083626561

> <r_i_glide_gscore>
-7.29441653865628

> <r_i_glide_lipo>
-2.05397472800658

> <r_i_glide_hbond>
-0.32

> <r_i_glide_metal>
0

> <r_i_glide_rewards>
-3.18338128761656

> <r_i_glide_evdw>
-24.2783679962158

> <r_i_glide_ecoul>
-3.48761415481567

> <r_i_glide_erotb>
0

> <r_i_glide_esite>
0

> <r_i_glide_emodel>
-41.1483963490195

> <r_i_glide_energy>
-27.7659821510315

> <r_i_glide_einternal>
0.00134501152206212

> <i_i_glide_confnum>
1

> <i_i_glide_posenum>
233

> <r_i_glide_eff_state_penalty>
0

> <s_user_duplicate_titles>
CHEMBL258_lig1081

> <s_m_subgroup_title>
dock_pv

> <s_m_subgroupid>
dock_pv

> <b_m_subgroup_collapsed>
1

$$$$
CHEMBL258_lig1077
                    3D
 Schrodinger Suite 2021-1.
 29 31  0  0  1  0            999 V2000
   23.7218   37.2030   84.4873 C   0  0  0  0  0  0
   23.8567   36.2016   83.5927 C   0  0  0  0  0  0
   25.1183   35.9009   82.9338 C   0  0  0  0  0  0
   25.2570   35.0209   82.0879 O   0  0  0  0  0  0
   26.2344   36.7859   83.3687 C   0  0  0  0  0  0
   27.5231   36.6297   82.8458 C   0  0  0  0  0  0
   28.5629   37.4459   83.2866 C   0  0  0  0  0  0
   28.3342   38.4371   84.2369 C   0  0  0  0  0  0
   27.0495   38.6194   84.7671 C   0  0  0  0  0  0
   26.0111   37.7856   84.3302 C   0  0  0  0  0  0
   24.7604   37.9848   84.8860 O   0  0  0  0  0  0
   22.4612   37.5612   85.1914 C   0  0  0  0  0  0
   21.4313   36.6230   85.3630 C   0  0  0  0  0  0
   20.2344   36.9827   85.9762 C   0  0  0  0  0  0
   20.0543   38.2904   86.4229 C   0  0  0  0  0  0
   21.0654   39.2356   86.2691 C   0  0  0  0  0  0
   22.2626   38.8709   85.6561 C   0  0  0  0  0  0
   26.7992   39.6045   85.7005 O   0  0  0  0  0  0
   29.4012   39.1916   84.6525 O   0  0  0  0  0  0
   22.9997   35.6106   83.3164 H   0  0  0  0  0  0
   27.7347   35.8682   82.1055 H   0  0  0  0  0  0
   29.5586   37.3055   82.8880 H   0  0  0  0  0  0
   21.5445   35.6050   85.0182 H   0  0  0  0  0  0
   19.4480   36.2499   86.0951 H   0  0  0  0  0  0
   19.1202   38.5731   86.8876 H   0  0  0  0  0  0
   20.9172   40.2518   86.6096 H   0  0  0  0  0  0
   23.0314   39.6206   85.5284 H   0  0  0  0  0  0
   27.4697   40.2897   85.7563 H   0  0  0  0  0  0
   29.2976   39.5866   85.5214 H   0  0  0  0  0  0
  1  2  2  0  0  0
  1 11  1  0  0  0
  1 12  1  0  0  0
  2  3  1  0  0  0
  2 20  1  0  0  0
  3  4  2  0  0  0
  3  5  1  0  0  0
  5  6  1  0  0  0
  5 10  2  0  0  0
  6  7  2  0  0  0
  6 21  1  0  0  0
  7  8  1  0  0  0
  7 22  1  0  0  0
  8  9  2  0  0  0
  8 19  1  0  0  0
  9 10  1  0  0  0
  9 18  1  0  0  0
 10 11  1  0  0  0
 12 13  1  0  0  0
 12 17  2  0  0  0
 13 14  2  0  0  0
 13 23  1  0  0  0
 14 15  1  0  0  0
 14 24  1  0  0  0
 15 16  2  0  0  0
 15 25  1  0  0  0
 16 17  1  0  0  0
 16 26  1  0  0  0
 17 27  1  0  0  0
 18 28  1  0  0  0
 19 29  1  0  0  0
M  END
> <s_m_entry_id>
4683

> <s_m_entry_name>
dock_pv.171

> <s_m_Source_Path>
/home/csk/Desktop/cluster/DUD-E-result/lck

> <s_m_Source_File>
dock_pv.maegz

> <i_m_Source_File_Index>
171

> <chembl_id>
CHEMBL75267

> <chembl_pref_name>
7,8-DIHYDROXYFLAVONE

> <i_lp_mmshare_version>
53161

> <i_f3d_flags>
0

> <r_lp_tautomer_probability>
1

> <s_lp_Force_Field>
OPLS_2005

> <r_lp_Energy>
10.556032

> <b_lp_Chiralities_Consistent>
1

> <s_lp_Variant>
CHEMBL258_lig1077-1

> <s_i_glide_gridfile>
glide-grid_2of2

> <i_i_glide_lignum>
1165

> <i_i_glide_rotatable_bonds>
3

> <r_i_docking_score>
-7.28948546124755

> <r_i_glide_ligand_efficiency>
-0.383657129539345

> <r_i_glide_ligand_efficiency_sa>
-1.02375131600193

> <r_i_glide_ligand_efficiency_ln>
-1.84804112821844

> <r_i_glide_gscore>
-7.28948546124755

> <r_i_glide_lipo>
-2.75703620944594

> <r_i_glide_hbond>
-0.32

> <r_i_glide_metal>
0

> <r_i_glide_rewards>
-2.2466428371326

> <r_i_glide_evdw>
-28.1753959655762

> <r_i_glide_ecoul>
-5.52717399597168

> <r_i_glide_erotb>
0.272039483005549

> <r_i_glide_esite>
0

> <r_i_glide_emodel>
-48.6705854368443

> <r_i_glide_energy>
-33.7025699615479

> <r_i_glide_einternal>
0.174533724784851

> <i_i_glide_confnum>
3

> <i_i_glide_posenum>
343

> <r_i_glide_eff_state_penalty>
0

> <s_user_duplicate_titles>
CHEMBL258_lig1077

> <s_m_subgroup_title>
dock_pv

> <s_m_subgroupid>
dock_pv

> <b_m_subgroup_collapsed>
1

$$$$
CHEMBL258_lig618
                    3D
 Schrodinger Suite 2021-1.
 47 50  0  0  1  0            999 V2000
   27.4461   38.0741   84.2177 C   0  0  0  0  0  0
   27.9379   37.2275   83.2112 C   0  0  0  0  0  0
   27.0591   36.3475   82.5626 C   0  0  0  0  0  0
   26.1047   38.0091   84.6067 C   0  0  0  0  0  0
   25.2029   37.1294   83.9602 C   0  0  0  0  0  0
   25.6981   36.2847   82.9224 C   0  0  0  0  0  0
   24.8885   35.4202   82.2518 N   0  0  0  0  0  0
   23.5823   35.4210   82.6055 C   0  0  0  0  0  0
   22.9995   36.1669   83.5695 N   0  0  0  0  0  0
   23.8058   37.0248   84.2408 C   0  0  0  0  0  0
   23.1943   37.8582   85.1938 N   0  0  0  0  0  0
   21.8327   37.9610   85.5188 C   0  0  0  0  0  0
   21.1805   39.1708   85.2660 C   0  0  0  0  0  0
   19.8367   39.3315   85.6011 C   0  0  0  0  0  0
   19.1379   38.2873   86.2038 C   0  0  0  0  0  0
   19.7875   37.0842   86.4878 C   0  0  0  0  0  0
   21.1364   36.9175   86.1509 C   0  0  0  0  0  0
   29.2826   37.2994   82.8910 O   0  0  0  0  0  0
   28.3666   39.0650   84.9317 C   0  0  0  0  0  0
   28.1835   40.4424   84.4656 N   0  0  0  0  0  0
   29.8777   36.2522   82.1239 C   0  0  0  0  0  0
   29.2324   41.3194   84.9662 C   0  0  0  0  0  0
   28.7033   42.7242   84.7038 C   0  0  0  0  0  0
   27.1951   42.5956   84.9021 C   0  0  0  0  0  0
   26.9591   41.0824   84.9462 C   0  0  0  0  0  0
   18.9196   35.8213   87.2872 Cl  0  0  0  0  0  0
   21.7666   35.7566   86.4583 F   0  0  0  0  0  0
   27.3996   35.6984   81.7710 H   0  0  0  0  0  0
   25.7458   38.6460   85.4010 H   0  0  0  0  0  0
   22.9499   34.7199   82.0838 H   0  0  0  0  0  0
   23.7783   38.5911   85.5581 H   0  0  0  0  0  0
   21.7104   39.9884   84.7989 H   0  0  0  0  0  0
   19.3401   40.2696   85.4002 H   0  0  0  0  0  0
   18.0957   38.4206   86.4622 H   0  0  0  0  0  0
   29.4055   38.7674   84.7790 H   0  0  0  0  0  0
   28.2024   39.0172   86.0107 H   0  0  0  0  0  0
   30.9536   36.4189   82.0624 H   0  0  0  0  0  0
   29.7233   35.2751   82.5850 H   0  0  0  0  0  0
   29.4963   36.2209   81.1025 H   0  0  0  0  0  0
   30.1593   41.1128   84.4272 H   0  0  0  0  0  0
   29.4582   41.1408   86.0205 H   0  0  0  0  0  0
   28.9493   43.0215   83.6864 H   0  0  0  0  0  0
   29.1555   43.4614   85.3699 H   0  0  0  0  0  0
   26.8825   43.0644   85.8362 H   0  0  0  0  0  0
   26.6490   43.0714   84.0870 H   0  0  0  0  0  0
   26.6928   40.7632   85.9552 H   0  0  0  0  0  0
   26.1251   40.7962   84.3050 H   0  0  0  0  0  0
  1  2  1  0  0  0
  1 19  1  0  0  0
  1  4  2  0  0  0
  2 18  1  0  0  0
  2  3  2  0  0  0
  3  6  1  0  0  0
  3 28  1  0  0  0
  4  5  1  0  0  0
  4 29  1  0  0  0
  5 10  2  0  0  0
  5  6  1  0  0  0
  6  7  2  0  0  0
  7  8  1  0  0  0
  8  9  2  0  0  0
  8 30  1  0  0  0
  9 10  1  0  0  0
 10 11  1  0  0  0
 11 12  1  0  0  0
 11 31  1  0  0  0
 12 13  2  0  0  0
 12 17  1  0  0  0
 13 14  1  0  0  0
 13 32  1  0  0  0
 14 15  2  0  0  0
 14 33  1  0  0  0
 15 16  1  0  0  0
 15 34  1  0  0  0
 16 17  2  0  0  0
 16 26  1  0  0  0
 17 27  1  0  0  0
 18 21  1  0  0  0
 19 20  1  0  0  0
 19 35  1  0  0  0
 19 36  1  0  0  0
 20 22  1  0  0  0
 20 25  1  0  0  0
 21 37  1  0  0  0
 21 38  1  0  0  0
 21 39  1  0  0  0
 22 23  1  0  0  0
 22 40  1  0  0  0
 22 41  1  0  0  0
 23 24  1  0  0  0
 23 42  1  0  0  0
 23 43  1  0  0  0
 24 25  1  0  0  0
 24 44  1  0  0  0
 24 45  1  0  0  0
 25 46  1  0  0  0
 25 47  1  0  0  0
M  END
> <s_m_entry_id>
4684

> <s_m_entry_name>
dock_pv.172

> <s_m_Source_Path>
/home/csk/Desktop/cluster/DUD-E-result/lck

> <s_m_Source_File>
dock_pv.maegz

> <i_m_Source_File_Index>
172

> <chembl_id>
CHEMBL437885

> <chembl_pref_name>
None

> <i_lp_mmshare_version>
53161

> <i_f3d_flags>
0

> <r_lp_tautomer_probability>
0.999978000241998

> <s_lp_Force_Field>
OPLS_2005

> <r_lp_Energy>
38.676039

> <b_lp_Chiralities_Consistent>
1

> <s_lp_Variant>
CHEMBL258_lig618-1

> <s_i_glide_gridfile>
glide-grid_2of2

> <i_i_glide_lignum>
697

> <i_i_glide_rotatable_bonds>
5

> <r_i_docking_score>
-7.28133578248026

> <r_i_glide_ligand_efficiency>
-0.269679103054824

> <r_i_glide_ligand_efficiency_sa>
-0.809037308275655

> <r_i_glide_ligand_efficiency_ln>
-1.69497492795922

> <r_i_glide_gscore>
-7.28133578248026

> <r_i_glide_lipo>
-3.01624235539012

> <r_i_glide_hbond>
-0.0665663960315042

> <r_i_glide_metal>
0

> <r_i_glide_rewards>
-2.1111622539138

> <r_i_glide_evdw>
-38.4015197753906

> <r_i_glide_ecoul>
-4.58419895172119

> <r_i_glide_erotb>
0.520341054382877

> <r_i_glide_esite>
0

> <r_i_glide_emodel>
-59.3322276609527

> <r_i_glide_energy>
-42.9857187271118

> <r_i_glide_einternal>
5.43070459365845

> <i_i_glide_confnum>
40

> <i_i_glide_posenum>
377

> <r_i_glide_eff_state_penalty>
0

> <s_user_duplicate_titles>
CHEMBL258_lig618

> <s_m_subgroup_title>
dock_pv

> <s_m_subgroupid>
dock_pv

> <b_m_subgroup_collapsed>
1

$$$$
CHEMBL258_lig127
                    3D
 Schrodinger Suite 2021-1.
 30 32  0  0  1  0            999 V2000
   23.5668   36.8546   83.9629 C   0  0  0  0  0  0
   24.4076   35.9679   83.1533 C   0  0  0  0  0  0
   24.4390   37.9105   84.4999 C   0  0  0  0  0  0
   25.7779   36.4813   83.2367 C   0  0  0  0  0  0
   25.7984   37.6106   84.0335 C   0  0  0  0  0  0
   22.2199   36.7044   84.0995 C   0  0  0  0  0  0
   19.0910   38.6204   85.0783 C   0  0  0  0  0  0
   21.2535   37.4972   84.8985 C   0  0  0  0  0  0
   24.0805   38.8632   85.1885 O   0  0  0  0  0  0
   23.9959   35.0210   82.4869 O   0  0  0  0  0  0
   19.4011   39.0077   86.3923 C   0  0  0  0  0  0
   20.0194   37.8703   84.3436 C   0  0  0  0  0  0
   20.6231   38.6309   86.9469 C   0  0  0  0  0  0
   21.5305   37.8679   86.2177 C   0  0  0  0  0  0
   17.8968   38.9677   84.4877 O   0  0  0  0  0  0
   18.5500   39.7548   87.1734 O   0  0  0  0  0  0
   26.9504   36.0143   82.6362 C   0  0  0  0  0  0
   26.9957   38.2933   84.2658 C   0  0  0  0  0  0
   28.1771   37.8209   83.6888 C   0  0  0  0  0  0
   28.1555   36.6771   82.8861 C   0  0  0  0  0  0
   21.7569   35.8725   83.5829 H   0  0  0  0  0  0
   19.7755   37.5823   83.3311 H   0  0  0  0  0  0
   20.8715   38.9255   87.9555 H   0  0  0  0  0  0
   22.4586   37.5738   86.6858 H   0  0  0  0  0  0
   17.2178   39.2433   85.1166 H   0  0  0  0  0  0
   17.6220   39.8210   86.8871 H   0  0  0  0  0  0
   26.9489   35.1403   82.0000 H   0  0  0  0  0  0
   27.0235   39.1802   84.8831 H   0  0  0  0  0  0
   29.1089   38.3372   83.8688 H   0  0  0  0  0  0
   29.0694   36.3127   82.4387 H   0  0  0  0  0  0
  1  2  1  0  0  0
  1  3  1  0  0  0
  1  6  2  0  0  0
  2  4  1  0  0  0
  2 10  2  0  0  0
  3  5  1  0  0  0
  3  9  2  0  0  0
  4 17  2  0  0  0
  4  5  1  0  0  0
  5 18  2  0  0  0
  6  8  1  0  0  0
  6 21  1  0  0  0
  7 12  2  0  0  0
  7 15  1  0  0  0
  7 11  1  0  0  0
  8 12  1  0  0  0
  8 14  2  0  0  0
 11 13  2  0  0  0
 11 16  1  0  0  0
 12 22  1  0  0  0
 13 14  1  0  0  0
 13 23  1  0  0  0
 14 24  1  0  0  0
 15 25  1  0  0  0
 16 26  1  0  0  0
 17 20  1  0  0  0
 17 27  1  0  0  0
 18 19  1  0  0  0
 18 28  1  0  0  0
 19 20  2  0  0  0
 19 29  1  0  0  0
 20 30  1  0  0  0
M  END
> <s_m_entry_id>
4685

> <s_m_entry_name>
dock_pv.173

> <s_m_Source_Path>
/home/csk/Desktop/cluster/DUD-E-result/lck

> <s_m_Source_File>
dock_pv.maegz

> <i_m_Source_File_Index>
173

> <chembl_id>
CHEMBL83598

> <chembl_pref_name>
None

> <i_lp_mmshare_version>
53161

> <i_f3d_flags>
0

> <r_lp_tautomer_probability>
1

> <s_lp_Force_Field>
OPLS_2005

> <r_lp_Energy>
29.401849

> <b_lp_Chiralities_Consistent>
1

> <s_lp_Variant>
CHEMBL258_lig127-1

> <s_i_glide_gridfile>
glide-grid_2of2

> <i_i_glide_lignum>
148

> <i_i_glide_rotatable_bonds>
3

> <r_i_docking_score>
-7.26980900499873

> <r_i_glide_ligand_efficiency>
-0.363490450249936

> <r_i_glide_ligand_efficiency_sa>
-0.98666488063718

> <r_i_glide_ligand_efficiency_ln>
-1.81939341960281

> <r_i_glide_gscore>
-7.26980900499873

> <r_i_glide_lipo>
-2.58852653200363

> <r_i_glide_hbond>
0

> <r_i_glide_metal>
0

> <r_i_glide_rewards>
-2.2451800888418

> <r_i_glide_evdw>
-27.8822822570801

> <r_i_glide_ecoul>
-8.62158012390137

> <r_i_glide_erotb>
0.251248747285908

> <r_i_glide_esite>
0

> <r_i_glide_emodel>
-52.2775331240164

> <r_i_glide_energy>
-36.5038623809814

> <r_i_glide_einternal>
4.30458974838257

> <i_i_glide_confnum>
2

> <i_i_glide_posenum>
264

> <r_i_glide_eff_state_penalty>
0

> <s_user_duplicate_titles>
CHEMBL258_lig127

> <s_m_subgroup_title>
dock_pv

> <s_m_subgroupid>
dock_pv

> <b_m_subgroup_collapsed>
1

$$$$
CHEMBL258_lig788
                    3D
 Schrodinger Suite 2021-1.
 54 57  0  0  1  0            999 V2000
   19.9293   36.7556   85.2709 C   0  0  0  0  0  0
   19.7896   36.0485   86.4879 C   0  0  0  0  0  0
   18.6368   36.2220   87.2600 C   0  0  0  0  0  0
   17.6302   37.0894   86.8416 C   0  0  0  0  0  0
   17.7507   37.7569   85.6242 C   0  0  0  0  0  0
   18.8861   37.5858   84.8315 C   0  0  0  0  0  0
   20.8139   35.0110   86.9420 C   0  0  0  0  0  0
   21.0790   36.6221   84.4642 N   0  0  0  0  0  0
   22.3278   36.9192   84.8724 C   0  0  0  0  0  0
   22.5748   37.4895   85.9379 O   0  0  0  0  0  0
   23.3872   36.4913   83.9877 C   0  0  0  0  0  0
   23.3931   35.6181   82.8898 C   0  0  0  0  0  0
   24.5694   35.3768   82.3354 N   0  0  0  0  0  0
   25.5464   36.0305   82.9160 C   0  0  0  0  0  0
   25.0303   37.0059   84.2659 S   0  0  0  0  0  0
   26.8552   35.9172   82.4868 N   0  0  0  0  0  0
   28.0224   36.6208   82.8315 C   0  0  0  0  0  0
   29.2274   36.2205   82.2494 C   0  0  0  0  0  0
   30.3785   36.9765   82.4869 C   0  0  0  0  0  0
   30.2988   38.1020   83.3124 C   0  0  0  0  0  0
   29.0735   38.4273   83.8938 C   0  0  0  0  0  0
   27.9563   37.6950   83.6532 N   0  0  0  0  0  0
   18.9502   38.4102   83.3107 Cl  0  0  0  0  0  0
   28.9904   39.5348   84.7553 N   0  0  0  0  0  0
   27.8134   39.7703   85.5890 C   0  0  0  0  0  0
   26.7032   40.5870   84.9027 C   0  0  0  0  0  0
   25.4171   40.6340   85.7548 C   0  0  0  0  0  0
   24.3208   41.2782   85.0473 N   0  0  0  0  0  0
   23.1634   40.7031   84.5812 C   0  0  0  0  0  0
   22.3470   41.5448   83.9969 N   0  0  0  0  0  0
   22.9689   42.7061   84.0807 C   0  0  0  0  0  0
   24.1993   42.6001   84.7093 C   0  0  0  0  0  0
   18.5117   35.6693   88.1792 H   0  0  0  0  0  0
   16.7453   37.2314   87.4464 H   0  0  0  0  0  0
   16.9513   38.4028   85.2873 H   0  0  0  0  0  0
   20.3811   34.2816   87.6240 H   0  0  0  0  0  0
   21.1848   34.4323   86.0939 H   0  0  0  0  0  0
   21.6755   35.4815   87.4148 H   0  0  0  0  0  0
   20.9447   36.2403   83.5427 H   0  0  0  0  0  0
   22.5327   35.1033   82.4850 H   0  0  0  0  0  0
   27.0733   35.2016   81.8095 H   0  0  0  0  0  0
   29.2718   35.3622   81.5936 H   0  0  0  0  0  0
   31.3175   36.6906   82.0351 H   0  0  0  0  0  0
   31.1819   38.6924   83.5138 H   0  0  0  0  0  0
   29.7047   40.2463   84.7022 H   0  0  0  0  0  0
   28.1162   40.2405   86.5242 H   0  0  0  0  0  0
   27.4010   38.8110   85.9090 H   0  0  0  0  0  0
   26.4784   40.1422   83.9312 H   0  0  0  0  0  0
   27.0633   41.5956   84.6957 H   0  0  0  0  0  0
   25.5848   41.1656   86.6931 H   0  0  0  0  0  0
   25.0997   39.6262   86.0243 H   0  0  0  0  0  0
   22.9965   39.6466   84.7124 H   0  0  0  0  0  0
   22.5393   43.6177   83.6883 H   0  0  0  0  0  0
   24.9633   43.3258   84.9437 H   0  0  0  0  0  0
  1  8  1  0  0  0
  1  6  2  0  0  0
  1  2  1  0  0  0
  2  3  2  0  0  0
  2  7  1  0  0  0
  3  4  1  0  0  0
  3 33  1  0  0  0
  4  5  2  0  0  0
  4 34  1  0  0  0
  5  6  1  0  0  0
  5 35  1  0  0  0
  6 23  1  0  0  0
  7 36  1  0  0  0
  7 37  1  0  0  0
  7 38  1  0  0  0
  8  9  1  0  0  0
  8 39  1  0  0  0
  9 10  2  0  0  0
  9 11  1  0  0  0
 11 12  2  0  0  0
 11 15  1  0  0  0
 12 13  1  0  0  0
 12 40  1  0  0  0
 13 14  2  0  0  0
 14 16  1  0  0  0
 14 15  1  0  0  0
 16 17  1  0  0  0
 16 41  1  0  0  0
 17 18  1  0  0  0
 17 22  2  0  0  0
 18 19  2  0  0  0
 18 42  1  0  0  0
 19 20  1  0  0  0
 19 43  1  0  0  0
 20 21  2  0  0  0
 20 44  1  0  0  0
 21 22  1  0  0  0
 21 24  1  0  0  0
 24 25  1  0  0  0
 24 45  1  0  0  0
 25 26  1  0  0  0
 25 46  1  0  0  0
 25 47  1  0  0  0
 26 27  1  0  0  0
 26 48  1  0  0  0
 26 49  1  0  0  0
 27 28  1  0  0  0
 27 50  1  0  0  0
 27 51  1  0  0  0
 28 29  1  0  0  0
 28 32  1  0  0  0
 29 30  2  0  0  0
 29 52  1  0  0  0
 30 31  1  0  0  0
 31 32  2  0  0  0
 31 53  1  0  0  0
 32 54  1  0  0  0
M  END
> <s_m_entry_id>
4686

> <s_m_entry_name>
dock_pv.174

> <s_m_Source_Path>
/home/csk/Desktop/cluster/DUD-E-result/lck

> <s_m_Source_File>
dock_pv.maegz

> <i_m_Source_File_Index>
174

> <chembl_id>
CHEMBL424906

> <chembl_pref_name>
None

> <i_lp_mmshare_version>
53161

> <i_f3d_flags>
0

> <r_lp_tautomer_probability>
1

> <s_lp_Force_Field>
OPLS_2005

> <r_lp_Energy>
21.822379

> <b_lp_Chiralities_Consistent>
1

> <s_lp_Variant>
CHEMBL258_lig788-1

> <s_i_glide_gridfile>
glide-grid_2of2

> <i_i_glide_lignum>
873

> <i_i_glide_rotatable_bonds>
10

> <r_i_docking_score>
-7.26807075302761

> <r_i_glide_ligand_efficiency>
-0.227127211032113

> <r_i_glide_ligand_efficiency_sa>
-0.72108394661293

> <r_i_glide_ligand_efficiency_ln>
-1.62751916172898

> <r_i_glide_gscore>
-7.26807075302761

> <r_i_glide_lipo>
-3.116738374311

> <r_i_glide_hbond>
-0.0933858514379628

> <r_i_glide_metal>
0

> <r_i_glide_rewards>
-1.47635825607726

> <r_i_glide_evdw>
-51.2671966552734

> <r_i_glide_ecoul>
-5.65203475952148

> <r_i_glide_erotb>
0.82957677549051

> <r_i_glide_esite>
0

> <r_i_glide_emodel>
-79.4470502043255

> <r_i_glide_energy>
-56.9192314147949

> <r_i_glide_einternal>
4.52616310119629

> <i_i_glide_confnum>
66

> <i_i_glide_posenum>
309

> <r_i_glide_eff_state_penalty>
0

> <s_user_duplicate_titles>
CHEMBL258_lig788,361402

> <s_m_subgroup_title>
dock_pv

> <s_m_subgroupid>
dock_pv

> <b_m_subgroup_collapsed>
1

$$$$
CHEMBL258_lig299
                    3D
 Schrodinger Suite 2021-1.
 39 42  0  0  1  0            999 V2000
   25.3530   35.1118   82.2982 O   0  0  0  0  0  0
   24.5090   35.7827   82.8871 C   0  0  0  0  0  0
   23.2114   35.4212   82.7078 N   0  0  0  0  0  0
   22.1696   35.9358   83.4182 C   0  0  0  0  0  0
   22.2759   36.9310   84.3082 C   0  0  0  0  0  0
   23.6031   37.5390   84.4870 C   0  0  0  0  0  0
   23.7714   38.6704   85.2834 C   0  0  0  0  0  0
   24.7307   37.0133   83.7983 C   0  0  0  0  0  0
   26.0376   37.6394   83.9362 C   0  0  0  0  0  0
   27.2378   37.2017   83.2867 C   0  0  0  0  0  0
   28.4579   37.8402   83.4944 C   0  0  0  0  0  0
   29.5692   37.3731   82.8871 F   0  0  0  0  0  0
   28.5435   38.9545   84.3139 C   0  0  0  0  0  0
   27.4117   39.4397   84.9538 C   0  0  0  0  0  0
   26.1576   38.7958   84.7792 C   0  0  0  0  0  0
   25.0114   39.2953   85.4444 C   0  0  0  0  0  0
   24.9450   40.3847   86.2768 N   0  0  0  0  0  0
   23.6812   40.4411   86.6406 C   0  0  0  0  0  0
   22.9300   39.4445   86.0502 N   0  0  0  0  0  0
   23.0754   41.5136   87.5581 C   0  0  0  0  0  0
   21.8592   40.9584   88.3416 C   0  0  0  0  0  0
   22.6099   42.7130   86.6998 C   0  0  0  0  0  0
   24.1268   41.9996   88.5879 C   0  0  0  0  0  0
   23.0646   34.6436   82.0792 H   0  0  0  0  0  0
   21.2456   35.4203   83.2041 H   0  0  0  0  0  0
   21.4124   37.2768   84.8540 H   0  0  0  0  0  0
   27.2534   36.3487   82.6328 H   0  0  0  0  0  0
   29.4958   39.4460   84.4560 H   0  0  0  0  0  0
   27.4901   40.3089   85.5911 H   0  0  0  0  0  0
   21.9385   39.3426   86.2001 H   0  0  0  0  0  0
   21.4462   41.7049   89.0200 H   0  0  0  0  0  0
   22.1384   40.0888   88.9391 H   0  0  0  0  0  0
   21.0519   40.6474   87.6736 H   0  0  0  0  0  0
   23.4372   43.1502   86.1381 H   0  0  0  0  0  0
   21.8537   42.4123   85.9698 H   0  0  0  0  0  0
   22.1709   43.5034   87.3108 H   0  0  0  0  0  0
   24.9855   42.4623   88.0990 H   0  0  0  0  0  0
   23.7088   42.7338   89.2791 H   0  0  0  0  0  0
   24.5115   41.1698   89.1834 H   0  0  0  0  0  0
  1  2  2  0  0  0
  2  3  1  0  0  0
  2  8  1  0  0  0
  3  4  1  0  0  0
  3 24  1  0  0  0
  4  5  2  0  0  0
  4 25  1  0  0  0
  5  6  1  0  0  0
  5 26  1  0  0  0
  6  7  2  0  0  0
  6  8  1  0  0  0
  7 16  1  0  0  0
  7 19  1  0  0  0
  8  9  2  0  0  0
  9 10  1  0  0  0
  9 15  1  0  0  0
 10 11  2  0  0  0
 10 27  1  0  0  0
 11 12  1  0  0  0
 11 13  1  0  0  0
 13 14  2  0  0  0
 13 28  1  0  0  0
 14 15  1  0  0  0
 14 29  1  0  0  0
 15 16  2  0  0  0
 16 17  1  0  0  0
 17 18  2  0  0  0
 18 19  1  0  0  0
 18 20  1  0  0  0
 19 30  1  0  0  0
 20 21  1  0  0  0
 20 22  1  0  0  0
 20 23  1  0  0  0
 21 31  1  0  0  0
 21 32  1  0  0  0
 21 33  1  0  0  0
 22 34  1  0  0  0
 22 35  1  0  0  0
 22 36  1  0  0  0
 23 37  1  0  0  0
 23 38  1  0  0  0
 23 39  1  0  0  0
M  END
> <s_m_entry_id>
4687

> <s_m_entry_name>
dock_pv.175

> <s_m_Source_Path>
/home/csk/Desktop/cluster/DUD-E-result/lck

> <s_m_Source_File>
dock_pv.maegz

> <i_m_Source_File_Index>
175

> <chembl_id>
CHEMBL21156

> <chembl_pref_name>
None

> <i_lp_mmshare_version>
53161

> <i_f3d_flags>
0

> <r_lp_tautomer_probability>
1

> <s_lp_Force_Field>
OPLS_2005

> <r_lp_Energy>
36.761165

> <b_lp_Chiralities_Consistent>
1

> <s_lp_Variant>
CHEMBL258_lig299-1

> <s_i_glide_gridfile>
glide-grid_2of2

> <i_i_glide_lignum>
331

> <i_i_glide_rotatable_bonds>
1

> <r_i_docking_score>
-7.26760272263141

> <r_i_glide_ligand_efficiency>
-0.315982727070931

> <r_i_glide_ligand_efficiency_sa>
-0.898612842781272

> <r_i_glide_ligand_efficiency_ln>
-1.75737223731035

> <r_i_glide_gscore>
-7.26760272263141

> <r_i_glide_lipo>
-2.40834578735155

> <r_i_glide_hbond>
-0.434954165448485

> <r_i_glide_metal>
0

> <r_i_glide_rewards>
-2.4859887134349

> <r_i_glide_evdw>
-28.1422557830811

> <r_i_glide_ecoul>
-3.54134178161621

> <r_i_glide_erotb>
0

> <r_i_glide_esite>
0

> <r_i_glide_emodel>
-45.8146865946494

> <r_i_glide_energy>
-31.6835975646973

> <r_i_glide_einternal>
0.224037826061249

> <i_i_glide_confnum>
1

> <i_i_glide_posenum>
327

> <r_i_glide_eff_state_penalty>
0

> <s_user_duplicate_titles>
CHEMBL258_lig299

> <s_m_subgroup_title>
dock_pv

> <s_m_subgroupid>
dock_pv

> <b_m_subgroup_collapsed>
1

$$$$
CHEMBL258_lig1194
                    3D
 Schrodinger Suite 2021-1.
 43 46  0  0  1  0            999 V2000
   29.5781   41.0885   85.1146 C   0  0  0  0  0  0
   28.5625   40.1362   85.2064 C   0  0  0  0  0  0
   28.7567   39.2383   84.1656 C   0  0  0  0  0  0
   29.8500   39.6195   83.4498 O   0  0  0  0  0  0
   30.3546   40.7432   84.0216 C   0  0  0  0  0  0
   28.0184   38.0364   83.6919 C   0  0  0  0  0  0
   28.7032   37.0210   83.0185 C   0  0  0  0  0  0
   28.0314   35.9250   82.4868 C   0  0  0  0  0  0
   26.6363   37.9490   83.9060 C   0  0  0  0  0  0
   25.9158   36.8559   83.3809 C   0  0  0  0  0  0
   26.6422   35.8954   82.6336 C   0  0  0  0  0  0
   25.8180   34.9635   82.0870 O   0  0  0  0  0  0
   24.5704   35.2939   82.5040 C   0  0  0  0  0  0
   24.5500   36.3737   83.3872 C   0  0  0  0  0  0
   31.5779   41.3406   83.3729 C   0  0  0  0  0  0
   23.3332   36.8897   84.1081 C   0  0  0  0  0  0
   22.0968   36.2644   83.8919 C   0  0  0  0  0  0
   20.9496   36.7157   84.5364 C   0  0  0  0  0  0
   21.0194   37.8098   85.3916 C   0  0  0  0  0  0
   22.2384   38.4380   85.6300 C   0  0  0  0  0  0
   23.3870   37.9751   84.9928 C   0  0  0  0  0  0
   19.5117   38.3752   86.2523 S   0  0  1  0  0  0
   19.9690   39.4070   87.2869 O   0  0  0  0  0  0
   18.7746   39.3557   84.8573 C   0  0  0  0  0  0
   18.3297   38.4819   83.6720 C   0  0  0  0  0  0
   29.7325   41.9369   85.7651 H   0  0  0  0  0  0
   27.7772   40.1042   85.9465 H   0  0  0  0  0  0
   29.7729   37.0963   82.8783 H   0  0  0  0  0  0
   28.5514   35.1622   81.9236 H   0  0  0  0  0  0
   26.1458   38.7481   84.4327 H   0  0  0  0  0  0
   23.7947   34.6288   82.1500 H   0  0  0  0  0  0
   31.9315   42.2192   83.9136 H   0  0  0  0  0  0
   32.4027   40.6294   83.3342 H   0  0  0  0  0  0
   31.3727   41.6599   82.3511 H   0  0  0  0  0  0
   22.0032   35.4213   83.2251 H   0  0  0  0  0  0
   20.0052   36.2210   84.3666 H   0  0  0  0  0  0
   22.2977   39.2754   86.3107 H   0  0  0  0  0  0
   24.3090   38.4746   85.2192 H   0  0  0  0  0  0
   19.4510   40.1567   84.5580 H   0  0  0  0  0  0
   17.8902   39.8207   85.2871 H   0  0  0  0  0  0
   17.6350   39.0209   83.0272 H   0  0  0  0  0  0
   17.8096   37.5859   84.0132 H   0  0  0  0  0  0
   19.1736   38.1709   83.0569 H   0  0  0  0  0  0
  1  5  2  0  0  0
  1  2  1  0  0  0
  1 26  1  0  0  0
  2  3  2  0  0  0
  2 27  1  0  0  0
  3  4  1  0  0  0
  3  6  1  0  0  0
  4  5  1  0  0  0
  5 15  1  0  0  0
  6  7  2  0  0  0
  6  9  1  0  0  0
  7  8  1  0  0  0
  7 28  1  0  0  0
  8 11  2  0  0  0
  8 29  1  0  0  0
  9 10  2  0  0  0
  9 30  1  0  0  0
 10 14  1  0  0  0
 10 11  1  0  0  0
 11 12  1  0  0  0
 12 13  1  0  0  0
 13 14  2  0  0  0
 13 31  1  0  0  0
 14 16  1  0  0  0
 15 32  1  0  0  0
 15 33  1  0  0  0
 15 34  1  0  0  0
 16 17  2  0  0  0
 16 21  1  0  0  0
 17 18  1  0  0  0
 17 35  1  0  0  0
 18 19  2  0  0  0
 18 36  1  0  0  0
 19 20  1  0  0  0
 19 22  1  0  0  0
 20 21  2  0  0  0
 20 37  1  0  0  0
 21 38  1  0  0  0
 22 23  2  0  0  0
 22 24  1  0  0  0
 24 25  1  0  0  0
 24 39  1  0  0  0
 24 40  1  0  0  0
 25 41  1  0  0  0
 25 42  1  0  0  0
 25 43  1  0  0  0
M  END
> <s_m_entry_id>
4688

> <s_m_entry_name>
dock_pv.176

> <s_m_Source_Path>
/home/csk/Desktop/cluster/DUD-E-result/lck

> <s_m_Source_File>
dock_pv.maegz

> <i_m_Source_File_Index>
176

> <chembl_id>
CHEMBL574613

> <chembl_pref_name>
None

> <i_lp_mmshare_version>
53161

> <i_f3d_flags>
0

> <r_lp_tautomer_probability>
1

> <s_lp_Force_Field>
OPLS_2005

> <r_lp_Energy>
8.632811

> <b_lp_Chiralities_Consistent>
1

> <s_lp_Variant>
CHEMBL258_lig1194-1

> <s_i_glide_gridfile>
glide-grid_2of2

> <i_i_glide_lignum>
1283

> <i_i_glide_rotatable_bonds>
4

> <r_i_docking_score>
-7.26526713088219

> <r_i_glide_ligand_efficiency>
-0.290610685235288

> <r_i_glide_ligand_efficiency_sa>
-0.84975079763043

> <r_i_glide_ligand_efficiency_ln>
-1.72208603250587

> <r_i_glide_gscore>
-7.26526713088219

> <r_i_glide_lipo>
-3.06720619504663

> <r_i_glide_hbond>
-0.32

> <r_i_glide_metal>
0

> <r_i_glide_rewards>
-1.90990596367569

> <r_i_glide_evdw>
-36.8530158996582

> <r_i_glide_ecoul>
-3.94099307060242

> <r_i_glide_erotb>
0.465644783413403

> <r_i_glide_esite>
0

> <r_i_glide_emodel>
-58.4330582639879

> <r_i_glide_energy>
-40.7940089702606

> <r_i_glide_einternal>
1.92927265167236

> <i_i_glide_confnum>
8

> <i_i_glide_posenum>
63

> <r_i_glide_eff_state_penalty>
0

> <s_user_duplicate_titles>
CHEMBL258_lig1194

> <s_m_subgroup_title>
dock_pv

> <s_m_subgroupid>
dock_pv

> <b_m_subgroup_collapsed>
1

$$$$
CHEMBL258_lig643
                    3D
 Schrodinger Suite 2021-1.
 54 57  0  0  1  0            999 V2000
   27.5956   37.8712   84.1201 C   0  0  0  0  0  0
   28.0525   36.9986   83.1298 C   0  0  0  0  0  0
   27.1343   36.1603   82.4869 C   0  0  0  0  0  0
   26.2430   37.9235   84.4713 C   0  0  0  0  0  0
   25.3008   37.0826   83.8294 C   0  0  0  0  0  0
   25.7637   36.1894   82.8178 C   0  0  0  0  0  0
   24.9192   35.3589   82.1482 N   0  0  0  0  0  0
   23.6134   35.4206   82.4916 C   0  0  0  0  0  0
   23.0598   36.2072   83.4434 N   0  0  0  0  0  0
   23.8988   37.0449   84.1020 C   0  0  0  0  0  0
   23.3266   37.9222   85.0398 N   0  0  0  0  0  0
   21.9769   38.0980   85.3811 C   0  0  0  0  0  0
   21.3942   39.3451   85.1417 C   0  0  0  0  0  0
   20.0661   39.5872   85.4948 C   0  0  0  0  0  0
   19.3138   38.5850   86.1051 C   0  0  0  0  0  0
   19.8943   37.3435   86.3758 C   0  0  0  0  0  0
   21.2269   37.0958   86.0196 C   0  0  0  0  0  0
   29.4111   36.9745   82.8681 O   0  0  0  0  0  0
   28.5707   38.7434   84.8874 C   0  0  0  0  0  0
   28.8439   39.9839   84.1782 N   0  0  1  0  0  0
   29.9367   36.0486   81.9180 C   0  0  0  0  0  0
   28.8594   41.1598   85.0408 C   0  0  1  0  0  0
   29.6115   42.2150   84.2331 C   0  0  0  0  0  0
   30.4375   41.4227   83.2086 C   0  0  0  0  0  0
   30.1358   39.9686   83.5066 C   0  0  0  0  0  0
   18.9497   36.1316   87.1709 Cl  0  0  0  0  0  0
   27.5090   41.6514   85.6332 C   0  0  0  0  0  0
   21.7905   35.8981   86.3116 F   0  0  0  0  0  0
   26.3967   41.9429   84.6114 C   0  0  0  0  0  0
   25.6870   43.0603   84.7709 N   0  0  0  0  0  0
   26.1498   41.1688   83.6938 O   0  0  0  0  0  0
   27.4528   35.4715   81.7201 H   0  0  0  0  0  0
   25.9131   38.6038   85.2408 H   0  0  0  0  0  0
   22.9500   34.7478   81.9728 H   0  0  0  0  0  0
   23.9475   38.6510   85.3642 H   0  0  0  0  0  0
   21.9673   40.1357   84.6760 H   0  0  0  0  0  0
   19.6200   40.5506   85.2938 H   0  0  0  0  0  0
   18.2857   38.7779   86.3825 H   0  0  0  0  0  0
   29.5048   38.2208   85.0837 H   0  0  0  0  0  0
   28.1513   38.9424   85.8735 H   0  0  0  0  0  0
   31.0183   36.1706   81.8591 H   0  0  0  0  0  0
   29.7368   35.0172   82.2114 H   0  0  0  0  0  0
   29.5329   36.2164   80.9182 H   0  0  0  0  0  0
   29.4707   40.9518   85.9243 H   0  0  0  0  0  0
   28.9494   42.9344   83.7537 H   0  0  0  0  0  0
   30.2946   42.7615   84.8864 H   0  0  0  0  0  0
   30.1490   41.6840   82.1909 H   0  0  0  0  0  0
   31.5034   41.6339   83.3046 H   0  0  0  0  0  0
   30.0663   39.3684   82.6019 H   0  0  0  0  0  0
   30.9246   39.5078   84.1046 H   0  0  0  0  0  0
   27.6923   42.5418   86.2391 H   0  0  0  0  0  0
   27.1148   40.9049   86.3213 H   0  0  0  0  0  0
   24.9608   43.2829   84.1039 H   0  0  0  0  0  0
   25.8884   43.7089   85.5175 H   0  0  0  0  0  0
  1  2  2  0  0  0
  1 19  1  0  0  0
  1  4  1  0  0  0
  2 18  1  0  0  0
  2  3  1  0  0  0
  3  6  2  0  0  0
  3 32  1  0  0  0
  4  5  2  0  0  0
  4 33  1  0  0  0
  5 10  1  0  0  0
  5  6  1  0  0  0
  6  7  1  0  0  0
  7  8  2  0  0  0
  8  9  1  0  0  0
  8 34  1  0  0  0
  9 10  2  0  0  0
 10 11  1  0  0  0
 11 12  1  0  0  0
 11 35  1  0  0  0
 12 17  2  0  0  0
 12 13  1  0  0  0
 13 14  2  0  0  0
 13 36  1  0  0  0
 14 15  1  0  0  0
 14 37  1  0  0  0
 15 16  2  0  0  0
 15 38  1  0  0  0
 16 17  1  0  0  0
 16 26  1  0  0  0
 17 28  1  0  0  0
 18 21  1  0  0  0
 19 20  1  0  0  0
 19 39  1  0  0  0
 19 40  1  0  0  0
 20 22  1  0  0  0
 20 25  1  0  0  0
 21 41  1  0  0  0
 21 42  1  0  0  0
 21 43  1  0  0  0
 22 23  1  0  0  0
 22 27  1  0  0  0
 22 44  1  0  0  0
 23 24  1  0  0  0
 23 45  1  0  0  0
 23 46  1  0  0  0
 24 25  1  0  0  0
 24 47  1  0  0  0
 24 48  1  0  0  0
 25 49  1  0  0  0
 25 50  1  0  0  0
 27 29  1  0  0  0
 27 51  1  0  0  0
 27 52  1  0  0  0
 29 30  1  0  0  0
 29 31  2  0  0  0
 30 53  1  0  0  0
 30 54  1  0  0  0
M  END
> <s_m_entry_id>
4689

> <s_m_entry_name>
dock_pv.177

> <s_m_Source_Path>
/home/csk/Desktop/cluster/DUD-E-result/lck

> <s_m_Source_File>
dock_pv.maegz

> <i_m_Source_File_Index>
177

> <chembl_id>
CHEMBL377772

> <chembl_pref_name>
None

> <i_lp_mmshare_version>
53161

> <i_f3d_flags>
0

> <r_lp_tautomer_probability>
0.999978000241998

> <s_lp_Force_Field>
OPLS_2005

> <r_lp_Energy>
38.115372

> <b_lp_Chiralities_Consistent>
1

> <s_lp_Variant>
CHEMBL258_lig643-1

> <s_i_glide_gridfile>
glide-grid_2of2

> <i_i_glide_lignum>
726

> <i_i_glide_rotatable_bonds>
7

> <r_i_docking_score>
-7.25867551594879

> <r_i_glide_ligand_efficiency>
-0.234150823095122

> <r_i_glide_ligand_efficiency_sa>
-0.735556864570572

> <r_i_glide_ligand_efficiency_ln>
-1.63705378053558

> <r_i_glide_gscore>
-7.25867551594879

> <r_i_glide_lipo>
-2.98724491827811

> <r_i_glide_hbond>
-0.157117240740213

> <r_i_glide_metal>
0

> <r_i_glide_rewards>
-1.52507177259064

> <r_i_glide_evdw>
-41.3312492370605

> <r_i_glide_ecoul>
-6.79915380477905

> <r_i_glide_erotb>
0.507375341241734

> <r_i_glide_esite>
-0.0101813930116785

> <r_i_glide_emodel>
-66.2656390283289

> <r_i_glide_energy>
-48.1304030418396

> <r_i_glide_einternal>
5.23697185516357

> <i_i_glide_confnum>
19

> <i_i_glide_posenum>
241

> <r_i_glide_eff_state_penalty>
0

> <s_user_duplicate_titles>
CHEMBL258_lig643

> <s_m_subgroup_title>
dock_pv

> <s_m_subgroupid>
dock_pv

> <b_m_subgroup_collapsed>
1

$$$$
CHEMBL258_lig128
                    3D
 Schrodinger Suite 2021-1.
 32 34  0  0  1  0            999 V2000
   23.5424   36.8441   83.9726 C   0  0  0  0  0  0
   24.4173   37.8954   84.5130 C   0  0  0  0  0  0
   25.7743   37.5945   84.0418 C   0  0  0  0  0  0
   24.3789   35.9604   83.1589 C   0  0  0  0  0  0
   25.7500   36.4696   83.2424 C   0  0  0  0  0  0
   29.4404   38.5391   83.9159 N   0  3  0  0  0  0
   22.1956   36.6958   84.1068 C   0  0  0  0  0  0
   26.9704   38.2777   84.2709 C   0  0  0  0  0  0
   28.1641   37.8210   83.6870 C   0  0  0  0  0  0
   26.9183   36.0059   82.6364 C   0  0  0  0  0  0
   30.4322   38.1827   83.2870 O   0  5  0  0  0  0
   19.0821   38.6324   85.0805 C   0  0  0  0  0  0
   29.4522   39.4674   84.7182 O   0  0  0  0  0  0
   21.2337   37.4904   84.9063 C   0  0  0  0  0  0
   24.0633   38.8469   85.2053 O   0  0  0  0  0  0
   23.9626   35.0210   82.4870 O   0  0  0  0  0  0
   19.3952   39.0166   86.3946 C   0  0  0  0  0  0
   20.0048   37.8743   84.3479 C   0  0  0  0  0  0
   28.1221   36.6708   82.8791 C   0  0  0  0  0  0
   20.6115   38.6284   86.9531 C   0  0  0  0  0  0
   21.5120   37.8559   86.2267 C   0  0  0  0  0  0
   17.8923   38.9908   84.4874 O   0  0  0  0  0  0
   18.5500   39.7716   87.1721 O   0  0  0  0  0  0
   21.7292   35.8673   83.5874 H   0  0  0  0  0  0
   26.9762   39.1635   84.8925 H   0  0  0  0  0  0
   26.9171   35.1344   81.9966 H   0  0  0  0  0  0
   19.7606   37.5904   83.3341 H   0  0  0  0  0  0
   29.0223   36.2921   82.4135 H   0  0  0  0  0  0
   20.8600   38.9209   87.9623 H   0  0  0  0  0  0
   22.4358   37.5521   86.6969 H   0  0  0  0  0  0
   17.2124   39.2685   85.1143 H   0  0  0  0  0  0
   17.6207   39.8236   86.8870 H   0  0  0  0  0  0
  1  2  1  0  0  0
  1  4  1  0  0  0
  1  7  2  0  0  0
  2  3  1  0  0  0
  2 15  2  0  0  0
  3  8  2  0  0  0
  3  5  1  0  0  0
  4  5  1  0  0  0
  4 16  2  0  0  0
  5 10  2  0  0  0
  6  9  1  0  0  0
  6 11  1  0  0  0
  6 13  2  0  0  0
  7 14  1  0  0  0
  7 24  1  0  0  0
  8  9  1  0  0  0
  8 25  1  0  0  0
  9 19  2  0  0  0
 10 19  1  0  0  0
 10 26  1  0  0  0
 12 18  2  0  0  0
 12 22  1  0  0  0
 12 17  1  0  0  0
 14 18  1  0  0  0
 14 21  2  0  0  0
 17 20  2  0  0  0
 17 23  1  0  0  0
 18 27  1  0  0  0
 19 28  1  0  0  0
 20 21  1  0  0  0
 20 29  1  0  0  0
 21 30  1  0  0  0
 22 31  1  0  0  0
 23 32  1  0  0  0
M  CHG  2   6   1  11  -1
M  END
> <s_m_entry_id>
4690

> <s_m_entry_name>
dock_pv.178

> <s_m_Source_Path>
/home/csk/Desktop/cluster/DUD-E-result/lck

> <s_m_Source_File>
dock_pv.maegz

> <i_m_Source_File_Index>
178

> <chembl_id>
CHEMBL79780

> <chembl_pref_name>
None

> <i_lp_mmshare_version>
53161

> <i_f3d_flags>
0

> <r_lp_tautomer_probability>
1

> <s_lp_Force_Field>
OPLS_2005

> <r_lp_Energy>
30.777878

> <b_lp_Chiralities_Consistent>
1

> <s_lp_Variant>
CHEMBL258_lig128-1

> <s_i_glide_gridfile>
glide-grid_2of2

> <i_i_glide_lignum>
149

> <i_i_glide_rotatable_bonds>
4

> <r_i_docking_score>
-7.25825590957705

> <r_i_glide_ligand_efficiency>
-0.315576343894654

> <r_i_glide_ligand_efficiency_sa>
-0.897457143086299

> <r_i_glide_ligand_efficiency_ln>
-1.75511209316159

> <r_i_glide_gscore>
-7.25825590957705

> <r_i_glide_lipo>
-2.59793208247909

> <r_i_glide_hbond>
0

> <r_i_glide_metal>
0

> <r_i_glide_rewards>
-2.09543215821616

> <r_i_glide_evdw>
-31.5040874481201

> <r_i_glide_ecoul>
-7.87397193908691

> <r_i_glide_erotb>
0.191408494387251

> <r_i_glide_esite>
0

> <r_i_glide_emodel>
-56.1446808826261

> <r_i_glide_energy>
-39.378059387207

> <r_i_glide_einternal>
3.87345957756042

> <i_i_glide_confnum>
3

> <i_i_glide_posenum>
35

> <r_i_glide_eff_state_penalty>
0

> <s_user_duplicate_titles>
CHEMBL258_lig128

> <s_m_subgroup_title>
dock_pv

> <s_m_subgroupid>
dock_pv

> <b_m_subgroup_collapsed>
1

$$$$
CHEMBL258_lig1213
                    3D
 Schrodinger Suite 2021-1.
 66 71  0  0  1  0            999 V2000
   28.9087   36.3304   82.4869 C   0  0  0  0  0  0
   30.1584   36.9304   82.6211 C   0  0  0  0  0  0
   30.3298   38.0954   83.2888 N   0  0  0  0  0  0
   29.2177   38.7024   83.7720 C   0  0  0  0  0  0
   27.9451   38.2285   83.6353 N   0  0  0  0  0  0
   27.7988   37.0208   83.0073 C   0  0  0  0  0  0
   26.4983   36.4456   82.9251 N   0  0  0  0  0  0
   29.5001   39.8796   84.4781 N   0  0  0  0  0  0
   24.8818   35.0215   82.1803 N   0  0  0  0  0  0
   26.1278   35.3893   82.1128 C   0  0  0  0  0  0
   24.3676   35.8217   83.1529 C   0  0  0  0  0  0
   25.3517   36.7119   83.6709 C   0  0  0  0  0  0
   25.0487   37.5885   84.7189 C   0  0  0  0  0  0
   23.7469   37.5509   85.2236 C   0  0  0  0  0  0
   22.7783   36.6890   84.7161 C   0  0  0  0  0  0
   23.0611   35.8325   83.6564 C   0  0  0  0  0  0
   28.6236   41.0434   84.6058 C   0  0  1  0  0  0
   27.3376   40.8370   85.4562 C   0  0  1  0  0  0
   27.5758   40.2384   86.8704 C   0  0  0  0  0  0
   26.2839   40.1689   87.7141 C   0  0  0  0  0  0
   25.5116   41.5111   87.7028 C   0  0  0  0  0  0
   25.2268   41.8547   86.2928 N   0  0  0  0  0  0
   26.4679   42.1304   85.5388 C   0  0  0  0  0  0
   24.1687   41.3002   85.6386 C   0  0  0  0  0  0
   24.2537   40.8847   84.4870 O   0  0  0  0  0  0
   29.4674   42.2483   85.0683 C   0  0  0  0  0  0
   23.0175   41.2980   86.3446 N   0  0  0  0  0  0
   21.7903   40.6650   86.0642 C   0  0  0  0  0  0
   21.5260   39.8593   84.9411 C   0  0  0  0  0  0
   19.5887   40.1697   86.9387 C   0  0  0  0  0  0
   20.8025   40.8385   87.0304 C   0  0  0  0  0  0
   19.3409   39.2804   85.8727 C   0  0  0  0  0  0
   20.3084   39.1373   84.8376 C   0  0  0  0  0  0
   20.0242   38.2594   83.7539 C   0  0  0  0  0  0
   18.8139   37.5707   83.7056 C   0  0  0  0  0  0
   17.8846   37.7055   84.7252 C   0  0  0  0  0  0
   18.1501   38.5277   85.8087 C   0  0  0  0  0  0
   28.8374   35.3749   81.9906 H   0  0  0  0  0  0
   31.0488   36.4533   82.2358 H   0  0  0  0  0  0
   30.4851   40.0881   84.5480 H   0  0  0  0  0  0
   26.8556   34.8935   81.4985 H   0  0  0  0  0  0
   25.7825   38.2503   85.1444 H   0  0  0  0  0  0
   23.4846   38.2063   86.0413 H   0  0  0  0  0  0
   21.7906   36.6863   85.1542 H   0  0  0  0  0  0
   22.3077   35.1653   83.2626 H   0  0  0  0  0  0
   28.2884   41.2719   83.5923 H   0  0  0  0  0  0
   26.7205   40.1264   84.9156 H   0  0  0  0  0  0
   28.0582   39.2624   86.8031 H   0  0  0  0  0  0
   28.2901   40.8668   87.4032 H   0  0  0  0  0  0
   25.6405   39.3691   87.3465 H   0  0  0  0  0  0
   26.5309   39.8971   88.7409 H   0  0  0  0  0  0
   24.6233   41.5316   88.3349 H   0  0  0  0  0  0
   26.1392   42.3069   88.1062 H   0  0  0  0  0  0
   27.0033   42.9186   86.0692 H   0  0  0  0  0  0
   26.2434   42.5789   84.5688 H   0  0  0  0  0  0
   28.9336   43.1907   84.9487 H   0  0  0  0  0  0
   29.7628   42.1582   86.1139 H   0  0  0  0  0  0
   30.3845   42.3426   84.4862 H   0  0  0  0  0  0
   23.0507   41.7688   87.2344 H   0  0  0  0  0  0
   22.2519   39.7164   84.1569 H   0  0  0  0  0  0
   18.8263   40.3144   87.6871 H   0  0  0  0  0  0
   20.9735   41.4896   87.8761 H   0  0  0  0  0  0
   20.7508   38.1344   82.9643 H   0  0  0  0  0  0
   18.5830   36.9117   82.8866 H   0  0  0  0  0  0
   16.9524   37.1621   84.6877 H   0  0  0  0  0  0
   17.4265   38.6200   86.6041 H   0  0  0  0  0  0
  1  6  1  0  0  0
  1  2  2  0  0  0
  1 38  1  0  0  0
  2  3  1  0  0  0
  2 39  1  0  0  0
  3  4  2  0  0  0
  4  5  1  0  0  0
  4  8  1  0  0  0
  5  6  2  0  0  0
  6  7  1  0  0  0
  7 12  1  0  0  0
  7 10  1  0  0  0
  8 17  1  0  0  0
  8 40  1  0  0  0
  9 11  1  0  0  0
  9 10  2  0  0  0
 10 41  1  0  0  0
 11 12  2  0  0  0
 11 16  1  0  0  0
 12 13  1  0  0  0
 13 14  2  0  0  0
 13 42  1  0  0  0
 14 15  1  0  0  0
 14 43  1  0  0  0
 15 16  2  0  0  0
 15 44  1  0  0  0
 16 45  1  0  0  0
 17 18  1  0  0  0
 17 26  1  0  0  0
 17 46  1  0  0  0
 18 19  1  0  0  0
 18 23  1  0  0  0
 18 47  1  0  0  0
 19 20  1  0  0  0
 19 48  1  0  0  0
 19 49  1  0  0  0
 20 21  1  0  0  0
 20 50  1  0  0  0
 20 51  1  0  0  0
 21 22  1  0  0  0
 21 52  1  0  0  0
 21 53  1  0  0  0
 22 23  1  0  0  0
 22 24  1  0  0  0
 23 54  1  0  0  0
 23 55  1  0  0  0
 24 25  2  0  0  0
 24 27  1  0  0  0
 26 56  1  0  0  0
 26 57  1  0  0  0
 26 58  1  0  0  0
 27 28  1  0  0  0
 27 59  1  0  0  0
 28 29  2  0  0  0
 28 31  1  0  0  0
 29 33  1  0  0  0
 29 60  1  0  0  0
 30 32  1  0  0  0
 30 31  2  0  0  0
 30 61  1  0  0  0
 31 62  1  0  0  0
 32 33  1  0  0  0
 32 37  2  0  0  0
 33 34  2  0  0  0
 34 35  1  0  0  0
 34 63  1  0  0  0
 35 36  2  0  0  0
 35 64  1  0  0  0
 36 37  1  0  0  0
 36 65  1  0  0  0
 37 66  1  0  0  0
M  END
> <s_m_entry_id>
4691

> <s_m_entry_name>
dock_pv.179

> <s_m_Source_Path>
/home/csk/Desktop/cluster/DUD-E-result/lck

> <s_m_Source_File>
dock_pv.maegz

> <i_m_Source_File_Index>
179

> <chembl_id>
CHEMBL583850

> <chembl_pref_name>
None

> <i_lp_mmshare_version>
53161

> <i_f3d_flags>
0

> <r_lp_tautomer_probability>
1

> <s_lp_Force_Field>
OPLS_2005

> <r_lp_Energy>
52.255418

> <b_lp_Chiralities_Consistent>
1

> <s_lp_Variant>
CHEMBL258_lig1213-4

> <s_i_glide_gridfile>
glide-grid_2of2

> <i_i_glide_lignum>
1324

> <i_i_glide_rotatable_bonds>
7

> <r_i_docking_score>
-7.25820880479473

> <r_i_glide_ligand_efficiency>
-0.196167805534993

> <r_i_glide_ligand_efficiency_sa>
-0.653674647406348

> <r_i_glide_ligand_efficiency_ln>
-1.57413533320361

> <r_i_glide_gscore>
-7.25820880479473

> <r_i_glide_lipo>
-3.08186042247052

> <r_i_glide_hbond>
-0.295421614347247

> <r_i_glide_metal>
0

> <r_i_glide_rewards>
-1.58812539752718

> <r_i_glide_evdw>
-43.5001029968262

> <r_i_glide_ecoul>
-4.66623115539551

> <r_i_glide_erotb>
0.589719297446562

> <r_i_glide_esite>
-0.00758084474571263

> <r_i_glide_emodel>
-64.055309475591

> <r_i_glide_energy>
-48.1663341522217

> <r_i_glide_einternal>
9.2155933380127

> <i_i_glide_confnum>
26

> <i_i_glide_posenum>
226

> <r_i_glide_eff_state_penalty>
0

> <s_user_duplicate_titles>
CHEMBL258_lig1213

> <s_m_subgroup_title>
dock_pv

> <s_m_subgroupid>
dock_pv

> <b_m_subgroup_collapsed>
1

$$$$
CHEMBL258_lig784
                    3D
 Schrodinger Suite 2021-1.
 47 49  0  0  1  0            999 V2000
   20.2794   36.7722   85.6377 C   0  0  0  0  0  0
   19.5180   37.8906   85.2376 C   0  0  0  0  0  0
   18.3079   38.1582   85.8784 C   0  0  0  0  0  0
   17.8296   37.3270   86.8867 C   0  0  0  0  0  0
   18.5779   36.2235   87.2850 C   0  0  0  0  0  0
   19.8054   35.9547   86.6775 C   0  0  0  0  0  0
   19.9249   38.7996   84.0873 C   0  0  0  0  0  0
   21.4847   36.4171   85.0050 N   0  0  0  0  0  0
   22.5910   37.1810   84.9324 C   0  0  0  0  0  0
   22.7216   38.2692   85.4965 O   0  0  0  0  0  0
   23.6420   36.6212   84.1229 C   0  0  0  0  0  0
   23.5990   35.7196   83.0548 C   0  0  0  0  0  0
   24.7536   35.4242   82.4838 N   0  0  0  0  0  0
   25.7499   36.1116   82.9857 C   0  0  0  0  0  0
   25.2847   37.1621   84.3006 S   0  0  0  0  0  0
   27.0411   35.9853   82.5077 N   0  0  0  0  0  0
   28.2294   36.6593   82.8439 C   0  0  0  0  0  0
   29.4099   36.2201   82.2392 C   0  0  0  0  0  0
   30.5793   36.9551   82.4878 C   0  0  0  0  0  0
   30.5811   38.0521   83.2858 N   0  0  0  0  0  0
   29.3979   38.3848   83.8514 C   0  0  0  0  0  0
   28.2196   37.7427   83.6686 N   0  0  0  0  0  0
   20.7314   34.6202   87.2714 Cl  0  0  0  0  0  0
   31.8210   36.6279   81.9355 N   0  0  0  0  0  0
   29.3989   39.5818   84.7806 C   0  0  0  0  0  0
   32.1229   35.2639   81.5143 C   0  0  0  0  0  0
   33.4568   35.1526   80.7668 C   0  0  0  0  0  0
   33.7503   33.8172   80.4226 O   0  0  0  0  0  0
   17.7279   39.0189   85.5865 H   0  0  0  0  0  0
   16.8848   37.5490   87.3623 H   0  0  0  0  0  0
   18.2156   35.5851   88.0776 H   0  0  0  0  0  0
   20.6535   39.5407   84.4154 H   0  0  0  0  0  0
   20.3552   38.2227   83.2687 H   0  0  0  0  0  0
   19.0602   39.3196   83.6796 H   0  0  0  0  0  0
   21.5106   35.4889   84.6117 H   0  0  0  0  0  0
   22.7063   35.2395   82.6763 H   0  0  0  0  0  0
   27.2198   35.2957   81.7917 H   0  0  0  0  0  0
   29.4018   35.3655   81.5809 H   0  0  0  0  0  0
   32.5941   37.1722   82.2896 H   0  0  0  0  0  0
   30.0726   39.4055   85.6208 H   0  0  0  0  0  0
   29.7476   40.4710   84.2522 H   0  0  0  0  0  0
   28.4049   39.7906   85.1799 H   0  0  0  0  0  0
   32.1230   34.6082   82.3871 H   0  0  0  0  0  0
   31.3261   34.8568   80.8955 H   0  0  0  0  0  0
   33.4556   35.8137   79.8985 H   0  0  0  0  0  0
   34.2547   35.5864   81.3698 H   0  0  0  0  0  0
   33.0735   33.4927   79.8144 H   0  0  0  0  0  0
  1  8  1  0  0  0
  1  6  2  0  0  0
  1  2  1  0  0  0
  2  3  2  0  0  0
  2  7  1  0  0  0
  3  4  1  0  0  0
  3 29  1  0  0  0
  4  5  2  0  0  0
  4 30  1  0  0  0
  5  6  1  0  0  0
  5 31  1  0  0  0
  6 23  1  0  0  0
  7 32  1  0  0  0
  7 33  1  0  0  0
  7 34  1  0  0  0
  8  9  1  0  0  0
  8 35  1  0  0  0
  9 10  2  0  0  0
  9 11  1  0  0  0
 11 15  1  0  0  0
 11 12  2  0  0  0
 12 13  1  0  0  0
 12 36  1  0  0  0
 13 14  2  0  0  0
 14 15  1  0  0  0
 14 16  1  0  0  0
 16 17  1  0  0  0
 16 37  1  0  0  0
 17 18  2  0  0  0
 17 22  1  0  0  0
 18 19  1  0  0  0
 18 38  1  0  0  0
 19 20  2  0  0  0
 19 24  1  0  0  0
 20 21  1  0  0  0
 21 22  2  0  0  0
 21 25  1  0  0  0
 24 26  1  0  0  0
 24 39  1  0  0  0
 25 40  1  0  0  0
 25 41  1  0  0  0
 25 42  1  0  0  0
 26 27  1  0  0  0
 26 43  1  0  0  0
 26 44  1  0  0  0
 27 28  1  0  0  0
 27 45  1  0  0  0
 27 46  1  0  0  0
 28 47  1  0  0  0
M  END
> <s_m_entry_id>
4692

> <s_m_entry_name>
dock_pv.180

> <s_m_Source_Path>
/home/csk/Desktop/cluster/DUD-E-result/lck

> <s_m_Source_File>
dock_pv.maegz

> <i_m_Source_File_Index>
180

> <chembl_id>
CHEMBL386118

> <chembl_pref_name>
None

> <i_lp_mmshare_version>
53161

> <i_f3d_flags>
0

> <r_lp_tautomer_probability>
0.999999968245435

> <s_lp_Force_Field>
OPLS_2005

> <r_lp_Energy>
15.764293

> <b_lp_Chiralities_Consistent>
1

> <s_lp_Variant>
CHEMBL258_lig784-1

> <s_i_glide_gridfile>
glide-grid_2of2

> <i_i_glide_lignum>
869

> <i_i_glide_rotatable_bonds>
9

> <r_i_docking_score>
-7.25240129657031

> <r_i_glide_ligand_efficiency>
-0.259014332020368

> <r_i_glide_ligand_efficiency_sa>
-0.786520063297176

> <r_i_glide_ligand_efficiency_ln>
-1.6740671590033

> <r_i_glide_gscore>
-7.25240129657031

> <r_i_glide_lipo>
-2.67436934769911

> <r_i_glide_hbond>
-0.27170744506302

> <r_i_glide_metal>
0

> <r_i_glide_rewards>
-1.93771851660259

> <r_i_glide_evdw>
-45.3951797485352

> <r_i_glide_ecoul>
-6.67028284072876

> <r_i_glide_erotb>
0.901695426330496

> <r_i_glide_esite>
0

> <r_i_glide_emodel>
-71.7924800932529

> <r_i_glide_energy>
-52.0654625892639

> <r_i_glide_einternal>
7.83983469009399

> <i_i_glide_confnum>
42

> <i_i_glide_posenum>
332

> <r_i_glide_eff_state_penalty>
0

> <s_user_duplicate_titles>
CHEMBL258_lig784,361451

> <s_m_subgroup_title>
dock_pv

> <s_m_subgroupid>
dock_pv

> <b_m_subgroup_collapsed>
1

$$$$
CHEMBL258_lig565
                    3D
 Schrodinger Suite 2021-1.
 54 57  0  0  1  0            999 V2000
   25.7451   37.0275   83.6380 C   0  0  0  0  0  0
   22.1383   37.0291   84.3122 C   0  0  0  0  0  0
   24.3405   37.0937   83.9852 C   0  0  0  0  0  0
   26.3680   36.0423   82.7992 C   0  0  0  0  0  0
   23.1599   36.4535   83.5704 N   0  0  0  0  0  0
   22.5375   37.9693   85.1249 N   0  0  0  0  0  0
   26.6186   38.0336   84.1810 C   0  0  0  0  0  0
   27.6765   36.0677   82.4880 N   0  0  0  0  0  0
   20.8352   36.6210   84.1559 N   0  0  0  0  0  0
   23.8769   38.0782   84.8927 C   0  0  0  0  0  0
   28.4918   37.0215   82.9793 C   0  0  0  0  0  0
   28.0078   38.0447   83.8096 C   0  0  0  0  0  0
   19.7606   36.9233   85.0005 C   0  0  0  0  0  0
   26.0799   38.9974   85.0792 C   0  0  0  0  0  0
   29.9167   36.9206   82.5766 C   0  0  0  0  0  0
   25.6220   35.0012   82.3560 O   0  0  0  0  0  0
   24.7419   39.0213   85.4419 C   0  0  0  0  0  0
   18.6522   37.6305   84.5072 C   0  0  0  0  0  0
   19.7217   36.3901   86.3002 C   0  0  0  0  0  0
   30.4115   36.2354   81.5233 C   0  0  0  0  0  0
   22.9227   35.4901   82.4870 C   0  0  0  0  0  0
   32.8726   36.7788   81.9724 N   0  0  0  0  0  0
   20.9859   35.3573   86.8870 Cl  0  0  0  0  0  0
   18.5902   38.2271   82.8841 Cl  0  0  0  0  0  0
   28.9109   39.1754   84.3232 C   0  0  0  0  0  0
   31.8743   36.1487   81.1017 C   0  0  0  0  0  0
   17.5183   37.3385   86.6226 C   0  0  0  0  0  0
   17.5363   37.8208   85.3176 C   0  0  0  0  0  0
   18.6053   36.6191   87.1077 C   0  0  0  0  0  0
   33.1445   35.9352   83.1362 C   0  0  0  0  0  0
   34.1127   37.0041   81.2362 C   0  0  0  0  0  0
   20.6360   35.7992   83.6036 H   0  0  0  0  0  0
   26.7198   39.7452   85.5207 H   0  0  0  0  0  0
   30.6298   37.4466   83.1901 H   0  0  0  0  0  0
   24.7412   35.0653   82.7271 H   0  0  0  0  0  0
   24.3777   39.7685   86.1320 H   0  0  0  0  0  0
   29.7323   35.6873   80.8870 H   0  0  0  0  0  0
   21.8677   35.4217   82.2262 H   0  0  0  0  0  0
   23.4263   35.8202   81.5797 H   0  0  0  0  0  0
   23.2392   34.4997   82.7825 H   0  0  0  0  0  0
   28.4173   40.1415   84.2185 H   0  0  0  0  0  0
   29.1536   39.0259   85.3762 H   0  0  0  0  0  0
   29.8406   39.2860   83.7701 H   0  0  0  0  0  0
   31.8793   36.6224   80.1166 H   0  0  0  0  0  0
   32.1347   35.1101   80.8872 H   0  0  0  0  0  0
   16.6493   37.5028   87.2435 H   0  0  0  0  0  0
   16.6769   38.3567   84.9395 H   0  0  0  0  0  0
   18.5573   36.1962   88.0992 H   0  0  0  0  0  0
   32.2320   35.7331   83.6965 H   0  0  0  0  0  0
   33.8433   36.4257   83.8157 H   0  0  0  0  0  0
   33.5744   34.9740   82.8478 H   0  0  0  0  0  0
   33.9403   37.6615   80.3824 H   0  0  0  0  0  0
   34.8567   37.4869   81.8709 H   0  0  0  0  0  0
   34.5369   36.0690   80.8644 H   0  0  0  0  0  0
  1  3  2  0  0  0
  1  4  1  0  0  0
  1  7  1  0  0  0
  2  5  1  0  0  0
  2  9  1  0  0  0
  2  6  2  0  0  0
  3  5  1  0  0  0
  3 10  1  0  0  0
  4  8  2  0  0  0
  4 16  1  0  0  0
  5 21  1  0  0  0
  6 10  1  0  0  0
  7 12  1  0  0  0
  7 14  2  0  0  0
  8 11  1  0  0  0
  9 13  1  0  0  0
  9 32  1  0  0  0
 10 17  2  0  0  0
 11 12  2  0  0  0
 11 15  1  0  0  0
 12 25  1  0  0  0
 13 18  2  0  0  0
 13 19  1  0  0  0
 14 17  1  0  0  0
 14 33  1  0  0  0
 15 20  2  0  0  0
 15 34  1  0  0  0
 16 35  1  0  0  0
 17 36  1  0  0  0
 18 24  1  0  0  0
 18 28  1  0  0  0
 19 23  1  0  0  0
 19 29  2  0  0  0
 20 26  1  0  0  0
 20 37  1  0  0  0
 21 38  1  0  0  0
 21 39  1  0  0  0
 21 40  1  0  0  0
 22 26  1  0  0  0
 22 30  1  0  0  0
 22 31  1  0  0  0
 25 41  1  0  0  0
 25 42  1  0  0  0
 25 43  1  0  0  0
 26 44  1  0  0  0
 26 45  1  0  0  0
 27 29  1  0  0  0
 27 28  2  0  0  0
 27 46  1  0  0  0
 28 47  1  0  0  0
 29 48  1  0  0  0
 30 49  1  0  0  0
 30 50  1  0  0  0
 30 51  1  0  0  0
 31 52  1  0  0  0
 31 53  1  0  0  0
 31 54  1  0  0  0
M  END
> <s_m_entry_id>
4693

> <s_m_entry_name>
dock_pv.181

> <s_m_Source_Path>
/home/csk/Desktop/cluster/DUD-E-result/lck

> <s_m_Source_File>
dock_pv.maegz

> <i_m_Source_File_Index>
181

> <chembl_id>
CHEMBL287175

> <chembl_pref_name>
None

> <i_lp_mmshare_version>
53161

> <i_f3d_flags>
0

> <r_lp_tautomer_probability>
1

> <s_lp_Force_Field>
OPLS_2005

> <r_lp_Energy>
35.735793

> <b_lp_Chiralities_Consistent>
1

> <s_lp_Variant>
CHEMBL258_lig565-1

> <s_i_glide_gridfile>
glide-grid_2of2

> <i_i_glide_lignum>
638

> <i_i_glide_rotatable_bonds>
6

> <r_i_docking_score>
-7.24541543795677

> <r_i_glide_ligand_efficiency>
-0.233723078643767

> <r_i_glide_ligand_efficiency_sa>
-0.734213156428455

> <r_i_glide_ligand_efficiency_ln>
-1.63406322657579

> <r_i_glide_gscore>
-7.24541543795677

> <r_i_glide_lipo>
-3.48679082383502

> <r_i_glide_hbond>
-0.369628753298329

> <r_i_glide_metal>
0

> <r_i_glide_rewards>
-0.990483161907343

> <r_i_glide_evdw>
-44.5937042236328

> <r_i_glide_ecoul>
-3.69863152503967

> <r_i_glide_erotb>
0.385967241021515

> <r_i_glide_esite>
0

> <r_i_glide_emodel>
-66.8804437918211

> <r_i_glide_energy>
-48.2923357486725

> <r_i_glide_einternal>
1.5900057554245

> <i_i_glide_confnum>
10

> <i_i_glide_posenum>
396

> <r_i_glide_eff_state_penalty>
0

> <s_user_duplicate_titles>
CHEMBL258_lig565,37563

> <s_m_subgroup_title>
dock_pv

> <s_m_subgroupid>
dock_pv

> <b_m_subgroup_collapsed>
1

$$$$
CHEMBL258_lig396
                    3D
 Schrodinger Suite 2021-1.
 37 40  0  0  1  0            999 V2000
   23.5069   36.4555   83.6880 C   0  0  0  0  0  0
   22.4622   37.0709   84.4011 C   0  0  0  0  0  0
   24.7891   36.9676   83.9076 N   0  0  0  0  0  0
   22.6783   38.1334   85.2208 N   0  0  0  0  0  0
   25.0520   38.0158   84.7192 C   0  0  0  0  0  0
   21.1527   36.6209   84.2151 N   0  0  0  0  0  0
   23.9391   38.6216   85.3648 C   0  0  0  0  0  0
   24.9817   35.2895   82.4451 N   0  0  0  0  0  0
   20.0206   36.8528   85.0171 C   0  0  0  0  0  0
   25.6345   36.2039   83.1315 C   0  0  0  0  0  0
   23.7061   35.4211   82.7401 C   0  0  0  0  0  0
   26.3649   38.5176   84.9397 C   0  0  0  0  0  0
   18.9442   37.5994   84.5026 C   0  0  0  0  0  0
   19.9267   36.3084   86.3172 C   0  0  0  0  0  0
   24.1583   39.7437   86.1955 C   0  0  0  0  0  0
   26.5450   39.6084   85.7883 C   0  0  0  0  0  0
   18.9493   38.2209   82.8872 Cl  0  0  0  0  0  0
   27.8290   40.0891   86.0295 N   0  0  0  0  0  0
   25.4531   40.2217   86.4008 C   0  0  0  0  0  0
   17.7441   37.3336   86.5805 C   0  0  0  0  0  0
   17.8170   37.8370   85.2869 C   0  0  0  0  0  0
   18.7827   36.5558   87.0822 C   0  0  0  0  0  0
   20.9978   35.3751   86.8833 C   0  0  0  0  0  0
   21.0600   35.8400   83.5840 H   0  0  0  0  0  0
   26.6999   36.3697   83.0932 H   0  0  0  0  0  0
   22.9626   34.7766   82.2939 H   0  0  0  0  0  0
   27.2177   38.0581   84.4631 H   0  0  0  0  0  0
   23.3150   40.2129   86.6803 H   0  0  0  0  0  0
   28.6263   39.6042   85.6448 H   0  0  0  0  0  0
   27.9611   40.8478   86.6801 H   0  0  0  0  0  0
   25.6039   41.0708   87.0506 H   0  0  0  0  0  0
   16.8687   37.5287   87.1842 H   0  0  0  0  0  0
   16.9938   38.4215   84.8992 H   0  0  0  0  0  0
   18.6862   36.1337   88.0710 H   0  0  0  0  0  0
   21.8523   35.9473   87.2449 H   0  0  0  0  0  0
   20.6223   34.7325   87.6864 H   0  0  0  0  0  0
   21.3502   34.6990   86.1018 H   0  0  0  0  0  0
  1  2  1  0  0  0
  1  3  1  0  0  0
  1 11  2  0  0  0
  2  4  2  0  0  0
  2  6  1  0  0  0
  3  5  1  0  0  0
  3 10  1  0  0  0
  4  7  1  0  0  0
  5  7  1  0  0  0
  5 12  2  0  0  0
  6  9  1  0  0  0
  6 24  1  0  0  0
  7 15  2  0  0  0
  8 11  1  0  0  0
  8 10  2  0  0  0
  9 13  1  0  0  0
  9 14  2  0  0  0
 10 25  1  0  0  0
 11 26  1  0  0  0
 12 16  1  0  0  0
 12 27  1  0  0  0
 13 17  1  0  0  0
 13 21  2  0  0  0
 14 22  1  0  0  0
 14 23  1  0  0  0
 15 19  1  0  0  0
 15 28  1  0  0  0
 16 18  1  0  0  0
 16 19  2  0  0  0
 18 29  1  0  0  0
 18 30  1  0  0  0
 19 31  1  0  0  0
 20 22  2  0  0  0
 20 21  1  0  0  0
 20 32  1  0  0  0
 21 33  1  0  0  0
 22 34  1  0  0  0
 23 35  1  0  0  0
 23 36  1  0  0  0
 23 37  1  0  0  0
M  END
> <s_m_entry_id>
4694

> <s_m_entry_name>
dock_pv.182

> <s_m_Source_Path>
/home/csk/Desktop/cluster/DUD-E-result/lck

> <s_m_Source_File>
dock_pv.maegz

> <i_m_Source_File_Index>
182

> <chembl_id>
CHEMBL319199

> <chembl_pref_name>
None

> <i_lp_mmshare_version>
53161

> <i_f3d_flags>
0

> <r_lp_tautomer_probability>
1

> <s_lp_Force_Field>
OPLS_2005

> <r_lp_Energy>
59.72964

> <b_lp_Chiralities_Consistent>
1

> <s_lp_Variant>
CHEMBL258_lig396-1

> <s_i_glide_gridfile>
glide-grid_2of2

> <i_i_glide_lignum>
437

> <i_i_glide_rotatable_bonds>
2

> <r_i_docking_score>
-7.23721232852709

> <r_i_glide_ligand_efficiency>
-0.314661405588134

> <r_i_glide_ligand_efficiency_sa>
-0.894855180250505

> <r_i_glide_ligand_efficiency_ln>
-1.75002356445106

> <r_i_glide_gscore>
-7.23721232852709

> <r_i_glide_lipo>
-2.58627913551172

> <r_i_glide_hbond>
-0.0458418289768451

> <r_i_glide_metal>
0

> <r_i_glide_rewards>
-2.79529788744163

> <r_i_glide_evdw>
-35.2587509155273

> <r_i_glide_ecoul>
-2.69313549995422

> <r_i_glide_erotb>
0.357114394172605

> <r_i_glide_esite>
0

> <r_i_glide_emodel>
-53.3281457864005

> <r_i_glide_energy>
-37.9518864154816

> <r_i_glide_einternal>
1.39882242679596

> <i_i_glide_confnum>
2

> <i_i_glide_posenum>
294

> <r_i_glide_eff_state_penalty>
0

> <s_user_duplicate_titles>
CHEMBL258_lig396,176338

> <s_m_subgroup_title>
dock_pv

> <s_m_subgroupid>
dock_pv

> <b_m_subgroup_collapsed>
1

$$$$
CHEMBL258_lig1059
                    3D
 Schrodinger Suite 2021-1.
 30 32  0  0  1  0            999 V2000
   23.2606   38.6658   85.5153 C   0  0  0  0  0  0
   23.4858   39.8004   86.2528 O   0  0  0  0  0  0
   21.9534   38.1941   85.5019 C   0  0  0  0  0  0
   21.6240   37.0510   84.7934 C   0  0  0  0  0  0
   20.3236   36.6210   84.7961 O   0  0  0  0  0  0
   22.6110   36.3706   84.0868 C   0  0  0  0  0  0
   23.9407   36.8330   84.0635 C   0  0  0  0  0  0
   24.9480   36.1065   83.2089 C   0  0  0  0  0  0
   24.6292   35.1418   82.5028 O   0  0  0  0  0  0
   26.3576   36.6210   83.2322 C   0  0  0  0  0  0
   27.3322   35.9334   82.4871 C   0  0  0  0  0  0
   28.6701   36.3178   82.5099 C   0  0  0  0  0  0
   29.7172   35.5446   81.7249 C   0  0  0  0  0  0
   29.0435   37.4207   83.2728 C   0  0  0  0  0  0
   28.0967   38.1447   83.9906 C   0  0  0  0  0  0
   28.5661   39.2292   84.6878 O   0  0  0  0  0  0
   26.7346   37.7580   83.9925 C   0  0  0  0  0  0
   25.7039   38.5179   84.7960 C   0  0  0  0  0  0
   26.0154   39.5228   85.4425 O   0  0  0  0  0  0
   24.2827   37.9994   84.7968 C   0  0  0  0  0  0
   24.4067   40.0765   86.1949 H   0  0  0  0  0  0
   21.1852   38.7212   86.0491 H   0  0  0  0  0  0
   20.1928   35.7114   84.4899 H   0  0  0  0  0  0
   22.3274   35.4892   83.5279 H   0  0  0  0  0  0
   27.0630   35.0685   81.8960 H   0  0  0  0  0  0
   29.3234   34.6218   81.2957 H   0  0  0  0  0  0
   30.1202   36.1584   80.9187 H   0  0  0  0  0  0
   30.5490   35.2717   82.3754 H   0  0  0  0  0  0
   30.0794   37.7277   83.2980 H   0  0  0  0  0  0
   27.8612   39.6782   85.1664 H   0  0  0  0  0  0
  1  2  1  0  0  0
  1  3  2  0  0  0
  1 20  1  0  0  0
  2 21  1  0  0  0
  3  4  1  0  0  0
  3 22  1  0  0  0
  4  5  1  0  0  0
  4  6  2  0  0  0
  5 23  1  0  0  0
  6  7  1  0  0  0
  6 24  1  0  0  0
  7  8  1  0  0  0
  7 20  2  0  0  0
  8  9  2  0  0  0
  8 10  1  0  0  0
 10 11  2  0  0  0
 10 17  1  0  0  0
 11 12  1  0  0  0
 11 25  1  0  0  0
 12 13  1  0  0  0
 12 14  2  0  0  0
 13 26  1  0  0  0
 13 27  1  0  0  0
 13 28  1  0  0  0
 14 15  1  0  0  0
 14 29  1  0  0  0
 15 16  1  0  0  0
 15 17  2  0  0  0
 16 30  1  0  0  0
 17 18  1  0  0  0
 18 19  2  0  0  0
 18 20  1  0  0  0
M  END
> <s_m_entry_id>
4695

> <s_m_entry_name>
dock_pv.183

> <s_m_Source_Path>
/home/csk/Desktop/cluster/DUD-E-result/lck

> <s_m_Source_File>
dock_pv.maegz

> <i_m_Source_File_Index>
183

> <chembl_id>
CHEMBL289277

> <chembl_pref_name>
EMODIN

> <i_lp_mmshare_version>
53161

> <i_f3d_flags>
0

> <r_lp_tautomer_probability>
1

> <s_lp_Force_Field>
OPLS_2005

> <r_lp_Energy>
27.586177

> <b_lp_Chiralities_Consistent>
1

> <s_lp_Variant>
CHEMBL258_lig1059-1

> <s_i_glide_gridfile>
glide-grid_2of2

> <i_i_glide_lignum>
1147

> <i_i_glide_rotatable_bonds>
3

> <r_i_docking_score>
-7.23118996505549

> <r_i_glide_ligand_efficiency>
-0.361559498252775

> <r_i_glide_ligand_efficiency_sa>
-0.98142347052452

> <r_i_glide_ligand_efficiency_ln>
-1.80972834764621

> <r_i_glide_gscore>
-7.23118996505549

> <r_i_glide_lipo>
-2.24692112682692

> <r_i_glide_hbond>
-0.32

> <r_i_glide_metal>
0

> <r_i_glide_rewards>
-2.26456385737835

> <r_i_glide_evdw>
-29.2621784210205

> <r_i_glide_ecoul>
-6.24397373199463

> <r_i_glide_erotb>
0

> <r_i_glide_esite>
0

> <r_i_glide_emodel>
-51.2418632299177

> <r_i_glide_energy>
-35.5061521530151

> <r_i_glide_einternal>
0.744740664958954

> <i_i_glide_confnum>
1

> <i_i_glide_posenum>
357

> <r_i_glide_eff_state_penalty>
0

> <s_user_duplicate_titles>
CHEMBL258_lig1059

> <s_m_subgroup_title>
dock_pv

> <s_m_subgroupid>
dock_pv

> <b_m_subgroup_collapsed>
1

$$$$
CHEMBL258_lig193
                    3D
 Schrodinger Suite 2021-1.
 27 30  0  0  1  0            999 V2000
   24.4085   36.5499   83.6867 C   0  0  0  0  0  0
   25.7507   36.8266   83.4038 N   0  0  0  0  0  0
   24.4151   38.4678   85.1573 N   0  0  0  0  0  0
   23.7702   37.4085   84.5971 C   0  0  0  0  0  0
   26.4381   37.8491   83.9610 C   0  0  0  0  0  0
   25.7257   38.6895   84.8614 C   0  0  0  0  0  0
   22.3336   37.2293   85.0580 C   0  0  0  0  0  0
   25.1678   35.0391   82.1978 N   0  0  0  0  0  0
   26.1459   35.8692   82.4925 C   0  0  0  0  0  0
   24.1118   35.4231   82.8818 C   0  0  0  0  0  0
   21.2897   38.3099   84.8812 C   0  0  0  0  0  0
   21.1814   37.0186   84.0992 C   0  0  0  0  0  0
   27.8098   38.1002   83.6870 C   0  0  0  0  0  0
   26.4025   39.7733   85.4672 C   0  0  0  0  0  0
   28.4438   39.1758   84.3057 C   0  0  0  0  0  0
   27.7489   40.0032   85.1851 C   0  0  0  0  0  0
   22.2704   36.6583   85.9847 H   0  0  0  0  0  0
   27.1440   35.8257   82.0827 H   0  0  0  0  0  0
   23.1681   34.9037   82.7887 H   0  0  0  0  0  0
   21.5770   39.2269   84.3640 H   0  0  0  0  0  0
   20.5952   38.4985   85.7006 H   0  0  0  0  0  0
   20.4138   36.2926   84.3720 H   0  0  0  0  0  0
   21.3730   37.0240   83.0258 H   0  0  0  0  0  0
   28.3651   37.4659   83.0116 H   0  0  0  0  0  0
   25.8666   40.4149   86.1513 H   0  0  0  0  0  0
   29.4878   39.3699   84.1059 H   0  0  0  0  0  0
   28.2617   40.8297   85.6557 H   0  0  0  0  0  0
  1  2  1  0  0  0
  1  4  1  0  0  0
  1 10  2  0  0  0
  2  5  1  0  0  0
  2  9  1  0  0  0
  3  4  2  0  0  0
  3  6  1  0  0  0
  4  7  1  0  0  0
  5 13  2  0  0  0
  5  6  1  0  0  0
  6 14  2  0  0  0
  7 11  1  0  0  0
  7 12  1  0  0  0
  7 17  1  0  0  0
  8 10  1  0  0  0
  8  9  2  0  0  0
  9 18  1  0  0  0
 10 19  1  0  0  0
 11 12  1  0  0  0
 11 20  1  0  0  0
 11 21  1  0  0  0
 12 22  1  0  0  0
 12 23  1  0  0  0
 13 15  1  0  0  0
 13 24  1  0  0  0
 14 16  1  0  0  0
 14 25  1  0  0  0
 15 16  2  0  0  0
 15 26  1  0  0  0
 16 27  1  0  0  0
M  END
> <s_m_entry_id>
4696

> <s_m_entry_name>
dock_pv.184

> <s_m_Source_Path>
/home/csk/Desktop/cluster/DUD-E-result/lck

> <s_m_Source_File>
dock_pv.maegz

> <i_m_Source_File_Index>
184

> <chembl_id>
CHEMBL84608

> <chembl_pref_name>
None

> <i_lp_mmshare_version>
53161

> <i_f3d_flags>
0

> <r_lp_tautomer_probability>
1

> <s_lp_Force_Field>
OPLS_2005

> <r_lp_Energy>
53.267273

> <b_lp_Chiralities_Consistent>
1

> <s_lp_Variant>
CHEMBL258_lig193-1

> <s_i_glide_gridfile>
glide-grid_2of2

> <i_i_glide_lignum>
221

> <i_i_glide_rotatable_bonds>
1

> <r_i_docking_score>
-7.23084507472435

> <r_i_glide_ligand_efficiency>
-0.451927817170272

> <r_i_glide_ligand_efficiency_sa>
-1.13878673871927

> <r_i_glide_ligand_efficiency_ln>
-1.91667992646477

> <r_i_glide_gscore>
-7.23084507472435

> <r_i_glide_lipo>
-2.159079944151

> <r_i_glide_hbond>
-0.32

> <r_i_glide_metal>
0

> <r_i_glide_rewards>
-3.53793302188153

> <r_i_glide_evdw>
-24.703052520752

> <r_i_glide_ecoul>
-2.38199305534363

> <r_i_glide_erotb>
0.378619475647315

> <r_i_glide_esite>
0

> <r_i_glide_emodel>
-38.8215678274097

> <r_i_glide_energy>
-27.0850455760956

> <r_i_glide_einternal>
0.208611398935318

> <i_i_glide_confnum>
2

> <i_i_glide_posenum>
394

> <r_i_glide_eff_state_penalty>
0

> <s_user_duplicate_titles>
CHEMBL258_lig193

> <s_m_subgroup_title>
dock_pv

> <s_m_subgroupid>
dock_pv

> <b_m_subgroup_collapsed>
1

$$$$
CHEMBL258_lig1078
                    3D
 Schrodinger Suite 2021-1.
 28 30  0  0  1  0            999 V2000
   23.6296   37.2561   84.4903 C   0  0  0  0  0  0
   23.7864   36.2195   83.6392 C   0  0  0  0  0  0
   25.0521   35.9207   82.9867 C   0  0  0  0  0  0
   25.2075   35.0199   82.1649 O   0  0  0  0  0  0
   26.1512   36.8406   83.3908 C   0  0  0  0  0  0
   27.4469   36.6977   82.8790 C   0  0  0  0  0  0
   28.4598   37.5646   83.2871 C   0  0  0  0  0  0
   28.1910   38.5848   84.1947 C   0  0  0  0  0  0
   26.9084   38.7417   84.7090 C   0  0  0  0  0  0
   25.8987   37.8726   84.3067 C   0  0  0  0  0  0
   24.6499   38.0793   84.8557 O   0  0  0  0  0  0
   22.3647   37.6013   85.1902 C   0  0  0  0  0  0
   21.4017   36.6207   85.4715 C   0  0  0  0  0  0
   20.1992   36.9603   86.0861 C   0  0  0  0  0  0
   19.9464   38.2881   86.4205 C   0  0  0  0  0  0
   20.8899   39.2753   86.1522 C   0  0  0  0  0  0
   22.0934   38.9315   85.5405 C   0  0  0  0  0  0
   29.1944   39.4252   84.5830 O   0  0  0  0  0  0
   22.9399   35.5966   83.3968 H   0  0  0  0  0  0
   27.6803   35.9141   82.1677 H   0  0  0  0  0  0
   29.4598   37.4448   82.8954 H   0  0  0  0  0  0
   26.6819   39.5250   85.4144 H   0  0  0  0  0  0
   21.5738   35.5847   85.2169 H   0  0  0  0  0  0
   19.4641   36.1952   86.2920 H   0  0  0  0  0  0
   19.0084   38.5555   86.8860 H   0  0  0  0  0  0
   20.6855   40.3057   86.4070 H   0  0  0  0  0  0
   22.8107   39.7104   85.3240 H   0  0  0  0  0  0
   28.9177   40.0611   85.2452 H   0  0  0  0  0  0
  1  2  2  0  0  0
  1 11  1  0  0  0
  1 12  1  0  0  0
  2  3  1  0  0  0
  2 19  1  0  0  0
  3  4  2  0  0  0
  3  5  1  0  0  0
  5  6  1  0  0  0
  5 10  2  0  0  0
  6  7  2  0  0  0
  6 20  1  0  0  0
  7  8  1  0  0  0
  7 21  1  0  0  0
  8  9  2  0  0  0
  8 18  1  0  0  0
  9 10  1  0  0  0
  9 22  1  0  0  0
 10 11  1  0  0  0
 12 13  1  0  0  0
 12 17  2  0  0  0
 13 14  2  0  0  0
 13 23  1  0  0  0
 14 15  1  0  0  0
 14 24  1  0  0  0
 15 16  2  0  0  0
 15 25  1  0  0  0
 16 17  1  0  0  0
 16 26  1  0  0  0
 17 27  1  0  0  0
 18 28  1  0  0  0
M  END
> <s_m_entry_id>
4697

> <s_m_entry_name>
dock_pv.185

> <s_m_Source_Path>
/home/csk/Desktop/cluster/DUD-E-result/lck

> <s_m_Source_File>
dock_pv.maegz

> <i_m_Source_File_Index>
185

> <chembl_id>
CHEMBL276915

> <chembl_pref_name>
7-HYDROXYFLAVONE

> <i_lp_mmshare_version>
53161

> <i_f3d_flags>
0

> <r_lp_tautomer_probability>
1

> <s_lp_Force_Field>
OPLS_2005

> <r_lp_Energy>
11.925655

> <b_lp_Chiralities_Consistent>
1

> <s_lp_Variant>
CHEMBL258_lig1078-1

> <s_i_glide_gridfile>
glide-grid_2of2

> <i_i_glide_lignum>
1166

> <i_i_glide_rotatable_bonds>
2

> <r_i_docking_score>
-7.22434960072496

> <r_i_glide_ligand_efficiency>
-0.401352755595831

> <r_i_glide_ligand_efficiency_sa>
-1.0518417792564

> <r_i_glide_ligand_efficiency_ln>
-1.85698181312928

> <r_i_glide_gscore>
-7.22434960072496

> <r_i_glide_lipo>
-2.76245764875914

> <r_i_glide_hbond>
-0.32

> <r_i_glide_metal>
0

> <r_i_glide_rewards>
-2.3521284627327

> <r_i_glide_evdw>
-27.6073226928711

> <r_i_glide_ecoul>
-4.75625658035278

> <r_i_glide_erotb>
0.304041132463358

> <r_i_glide_esite>
0

> <r_i_glide_emodel>
-46.8682899842587

> <r_i_glide_energy>
-32.3635792732239

> <r_i_glide_einternal>
0.183529779314995

> <i_i_glide_confnum>
1

> <i_i_glide_posenum>
355

> <r_i_glide_eff_state_penalty>
0

> <s_user_duplicate_titles>
CHEMBL258_lig1078

> <s_m_subgroup_title>
dock_pv

> <s_m_subgroupid>
dock_pv

> <b_m_subgroup_collapsed>
1

$$$$
CHEMBL258_lig1044
                    3D
 Schrodinger Suite 2021-1.
 25 27  0  0  1  0            999 V2000
   24.8971   36.0334   83.1896 C   0  0  0  0  0  0
   26.3030   36.5585   83.2186 C   0  0  0  0  0  0
   23.8861   36.7666   84.0340 C   0  0  0  0  0  0
   24.2368   37.9323   84.7597 C   0  0  0  0  0  0
   26.6596   37.6976   83.9809 C   0  0  0  0  0  0
   25.6445   38.4560   84.7847 C   0  0  0  0  0  0
   27.2987   35.8901   82.4870 C   0  0  0  0  0  0
   22.5500   36.3262   84.0625 C   0  0  0  0  0  0
   28.6252   36.3103   82.5236 C   0  0  0  0  0  0
   28.0009   38.1142   83.9983 C   0  0  0  0  0  0
   23.2399   38.6266   85.4635 C   0  0  0  0  0  0
   24.5868   35.0639   82.4870 O   0  0  0  0  0  0
   21.5751   37.0356   84.7638 C   0  0  0  0  0  0
   25.9520   39.4561   85.4390 O   0  0  0  0  0  0
   28.9762   37.4210   83.2870 C   0  0  0  0  0  0
   21.9209   38.1864   85.4590 C   0  0  0  0  0  0
   20.2711   36.6210   84.7726 O   0  0  0  0  0  0
   27.0612   35.0201   81.8903 H   0  0  0  0  0  0
   22.2551   35.4431   83.5123 H   0  0  0  0  0  0
   29.3769   35.7741   81.9612 H   0  0  0  0  0  0
   28.3060   38.9753   84.5780 H   0  0  0  0  0  0
   23.4758   39.5249   86.0181 H   0  0  0  0  0  0
   30.0051   37.7488   83.3204 H   0  0  0  0  0  0
   21.1657   38.7384   85.9992 H   0  0  0  0  0  0
   20.1500   35.7032   84.4870 H   0  0  0  0  0  0
  1  2  1  0  0  0
  1  3  1  0  0  0
  1 12  2  0  0  0
  2  5  2  0  0  0
  2  7  1  0  0  0
  3  4  1  0  0  0
  3  8  2  0  0  0
  4  6  1  0  0  0
  4 11  2  0  0  0
  5 10  1  0  0  0
  5  6  1  0  0  0
  6 14  2  0  0  0
  7  9  2  0  0  0
  7 18  1  0  0  0
  8 13  1  0  0  0
  8 19  1  0  0  0
  9 15  1  0  0  0
  9 20  1  0  0  0
 10 15  2  0  0  0
 10 21  1  0  0  0
 11 16  1  0  0  0
 11 22  1  0  0  0
 13 16  2  0  0  0
 13 17  1  0  0  0
 15 23  1  0  0  0
 16 24  1  0  0  0
 17 25  1  0  0  0
M  END
> <s_m_entry_id>
4698

> <s_m_entry_name>
dock_pv.186

> <s_m_Source_Path>
/home/csk/Desktop/cluster/DUD-E-result/lck

> <s_m_Source_File>
dock_pv.maegz

> <i_m_Source_File_Index>
186

> <chembl_id>
CHEMBL446963

> <chembl_pref_name>
2-HYDROXYANTHRAQUINONE

> <i_lp_mmshare_version>
53161

> <i_f3d_flags>
0

> <r_lp_tautomer_probability>
1

> <s_lp_Force_Field>
OPLS_2005

> <r_lp_Energy>
18.738358

> <b_lp_Chiralities_Consistent>
1

> <s_lp_Variant>
CHEMBL258_lig1044-1

> <s_i_glide_gridfile>
glide-grid_2of2

> <i_i_glide_lignum>
1132

> <i_i_glide_rotatable_bonds>
1

> <r_i_docking_score>
-7.22159937945114

> <r_i_glide_ligand_efficiency>
-0.424799963497126

> <r_i_glide_ligand_efficiency_sa>
-1.0922803248209

> <r_i_glide_ligand_efficiency_ln>
-1.8839544609874

> <r_i_glide_gscore>
-7.22159937945114

> <r_i_glide_lipo>
-2.08908300514038

> <r_i_glide_hbond>
-0.334062445208302

> <r_i_glide_metal>
0

> <r_i_glide_rewards>
-2.58549890724424

> <r_i_glide_evdw>
-24.4921398162842

> <r_i_glide_ecoul>
-6.58898687362671

> <r_i_glide_erotb>
0

> <r_i_glide_esite>
0

> <r_i_glide_emodel>
-44.7227964923085

> <r_i_glide_energy>
-31.0811266899109

> <r_i_glide_einternal>
0.553552448749542

> <i_i_glide_confnum>
1

> <i_i_glide_posenum>
5

> <r_i_glide_eff_state_penalty>
0

> <s_user_duplicate_titles>
CHEMBL258_lig1044

> <s_m_subgroup_title>
dock_pv

> <s_m_subgroupid>
dock_pv

> <b_m_subgroup_collapsed>
1

$$$$
CHEMBL258_lig205
                    3D
 Schrodinger Suite 2021-1.
 35 38  0  0  1  0            999 V2000
   26.3452   36.9593   83.3718 N   0  0  0  0  0  0
   24.9844   36.9228   83.6870 C   0  0  0  0  0  0
   24.5224   37.9133   84.5721 C   0  0  0  0  0  0
   25.3569   38.8501   85.0950 N   0  0  0  0  0  0
   26.5518   35.9216   82.4898 C   0  0  0  0  0  0
   25.4414   35.2599   82.2443 N   0  0  0  0  0  0
   27.2101   37.8654   83.8785 C   0  0  0  0  0  0
   24.4726   35.8431   82.9200 C   0  0  0  0  0  0
   23.1535   37.9324   84.8849 N   0  0  0  0  0  0
   26.6766   38.8358   84.7699 C   0  0  0  0  0  0
   22.3057   38.8342   85.5561 C   0  0  0  0  0  0
   20.9301   38.8261   85.2537 C   0  0  0  0  0  0
   20.2587   37.7297   84.0897 Cl  0  0  0  0  0  0
   28.5955   37.8795   83.5607 C   0  0  0  0  0  0
   23.0351   35.4210   82.7612 C   0  0  0  0  0  0
   27.5411   39.8070   85.3251 C   0  0  0  0  0  0
   22.7812   39.7587   86.4966 C   0  0  0  0  0  0
   20.0633   39.7211   85.8865 C   0  0  0  0  0  0
   29.4158   38.8550   84.1226 C   0  0  0  0  0  0
   28.8957   39.8076   84.9957 C   0  0  0  0  0  0
   21.9119   40.6544   87.1205 C   0  0  0  0  0  0
   20.5532   40.6362   86.8143 C   0  0  0  0  0  0
   27.5189   35.6975   82.0657 H   0  0  0  0  0  0
   22.6412   37.2241   84.3825 H   0  0  0  0  0  0
   29.0190   37.1445   82.8913 H   0  0  0  0  0  0
   22.5889   35.0698   83.6872 H   0  0  0  0  0  0
   22.9500   34.6214   82.0363 H   0  0  0  0  0  0
   22.3990   36.2210   82.3947 H   0  0  0  0  0  0
   27.1395   40.5438   86.0033 H   0  0  0  0  0  0
   23.8246   39.7928   86.7670 H   0  0  0  0  0  0
   19.0078   39.7140   85.6530 H   0  0  0  0  0  0
   30.4682   38.8689   83.8840 H   0  0  0  0  0  0
   29.5504   40.5515   85.4265 H   0  0  0  0  0  0
   22.2938   41.3722   87.8315 H   0  0  0  0  0  0
   19.8826   41.3420   87.2826 H   0  0  0  0  0  0
  1  2  1  0  0  0
  1  5  1  0  0  0
  1  7  1  0  0  0
  2  3  1  0  0  0
  2  8  2  0  0  0
  3  9  1  0  0  0
  3  4  2  0  0  0
  4 10  1  0  0  0
  5  6  2  0  0  0
  5 23  1  0  0  0
  6  8  1  0  0  0
  7 10  1  0  0  0
  7 14  2  0  0  0
  8 15  1  0  0  0
  9 11  1  0  0  0
  9 24  1  0  0  0
 10 16  2  0  0  0
 11 12  1  0  0  0
 11 17  2  0  0  0
 12 13  1  0  0  0
 12 18  2  0  0  0
 14 19  1  0  0  0
 14 25  1  0  0  0
 15 26  1  0  0  0
 15 27  1  0  0  0
 15 28  1  0  0  0
 16 20  1  0  0  0
 16 29  1  0  0  0
 17 21  1  0  0  0
 17 30  1  0  0  0
 18 22  1  0  0  0
 18 31  1  0  0  0
 19 20  2  0  0  0
 19 32  1  0  0  0
 20 33  1  0  0  0
 21 22  2  0  0  0
 21 34  1  0  0  0
 22 35  1  0  0  0
M  END
> <s_m_entry_id>
4699

> <s_m_entry_name>
dock_pv.187

> <s_m_Source_Path>
/home/csk/Desktop/cluster/DUD-E-result/lck

> <s_m_Source_File>
dock_pv.maegz

> <i_m_Source_File_Index>
187

> <chembl_id>
CHEMBL28134

> <chembl_pref_name>
None

> <i_lp_mmshare_version>
53161

> <i_f3d_flags>
0

> <r_lp_tautomer_probability>
1

> <s_lp_Force_Field>
OPLS_2005

> <r_lp_Energy>
55.440887

> <b_lp_Chiralities_Consistent>
1

> <s_lp_Variant>
CHEMBL258_lig205-1

> <s_i_glide_gridfile>
glide-grid_2of2

> <i_i_glide_lignum>
233

> <i_i_glide_rotatable_bonds>
2

> <r_i_docking_score>
-7.22024784190779

> <r_i_glide_ligand_efficiency>
-0.328193083723081

> <r_i_glide_ligand_efficiency_sa>
-0.919609927693632

> <r_i_glide_ligand_efficiency_ln>
-1.76489193750134

> <r_i_glide_gscore>
-7.22024784190779

> <r_i_glide_lipo>
-2.65758027169887

> <r_i_glide_hbond>
-0.205576823232504

> <r_i_glide_metal>
0

> <r_i_glide_rewards>
-2.74351373461731

> <r_i_glide_evdw>
-33.5931129455566

> <r_i_glide_ecoul>
-2.14771246910095

> <r_i_glide_erotb>
0.388235505283872

> <r_i_glide_esite>
0

> <r_i_glide_emodel>
-50.6742138607137

> <r_i_glide_energy>
-35.7408254146576

> <r_i_glide_einternal>
1.86195862293243

> <i_i_glide_confnum>
2

> <i_i_glide_posenum>
369

> <r_i_glide_eff_state_penalty>
0

> <s_user_duplicate_titles>
CHEMBL258_lig205,39772

> <s_m_subgroup_title>
dock_pv

> <s_m_subgroupid>
dock_pv

> <b_m_subgroup_collapsed>
1

$$$$
CHEMBL258_lig115
                    3D
 Schrodinger Suite 2021-1.
 34 36  0  0  1  0            999 V2000
   24.1594   36.8774   83.8567 C   0  0  0  0  0  0
   25.0814   36.0445   83.0725 C   0  0  0  0  0  0
   24.9352   38.0184   84.3676 C   0  0  0  0  0  0
   26.4053   36.6724   83.1588 C   0  0  0  0  0  0
   26.3230   37.8116   83.9359 C   0  0  0  0  0  0
   22.8337   36.6047   84.0089 C   0  0  0  0  0  0
   27.4600   38.5780   84.1961 C   0  0  0  0  0  0
   21.0426   38.5141   86.7796 C   0  0  0  0  0  0
   27.6295   36.2745   82.6103 C   0  0  0  0  0  0
   21.7870   37.3124   84.7934 C   0  0  0  0  0  0
   24.7666   35.0215   82.4611 O   0  0  0  0  0  0
   24.4939   38.9600   85.0245 O   0  0  0  0  0  0
   19.7685   38.6781   86.2163 C   0  0  0  0  0  0
   22.0279   37.8236   86.0747 C   0  0  0  0  0  0
   19.4986   38.1337   84.9590 C   0  0  0  0  0  0
   28.7935   37.0170   82.8910 C   0  0  0  0  0  0
   28.6892   38.1659   83.6826 C   0  0  0  0  0  0
   20.5007   37.4541   84.2573 C   0  0  0  0  0  0
   21.3500   39.0253   88.0173 O   0  0  0  0  0  0
   18.7918   39.3725   86.8885 O   0  0  0  0  0  0
   30.0584   36.6945   82.4425 O   0  0  0  0  0  0
   30.2492   35.5061   81.6779 C   0  0  0  0  0  0
   22.4549   35.7194   83.5108 H   0  0  0  0  0  0
   27.4073   39.4732   84.7985 H   0  0  0  0  0  0
   27.6788   35.3807   82.0061 H   0  0  0  0  0  0
   22.9922   37.6845   86.5305 H   0  0  0  0  0  0
   18.5142   38.2398   84.5264 H   0  0  0  0  0  0
   29.5782   38.7421   83.8961 H   0  0  0  0  0  0
   20.2730   37.0421   83.2866 H   0  0  0  0  0  0
   22.2920   39.0019   88.2055 H   0  0  0  0  0  0
   17.9221   39.4238   86.4785 H   0  0  0  0  0  0
   31.3153   35.3692   81.4871 H   0  0  0  0  0  0
   29.8970   34.6223   82.2121 H   0  0  0  0  0  0
   29.7501   35.5672   80.7117 H   0  0  0  0  0  0
  1  2  1  0  0  0
  1  3  1  0  0  0
  1  6  2  0  0  0
  2  4  1  0  0  0
  2 11  2  0  0  0
  3  5  1  0  0  0
  3 12  2  0  0  0
  4  9  2  0  0  0
  4  5  1  0  0  0
  5  7  2  0  0  0
  6 10  1  0  0  0
  6 23  1  0  0  0
  7 17  1  0  0  0
  7 24  1  0  0  0
  8 14  2  0  0  0
  8 19  1  0  0  0
  8 13  1  0  0  0
  9 16  1  0  0  0
  9 25  1  0  0  0
 10 14  1  0  0  0
 10 18  2  0  0  0
 13 15  2  0  0  0
 13 20  1  0  0  0
 14 26  1  0  0  0
 15 18  1  0  0  0
 15 27  1  0  0  0
 16 21  1  0  0  0
 16 17  2  0  0  0
 17 28  1  0  0  0
 18 29  1  0  0  0
 19 30  1  0  0  0
 20 31  1  0  0  0
 21 22  1  0  0  0
 22 32  1  0  0  0
 22 33  1  0  0  0
 22 34  1  0  0  0
M  END
> <s_m_entry_id>
4700

> <s_m_entry_name>
dock_pv.188

> <s_m_Source_Path>
/home/csk/Desktop/cluster/DUD-E-result/lck

> <s_m_Source_File>
dock_pv.maegz

> <i_m_Source_File_Index>
188

> <chembl_id>
CHEMBL83161

> <chembl_pref_name>
None

> <i_lp_mmshare_version>
53161

> <i_f3d_flags>
0

> <r_lp_tautomer_probability>
1

> <s_lp_Force_Field>
OPLS_2005

> <r_lp_Energy>
32.94016

> <b_lp_Chiralities_Consistent>
1

> <s_lp_Variant>
CHEMBL258_lig115-1

> <s_i_glide_gridfile>
glide-grid_2of2

> <i_i_glide_lignum>
136

> <i_i_glide_rotatable_bonds>
4

> <r_i_docking_score>
-7.21890655599917

> <r_i_glide_ligand_efficiency>
-0.328132116181781

> <r_i_glide_ligand_efficiency_sa>
-0.91943909424519

> <r_i_glide_ligand_efficiency_ln>
-1.76456407830068

> <r_i_glide_gscore>
-7.21890655599917

> <r_i_glide_lipo>
-2.64044811486009

> <r_i_glide_hbond>
-0.0916736570540614

> <r_i_glide_metal>
0

> <r_i_glide_rewards>
-2.16898873099881

> <r_i_glide_evdw>
-33.7111320495605

> <r_i_glide_ecoul>
-5.60611581802368

> <r_i_glide_erotb>
0.20867792209537

> <r_i_glide_esite>
0

> <r_i_glide_emodel>
-56.4540237230016

> <r_i_glide_energy>
-39.3172478675842

> <r_i_glide_einternal>
3.80678772926331

> <i_i_glide_confnum>
4

> <i_i_glide_posenum>
232

> <r_i_glide_eff_state_penalty>
0

> <s_user_duplicate_titles>
CHEMBL258_lig115

> <s_m_subgroup_title>
dock_pv

> <s_m_subgroupid>
dock_pv

> <b_m_subgroup_collapsed>
1

$$$$
CHEMBL258_lig815
                    3D
 Schrodinger Suite 2021-1.
 38 41  0  0  1  0            999 V2000
   28.4905   37.1984   83.2871 N   0  0  0  0  0  0
   29.5142   38.0526   83.5403 C   0  0  0  0  0  0
   29.3046   39.3625   83.9738 C   0  0  0  0  0  0
   27.9832   39.7820   84.1478 C   0  0  0  0  0  0
   26.9363   38.9414   83.9129 N   0  0  0  0  0  0
   27.2342   37.6753   83.5041 C   0  0  0  0  0  0
   26.1543   36.8096   83.1944 N   0  0  0  0  0  0
   26.1676   35.7851   82.2646 C   0  0  0  0  0  0
   25.0232   35.1813   82.0870 N   0  0  0  0  0  0
   24.8633   36.8029   83.7097 C   0  0  0  0  0  0
   24.1757   35.8211   82.9441 C   0  0  0  0  0  0
   22.7929   35.6532   83.1079 C   0  0  0  0  0  0
   22.1469   36.3978   84.0934 C   0  0  0  0  0  0
   22.8467   37.3039   84.8865 C   0  0  0  0  0  0
   24.2128   37.5336   84.7127 C   0  0  0  0  0  0
   27.7783   41.1150   84.5415 N   0  0  0  0  0  0
   26.6473   41.8985   84.8441 C   0  0  0  0  0  0
   25.4003   41.3278   85.1273 C   0  0  0  0  0  0
   24.2954   42.1206   85.4193 C   0  0  0  0  0  0
   24.4207   43.5052   85.4454 C   0  0  0  0  0  0
   25.6577   44.0928   85.1874 C   0  0  0  0  0  0
   26.7731   43.3024   84.8870 C   0  0  0  0  0  0
   28.0936   44.0026   84.5794 C   0  0  0  0  0  0
   23.1026   41.5412   85.6824 F   0  0  0  0  0  0
   30.5131   37.6713   83.3838 H   0  0  0  0  0  0
   30.1387   40.0228   84.1617 H   0  0  0  0  0  0
   27.0742   35.5704   81.7142 H   0  0  0  0  0  0
   22.2413   34.9610   82.4938 H   0  0  0  0  0  0
   21.0850   36.2662   84.2494 H   0  0  0  0  0  0
   22.3140   37.8555   85.6482 H   0  0  0  0  0  0
   24.7346   38.2409   85.3323 H   0  0  0  0  0  0
   28.6381   41.6356   84.6258 H   0  0  0  0  0  0
   25.2660   40.2643   85.1333 H   0  0  0  0  0  0
   23.5581   44.1206   85.6581 H   0  0  0  0  0  0
   25.7365   45.1699   85.1991 H   0  0  0  0  0  0
   28.7977   43.8814   85.4015 H   0  0  0  0  0  0
   28.5497   43.5765   83.6873 H   0  0  0  0  0  0
   27.9618   45.0653   84.3772 H   0  0  0  0  0  0
  1  6  1  0  0  0
  1  2  2  0  0  0
  2  3  1  0  0  0
  2 25  1  0  0  0
  3  4  2  0  0  0
  3 26  1  0  0  0
  4 16  1  0  0  0
  4  5  1  0  0  0
  5  6  2  0  0  0
  6  7  1  0  0  0
  7  8  1  0  0  0
  7 10  1  0  0  0
  8  9  2  0  0  0
  8 27  1  0  0  0
  9 11  1  0  0  0
 10 15  1  0  0  0
 10 11  2  0  0  0
 11 12  1  0  0  0
 12 13  2  0  0  0
 12 28  1  0  0  0
 13 14  1  0  0  0
 13 29  1  0  0  0
 14 15  2  0  0  0
 14 30  1  0  0  0
 15 31  1  0  0  0
 16 17  1  0  0  0
 16 32  1  0  0  0
 17 18  2  0  0  0
 17 22  1  0  0  0
 18 19  1  0  0  0
 18 33  1  0  0  0
 19 20  2  0  0  0
 19 24  1  0  0  0
 20 21  1  0  0  0
 20 34  1  0  0  0
 21 22  2  0  0  0
 21 35  1  0  0  0
 22 23  1  0  0  0
 23 36  1  0  0  0
 23 37  1  0  0  0
 23 38  1  0  0  0
M  END
> <s_m_entry_id>
4701

> <s_m_entry_name>
dock_pv.189

> <s_m_Source_Path>
/home/csk/Desktop/cluster/DUD-E-result/lck

> <s_m_Source_File>
dock_pv.maegz

> <i_m_Source_File_Index>
189

> <chembl_id>
CHEMBL374311

> <chembl_pref_name>
None

> <i_lp_mmshare_version>
53161

> <i_f3d_flags>
0

> <r_lp_tautomer_probability>
1

> <s_lp_Force_Field>
OPLS_2005

> <r_lp_Energy>
11.326766

> <b_lp_Chiralities_Consistent>
1

> <s_lp_Variant>
CHEMBL258_lig815-1

> <s_i_glide_gridfile>
glide-grid_2of2

> <i_i_glide_lignum>
900

> <i_i_glide_rotatable_bonds>
3

> <r_i_docking_score>
-7.20923452711977

> <r_i_glide_ligand_efficiency>
-0.300384771963324

> <r_i_glide_ligand_efficiency_sa>
-0.8664596156641

> <r_i_glide_ligand_efficiency_ln>
-1.72550063255633

> <r_i_glide_gscore>
-7.20923452711977

> <r_i_glide_lipo>
-1.83469077250172

> <r_i_glide_hbond>
-0.30907858237685

> <r_i_glide_metal>
0

> <r_i_glide_rewards>
-3.2344987068624

> <r_i_glide_evdw>
-30.7759647369385

> <r_i_glide_ecoul>
-5.53137302398682

> <r_i_glide_erotb>
0.548880898460469

> <r_i_glide_esite>
-0.0113431733943188

> <r_i_glide_emodel>
-52.4500089415418

> <r_i_glide_energy>
-36.3073377609253

> <r_i_glide_einternal>
0.544043779373169

> <i_i_glide_confnum>
1

> <i_i_glide_posenum>
134

> <r_i_glide_eff_state_penalty>
0

> <s_user_duplicate_titles>
CHEMBL258_lig815

> <s_m_subgroup_title>
dock_pv

> <s_m_subgroupid>
dock_pv

> <b_m_subgroup_collapsed>
1

$$$$
CHEMBL258_lig1413
                    3D
 Schrodinger Suite 2021-1.
 46 49  0  0  1  0            999 V2000
   25.2448   35.4205   82.0936 N   0  0  0  0  0  0
   23.9581   35.3488   82.4873 C   0  0  0  0  0  0
   23.3514   36.0778   83.4448 N   0  0  0  0  0  0
   24.0845   37.0211   84.0886 C   0  0  0  0  0  0
   25.9318   36.3752   82.7389 N   0  0  0  0  0  0
   25.4435   37.2424   83.7502 C   0  0  0  0  0  0
   26.5054   38.1291   84.1187 C   0  0  0  0  0  0
   27.5848   37.7348   83.3201 C   0  0  0  0  0  0
   27.2372   36.6803   82.4886 C   0  0  0  0  0  0
   23.4317   37.8268   85.0413 N   0  0  0  0  0  0
   22.1113   37.7910   85.5313 C   0  0  0  0  0  0
   26.4330   39.2433   85.1556 C   0  0  0  0  0  0
   27.4747   40.2653   84.9863 N   0  0  1  0  0  0
   26.9932   41.5964   85.3884 C   0  0  0  0  0  0
   28.0583   42.6885   85.1588 C   0  0  0  0  0  0
   29.3797   42.3575   85.8684 C   0  0  0  0  0  0
   29.8294   40.9540   85.4400 C   0  0  0  0  0  0
   28.7258   39.9026   85.6757 C   0  0  0  0  0  0
   30.3982   43.3728   85.6872 N   0  0  0  0  0  0
   21.3709   36.6045   85.6319 C   0  0  0  0  0  0
   20.0544   36.6214   86.0873 C   0  0  0  0  0  0
   19.4582   37.8226   86.4643 C   0  0  0  0  0  0
   20.1955   39.0088   86.4058 C   0  0  0  0  0  0
   21.5160   38.9888   85.9436 C   0  0  0  0  0  0
   19.4850   40.5043   86.8968 Cl  0  0  0  0  0  0
   18.1709   37.8212   86.8847 F   0  0  0  0  0  0
   23.3488   34.6202   81.9753 H   0  0  0  0  0  0
   28.5589   38.2006   83.3325 H   0  0  0  0  0  0
   27.8096   36.1491   81.7406 H   0  0  0  0  0  0
   23.9860   38.6004   85.3736 H   0  0  0  0  0  0
   26.4547   38.8360   86.1696 H   0  0  0  0  0  0
   25.4571   39.7196   85.0567 H   0  0  0  0  0  0
   26.6805   41.5738   86.4337 H   0  0  0  0  0  0
   26.1031   41.8449   84.8087 H   0  0  0  0  0  0
   27.6712   43.6404   85.5221 H   0  0  0  0  0  0
   28.2102   42.8169   84.0869 H   0  0  0  0  0  0
   29.1545   42.2964   86.9336 H   0  0  0  0  0  0
   30.1240   40.9350   84.3891 H   0  0  0  0  0  0
   30.7150   40.6658   86.0058 H   0  0  0  0  0  0
   28.5415   39.7816   86.7443 H   0  0  0  0  0  0
   29.0803   38.9353   85.3226 H   0  0  0  0  0  0
   30.5573   43.5116   84.6878 H   0  0  0  0  0  0
   30.0551   44.2601   86.0173 H   0  0  0  0  0  0
   21.7971   35.6543   85.3523 H   0  0  0  0  0  0
   19.4950   35.6988   86.1392 H   0  0  0  0  0  0
   22.0683   39.9161   85.8876 H   0  0  0  0  0  0
  1  5  1  0  0  0
  1  2  2  0  0  0
  2  3  1  0  0  0
  2 27  1  0  0  0
  3  4  2  0  0  0
  4  6  1  0  0  0
  4 10  1  0  0  0
  5  9  1  0  0  0
  5  6  1  0  0  0
  6  7  2  0  0  0
  7  8  1  0  0  0
  7 12  1  0  0  0
  8  9  2  0  0  0
  8 28  1  0  0  0
  9 29  1  0  0  0
 10 11  1  0  0  0
 10 30  1  0  0  0
 11 20  2  0  0  0
 11 24  1  0  0  0
 12 13  1  0  0  0
 12 31  1  0  0  0
 12 32  1  0  0  0
 13 14  1  0  0  0
 13 18  1  0  0  0
 14 15  1  0  0  0
 14 33  1  0  0  0
 14 34  1  0  0  0
 15 16  1  0  0  0
 15 35  1  0  0  0
 15 36  1  0  0  0
 16 17  1  0  0  0
 16 19  1  0  0  0
 16 37  1  0  0  0
 17 18  1  0  0  0
 17 38  1  0  0  0
 17 39  1  0  0  0
 18 40  1  0  0  0
 18 41  1  0  0  0
 19 42  1  0  0  0
 19 43  1  0  0  0
 20 21  1  0  0  0
 20 44  1  0  0  0
 21 22  2  0  0  0
 21 45  1  0  0  0
 22 23  1  0  0  0
 22 26  1  0  0  0
 23 24  2  0  0  0
 23 25  1  0  0  0
 24 46  1  0  0  0
M  END
> <s_m_entry_id>
4702

> <s_m_entry_name>
dock_pv.190

> <s_m_Source_Path>
/home/csk/Desktop/cluster/DUD-E-result/lck

> <s_m_Source_File>
dock_pv.maegz

> <i_m_Source_File_Index>
190

> <chembl_id>
CHEMBL1645476

> <chembl_pref_name>
None

> <i_lp_mmshare_version>
53161

> <i_f3d_flags>
0

> <r_lp_tautomer_probability>
1

> <s_lp_Force_Field>
OPLS_2005

> <r_lp_Energy>
34.87079

> <b_lp_Chiralities_Consistent>
1

> <s_lp_Variant>
CHEMBL258_lig1413-1

> <s_i_glide_gridfile>
glide-grid_2of2

> <i_i_glide_lignum>
1572

> <i_i_glide_rotatable_bonds>
4

> <r_i_docking_score>
-7.20899017679672

> <r_i_glide_ligand_efficiency>
-0.27726885295372

> <r_i_glide_ligand_efficiency_sa>
-0.821407885875142

> <r_i_glide_ligand_efficiency_ln>
-1.69300768839458

> <r_i_glide_gscore>
-7.20899017679672

> <r_i_glide_lipo>
-2.18620958297981

> <r_i_glide_hbond>
-0.355626734213803

> <r_i_glide_metal>
0

> <r_i_glide_rewards>
-2.46362794288185

> <r_i_glide_evdw>
-34.8187255859375

> <r_i_glide_ecoul>
-6.75452184677124

> <r_i_glide_erotb>
0.550588639591302

> <r_i_glide_esite>
0

> <r_i_glide_emodel>
-57.9389946364024

> <r_i_glide_energy>
-41.5732474327087

> <r_i_glide_einternal>
2.7906231880188

> <i_i_glide_confnum>
9

> <i_i_glide_posenum>
47

> <r_i_glide_eff_state_penalty>
0

> <s_user_duplicate_titles>
CHEMBL258_lig1413

> <s_m_subgroup_title>
dock_pv

> <s_m_subgroupid>
dock_pv

> <b_m_subgroup_collapsed>
1

$$$$
CHEMBL258_lig7
                    3D
 Schrodinger Suite 2021-1.
 34 36  0  0  1  0            999 V2000
   20.9011   39.5225   86.1722 C   0  0  0  0  0  0
   18.5500   39.4195   85.8265 N   0  0  0  0  0  0
   19.8963   38.1663   84.4993 N   0  0  0  0  0  0
   19.5489   39.9004   86.6083 C   0  0  0  0  0  0
   21.0426   38.4580   85.1613 C   0  0  0  0  0  0
   18.6383   38.6174   84.7343 C   0  0  0  0  0  0
   25.3179   39.5413   85.6338 C   0  0  0  0  0  0
   26.0877   38.6704   84.6879 C   0  0  0  0  0  0
   21.9445   40.2314   86.7008 C   0  0  0  0  0  0
   23.9631   39.4505   85.5589 O   0  0  0  0  0  0
   23.3944   40.2125   86.5204 C   0  0  0  0  0  0
   25.3949   37.5815   84.1464 C   0  0  0  0  0  0
   25.6302   40.4430   86.6406 C   0  0  0  0  0  0
   25.9891   36.6999   83.2423 C   0  0  0  0  0  0
   25.2108   35.5363   82.6894 C   0  0  0  0  0  0
   24.4186   40.8752   87.1856 C   0  0  0  0  0  0
   27.4304   38.8600   84.3185 C   0  0  0  0  0  0
   19.2918   40.6005   87.5856 O   0  0  0  0  0  0
   22.0416   37.8092   84.8807 O   0  0  0  0  0  0
   17.6821   38.3220   84.0263 O   0  0  0  0  0  0
   25.7506   34.6210   82.0872 O   0  0  0  0  0  0
   27.3274   36.9037   82.8872 C   0  0  0  0  0  0
   28.0412   37.9714   83.4311 C   0  0  0  0  0  0
   23.8633   35.5807   82.8870 O   0  0  0  0  0  0
   28.3755   40.1762   84.9215 Cl  0  0  0  0  0  0
   17.6087   39.7132   86.0870 H   0  0  0  0  0  0
   19.9862   37.4874   83.7606 H   0  0  0  0  0  0
   21.7093   40.9980   87.4289 H   0  0  0  0  0  0
   24.3731   37.4070   84.4428 H   0  0  0  0  0  0
   26.6174   40.7430   86.9588 H   0  0  0  0  0  0
   24.3008   41.5765   87.9991 H   0  0  0  0  0  0
   27.8256   36.2307   82.2006 H   0  0  0  0  0  0
   29.0775   38.1117   83.1597 H   0  0  0  0  0  0
   23.4320   34.8235   82.4863 H   0  0  0  0  0  0
  1  4  1  0  0  0
  1  5  1  0  0  0
  1  9  2  0  0  0
  2  4  1  0  0  0
  2  6  1  0  0  0
  2 26  1  0  0  0
  3  5  1  0  0  0
  3  6  1  0  0  0
  3 27  1  0  0  0
  4 18  2  0  0  0
  5 19  2  0  0  0
  6 20  2  0  0  0
  7 10  1  0  0  0
  7  8  1  0  0  0
  7 13  2  0  0  0
  8 12  1  0  0  0
  8 17  2  0  0  0
  9 11  1  0  0  0
  9 28  1  0  0  0
 10 11  1  0  0  0
 11 16  2  0  0  0
 12 14  2  0  0  0
 12 29  1  0  0  0
 13 16  1  0  0  0
 13 30  1  0  0  0
 14 15  1  0  0  0
 14 22  1  0  0  0
 15 21  2  0  0  0
 15 24  1  0  0  0
 16 31  1  0  0  0
 17 23  1  0  0  0
 17 25  1  0  0  0
 22 23  2  0  0  0
 22 32  1  0  0  0
 23 33  1  0  0  0
 24 34  1  0  0  0
M  END
> <s_m_entry_id>
4703

> <s_m_entry_name>
dock_pv.191

> <s_m_Source_Path>
/home/csk/Desktop/cluster/DUD-E-result/lck

> <s_m_Source_File>
dock_pv.maegz

> <i_m_Source_File_Index>
191

> <chembl_id>
CHEMBL119053

> <chembl_pref_name>
None

> <i_lp_mmshare_version>
53161

> <i_f3d_flags>
0

> <r_lp_tautomer_probability>
1

> <s_lp_Force_Field>
OPLS_2005

> <r_lp_Energy>
23.586268

> <b_lp_Chiralities_Consistent>
1

> <s_lp_Variant>
CHEMBL258_lig7-1

> <s_i_glide_gridfile>
glide-grid_2of2

> <i_i_glide_lignum>
8

> <i_i_glide_rotatable_bonds>
4

> <r_i_docking_score>
-7.20866695900258

> <r_i_glide_ligand_efficiency>
-0.288346678360103

> <r_i_glide_ligand_efficiency_sa>
-0.843130801375057

> <r_i_glide_ligand_efficiency_ln>
-1.70867009560012

> <r_i_glide_gscore>
-7.20866695900258

> <r_i_glide_lipo>
-1.65348151387342

> <r_i_glide_hbond>
-0.555537278686141

> <r_i_glide_metal>
0

> <r_i_glide_rewards>
-2.44637062419579

> <r_i_glide_evdw>
-35.8938255310059

> <r_i_glide_ecoul>
-7.50394821166992

> <r_i_glide_erotb>
0.442294875434903

> <r_i_glide_esite>
-0.0752889093813512

> <r_i_glide_emodel>
-62.25538950087

> <r_i_glide_energy>
-43.3977737426758

> <r_i_glide_einternal>
1.1746940612793

> <i_i_glide_confnum>
5

> <i_i_glide_posenum>
344

> <r_i_glide_eff_state_penalty>
0

> <s_user_duplicate_titles>
CHEMBL258_lig7

> <s_m_subgroup_title>
dock_pv

> <s_m_subgroupid>
dock_pv

> <b_m_subgroup_collapsed>
1

$$$$
CHEMBL258_lig333
                    3D
 Schrodinger Suite 2021-1.
 79 83  0  0  1  0            999 V2000
   27.3436   37.4942   83.5019 C   0  0  0  0  0  0
   24.8052   36.9763   83.8036 C   0  0  0  0  0  0
   21.1952   39.7456   86.7006 S   0  0  0  0  0  0
   24.5652   35.8210   82.9348 C   0  0  0  0  0  0
   25.9776   37.6298   84.0038 C   0  0  0  0  0  0
   27.7524   36.4114   82.7701 N   0  0  0  0  0  0
   28.4556   38.3365   83.6496 C   0  0  0  0  0  0
   23.5093   37.3198   84.3874 C   0  0  0  0  0  0
   23.2344   35.6178   82.9655 N   0  0  0  0  0  0
   29.5497   37.6999   83.0177 C   0  0  0  0  0  0
   29.0969   36.4699   82.5464 C   0  0  0  0  0  0
   22.5806   36.4850   83.8139 C   0  0  0  0  0  0
   21.7386   38.4535   85.5855 C   0  0  0  0  0  0
   23.0999   38.3110   85.2870 C   0  0  0  0  0  0
   33.4756   41.0839   83.9313 N   0  0  0  0  0  0
   31.1736   41.3697   85.6878 N   0  0  0  0  0  0
   19.7658   39.5409   86.9564 O   0  0  0  0  0  0
   22.1498   39.8045   87.8108 O   0  0  0  0  0  0
   34.7464   41.3495   81.7233 C   0  0  0  0  0  0
   21.3501   41.2292   85.7815 N   0  0  2  0  0  0
   25.3520   35.1483   82.2679 O   0  0  0  0  0  0
   21.2219   36.6210   84.0881 C   0  0  0  0  0  0
   20.8017   37.6035   84.9852 C   0  0  0  0  0  0
   34.7616   41.3602   83.2738 C   0  0  0  0  0  0
   35.7692   41.6356   81.0961 O   0  0  0  0  0  0
   32.5504   42.2207   83.8294 C   0  0  0  0  0  0
   33.6168   40.7939   85.3684 C   0  0  0  0  0  0
   31.1634   41.7176   84.2677 C   0  0  0  0  0  0
   32.2446   40.3997   85.9937 C   0  0  0  0  0  0
   28.4858   39.6989   84.3258 C   0  0  0  0  0  0
   31.0100   38.1250   82.8562 C   0  0  0  0  0  0
   33.5492   41.0216   81.1580 O   0  0  0  0  0  0
   29.9104   35.4227   81.8105 C   0  0  0  0  0  0
   29.8393   41.0054   86.1926 C   0  0  0  0  0  0
   29.2184   39.6680   85.6870 C   0  0  0  0  0  0
   22.6176   41.9832   85.7700 C   0  0  0  0  0  0
   33.3558   41.0266   79.7467 C   0  0  0  0  0  0
   31.8909   36.9156   82.4628 C   0  0  0  0  0  0
   31.2453   36.0544   81.3607 C   0  0  0  0  0  0
   33.7499   39.6788   79.1275 C   0  0  0  0  0  0
   25.9126   38.4658   84.6828 H   0  0  0  0  0  0
   27.1448   35.6505   82.4834 H   0  0  0  0  0  0
   22.7790   34.8892   82.4334 H   0  0  0  0  0  0
   23.8189   38.9779   85.7383 H   0  0  0  0  0  0
   20.4930   41.7824   85.6875 H   0  0  0  0  0  0
   20.4933   35.9762   83.6218 H   0  0  0  0  0  0
   19.7468   37.7062   85.1992 H   0  0  0  0  0  0
   35.4866   40.6122   83.5941 H   0  0  0  0  0  0
   35.1457   42.3227   83.6149 H   0  0  0  0  0  0
   32.8707   43.0584   84.4521 H   0  0  0  0  0  0
   32.5091   42.6086   82.8128 H   0  0  0  0  0  0
   34.3187   39.9697   85.5013 H   0  0  0  0  0  0
   34.0390   41.6511   85.8962 H   0  0  0  0  0  0
   30.9163   40.8535   83.6572 H   0  0  0  0  0  0
   30.3937   42.4724   84.1074 H   0  0  0  0  0  0
   31.9976   39.3957   85.6605 H   0  0  0  0  0  0
   32.3498   40.3371   87.0776 H   0  0  0  0  0  0
   27.4797   40.0876   84.4842 H   0  0  0  0  0  0
   28.9278   40.4166   83.6417 H   0  0  0  0  0  0
   31.0954   38.8935   82.0882 H   0  0  0  0  0  0
   31.3972   38.5705   83.7685 H   0  0  0  0  0  0
   30.1322   34.6155   82.5060 H   0  0  0  0  0  0
   29.3719   34.9767   80.9740 H   0  0  0  0  0  0
   29.8611   41.0212   87.2832 H   0  0  0  0  0  0
   29.1658   41.8230   85.9286 H   0  0  0  0  0  0
   29.9924   38.9069   85.6450 H   0  0  0  0  0  0
   28.5147   39.3116   86.4401 H   0  0  0  0  0  0
   22.5720   42.7492   84.9946 H   0  0  0  0  0  0
   22.7487   42.4897   86.7281 H   0  0  0  0  0  0
   23.4611   41.3207   85.5773 H   0  0  0  0  0  0
   33.9011   41.8481   79.2756 H   0  0  0  0  0  0
   32.2982   41.2111   79.5538 H   0  0  0  0  0  0
   32.0806   36.2949   83.3398 H   0  0  0  0  0  0
   32.8683   37.2721   82.1334 H   0  0  0  0  0  0
   31.9352   35.2681   81.0493 H   0  0  0  0  0  0
   31.0743   36.6712   80.4794 H   0  0  0  0  0  0
   33.5502   39.6760   78.0553 H   0  0  0  0  0  0
   33.1774   38.8631   79.5729 H   0  0  0  0  0  0
   34.8105   39.4663   79.2728 H   0  0  0  0  0  0
  1  5  1  0  0  0
  1  6  1  0  0  0
  1  7  2  0  0  0
  2  5  2  0  0  0
  2  4  1  0  0  0
  2  8  1  0  0  0
  3 13  1  0  0  0
  3 17  2  0  0  0
  3 18  2  0  0  0
  3 20  1  0  0  0
  4  9  1  0  0  0
  4 21  2  0  0  0
  5 41  1  0  0  0
  6 11  1  0  0  0
  6 42  1  0  0  0
  7 10  1  0  0  0
  7 30  1  0  0  0
  8 12  1  0  0  0
  8 14  2  0  0  0
  9 12  1  0  0  0
  9 43  1  0  0  0
 10 31  1  0  0  0
 10 11  2  0  0  0
 11 33  1  0  0  0
 12 22  2  0  0  0
 13 14  1  0  0  0
 13 23  2  0  0  0
 14 44  1  0  0  0
 15 27  1  0  0  0
 15 24  1  0  0  0
 15 26  1  0  0  0
 16 34  1  0  0  0
 16 28  1  0  0  0
 16 29  1  0  0  0
 19 24  1  0  0  0
 19 25  2  0  0  0
 19 32  1  0  0  0
 20 36  1  0  0  0
 20 45  1  0  0  0
 22 23  1  0  0  0
 22 46  1  0  0  0
 23 47  1  0  0  0
 24 48  1  0  0  0
 24 49  1  0  0  0
 26 28  1  0  0  0
 26 50  1  0  0  0
 26 51  1  0  0  0
 27 29  1  0  0  0
 27 52  1  0  0  0
 27 53  1  0  0  0
 28 54  1  0  0  0
 28 55  1  0  0  0
 29 56  1  0  0  0
 29 57  1  0  0  0
 30 35  1  0  0  0
 30 58  1  0  0  0
 30 59  1  0  0  0
 31 38  1  0  0  0
 31 60  1  0  0  0
 31 61  1  0  0  0
 32 37  1  0  0  0
 33 39  1  0  0  0
 33 62  1  0  0  0
 33 63  1  0  0  0
 34 35  1  0  0  0
 34 64  1  0  0  0
 34 65  1  0  0  0
 35 66  1  0  0  0
 35 67  1  0  0  0
 36 68  1  0  0  0
 36 69  1  0  0  0
 36 70  1  0  0  0
 37 40  1  0  0  0
 37 71  1  0  0  0
 37 72  1  0  0  0
 38 39  1  0  0  0
 38 73  1  0  0  0
 38 74  1  0  0  0
 39 75  1  0  0  0
 39 76  1  0  0  0
 40 77  1  0  0  0
 40 78  1  0  0  0
 40 79  1  0  0  0
M  END
> <s_m_entry_id>
4704

> <s_m_entry_name>
dock_pv.192

> <s_m_Source_Path>
/home/csk/Desktop/cluster/DUD-E-result/lck

> <s_m_Source_File>
dock_pv.maegz

> <i_m_Source_File_Index>
192

> <chembl_id>
CHEMBL291759

> <chembl_pref_name>
None

> <i_lp_mmshare_version>
53161

> <i_f3d_flags>
0

> <r_lp_tautomer_probability>
1

> <s_lp_Force_Field>
OPLS_2005

> <r_lp_Energy>
62.682064

> <b_lp_Chiralities_Consistent>
1

> <s_lp_Variant>
CHEMBL258_lig333-1

> <s_i_glide_gridfile>
glide-grid_2of2

> <i_i_glide_lignum>
371

> <i_i_glide_rotatable_bonds>
11

> <r_i_docking_score>
-7.20736744060926

> <r_i_glide_ligand_efficiency>
-0.180184186015232

> <r_i_glide_ligand_efficiency_sa>
-0.616221247357409

> <r_i_glide_ligand_efficiency_ln>
-1.53711937172658

> <r_i_glide_gscore>
-7.20736744060926

> <r_i_glide_lipo>
-2.61310452767416

> <r_i_glide_hbond>
-0.323489778864477

> <r_i_glide_metal>
0

> <r_i_glide_rewards>
-1.13300781105383

> <r_i_glide_evdw>
-42.1875

> <r_i_glide_ecoul>
-8.99433326721191

> <r_i_glide_erotb>
0.341862849328123

> <r_i_glide_esite>
-0.0211031822631274

> <r_i_glide_emodel>
-66.7099350212246

> <r_i_glide_energy>
-51.1818332672119

> <r_i_glide_einternal>
11.826244354248

> <i_i_glide_confnum>
5

> <i_i_glide_posenum>
113

> <r_i_glide_eff_state_penalty>
0

> <s_user_duplicate_titles>
CHEMBL258_lig333,86531

> <s_m_subgroup_title>
dock_pv

> <s_m_subgroupid>
dock_pv

> <b_m_subgroup_collapsed>
1

$$$$
CHEMBL258_lig630
                    3D
 Schrodinger Suite 2021-1.
 56 58  0  0  1  0            999 V2000
   27.1872   38.2218   84.3306 C   0  0  0  0  0  0
   27.7727   37.4208   83.3362 C   0  0  0  0  0  0
   26.9868   36.4706   82.6634 C   0  0  0  0  0  0
   25.8578   38.0220   84.6994 C   0  0  0  0  0  0
   25.0338   37.1121   83.9949 C   0  0  0  0  0  0
   25.6176   36.3111   82.9670 C   0  0  0  0  0  0
   24.8793   35.4212   82.2433 N   0  0  0  0  0  0
   23.5489   35.4075   82.4984 C   0  0  0  0  0  0
   22.8902   36.1115   83.4445 N   0  0  0  0  0  0
   23.6291   36.9595   84.1982 C   0  0  0  0  0  0
   22.9656   37.7796   85.1321 N   0  0  0  0  0  0
   21.6226   37.9634   85.5164 C   0  0  0  0  0  0
   20.5977   37.0608   85.2014 C   0  0  0  0  0  0
   19.2794   37.3291   85.5653 C   0  0  0  0  0  0
   18.9638   38.5022   86.2463 C   0  0  0  0  0  0
   19.9725   39.4046   86.5778 C   0  0  0  0  0  0
   21.2986   39.1343   86.2211 C   0  0  0  0  0  0
   29.1193   37.5967   83.0702 O   0  0  0  0  0  0
   27.9906   39.3130   85.0447 C   0  0  0  0  0  0
   29.8304   36.5839   82.3585 C   0  0  0  0  0  0
   19.5674   40.8544   87.4239 Cl  0  0  0  0  0  0
   22.2734   40.0204   86.5512 F   0  0  0  0  0  0
   27.6680   40.6831   84.5756 N   0  0  1  0  0  0
   26.3847   41.2496   85.1430 C   0  0  1  0  0  0
   26.2415   41.3172   86.6855 C   0  0  0  0  0  0
   25.9770   42.6096   84.5035 C   0  0  0  0  0  0
   24.9504   42.6210   83.6527 N   0  0  0  0  0  0
   26.5519   43.6458   84.8267 O   0  0  0  0  0  0
   28.8624   41.5541   84.4535 C   0  0  0  0  0  0
   29.8258   41.0196   83.3718 C   0  0  0  0  0  0
   29.5957   41.8182   85.7840 C   0  0  0  0  0  0
   27.4035   35.8548   81.8799 H   0  0  0  0  0  0
   25.4340   38.5991   85.5069 H   0  0  0  0  0  0
   22.9509   34.7276   81.9126 H   0  0  0  0  0  0
   23.5765   38.4557   85.5637 H   0  0  0  0  0  0
   20.7963   36.1372   84.6833 H   0  0  0  0  0  0
   18.5042   36.6218   85.3158 H   0  0  0  0  0  0
   17.9368   38.7085   86.5162 H   0  0  0  0  0  0
   29.0474   39.0861   84.9199 H   0  0  0  0  0  0
   27.8429   39.2287   86.1205 H   0  0  0  0  0  0
   30.8962   36.8098   82.3799 H   0  0  0  0  0  0
   29.6936   35.5996   82.8095 H   0  0  0  0  0  0
   29.5304   36.5352   81.3110 H   0  0  0  0  0  0
   25.5817   40.5879   84.8306 H   0  0  0  0  0  0
   25.2666   41.7141   86.9724 H   0  0  0  0  0  0
   26.3131   40.3344   87.1498 H   0  0  0  0  0  0
   26.9862   41.9590   87.1505 H   0  0  0  0  0  0
   24.6431   43.5173   83.2846 H   0  0  0  0  0  0
   24.4541   41.7769   83.4184 H   0  0  0  0  0  0
   28.5522   42.5213   84.0656 H   0  0  0  0  0  0
   30.5120   41.8075   83.0583 H   0  0  0  0  0  0
   30.4362   40.1873   83.7201 H   0  0  0  0  0  0
   29.2853   40.6868   82.4869 H   0  0  0  0  0  0
   30.4761   42.4393   85.6162 H   0  0  0  0  0  0
   28.9714   42.3590   86.4913 H   0  0  0  0  0  0
   29.9351   40.8981   86.2611 H   0  0  0  0  0  0
  1  2  2  0  0  0
  1 19  1  0  0  0
  1  4  1  0  0  0
  2 18  1  0  0  0
  2  3  1  0  0  0
  3  6  2  0  0  0
  3 32  1  0  0  0
  4  5  2  0  0  0
  4 33  1  0  0  0
  5 10  1  0  0  0
  5  6  1  0  0  0
  6  7  1  0  0  0
  7  8  2  0  0  0
  8  9  1  0  0  0
  8 34  1  0  0  0
  9 10  2  0  0  0
 10 11  1  0  0  0
 11 12  1  0  0  0
 11 35  1  0  0  0
 12 17  2  0  0  0
 12 13  1  0  0  0
 13 14  2  0  0  0
 13 36  1  0  0  0
 14 15  1  0  0  0
 14 37  1  0  0  0
 15 16  2  0  0  0
 15 38  1  0  0  0
 16 17  1  0  0  0
 16 21  1  0  0  0
 17 22  1  0  0  0
 18 20  1  0  0  0
 19 23  1  0  0  0
 19 39  1  0  0  0
 19 40  1  0  0  0
 20 41  1  0  0  0
 20 42  1  0  0  0
 20 43  1  0  0  0
 23 24  1  0  0  0
 23 29  1  0  0  0
 24 25  1  0  0  0
 24 26  1  0  0  0
 24 44  1  0  0  0
 25 45  1  0  0  0
 25 46  1  0  0  0
 25 47  1  0  0  0
 26 27  1  0  0  0
 26 28  2  0  0  0
 27 48  1  0  0  0
 27 49  1  0  0  0
 29 30  1  0  0  0
 29 31  1  0  0  0
 29 50  1  0  0  0
 30 51  1  0  0  0
 30 52  1  0  0  0
 30 53  1  0  0  0
 31 54  1  0  0  0
 31 55  1  0  0  0
 31 56  1  0  0  0
M  END
> <s_m_entry_id>
4705

> <s_m_entry_name>
dock_pv.193

> <s_m_Source_Path>
/home/csk/Desktop/cluster/DUD-E-result/lck

> <s_m_Source_File>
dock_pv.maegz

> <i_m_Source_File_Index>
193

> <chembl_id>
CHEMBL208048

> <chembl_pref_name>
None

> <i_lp_mmshare_version>
53161

> <i_f3d_flags>
0

> <r_lp_tautomer_probability>
0.999978000241998

> <s_lp_Force_Field>
OPLS_2005

> <r_lp_Energy>
31.440458

> <b_lp_Chiralities_Consistent>
1

> <s_lp_Variant>
CHEMBL258_lig630-1

> <s_i_glide_gridfile>
glide-grid_2of2

> <i_i_glide_lignum>
709

> <i_i_glide_rotatable_bonds>
8

> <r_i_docking_score>
-7.20517321068118

> <r_i_glide_ligand_efficiency>
-0.232424942280038

> <r_i_glide_ligand_efficiency_sa>
-0.730135215975939

> <r_i_glide_ligand_efficiency_ln>
-1.62498737104899

> <r_i_glide_gscore>
-7.20517321068118

> <r_i_glide_lipo>
-2.54737777693033

> <r_i_glide_hbond>
-0.388809301491586

> <r_i_glide_metal>
0

> <r_i_glide_rewards>
-1.72682878694129

> <r_i_glide_evdw>
-41.292724609375

> <r_i_glide_ecoul>
-6.38802099227905

> <r_i_glide_erotb>
0.503216536656952

> <r_i_glide_esite>
-0.022534502664311

> <r_i_glide_emodel>
-68.0903019898895

> <r_i_glide_energy>
-47.6807456016541

> <r_i_glide_einternal>
3.44259190559387

> <i_i_glide_confnum>
67

> <i_i_glide_posenum>
222

> <r_i_glide_eff_state_penalty>
0

> <s_user_duplicate_titles>
CHEMBL258_lig630

> <s_m_subgroup_title>
dock_pv

> <s_m_subgroupid>
dock_pv

> <b_m_subgroup_collapsed>
1

$$$$
CHEMBL258_lig623
                    3D
 Schrodinger Suite 2021-1.
 62 65  0  0  1  0            999 V2000
   21.2669   38.0438   85.2164 C   0  0  0  0  0  0
   20.4228   39.3217   85.5562 C   0  0  0  0  0  0
   18.9001   39.1396   85.5794 C   0  0  0  0  0  0
   18.4335   38.6489   84.2803 N   0  0  1  0  0  0
   19.0303   37.3522   83.9705 C   0  0  0  0  0  0
   20.5730   37.4415   83.9404 C   0  0  0  0  0  0
   24.5357   40.0762   85.4164 C   0  0  0  0  0  0
   24.3992   41.4717   85.3507 C   0  0  0  0  0  0
   25.5203   42.2507   85.0456 C   0  0  0  0  0  0
   25.7489   39.4568   85.0975 C   0  0  0  0  0  0
   26.8617   40.2222   84.6855 C   0  0  0  0  0  0
   26.7565   41.6437   84.7393 C   0  0  0  0  0  0
   27.8196   42.4477   84.4884 N   0  0  0  0  0  0
   28.9517   41.8342   84.0870 C   0  0  0  0  0  0
   29.1322   40.5146   83.8726 N   0  0  0  0  0  0
   28.1023   39.7001   84.2017 C   0  0  0  0  0  0
   28.2717   38.3172   83.9857 N   0  0  0  0  0  0
   29.2669   37.6012   83.2871 C   0  0  0  0  0  0
   28.8374   36.5362   82.4874 C   0  0  0  0  0  0
   29.7523   35.7624   81.7745 C   0  0  0  0  0  0
   31.1142   36.0335   81.8675 C   0  0  0  0  0  0
   31.5671   37.0529   82.7039 C   0  0  0  0  0  0
   30.6526   37.8212   83.4369 C   0  0  0  0  0  0
   23.1592   42.0187   85.6370 O   0  0  0  0  0  0
   23.3812   39.2236   85.9254 C   0  0  0  0  0  0
   22.9107   43.3961   85.3664 C   0  0  0  0  0  0
   33.2651   37.3349   82.8447 Cl  0  0  0  0  0  0
   31.1296   38.7367   84.3145 F   0  0  0  0  0  0
   22.6796   38.4234   84.8924 N   0  0  1  0  0  0
   21.2007   37.0694   86.4601 C   0  0  0  0  0  0
   20.7225   35.8272   86.3389 N   0  0  0  0  0  0
   21.6175   37.4349   87.5592 O   0  0  0  0  0  0
   23.5112   37.2961   84.4361 C   0  0  0  0  0  0
   16.9773   38.5574   84.2774 C   0  0  0  0  0  0
   20.7355   40.1870   84.9691 H   0  0  0  0  0  0
   20.6702   39.6712   86.5580 H   0  0  0  0  0  0
   18.4466   40.1047   85.8003 H   0  0  0  0  0  0
   18.5806   38.4696   86.3813 H   0  0  0  0  0  0
   18.6638   37.0226   82.9953 H   0  0  0  0  0  0
   18.6880   36.6205   84.7001 H   0  0  0  0  0  0
   20.9219   36.4215   83.7793 H   0  0  0  0  0  0
   20.9457   37.9084   83.0269 H   0  0  0  0  0  0
   25.4681   43.3282   85.0335 H   0  0  0  0  0  0
   25.8528   38.3863   85.1746 H   0  0  0  0  0  0
   29.7882   42.4856   83.8901 H   0  0  0  0  0  0
   27.4392   37.7810   84.1646 H   0  0  0  0  0  0
   27.7836   36.3162   82.3893 H   0  0  0  0  0  0
   29.4033   34.9547   81.1449 H   0  0  0  0  0  0
   31.8147   35.4322   81.3050 H   0  0  0  0  0  0
   22.6961   39.9018   86.4202 H   0  0  0  0  0  0
   23.7501   38.6208   86.7469 H   0  0  0  0  0  0
   21.8657   43.6195   85.5830 H   0  0  0  0  0  0
   23.5193   44.0482   85.9939 H   0  0  0  0  0  0
   23.0884   43.6417   84.3172 H   0  0  0  0  0  0
   20.7076   35.2306   87.1518 H   0  0  0  0  0  0
   20.3948   35.4598   85.4541 H   0  0  0  0  0  0
   22.9991   36.6388   83.7373 H   0  0  0  0  0  0
   24.3743   37.6511   83.8789 H   0  0  0  0  0  0
   23.8568   36.6820   85.2702 H   0  0  0  0  0  0
   16.5494   39.5377   84.4865 H   0  0  0  0  0  0
   16.6079   38.2256   83.3054 H   0  0  0  0  0  0
   16.6098   37.8627   85.0363 H   0  0  0  0  0  0
  1  6  1  0  0  0
  1 29  1  0  0  0
  1  2  1  0  0  0
  1 30  1  0  0  0
  2  3  1  0  0  0
  2 35  1  0  0  0
  2 36  1  0  0  0
  3  4  1  0  0  0
  3 37  1  0  0  0
  3 38  1  0  0  0
  4  5  1  0  0  0
  4 34  1  0  0  0
  5  6  1  0  0  0
  5 39  1  0  0  0
  5 40  1  0  0  0
  6 41  1  0  0  0
  6 42  1  0  0  0
  7 10  2  0  0  0
  7 25  1  0  0  0
  7  8  1  0  0  0
  8  9  2  0  0  0
  8 24  1  0  0  0
  9 12  1  0  0  0
  9 43  1  0  0  0
 10 11  1  0  0  0
 10 44  1  0  0  0
 11 12  1  0  0  0
 11 16  2  0  0  0
 12 13  2  0  0  0
 13 14  1  0  0  0
 14 15  2  0  0  0
 14 45  1  0  0  0
 15 16  1  0  0  0
 16 17  1  0  0  0
 17 18  1  0  0  0
 17 46  1  0  0  0
 18 19  2  0  0  0
 18 23  1  0  0  0
 19 20  1  0  0  0
 19 47  1  0  0  0
 20 21  2  0  0  0
 20 48  1  0  0  0
 21 22  1  0  0  0
 21 49  1  0  0  0
 22 23  2  0  0  0
 22 27  1  0  0  0
 23 28  1  0  0  0
 24 26  1  0  0  0
 25 29  1  0  0  0
 25 50  1  0  0  0
 25 51  1  0  0  0
 26 52  1  0  0  0
 26 53  1  0  0  0
 26 54  1  0  0  0
 29 33  1  0  0  0
 30 31  1  0  0  0
 30 32  2  0  0  0
 31 55  1  0  0  0
 31 56  1  0  0  0
 33 57  1  0  0  0
 33 58  1  0  0  0
 33 59  1  0  0  0
 34 60  1  0  0  0
 34 61  1  0  0  0
 34 62  1  0  0  0
M  END
> <s_m_entry_id>
4706

> <s_m_entry_name>
dock_pv.194

> <s_m_Source_Path>
/home/csk/Desktop/cluster/DUD-E-result/lck

> <s_m_Source_File>
dock_pv.maegz

> <i_m_Source_File_Index>
194

> <chembl_id>
CHEMBL207130

> <chembl_pref_name>
None

> <i_lp_mmshare_version>
53161

> <i_f3d_flags>
0

> <r_lp_tautomer_probability>
0.999978000241998

> <s_lp_Force_Field>
OPLS_2005

> <r_lp_Energy>
44.054117

> <b_lp_Chiralities_Consistent>
1

> <s_lp_Variant>
CHEMBL258_lig623-1

> <s_i_glide_gridfile>
glide-grid_2of2

> <i_i_glide_lignum>
702

> <i_i_glide_rotatable_bonds>
7

> <r_i_docking_score>
-7.20129198566936

> <r_i_glide_ligand_efficiency>
-0.211802705460864

> <r_i_glide_ligand_efficiency_sa>
-0.686158543346965

> <r_i_glide_ligand_efficiency_ln>
-1.59096738903272

> <r_i_glide_gscore>
-7.20129198566936

> <r_i_glide_lipo>
-2.24883974388695

> <r_i_glide_hbond>
-0.466666371034074

> <r_i_glide_metal>
0

> <r_i_glide_rewards>
-1.21157540434891

> <r_i_glide_evdw>
-42.3209075927734

> <r_i_glide_ecoul>
-10.1210289001465

> <r_i_glide_erotb>
0.428567510565929

> <r_i_glide_esite>
-0.0685782623046998

> <r_i_glide_emodel>
-72.9958693336285

> <r_i_glide_energy>
-52.4419364929199

> <r_i_glide_einternal>
3.64792776107788

> <i_i_glide_confnum>
161

> <i_i_glide_posenum>
172

> <r_i_glide_eff_state_penalty>
0

> <s_user_duplicate_titles>
CHEMBL258_lig623

> <s_m_subgroup_title>
dock_pv

> <s_m_subgroupid>
dock_pv

> <b_m_subgroup_collapsed>
1

$$$$
CHEMBL258_lig122
                    3D
 Schrodinger Suite 2021-1.
 37 39  0  0  1  0            999 V2000
   23.9595   36.8829   83.8713 C   0  0  0  0  0  0
   26.1240   37.8169   83.9525 C   0  0  0  0  0  0
   26.2143   36.6647   83.2023 C   0  0  0  0  0  0
   24.7340   38.0311   84.3725 C   0  0  0  0  0  0
   24.8896   36.0385   83.1059 C   0  0  0  0  0  0
   22.6287   36.6176   84.0096 C   0  0  0  0  0  0
   27.2550   38.5951   84.1950 C   0  0  0  0  0  0
   27.4408   36.2642   82.6682 C   0  0  0  0  0  0
   19.5424   38.7058   86.1962 C   0  0  0  0  0  0
   19.2741   38.1413   84.9419 C   0  0  0  0  0  0
   20.8363   38.5852   86.7295 C   0  0  0  0  0  0
   21.5742   37.3348   84.7774 C   0  0  0  0  0  0
   28.6006   37.0208   82.9239 C   0  0  0  0  0  0
   28.5052   38.1986   83.6876 C   0  0  0  0  0  0
   20.2835   37.4629   84.2487 C   0  0  0  0  0  0
   21.8192   37.8829   86.0370 C   0  0  0  0  0  0
   24.5774   35.0210   82.4871 O   0  0  0  0  0  0
   24.2895   38.9896   84.9998 O   0  0  0  0  0  0
   21.3500   39.3857   88.3808 Br  0  0  0  0  0  0
   17.5477   38.2973   84.1427 Br  0  0  0  0  0  0
   18.5526   39.3604   86.8991 O   0  0  0  0  0  0
   29.8589   36.6811   82.4596 O   0  0  0  0  0  0
   29.6723   38.9135   83.8941 O   0  0  0  0  0  0
   30.0615   35.4224   81.8310 C   0  0  0  0  0  0
   29.6663   40.0384   84.7678 C   0  0  0  0  0  0
   22.2537   35.7285   83.5169 H   0  0  0  0  0  0
   27.1580   39.4981   84.7790 H   0  0  0  0  0  0
   27.4945   35.3571   82.0871 H   0  0  0  0  0  0
   20.0539   37.0362   83.2870 H   0  0  0  0  0  0
   22.7909   37.7797   86.4913 H   0  0  0  0  0  0
   17.6754   39.4230   86.4869 H   0  0  0  0  0  0
   31.1212   35.2883   81.6148 H   0  0  0  0  0  0
   29.7523   34.6118   82.4882 H   0  0  0  0  0  0
   29.5233   35.3485   80.8873 H   0  0  0  0  0  0
   30.6788   40.4341   84.8500 H   0  0  0  0  0  0
   29.0317   40.8390   84.3846 H   0  0  0  0  0  0
   29.3378   39.7658   85.7720 H   0  0  0  0  0  0
  1  4  1  0  0  0
  1  5  1  0  0  0
  1  6  2  0  0  0
  2  4  1  0  0  0
  2  7  2  0  0  0
  2  3  1  0  0  0
  3  5  1  0  0  0
  3  8  2  0  0  0
  4 18  2  0  0  0
  5 17  2  0  0  0
  6 12  1  0  0  0
  6 26  1  0  0  0
  7 14  1  0  0  0
  7 27  1  0  0  0
  8 13  1  0  0  0
  8 28  1  0  0  0
  9 11  1  0  0  0
  9 21  1  0  0  0
  9 10  2  0  0  0
 10 15  1  0  0  0
 10 20  1  0  0  0
 11 16  2  0  0  0
 11 19  1  0  0  0
 12 15  2  0  0  0
 12 16  1  0  0  0
 13 22  1  0  0  0
 13 14  2  0  0  0
 14 23  1  0  0  0
 15 29  1  0  0  0
 16 30  1  0  0  0
 21 31  1  0  0  0
 22 24  1  0  0  0
 23 25  1  0  0  0
 24 32  1  0  0  0
 24 33  1  0  0  0
 24 34  1  0  0  0
 25 35  1  0  0  0
 25 36  1  0  0  0
 25 37  1  0  0  0
M  END
> <s_m_entry_id>
4707

> <s_m_entry_name>
dock_pv.195

> <s_m_Source_Path>
/home/csk/Desktop/cluster/DUD-E-result/lck

> <s_m_Source_File>
dock_pv.maegz

> <i_m_Source_File_Index>
195

> <chembl_id>
CHEMBL83721

> <chembl_pref_name>
None

> <i_lp_mmshare_version>
53161

> <i_f3d_flags>
0

> <r_lp_tautomer_probability>
1

> <s_lp_Force_Field>
OPLS_2005

> <r_lp_Energy>
36.787478

> <b_lp_Chiralities_Consistent>
1

> <s_lp_Variant>
CHEMBL258_lig122-1

> <s_i_glide_gridfile>
glide-grid_2of2

> <i_i_glide_lignum>
143

> <i_i_glide_rotatable_bonds>
4

> <r_i_docking_score>
-7.1916172326014

> <r_i_glide_ligand_efficiency>
-0.287664689304056

> <r_i_glide_ligand_efficiency_sa>
-0.841136653280048

> <r_i_glide_ligand_efficiency_ln>
-1.70462879950397

> <r_i_glide_gscore>
-7.1916172326014

> <r_i_glide_lipo>
-3.15918218589617

> <r_i_glide_hbond>
-0.176479549085347

> <r_i_glide_metal>
0

> <r_i_glide_rewards>
-0.960856348096502

> <r_i_glide_evdw>
-38.5744972229004

> <r_i_glide_ecoul>
-7.05671453475952

> <r_i_glide_erotb>
0.0921328918355613

> <r_i_glide_esite>
0

> <r_i_glide_emodel>
-65.8160753571988

> <r_i_glide_energy>
-45.6312117576599

> <r_i_glide_einternal>
1.14454936981201

> <i_i_glide_confnum>
4

> <i_i_glide_posenum>
4

> <r_i_glide_eff_state_penalty>
0

> <s_user_duplicate_titles>
CHEMBL258_lig122,132552

> <s_m_subgroup_title>
dock_pv

> <s_m_subgroupid>
dock_pv

> <b_m_subgroup_collapsed>
1

$$$$
CHEMBL258_lig225
                    3D
 Schrodinger Suite 2021-1.
 40 43  0  0  1  0            999 V2000
   25.1089   37.2482   83.7254 N   0  0  0  0  0  0
   22.8895   37.0251   84.5852 C   0  0  0  0  0  0
   23.9085   36.5142   83.7671 C   0  0  0  0  0  0
   23.0302   38.1894   85.2573 N   0  0  0  0  0  0
   25.3118   38.4107   84.4186 C   0  0  0  0  0  0
   26.5230   39.2029   84.4278 C   0  0  0  0  0  0
   27.7678   38.8395   83.7355 N   0  3  0  0  0  0
   24.1950   38.8758   85.1811 C   0  0  0  0  0  0
   21.6904   36.3174   84.7310 N   0  0  0  0  0  0
   25.3260   35.4551   82.3789 N   0  0  0  0  0  0
   20.5122   36.6864   85.4128 C   0  0  0  0  0  0
   25.9077   36.5411   82.8423 C   0  0  0  0  0  0
   24.1187   35.4211   82.8869 C   0  0  0  0  0  0
   28.1869   39.6184   82.8870 O   0  5  0  0  0  0
   28.3499   37.8209   84.0873 O   0  0  0  0  0  0
   19.7333   37.7909   85.0091 C   0  0  0  0  0  0
   20.0669   35.8969   86.4874 C   0  0  0  0  0  0
   26.5387   40.4037   85.1475 C   0  0  0  0  0  0
   24.2725   40.0894   85.8947 C   0  0  0  0  0  0
   25.4358   40.8431   85.8653 C   0  0  0  0  0  0
   18.1353   37.3284   86.7694 C   0  0  0  0  0  0
   18.5574   38.1071   85.6976 C   0  0  0  0  0  0
   18.8836   36.2211   87.1559 C   0  0  0  0  0  0
   20.0824   38.6211   83.7850 C   0  0  0  0  0  0
   20.8473   34.6718   86.9449 C   0  0  0  0  0  0
   21.7255   35.3481   84.4597 H   0  0  0  0  0  0
   26.8918   36.8479   82.5336 H   0  0  0  0  0  0
   23.4223   34.6400   82.6155 H   0  0  0  0  0  0
   27.4337   41.0119   85.1542 H   0  0  0  0  0  0
   23.4139   40.4277   86.4568 H   0  0  0  0  0  0
   25.4878   41.7765   86.4080 H   0  0  0  0  0  0
   17.2212   37.5801   87.2890 H   0  0  0  0  0  0
   17.9515   38.9503   85.3963 H   0  0  0  0  0  0
   18.5373   35.6117   87.9796 H   0  0  0  0  0  0
   20.5693   38.0203   83.0172 H   0  0  0  0  0  0
   19.1766   39.0201   83.3270 H   0  0  0  0  0  0
   20.7394   39.4452   84.0651 H   0  0  0  0  0  0
   21.0261   34.0301   86.0873 H   0  0  0  0  0  0
   21.8165   34.9621   87.3496 H   0  0  0  0  0  0
   20.3090   34.0833   87.6868 H   0  0  0  0  0  0
  1  3  1  0  0  0
  1  5  1  0  0  0
  1 12  1  0  0  0
  2  3  1  0  0  0
  2  4  2  0  0  0
  2  9  1  0  0  0
  3 13  2  0  0  0
  4  8  1  0  0  0
  5  6  2  0  0  0
  5  8  1  0  0  0
  6  7  1  0  0  0
  6 18  1  0  0  0
  7 14  1  0  0  0
  7 15  2  0  0  0
  8 19  2  0  0  0
  9 11  1  0  0  0
  9 26  1  0  0  0
 10 12  2  0  0  0
 10 13  1  0  0  0
 11 16  1  0  0  0
 11 17  2  0  0  0
 12 27  1  0  0  0
 13 28  1  0  0  0
 16 22  2  0  0  0
 16 24  1  0  0  0
 17 23  1  0  0  0
 17 25  1  0  0  0
 18 20  2  0  0  0
 18 29  1  0  0  0
 19 20  1  0  0  0
 19 30  1  0  0  0
 20 31  1  0  0  0
 21 23  2  0  0  0
 21 22  1  0  0  0
 21 32  1  0  0  0
 22 33  1  0  0  0
 23 34  1  0  0  0
 24 35  1  0  0  0
 24 36  1  0  0  0
 24 37  1  0  0  0
 25 38  1  0  0  0
 25 39  1  0  0  0
 25 40  1  0  0  0
M  CHG  2   7   1  14  -1
M  END
> <s_m_entry_id>
4708

> <s_m_entry_name>
dock_pv.196

> <s_m_Source_Path>
/home/csk/Desktop/cluster/DUD-E-result/lck

> <s_m_Source_File>
dock_pv.maegz

> <i_m_Source_File_Index>
196

> <chembl_id>
CHEMBL323059

> <chembl_pref_name>
None

> <i_lp_mmshare_version>
53161

> <i_f3d_flags>
0

> <r_lp_tautomer_probability>
1

> <s_lp_Force_Field>
OPLS_2005

> <r_lp_Energy>
65.424695

> <b_lp_Chiralities_Consistent>
1

> <s_lp_Variant>
CHEMBL258_lig225-1

> <s_i_glide_gridfile>
glide-grid_2of2

> <i_i_glide_lignum>
253

> <i_i_glide_rotatable_bonds>
3

> <r_i_docking_score>
-7.18786316868367

> <r_i_glide_ligand_efficiency>
-0.287514526747347

> <r_i_glide_ligand_efficiency_sa>
-0.840697575301086

> <r_i_glide_ligand_efficiency_ln>
-1.70373897385525

> <r_i_glide_gscore>
-7.18786316868367

> <r_i_glide_lipo>
-2.40169543671555

> <r_i_glide_hbond>
-0.0446733088967738

> <r_i_glide_metal>
0

> <r_i_glide_rewards>
-2.88200310372133

> <r_i_glide_evdw>
-36.4746627807617

> <r_i_glide_ecoul>
-2.49979829788208

> <r_i_glide_erotb>
0.339211564370392

> <r_i_glide_esite>
0

> <r_i_glide_emodel>
-53.357856386785

> <r_i_glide_energy>
-38.9744610786438

> <r_i_glide_einternal>
4.11639356613159

> <i_i_glide_confnum>
2

> <i_i_glide_posenum>
62

> <r_i_glide_eff_state_penalty>
0

> <s_user_duplicate_titles>
CHEMBL258_lig225,176486

> <s_m_subgroup_title>
dock_pv

> <s_m_subgroupid>
dock_pv

> <b_m_subgroup_collapsed>
1

$$$$
CHEMBL258_lig635
                    3D
 Schrodinger Suite 2021-1.
 50 52  0  0  1  0            999 V2000
   27.9724   37.9711   84.0253 C   0  0  0  0  0  0
   28.4321   37.0309   83.0908 C   0  0  0  0  0  0
   27.5187   36.1623   82.4869 C   0  0  0  0  0  0
   26.6201   38.0164   84.3901 C   0  0  0  0  0  0
   25.6791   37.1303   83.7931 C   0  0  0  0  0  0
   26.1486   36.2074   82.8083 C   0  0  0  0  0  0
   25.3163   35.3516   82.1560 N   0  0  0  0  0  0
   24.0086   35.4175   82.4876 C   0  0  0  0  0  0
   23.4552   36.2120   83.4248 N   0  0  0  0  0  0
   24.2735   37.0718   84.0768 C   0  0  0  0  0  0
   23.6818   37.9509   85.0062 N   0  0  0  0  0  0
   22.3690   38.1149   85.5097 C   0  0  0  0  0  0
   21.3233   37.2019   85.2831 C   0  0  0  0  0  0
   20.0390   37.4485   85.7636 C   0  0  0  0  0  0
   19.7740   38.6065   86.4869 C   0  0  0  0  0  0
   20.8003   39.5102   86.7511 C   0  0  0  0  0  0
   22.0915   39.2670   86.2671 C   0  0  0  0  0  0
   29.7855   37.0202   82.7997 O   0  0  0  0  0  0
   28.9676   38.9287   84.6810 C   0  0  0  0  0  0
   30.3029   36.0570   81.8840 C   0  0  0  0  0  0
   20.4590   40.9246   87.6846 Cl  0  0  0  0  0  0
   23.0796   40.1606   86.5274 F   0  0  0  0  0  0
   29.4609   39.9428   83.7432 N   0  0  2  0  0  0
   30.8382   40.4428   84.0604 C   0  0  2  0  0  0
   30.9220   41.5389   85.1502 C   0  0  0  0  0  0
   31.5887   40.8449   82.7551 C   0  0  0  0  0  0
   32.9129   40.9804   82.8411 N   0  0  0  0  0  0
   31.0037   41.0216   81.6871 O   0  0  0  0  0  0
   28.4707   41.0009   83.5356 C   0  0  0  0  0  0
   27.8361   35.4390   81.7507 H   0  0  0  0  0  0
   26.2855   38.7339   85.1266 H   0  0  0  0  0  0
   23.3440   34.7415   81.9685 H   0  0  0  0  0  0
   24.3228   38.6406   85.3679 H   0  0  0  0  0  0
   21.4692   36.2817   84.7462 H   0  0  0  0  0  0
   19.2477   36.7363   85.5702 H   0  0  0  0  0  0
   18.7746   38.7978   86.8516 H   0  0  0  0  0  0
   29.8010   38.3130   85.0226 H   0  0  0  0  0  0
   28.5559   39.3914   85.5789 H   0  0  0  0  0  0
   31.3813   36.1882   81.7938 H   0  0  0  0  0  0
   30.1222   35.0356   82.2267 H   0  0  0  0  0  0
   29.8754   36.1809   80.8869 H   0  0  0  0  0  0
   31.4250   39.6079   84.4510 H   0  0  0  0  0  0
   31.9538   41.8015   85.3804 H   0  0  0  0  0  0
   30.4190   42.4564   84.8452 H   0  0  0  0  0  0
   30.4640   41.1980   86.0788 H   0  0  0  0  0  0
   33.4270   41.2420   82.0151 H   0  0  0  0  0  0
   33.3896   40.8441   83.7187 H   0  0  0  0  0  0
   28.8775   41.7812   82.8883 H   0  0  0  0  0  0
   27.5709   40.6082   83.0592 H   0  0  0  0  0  0
   28.1821   41.4720   84.4768 H   0  0  0  0  0  0
  1  2  1  0  0  0
  1 19  1  0  0  0
  1  4  2  0  0  0
  2 18  1  0  0  0
  2  3  2  0  0  0
  3  6  1  0  0  0
  3 30  1  0  0  0
  4  5  1  0  0  0
  4 31  1  0  0  0
  5 10  2  0  0  0
  5  6  1  0  0  0
  6  7  2  0  0  0
  7  8  1  0  0  0
  8  9  2  0  0  0
  8 32  1  0  0  0
  9 10  1  0  0  0
 10 11  1  0  0  0
 11 12  1  0  0  0
 11 33  1  0  0  0
 12 17  2  0  0  0
 12 13  1  0  0  0
 13 14  2  0  0  0
 13 34  1  0  0  0
 14 15  1  0  0  0
 14 35  1  0  0  0
 15 16  2  0  0  0
 15 36  1  0  0  0
 16 17  1  0  0  0
 16 21  1  0  0  0
 17 22  1  0  0  0
 18 20  1  0  0  0
 19 23  1  0  0  0
 19 37  1  0  0  0
 19 38  1  0  0  0
 20 39  1  0  0  0
 20 40  1  0  0  0
 20 41  1  0  0  0
 23 24  1  0  0  0
 23 29  1  0  0  0
 24 25  1  0  0  0
 24 26  1  0  0  0
 24 42  1  0  0  0
 25 43  1  0  0  0
 25 44  1  0  0  0
 25 45  1  0  0  0
 26 27  1  0  0  0
 26 28  2  0  0  0
 27 46  1  0  0  0
 27 47  1  0  0  0
 29 48  1  0  0  0
 29 49  1  0  0  0
 29 50  1  0  0  0
M  END
> <s_m_entry_id>
4709

> <s_m_entry_name>
dock_pv.197

> <s_m_Source_Path>
/home/csk/Desktop/cluster/DUD-E-result/lck

> <s_m_Source_File>
dock_pv.maegz

> <i_m_Source_File_Index>
197

> <chembl_id>
CHEMBL208118

> <chembl_pref_name>
None

> <i_lp_mmshare_version>
53161

> <i_f3d_flags>
0

> <r_lp_tautomer_probability>
0.999978000241998

> <s_lp_Force_Field>
OPLS_2005

> <r_lp_Energy>
21.323737

> <b_lp_Chiralities_Consistent>
1

> <s_lp_Variant>
CHEMBL258_lig635-1

> <s_i_glide_gridfile>
glide-grid_2of2

> <i_i_glide_lignum>
715

> <i_i_glide_rotatable_bonds>
7

> <r_i_docking_score>
-7.18549314485468

> <r_i_glide_ligand_efficiency>
-0.247775625684644

> <r_i_glide_ligand_efficiency_sa>
-0.761245222931325

> <r_i_glide_ligand_efficiency_ln>
-1.64529572178694

> <r_i_glide_gscore>
-7.18549314485468

> <r_i_glide_lipo>
-2.52056902483939

> <r_i_glide_hbond>
-0.407037065444611

> <r_i_glide_metal>
0

> <r_i_glide_rewards>
-1.80549824824136

> <r_i_glide_evdw>
-40.0991020202637

> <r_i_glide_ecoul>
-6.58291625976562

> <r_i_glide_erotb>
0.566089554587947

> <r_i_glide_esite>
-0.0260858209392442

> <r_i_glide_emodel>
-64.7743524988736

> <r_i_glide_energy>
-46.6820182800293

> <r_i_glide_einternal>
4.97348785400391

> <i_i_glide_confnum>
136

> <i_i_glide_posenum>
381

> <r_i_glide_eff_state_penalty>
0

> <s_user_duplicate_titles>
CHEMBL258_lig635

> <s_m_subgroup_title>
dock_pv

> <s_m_subgroupid>
dock_pv

> <b_m_subgroup_collapsed>
1

$$$$
CHEMBL258_lig796
                    3D
 Schrodinger Suite 2021-1.
 39 41  0  0  1  0            999 V2000
   23.4143   36.5515   84.0136 C   0  0  0  0  0  0
   25.5782   36.1272   82.9310 C   0  0  0  0  0  0
   25.0449   37.1088   84.2739 S   0  0  0  0  0  0
   22.3398   36.9788   84.8783 C   0  0  0  0  0  0
   21.1052   36.6218   84.4714 N   0  0  0  0  0  0
   24.6186   35.4209   82.3834 N   0  0  0  0  0  0
   26.8864   36.0622   82.4874 N   0  0  0  0  0  0
   23.4398   35.6520   82.9367 C   0  0  0  0  0  0
   19.9490   36.7492   85.2671 C   0  0  0  0  0  0
   28.0345   36.7736   82.8871 C   0  0  0  0  0  0
   27.9299   37.9307   83.5971 N   0  0  0  0  0  0
   22.5576   37.5975   85.9230 O   0  0  0  0  0  0
   18.8975   37.5699   84.8229 C   0  0  0  0  0  0
   19.8169   36.0472   86.4871 C   0  0  0  0  0  0
   29.0582   38.6262   83.8885 C   0  0  0  0  0  0
   18.9495   38.3718   83.2892 Cl  0  0  0  0  0  0
   29.2770   36.2808   82.4787 C   0  0  0  0  0  0
   30.4293   37.0213   82.7540 C   0  0  0  0  0  0
   17.6507   37.0770   86.8398 C   0  0  0  0  0  0
   17.7642   37.7401   85.6193 C   0  0  0  0  0  0
   18.6645   36.2212   87.2631 C   0  0  0  0  0  0
   20.8502   35.0175   86.9387 C   0  0  0  0  0  0
   30.3248   38.2122   83.4749 C   0  0  0  0  0  0
   28.8627   39.8871   84.7046 C   0  0  0  0  0  0
   20.9895   36.1963   83.5662 H   0  0  0  0  0  0
   27.1390   35.3097   81.8638 H   0  0  0  0  0  0
   22.5856   35.1151   82.5479 H   0  0  0  0  0  0
   29.3533   35.3609   81.9163 H   0  0  0  0  0  0
   31.3945   36.6660   82.4231 H   0  0  0  0  0  0
   16.7628   37.2112   87.4406 H   0  0  0  0  0  0
   16.9594   38.3806   85.2869 H   0  0  0  0  0  0
   18.5445   35.6738   88.1856 H   0  0  0  0  0  0
   21.2246   34.4472   86.0890 H   0  0  0  0  0  0
   21.7048   35.4957   87.4190 H   0  0  0  0  0  0
   20.4176   34.2847   87.6214 H   0  0  0  0  0  0
   31.2069   38.7856   83.7167 H   0  0  0  0  0  0
   29.7507   40.5194   84.6855 H   0  0  0  0  0  0
   28.0256   40.4729   84.3216 H   0  0  0  0  0  0
   28.6534   39.6288   85.7437 H   0  0  0  0  0  0
  1  3  1  0  0  0
  1  4  1  0  0  0
  1  8  2  0  0  0
  2  3  1  0  0  0
  2  7  1  0  0  0
  2  6  2  0  0  0
  4  5  1  0  0  0
  4 12  2  0  0  0
  5  9  1  0  0  0
  5 25  1  0  0  0
  6  8  1  0  0  0
  7 10  1  0  0  0
  7 26  1  0  0  0
  8 27  1  0  0  0
  9 13  1  0  0  0
  9 14  2  0  0  0
 10 11  2  0  0  0
 10 17  1  0  0  0
 11 15  1  0  0  0
 13 16  1  0  0  0
 13 20  2  0  0  0
 14 21  1  0  0  0
 14 22  1  0  0  0
 15 24  1  0  0  0
 15 23  2  0  0  0
 17 18  2  0  0  0
 17 28  1  0  0  0
 18 23  1  0  0  0
 18 29  1  0  0  0
 19 21  2  0  0  0
 19 20  1  0  0  0
 19 30  1  0  0  0
 20 31  1  0  0  0
 21 32  1  0  0  0
 22 33  1  0  0  0
 22 34  1  0  0  0
 22 35  1  0  0  0
 23 36  1  0  0  0
 24 37  1  0  0  0
 24 38  1  0  0  0
 24 39  1  0  0  0
M  END
> <s_m_entry_id>
4710

> <s_m_entry_name>
dock_pv.198

> <s_m_Source_Path>
/home/csk/Desktop/cluster/DUD-E-result/lck

> <s_m_Source_File>
dock_pv.maegz

> <i_m_Source_File_Index>
198

> <chembl_id>
CHEMBL365505

> <chembl_pref_name>
None

> <i_lp_mmshare_version>
53161

> <i_f3d_flags>
0

> <r_lp_tautomer_probability>
0.999999772200052

> <s_lp_Force_Field>
OPLS_2005

> <r_lp_Energy>
18.674958

> <b_lp_Chiralities_Consistent>
1

> <s_lp_Variant>
CHEMBL258_lig796-1

> <s_i_glide_gridfile>
glide-grid_2of2

> <i_i_glide_lignum>
881

> <i_i_glide_rotatable_bonds>
5

> <r_i_docking_score>
-7.18427060290011

> <r_i_glide_ligand_efficiency>
-0.299344608454171

> <r_i_glide_ligand_efficiency_sa>
-0.863459264919029

> <r_i_glide_ligand_efficiency_ln>
-1.71952561997072

> <r_i_glide_gscore>
-7.18427060290011

> <r_i_glide_lipo>
-2.94271326073527

> <r_i_glide_hbond>
-0.0696855289876866

> <r_i_glide_metal>
0

> <r_i_glide_rewards>
-2.14109511559993

> <r_i_glide_evdw>
-40.597526550293

> <r_i_glide_ecoul>
-4.96586894989014

> <r_i_glide_erotb>
0.743979972420949

> <r_i_glide_esite>
0

> <r_i_glide_emodel>
-62.4946902047274

> <r_i_glide_energy>
-45.5633955001831

> <r_i_glide_einternal>
5.21244668960571

> <i_i_glide_confnum>
69

> <i_i_glide_posenum>
396

> <r_i_glide_eff_state_penalty>
0

> <s_user_duplicate_titles>
CHEMBL258_lig796,312493

> <s_m_subgroup_title>
dock_pv

> <s_m_subgroupid>
dock_pv

> <b_m_subgroup_collapsed>
1

$$$$
CHEMBL258_lig296
                    3D
 Schrodinger Suite 2021-1.
 48 50  0  0  1  0            999 V2000
   26.0875   37.1570   83.7055 C   0  0  0  0  0  0
   24.6893   37.1161   83.9957 C   0  0  0  0  0  0
   26.5542   36.1786   82.7798 C   0  0  0  0  0  0
   27.0215   38.0678   84.2692 C   0  0  0  0  0  0
   20.2200   38.2030   86.4493 C   0  0  0  0  0  0
   23.8581   36.2211   83.4018 N   0  0  0  0  0  0
   24.1131   38.0392   84.8870 N   0  0  0  0  0  0
   20.8438   36.9575   86.2983 C   0  0  0  0  0  0
   20.9363   39.3877   86.2304 C   0  0  0  0  0  0
   22.8293   38.0753   85.4480 C   0  0  0  0  0  0
   27.9286   36.1098   82.4859 C   0  0  0  0  0  0
   22.1484   36.9099   85.7947 C   0  0  0  0  0  0
   22.2373   39.3092   85.7071 C   0  0  0  0  0  0
   28.3826   38.0037   83.9282 C   0  0  0  0  0  0
   28.8365   37.0218   83.0360 C   0  0  0  0  0  0
   25.7140   35.2988   82.1678 N   0  0  0  0  0  0
   24.4046   35.3856   82.4965 C   0  0  0  0  0  0
   18.9170   38.2662   86.8870 O   0  0  0  0  0  0
   20.1334   35.8323   86.6703 O   0  0  0  0  0  0
   20.3192   40.5793   86.5632 O   0  0  0  0  0  0
   29.3329   38.8701   84.4416 O   0  0  0  0  0  0
   30.1860   37.0211   82.7271 O   0  0  0  0  0  0
   17.9447   38.0227   85.8776 C   0  0  0  0  0  0
   20.8435   34.6210   86.9088 C   0  0  0  0  0  0
   21.1154   41.7536   86.6759 C   0  0  0  0  0  0
   28.9595   39.8630   85.3921 C   0  0  0  0  0  0
   30.7040   36.0430   81.8292 C   0  0  0  0  0  0
   26.6637   38.8089   84.9650 H   0  0  0  0  0  0
   24.7283   38.7745   85.1944 H   0  0  0  0  0  0
   28.2515   35.3500   81.7883 H   0  0  0  0  0  0
   22.6410   35.9626   85.6478 H   0  0  0  0  0  0
   22.7909   40.2069   85.4799 H   0  0  0  0  0  0
   23.7253   34.6941   82.0160 H   0  0  0  0  0  0
   16.9797   37.8215   86.3433 H   0  0  0  0  0  0
   17.8332   38.8929   85.2286 H   0  0  0  0  0  0
   18.1858   37.1558   85.2597 H   0  0  0  0  0  0
   20.1495   33.8513   87.2464 H   0  0  0  0  0  0
   21.3484   34.2382   86.0249 H   0  0  0  0  0  0
   21.5959   34.7498   87.6866 H   0  0  0  0  0  0
   20.5500   42.5300   87.1887 H   0  0  0  0  0  0
   21.4051   42.1363   85.6952 H   0  0  0  0  0  0
   22.0168   41.5829   87.2701 H   0  0  0  0  0  0
   29.8420   40.4347   85.6815 H   0  0  0  0  0  0
   28.2365   40.5642   84.9739 H   0  0  0  0  0  0
   28.5461   39.4182   86.2987 H   0  0  0  0  0  0
   31.7753   36.1972   81.7062 H   0  0  0  0  0  0
   30.5595   35.0320   82.2122 H   0  0  0  0  0  0
   30.2451   36.1226   80.8432 H   0  0  0  0  0  0
  1  2  1  0  0  0
  1  3  1  0  0  0
  1  4  2  0  0  0
  2  6  2  0  0  0
  2  7  1  0  0  0
  3 11  2  0  0  0
  3 16  1  0  0  0
  4 14  1  0  0  0
  4 28  1  0  0  0
  5  8  2  0  0  0
  5  9  1  0  0  0
  5 18  1  0  0  0
  6 17  1  0  0  0
  7 10  1  0  0  0
  7 29  1  0  0  0
  8 12  1  0  0  0
  8 19  1  0  0  0
  9 13  2  0  0  0
  9 20  1  0  0  0
 10 12  2  0  0  0
 10 13  1  0  0  0
 11 15  1  0  0  0
 11 30  1  0  0  0
 12 31  1  0  0  0
 13 32  1  0  0  0
 14 15  2  0  0  0
 14 21  1  0  0  0
 15 22  1  0  0  0
 16 17  2  0  0  0
 17 33  1  0  0  0
 18 23  1  0  0  0
 19 24  1  0  0  0
 20 25  1  0  0  0
 21 26  1  0  0  0
 22 27  1  0  0  0
 23 34  1  0  0  0
 23 35  1  0  0  0
 23 36  1  0  0  0
 24 37  1  0  0  0
 24 38  1  0  0  0
 24 39  1  0  0  0
 25 40  1  0  0  0
 25 41  1  0  0  0
 25 42  1  0  0  0
 26 43  1  0  0  0
 26 44  1  0  0  0
 26 45  1  0  0  0
 27 46  1  0  0  0
 27 47  1  0  0  0
 27 48  1  0  0  0
M  END
> <s_m_entry_id>
4711

> <s_m_entry_name>
dock_pv.199

> <s_m_Source_Path>
/home/csk/Desktop/cluster/DUD-E-result/lck

> <s_m_Source_File>
dock_pv.maegz

> <i_m_Source_File_Index>
199

> <chembl_id>
CHEMBL543904

> <chembl_pref_name>
None

> <i_lp_mmshare_version>
53161

> <i_f3d_flags>
0

> <r_lp_tautomer_probability>
0.999978000241998

> <s_lp_Force_Field>
OPLS_2005

> <r_lp_Energy>
37.00562

> <b_lp_Chiralities_Consistent>
1

> <s_lp_Variant>
CHEMBL258_lig296-1

> <s_i_glide_gridfile>
glide-grid_2of2

> <i_i_glide_lignum>
328

> <i_i_glide_rotatable_bonds>
7

> <r_i_docking_score>
-7.17731286780034

> <r_i_glide_ligand_efficiency>
-0.265826402511124

> <r_i_glide_ligand_efficiency_sa>
-0.79747920665725

> <r_i_glide_ligand_efficiency_ln>
-1.67076010837352

> <r_i_glide_gscore>
-7.17731286780034

> <r_i_glide_lipo>
-2.39982060354784

> <r_i_glide_hbond>
-0.218872282186728

> <r_i_glide_metal>
0

> <r_i_glide_rewards>
-2.07690586363636

> <r_i_glide_evdw>
-40.8441925048828

> <r_i_glide_ecoul>
-4.79598093032837

> <r_i_glide_erotb>
0.279892646363991

> <r_i_glide_esite>
0

> <r_i_glide_emodel>
-62.0986338051913

> <r_i_glide_energy>
-45.6401734352112

> <r_i_glide_einternal>
6.02266502380371

> <i_i_glide_confnum>
1

> <i_i_glide_posenum>
31

> <r_i_glide_eff_state_penalty>
0

> <s_user_duplicate_titles>
CHEMBL258_lig296,547305

> <s_m_subgroup_title>
dock_pv

> <s_m_subgroupid>
dock_pv

> <b_m_subgroup_collapsed>
1

$$$$
CHEMBL258_lig33
                    3D
 Schrodinger Suite 2021-1.
 38 41  0  0  1  0            999 V2000
   25.7478   35.4196   82.0870 O   0  0  0  0  0  0
   26.6283   36.1698   82.5082 C   0  0  0  0  0  0
   27.9089   36.0393   82.0870 O   0  0  0  0  0  0
   26.3389   37.2846   83.5047 C   0  0  0  0  0  0
   27.3114   38.2040   84.0707 C   0  0  0  0  0  0
   26.8184   39.1990   84.9802 C   0  0  0  0  0  0
   25.5070   39.3088   85.3077 N   0  0  0  0  0  0
   24.6020   38.4584   84.7689 C   0  0  0  0  0  0
   23.1599   38.7142   85.1157 C   0  0  0  0  0  0
   22.2545   37.8534   84.5814 N   0  0  0  0  0  0
   20.9255   38.0836   84.7373 C   0  0  0  0  0  0
   20.4254   39.1855   85.4991 C   0  0  0  0  0  0
   21.3908   40.0629   86.0992 C   0  0  0  0  0  0
   20.9923   41.2646   86.9143 C   0  0  0  0  0  0
   20.1382   41.2142   87.7961 O   0  0  0  0  0  0
   21.6287   42.4133   86.5477 O   0  0  0  0  0  0
   22.7493   39.8077   85.8869 C   0  0  0  0  0  0
   19.0098   39.3475   85.5797 C   0  0  0  0  0  0
   18.1511   38.4773   84.9130 C   0  0  0  0  0  0
   18.6550   37.4209   84.1682 C   0  0  0  0  0  0
   20.0261   37.2056   84.0879 C   0  0  0  0  0  0
   25.0012   37.4440   83.8959 C   0  0  0  0  0  0
   27.6988   40.1335   85.5770 C   0  0  0  0  0  0
   29.0558   40.1039   85.2870 C   0  0  0  0  0  0
   29.5619   39.1541   84.4139 C   0  0  0  0  0  0
   28.7221   38.2207   83.8139 C   0  0  0  0  0  0
   27.9420   35.4203   81.3488 H   0  0  0  0  0  0
   21.1676   43.1928   86.8875 H   0  0  0  0  0  0
   23.4846   40.4823   86.3034 H   0  0  0  0  0  0
   18.5810   40.1601   86.1471 H   0  0  0  0  0  0
   17.0815   38.6210   84.9822 H   0  0  0  0  0  0
   17.9769   36.7507   83.6605 H   0  0  0  0  0  0
   20.4115   36.3701   83.5203 H   0  0  0  0  0  0
   24.2460   36.7877   83.4854 H   0  0  0  0  0  0
   27.3096   40.8763   86.2594 H   0  0  0  0  0  0
   29.7234   40.8171   85.7495 H   0  0  0  0  0  0
   30.6219   39.1371   84.2044 H   0  0  0  0  0  0
   29.2006   37.5148   83.1617 H   0  0  0  0  0  0
  1  2  2  0  0  0
  2  3  1  0  0  0
  2  4  1  0  0  0
  3 27  1  0  0  0
  4  5  2  0  0  0
  4 22  1  0  0  0
  5  6  1  0  0  0
  5 26  1  0  0  0
  6  7  2  0  0  0
  6 23  1  0  0  0
  7  8  1  0  0  0
  8  9  1  0  0  0
  8 22  2  0  0  0
  9 10  2  0  0  0
  9 17  1  0  0  0
 10 11  1  0  0  0
 11 12  1  0  0  0
 11 21  2  0  0  0
 12 13  1  0  0  0
 12 18  2  0  0  0
 13 14  1  0  0  0
 13 17  2  0  0  0
 14 15  2  0  0  0
 14 16  1  0  0  0
 16 28  1  0  0  0
 17 29  1  0  0  0
 18 19  1  0  0  0
 18 30  1  0  0  0
 19 20  2  0  0  0
 19 31  1  0  0  0
 20 21  1  0  0  0
 20 32  1  0  0  0
 21 33  1  0  0  0
 22 34  1  0  0  0
 23 24  2  0  0  0
 23 35  1  0  0  0
 24 25  1  0  0  0
 24 36  1  0  0  0
 25 26  2  0  0  0
 25 37  1  0  0  0
 26 38  1  0  0  0
M  END
> <s_m_entry_id>
4712

> <s_m_entry_name>
dock_pv.200

> <s_m_Source_Path>
/home/csk/Desktop/cluster/DUD-E-result/lck

> <s_m_Source_File>
dock_pv.maegz

> <i_m_Source_File_Index>
200

> <chembl_id>
CHEMBL431482

> <chembl_pref_name>
None

> <i_lp_mmshare_version>
53161

> <i_f3d_flags>
0

> <r_lp_tautomer_probability>
1

> <s_lp_Force_Field>
OPLS_2005

> <r_lp_Energy>
30.963272

> <b_lp_Chiralities_Consistent>
1

> <s_lp_Variant>
CHEMBL258_lig33-1

> <s_i_glide_gridfile>
glide-grid_2of2

> <i_i_glide_lignum>
36

> <i_i_glide_rotatable_bonds>
5

> <r_i_docking_score>
-7.17677523800764

> <r_i_glide_ligand_efficiency>
-0.276029816846448

> <r_i_glide_ligand_efficiency_sa>
-0.817737246282718

> <r_i_glide_ligand_efficiency_ln>
-1.6854421157258

> <r_i_glide_gscore>
-7.17677523800764

> <r_i_glide_lipo>
-2.53688040176554

> <r_i_glide_hbond>
-0.185563778059871

> <r_i_glide_metal>
0

> <r_i_glide_rewards>
-1.44810131740411

> <r_i_glide_evdw>
-37.6353759765625

> <r_i_glide_ecoul>
-10.4449262619019

> <r_i_glide_erotb>
0.480428320180496

> <r_i_glide_esite>
-0.0381503228452061

> <r_i_glide_emodel>
-65.9059597812717

> <r_i_glide_energy>
-48.0803022384644

> <r_i_glide_einternal>
6.43031692504883

> <i_i_glide_confnum>
15

> <i_i_glide_posenum>
74

> <r_i_glide_eff_state_penalty>
0

> <s_user_duplicate_titles>
CHEMBL258_lig33

> <s_m_subgroup_title>
dock_pv

> <s_m_subgroupid>
dock_pv

> <b_m_subgroup_collapsed>
1

$$$$
CHEMBL258_lig786
                    3D
 Schrodinger Suite 2021-1.
 51 54  0  0  1  0            999 V2000
   19.9135   36.7681   85.2734 C   0  0  0  0  0  0
   19.7602   36.0591   86.4870 C   0  0  0  0  0  0
   18.6078   36.2506   87.2600 C   0  0  0  0  0  0
   17.6159   37.1330   86.8385 C   0  0  0  0  0  0
   17.7501   37.8028   85.6232 C   0  0  0  0  0  0
   18.8813   37.6135   84.8307 C   0  0  0  0  0  0
   20.7698   35.0048   86.9364 C   0  0  0  0  0  0
   21.0684   36.6225   84.4794 N   0  0  0  0  0  0
   22.3121   36.9397   84.8927 C   0  0  0  0  0  0
   22.5499   37.5352   85.9465 O   0  0  0  0  0  0
   23.3757   36.4995   84.0224 C   0  0  0  0  0  0
   23.3721   35.6613   82.8969 C   0  0  0  0  0  0
   24.5459   35.4210   82.3404 N   0  0  0  0  0  0
   25.5254   36.0573   82.9340 C   0  0  0  0  0  0
   25.0269   36.9561   84.3394 S   0  0  0  0  0  0
   26.8264   35.9597   82.4869 N   0  0  0  0  0  0
   28.0191   36.6212   82.8185 C   0  0  0  0  0  0
   28.1057   37.8136   83.5540 C   0  0  0  0  0  0
   29.3750   38.3802   83.7642 C   0  0  0  0  0  0
   30.4800   37.8199   83.1921 N   0  0  0  0  0  0
   30.3015   36.6765   82.4868 C   0  0  0  0  0  0
   29.1221   36.0463   82.2815 N   0  0  0  0  0  0
   18.9501   38.4262   83.3039 Cl  0  0  0  0  0  0
   29.5487   39.5908   84.4465 N   0  0  0  0  0  0
   30.8989   40.1005   84.7795 C   0  0  0  0  0  0
   30.9505   41.5915   85.1667 C   0  0  0  0  0  0
   30.0212   41.8555   86.2046 O   0  0  0  0  0  0
   28.6973   41.5935   85.7744 C   0  0  0  0  0  0
   28.5375   40.1052   85.3969 C   0  0  0  0  0  0
   31.5273   36.0579   81.8465 C   0  0  0  0  0  0
   18.4688   35.6990   88.1775 H   0  0  0  0  0  0
   16.7287   37.2821   87.4366 H   0  0  0  0  0  0
   16.9604   38.4603   85.2868 H   0  0  0  0  0  0
   21.1285   34.4246   86.0872 H   0  0  0  0  0  0
   21.6380   35.4628   87.4101 H   0  0  0  0  0  0
   20.3235   34.2834   87.6226 H   0  0  0  0  0  0
   20.9425   36.2076   83.5706 H   0  0  0  0  0  0
   22.5013   35.1843   82.4686 H   0  0  0  0  0  0
   27.0057   35.3755   81.6797 H   0  0  0  0  0  0
   27.2272   38.3048   83.9181 H   0  0  0  0  0  0
   31.3181   39.4904   85.5817 H   0  0  0  0  0  0
   31.5585   39.9765   83.9198 H   0  0  0  0  0  0
   30.7554   42.2209   84.2976 H   0  0  0  0  0  0
   31.9493   41.8519   85.5174 H   0  0  0  0  0  0
   28.4302   42.2402   84.9353 H   0  0  0  0  0  0
   28.0136   41.8464   86.5851 H   0  0  0  0  0  0
   27.5404   40.0175   84.9730 H   0  0  0  0  0  0
   28.5486   39.4877   86.2958 H   0  0  0  0  0  0
   32.3935   36.1398   82.5036 H   0  0  0  0  0  0
   31.3762   34.9987   81.6348 H   0  0  0  0  0  0
   31.7557   36.5636   80.9082 H   0  0  0  0  0  0
  1  8  1  0  0  0
  1  6  2  0  0  0
  1  2  1  0  0  0
  2  3  2  0  0  0
  2  7  1  0  0  0
  3  4  1  0  0  0
  3 31  1  0  0  0
  4  5  2  0  0  0
  4 32  1  0  0  0
  5  6  1  0  0  0
  5 33  1  0  0  0
  6 23  1  0  0  0
  7 34  1  0  0  0
  7 35  1  0  0  0
  7 36  1  0  0  0
  8  9  1  0  0  0
  8 37  1  0  0  0
  9 10  2  0  0  0
  9 11  1  0  0  0
 11 15  1  0  0  0
 11 12  2  0  0  0
 12 13  1  0  0  0
 12 38  1  0  0  0
 13 14  2  0  0  0
 14 15  1  0  0  0
 14 16  1  0  0  0
 16 17  1  0  0  0
 16 39  1  0  0  0
 17 18  2  0  0  0
 17 22  1  0  0  0
 18 19  1  0  0  0
 18 40  1  0  0  0
 19 20  2  0  0  0
 19 24  1  0  0  0
 20 21  1  0  0  0
 21 22  2  0  0  0
 21 30  1  0  0  0
 24 25  1  0  0  0
 24 29  1  0  0  0
 25 26  1  0  0  0
 25 41  1  0  0  0
 25 42  1  0  0  0
 26 27  1  0  0  0
 26 43  1  0  0  0
 26 44  1  0  0  0
 27 28  1  0  0  0
 28 29  1  0  0  0
 28 45  1  0  0  0
 28 46  1  0  0  0
 29 47  1  0  0  0
 29 48  1  0  0  0
 30 49  1  0  0  0
 30 50  1  0  0  0
 30 51  1  0  0  0
M  END
> <s_m_entry_id>
4713

> <s_m_entry_name>
dock_pv.201

> <s_m_Source_Path>
/home/csk/Desktop/cluster/DUD-E-result/lck

> <s_m_Source_File>
dock_pv.maegz

> <i_m_Source_File_Index>
201

> <chembl_id>
CHEMBL217039

> <chembl_pref_name>
None

> <i_lp_mmshare_version>
53161

> <i_f3d_flags>
0

> <r_lp_tautomer_probability>
0.999999999985434

> <s_lp_Force_Field>
OPLS_2005

> <r_lp_Energy>
26.303993

> <b_lp_Chiralities_Consistent>
1

> <s_lp_Variant>
CHEMBL258_lig786-1

> <s_i_glide_gridfile>
glide-grid_2of2

> <i_i_glide_lignum>
871

> <i_i_glide_rotatable_bonds>
6

> <r_i_docking_score>
-7.17594911650262

> <r_i_glide_ligand_efficiency>
-0.239198303883421

> <r_i_glide_ligand_efficiency_sa>
-0.743244744352953

> <r_i_glide_ligand_efficiency_ln>
-1.63045382749741

> <r_i_glide_gscore>
-7.17594911650262

> <r_i_glide_lipo>
-2.78752791247216

> <r_i_glide_hbond>
-0.213909073235416

> <r_i_glide_metal>
0

> <r_i_glide_rewards>
-1.86394946744768

> <r_i_glide_evdw>
-46.6708869934082

> <r_i_glide_ecoul>
-3.88862490653992

> <r_i_glide_erotb>
0.606275422304032

> <r_i_glide_esite>
0

> <r_i_glide_emodel>
-68.2814778401866

> <r_i_glide_energy>
-50.5595118999481

> <r_i_glide_einternal>
6.50858545303345

> <i_i_glide_confnum>
19

> <i_i_glide_posenum>
213

> <r_i_glide_eff_state_penalty>
0

> <s_user_duplicate_titles>
CHEMBL258_lig786,361434

> <s_m_subgroup_title>
dock_pv

> <s_m_subgroupid>
dock_pv

> <b_m_subgroup_collapsed>
1

$$$$
CHEMBL258_lig220
                    3D
 Schrodinger Suite 2021-1.
 49 52  0  0  1  0            999 V2000
   22.3359   37.1270   84.4499 C   0  0  0  0  0  0
   23.4021   36.5023   83.7801 C   0  0  0  0  0  0
   22.5134   38.2478   85.1915 N   0  0  0  0  0  0
   24.6627   37.0684   83.9905 N   0  0  0  0  0  0
   23.7505   38.8015   85.3405 C   0  0  0  0  0  0
   24.8845   38.1688   84.7487 C   0  0  0  0  0  0
   21.0358   36.6356   84.3099 N   0  0  0  0  0  0
   23.9355   40.0263   86.0764 C   0  0  0  0  0  0
   24.9290   35.3408   82.5921 N   0  0  0  0  0  0
   19.9409   36.8508   85.1683 C   0  0  0  0  0  0
   25.5410   36.2979   83.2572 C   0  0  0  0  0  0
   23.6485   35.4222   82.8864 C   0  0  0  0  0  0
   22.8927   40.8090   86.6367 N   0  0  0  0  0  0
   18.8787   37.6823   84.7701 C   0  0  0  0  0  0
   19.8688   36.1883   86.4122 C   0  0  0  0  0  0
   18.9123   38.5747   83.2872 Cl  0  0  0  0  0  0
   26.1844   38.7028   84.9426 C   0  0  0  0  0  0
   25.2408   40.5020   86.2496 C   0  0  0  0  0  0
   26.3432   39.8542   85.7030 C   0  0  0  0  0  0
   17.6757   37.1438   86.7994 C   0  0  0  0  0  0
   22.3823   41.9235   85.8195 C   0  0  0  0  0  0
   21.9462   40.1277   87.5346 C   0  0  0  0  0  0
   17.7586   37.8210   85.5872 C   0  0  0  0  0  0
   18.7225   36.3230   87.2044 C   0  0  0  0  0  0
   20.9794   35.2546   86.8869 C   0  0  0  0  0  0
   23.4273   42.8191   85.1303 C   0  0  0  0  0  0
   20.4832   40.0717   87.0479 C   0  0  0  0  0  0
   20.9658   35.7909   83.7649 H   0  0  0  0  0  0
   26.6001   36.4996   83.2167 H   0  0  0  0  0  0
   22.9371   34.7258   82.4662 H   0  0  0  0  0  0
   27.0527   38.2280   84.5095 H   0  0  0  0  0  0
   25.4052   41.4069   86.8162 H   0  0  0  0  0  0
   27.3318   40.2620   85.8576 H   0  0  0  0  0  0
   16.7962   37.2551   87.4176 H   0  0  0  0  0  0
   21.7184   41.5173   85.0564 H   0  0  0  0  0  0
   21.7677   42.5626   86.4566 H   0  0  0  0  0  0
   22.2834   39.1111   87.7419 H   0  0  0  0  0  0
   21.9717   40.6497   88.4913 H   0  0  0  0  0  0
   16.9482   38.4667   85.2835 H   0  0  0  0  0  0
   18.6264   35.7780   88.1303 H   0  0  0  0  0  0
   20.6415   34.5868   87.6807 H   0  0  0  0  0  0
   21.3322   34.6133   86.0808 H   0  0  0  0  0  0
   21.8303   35.8352   87.2442 H   0  0  0  0  0  0
   22.9361   43.6388   84.6049 H   0  0  0  0  0  0
   24.1119   43.2646   85.8512 H   0  0  0  0  0  0
   24.0101   42.2715   84.3901 H   0  0  0  0  0  0
   19.8816   39.4291   87.6871 H   0  0  0  0  0  0
   20.0181   41.0583   87.0508 H   0  0  0  0  0  0
   20.4128   39.6774   86.0358 H   0  0  0  0  0  0
  1  2  1  0  0  0
  1  3  2  0  0  0
  1  7  1  0  0  0
  2  4  1  0  0  0
  2 12  2  0  0  0
  3  5  1  0  0  0
  4 11  1  0  0  0
  4  6  1  0  0  0
  5  6  1  0  0  0
  5  8  2  0  0  0
  6 17  2  0  0  0
  7 10  1  0  0  0
  7 28  1  0  0  0
  8 13  1  0  0  0
  8 18  1  0  0  0
  9 12  1  0  0  0
  9 11  2  0  0  0
 10 14  2  0  0  0
 10 15  1  0  0  0
 11 29  1  0  0  0
 12 30  1  0  0  0
 13 21  1  0  0  0
 13 22  1  0  0  0
 14 16  1  0  0  0
 14 23  1  0  0  0
 15 24  2  0  0  0
 15 25  1  0  0  0
 17 19  1  0  0  0
 17 31  1  0  0  0
 18 19  2  0  0  0
 18 32  1  0  0  0
 19 33  1  0  0  0
 20 24  1  0  0  0
 20 23  2  0  0  0
 20 34  1  0  0  0
 21 26  1  0  0  0
 21 35  1  0  0  0
 21 36  1  0  0  0
 22 27  1  0  0  0
 22 37  1  0  0  0
 22 38  1  0  0  0
 23 39  1  0  0  0
 24 40  1  0  0  0
 25 41  1  0  0  0
 25 42  1  0  0  0
 25 43  1  0  0  0
 26 44  1  0  0  0
 26 45  1  0  0  0
 26 46  1  0  0  0
 27 47  1  0  0  0
 27 48  1  0  0  0
 27 49  1  0  0  0
M  END
> <s_m_entry_id>
4714

> <s_m_entry_name>
dock_pv.202

> <s_m_Source_Path>
/home/csk/Desktop/cluster/DUD-E-result/lck

> <s_m_Source_File>
dock_pv.maegz

> <i_m_Source_File_Index>
202

> <chembl_id>
CHEMBL85835

> <chembl_pref_name>
None

> <i_lp_mmshare_version>
53161

> <i_f3d_flags>
0

> <r_lp_tautomer_probability>
1

> <s_lp_Force_Field>
OPLS_2005

> <r_lp_Energy>
67.59025

> <b_lp_Chiralities_Consistent>
1

> <s_lp_Variant>
CHEMBL258_lig220-1

> <s_i_glide_gridfile>
glide-grid_2of2

> <i_i_glide_lignum>
248

> <i_i_glide_rotatable_bonds>
5

> <r_i_docking_score>
-7.17426538923143

> <r_i_glide_ligand_efficiency>
-0.265713532934497

> <r_i_glide_ligand_efficiency_sa>
-0.797140597927744

> <r_i_glide_ligand_efficiency_ln>
-1.67005070560429

> <r_i_glide_gscore>
-7.17426538923143

> <r_i_glide_lipo>
-2.60821485761444

> <r_i_glide_hbond>
-0.0826760883886583

> <r_i_glide_metal>
0

> <r_i_glide_rewards>
-2.44148196228501

> <r_i_glide_evdw>
-39.2529220581055

> <r_i_glide_ecoul>
-3.21445751190186

> <r_i_glide_erotb>
0.40317800395297

> <r_i_glide_esite>
-0.000255755205741382

> <r_i_glide_emodel>
-58.2761313788359

> <r_i_glide_energy>
-42.4673795700073

> <r_i_glide_einternal>
3.28522634506226

> <i_i_glide_confnum>
14

> <i_i_glide_posenum>
386

> <r_i_glide_eff_state_penalty>
0

> <s_user_duplicate_titles>
CHEMBL258_lig220,136923

> <s_m_subgroup_title>
dock_pv

> <s_m_subgroupid>
dock_pv

> <b_m_subgroup_collapsed>
1

$$$$
CHEMBL258_lig199
                    3D
 Schrodinger Suite 2021-1.
 32 35  0  0  1  0            999 V2000
   24.4370   36.5040   83.6855 C   0  0  0  0  0  0
   23.5596   37.1846   84.5439 C   0  0  0  0  0  0
   25.7463   36.9886   83.6332 N   0  0  0  0  0  0
   23.9550   38.2505   85.2868 N   0  0  0  0  0  0
   22.2291   36.7616   84.6032 N   0  0  0  0  0  0
   21.1244   37.2458   85.3287 C   0  0  0  0  0  0
   26.1892   38.0414   84.3565 C   0  0  0  0  0  0
   25.2428   38.6826   85.2024 C   0  0  0  0  0  0
   25.6141   35.2596   82.2204 N   0  0  0  0  0  0
   26.4014   36.1891   82.7197 C   0  0  0  0  0  0
   24.4285   35.4213   82.7663 C   0  0  0  0  0  0
   20.4846   36.3971   86.2503 C   0  0  0  0  0  0
   20.5692   38.5171   85.0780 C   0  0  0  0  0  0
   21.3511   39.6955   84.0842 Cl  0  0  0  0  0  0
   21.1734   34.8823   86.7274 Cl  0  0  0  0  0  0
   27.5288   38.5119   84.3004 C   0  0  0  0  0  0
   25.6564   39.7885   85.9807 C   0  0  0  0  0  0
   18.6804   37.9883   86.4879 C   0  0  0  0  0  0
   19.2604   36.7638   86.8101 C   0  0  0  0  0  0
   19.3501   38.8757   85.6525 C   0  0  0  0  0  0
   27.9011   39.6024   85.0845 C   0  0  0  0  0  0
   26.9768   40.2328   85.9155 C   0  0  0  0  0  0
   22.0298   35.9545   84.0349 H   0  0  0  0  0  0
   27.4399   36.3295   82.4597 H   0  0  0  0  0  0
   23.5980   34.7836   82.4919 H   0  0  0  0  0  0
   28.2616   38.0349   83.6661 H   0  0  0  0  0  0
   24.9386   40.2782   86.6231 H   0  0  0  0  0  0
   17.7333   38.2746   86.9210 H   0  0  0  0  0  0
   18.7560   36.0946   87.4932 H   0  0  0  0  0  0
   18.9138   39.8429   85.4496 H   0  0  0  0  0  0
   28.9189   39.9644   85.0549 H   0  0  0  0  0  0
   27.2883   41.0765   86.5134 H   0  0  0  0  0  0
  1  2  1  0  0  0
  1  3  1  0  0  0
  1 11  2  0  0  0
  2  4  2  0  0  0
  2  5  1  0  0  0
  3  7  1  0  0  0
  3 10  1  0  0  0
  4  8  1  0  0  0
  5  6  1  0  0  0
  5 23  1  0  0  0
  6 12  1  0  0  0
  6 13  2  0  0  0
  7  8  1  0  0  0
  7 16  2  0  0  0
  8 17  2  0  0  0
  9 11  1  0  0  0
  9 10  2  0  0  0
 10 24  1  0  0  0
 11 25  1  0  0  0
 12 15  1  0  0  0
 12 19  2  0  0  0
 13 14  1  0  0  0
 13 20  1  0  0  0
 16 21  1  0  0  0
 16 26  1  0  0  0
 17 22  1  0  0  0
 17 27  1  0  0  0
 18 20  2  0  0  0
 18 19  1  0  0  0
 18 28  1  0  0  0
 19 29  1  0  0  0
 20 30  1  0  0  0
 21 22  2  0  0  0
 21 31  1  0  0  0
 22 32  1  0  0  0
M  END
> <s_m_entry_id>
4715

> <s_m_entry_name>
dock_pv.203

> <s_m_Source_Path>
/home/csk/Desktop/cluster/DUD-E-result/lck

> <s_m_Source_File>
dock_pv.maegz

> <i_m_Source_File_Index>
203

> <chembl_id>
CHEMBL29457

> <chembl_pref_name>
None

> <i_lp_mmshare_version>
53161

> <i_f3d_flags>
0

> <r_lp_tautomer_probability>
1

> <s_lp_Force_Field>
OPLS_2005

> <r_lp_Energy>
59.327822

> <b_lp_Chiralities_Consistent>
1

> <s_lp_Variant>
CHEMBL258_lig199-1

> <s_i_glide_gridfile>
glide-grid_2of2

> <i_i_glide_lignum>
227

> <i_i_glide_rotatable_bonds>
2

> <r_i_docking_score>
-7.17272926786428

> <r_i_glide_ligand_efficiency>
-0.326033148539285

> <r_i_glide_ligand_efficiency_sa>
-0.913557704363206

> <r_i_glide_ligand_efficiency_ln>
-1.753276664723

> <r_i_glide_gscore>
-7.17272926786428

> <r_i_glide_lipo>
-2.63565478783585

> <r_i_glide_hbond>
-0.214473528146338

> <r_i_glide_metal>
0

> <r_i_glide_rewards>
-2.67437527260551

> <r_i_glide_evdw>
-35.9487266540527

> <r_i_glide_ecoul>
-1.31746220588684

> <r_i_glide_erotb>
0.346829984309073

> <r_i_glide_esite>
0

> <r_i_glide_emodel>
-52.3720555708894

> <r_i_glide_energy>
-37.2661888599396

> <r_i_glide_einternal>
1.10648906230927

> <i_i_glide_confnum>
4

> <i_i_glide_posenum>
71

> <r_i_glide_eff_state_penalty>
0

> <s_user_duplicate_titles>
CHEMBL258_lig199,39314

> <s_m_subgroup_title>
dock_pv

> <s_m_subgroupid>
dock_pv

> <b_m_subgroup_collapsed>
1

$$$$
CHEMBL258_lig224
                    3D
 Schrodinger Suite 2021-1.
 35 38  0  0  1  0            999 V2000
   23.5027   36.4680   83.6960 C   0  0  0  0  0  0
   22.4558   37.0837   84.4034 C   0  0  0  0  0  0
   24.7818   36.9942   83.9050 N   0  0  0  0  0  0
   22.6658   38.1559   85.2125 N   0  0  0  0  0  0
   21.1490   36.6210   84.2210 N   0  0  0  0  0  0
   25.0376   38.0593   84.6961 C   0  0  0  0  0  0
   23.9228   38.6579   85.3449 C   0  0  0  0  0  0
   24.9849   35.2875   82.4797 N   0  0  0  0  0  0
   20.0157   36.8548   85.0202 C   0  0  0  0  0  0
   25.6315   36.2214   83.1437 C   0  0  0  0  0  0
   23.7070   35.4210   82.7639 C   0  0  0  0  0  0
   18.9410   37.6009   84.5031 C   0  0  0  0  0  0
   19.9206   36.3114   86.3203 C   0  0  0  0  0  0
   18.9489   38.2210   82.8866 Cl  0  0  0  0  0  0
   26.3432   38.5867   84.8893 C   0  0  0  0  0  0
   24.1344   39.7941   86.1593 C   0  0  0  0  0  0
   17.7383   37.3379   86.5809 C   0  0  0  0  0  0
   17.8147   37.8419   85.2877 C   0  0  0  0  0  0
   18.7756   36.5594   87.0846 C   0  0  0  0  0  0
   20.9917   35.3792   86.8868 C   0  0  0  0  0  0
   26.5146   39.6972   85.7135 C   0  0  0  0  0  0
   25.4228   40.2979   86.3374 C   0  0  0  0  0  0
   21.0634   35.8298   83.6028 H   0  0  0  0  0  0
   26.6956   36.3915   83.1041 H   0  0  0  0  0  0
   22.9661   34.7661   82.3280 H   0  0  0  0  0  0
   27.2006   38.1388   84.4074 H   0  0  0  0  0  0
   23.2888   40.2570   86.6473 H   0  0  0  0  0  0
   16.8613   37.5340   87.1811 H   0  0  0  0  0  0
   16.9930   38.4261   84.8976 H   0  0  0  0  0  0
   18.6777   36.1382   88.0743 H   0  0  0  0  0  0
   21.8428   35.9524   87.2567 H   0  0  0  0  0  0
   20.6134   34.7308   87.6841 H   0  0  0  0  0  0
   21.3499   34.7067   86.1046 H   0  0  0  0  0  0
   27.5052   40.1023   85.8661 H   0  0  0  0  0  0
   25.5757   41.1634   86.9651 H   0  0  0  0  0  0
  1  2  1  0  0  0
  1  3  1  0  0  0
  1 11  2  0  0  0
  2  4  2  0  0  0
  2  5  1  0  0  0
  3  6  1  0  0  0
  3 10  1  0  0  0
  4  7  1  0  0  0
  5  9  1  0  0  0
  5 23  1  0  0  0
  6  7  1  0  0  0
  6 15  2  0  0  0
  7 16  2  0  0  0
  8 11  1  0  0  0
  8 10  2  0  0  0
  9 12  1  0  0  0
  9 13  2  0  0  0
 10 24  1  0  0  0
 11 25  1  0  0  0
 12 14  1  0  0  0
 12 18  2  0  0  0
 13 19  1  0  0  0
 13 20  1  0  0  0
 15 21  1  0  0  0
 15 26  1  0  0  0
 16 22  1  0  0  0
 16 27  1  0  0  0
 17 19  2  0  0  0
 17 18  1  0  0  0
 17 28  1  0  0  0
 18 29  1  0  0  0
 19 30  1  0  0  0
 20 31  1  0  0  0
 20 32  1  0  0  0
 20 33  1  0  0  0
 21 22  2  0  0  0
 21 34  1  0  0  0
 22 35  1  0  0  0
M  END
> <s_m_entry_id>
4716

> <s_m_entry_name>
dock_pv.204

> <s_m_Source_Path>
/home/csk/Desktop/cluster/DUD-E-result/lck

> <s_m_Source_File>
dock_pv.maegz

> <i_m_Source_File_Index>
204

> <chembl_id>
CHEMBL283212

> <chembl_pref_name>
None

> <i_lp_mmshare_version>
53161

> <i_f3d_flags>
0

> <r_lp_tautomer_probability>
1

> <s_lp_Force_Field>
OPLS_2005

> <r_lp_Energy>
59.157542

> <b_lp_Chiralities_Consistent>
1

> <s_lp_Variant>
CHEMBL258_lig224-1

> <s_i_glide_gridfile>
glide-grid_2of2

> <i_i_glide_lignum>
252

> <i_i_glide_rotatable_bonds>
2

> <r_i_docking_score>
-7.17193346084368

> <r_i_glide_ligand_efficiency>
-0.325996975492894

> <r_i_glide_ligand_efficiency_sa>
-0.913456346064613

> <r_i_glide_ligand_efficiency_ln>
-1.7530821404594

> <r_i_glide_gscore>
-7.17193346084368

> <r_i_glide_lipo>
-2.56487600870148

> <r_i_glide_hbond>
-0.0295054194703289

> <r_i_glide_metal>
0

> <r_i_glide_rewards>
-2.89401694145153

> <r_i_glide_evdw>
-34.0195045471191

> <r_i_glide_ecoul>
-2.47196912765503

> <r_i_glide_erotb>
0.388235505283872

> <r_i_glide_esite>
0

> <r_i_glide_emodel>
-50.9965780685826

> <r_i_glide_energy>
-36.4914736747742

> <r_i_glide_einternal>
1.35813069343567

> <i_i_glide_confnum>
2

> <i_i_glide_posenum>
372

> <r_i_glide_eff_state_penalty>
0

> <s_user_duplicate_titles>
CHEMBL258_lig224,38871

> <s_m_subgroup_title>
dock_pv

> <s_m_subgroupid>
dock_pv

> <b_m_subgroup_collapsed>
1

$$$$
CHEMBL258_lig1140
                    3D
 Schrodinger Suite 2021-1.
 38 41  0  0  1  0            999 V2000
   25.3253   35.1353   82.1648 N   0  0  0  0  0  0
   26.1838   35.8953   82.8871 C   0  0  0  0  0  0
   25.7497   36.8319   83.8299 C   0  0  0  0  0  0
   24.3649   36.9840   84.0031 C   0  0  0  0  0  0
   23.4841   36.2207   83.2929 N   0  0  0  0  0  0
   24.0080   35.3392   82.4085 C   0  0  0  0  0  0
   23.8281   37.9741   84.8792 N   0  0  0  0  0  0
   22.4307   38.9666   86.3683 N   0  0  0  0  0  0
   22.6072   37.9534   85.5585 C   0  0  0  0  0  0
   23.5203   39.7581   86.1809 C   0  0  0  0  0  0
   24.4226   39.1827   85.2491 C   0  0  0  0  0  0
   25.6005   39.8545   84.8769 C   0  0  0  0  0  0
   25.8527   41.0878   85.4833 C   0  0  0  0  0  0
   24.9789   41.6460   86.4137 C   0  0  0  0  0  0
   23.8006   40.9954   86.7750 C   0  0  0  0  0  0
   21.6828   36.9462   85.3937 N   0  0  0  0  0  0
   20.3797   36.9234   85.9199 C   0  0  0  0  0  0
   19.4323   37.9106   85.5838 C   0  0  0  0  0  0
   18.1498   37.8601   86.1233 C   0  0  0  0  0  0
   17.7869   36.8379   86.9908 C   0  0  0  0  0  0
   18.7014   35.8320   87.2870 C   0  0  0  0  0  0
   19.9875   35.8497   86.7394 C   0  0  0  0  0  0
   20.9317   34.6903   87.0502 C   0  0  0  0  0  0
   19.7823   39.2016   84.4874 Cl  0  0  0  0  0  0
   27.2371   35.7326   82.7053 H   0  0  0  0  0  0
   26.4721   37.3842   84.4088 H   0  0  0  0  0  0
   23.3093   34.7415   81.8418 H   0  0  0  0  0  0
   26.2834   39.4759   84.1334 H   0  0  0  0  0  0
   26.7469   41.6339   85.2165 H   0  0  0  0  0  0
   25.2122   42.6072   86.8496 H   0  0  0  0  0  0
   23.1144   41.4392   87.4807 H   0  0  0  0  0  0
   21.9323   36.1119   84.8852 H   0  0  0  0  0  0
   17.4262   38.6196   85.8643 H   0  0  0  0  0  0
   16.7912   36.8146   87.4093 H   0  0  0  0  0  0
   18.4037   35.0260   87.9419 H   0  0  0  0  0  0
   21.7641   35.0247   87.6696 H   0  0  0  0  0  0
   20.4241   33.8674   87.5541 H   0  0  0  0  0  0
   21.3499   34.2880   86.1274 H   0  0  0  0  0  0
  1  6  1  0  0  0
  1  2  2  0  0  0
  2  3  1  0  0  0
  2 25  1  0  0  0
  3  4  2  0  0  0
  3 26  1  0  0  0
  4  7  1  0  0  0
  4  5  1  0  0  0
  5  6  2  0  0  0
  6 27  1  0  0  0
  7 11  1  0  0  0
  7  9  1  0  0  0
  8 10  1  0  0  0
  8  9  2  0  0  0
  9 16  1  0  0  0
 10 15  1  0  0  0
 10 11  2  0  0  0
 11 12  1  0  0  0
 12 13  2  0  0  0
 12 28  1  0  0  0
 13 14  1  0  0  0
 13 29  1  0  0  0
 14 15  2  0  0  0
 14 30  1  0  0  0
 15 31  1  0  0  0
 16 17  1  0  0  0
 16 32  1  0  0  0
 17 18  2  0  0  0
 17 22  1  0  0  0
 18 19  1  0  0  0
 18 24  1  0  0  0
 19 20  2  0  0  0
 19 33  1  0  0  0
 20 21  1  0  0  0
 20 34  1  0  0  0
 21 22  2  0  0  0
 21 35  1  0  0  0
 22 23  1  0  0  0
 23 36  1  0  0  0
 23 37  1  0  0  0
 23 38  1  0  0  0
M  END
> <s_m_entry_id>
4717

> <s_m_entry_name>
dock_pv.205

> <s_m_Source_Path>
/home/csk/Desktop/cluster/DUD-E-result/lck

> <s_m_Source_File>
dock_pv.maegz

> <i_m_Source_File_Index>
205

> <chembl_id>
CHEMBL477624

> <chembl_pref_name>
None

> <i_lp_mmshare_version>
53161

> <i_f3d_flags>
0

> <r_lp_tautomer_probability>
1

> <s_lp_Force_Field>
OPLS_2005

> <r_lp_Energy>
21.095492

> <b_lp_Chiralities_Consistent>
1

> <s_lp_Variant>
CHEMBL258_lig1140-1

> <s_i_glide_gridfile>
glide-grid_2of2

> <i_i_glide_lignum>
1228

> <i_i_glide_rotatable_bonds>
3

> <r_i_docking_score>
-7.17162082568796

> <r_i_glide_ligand_efficiency>
-0.298817534403665

> <r_i_glide_ligand_efficiency_sa>
-0.861938920274914

> <r_i_glide_ligand_efficiency_ln>
-1.7164979478234

> <r_i_glide_gscore>
-7.17162082568796

> <r_i_glide_lipo>
-1.88751590288832

> <r_i_glide_hbond>
-0.314606046759733

> <r_i_glide_metal>
0

> <r_i_glide_rewards>
-3.23176668317664

> <r_i_glide_evdw>
-34.4348297119141

> <r_i_glide_ecoul>
-3.4551112651825

> <r_i_glide_erotb>
0.502275982509808

> <r_i_glide_esite>
0

> <r_i_glide_emodel>
-54.7261036124689

> <r_i_glide_energy>
-37.8899409770966

> <r_i_glide_einternal>
0.335572689771652

> <i_i_glide_confnum>
1

> <i_i_glide_posenum>
300

> <r_i_glide_eff_state_penalty>
0

> <s_user_duplicate_titles>
CHEMBL258_lig1140

> <s_m_subgroup_title>
dock_pv

> <s_m_subgroupid>
dock_pv

> <b_m_subgroup_collapsed>
1

$$$$
CHEMBL258_lig155
                    3D
 Schrodinger Suite 2021-1.
 84 88  0  0  1  0            999 V2000
   24.7135   42.2122   87.3149 N   0  0  0  0  0  0
   25.8389   41.9215   88.0442 C   0  0  0  0  0  0
   24.7776   42.8011   85.9939 N   0  0  0  0  0  0
   23.3239   42.1635   87.8836 C   0  0  2  0  0  0
   22.4203   41.0772   87.2358 C   0  0  0  0  0  0
   19.4230   39.0321   85.6699 C   0  0  1  0  0  0
   21.5682   40.1225   85.0455 C   0  0  1  0  0  0
   30.8793   48.6196   84.5953 P   0  0  0  0  0  0
   20.5671   38.0395   85.7076 C   0  0  0  0  0  0
   22.3429   41.0396   85.8919 N   0  0  0  0  0  0
   25.2257   42.1315   84.8888 C   0  0  0  0  0  0
   28.7253   42.9374   88.9492 C   0  0  0  0  0  0
   27.1658   42.0196   87.2143 C   0  0  1  0  0  0
   21.7700   38.6531   85.3381 C   0  0  0  0  0  0
   28.3811   41.9845   88.0543 N   0  0  0  0  0  0
   20.0504   40.3268   85.1097 C   0  0  0  0  0  0
   18.2258   38.5089   84.8464 C   0  0  0  0  0  0
   30.1514   42.9117   89.5631 C   0  0  1  0  0  0
   31.1039   42.0128   88.8910 N   0  0  0  0  0  0
   32.1502   41.4215   89.4891 C   0  0  0  0  0  0
   25.8136   41.5080   89.2077 O   0  0  0  0  0  0
   31.9589   47.8131   85.5081 O   0  0  0  0  0  0
   30.4560   49.9509   85.1068 O   0  0  0  0  0  0
   21.7908   40.3019   87.9583 O   0  0  0  0  0  0
   27.9599   43.8427   89.2820 O   0  0  0  0  0  0
   25.9778   40.8190   85.1983 C   0  0  0  0  0  0
   25.1925   42.5790   83.7441 O   0  0  0  0  0  0
   30.7386   44.3323   89.8454 C   0  0  0  0  0  0
   27.2443   40.9471   86.0945 C   0  0  0  0  0  0
   17.9793   38.8375   83.6874 O   0  0  0  0  0  0
   32.4110   41.5538   90.6831 O   0  0  0  0  0  0
   31.6131   48.6211   83.1585 O   0  0  0  0  0  0
   29.6947   47.5391   84.3522 O   0  0  0  0  0  0
   24.3250   44.2100   85.9835 C   0  0  0  0  0  0
   31.6185   46.9825   86.5372 C   0  0  0  0  0  0
   31.0353   45.2379   88.6389 C   0  0  0  0  0  0
   17.4741   37.6279   85.5596 O   0  0  0  0  0  0
   22.6753   43.5731   87.8005 C   0  0  0  0  0  0
   31.3764   46.5713   88.8964 C   0  0  0  0  0  0
   30.9906   44.7889   87.3114 C   0  0  0  0  0  0
   31.2899   45.6564   86.2666 C   0  0  0  0  0  0
   31.6686   47.4414   87.8505 C   0  0  0  0  0  0
   20.5611   36.6944   86.0898 C   0  0  0  0  0  0
   22.9536   37.9213   85.3103 C   0  0  0  0  0  0
   22.8536   44.2447   86.4301 C   0  0  0  0  0  0
   33.0231   40.5262   88.6194 C   0  0  0  0  0  0
   21.7495   35.9705   86.0852 C   0  0  0  0  0  0
   22.9361   36.5831   85.6839 C   0  0  0  0  0  0
   23.3498   41.8669   88.9346 H   0  0  0  0  0  0
   19.0502   39.2104   86.6802 H   0  0  0  0  0  0
   21.8847   40.2964   84.0151 H   0  0  0  0  0  0
   22.8450   41.7597   85.3940 H   0  0  0  0  0  0
   27.2088   42.9961   86.7231 H   0  0  0  0  0  0
   29.0835   41.3089   87.7907 H   0  0  0  0  0  0
   19.7757   41.1728   85.7375 H   0  0  0  0  0  0
   19.7497   40.5436   84.0879 H   0  0  0  0  0  0
   29.9748   42.4688   90.5448 H   0  0  0  0  0  0
   30.9527   41.8568   87.9061 H   0  0  0  0  0  0
   26.2282   40.3123   84.2648 H   0  0  0  0  0  0
   25.2659   40.1508   85.6855 H   0  0  0  0  0  0
   31.6665   44.2235   90.4093 H   0  0  0  0  0  0
   30.0588   44.8718   90.5086 H   0  0  0  0  0  0
   28.0918   41.1852   85.4485 H   0  0  0  0  0  0
   27.4777   39.9709   86.5250 H   0  0  0  0  0  0
   31.7502   47.6624   82.8801 H   0  0  0  0  0  0
   29.9813   46.7096   83.9159 H   0  0  0  0  0  0
   24.9481   44.7788   86.6755 H   0  0  0  0  0  0
   24.4313   44.6761   85.0011 H   0  0  0  0  0  0
   16.6876   37.3883   85.0658 H   0  0  0  0  0  0
   23.1382   44.2133   88.5540 H   0  0  0  0  0  0
   21.6139   43.5368   88.0555 H   0  0  0  0  0  0
   31.4203   46.9348   89.9123 H   0  0  0  0  0  0
   30.7330   43.7729   87.0576 H   0  0  0  0  0  0
   31.2765   45.2963   85.2478 H   0  0  0  0  0  0
   31.9413   48.4653   88.0557 H   0  0  0  0  0  0
   19.6481   36.2037   86.3939 H   0  0  0  0  0  0
   23.8847   38.3843   85.0220 H   0  0  0  0  0  0
   22.5052   45.2771   86.4814 H   0  0  0  0  0  0
   22.2117   43.7806   85.6798 H   0  0  0  0  0  0
   32.7103   40.5503   87.5751 H   0  0  0  0  0  0
   34.0633   40.8438   88.6773 H   0  0  0  0  0  0
   32.9569   39.4962   88.9685 H   0  0  0  0  0  0
   21.7443   34.9320   86.3832 H   0  0  0  0  0  0
   23.8566   36.0189   85.6758 H   0  0  0  0  0  0
  1  2  1  0  0  0
  1  3  1  0  0  0
  1  4  1  0  0  0
  2 13  1  0  0  0
  2 21  2  0  0  0
  3 11  1  0  0  0
  3 34  1  0  0  0
  4  5  1  0  0  0
  4 38  1  0  0  0
  4 49  1  0  0  0
  5 10  1  0  0  0
  5 24  2  0  0  0
  6 16  1  0  0  0
  6 17  1  0  0  0
  6  9  1  0  0  0
  6 50  1  0  0  0
  7 10  1  0  0  0
  7 14  1  0  0  0
  7 16  1  0  0  0
  7 51  1  0  0  0
  8 22  1  0  0  0
  8 23  2  0  0  0
  8 32  1  0  0  0
  8 33  1  0  0  0
  9 14  2  0  0  0
  9 43  1  0  0  0
 10 52  1  0  0  0
 11 26  1  0  0  0
 11 27  2  0  0  0
 12 15  1  0  0  0
 12 18  1  0  0  0
 12 25  2  0  0  0
 13 15  1  0  0  0
 13 29  1  0  0  0
 13 53  1  0  0  0
 14 44  1  0  0  0
 15 54  1  0  0  0
 16 55  1  0  0  0
 16 56  1  0  0  0
 17 30  2  0  0  0
 17 37  1  0  0  0
 18 19  1  0  0  0
 18 28  1  0  0  0
 18 57  1  0  0  0
 19 20  1  0  0  0
 19 58  1  0  0  0
 20 31  2  0  0  0
 20 46  1  0  0  0
 22 35  1  0  0  0
 26 29  1  0  0  0
 26 59  1  0  0  0
 26 60  1  0  0  0
 28 36  1  0  0  0
 28 61  1  0  0  0
 28 62  1  0  0  0
 29 63  1  0  0  0
 29 64  1  0  0  0
 32 65  1  0  0  0
 33 66  1  0  0  0
 34 45  1  0  0  0
 34 67  1  0  0  0
 34 68  1  0  0  0
 35 41  1  0  0  0
 35 42  2  0  0  0
 36 39  2  0  0  0
 36 40  1  0  0  0
 37 69  1  0  0  0
 38 45  1  0  0  0
 38 70  1  0  0  0
 38 71  1  0  0  0
 39 42  1  0  0  0
 39 72  1  0  0  0
 40 41  2  0  0  0
 40 73  1  0  0  0
 41 74  1  0  0  0
 42 75  1  0  0  0
 43 47  2  0  0  0
 43 76  1  0  0  0
 44 48  2  0  0  0
 44 77  1  0  0  0
 45 78  1  0  0  0
 45 79  1  0  0  0
 46 80  1  0  0  0
 46 81  1  0  0  0
 46 82  1  0  0  0
 47 48  1  0  0  0
 47 83  1  0  0  0
 48 84  1  0  0  0
M  END
> <s_m_entry_id>
4718

> <s_m_entry_name>
dock_pv.206

> <s_m_Source_Path>
/home/csk/Desktop/cluster/DUD-E-result/lck

> <s_m_Source_File>
dock_pv.maegz

> <i_m_Source_File_Index>
206

> <chembl_id>
CHEMBL29614

> <chembl_pref_name>
None

> <i_lp_mmshare_version>
53161

> <i_f3d_flags>
0

> <r_lp_tautomer_probability>
1

> <s_lp_Force_Field>
OPLS_2005

> <r_lp_Energy>
27.306649

> <b_lp_Chiralities_Consistent>
1

> <s_lp_Variant>
CHEMBL258_lig155-4

> <s_i_glide_gridfile>
glide-grid_2of2

> <i_i_glide_lignum>
182

> <i_i_glide_rotatable_bonds>
16

> <r_i_docking_score>
-7.17112765359349

> <r_i_glide_ligand_efficiency>
-0.149398492783198

> <r_i_glide_ligand_efficiency_sa>
-0.542950154848242

> <r_i_glide_ligand_efficiency_ln>
-1.47214775935862

> <r_i_glide_gscore>
-7.17112765359349

> <r_i_glide_lipo>
-1.44496081082377

> <r_i_glide_hbond>
-0.302369414314579

> <r_i_glide_metal>
0

> <r_i_glide_rewards>
-0.193211160977996

> <r_i_glide_evdw>
-40.4056777954102

> <r_i_glide_ecoul>
-23.5390625

> <r_i_glide_erotb>
0.376966605650572

> <r_i_glide_esite>
-0.0564096083572074

> <r_i_glide_emodel>
-87.8413173210628

> <r_i_glide_energy>
-63.9447402954102

> <r_i_glide_einternal>
10.4603214263916

> <i_i_glide_confnum>
1

> <i_i_glide_posenum>
8

> <r_i_glide_eff_state_penalty>
0

> <s_user_duplicate_titles>
CHEMBL258_lig155,CHEMBL258_lig159

> <s_m_subgroup_title>
dock_pv

> <s_m_subgroupid>
dock_pv

> <b_m_subgroup_collapsed>
1

$$$$
CHEMBL258_lig902
                    3D
 Schrodinger Suite 2021-1.
 49 53  0  0  1  0            999 V2000
   23.4544   36.3506   83.5706 N   0  0  0  0  0  0
   23.8725   35.4209   82.6792 C   0  0  0  0  0  0
   25.1433   35.1888   82.2649 N   0  0  0  0  0  0
   24.3823   37.2096   84.0867 C   0  0  0  0  0  0
   23.9663   38.2256   84.9646 N   0  0  0  0  0  0
   25.7325   37.1012   83.6857 C   0  0  0  0  0  0
   26.0141   36.0470   82.7929 C   0  0  0  0  0  0
   27.3299   35.9938   82.4866 O   0  0  0  0  0  0
   27.9341   37.0387   83.1283 C   0  0  0  0  0  0
   26.9879   37.7818   83.8694 C   0  0  0  0  0  0
   27.1863   39.0158   84.6699 C   0  0  0  0  0  0
   26.9887   38.9931   86.0522 C   0  0  0  0  0  0
   27.1809   40.1514   86.8000 C   0  0  0  0  0  0
   27.5651   41.3278   86.1608 C   0  0  0  0  0  0
   27.7545   41.3600   84.7804 C   0  0  0  0  0  0
   27.5594   40.2020   84.0318 C   0  0  0  0  0  0
   29.4146   37.1334   82.8870 C   0  0  0  0  0  0
   30.0391   36.2380   82.0032 C   0  0  0  0  0  0
   31.4053   36.3239   81.7534 C   0  0  0  0  0  0
   32.1623   37.2983   82.3975 C   0  0  0  0  0  0
   31.5644   38.1821   83.2921 C   0  0  0  0  0  0
   30.1958   38.0979   83.5384 C   0  0  0  0  0  0
   22.5469   38.4446   85.2616 C   0  0  0  0  0  0
   21.9609   37.5811   86.4065 C   0  0  1  0  0  0
   20.4247   37.5935   86.4532 C   0  0  0  0  0  0
   20.0013   36.1376   86.5758 C   0  0  0  0  0  0
   21.3032   35.3514   86.6718 C   0  0  0  0  0  0
   22.2678   36.2212   86.1082 O   0  0  0  0  0  0
   23.1093   34.7669   82.2794 H   0  0  0  0  0  0
   24.6676   38.7184   85.4977 H   0  0  0  0  0  0
   26.7036   38.0751   86.5457 H   0  0  0  0  0  0
   27.0440   40.1335   87.8713 H   0  0  0  0  0  0
   27.7189   42.2261   86.7403 H   0  0  0  0  0  0
   28.0542   42.2776   84.2942 H   0  0  0  0  0  0
   27.7061   40.2217   82.9620 H   0  0  0  0  0  0
   29.4707   35.4777   81.4854 H   0  0  0  0  0  0
   31.8706   35.6400   81.0589 H   0  0  0  0  0  0
   33.2226   37.3651   82.2033 H   0  0  0  0  0  0
   32.1600   38.9296   83.7936 H   0  0  0  0  0  0
   29.7650   38.7818   84.2519 H   0  0  0  0  0  0
   21.9617   38.2855   84.3554 H   0  0  0  0  0  0
   22.4177   39.5026   85.4932 H   0  0  0  0  0  0
   22.4179   37.8407   87.3635 H   0  0  0  0  0  0
   19.9947   37.9868   85.5306 H   0  0  0  0  0  0
   20.0524   38.1873   87.2868 H   0  0  0  0  0  0
   19.4536   35.8263   85.6860 H   0  0  0  0  0  0
   19.3471   35.9575   87.4290 H   0  0  0  0  0  0
   21.2759   34.4129   86.1193 H   0  0  0  0  0  0
   21.5955   35.0960   87.6868 H   0  0  0  0  0  0
  1  2  2  0  0  0
  1  4  1  0  0  0
  2  3  1  0  0  0
  2 29  1  0  0  0
  3  7  2  0  0  0
  4  6  2  0  0  0
  4  5  1  0  0  0
  5 23  1  0  0  0
  5 30  1  0  0  0
  6 10  1  0  0  0
  6  7  1  0  0  0
  7  8  1  0  0  0
  8  9  1  0  0  0
  9 10  2  0  0  0
  9 17  1  0  0  0
 10 11  1  0  0  0
 11 16  1  0  0  0
 11 12  2  0  0  0
 12 13  1  0  0  0
 12 31  1  0  0  0
 13 14  2  0  0  0
 13 32  1  0  0  0
 14 15  1  0  0  0
 14 33  1  0  0  0
 15 16  2  0  0  0
 15 34  1  0  0  0
 16 35  1  0  0  0
 17 18  2  0  0  0
 17 22  1  0  0  0
 18 19  1  0  0  0
 18 36  1  0  0  0
 19 20  2  0  0  0
 19 37  1  0  0  0
 20 21  1  0  0  0
 20 38  1  0  0  0
 21 22  2  0  0  0
 21 39  1  0  0  0
 22 40  1  0  0  0
 23 24  1  0  0  0
 23 41  1  0  0  0
 23 42  1  0  0  0
 24 25  1  0  0  0
 24 28  1  0  0  0
 24 43  1  0  0  0
 25 26  1  0  0  0
 25 44  1  0  0  0
 25 45  1  0  0  0
 26 27  1  0  0  0
 26 46  1  0  0  0
 26 47  1  0  0  0
 27 28  1  0  0  0
 27 48  1  0  0  0
 27 49  1  0  0  0
M  END
> <s_m_entry_id>
4720

> <s_m_entry_name>
dock_pv.208

> <s_m_Source_Path>
/home/csk/Desktop/cluster/DUD-E-result/lck

> <s_m_Source_File>
dock_pv.maegz

> <i_m_Source_File_Index>
208

> <chembl_id>
CHEMBL247068

> <chembl_pref_name>
None

> <i_lp_mmshare_version>
53161

> <i_f3d_flags>
0

> <r_lp_tautomer_probability>
1

> <s_lp_Force_Field>
OPLS_2005

> <r_lp_Energy>
32.399161

> <b_lp_Chiralities_Consistent>
1

> <s_lp_Variant>
CHEMBL258_lig902-1

> <s_i_glide_gridfile>
glide-grid_2of2

> <i_i_glide_lignum>
990

> <i_i_glide_rotatable_bonds>
5

> <r_i_docking_score>
-7.16901449947604

> <r_i_glide_ligand_efficiency>
-0.256036232124144

> <r_i_glide_ligand_efficiency_sa>
-0.777476798005203

> <r_i_glide_ligand_efficiency_ln>
-1.6548190378912

> <r_i_glide_gscore>
-7.16901449947604

> <r_i_glide_lipo>
-3.17161161409552

> <r_i_glide_hbond>
-0.212226218552438

> <r_i_glide_metal>
0

> <r_i_glide_rewards>
-2.13007663913034

> <r_i_glide_evdw>
-39.0629768371582

> <r_i_glide_ecoul>
-2.67688393592834

> <r_i_glide_erotb>
0.699581404549426

> <r_i_glide_esite>
0

> <r_i_glide_emodel>
-57.7318831083164

> <r_i_glide_energy>
-41.7398607730865

> <r_i_glide_einternal>
3.77992463111877

> <i_i_glide_confnum>
108

> <i_i_glide_posenum>
106

> <r_i_glide_eff_state_penalty>
0

> <s_user_duplicate_titles>
CHEMBL258_lig902

> <s_m_subgroup_title>
dock_pv

> <s_m_subgroupid>
dock_pv

> <b_m_subgroup_collapsed>
1

$$$$
CHEMBL258_lig208
                    3D
 Schrodinger Suite 2021-1.
 37 40  0  0  1  0            999 V2000
   22.4542   37.0813   84.3952 C   0  0  0  0  0  0
   23.5062   36.4675   83.6961 C   0  0  0  0  0  0
   24.7815   36.9968   83.9146 N   0  0  0  0  0  0
   22.6567   38.1544   85.2011 N   0  0  0  0  0  0
   23.9129   38.6687   85.3527 C   0  0  0  0  0  0
   25.0297   38.0615   84.7094 C   0  0  0  0  0  0
   21.1478   36.6209   84.2104 N   0  0  0  0  0  0
   24.9997   35.2941   82.4855 N   0  0  0  0  0  0
   20.0163   36.8480   85.0134 C   0  0  0  0  0  0
   25.6380   36.2286   83.1563 C   0  0  0  0  0  0
   23.7202   35.4210   82.7649 C   0  0  0  0  0  0
   24.1315   39.8222   86.1686 C   0  0  0  0  0  0
   18.9383   37.5905   84.4994 C   0  0  0  0  0  0
   19.9273   36.3035   86.3134 C   0  0  0  0  0  0
   23.0834   40.4913   86.8076 N   0  0  0  0  0  0
   18.9475   38.2207   82.8869 Cl  0  0  0  0  0  0
   26.3374   38.5800   84.9068 C   0  0  0  0  0  0
   26.5163   39.6908   85.7263 C   0  0  0  0  0  0
   17.7400   37.3161   86.5790 C   0  0  0  0  0  0
   25.4286   40.3071   86.3400 C   0  0  0  0  0  0
   17.8104   37.8210   85.2863 C   0  0  0  0  0  0
   18.7837   36.5456   87.0817 C   0  0  0  0  0  0
   21.0061   35.3777   86.8758 C   0  0  0  0  0  0
   21.0652   35.8259   83.5955 H   0  0  0  0  0  0
   26.7004   36.4036   83.1196 H   0  0  0  0  0  0
   22.9851   34.7656   82.3206 H   0  0  0  0  0  0
   23.2458   41.4046   87.2040 H   0  0  0  0  0  0
   22.1480   40.1907   86.5698 H   0  0  0  0  0  0
   27.1933   38.1229   84.4325 H   0  0  0  0  0  0
   27.5097   40.0869   85.8809 H   0  0  0  0  0  0
   16.8617   37.5053   87.1804 H   0  0  0  0  0  0
   25.6026   41.1748   86.9600 H   0  0  0  0  0  0
   16.9828   38.3986   84.8987 H   0  0  0  0  0  0
   18.6890   36.1229   88.0709 H   0  0  0  0  0  0
   21.8600   35.9546   87.2306 H   0  0  0  0  0  0
   20.6382   34.7351   87.6808 H   0  0  0  0  0  0
   21.3546   34.6994   86.0952 H   0  0  0  0  0  0
  1  2  1  0  0  0
  1  4  2  0  0  0
  1  7  1  0  0  0
  2  3  1  0  0  0
  2 11  2  0  0  0
  3 10  1  0  0  0
  3  6  1  0  0  0
  4  5  1  0  0  0
  5  6  1  0  0  0
  5 12  2  0  0  0
  6 17  2  0  0  0
  7  9  1  0  0  0
  7 24  1  0  0  0
  8 11  1  0  0  0
  8 10  2  0  0  0
  9 13  2  0  0  0
  9 14  1  0  0  0
 10 25  1  0  0  0
 11 26  1  0  0  0
 12 15  1  0  0  0
 12 20  1  0  0  0
 13 16  1  0  0  0
 13 21  1  0  0  0
 14 22  2  0  0  0
 14 23  1  0  0  0
 15 27  1  0  0  0
 15 28  1  0  0  0
 17 18  1  0  0  0
 17 29  1  0  0  0
 18 20  2  0  0  0
 18 30  1  0  0  0
 19 22  1  0  0  0
 19 21  2  0  0  0
 19 31  1  0  0  0
 20 32  1  0  0  0
 21 33  1  0  0  0
 22 34  1  0  0  0
 23 35  1  0  0  0
 23 36  1  0  0  0
 23 37  1  0  0  0
M  END
> <s_m_entry_id>
4721

> <s_m_entry_name>
dock_pv.209

> <s_m_Source_Path>
/home/csk/Desktop/cluster/DUD-E-result/lck

> <s_m_Source_File>
dock_pv.maegz

> <i_m_Source_File_Index>
209

> <chembl_id>
CHEMBL85974

> <chembl_pref_name>
None

> <i_lp_mmshare_version>
53161

> <i_f3d_flags>
0

> <r_lp_tautomer_probability>
1

> <s_lp_Force_Field>
OPLS_2005

> <r_lp_Energy>
63.235708

> <b_lp_Chiralities_Consistent>
1

> <s_lp_Variant>
CHEMBL258_lig208-1

> <s_i_glide_gridfile>
glide-grid_2of2

> <i_i_glide_lignum>
236

> <i_i_glide_rotatable_bonds>
2

> <r_i_docking_score>
-7.16786212805903

> <r_i_glide_ligand_efficiency>
-0.311646179480827

> <r_i_glide_ligand_efficiency_sa>
-0.88628027829611

> <r_i_glide_ligand_efficiency_ln>
-1.73325405714504

> <r_i_glide_gscore>
-7.16786212805903

> <r_i_glide_lipo>
-2.56940321789328

> <r_i_glide_hbond>
-0.0249273358954109

> <r_i_glide_metal>
0

> <r_i_glide_rewards>
-2.79854953480341

> <r_i_glide_evdw>
-34.9541969299316

> <r_i_glide_ecoul>
-2.56257724761963

> <r_i_glide_erotb>
0.357114394172605

> <r_i_glide_esite>
0

> <r_i_glide_emodel>
-53.2413987623275

> <r_i_glide_energy>
-37.5167741775513

> <r_i_glide_einternal>
1.24052345752716

> <i_i_glide_confnum>
2

> <i_i_glide_posenum>
297

> <r_i_glide_eff_state_penalty>
0

> <s_user_duplicate_titles>
CHEMBL258_lig208,136961

> <s_m_subgroup_title>
dock_pv

> <s_m_subgroupid>
dock_pv

> <b_m_subgroup_collapsed>
1

$$$$
CHEMBL258_lig564
                    3D
 Schrodinger Suite 2021-1.
 58 62  0  0  1  0            999 V2000
   25.8127   37.3810   83.7790 C   0  0  0  0  0  0
   22.2043   37.1153   84.4081 C   0  0  0  0  0  0
   24.3966   37.3462   84.0867 C   0  0  0  0  0  0
   26.5108   36.5408   82.8445 C   0  0  0  0  0  0
   23.2771   36.5868   83.6889 N   0  0  0  0  0  0
   22.5214   38.0994   85.2002 N   0  0  0  0  0  0
   26.6253   38.3545   84.4656 C   0  0  0  0  0  0
   27.8343   36.6211   82.6378 N   0  0  0  0  0  0
   20.9270   36.6217   84.2926 N   0  0  0  0  0  0
   23.8549   38.2772   85.0113 C   0  0  0  0  0  0
   28.5931   37.5257   83.2872 C   0  0  0  0  0  0
   28.0423   38.4029   84.2293 C   0  0  0  0  0  0
   19.8604   36.8592   85.1770 C   0  0  0  0  0  0
   26.0018   39.2645   85.3617 C   0  0  0  0  0  0
   30.0232   37.5451   82.8903 C   0  0  0  0  0  0
   25.8502   35.6378   82.0850 O   0  0  0  0  0  0
   32.9680   35.6055   82.5182 N   0  0  0  0  0  0
   24.6446   39.2407   85.6295 C   0  0  0  0  0  0
   18.8006   37.6932   84.7906 C   0  0  0  0  0  0
   19.7782   36.1659   86.4007 C   0  0  0  0  0  0
   30.6758   36.5630   82.2369 C   0  0  0  0  0  0
   23.1434   35.4784   82.7235 C   0  0  0  0  0  0
   21.0144   35.0505   86.8868 Cl  0  0  0  0  0  0
   18.8012   38.5473   83.2870 Cl  0  0  0  0  0  0
   32.1396   36.6044   81.8448 C   0  0  0  0  0  0
   28.9077   39.3977   85.0162 C   0  0  0  0  0  0
   32.5762   34.2220   82.2787 C   0  0  0  0  0  0
   34.3608   35.6391   82.0993 C   0  0  0  0  0  0
   17.6043   37.1373   86.8208 C   0  0  0  0  0  0
   17.6841   37.8210   85.6097 C   0  0  0  0  0  0
   18.6477   36.3034   87.2118 C   0  0  0  0  0  0
   34.9616   34.3462   82.6506 C   0  0  0  0  0  0
   33.7816   33.3716   82.6873 C   0  0  0  0  0  0
   20.7410   35.8351   83.6884 H   0  0  0  0  0  0
   26.5842   40.0225   85.8610 H   0  0  0  0  0  0
   30.5908   38.4273   83.1381 H   0  0  0  0  0  0
   26.4965   35.3217   81.4456 H   0  0  0  0  0  0
   24.2123   39.9495   86.3208 H   0  0  0  0  0  0
   30.1541   35.6538   81.9730 H   0  0  0  0  0  0
   22.1557   35.0230   82.7760 H   0  0  0  0  0  0
   23.2925   35.8206   81.7035 H   0  0  0  0  0  0
   23.8545   34.6860   82.9225 H   0  0  0  0  0  0
   32.5446   37.6049   82.0028 H   0  0  0  0  0  0
   32.1859   36.3979   80.7730 H   0  0  0  0  0  0
   28.7629   40.4107   84.6402 H   0  0  0  0  0  0
   28.6512   39.3838   86.0761 H   0  0  0  0  0  0
   29.9710   39.1714   84.9929 H   0  0  0  0  0  0
   32.2767   34.0469   81.2426 H   0  0  0  0  0  0
   31.6995   33.9936   82.8859 H   0  0  0  0  0  0
   34.8322   36.5310   82.5137 H   0  0  0  0  0  0
   34.4661   35.7286   81.0159 H   0  0  0  0  0  0
   16.7247   37.2416   87.4402 H   0  0  0  0  0  0
   16.8659   38.4495   85.2873 H   0  0  0  0  0  0
   18.5547   35.7382   88.1267 H   0  0  0  0  0  0
   35.3755   34.5070   83.6474 H   0  0  0  0  0  0
   35.7723   33.9833   82.0188 H   0  0  0  0  0  0
   33.9216   32.5420   81.9933 H   0  0  0  0  0  0
   33.6501   32.9535   83.6866 H   0  0  0  0  0  0
  1  3  2  0  0  0
  1  4  1  0  0  0
  1  7  1  0  0  0
  2  5  1  0  0  0
  2  9  1  0  0  0
  2  6  2  0  0  0
  3  5  1  0  0  0
  3 10  1  0  0  0
  4  8  2  0  0  0
  4 16  1  0  0  0
  5 22  1  0  0  0
  6 10  1  0  0  0
  7 12  1  0  0  0
  7 14  2  0  0  0
  8 11  1  0  0  0
  9 13  1  0  0  0
  9 34  1  0  0  0
 10 18  2  0  0  0
 11 12  2  0  0  0
 11 15  1  0  0  0
 12 26  1  0  0  0
 13 19  2  0  0  0
 13 20  1  0  0  0
 14 18  1  0  0  0
 14 35  1  0  0  0
 15 21  2  0  0  0
 15 36  1  0  0  0
 16 37  1  0  0  0
 17 25  1  0  0  0
 17 27  1  0  0  0
 17 28  1  0  0  0
 18 38  1  0  0  0
 19 24  1  0  0  0
 19 30  1  0  0  0
 20 23  1  0  0  0
 20 31  2  0  0  0
 21 25  1  0  0  0
 21 39  1  0  0  0
 22 40  1  0  0  0
 22 41  1  0  0  0
 22 42  1  0  0  0
 25 43  1  0  0  0
 25 44  1  0  0  0
 26 45  1  0  0  0
 26 46  1  0  0  0
 26 47  1  0  0  0
 27 33  1  0  0  0
 27 48  1  0  0  0
 27 49  1  0  0  0
 28 32  1  0  0  0
 28 50  1  0  0  0
 28 51  1  0  0  0
 29 31  1  0  0  0
 29 30  2  0  0  0
 29 52  1  0  0  0
 30 53  1  0  0  0
 31 54  1  0  0  0
 32 33  1  0  0  0
 32 55  1  0  0  0
 32 56  1  0  0  0
 33 57  1  0  0  0
 33 58  1  0  0  0
M  END
> <s_m_entry_id>
4722

> <s_m_entry_name>
dock_pv.210

> <s_m_Source_Path>
/home/csk/Desktop/cluster/DUD-E-result/lck

> <s_m_Source_File>
dock_pv.maegz

> <i_m_Source_File_Index>
210

> <chembl_id>
CHEMBL432089

> <chembl_pref_name>
None

> <i_lp_mmshare_version>
53161

> <i_f3d_flags>
0

> <r_lp_tautomer_probability>
1

> <s_lp_Force_Field>
OPLS_2005

> <r_lp_Energy>
51.612991

> <b_lp_Chiralities_Consistent>
1

> <s_lp_Variant>
CHEMBL258_lig564-1

> <s_i_glide_gridfile>
glide-grid_2of2

> <i_i_glide_lignum>
637

> <i_i_glide_rotatable_bonds>
6

> <r_i_docking_score>
-7.16434675343182

> <r_i_glide_ligand_efficiency>
-0.217101416770661

> <r_i_glide_ligand_efficiency_sa>
-0.696360246571018

> <r_i_glide_ligand_efficiency_ln>
-1.59331362296103

> <r_i_glide_gscore>
-7.16434675343182

> <r_i_glide_lipo>
-3.65264094246051

> <r_i_glide_hbond>
-0.401820237048376

> <r_i_glide_metal>
0

> <r_i_glide_rewards>
-0.640338174077834

> <r_i_glide_evdw>
-45.9556655883789

> <r_i_glide_ecoul>
-3.47050166130066

> <r_i_glide_erotb>
0.348811128768944

> <r_i_glide_esite>
0

> <r_i_glide_emodel>
-66.7251303994756

> <r_i_glide_energy>
-49.4261672496796

> <r_i_glide_einternal>
4.48008155822754

> <i_i_glide_confnum>
3

> <i_i_glide_posenum>
186

> <r_i_glide_eff_state_penalty>
0

> <s_user_duplicate_titles>
CHEMBL258_lig564,37693

> <s_m_subgroup_title>
dock_pv

> <s_m_subgroupid>
dock_pv

> <b_m_subgroup_collapsed>
1

$$$$
CHEMBL258_lig795
                    3D
 Schrodinger Suite 2021-1.
 39 41  0  0  1  0            999 V2000
   23.4023   36.5102   84.0494 C   0  0  0  0  0  0
   25.5690   36.1218   82.9730 C   0  0  0  0  0  0
   25.0355   37.0178   84.3680 S   0  0  0  0  0  0
   22.3262   36.9373   84.9101 C   0  0  0  0  0  0
   21.0872   36.6215   84.4828 N   0  0  0  0  0  0
   24.6183   35.4210   82.4008 N   0  0  0  0  0  0
   26.8771   36.0999   82.5307 N   0  0  0  0  0  0
   23.4322   35.6463   82.9432 C   0  0  0  0  0  0
   19.9270   36.7509   85.2736 C   0  0  0  0  0  0
   28.0042   36.8627   82.8869 C   0  0  0  0  0  0
   29.1811   36.3179   82.4869 N   0  0  0  0  0  0
   22.5503   37.5234   85.9723 O   0  0  0  0  0  0
   18.8854   37.5846   84.8302 C   0  0  0  0  0  0
   19.7791   36.0396   86.4871 C   0  0  0  0  0  0
   27.9546   38.1369   83.4771 C   0  0  0  0  0  0
   18.9498   38.4004   83.3045 Cl  0  0  0  0  0  0
   30.3276   37.0208   82.6739 C   0  0  0  0  0  0
   29.1440   38.8411   83.6890 C   0  0  0  0  0  0
   17.6241   37.0915   86.8372 C   0  0  0  0  0  0
   17.7503   37.7607   85.6214 C   0  0  0  0  0  0
   18.6254   36.2214   87.2594 C   0  0  0  0  0  0
   20.7941   34.9903   86.9376 C   0  0  0  0  0  0
   30.3532   38.2717   83.2871 C   0  0  0  0  0  0
   29.1253   40.2074   84.3481 C   0  0  0  0  0  0
   20.9683   36.2254   83.5649 H   0  0  0  0  0  0
   27.1399   35.4238   81.8263 H   0  0  0  0  0  0
   22.5769   35.1345   82.5227 H   0  0  0  0  0  0
   27.0258   38.6159   83.7318 H   0  0  0  0  0  0
   31.2402   36.5483   82.3389 H   0  0  0  0  0  0
   16.7351   37.2318   87.4358 H   0  0  0  0  0  0
   16.9533   38.4102   85.2871 H   0  0  0  0  0  0
   18.4918   35.6682   88.1770 H   0  0  0  0  0  0
   21.1720   34.4240   86.0874 H   0  0  0  0  0  0
   21.6495   35.4500   87.4321 H   0  0  0  0  0  0
   20.3450   34.2555   87.6073 H   0  0  0  0  0  0
   31.2903   38.7899   83.4328 H   0  0  0  0  0  0
   29.9828   40.3215   85.0137 H   0  0  0  0  0  0
   29.1677   40.9985   83.5978 H   0  0  0  0  0  0
   28.2329   40.3422   84.9619 H   0  0  0  0  0  0
  1  3  1  0  0  0
  1  4  1  0  0  0
  1  8  2  0  0  0
  2  3  1  0  0  0
  2  7  1  0  0  0
  2  6  2  0  0  0
  4  5  1  0  0  0
  4 12  2  0  0  0
  5  9  1  0  0  0
  5 25  1  0  0  0
  6  8  1  0  0  0
  7 10  1  0  0  0
  7 26  1  0  0  0
  8 27  1  0  0  0
  9 13  1  0  0  0
  9 14  2  0  0  0
 10 11  2  0  0  0
 10 15  1  0  0  0
 11 17  1  0  0  0
 13 16  1  0  0  0
 13 20  2  0  0  0
 14 21  1  0  0  0
 14 22  1  0  0  0
 15 18  2  0  0  0
 15 28  1  0  0  0
 17 23  2  0  0  0
 17 29  1  0  0  0
 18 23  1  0  0  0
 18 24  1  0  0  0
 19 21  2  0  0  0
 19 20  1  0  0  0
 19 30  1  0  0  0
 20 31  1  0  0  0
 21 32  1  0  0  0
 22 33  1  0  0  0
 22 34  1  0  0  0
 22 35  1  0  0  0
 23 36  1  0  0  0
 24 37  1  0  0  0
 24 38  1  0  0  0
 24 39  1  0  0  0
M  END
> <s_m_entry_id>
4723

> <s_m_entry_name>
dock_pv.211

> <s_m_Source_Path>
/home/csk/Desktop/cluster/DUD-E-result/lck

> <s_m_Source_File>
dock_pv.maegz

> <i_m_Source_File_Index>
211

> <chembl_id>
CHEMBL186568

> <chembl_pref_name>
None

> <i_lp_mmshare_version>
53161

> <i_f3d_flags>
0

> <r_lp_tautomer_probability>
0.999999772200052

> <s_lp_Force_Field>
OPLS_2005

> <r_lp_Energy>
19.356459

> <b_lp_Chiralities_Consistent>
1

> <s_lp_Variant>
CHEMBL258_lig795-1

> <s_i_glide_gridfile>
glide-grid_2of2

> <i_i_glide_lignum>
880

> <i_i_glide_rotatable_bonds>
5

> <r_i_docking_score>
-7.16378722899294

> <r_i_glide_ligand_efficiency>
-0.298491134541372

> <r_i_glide_ligand_efficiency_sa>
-0.860997420153631

> <r_i_glide_ligand_efficiency_ln>
-1.71462300867396

> <r_i_glide_gscore>
-7.16378722899294

> <r_i_glide_lipo>
-2.94686369396129

> <r_i_glide_hbond>
-0.109747016166521

> <r_i_glide_metal>
0

> <r_i_glide_rewards>
-2.23168372536353

> <r_i_glide_evdw>
-40.3958854675293

> <r_i_glide_ecoul>
-3.99785661697388

> <r_i_glide_erotb>
0.743979972420949

> <r_i_glide_esite>
0

> <r_i_glide_emodel>
-57.8314419875511

> <r_i_glide_energy>
-44.3937420845032

> <r_i_glide_einternal>
11.048791885376

> <i_i_glide_confnum>
38

> <i_i_glide_posenum>
19

> <r_i_glide_eff_state_penalty>
0

> <s_user_duplicate_titles>
CHEMBL258_lig795,312396

> <s_m_subgroup_title>
dock_pv

> <s_m_subgroupid>
dock_pv

> <b_m_subgroup_collapsed>
1

$$$$
CHEMBL258_lig638
                    3D
 Schrodinger Suite 2021-1.
 48 51  0  0  1  0            999 V2000
   27.5662   37.9147   84.1169 C   0  0  0  0  0  0
   28.0327   37.0242   83.1399 C   0  0  0  0  0  0
   27.1209   36.1869   82.4867 C   0  0  0  0  0  0
   26.2139   37.9468   84.4754 C   0  0  0  0  0  0
   25.2789   37.0874   83.8418 C   0  0  0  0  0  0
   25.7523   36.2044   82.8240 C   0  0  0  0  0  0
   24.9203   35.3690   82.1483 N   0  0  0  0  0  0
   23.6133   35.4208   82.4880 C   0  0  0  0  0  0
   23.0527   36.1953   83.4427 N   0  0  0  0  0  0
   23.8768   37.0261   84.1216 C   0  0  0  0  0  0
   23.2860   37.8881   85.0680 N   0  0  0  0  0  0
   21.9725   38.0260   85.5689 C   0  0  0  0  0  0
   21.0089   37.0093   85.4873 C   0  0  0  0  0  0
   19.7071   37.2178   85.9451 C   0  0  0  0  0  0
   19.3471   38.4482   86.4869 C   0  0  0  0  0  0
   20.2981   39.4625   86.6007 C   0  0  0  0  0  0
   21.6066   39.2529   86.1488 C   0  0  0  0  0  0
   29.3899   37.0189   82.8701 O   0  0  0  0  0  0
   28.5348   38.8445   84.8436 C   0  0  0  0  0  0
   29.9288   36.0593   81.9645 C   0  0  0  0  0  0
   19.8337   40.9735   87.3002 Cl  0  0  0  0  0  0
   22.5188   40.2498   86.2637 F   0  0  0  0  0  0
   28.6832   40.1312   84.1786 N   0  0  2  0  0  0
   29.4770   41.1624   84.8548 C   0  0  0  0  0  0
   28.5766   42.2208   84.2336 C   0  0  0  0  0  0
   27.5670   41.0784   84.1316 C   0  0  0  0  0  0
   28.1701   43.3363   85.2104 C   0  0  0  0  0  0
   28.5502   44.5693   84.8878 N   0  0  0  0  0  0
   27.5293   43.1123   86.2350 O   0  0  0  0  0  0
   27.4436   35.5027   81.7186 H   0  0  0  0  0  0
   25.8794   38.6281   85.2435 H   0  0  0  0  0  0
   22.9500   34.7662   81.9490 H   0  0  0  0  0  0
   23.9119   38.6048   85.4025 H   0  0  0  0  0  0
   21.2435   36.0363   85.0831 H   0  0  0  0  0  0
   18.9774   36.4240   85.8734 H   0  0  0  0  0  0
   18.3324   38.6140   86.8241 H   0  0  0  0  0  0
   29.5195   38.3767   84.8982 H   0  0  0  0  0  0
   28.2040   39.0000   85.8726 H   0  0  0  0  0  0
   31.0148   36.1555   81.9424 H   0  0  0  0  0  0
   29.6987   35.0366   82.2706 H   0  0  0  0  0  0
   29.5670   36.2201   80.9479 H   0  0  0  0  0  0
   30.5253   41.1743   84.5536 H   0  0  0  0  0  0
   29.4320   41.1153   85.9475 H   0  0  0  0  0  0
   28.9494   42.6124   83.2871 H   0  0  0  0  0  0
   26.8800   40.9986   84.9794 H   0  0  0  0  0  0
   26.9829   41.0124   83.2125 H   0  0  0  0  0  0
   28.3029   45.3449   85.4805 H   0  0  0  0  0  0
   29.1996   44.6981   84.1145 H   0  0  0  0  0  0
  1  2  1  0  0  0
  1 19  1  0  0  0
  1  4  2  0  0  0
  2 18  1  0  0  0
  2  3  2  0  0  0
  3  6  1  0  0  0
  3 30  1  0  0  0
  4  5  1  0  0  0
  4 31  1  0  0  0
  5 10  2  0  0  0
  5  6  1  0  0  0
  6  7  2  0  0  0
  7  8  1  0  0  0
  8  9  2  0  0  0
  8 32  1  0  0  0
  9 10  1  0  0  0
 10 11  1  0  0  0
 11 12  1  0  0  0
 11 33  1  0  0  0
 12 17  2  0  0  0
 12 13  1  0  0  0
 13 14  2  0  0  0
 13 34  1  0  0  0
 14 15  1  0  0  0
 14 35  1  0  0  0
 15 16  2  0  0  0
 15 36  1  0  0  0
 16 17  1  0  0  0
 16 21  1  0  0  0
 17 22  1  0  0  0
 18 20  1  0  0  0
 19 23  1  0  0  0
 19 37  1  0  0  0
 19 38  1  0  0  0
 20 39  1  0  0  0
 20 40  1  0  0  0
 20 41  1  0  0  0
 23 24  1  0  0  0
 23 26  1  0  0  0
 24 25  1  0  0  0
 24 42  1  0  0  0
 24 43  1  0  0  0
 25 26  1  0  0  0
 25 27  1  0  0  0
 25 44  1  0  0  0
 26 45  1  0  0  0
 26 46  1  0  0  0
 27 28  1  0  0  0
 27 29  2  0  0  0
 28 47  1  0  0  0
 28 48  1  0  0  0
M  END
> <s_m_entry_id>
4724

> <s_m_entry_name>
dock_pv.212

> <s_m_Source_Path>
/home/csk/Desktop/cluster/DUD-E-result/lck

> <s_m_Source_File>
dock_pv.maegz

> <i_m_Source_File_Index>
212

> <chembl_id>
CHEMBL207037

> <chembl_pref_name>
None

> <i_lp_mmshare_version>
53161

> <i_f3d_flags>
0

> <r_lp_tautomer_probability>
0.999978000241998

> <s_lp_Force_Field>
OPLS_2005

> <r_lp_Energy>
19.66155

> <b_lp_Chiralities_Consistent>
1

> <s_lp_Variant>
CHEMBL258_lig638-1

> <s_i_glide_gridfile>
glide-grid_2of2

> <i_i_glide_lignum>
718

> <i_i_glide_rotatable_bonds>
6

> <r_i_docking_score>
-7.15741737584756

> <r_i_glide_ligand_efficiency>
-0.246807495718881

> <r_i_glide_ligand_efficiency_sa>
-0.758270820951399

> <r_i_glide_ligand_efficiency_ln>
-1.63886708262438

> <r_i_glide_gscore>
-7.15741737584756

> <r_i_glide_lipo>
-2.60028959193136

> <r_i_glide_hbond>
-0.312153568205365

> <r_i_glide_metal>
0

> <r_i_glide_rewards>
-1.5536178323332

> <r_i_glide_evdw>
-38.2871398925781

> <r_i_glide_ecoul>
-7.59428882598877

> <r_i_glide_erotb>
0.456845352757372

> <r_i_glide_esite>
-0.0947014176077808

> <r_i_glide_emodel>
-65.7113991747126

> <r_i_glide_energy>
-45.8814287185669

> <r_i_glide_einternal>
2.42896604537964

> <i_i_glide_confnum>
4

> <i_i_glide_posenum>
349

> <r_i_glide_eff_state_penalty>
0

> <s_user_duplicate_titles>
CHEMBL258_lig638

> <s_m_subgroup_title>
dock_pv

> <s_m_subgroupid>
dock_pv

> <b_m_subgroup_collapsed>
1

$$$$
CHEMBL258_lig1320
                    3D
 Schrodinger Suite 2021-1.
 72 77  0  0  1  0            999 V2000
   31.0852   42.1943   87.5963 N   0  0  0  0  0  0
   30.1530   42.0976   86.6053 C   0  0  0  0  0  0
   30.4894   41.6754   85.3212 C   0  0  0  0  0  0
   31.8248   41.3249   85.0931 C   0  0  0  0  0  0
   32.7814   41.4143   86.0561 N   0  0  0  0  0  0
   32.3579   41.8502   87.2686 C   0  0  0  0  0  0
   32.2144   40.8377   83.8327 N   0  0  0  0  0  0
   32.1506   39.6241   81.9337 N   0  0  0  0  0  0
   31.6787   39.7571   83.1479 C   0  0  0  0  0  0
   33.1247   40.5723   81.8324 C   0  0  0  0  0  0
   33.2046   41.3502   83.0163 C   0  0  0  0  0  0
   34.1282   42.3903   83.1568 C   0  0  0  0  0  0
   34.9638   42.6256   82.0662 C   0  0  0  0  0  0
   34.9106   41.8626   80.8990 C   0  0  0  0  0  0
   33.9865   40.8279   80.7583 C   0  0  0  0  0  0
   30.7301   38.9510   83.7332 N   0  0  0  0  0  0
   30.0827   37.8278   83.1922 C   0  0  0  0  0  0
   28.7011   37.7704   83.4039 C   0  0  0  0  0  0
   27.9326   36.7283   82.8868 C   0  0  0  0  0  0
   28.5713   35.7254   82.1463 C   0  0  0  0  0  0
   29.9482   35.7533   81.9536 C   0  0  0  0  0  0
   30.7213   36.7833   82.4869 C   0  0  0  0  0  0
   32.2346   36.6543   82.3590 C   0  0  0  0  0  0
   26.5521   36.7812   83.1611 N   0  0  0  0  0  0
   25.5857   35.8723   82.9124 C   0  0  0  0  0  0
   24.2108   36.2215   83.4442 C   0  0  0  0  0  0
   25.7494   34.8283   82.2803 O   0  0  0  0  0  0
   24.0146   37.1459   84.4877 C   0  0  0  0  0  0
   22.7258   37.4627   84.9445 C   0  0  0  0  0  0
   21.6242   36.8337   84.3556 C   0  0  0  0  0  0
   21.8026   35.9086   83.3325 C   0  0  0  0  0  0
   23.0834   35.6026   82.8864 C   0  0  0  0  0  0
   22.4989   38.4861   86.0567 C   0  0  0  0  0  0
   21.5172   39.3232   85.7218 F   0  0  0  0  0  0
   22.1495   37.8507   87.1762 F   0  0  0  0  0  0
   23.5915   39.2103   86.3046 F   0  0  0  0  0  0
   28.8093   42.4011   86.8608 N   0  0  0  0  0  0
   28.2917   42.2754   88.2152 C   0  0  0  0  0  0
   26.8191   42.6988   88.3277 C   0  0  0  0  0  0
   26.2465   42.4645   89.7175 C   0  0  0  0  0  0
   26.8749   43.0996   90.7418 N   0  0  0  0  0  0
   26.4064   42.9007   91.9991 C   0  0  0  0  0  0
   25.3209   42.0677   92.2792 C   0  0  0  0  0  0
   24.6784   41.4302   91.2173 C   0  0  0  0  0  0
   25.1435   41.6263   89.9146 C   0  0  0  0  0  0
   29.7498   41.6150   84.5352 H   0  0  0  0  0  0
   33.1024   41.9251   88.0466 H   0  0  0  0  0  0
   34.1801   42.9938   84.0509 H   0  0  0  0  0  0
   35.6870   43.4282   82.1272 H   0  0  0  0  0  0
   35.5865   42.0907   80.0872 H   0  0  0  0  0  0
   33.9310   40.2457   79.8511 H   0  0  0  0  0  0
   30.2793   39.2952   84.5684 H   0  0  0  0  0  0
   28.2209   38.5595   83.9659 H   0  0  0  0  0  0
   28.0313   34.9091   81.6928 H   0  0  0  0  0  0
   30.4146   34.9512   81.3973 H   0  0  0  0  0  0
   32.5845   37.0666   81.4113 H   0  0  0  0  0  0
   32.7538   37.1423   83.1854 H   0  0  0  0  0  0
   32.5351   35.6061   82.3944 H   0  0  0  0  0  0
   26.2587   37.6090   83.6521 H   0  0  0  0  0  0
   24.8599   37.6282   84.9562 H   0  0  0  0  0  0
   20.6223   37.0573   84.6924 H   0  0  0  0  0  0
   20.9492   35.4208   82.8865 H   0  0  0  0  0  0
   23.1872   34.8803   82.0877 H   0  0  0  0  0  0
   28.1686   42.1811   86.1130 H   0  0  0  0  0  0
   28.4126   41.2308   88.5021 H   0  0  0  0  0  0
   28.9170   42.8659   88.8881 H   0  0  0  0  0  0
   26.7117   43.7571   88.0834 H   0  0  0  0  0  0
   26.2234   42.1606   87.5905 H   0  0  0  0  0  0
   26.9339   43.4172   92.7906 H   0  0  0  0  0  0
   24.9807   41.9184   93.2937 H   0  0  0  0  0  0
   23.8301   40.7865   91.4034 H   0  0  0  0  0  0
   24.6611   41.1340   89.0839 H   0  0  0  0  0  0
  1  2  1  0  0  0
  1  6  2  0  0  0
  2  3  2  0  0  0
  2 37  1  0  0  0
  3  4  1  0  0  0
  3 46  1  0  0  0
  4  5  2  0  0  0
  4  7  1  0  0  0
  5  6  1  0  0  0
  6 47  1  0  0  0
  7 11  1  0  0  0
  7  9  1  0  0  0
  8 10  1  0  0  0
  8  9  2  0  0  0
  9 16  1  0  0  0
 10 11  2  0  0  0
 10 15  1  0  0  0
 11 12  1  0  0  0
 12 13  2  0  0  0
 12 48  1  0  0  0
 13 14  1  0  0  0
 13 49  1  0  0  0
 14 15  2  0  0  0
 14 50  1  0  0  0
 15 51  1  0  0  0
 16 17  1  0  0  0
 16 52  1  0  0  0
 17 22  1  0  0  0
 17 18  2  0  0  0
 18 19  1  0  0  0
 18 53  1  0  0  0
 19 24  1  0  0  0
 19 20  2  0  0  0
 20 21  1  0  0  0
 20 54  1  0  0  0
 21 22  2  0  0  0
 21 55  1  0  0  0
 22 23  1  0  0  0
 23 56  1  0  0  0
 23 57  1  0  0  0
 23 58  1  0  0  0
 24 25  1  0  0  0
 24 59  1  0  0  0
 25 26  1  0  0  0
 25 27  2  0  0  0
 26 28  2  0  0  0
 26 32  1  0  0  0
 28 29  1  0  0  0
 28 60  1  0  0  0
 29 30  2  0  0  0
 29 33  1  0  0  0
 30 31  1  0  0  0
 30 61  1  0  0  0
 31 32  2  0  0  0
 31 62  1  0  0  0
 32 63  1  0  0  0
 33 34  1  0  0  0
 33 35  1  0  0  0
 33 36  1  0  0  0
 37 38  1  0  0  0
 37 64  1  0  0  0
 38 39  1  0  0  0
 38 65  1  0  0  0
 38 66  1  0  0  0
 39 40  1  0  0  0
 39 67  1  0  0  0
 39 68  1  0  0  0
 40 45  2  0  0  0
 40 41  1  0  0  0
 41 42  2  0  0  0
 42 43  1  0  0  0
 42 69  1  0  0  0
 43 44  2  0  0  0
 43 70  1  0  0  0
 44 45  1  0  0  0
 44 71  1  0  0  0
 45 72  1  0  0  0
M  END
> <s_m_entry_id>
4725

> <s_m_entry_name>
dock_pv.213

> <s_m_Source_Path>
/home/csk/Desktop/cluster/DUD-E-result/lck

> <s_m_Source_File>
dock_pv.maegz

> <i_m_Source_File_Index>
213

> <chembl_id>
CHEMBL1076475

> <chembl_pref_name>
None

> <i_lp_mmshare_version>
53161

> <i_f3d_flags>
0

> <r_lp_tautomer_probability>
1

> <s_lp_Force_Field>
OPLS_2005

> <r_lp_Energy>
35.419874

> <b_lp_Chiralities_Consistent>
1

> <s_lp_Variant>
CHEMBL258_lig1320-1

> <s_i_glide_gridfile>
glide-grid_2of2

> <i_i_glide_lignum>
1476

> <i_i_glide_rotatable_bonds>
11

> <r_i_docking_score>
-7.1452009912484

> <r_i_glide_ligand_efficiency>
-0.158782244249965

> <r_i_glide_ligand_efficiency_sa>
-0.564771500727973

> <r_i_glide_ligand_efficiency_ln>
-1.48652022197419

> <r_i_glide_gscore>
-7.1452009912484

> <r_i_glide_lipo>
-3.05025073163477

> <r_i_glide_hbond>
-0.32

> <r_i_glide_metal>
0

> <r_i_glide_rewards>
-1.10116728840138

> <r_i_glide_evdw>
-46.8783683776855

> <r_i_glide_ecoul>
-4.68017053604126

> <r_i_glide_erotb>
0.387869590242852

> <r_i_glide_esite>
-0.0157085621646353

> <r_i_glide_emodel>
-68.7726735113498

> <r_i_glide_energy>
-51.5585389137268

> <r_i_glide_einternal>
9.52593517303467

> <i_i_glide_confnum>
3

> <i_i_glide_posenum>
36

> <r_i_glide_eff_state_penalty>
0

> <s_user_duplicate_titles>
CHEMBL258_lig1320

> <s_m_subgroup_title>
dock_pv

> <s_m_subgroupid>
dock_pv

> <b_m_subgroup_collapsed>
1

$$$$
CHEMBL258_lig802
                    3D
 Schrodinger Suite 2021-1.
 39 41  0  0  1  0            999 V2000
   20.5420   36.7398   85.4228 C   0  0  0  0  0  0
   19.7340   37.8087   84.9819 C   0  0  0  0  0  0
   18.5422   38.0982   85.6520 C   0  0  0  0  0  0
   18.1284   37.3200   86.7276 C   0  0  0  0  0  0
   18.8995   36.2354   87.1349 C   0  0  0  0  0  0
   20.1043   35.9361   86.4909 C   0  0  0  0  0  0
   20.0725   38.6209   83.7445 C   0  0  0  0  0  0
   21.7523   36.4102   84.7852 N   0  0  0  0  0  0
   22.8508   37.1900   84.7488 C   0  0  0  0  0  0
   22.9431   38.2869   85.3034 O   0  0  0  0  0  0
   23.9433   36.6321   83.9902 C   0  0  0  0  0  0
   23.9483   35.6710   82.9728 C   0  0  0  0  0  0
   25.1179   35.3909   82.4317 N   0  0  0  0  0  0
   26.0875   36.1200   82.9235 C   0  0  0  0  0  0
   25.5698   37.2463   84.1525 S   0  0  0  0  0  0
   27.3872   35.9652   82.4869 N   0  0  0  0  0  0
   28.5928   36.6204   82.7906 C   0  0  0  0  0  0
   28.6400   37.6421   83.6874 N   0  0  0  0  0  0
   29.8299   38.2591   83.9018 C   0  0  0  0  0  0
   31.0029   37.8906   83.2416 C   0  0  0  0  0  0
   30.9489   36.8417   82.3231 C   0  0  0  0  0  0
   29.7316   36.1992   82.0919 C   0  0  0  0  0  0
   20.8922   34.7139   86.9464 C   0  0  0  0  0  0
   17.9146   38.9184   85.3321 H   0  0  0  0  0  0
   17.1988   37.5494   87.2292 H   0  0  0  0  0  0
   18.5516   35.6201   87.9528 H   0  0  0  0  0  0
   20.5501   38.0058   82.9813 H   0  0  0  0  0  0
   19.1665   39.0203   83.2882 H   0  0  0  0  0  0
   20.7389   39.4435   84.0066 H   0  0  0  0  0  0
   21.8006   35.4880   84.3831 H   0  0  0  0  0  0
   23.0781   35.1437   82.6053 H   0  0  0  0  0  0
   27.5453   35.2851   81.7568 H   0  0  0  0  0  0
   29.8317   39.0618   84.6258 H   0  0  0  0  0  0
   31.9329   38.4031   83.4390 H   0  0  0  0  0  0
   31.8374   36.5285   81.7942 H   0  0  0  0  0  0
   29.6828   35.3903   81.3766 H   0  0  0  0  0  0
   21.3499   34.2207   86.0912 H   0  0  0  0  0  0
   21.6817   34.9909   87.6464 H   0  0  0  0  0  0
   20.2398   33.9707   87.4072 H   0  0  0  0  0  0
  1  6  2  0  0  0
  1  2  1  0  0  0
  1  8  1  0  0  0
  2  7  1  0  0  0
  2  3  2  0  0  0
  3  4  1  0  0  0
  3 24  1  0  0  0
  4  5  2  0  0  0
  4 25  1  0  0  0
  5  6  1  0  0  0
  5 26  1  0  0  0
  6 23  1  0  0  0
  7 27  1  0  0  0
  7 28  1  0  0  0
  7 29  1  0  0  0
  8  9  1  0  0  0
  8 30  1  0  0  0
  9 10  2  0  0  0
  9 11  1  0  0  0
 11 12  2  0  0  0
 11 15  1  0  0  0
 12 13  1  0  0  0
 12 31  1  0  0  0
 13 14  2  0  0  0
 14 15  1  0  0  0
 14 16  1  0  0  0
 16 17  1  0  0  0
 16 32  1  0  0  0
 17 18  2  0  0  0
 17 22  1  0  0  0
 18 19  1  0  0  0
 19 20  2  0  0  0
 19 33  1  0  0  0
 20 21  1  0  0  0
 20 34  1  0  0  0
 21 22  2  0  0  0
 21 35  1  0  0  0
 22 36  1  0  0  0
 23 37  1  0  0  0
 23 38  1  0  0  0
 23 39  1  0  0  0
M  END
> <s_m_entry_id>
4726

> <s_m_entry_name>
dock_pv.214

> <s_m_Source_Path>
/home/csk/Desktop/cluster/DUD-E-result/lck

> <s_m_Source_File>
dock_pv.maegz

> <i_m_Source_File_Index>
214

> <chembl_id>
CHEMBL386745

> <chembl_pref_name>
None

> <i_lp_mmshare_version>
53161

> <i_f3d_flags>
0

> <r_lp_tautomer_probability>
0.999999772200052

> <s_lp_Force_Field>
OPLS_2005

> <r_lp_Energy>
18.654424

> <b_lp_Chiralities_Consistent>
1

> <s_lp_Variant>
CHEMBL258_lig802-1

> <s_i_glide_gridfile>
glide-grid_2of2

> <i_i_glide_lignum>
887

> <i_i_glide_rotatable_bonds>
5

> <r_i_docking_score>
-7.14228498085859

> <r_i_glide_ligand_efficiency>
-0.310534129602547

> <r_i_glide_ligand_efficiency_sa>
-0.883117756370627

> <r_i_glide_ligand_efficiency_ln>
-1.72706927103122

> <r_i_glide_gscore>
-7.14228498085859

> <r_i_glide_lipo>
-2.84698808469515

> <r_i_glide_hbond>
-0.181361822011595

> <r_i_glide_metal>
0

> <r_i_glide_rewards>
-2.35487592850298

> <r_i_glide_evdw>
-39.9662551879883

> <r_i_glide_ecoul>
-4.17034578323364

> <r_i_glide_erotb>
0.88976880440857

> <r_i_glide_esite>
-0.0249633231729676

> <r_i_glide_emodel>
-59.9940753339318

> <r_i_glide_energy>
-44.1366009712219

> <r_i_glide_einternal>
5.05229806900024

> <i_i_glide_confnum>
14

> <i_i_glide_posenum>
97

> <r_i_glide_eff_state_penalty>
0

> <s_user_duplicate_titles>
CHEMBL258_lig802,361422

> <s_m_subgroup_title>
dock_pv

> <s_m_subgroupid>
dock_pv

> <b_m_subgroup_collapsed>
1

$$$$
CHEMBL258_lig255
                    3D
 Schrodinger Suite 2021-1.
 63 66  0  0  1  0            999 V2000
   24.9095   35.2444   82.4709 N   0  0  0  0  0  0
   26.1489   35.7805   82.5666 C   0  0  0  0  0  0
   26.5234   36.8649   83.2873 N   0  0  0  0  0  0
   23.9175   35.8456   83.1725 C   0  0  0  0  0  0
   24.1734   36.9425   84.0269 C   0  0  0  0  0  0
   25.5263   37.4097   84.0022 C   0  0  0  0  0  0
   25.6229   38.5164   84.8330 N   0  0  0  0  0  0
   24.3531   38.7615   85.3201 C   0  0  0  0  0  0
   23.4357   37.8030   84.9278 C   0  0  0  0  0  0
   22.0398   37.6948   85.4666 C   0  0  0  0  0  0
   21.3599   38.8433   85.9002 C   0  0  0  0  0  0
   20.0626   38.7646   86.4384 C   0  0  0  0  0  0
   19.4335   37.5226   86.4871 C   0  0  0  0  0  0
   20.1035   36.3708   86.0867 C   0  0  0  0  0  0
   21.4021   36.4567   85.5920 C   0  0  0  0  0  0
   22.6239   35.4210   82.8870 N   0  0  0  0  0  0
   26.8655   39.2731   85.1124 C   0  0  0  0  0  0
   27.2170   40.1336   83.8780 C   0  0  0  0  0  0
   28.4028   41.0827   84.1536 C   0  0  0  0  0  0
   28.1067   41.9315   85.3120 N   0  0  1  0  0  0
   27.9396   41.1314   86.5310 C   0  0  0  0  0  0
   26.7375   40.1838   86.3640 C   0  0  0  0  0  0
   19.3545   39.8324   86.9551 O   0  0  0  0  0  0
   29.0761   43.0213   85.4669 C   0  0  0  0  0  0
   28.5205   44.2481   86.2373 C   0  0  0  0  0  0
   27.6993   45.1736   85.4363 N   0  0  1  0  0  0
   19.9973   41.0949   87.0630 C   0  0  0  0  0  0
   26.5445   44.5989   84.7253 C   0  0  0  0  0  0
   25.4368   44.0509   85.6549 C   0  0  0  0  0  0
   24.4324   43.4209   84.8856 O   0  0  0  0  0  0
   27.3535   46.3624   86.2137 C   0  0  0  0  0  0
   26.9287   35.3035   81.9874 H   0  0  0  0  0  0
   24.1823   39.5806   85.9997 H   0  0  0  0  0  0
   21.8549   39.7983   85.8239 H   0  0  0  0  0  0
   18.4302   37.4501   86.8817 H   0  0  0  0  0  0
   19.6216   35.4073   86.1658 H   0  0  0  0  0  0
   21.9086   35.5402   85.3347 H   0  0  0  0  0  0
   21.8447   35.8760   83.3414 H   0  0  0  0  0  0
   22.4789   34.6804   82.2112 H   0  0  0  0  0  0
   27.6237   38.5073   85.2882 H   0  0  0  0  0  0
   26.3556   40.6538   83.4535 H   0  0  0  0  0  0
   27.5467   39.4664   83.0810 H   0  0  0  0  0  0
   28.5378   41.7270   83.2851 H   0  0  0  0  0  0
   29.3468   40.5526   84.2907 H   0  0  0  0  0  0
   28.8628   40.6063   86.7849 H   0  0  0  0  0  0
   27.7236   41.7950   87.3690 H   0  0  0  0  0  0
   26.7223   39.5419   87.2468 H   0  0  0  0  0  0
   25.8169   40.7626   86.4155 H   0  0  0  0  0  0
   29.3979   43.3725   84.4875 H   0  0  0  0  0  0
   29.9706   42.6354   85.9602 H   0  0  0  0  0  0
   29.3897   44.8170   86.5723 H   0  0  0  0  0  0
   27.9952   43.9413   87.1428 H   0  0  0  0  0  0
   19.3076   41.8212   87.4945 H   0  0  0  0  0  0
   20.8726   41.0451   87.7097 H   0  0  0  0  0  0
   20.2999   41.4638   86.0865 H   0  0  0  0  0  0
   26.9181   43.8197   84.0644 H   0  0  0  0  0  0
   26.1513   45.4096   84.1111 H   0  0  0  0  0  0
   24.9713   44.8576   86.2202 H   0  0  0  0  0  0
   25.8300   43.3340   86.3750 H   0  0  0  0  0  0
   24.0942   44.0606   84.2443 H   0  0  0  0  0  0
   28.2557   46.8579   86.5758 H   0  0  0  0  0  0
   26.8089   47.0837   85.6037 H   0  0  0  0  0  0
   26.7359   46.1177   87.0787 H   0  0  0  0  0  0
  1  4  1  0  0  0
  1  2  2  0  0  0
  2  3  1  0  0  0
  2 32  1  0  0  0
  3  6  2  0  0  0
  4  5  2  0  0  0
  4 16  1  0  0  0
  5  9  1  0  0  0
  5  6  1  0  0  0
  6  7  1  0  0  0
  7  8  1  0  0  0
  7 17  1  0  0  0
  8  9  2  0  0  0
  8 33  1  0  0  0
  9 10  1  0  0  0
 10 15  1  0  0  0
 10 11  2  0  0  0
 11 12  1  0  0  0
 11 34  1  0  0  0
 12 23  1  0  0  0
 12 13  2  0  0  0
 13 14  1  0  0  0
 13 35  1  0  0  0
 14 15  2  0  0  0
 14 36  1  0  0  0
 15 37  1  0  0  0
 16 38  1  0  0  0
 16 39  1  0  0  0
 17 18  1  0  0  0
 17 22  1  0  0  0
 17 40  1  0  0  0
 18 19  1  0  0  0
 18 41  1  0  0  0
 18 42  1  0  0  0
 19 20  1  0  0  0
 19 43  1  0  0  0
 19 44  1  0  0  0
 20 21  1  0  0  0
 20 24  1  0  0  0
 21 22  1  0  0  0
 21 45  1  0  0  0
 21 46  1  0  0  0
 22 47  1  0  0  0
 22 48  1  0  0  0
 23 27  1  0  0  0
 24 25  1  0  0  0
 24 49  1  0  0  0
 24 50  1  0  0  0
 25 26  1  0  0  0
 25 51  1  0  0  0
 25 52  1  0  0  0
 26 28  1  0  0  0
 26 31  1  0  0  0
 27 53  1  0  0  0
 27 54  1  0  0  0
 27 55  1  0  0  0
 28 29  1  0  0  0
 28 56  1  0  0  0
 28 57  1  0  0  0
 29 30  1  0  0  0
 29 58  1  0  0  0
 29 59  1  0  0  0
 30 60  1  0  0  0
 31 61  1  0  0  0
 31 62  1  0  0  0
 31 63  1  0  0  0
M  END
> <s_m_entry_id>
4727

> <s_m_entry_name>
dock_pv.215

> <s_m_Source_Path>
/home/csk/Desktop/cluster/DUD-E-result/lck

> <s_m_Source_File>
dock_pv.maegz

> <i_m_Source_File_Index>
215

> <chembl_id>
CHEMBL168661

> <chembl_pref_name>
None

> <i_lp_mmshare_version>
53161

> <i_f3d_flags>
0

> <r_lp_tautomer_probability>
1

> <s_lp_Force_Field>
OPLS_2005

> <r_lp_Energy>
49.645275

> <b_lp_Chiralities_Consistent>
1

> <s_lp_Variant>
CHEMBL258_lig255-1

> <s_i_glide_gridfile>
glide-grid_2of2

> <i_i_glide_lignum>
283

> <i_i_glide_rotatable_bonds>
9

> <r_i_docking_score>
-7.13880016549566

> <r_i_glide_ligand_efficiency>
-0.230283876306312

> <r_i_glide_ligand_efficiency_sa>
-0.723409312758281

> <r_i_glide_ligand_efficiency_ln>
-1.61001821527011

> <r_i_glide_gscore>
-7.13880016549566

> <r_i_glide_lipo>
-2.03774083186858

> <r_i_glide_hbond>
-0.627048035132333

> <r_i_glide_metal>
0

> <r_i_glide_rewards>
-1.83173436925088

> <r_i_glide_evdw>
-38.832145690918

> <r_i_glide_ecoul>
-8.26510715484619

> <r_i_glide_erotb>
0.539096428528958

> <r_i_glide_esite>
0

> <r_i_glide_emodel>
-61.138858535774

> <r_i_glide_energy>
-47.0972528457642

> <r_i_glide_einternal>
11.8781185150146

> <i_i_glide_confnum>
3

> <i_i_glide_posenum>
113

> <r_i_glide_eff_state_penalty>
0

> <s_user_duplicate_titles>
CHEMBL258_lig255,282244

> <s_m_subgroup_title>
dock_pv

> <s_m_subgroupid>
dock_pv

> <b_m_subgroup_collapsed>
1

$$$$
CHEMBL258_lig1046
                    3D
 Schrodinger Suite 2021-1.
 29 31  0  0  1  0            999 V2000
   22.8090   37.8616   85.0588 C   0  0  0  0  0  0
   23.6820   38.8543   85.3354 C   0  0  0  0  0  0
   25.0640   38.8245   84.8848 C   0  0  0  0  0  0
   25.8908   39.6916   85.1568 O   0  0  0  0  0  0
   25.3855   37.6413   84.0337 C   0  0  0  0  0  0
   26.6571   37.4694   83.4647 C   0  0  0  0  0  0
   26.9220   36.3742   82.6414 C   0  0  0  0  0  0
   25.9234   35.4367   82.3828 C   0  0  0  0  0  0
   24.6546   35.5948   82.9387 C   0  0  0  0  0  0
   24.3946   36.6821   83.7710 C   0  0  0  0  0  0
   23.1206   36.7786   84.2944 O   0  0  0  0  0  0
   21.3797   37.8614   85.4479 C   0  0  0  0  0  0
   20.6404   39.0525   85.4792 C   0  0  0  0  0  0
   19.2968   39.0424   85.8495 C   0  0  0  0  0  0
   18.6855   37.8421   86.2016 C   0  0  0  0  0  0
   19.4165   36.6574   86.2030 C   0  0  0  0  0  0
   20.7550   36.6648   85.8197 C   0  0  0  0  0  0
   17.3604   37.8210   86.5479 O   0  0  0  0  0  0
   28.1633   36.2192   82.0870 O   0  0  0  0  0  0
   23.3581   39.6984   85.9236 H   0  0  0  0  0  0
   27.4459   38.1870   83.6481 H   0  0  0  0  0  0
   26.1388   34.5908   81.7497 H   0  0  0  0  0  0
   23.8666   34.8876   82.7292 H   0  0  0  0  0  0
   21.0994   39.9910   85.2022 H   0  0  0  0  0  0
   18.7338   39.9638   85.8617 H   0  0  0  0  0  0
   18.9476   35.7279   86.4870 H   0  0  0  0  0  0
   21.3027   35.7327   85.8101 H   0  0  0  0  0  0
   16.9186   38.6888   86.4879 H   0  0  0  0  0  0
   28.1666   35.5918   81.3539 H   0  0  0  0  0  0
  1  2  2  0  0  0
  1 11  1  0  0  0
  1 12  1  0  0  0
  2  3  1  0  0  0
  2 20  1  0  0  0
  3  4  2  0  0  0
  3  5  1  0  0  0
  5  6  1  0  0  0
  5 10  2  0  0  0
  6  7  2  0  0  0
  6 21  1  0  0  0
  7  8  1  0  0  0
  7 19  1  0  0  0
  8  9  2  0  0  0
  8 22  1  0  0  0
  9 10  1  0  0  0
  9 23  1  0  0  0
 10 11  1  0  0  0
 12 13  1  0  0  0
 12 17  2  0  0  0
 13 14  2  0  0  0
 13 24  1  0  0  0
 14 15  1  0  0  0
 14 25  1  0  0  0
 15 16  2  0  0  0
 15 18  1  0  0  0
 16 17  1  0  0  0
 16 26  1  0  0  0
 17 27  1  0  0  0
 18 28  1  0  0  0
 19 29  1  0  0  0
M  END
> <s_m_entry_id>
4728

> <s_m_entry_name>
dock_pv.216

> <s_m_Source_Path>
/home/csk/Desktop/cluster/DUD-E-result/lck

> <s_m_Source_File>
dock_pv.maegz

> <i_m_Source_File_Index>
216

> <chembl_id>
CHEMBL484663

> <chembl_pref_name>
None

> <i_lp_mmshare_version>
53161

> <i_f3d_flags>
0

> <r_lp_tautomer_probability>
0.999999999997365

> <s_lp_Force_Field>
OPLS_2005

> <r_lp_Energy>
10.635731

> <b_lp_Chiralities_Consistent>
1

> <s_lp_Variant>
CHEMBL258_lig1046-1

> <s_i_glide_gridfile>
glide-grid_2of2

> <i_i_glide_lignum>
1134

> <i_i_glide_rotatable_bonds>
3

> <r_i_docking_score>
-7.13717055865361

> <r_i_glide_ligand_efficiency>
-0.375640555718611

> <r_i_glide_ligand_efficiency_sa>
-1.00235987722257

> <r_i_glide_ligand_efficiency_ln>
-1.80942602898673

> <r_i_glide_gscore>
-7.13717055865361

> <r_i_glide_lipo>
-2.91037830506036

> <r_i_glide_hbond>
-0.43473804902607

> <r_i_glide_metal>
0

> <r_i_glide_rewards>
-1.74381296876932

> <r_i_glide_evdw>
-27.8993377685547

> <r_i_glide_ecoul>
-6.16875886917114

> <r_i_glide_erotb>
0.272039483005549

> <r_i_glide_esite>
0

> <r_i_glide_emodel>
-49.294710801561

> <r_i_glide_energy>
-34.0680966377258

> <r_i_glide_einternal>
1.57039976119995

> <i_i_glide_confnum>
1

> <i_i_glide_posenum>
293

> <r_i_glide_eff_state_penalty>
0

> <s_user_duplicate_titles>
CHEMBL258_lig1046

> <s_m_subgroup_title>
dock_pv

> <s_m_subgroupid>
dock_pv

> <b_m_subgroup_collapsed>
1

$$$$
CHEMBL258_lig231
                    3D
 Schrodinger Suite 2021-1.
 40 43  0  0  1  0            999 V2000
   22.8663   37.1132   84.6029 C   0  0  0  0  0  0
   23.1646   38.2690   85.2915 N   0  3  0  0  0  0
   23.8827   36.5485   83.7973 C   0  0  0  0  0  0
   25.1410   37.1630   83.7961 N   0  0  0  0  0  0
   24.4064   38.9038   85.2566 C   0  0  0  0  0  0
   21.6042   36.4189   84.6299 N   0  0  0  0  0  0
   25.4338   38.2863   84.4867 C   0  0  0  0  0  0
   25.2744   35.4043   82.4227 N   0  0  0  0  0  0
   20.4033   36.7260   85.3539 C   0  0  0  0  0  0
   25.9338   36.4053   82.9584 C   0  0  0  0  0  0
   24.0457   35.4678   82.8816 C   0  0  0  0  0  0
   22.1690   38.9047   86.0336 O   0  0  0  0  0  0
   20.0451   35.9551   86.4827 C   0  0  0  0  0  0
   19.5348   37.7507   84.9172 C   0  0  0  0  0  0
   21.0163   34.6355   87.0612 Cl  0  0  0  0  0  0
   24.6940   40.1177   85.9464 C   0  0  0  0  0  0
   26.7297   38.8764   84.4463 C   0  0  0  0  0  0
   18.0027   37.2337   86.7244 C   0  0  0  0  0  0
   18.8498   36.2206   87.1554 C   0  0  0  0  0  0
   18.3466   37.9914   85.6110 C   0  0  0  0  0  0
   19.8201   38.6037   83.6874 C   0  0  0  0  0  0
   22.1670   38.5440   87.4127 C   0  0  0  0  0  0
   25.9706   40.6714   85.8811 C   0  0  0  0  0  0
   26.9775   40.0554   85.1449 C   0  0  0  0  0  0
   21.5776   35.5450   84.1263 H   0  0  0  0  0  0
   26.9686   36.6357   82.7579 H   0  0  0  0  0  0
   23.3042   34.7649   82.5269 H   0  0  0  0  0  0
   23.9276   40.6173   86.5207 H   0  0  0  0  0  0
   27.5304   38.4284   83.8770 H   0  0  0  0  0  0
   17.0710   37.4217   87.2396 H   0  0  0  0  0  0
   18.5523   35.6140   87.9990 H   0  0  0  0  0  0
   17.6717   38.7644   85.2793 H   0  0  0  0  0  0
   20.6495   39.2859   83.8738 H   0  0  0  0  0  0
   20.0915   37.9729   82.8418 H   0  0  0  0  0  0
   18.9483   39.1798   83.3820 H   0  0  0  0  0  0
   22.2988   39.4428   88.0159 H   0  0  0  0  0  0
   21.2035   38.1210   87.6919 H   0  0  0  0  0  0
   22.9435   37.8255   87.6857 H   0  0  0  0  0  0
   26.1828   41.5919   86.4067 H   0  0  0  0  0  0
   27.9613   40.5021   85.1108 H   0  0  0  0  0  0
  1  2  2  0  0  0
  1  3  1  0  0  0
  1  6  1  0  0  0
  2  5  1  0  0  0
  2 12  1  0  0  0
  3  4  1  0  0  0
  3 11  2  0  0  0
  4  7  1  0  0  0
  4 10  1  0  0  0
  5 16  2  0  0  0
  5  7  1  0  0  0
  6  9  1  0  0  0
  6 25  1  0  0  0
  7 17  2  0  0  0
  8 11  1  0  0  0
  8 10  2  0  0  0
  9 13  2  0  0  0
  9 14  1  0  0  0
 10 26  1  0  0  0
 11 27  1  0  0  0
 12 22  1  0  0  0
 13 15  1  0  0  0
 13 19  1  0  0  0
 14 20  2  0  0  0
 14 21  1  0  0  0
 16 23  1  0  0  0
 16 28  1  0  0  0
 17 24  1  0  0  0
 17 29  1  0  0  0
 18 20  1  0  0  0
 18 19  2  0  0  0
 18 30  1  0  0  0
 19 31  1  0  0  0
 20 32  1  0  0  0
 21 33  1  0  0  0
 21 34  1  0  0  0
 21 35  1  0  0  0
 22 36  1  0  0  0
 22 37  1  0  0  0
 22 38  1  0  0  0
 23 24  2  0  0  0
 23 39  1  0  0  0
 24 40  1  0  0  0
M  CHG  1   2   1
M  END
> <s_m_entry_id>
4729

> <s_m_entry_name>
dock_pv.217

> <s_m_Source_Path>
/home/csk/Desktop/cluster/DUD-E-result/lck

> <s_m_Source_File>
dock_pv.maegz

> <i_m_Source_File_Index>
217

> <chembl_id>
CHEMBL313798

> <chembl_pref_name>
None

> <i_lp_mmshare_version>
53161

> <i_f3d_flags>
0

> <r_lp_tautomer_probability>
1

> <s_lp_Force_Field>
OPLS_2005

> <r_lp_Energy>
60.552178

> <b_lp_Chiralities_Consistent>
1

> <s_lp_Variant>
CHEMBL258_lig231-1

> <s_i_glide_gridfile>
glide-grid_2of2

> <i_i_glide_lignum>
259

> <i_i_glide_rotatable_bonds>
3

> <r_i_docking_score>
-7.12752031520629

> <r_i_glide_ligand_efficiency>
-0.296980013133596

> <r_i_glide_ligand_efficiency_sa>
-0.856638591756152

> <r_i_glide_ligand_efficiency_ln>
-1.70594267202458

> <r_i_glide_gscore>
-7.12752031520629

> <r_i_glide_lipo>
-2.55648473025771

> <r_i_glide_hbond>
-0.0355071289093908

> <r_i_glide_metal>
0

> <r_i_glide_rewards>
-2.88750440544366

> <r_i_glide_evdw>
-35.7875175476074

> <r_i_glide_ecoul>
-1.24355065822601

> <r_i_glide_erotb>
0.327884425518745

> <r_i_glide_esite>
0

> <r_i_glide_emodel>
-53.2127100397982

> <r_i_glide_energy>
-37.0310682058334

> <r_i_glide_einternal>
4.79296827316284

> <i_i_glide_confnum>
3

> <i_i_glide_posenum>
140

> <r_i_glide_eff_state_penalty>
0

> <s_user_duplicate_titles>
CHEMBL258_lig231,137002

> <s_m_subgroup_title>
dock_pv

> <s_m_subgroupid>
dock_pv

> <b_m_subgroup_collapsed>
1

$$$$
CHEMBL258_lig540
                    3D
 Schrodinger Suite 2021-1.
 45 48  0  0  1  0            999 V2000
   25.8055   36.9516   83.6142 C   0  0  0  0  0  0
   22.2374   37.0322   84.4326 C   0  0  0  0  0  0
   28.1006   37.9242   83.6495 C   0  0  0  0  0  0
   24.4180   37.0717   84.0016 C   0  0  0  0  0  0
   26.3717   35.8892   82.8289 C   0  0  0  0  0  0
   26.7206   37.9641   84.0722 C   0  0  0  0  0  0
   23.2115   36.4641   83.6281 N   0  0  0  0  0  0
   22.6826   37.9740   85.2186 N   0  0  0  0  0  0
   28.5141   36.8216   82.8870 C   0  0  0  0  0  0
   27.6717   35.8529   82.4870 N   0  0  0  0  0  0
   20.9318   36.6210   84.3331 N   0  0  0  0  0  0
   24.0085   38.0771   84.9088 C   0  0  0  0  0  0
   19.8839   36.9133   85.2113 C   0  0  0  0  0  0
   29.0897   38.9893   84.0112 C   0  0  0  0  0  0
   26.2293   38.9741   84.9510 C   0  0  0  0  0  0
   25.5854   34.8341   82.4892 O   0  0  0  0  0  0
   24.9122   39.0223   85.3850 C   0  0  0  0  0  0
   18.8610   37.7840   84.8119 C   0  0  0  0  0  0
   19.7688   36.2118   86.4246 C   0  0  0  0  0  0
   30.1616   38.7671   84.5769 O   0  0  0  0  0  0
   22.9128   35.5164   82.5466 C   0  0  0  0  0  0
   28.7111   40.1982   83.5312 O   0  0  0  0  0  0
   29.9398   36.6208   82.3710 C   0  0  0  0  0  0
   18.8906   38.6167   83.2943 Cl  0  0  0  0  0  0
   20.9442   35.0222   86.8870 Cl  0  0  0  0  0  0
   17.6411   37.2760   86.8409 C   0  0  0  0  0  0
   18.6477   36.3987   87.2351 C   0  0  0  0  0  0
   17.7499   37.9527   85.6275 C   0  0  0  0  0  0
   29.5340   41.3426   83.7188 C   0  0  0  0  0  0
   20.6943   35.8457   83.7310 H   0  0  0  0  0  0
   26.9013   39.7295   85.3280 H   0  0  0  0  0  0
   24.7210   34.9428   82.8877 H   0  0  0  0  0  0
   24.5926   39.7936   86.0704 H   0  0  0  0  0  0
   21.8757   35.6025   82.2247 H   0  0  0  0  0  0
   23.5014   35.7487   81.6612 H   0  0  0  0  0  0
   23.0658   34.4991   82.8834 H   0  0  0  0  0  0
   30.2151   37.4209   81.6870 H   0  0  0  0  0  0
   30.6631   36.6212   83.1856 H   0  0  0  0  0  0
   30.0575   35.6770   81.8338 H   0  0  0  0  0  0
   16.7650   37.4172   87.4578 H   0  0  0  0  0  0
   18.5454   35.8390   88.1523 H   0  0  0  0  0  0
   16.9534   38.6069   85.2987 H   0  0  0  0  0  0
   29.0551   42.2211   83.2877 H   0  0  0  0  0  0
   30.5024   41.2137   83.2329 H   0  0  0  0  0  0
   29.7042   41.5370   84.7785 H   0  0  0  0  0  0
  1  4  2  0  0  0
  1  5  1  0  0  0
  1  6  1  0  0  0
  2  7  1  0  0  0
  2 11  1  0  0  0
  2  8  2  0  0  0
  3  6  1  0  0  0
  3  9  2  0  0  0
  3 14  1  0  0  0
  4  7  1  0  0  0
  4 12  1  0  0  0
  5 10  2  0  0  0
  5 16  1  0  0  0
  6 15  2  0  0  0
  7 21  1  0  0  0
  8 12  1  0  0  0
  9 23  1  0  0  0
  9 10  1  0  0  0
 11 13  1  0  0  0
 11 30  1  0  0  0
 12 17  2  0  0  0
 13 18  2  0  0  0
 13 19  1  0  0  0
 14 20  2  0  0  0
 14 22  1  0  0  0
 15 17  1  0  0  0
 15 31  1  0  0  0
 16 32  1  0  0  0
 17 33  1  0  0  0
 18 24  1  0  0  0
 18 28  1  0  0  0
 19 25  1  0  0  0
 19 27  2  0  0  0
 21 34  1  0  0  0
 21 35  1  0  0  0
 21 36  1  0  0  0
 22 29  1  0  0  0
 23 37  1  0  0  0
 23 38  1  0  0  0
 23 39  1  0  0  0
 26 27  1  0  0  0
 26 28  2  0  0  0
 26 40  1  0  0  0
 27 41  1  0  0  0
 28 42  1  0  0  0
 29 43  1  0  0  0
 29 44  1  0  0  0
 29 45  1  0  0  0
M  END
> <s_m_entry_id>
4730

> <s_m_entry_name>
dock_pv.218

> <s_m_Source_Path>
/home/csk/Desktop/cluster/DUD-E-result/lck

> <s_m_Source_File>
dock_pv.maegz

> <i_m_Source_File_Index>
218

> <chembl_id>
CHEMBL26409

> <chembl_pref_name>
None

> <i_lp_mmshare_version>
53161

> <i_f3d_flags>
0

> <r_lp_tautomer_probability>
1

> <s_lp_Force_Field>
OPLS_2005

> <r_lp_Energy>
37.385769

> <b_lp_Chiralities_Consistent>
1

> <s_lp_Variant>
CHEMBL258_lig540-1

> <s_i_glide_gridfile>
glide-grid_2of2

> <i_i_glide_lignum>
612

> <i_i_glide_rotatable_bonds>
5

> <r_i_docking_score>
-7.1244086605031

> <r_i_glide_ligand_efficiency>
-0.245669264155279

> <r_i_glide_ligand_efficiency_sa>
-0.754773812970944

> <r_i_glide_ligand_efficiency_ln>
-1.6313089238393

> <r_i_glide_gscore>
-7.1244086605031

> <r_i_glide_lipo>
-3.26499915760341

> <r_i_glide_hbond>
-0.328424239216028

> <r_i_glide_metal>
0

> <r_i_glide_rewards>
-1.24579383806547

> <r_i_glide_evdw>
-44.4356422424316

> <r_i_glide_ecoul>
-2.56132555007935

> <r_i_glide_erotb>
0.320789519015293

> <r_i_glide_esite>
0

> <r_i_glide_emodel>
-64.2478334809612

> <r_i_glide_energy>
-46.996967792511

> <r_i_glide_einternal>
2.07271766662598

> <i_i_glide_confnum>
2

> <i_i_glide_posenum>
365

> <r_i_glide_eff_state_penalty>
0

> <s_user_duplicate_titles>
CHEMBL258_lig540,37188

> <s_m_subgroup_title>
dock_pv

> <s_m_subgroupid>
dock_pv

> <b_m_subgroup_collapsed>
1

$$$$
CHEMBL258_lig206
                    3D
 Schrodinger Suite 2021-1.
 39 42  0  0  1  0            999 V2000
   23.5055   36.4549   83.6872 C   0  0  0  0  0  0
   22.4622   37.0692   84.4030 C   0  0  0  0  0  0
   24.7860   36.9759   83.8961 N   0  0  0  0  0  0
   22.6797   38.1328   85.2207 N   0  0  0  0  0  0
   23.9387   38.6247   85.3573 C   0  0  0  0  0  0
   21.1511   36.6210   84.2181 N   0  0  0  0  0  0
   25.0476   38.0269   84.7026 C   0  0  0  0  0  0
   24.9789   35.2986   82.4324 N   0  0  0  0  0  0
   20.0166   36.8499   85.0184 C   0  0  0  0  0  0
   25.6308   36.2161   83.1146 C   0  0  0  0  0  0
   23.7049   35.4210   82.7379 C   0  0  0  0  0  0
   24.1536   39.7444   86.1897 C   0  0  0  0  0  0
   26.3538   38.5414   84.9068 C   0  0  0  0  0  0
   18.9395   37.5928   84.5021 C   0  0  0  0  0  0
   19.9207   36.3017   86.3165 C   0  0  0  0  0  0
   25.4491   40.2446   86.3928 C   0  0  0  0  0  0
   26.5286   39.6326   85.7547 C   0  0  0  0  0  0
   18.9487   38.2209   82.8886 Cl  0  0  0  0  0  0
   25.7456   41.3200   87.2057 O   0  0  0  0  0  0
   17.7328   37.3154   86.5766 C   0  0  0  0  0  0
   17.8089   37.8235   85.2849 C   0  0  0  0  0  0
   18.7729   36.5404   87.0801 C   0  0  0  0  0  0
   20.9915   35.3687   86.8813 C   0  0  0  0  0  0
   24.6827   42.0496   87.8122 C   0  0  0  0  0  0
   21.0625   35.8363   83.5915 H   0  0  0  0  0  0
   26.6954   36.3886   83.0683 H   0  0  0  0  0  0
   22.9610   34.7726   82.2954 H   0  0  0  0  0  0
   23.2943   40.1820   86.6724 H   0  0  0  0  0  0
   27.2098   38.0956   84.4226 H   0  0  0  0  0  0
   27.5242   40.0208   85.9188 H   0  0  0  0  0  0
   16.8523   37.5042   87.1749 H   0  0  0  0  0  0
   16.9846   38.4047   84.8947 H   0  0  0  0  0  0
   18.6716   36.1113   88.0660 H   0  0  0  0  0  0
   21.8401   35.9427   87.2547 H   0  0  0  0  0  0
   20.6114   34.7183   87.6767 H   0  0  0  0  0  0
   21.3496   34.6981   86.0979 H   0  0  0  0  0  0
   25.0958   42.8778   88.3870 H   0  0  0  0  0  0
   24.0076   42.4714   87.0664 H   0  0  0  0  0  0
   24.1106   41.4266   88.5002 H   0  0  0  0  0  0
  1  2  1  0  0  0
  1  3  1  0  0  0
  1 11  2  0  0  0
  2  4  2  0  0  0
  2  6  1  0  0  0
  3  7  1  0  0  0
  3 10  1  0  0  0
  4  5  1  0  0  0
  5  7  1  0  0  0
  5 12  2  0  0  0
  6  9  1  0  0  0
  6 25  1  0  0  0
  7 13  2  0  0  0
  8 11  1  0  0  0
  8 10  2  0  0  0
  9 14  2  0  0  0
  9 15  1  0  0  0
 10 26  1  0  0  0
 11 27  1  0  0  0
 12 16  1  0  0  0
 12 28  1  0  0  0
 13 17  1  0  0  0
 13 29  1  0  0  0
 14 18  1  0  0  0
 14 21  1  0  0  0
 15 22  2  0  0  0
 15 23  1  0  0  0
 16 17  2  0  0  0
 16 19  1  0  0  0
 17 30  1  0  0  0
 19 24  1  0  0  0
 20 22  1  0  0  0
 20 21  2  0  0  0
 20 31  1  0  0  0
 21 32  1  0  0  0
 22 33  1  0  0  0
 23 34  1  0  0  0
 23 35  1  0  0  0
 23 36  1  0  0  0
 24 37  1  0  0  0
 24 38  1  0  0  0
 24 39  1  0  0  0
M  END
> <s_m_entry_id>
4731

> <s_m_entry_name>
dock_pv.219

> <s_m_Source_Path>
/home/csk/Desktop/cluster/DUD-E-result/lck

> <s_m_Source_File>
dock_pv.maegz

> <i_m_Source_File_Index>
219

> <chembl_id>
CHEMBL311309

> <chembl_pref_name>
None

> <i_lp_mmshare_version>
53161

> <i_f3d_flags>
0

> <r_lp_tautomer_probability>
1

> <s_lp_Force_Field>
OPLS_2005

> <r_lp_Energy>
62.18674

> <b_lp_Chiralities_Consistent>
1

> <s_lp_Variant>
CHEMBL258_lig206-1

> <s_i_glide_gridfile>
glide-grid_2of2

> <i_i_glide_lignum>
234

> <i_i_glide_rotatable_bonds>
3

> <r_i_docking_score>
-7.12128020305981

> <r_i_glide_ligand_efficiency>
-0.296720008460826

> <r_i_glide_ligand_efficiency_sa>
-0.855888608501786

> <r_i_glide_ligand_efficiency_ln>
-1.70444912684784

> <r_i_glide_gscore>
-7.12128020305981

> <r_i_glide_lipo>
-2.58567586184313

> <r_i_glide_hbond>
-0.0508080959751574

> <r_i_glide_metal>
0

> <r_i_glide_rewards>
-2.69848380370081

> <r_i_glide_evdw>
-35.1083450317383

> <r_i_glide_ecoul>
-2.40340352058411

> <r_i_glide_erotb>
0.329615338133814

> <r_i_glide_esite>
0

> <r_i_glide_emodel>
-53.037900692329

> <r_i_glide_energy>
-37.5117485523224

> <r_i_glide_einternal>
1.2855316400528

> <i_i_glide_confnum>
2

> <i_i_glide_posenum>
225

> <r_i_glide_eff_state_penalty>
0

> <s_user_duplicate_titles>
CHEMBL258_lig206,136528

> <s_m_subgroup_title>
dock_pv

> <s_m_subgroupid>
dock_pv

> <b_m_subgroup_collapsed>
1

$$$$
CHEMBL258_lig649
                    3D
 Schrodinger Suite 2021-1.
 51 54  0  0  1  0            999 V2000
   27.2811   38.3954   84.1565 C   0  0  0  0  0  0
   27.8338   37.4412   83.2869 C   0  0  0  0  0  0
   27.0175   36.4301   82.7624 C   0  0  0  0  0  0
   25.9787   38.2287   84.6399 C   0  0  0  0  0  0
   25.1201   37.2469   84.0789 C   0  0  0  0  0  0
   25.6557   36.3460   83.1115 C   0  0  0  0  0  0
   24.8819   35.4194   82.4839 N   0  0  0  0  0  0
   23.5665   35.4210   82.7953 C   0  0  0  0  0  0
   22.9499   36.2207   83.6919 N   0  0  0  0  0  0
   23.7199   37.1267   84.3405 C   0  0  0  0  0  0
   23.0933   38.0225   85.2274 N   0  0  0  0  0  0
   21.7616   38.2977   85.5997 C   0  0  0  0  0  0
   20.6576   37.5248   85.2027 C   0  0  0  0  0  0
   19.3619   37.8930   85.5654 C   0  0  0  0  0  0
   19.1524   39.0409   86.3254 C   0  0  0  0  0  0
   20.2362   39.8127   86.7402 C   0  0  0  0  0  0
   21.5366   39.4415   86.3835 C   0  0  0  0  0  0
   29.1713   37.5641   82.9518 O   0  0  0  0  0  0
   28.1045   39.6423   84.5233 C   0  0  0  0  0  0
   27.3544   40.8943   84.7780 N   0  0  1  0  0  0
   29.8342   36.4821   82.2999 C   0  0  0  0  0  0
   28.2110   42.0967   84.7253 C   0  0  1  0  0  0
   27.2406   43.2954   84.6633 C   0  0  0  0  0  0
   25.9456   42.7007   84.1167 C   0  0  0  0  0  0
   26.2859   41.2367   83.8364 C   0  0  0  0  0  0
   19.9514   41.2287   87.6866 Cl  0  0  0  0  0  0
   29.1886   42.2743   85.9165 C   0  0  0  0  0  0
   28.9495   41.8215   87.0348 O   0  0  0  0  0  0
   30.3014   42.9749   85.6873 N   0  0  0  0  0  0
   22.5829   40.2057   86.7910 F   0  0  0  0  0  0
   27.3981   35.7157   82.0484 H   0  0  0  0  0  0
   25.5874   38.9267   85.3651 H   0  0  0  0  0  0
   22.9504   34.6922   82.2900 H   0  0  0  0  0  0
   23.7423   38.6708   85.6469 H   0  0  0  0  0  0
   20.7659   36.6295   84.6155 H   0  0  0  0  0  0
   18.5230   37.2872   85.2505 H   0  0  0  0  0  0
   18.1500   39.3381   86.5938 H   0  0  0  0  0  0
   28.8110   39.8267   83.7117 H   0  0  0  0  0  0
   28.7077   39.4096   85.4012 H   0  0  0  0  0  0
   30.8989   36.7044   82.2292 H   0  0  0  0  0  0
   29.7307   35.5488   82.8563 H   0  0  0  0  0  0
   29.4629   36.3269   81.2866 H   0  0  0  0  0  0
   28.8250   42.0937   83.8186 H   0  0  0  0  0  0
   27.0539   43.7602   85.6344 H   0  0  0  0  0  0
   27.6132   44.0637   83.9830 H   0  0  0  0  0  0
   25.1448   42.7679   84.8551 H   0  0  0  0  0  0
   25.5878   43.2218   83.2300 H   0  0  0  0  0  0
   25.4005   40.6338   84.0257 H   0  0  0  0  0  0
   26.5536   41.0209   82.8006 H   0  0  0  0  0  0
   30.9576   43.1101   86.4397 H   0  0  0  0  0  0
   30.4871   43.3806   84.7722 H   0  0  0  0  0  0
  1  2  1  0  0  0
  1 19  1  0  0  0
  1  4  2  0  0  0
  2 18  1  0  0  0
  2  3  2  0  0  0
  3  6  1  0  0  0
  3 31  1  0  0  0
  4  5  1  0  0  0
  4 32  1  0  0  0
  5 10  2  0  0  0
  5  6  1  0  0  0
  6  7  2  0  0  0
  7  8  1  0  0  0
  8  9  2  0  0  0
  8 33  1  0  0  0
  9 10  1  0  0  0
 10 11  1  0  0  0
 11 12  1  0  0  0
 11 34  1  0  0  0
 12 17  2  0  0  0
 12 13  1  0  0  0
 13 14  2  0  0  0
 13 35  1  0  0  0
 14 15  1  0  0  0
 14 36  1  0  0  0
 15 16  2  0  0  0
 15 37  1  0  0  0
 16 17  1  0  0  0
 16 26  1  0  0  0
 17 30  1  0  0  0
 18 21  1  0  0  0
 19 20  1  0  0  0
 19 38  1  0  0  0
 19 39  1  0  0  0
 20 22  1  0  0  0
 20 25  1  0  0  0
 21 40  1  0  0  0
 21 41  1  0  0  0
 21 42  1  0  0  0
 22 23  1  0  0  0
 22 27  1  0  0  0
 22 43  1  0  0  0
 23 24  1  0  0  0
 23 44  1  0  0  0
 23 45  1  0  0  0
 24 25  1  0  0  0
 24 46  1  0  0  0
 24 47  1  0  0  0
 25 48  1  0  0  0
 25 49  1  0  0  0
 27 28  2  0  0  0
 27 29  1  0  0  0
 29 50  1  0  0  0
 29 51  1  0  0  0
M  END
> <s_m_entry_id>
4732

> <s_m_entry_name>
dock_pv.220

> <s_m_Source_Path>
/home/csk/Desktop/cluster/DUD-E-result/lck

> <s_m_Source_File>
dock_pv.maegz

> <i_m_Source_File_Index>
220

> <chembl_id>
CHEMBL207584

> <chembl_pref_name>
None

> <i_lp_mmshare_version>
53161

> <i_f3d_flags>
0

> <r_lp_tautomer_probability>
0.999978000241998

> <s_lp_Force_Field>
OPLS_2005

> <r_lp_Energy>
40.150045

> <b_lp_Chiralities_Consistent>
1

> <s_lp_Variant>
CHEMBL258_lig649-1

> <s_i_glide_gridfile>
glide-grid_2of2

> <i_i_glide_lignum>
732

> <i_i_glide_rotatable_bonds>
6

> <r_i_docking_score>
-7.11731241265081

> <r_i_glide_ligand_efficiency>
-0.23724374708836

> <r_i_glide_ligand_efficiency_sa>
-0.737171481951494

> <r_i_glide_ligand_efficiency_ln>
-1.61713092948421

> <r_i_glide_gscore>
-7.11731241265081

> <r_i_glide_lipo>
-2.71985562958311

> <r_i_glide_hbond>
-0.141257777648375

> <r_i_glide_metal>
0

> <r_i_glide_rewards>
-1.77933753916506

> <r_i_glide_evdw>
-39.7241096496582

> <r_i_glide_ecoul>
-5.66276407241821

> <r_i_glide_erotb>
0.430239960077135

> <r_i_glide_esite>
-0.0714813329857605

> <r_i_glide_emodel>
-62.2171997441703

> <r_i_glide_energy>
-45.3868737220764

> <r_i_glide_einternal>
6.59392690658569

> <i_i_glide_confnum>
2

> <i_i_glide_posenum>
153

> <r_i_glide_eff_state_penalty>
0

> <s_user_duplicate_titles>
CHEMBL258_lig649

> <s_m_subgroup_title>
dock_pv

> <s_m_subgroupid>
dock_pv

> <b_m_subgroup_collapsed>
1

$$$$
CHEMBL258_lig1225
                    3D
 Schrodinger Suite 2021-1.
 68 73  0  0  1  0            999 V2000
   20.6601   40.8982   86.9733 C   0  0  0  0  0  0
   21.6755   40.7297   86.0256 C   0  0  0  0  0  0
   21.4501   39.9231   84.9059 C   0  0  0  0  0  0
   19.4830   40.1679   86.8870 C   0  0  0  0  0  0
   19.2955   39.2428   85.8392 C   0  0  0  0  0  0
   20.2752   39.1346   84.8093 C   0  0  0  0  0  0
   20.0480   38.2216   83.7419 C   0  0  0  0  0  0
   18.8721   37.4763   83.6965 C   0  0  0  0  0  0
   17.9285   37.5861   84.7054 C   0  0  0  0  0  0
   18.1502   38.4249   85.7843 C   0  0  0  0  0  0
   29.2133   37.4286   83.2872 C   0  0  0  0  0  0
   30.3091   38.2799   83.4181 C   0  0  0  0  0  0
   30.1699   39.6114   83.6333 N   0  0  0  0  0  0
   28.9050   40.0897   83.7429 C   0  0  0  0  0  0
   27.7708   39.3405   83.6239 N   0  0  0  0  0  0
   27.9421   38.0078   83.3854 C   0  0  0  0  0  0
   26.7939   37.2059   83.2092 N   0  0  0  0  0  0
   28.8300   41.4684   83.9839 N   0  0  0  0  0  0
   25.5205   35.5345   82.3466 N   0  0  0  0  0  0
   26.6742   36.1452   82.3307 C   0  0  0  0  0  0
   24.8070   36.2211   83.2867 C   0  0  0  0  0  0
   25.5754   37.2688   83.8661 C   0  0  0  0  0  0
   25.0567   38.0886   84.8750 C   0  0  0  0  0  0
   23.7498   37.8204   85.2869 C   0  0  0  0  0  0
   22.9778   36.8136   84.7117 C   0  0  0  0  0  0
   23.4821   36.0171   83.6870 C   0  0  0  0  0  0
   27.6254   42.1778   84.4207 C   0  0  1  0  0  0
   27.0641   41.7241   85.8120 C   0  0  1  0  0  0
   27.8071   42.1377   87.0219 N   0  0  1  0  0  0
   27.1956   41.5575   88.2182 C   0  0  0  0  0  0
   25.7440   42.0291   88.4125 C   0  0  0  0  0  0
   24.9695   41.7651   87.1806 N   0  0  0  0  0  0
   25.5836   42.2064   85.9077 C   0  0  0  0  0  0
   23.6296   41.5393   87.3126 C   0  0  0  0  0  0
   23.1000   41.4217   88.4224 O   0  0  0  0  0  0
   27.8485   43.7059   84.3157 C   0  0  0  0  0  0
   22.9523   41.3066   86.1586 N   0  0  0  0  0  0
   29.2067   41.7044   87.0064 C   0  0  0  0  0  0
   20.7780   41.5843   87.7987 H   0  0  0  0  0  0
   22.2074   39.8207   84.1417 H   0  0  0  0  0  0
   18.7085   40.2902   87.6281 H   0  0  0  0  0  0
   20.7856   38.1193   82.9594 H   0  0  0  0  0  0
   18.6771   36.7960   82.8871 H   0  0  0  0  0  0
   17.0112   37.0209   84.6637 H   0  0  0  0  0  0
   17.4141   38.4851   86.5720 H   0  0  0  0  0  0
   29.3509   36.3727   83.1063 H   0  0  0  0  0  0
   31.3194   37.9028   83.3457 H   0  0  0  0  0  0
   29.6972   41.9901   84.0094 H   0  0  0  0  0  0
   27.5033   35.8824   81.6879 H   0  0  0  0  0  0
   25.6374   38.8744   85.3334 H   0  0  0  0  0  0
   23.3292   38.4015   86.0945 H   0  0  0  0  0  0
   21.9718   36.6461   85.0706 H   0  0  0  0  0  0
   22.8794   35.2393   83.2408 H   0  0  0  0  0  0
   26.8620   41.9172   83.6872 H   0  0  0  0  0  0
   27.0505   40.6332   85.8107 H   0  0  0  0  0  0
   27.7748   41.8202   89.1053 H   0  0  0  0  0  0
   27.2094   40.4691   88.1202 H   0  0  0  0  0  0
   25.7776   43.1030   88.5998 H   0  0  0  0  0  0
   25.3470   41.5047   89.2830 H   0  0  0  0  0  0
   25.5887   43.2962   85.8984 H   0  0  0  0  0  0
   25.0595   41.8270   85.0308 H   0  0  0  0  0  0
   26.9454   44.2691   84.5448 H   0  0  0  0  0  0
   28.6281   44.0436   84.9992 H   0  0  0  0  0  0
   28.1507   44.0121   83.3106 H   0  0  0  0  0  0
   23.4724   41.3958   85.3008 H   0  0  0  0  0  0
   29.7029   41.9236   87.9535 H   0  0  0  0  0  0
   29.2995   40.6327   86.8174 H   0  0  0  0  0  0
   29.7713   42.2371   86.2423 H   0  0  0  0  0  0
  1  4  1  0  0  0
  1  2  2  0  0  0
  1 39  1  0  0  0
  2  3  1  0  0  0
  2 37  1  0  0  0
  3  6  2  0  0  0
  3 40  1  0  0  0
  4  5  2  0  0  0
  4 41  1  0  0  0
  5 10  1  0  0  0
  5  6  1  0  0  0
  6  7  1  0  0  0
  7  8  2  0  0  0
  7 42  1  0  0  0
  8  9  1  0  0  0
  8 43  1  0  0  0
  9 10  2  0  0  0
  9 44  1  0  0  0
 10 45  1  0  0  0
 11 12  2  0  0  0
 11 16  1  0  0  0
 11 46  1  0  0  0
 12 13  1  0  0  0
 12 47  1  0  0  0
 13 14  2  0  0  0
 14 15  1  0  0  0
 14 18  1  0  0  0
 15 16  2  0  0  0
 16 17  1  0  0  0
 17 22  1  0  0  0
 17 20  1  0  0  0
 18 27  1  0  0  0
 18 48  1  0  0  0
 19 21  1  0  0  0
 19 20  2  0  0  0
 20 49  1  0  0  0
 21 22  2  0  0  0
 21 26  1  0  0  0
 22 23  1  0  0  0
 23 24  2  0  0  0
 23 50  1  0  0  0
 24 25  1  0  0  0
 24 51  1  0  0  0
 25 26  2  0  0  0
 25 52  1  0  0  0
 26 53  1  0  0  0
 27 28  1  0  0  0
 27 36  1  0  0  0
 27 54  1  0  0  0
 28 29  1  0  0  0
 28 33  1  0  0  0
 28 55  1  0  0  0
 29 30  1  0  0  0
 29 38  1  0  0  0
 30 31  1  0  0  0
 30 56  1  0  0  0
 30 57  1  0  0  0
 31 32  1  0  0  0
 31 58  1  0  0  0
 31 59  1  0  0  0
 32 33  1  0  0  0
 32 34  1  0  0  0
 33 60  1  0  0  0
 33 61  1  0  0  0
 34 35  2  0  0  0
 34 37  1  0  0  0
 36 62  1  0  0  0
 36 63  1  0  0  0
 36 64  1  0  0  0
 37 65  1  0  0  0
 38 66  1  0  0  0
 38 67  1  0  0  0
 38 68  1  0  0  0
M  END
> <s_m_entry_id>
4733

> <s_m_entry_name>
dock_pv.221

> <s_m_Source_Path>
/home/csk/Desktop/cluster/DUD-E-result/lck

> <s_m_Source_File>
dock_pv.maegz

> <i_m_Source_File_Index>
221

> <chembl_id>
CHEMBL568101

> <chembl_pref_name>
None

> <i_lp_mmshare_version>
53161

> <i_f3d_flags>
0

> <r_lp_tautomer_probability>
1

> <s_lp_Force_Field>
OPLS_2005

> <r_lp_Energy>
66.438487

> <b_lp_Chiralities_Consistent>
1

> <s_lp_Variant>
CHEMBL258_lig1225-4

> <s_i_glide_gridfile>
glide-grid_2of2

> <i_i_glide_lignum>
1359

> <i_i_glide_rotatable_bonds>
7

> <r_i_docking_score>
-7.11729493026487

> <r_i_glide_ligand_efficiency>
-0.18729723500697

> <r_i_glide_ligand_efficiency_sa>
-0.629688697091364

> <r_i_glide_ligand_efficiency_ln>
-1.53469815656962

> <r_i_glide_gscore>
-7.11729493026487

> <r_i_glide_lipo>
-2.93211640525857

> <r_i_glide_hbond>
-0.00105956679915813

> <r_i_glide_metal>
0

> <r_i_glide_rewards>
-1.69484125308516

> <r_i_glide_evdw>
-45.123966217041

> <r_i_glide_ecoul>
-4.9605917930603

> <r_i_glide_erotb>
0.558077062698737

> <r_i_glide_esite>
-0.0470676880096217

> <r_i_glide_emodel>
-66.5188738395215

> <r_i_glide_energy>
-50.0845580101013

> <r_i_glide_einternal>
11.3350219726562

> <i_i_glide_confnum>
45

> <i_i_glide_posenum>
64

> <r_i_glide_eff_state_penalty>
0

> <s_user_duplicate_titles>
CHEMBL258_lig1225,580665

> <s_m_subgroup_title>
dock_pv

> <s_m_subgroupid>
dock_pv

> <b_m_subgroup_collapsed>
1

$$$$
CHEMBL258_lig240
                    3D
 Schrodinger Suite 2021-1.
 39 42  0  0  1  0            999 V2000
   22.4593   37.0795   84.3988 C   0  0  0  0  0  0
   23.5128   36.4679   83.6979 C   0  0  0  0  0  0
   24.7868   37.0034   83.9148 N   0  0  0  0  0  0
   22.6613   38.1501   85.2088 N   0  0  0  0  0  0
   23.9141   38.6705   85.3578 C   0  0  0  0  0  0
   25.0317   38.0707   84.7087 C   0  0  0  0  0  0
   21.1528   36.6210   84.2105 N   0  0  0  0  0  0
   25.0101   35.3020   82.4826 N   0  0  0  0  0  0
   20.0198   36.8472   85.0133 C   0  0  0  0  0  0
   25.6460   36.2379   83.1551 C   0  0  0  0  0  0
   23.7298   35.4210   82.7676 C   0  0  0  0  0  0
   24.1121   39.8214   86.1805 C   0  0  0  0  0  0
   18.9415   37.5916   84.4993 C   0  0  0  0  0  0
   19.9307   36.3007   86.3123 C   0  0  0  0  0  0
   18.9492   38.2209   82.8861 Cl  0  0  0  0  0  0
   26.3351   38.5957   84.9008 C   0  0  0  0  0  0
   23.0018   40.3926   86.7820 O   0  0  0  0  0  0
   26.5077   39.7049   85.7210 C   0  0  0  0  0  0
   17.7420   37.3124   86.5776 C   0  0  0  0  0  0
   25.4191   40.3095   86.3438 C   0  0  0  0  0  0
   17.8139   37.8228   85.2864 C   0  0  0  0  0  0
   18.7851   36.5387   87.0778 C   0  0  0  0  0  0
   21.0107   35.3757   86.8776 C   0  0  0  0  0  0
   23.1458   41.5863   87.5433 C   0  0  0  0  0  0
   21.0699   35.8293   83.5928 H   0  0  0  0  0  0
   26.7083   36.4158   83.1170 H   0  0  0  0  0  0
   22.9969   34.7604   82.3263 H   0  0  0  0  0  0
   27.1933   38.1479   84.4220 H   0  0  0  0  0  0
   27.4994   40.1068   85.8720 H   0  0  0  0  0  0
   16.8641   37.5002   87.1785 H   0  0  0  0  0  0
   25.6154   41.1710   86.9631 H   0  0  0  0  0  0
   16.9882   38.4036   84.8989 H   0  0  0  0  0  0
   18.6886   36.1122   88.0649 H   0  0  0  0  0  0
   21.8612   35.9543   87.2336 H   0  0  0  0  0  0
   20.6425   34.7350   87.6853 H   0  0  0  0  0  0
   21.3595   34.6978   86.0971 H   0  0  0  0  0  0
   22.1652   41.9028   87.9001 H   0  0  0  0  0  0
   23.7801   41.4298   88.4157 H   0  0  0  0  0  0
   23.5550   42.3988   86.9418 H   0  0  0  0  0  0
  1  2  1  0  0  0
  1  4  2  0  0  0
  1  7  1  0  0  0
  2  3  1  0  0  0
  2 11  2  0  0  0
  3 10  1  0  0  0
  3  6  1  0  0  0
  4  5  1  0  0  0
  5  6  1  0  0  0
  5 12  2  0  0  0
  6 16  2  0  0  0
  7  9  1  0  0  0
  7 25  1  0  0  0
  8 11  1  0  0  0
  8 10  2  0  0  0
  9 13  2  0  0  0
  9 14  1  0  0  0
 10 26  1  0  0  0
 11 27  1  0  0  0
 12 17  1  0  0  0
 12 20  1  0  0  0
 13 15  1  0  0  0
 13 21  1  0  0  0
 14 22  2  0  0  0
 14 23  1  0  0  0
 16 18  1  0  0  0
 16 28  1  0  0  0
 17 24  1  0  0  0
 18 20  2  0  0  0
 18 29  1  0  0  0
 19 22  1  0  0  0
 19 21  2  0  0  0
 19 30  1  0  0  0
 20 31  1  0  0  0
 21 32  1  0  0  0
 22 33  1  0  0  0
 23 34  1  0  0  0
 23 35  1  0  0  0
 23 36  1  0  0  0
 24 37  1  0  0  0
 24 38  1  0  0  0
 24 39  1  0  0  0
M  END
> <s_m_entry_id>
4734

> <s_m_entry_name>
dock_pv.222

> <s_m_Source_Path>
/home/csk/Desktop/cluster/DUD-E-result/lck

> <s_m_Source_File>
dock_pv.maegz

> <i_m_Source_File_Index>
222

> <chembl_id>
CHEMBL315272

> <chembl_pref_name>
None

> <i_lp_mmshare_version>
53161

> <i_f3d_flags>
0

> <r_lp_tautomer_probability>
1

> <s_lp_Force_Field>
OPLS_2005

> <r_lp_Energy>
63.97995

> <b_lp_Chiralities_Consistent>
1

> <s_lp_Variant>
CHEMBL258_lig240-1

> <s_i_glide_gridfile>
glide-grid_2of2

> <i_i_glide_lignum>
268

> <i_i_glide_rotatable_bonds>
3

> <r_i_docking_score>
-7.11630549203773

> <r_i_glide_ligand_efficiency>
-0.296512728834905

> <r_i_glide_ligand_efficiency_sa>
-0.855290710599586

> <r_i_glide_ligand_efficiency_ln>
-1.70325845022564

> <r_i_glide_gscore>
-7.11630549203773

> <r_i_glide_lipo>
-2.56732512093913

> <r_i_glide_hbond>
-0.0223997531692745

> <r_i_glide_metal>
0

> <r_i_glide_rewards>
-2.69453152973639

> <r_i_glide_evdw>
-35.360897064209

> <r_i_glide_ecoul>
-2.62413048744202

> <r_i_glide_erotb>
0.329615338133814

> <r_i_glide_esite>
0

> <r_i_glide_emodel>
-53.9746874431771

> <r_i_glide_energy>
-37.985027551651

> <r_i_glide_einternal>
1.32743310928345

> <i_i_glide_confnum>
2

> <i_i_glide_posenum>
192

> <r_i_glide_eff_state_penalty>
0

> <s_user_duplicate_titles>
CHEMBL258_lig240,137065

> <s_m_subgroup_title>
dock_pv

> <s_m_subgroupid>
dock_pv

> <b_m_subgroup_collapsed>
1

$$$$
CHEMBL258_lig1166
                    3D
 Schrodinger Suite 2021-1.
 43 45  0  0  1  0            999 V2000
   26.9821   36.3810   82.5858 N   0  0  0  0  0  0
   27.5756   37.4028   83.2871 C   0  0  0  0  0  0
   26.6312   38.0191   84.0860 C   0  0  0  0  0  0
   25.3649   37.3582   83.8617 C   0  0  0  0  0  0
   24.7810   35.4212   82.4397 N   0  0  0  0  0  0
   25.6531   36.3029   82.9329 C   0  0  0  0  0  0
   23.9972   37.4764   84.2761 C   0  0  0  0  0  0
   23.1160   36.5617   83.7873 N   0  0  0  0  0  0
   23.5272   35.6309   82.8992 C   0  0  0  0  0  0
   23.4869   38.5235   85.1252 N   0  0  0  0  0  0
   24.4531   39.5442   85.5456 C   0  0  0  0  0  0
   22.0553   38.9400   85.3159 C   0  0  2  0  0  0
   20.4141   39.9831   86.8213 C   0  0  0  0  0  0
   21.7099   39.1595   86.8150 C   0  0  1  0  0  0
   20.9496   38.0490   84.6720 C   0  0  0  0  0  0
   19.5731   38.5304   85.0027 N   0  0  0  0  0  0
   19.2296   39.1379   86.3148 C   0  0  0  0  0  0
   21.6171   37.8762   87.6723 C   0  0  0  0  0  0
   18.5993   38.3800   84.0672 C   0  0  0  0  0  0
   18.8400   38.1543   82.8866 O   0  0  0  0  0  0
   17.1243   38.3364   84.4855 C   0  0  0  0  0  0
   16.8346   37.6024   85.7327 C   0  0  0  0  0  0
   16.6229   37.0209   86.7138 N   0  0  0  0  0  0
   27.4773   35.7997   81.9243 H   0  0  0  0  0  0
   28.6302   37.6044   83.1550 H   0  0  0  0  0  0
   26.8588   38.8545   84.7308 H   0  0  0  0  0  0
   22.7420   35.0195   82.4870 H   0  0  0  0  0  0
   25.2221   39.1044   86.1803 H   0  0  0  0  0  0
   24.9316   39.9894   84.6713 H   0  0  0  0  0  0
   24.0106   40.3831   86.0792 H   0  0  0  0  0  0
   21.9965   39.9007   84.8005 H   0  0  0  0  0  0
   20.5100   40.8943   86.2273 H   0  0  0  0  0  0
   20.1792   40.3021   87.8368 H   0  0  0  0  0  0
   22.4603   39.7817   87.2989 H   0  0  0  0  0  0
   21.0354   37.0115   84.9928 H   0  0  0  0  0  0
   21.1258   38.1272   83.5991 H   0  0  0  0  0  0
   18.3954   39.8371   86.2208 H   0  0  0  0  0  0
   18.9881   38.3522   87.0303 H   0  0  0  0  0  0
   20.8693   37.1769   87.2994 H   0  0  0  0  0  0
   22.5554   37.3362   87.6816 H   0  0  0  0  0  0
   21.3602   38.1180   88.7024 H   0  0  0  0  0  0
   16.5605   37.8236   83.7095 H   0  0  0  0  0  0
   16.7262   39.3493   84.4904 H   0  0  0  0  0  0
  1  6  1  0  0  0
  1  2  1  0  0  0
  1 24  1  0  0  0
  2  3  2  0  0  0
  2 25  1  0  0  0
  3  4  1  0  0  0
  3 26  1  0  0  0
  4  7  1  0  0  0
  4  6  2  0  0  0
  5  6  1  0  0  0
  5  9  2  0  0  0
  7  8  2  0  0  0
  7 10  1  0  0  0
  8  9  1  0  0  0
  9 27  1  0  0  0
 10 11  1  0  0  0
 10 12  1  0  0  0
 11 28  1  0  0  0
 11 29  1  0  0  0
 11 30  1  0  0  0
 12 14  1  0  0  0
 12 15  1  0  0  0
 12 31  1  0  0  0
 13 14  1  0  0  0
 13 17  1  0  0  0
 13 32  1  0  0  0
 13 33  1  0  0  0
 14 18  1  0  0  0
 14 34  1  0  0  0
 15 16  1  0  0  0
 15 35  1  0  0  0
 15 36  1  0  0  0
 16 17  1  0  0  0
 16 19  1  0  0  0
 17 37  1  0  0  0
 17 38  1  0  0  0
 18 39  1  0  0  0
 18 40  1  0  0  0
 18 41  1  0  0  0
 19 20  2  0  0  0
 19 21  1  0  0  0
 21 22  1  0  0  0
 21 42  1  0  0  0
 21 43  1  0  0  0
 22 23  3  0  0  0
M  END
> <s_m_entry_id>
4735

> <s_m_entry_name>
dock_pv.223

> <s_m_Source_Path>
/home/csk/Desktop/cluster/DUD-E-result/lck

> <s_m_Source_File>
dock_pv.maegz

> <i_m_Source_File_Index>
223

> <chembl_id>
CHEMBL221959

> <chembl_pref_name>
TOFACITINIB

> <i_lp_mmshare_version>
53161

> <i_f3d_flags>
0

> <r_lp_tautomer_probability>
0.999998369746258

> <s_lp_Force_Field>
OPLS_2005

> <r_lp_Energy>
35.175243

> <b_lp_Chiralities_Consistent>
1

> <s_lp_Variant>
CHEMBL258_lig1166-1

> <s_i_glide_gridfile>
glide-grid_2of2

> <i_i_glide_lignum>
1254

> <i_i_glide_rotatable_bonds>
4

> <r_i_docking_score>
-7.10814891644302

> <r_i_glide_ligand_efficiency>
-0.309049952888827

> <r_i_glide_ligand_efficiency_sa>
-0.878896955226625

> <r_i_glide_ligand_efficiency_ln>
-1.71881486112682

> <r_i_glide_gscore>
-7.10814891644302

> <r_i_glide_lipo>
-1.82289794362132

> <r_i_glide_hbond>
-0.0366392291932565

> <r_i_glide_metal>
0

> <r_i_glide_rewards>
-3.50078133560136

> <r_i_glide_evdw>
-35.447322845459

> <r_i_glide_ecoul>
-3.38706588745117

> <r_i_glide_erotb>
0.570600221807648

> <r_i_glide_esite>
-0.0380046044441117

> <r_i_glide_emodel>
-48.6234935963044

> <r_i_glide_energy>
-38.8343887329102

> <r_i_glide_einternal>
9.87980461120605

> <i_i_glide_confnum>
14

> <i_i_glide_posenum>
196

> <r_i_glide_eff_state_penalty>
0

> <s_user_duplicate_titles>
CHEMBL258_lig1166

> <s_m_subgroup_title>
dock_pv

> <s_m_subgroupid>
dock_pv

> <b_m_subgroup_collapsed>
1

$$$$
CHEMBL258_lig293
                    3D
 Schrodinger Suite 2021-1.
 36 38  0  0  1  0            999 V2000
   25.3113   37.0947   83.8193 C   0  0  0  0  0  0
   23.9054   37.0445   84.0929 C   0  0  0  0  0  0
   25.7826   36.1940   82.8165 C   0  0  0  0  0  0
   26.2454   37.9630   84.4423 C   0  0  0  0  0  0
   23.0751   36.2049   83.4308 N   0  0  0  0  0  0
   27.1526   36.1706   82.4872 C   0  0  0  0  0  0
   23.3231   37.9205   85.0324 N   0  0  0  0  0  0
   27.6041   37.9365   84.0871 C   0  0  0  0  0  0
   28.0615   37.0273   83.1213 C   0  0  0  0  0  0
   24.9454   35.3502   82.1512 N   0  0  0  0  0  0
   23.6350   35.4177   82.4875 C   0  0  0  0  0  0
   21.9920   38.1335   85.4482 C   0  0  0  0  0  0
   28.5450   38.7774   84.6613 O   0  0  0  0  0  0
   29.4189   37.0202   82.8450 O   0  0  0  0  0  0
   21.6675   39.3978   85.9470 C   0  0  0  0  0  0
   20.9964   37.1481   85.3930 C   0  0  0  0  0  0
   29.9482   36.0841   81.9010 C   0  0  0  0  0  0
   28.1632   39.6610   85.7130 C   0  0  0  0  0  0
   19.6911   37.4411   85.7813 C   0  0  0  0  0  0
   20.3646   39.6932   86.3431 C   0  0  0  0  0  0
   19.3780   38.7152   86.2480 C   0  0  0  0  0  0
   25.8836   38.6467   85.1909 H   0  0  0  0  0  0
   27.4769   35.4707   81.7321 H   0  0  0  0  0  0
   23.9612   38.6293   85.3599 H   0  0  0  0  0  0
   22.9680   34.7464   81.9658 H   0  0  0  0  0  0
   22.4200   40.1706   86.0097 H   0  0  0  0  0  0
   21.2140   36.1479   85.0488 H   0  0  0  0  0  0
   31.0239   36.2338   81.8070 H   0  0  0  0  0  0
   29.7896   35.0520   82.2186 H   0  0  0  0  0  0
   29.5161   36.2208   80.9093 H   0  0  0  0  0  0
   29.0349   40.2105   86.0689 H   0  0  0  0  0  0
   27.7584   39.1121   86.5654 H   0  0  0  0  0  0
   27.4280   40.3956   85.3790 H   0  0  0  0  0  0
   18.9238   36.6824   85.7106 H   0  0  0  0  0  0
   20.1174   40.6809   86.7079 H   0  0  0  0  0  0
   18.3603   38.9485   86.5395 H   0  0  0  0  0  0
  1  2  1  0  0  0
  1  3  1  0  0  0
  1  4  2  0  0  0
  2  5  2  0  0  0
  2  7  1  0  0  0
  3  6  2  0  0  0
  3 10  1  0  0  0
  4  8  1  0  0  0
  4 22  1  0  0  0
  5 11  1  0  0  0
  6  9  1  0  0  0
  6 23  1  0  0  0
  7 12  1  0  0  0
  7 24  1  0  0  0
  8  9  2  0  0  0
  8 13  1  0  0  0
  9 14  1  0  0  0
 10 11  2  0  0  0
 11 25  1  0  0  0
 12 15  1  0  0  0
 12 16  2  0  0  0
 13 18  1  0  0  0
 14 17  1  0  0  0
 15 20  2  0  0  0
 15 26  1  0  0  0
 16 19  1  0  0  0
 16 27  1  0  0  0
 17 28  1  0  0  0
 17 29  1  0  0  0
 17 30  1  0  0  0
 18 31  1  0  0  0
 18 32  1  0  0  0
 18 33  1  0  0  0
 19 21  2  0  0  0
 19 34  1  0  0  0
 20 21  1  0  0  0
 20 35  1  0  0  0
 21 36  1  0  0  0
M  END
> <s_m_entry_id>
4736

> <s_m_entry_name>
dock_pv.224

> <s_m_Source_Path>
/home/csk/Desktop/cluster/DUD-E-result/lck

> <s_m_Source_File>
dock_pv.maegz

> <i_m_Source_File_Index>
224

> <chembl_id>
CHEMBL542484

> <chembl_pref_name>
None

> <i_lp_mmshare_version>
53161

> <i_f3d_flags>
0

> <r_lp_tautomer_probability>
0.999978000241998

> <s_lp_Force_Field>
OPLS_2005

> <r_lp_Energy>
20.218154

> <b_lp_Chiralities_Consistent>
1

> <s_lp_Variant>
CHEMBL258_lig293-1

> <s_i_glide_gridfile>
glide-grid_2of2

> <i_i_glide_lignum>
325

> <i_i_glide_rotatable_bonds>
4

> <r_i_docking_score>
-7.10645609130085

> <r_i_glide_ligand_efficiency>
-0.338402671014326

> <r_i_glide_ligand_efficiency_sa>
-0.933627309465888

> <r_i_glide_ligand_efficiency_ln>
-1.75705690862749

> <r_i_glide_gscore>
-7.10645609130085

> <r_i_glide_lipo>
-2.52885068734731

> <r_i_glide_hbond>
-0.166050834731365

> <r_i_glide_metal>
0

> <r_i_glide_rewards>
-2.53760419204825

> <r_i_glide_evdw>
-31.5322380065918

> <r_i_glide_ecoul>
-5.02765130996704

> <r_i_glide_erotb>
0.456809219650713

> <r_i_glide_esite>
0

> <r_i_glide_emodel>
-52.3992607368195

> <r_i_glide_energy>
-36.5598893165588

> <r_i_glide_einternal>
0.171676382422447

> <i_i_glide_confnum>
1

> <i_i_glide_posenum>
213

> <r_i_glide_eff_state_penalty>
0

> <s_user_duplicate_titles>
CHEMBL258_lig293

> <s_m_subgroup_title>
dock_pv

> <s_m_subgroupid>
dock_pv

> <b_m_subgroup_collapsed>
1

$$$$
CHEMBL258_lig181
                    3D
 Schrodinger Suite 2021-1.
 35 37  0  0  1  0            999 V2000
   24.0775   38.4029   84.7151 C   0  0  0  0  0  0
   25.1066   39.3246   85.1933 C   0  0  0  0  0  0
   24.4378   37.2984   84.0159 C   0  0  0  0  0  0
   25.8261   37.0190   83.6317 C   0  0  0  0  0  0
   22.6599   38.6800   84.8951 C   0  0  0  0  0  0
   26.7802   37.9512   84.0525 C   0  0  0  0  0  0
   26.4077   39.0401   84.8198 O   0  0  0  0  0  0
   26.2234   35.9409   82.8329 C   0  0  0  0  0  0
   21.9344   37.6304   85.3489 N   0  0  0  0  0  0
   28.1186   37.8216   83.6872 C   0  0  0  0  0  0
   27.5658   35.8024   82.4870 C   0  0  0  0  0  0
   24.9572   40.3436   85.9198 N   0  0  0  0  0  0
   28.5063   36.7472   82.8871 C   0  0  0  0  0  0
   22.1805   39.7863   84.6414 O   0  0  0  0  0  0
   20.5483   37.5731   85.5673 C   0  0  0  0  0  0
   19.6120   38.3349   84.8498 C   0  0  0  0  0  0
   25.3262   35.0210   82.3590 O   0  0  0  0  0  0
   18.2570   38.2554   85.1659 C   0  0  0  0  0  0
   29.8066   36.6208   82.4871 O   0  0  0  0  0  0
   17.3501   39.0210   84.4870 O   0  0  0  0  0  0
   18.7442   36.6218   86.8778 C   0  0  0  0  0  0
   20.0989   36.6864   86.5481 C   0  0  0  0  0  0
   17.8255   37.4210   86.1963 C   0  0  0  0  0  0
   23.6673   36.6399   83.6367 H   0  0  0  0  0  0
   22.4510   36.8295   85.6748 H   0  0  0  0  0  0
   28.8447   38.5537   84.0068 H   0  0  0  0  0  0
   27.8692   34.9713   81.8673 H   0  0  0  0  0  0
   25.8460   40.7900   86.0891 H   0  0  0  0  0  0
   19.9219   39.0020   84.0607 H   0  0  0  0  0  0
   24.4219   35.2103   82.6144 H   0  0  0  0  0  0
   29.9475   35.8431   81.9405 H   0  0  0  0  0  0
   16.6509   39.3087   85.0986 H   0  0  0  0  0  0
   18.4064   35.9519   87.6554 H   0  0  0  0  0  0
   20.8002   36.0631   87.0833 H   0  0  0  0  0  0
   16.7770   37.3729   86.4529 H   0  0  0  0  0  0
  1  2  1  0  0  0
  1  3  2  0  0  0
  1  5  1  0  0  0
  2  7  1  0  0  0
  2 12  2  0  0  0
  3  4  1  0  0  0
  3 24  1  0  0  0
  4  6  1  0  0  0
  4  8  2  0  0  0
  5  9  1  0  0  0
  5 14  2  0  0  0
  6 10  2  0  0  0
  6  7  1  0  0  0
  8 11  1  0  0  0
  8 17  1  0  0  0
  9 15  1  0  0  0
  9 25  1  0  0  0
 10 13  1  0  0  0
 10 26  1  0  0  0
 11 13  2  0  0  0
 11 27  1  0  0  0
 12 28  1  0  0  0
 13 19  1  0  0  0
 15 16  1  0  0  0
 15 22  2  0  0  0
 16 18  2  0  0  0
 16 29  1  0  0  0
 17 30  1  0  0  0
 18 20  1  0  0  0
 18 23  1  0  0  0
 19 31  1  0  0  0
 20 32  1  0  0  0
 21 22  1  0  0  0
 21 23  2  0  0  0
 21 33  1  0  0  0
 22 34  1  0  0  0
 23 35  1  0  0  0
M  END
> <s_m_entry_id>
4737

> <s_m_entry_name>
dock_pv.225

> <s_m_Source_Path>
/home/csk/Desktop/cluster/DUD-E-result/lck

> <s_m_Source_File>
dock_pv.maegz

> <i_m_Source_File_Index>
225

> <chembl_id>
CHEMBL309385

> <chembl_pref_name>
None

> <i_lp_mmshare_version>
53161

> <i_f3d_flags>
0

> <r_lp_tautomer_probability>
0.999999999997365

> <s_lp_Force_Field>
OPLS_2005

> <r_lp_Energy>
38.585261

> <b_lp_Chiralities_Consistent>
1

> <s_lp_Variant>
CHEMBL258_lig181-1

> <s_i_glide_gridfile>
glide-grid_2of2

> <i_i_glide_lignum>
209

> <i_i_glide_rotatable_bonds>
6

> <r_i_docking_score>
-7.10424942489945

> <r_i_glide_ligand_efficiency>
-0.308880409778237

> <r_i_glide_ligand_efficiency_sa>
-0.878414797173261

> <r_i_glide_ligand_efficiency_ln>
-1.71787192871295

> <r_i_glide_gscore>
-7.10424942489945

> <r_i_glide_lipo>
-2.59622017786316

> <r_i_glide_hbond>
-0.582119935204888

> <r_i_glide_metal>
0

> <r_i_glide_rewards>
-1.69571993912585

> <r_i_glide_evdw>
-35.1147537231445

> <r_i_glide_ecoul>
-6.96899795532227

> <r_i_glide_erotb>
0.570898006750008

> <r_i_glide_esite>
0

> <r_i_glide_emodel>
-58.2704909894012

> <r_i_glide_energy>
-42.0837516784668

> <r_i_glide_einternal>
4.12884140014648

> <i_i_glide_confnum>
7

> <i_i_glide_posenum>
51

> <r_i_glide_eff_state_penalty>
0

> <s_user_duplicate_titles>
CHEMBL258_lig181

> <s_m_subgroup_title>
dock_pv

> <s_m_subgroupid>
dock_pv

> <b_m_subgroup_collapsed>
1

$$$$
CHEMBL258_lig232
                    3D
 Schrodinger Suite 2021-1.
 35 38  0  0  1  0            999 V2000
   22.4636   37.0832   84.3959 C   0  0  0  0  0  0
   23.5149   36.4721   83.6905 C   0  0  0  0  0  0
   24.7893   37.0099   83.8981 N   0  0  0  0  0  0
   22.6680   38.1537   85.2081 N   0  0  0  0  0  0
   23.9212   38.6678   85.3490 C   0  0  0  0  0  0
   25.0370   38.0762   84.6919 C   0  0  0  0  0  0
   21.1572   36.6211   84.2107 N   0  0  0  0  0  0
   25.0070   35.2993   82.4787 N   0  0  0  0  0  0
   20.0241   36.8477   85.0129 C   0  0  0  0  0  0
   25.6450   36.2428   83.1363 C   0  0  0  0  0  0
   23.7290   35.4213   82.7632 C   0  0  0  0  0  0
   24.1371   39.8016   86.1792 C   0  0  0  0  0  0
   18.9445   37.5911   84.5007 C   0  0  0  0  0  0
   19.9348   36.2994   86.3108 C   0  0  0  0  0  0
   23.1066   40.3953   86.8274 F   0  0  0  0  0  0
   18.9459   38.2209   82.8875 Cl  0  0  0  0  0  0
   26.3415   38.6086   84.8798 C   0  0  0  0  0  0
   26.5156   39.7142   85.7075 C   0  0  0  0  0  0
   17.7475   37.3136   86.5806 C   0  0  0  0  0  0
   25.4271   40.3040   86.3453 C   0  0  0  0  0  0
   17.8185   37.8225   85.2896 C   0  0  0  0  0  0
   18.7903   36.5388   87.0783 C   0  0  0  0  0  0
   21.0121   35.3703   86.8715 C   0  0  0  0  0  0
   21.0735   35.8314   83.5891 H   0  0  0  0  0  0
   26.7087   36.4212   83.0944 H   0  0  0  0  0  0
   22.9971   34.7546   82.3298 H   0  0  0  0  0  0
   27.1983   38.1690   84.3892 H   0  0  0  0  0  0
   27.5045   40.1235   85.8553 H   0  0  0  0  0  0
   16.8696   37.4992   87.1831 H   0  0  0  0  0  0
   25.5822   41.1620   86.9809 H   0  0  0  0  0  0
   16.9926   38.4053   84.9046 H   0  0  0  0  0  0
   18.6958   36.1093   88.0650 H   0  0  0  0  0  0
   21.8744   35.9442   87.2133 H   0  0  0  0  0  0
   20.6495   34.7355   87.6864 H   0  0  0  0  0  0
   21.3499   34.6864   86.0899 H   0  0  0  0  0  0
  1  2  1  0  0  0
  1  4  2  0  0  0
  1  7  1  0  0  0
  2  3  1  0  0  0
  2 11  2  0  0  0
  3 10  1  0  0  0
  3  6  1  0  0  0
  4  5  1  0  0  0
  5  6  1  0  0  0
  5 12  2  0  0  0
  6 17  2  0  0  0
  7  9  1  0  0  0
  7 24  1  0  0  0
  8 11  1  0  0  0
  8 10  2  0  0  0
  9 13  2  0  0  0
  9 14  1  0  0  0
 10 25  1  0  0  0
 11 26  1  0  0  0
 12 15  1  0  0  0
 12 20  1  0  0  0
 13 16  1  0  0  0
 13 21  1  0  0  0
 14 22  2  0  0  0
 14 23  1  0  0  0
 17 18  1  0  0  0
 17 27  1  0  0  0
 18 20  2  0  0  0
 18 28  1  0  0  0
 19 22  1  0  0  0
 19 21  2  0  0  0
 19 29  1  0  0  0
 20 30  1  0  0  0
 21 31  1  0  0  0
 22 32  1  0  0  0
 23 33  1  0  0  0
 23 34  1  0  0  0
 23 35  1  0  0  0
M  END
> <s_m_entry_id>
4738

> <s_m_entry_name>
dock_pv.226

> <s_m_Source_Path>
/home/csk/Desktop/cluster/DUD-E-result/lck

> <s_m_Source_File>
dock_pv.maegz

> <i_m_Source_File_Index>
226

> <chembl_id>
CHEMBL316425

> <chembl_pref_name>
None

> <i_lp_mmshare_version>
53161

> <i_f3d_flags>
0

> <r_lp_tautomer_probability>
1

> <s_lp_Force_Field>
OPLS_2005

> <r_lp_Energy>
59.431558

> <b_lp_Chiralities_Consistent>
1

> <s_lp_Variant>
CHEMBL258_lig232-1

> <s_i_glide_gridfile>
glide-grid_2of2

> <i_i_glide_lignum>
260

> <i_i_glide_rotatable_bonds>
2

> <r_i_docking_score>
-7.10389741774301

> <r_i_glide_ligand_efficiency>
-0.308865105119261

> <r_i_glide_ligand_efficiency_sa>
-0.878371272759008

> <r_i_glide_ligand_efficiency_ln>
-1.7177868101907

> <r_i_glide_gscore>
-7.10389741774301

> <r_i_glide_lipo>
-2.56666220746332

> <r_i_glide_hbond>
-0.0240113859500556

> <r_i_glide_metal>
0

> <r_i_glide_rewards>
-2.80636532752074

> <r_i_glide_evdw>
-34.340705871582

> <r_i_glide_ecoul>
-2.27478504180908

> <r_i_glide_erotb>
0.351394553041561

> <r_i_glide_esite>
0

> <r_i_glide_emodel>
-51.5029589461273

> <r_i_glide_energy>
-36.6154909133911

> <r_i_glide_einternal>
1.37973308563232

> <i_i_glide_confnum>
2

> <i_i_glide_posenum>
73

> <r_i_glide_eff_state_penalty>
0

> <s_user_duplicate_titles>
CHEMBL258_lig232,137374

> <s_m_subgroup_title>
dock_pv

> <s_m_subgroupid>
dock_pv

> <b_m_subgroup_collapsed>
1

$$$$
CHEMBL258_lig442
                    3D
 Schrodinger Suite 2021-1.
 35 38  0  0  1  0            999 V2000
   23.4862   36.4602   83.6878 C   0  0  0  0  0  0
   22.4409   37.0742   84.4013 C   0  0  0  0  0  0
   24.7655   36.9874   83.8917 N   0  0  0  0  0  0
   22.6544   38.1418   85.2153 N   0  0  0  0  0  0
   25.0232   38.0477   84.6889 C   0  0  0  0  0  0
   21.1311   36.6210   84.2176 N   0  0  0  0  0  0
   23.9112   38.6431   85.3457 C   0  0  0  0  0  0
   24.9642   35.3003   82.4410 N   0  0  0  0  0  0
   19.9977   36.8536   85.0178 C   0  0  0  0  0  0
   25.6132   36.2244   83.1174 C   0  0  0  0  0  0
   23.6893   35.4210   82.7451 C   0  0  0  0  0  0
   26.3296   38.5758   84.8812 C   0  0  0  0  0  0
   18.9215   37.5979   84.5013 C   0  0  0  0  0  0
   19.9037   36.3112   86.3182 C   0  0  0  0  0  0
   24.1246   39.7757   86.1653 C   0  0  0  0  0  0
   26.5045   39.6818   85.7101 C   0  0  0  0  0  0
   18.9299   38.2210   82.8868 Cl  0  0  0  0  0  0
   25.4143   40.2782   86.3401 C   0  0  0  0  0  0
   27.7448   40.1824   85.9029 F   0  0  0  0  0  0
   17.7171   37.3299   86.5781 C   0  0  0  0  0  0
   17.7928   37.8340   85.2847 C   0  0  0  0  0  0
   18.7578   36.5563   87.0825 C   0  0  0  0  0  0
   20.9781   35.3839   86.8868 C   0  0  0  0  0  0
   21.0421   35.8333   83.5950 H   0  0  0  0  0  0
   26.6767   36.3996   83.0702 H   0  0  0  0  0  0
   22.9502   34.7662   82.3059 H   0  0  0  0  0  0
   27.1879   38.1347   84.3964 H   0  0  0  0  0  0
   23.2800   40.2358   86.6588 H   0  0  0  0  0  0
   25.5744   41.1392   86.9719 H   0  0  0  0  0  0
   16.8388   37.5219   87.1777 H   0  0  0  0  0  0
   16.9696   38.4153   84.8936 H   0  0  0  0  0  0
   18.6608   36.1345   88.0721 H   0  0  0  0  0  0
   21.8194   35.9606   87.2695 H   0  0  0  0  0  0
   20.5952   34.7312   87.6768 H   0  0  0  0  0  0
   21.3498   34.7132   86.1121 H   0  0  0  0  0  0
  1  2  1  0  0  0
  1  3  1  0  0  0
  1 11  2  0  0  0
  2  4  2  0  0  0
  2  6  1  0  0  0
  3  5  1  0  0  0
  3 10  1  0  0  0
  4  7  1  0  0  0
  5  7  1  0  0  0
  5 12  2  0  0  0
  6  9  1  0  0  0
  6 24  1  0  0  0
  7 15  2  0  0  0
  8 11  1  0  0  0
  8 10  2  0  0  0
  9 13  1  0  0  0
  9 14  2  0  0  0
 10 25  1  0  0  0
 11 26  1  0  0  0
 12 16  1  0  0  0
 12 27  1  0  0  0
 13 17  1  0  0  0
 13 21  2  0  0  0
 14 22  1  0  0  0
 14 23  1  0  0  0
 15 18  1  0  0  0
 15 28  1  0  0  0
 16 18  2  0  0  0
 16 19  1  0  0  0
 18 29  1  0  0  0
 20 22  2  0  0  0
 20 21  1  0  0  0
 20 30  1  0  0  0
 21 31  1  0  0  0
 22 32  1  0  0  0
 23 33  1  0  0  0
 23 34  1  0  0  0
 23 35  1  0  0  0
M  END
> <s_m_entry_id>
4739

> <s_m_entry_name>
dock_pv.227

> <s_m_Source_Path>
/home/csk/Desktop/cluster/DUD-E-result/lck

> <s_m_Source_File>
dock_pv.maegz

> <i_m_Source_File_Index>
227

> <chembl_id>
CHEMBL322745

> <chembl_pref_name>
None

> <i_lp_mmshare_version>
53161

> <i_f3d_flags>
0

> <r_lp_tautomer_probability>
1

> <s_lp_Force_Field>
OPLS_2005

> <r_lp_Energy>
57.371311

> <b_lp_Chiralities_Consistent>
1

> <s_lp_Variant>
CHEMBL258_lig442-1

> <s_i_glide_gridfile>
glide-grid_2of2

> <i_i_glide_lignum>
489

> <i_i_glide_rotatable_bonds>
2

> <r_i_docking_score>
-7.10247162382802

> <r_i_glide_ligand_efficiency>
-0.308803114079479

> <r_i_glide_ligand_efficiency_sa>
-0.878194978488108

> <r_i_glide_ligand_efficiency_ln>
-1.71744204029367

> <r_i_glide_gscore>
-7.10247162382802

> <r_i_glide_lipo>
-2.56629993124914

> <r_i_glide_hbond>
-0.047339818386273

> <r_i_glide_metal>
0

> <r_i_glide_rewards>
-2.81732781282758

> <r_i_glide_evdw>
-34.4166870117188

> <r_i_glide_ecoul>
-2.01376175880432

> <r_i_glide_erotb>
0.351394553041561

> <r_i_glide_esite>
0

> <r_i_glide_emodel>
-50.9274590177612

> <r_i_glide_energy>
-36.4304487705231

> <r_i_glide_einternal>
1.33476448059082

> <i_i_glide_confnum>
2

> <i_i_glide_posenum>
236

> <r_i_glide_eff_state_penalty>
0

> <s_user_duplicate_titles>
CHEMBL258_lig442,176292

> <s_m_subgroup_title>
dock_pv

> <s_m_subgroupid>
dock_pv

> <b_m_subgroup_collapsed>
1

$$$$
CHEMBL258_lig1064
                    3D
 Schrodinger Suite 2021-1.
 39 41  0  0  1  0            999 V2000
   26.7050   36.7339   83.1389 C   0  0  0  0  0  0
   25.4441   35.9741   82.9020 C   0  0  0  0  0  0
   24.3981   37.5858   84.4432 C   0  0  0  0  0  0
   24.3205   36.4675   83.6866 C   0  0  0  0  0  0
   26.6892   37.8614   83.9752 C   0  0  0  0  0  0
   25.5405   38.3063   84.5914 O   0  0  0  0  0  0
   27.9287   36.3308   82.5798 C   0  0  0  0  0  0
   27.8523   38.5813   84.2401 C   0  0  0  0  0  0
   29.1036   37.0241   82.8870 C   0  0  0  0  0  0
   23.2854   38.1567   85.2442 C   0  0  0  0  0  0
   29.0640   38.1579   83.7002 C   0  0  0  0  0  0
   25.3659   35.0192   82.1300 O   0  0  0  0  0  0
   23.2299   39.5288   85.5183 C   0  0  0  0  0  0
   22.2463   37.3451   85.7086 C   0  0  0  0  0  0
   21.1447   39.2482   86.7055 C   0  0  0  0  0  0
   22.1677   40.0890   86.2452 C   0  0  0  0  0  0
   21.1708   37.8746   86.4353 C   0  0  0  0  0  0
   22.0557   41.4368   86.5318 O   0  0  0  0  0  0
   22.9972   42.3581   85.9881 C   0  0  0  0  0  0
   20.1127   37.1114   86.8927 O   0  0  0  0  0  0
   20.1497   35.6968   86.7392 C   0  0  0  0  0  0
   20.1122   39.7789   87.4441 O   0  0  0  0  0  0
   19.0255   40.2454   86.6571 C   0  0  0  0  0  0
   23.3862   35.9353   83.6034 H   0  0  0  0  0  0
   27.9883   35.4609   81.9373 H   0  0  0  0  0  0
   27.8131   39.4499   84.8790 H   0  0  0  0  0  0
   30.0457   36.6962   82.4753 H   0  0  0  0  0  0
   29.9705   38.7014   83.9208 H   0  0  0  0  0  0
   24.0244   40.1619   85.1533 H   0  0  0  0  0  0
   22.2809   36.2881   85.4983 H   0  0  0  0  0  0
   22.7076   43.3706   86.2712 H   0  0  0  0  0  0
   24.0013   42.1799   86.3754 H   0  0  0  0  0  0
   23.0208   42.3183   84.8976 H   0  0  0  0  0  0
   19.2595   35.2597   87.1908 H   0  0  0  0  0  0
   21.0175   35.2555   87.2314 H   0  0  0  0  0  0
   20.1630   35.4212   85.6894 H   0  0  0  0  0  0
   18.2627   40.6822   87.2993 H   0  0  0  0  0  0
   19.3526   41.0207   85.9623 H   0  0  0  0  0  0
   18.5612   39.4370   86.0883 H   0  0  0  0  0  0
  1  2  1  0  0  0
  1  5  2  0  0  0
  1  7  1  0  0  0
  2  4  1  0  0  0
  2 12  2  0  0  0
  3  6  1  0  0  0
  3 10  1  0  0  0
  3  4  2  0  0  0
  4 24  1  0  0  0
  5  6  1  0  0  0
  5  8  1  0  0  0
  7  9  2  0  0  0
  7 25  1  0  0  0
  8 11  2  0  0  0
  8 26  1  0  0  0
  9 11  1  0  0  0
  9 27  1  0  0  0
 10 13  1  0  0  0
 10 14  2  0  0  0
 11 28  1  0  0  0
 13 16  2  0  0  0
 13 29  1  0  0  0
 14 17  1  0  0  0
 14 30  1  0  0  0
 15 17  2  0  0  0
 15 16  1  0  0  0
 15 22  1  0  0  0
 16 18  1  0  0  0
 17 20  1  0  0  0
 18 19  1  0  0  0
 19 31  1  0  0  0
 19 32  1  0  0  0
 19 33  1  0  0  0
 20 21  1  0  0  0
 21 34  1  0  0  0
 21 35  1  0  0  0
 21 36  1  0  0  0
 22 23  1  0  0  0
 23 37  1  0  0  0
 23 38  1  0  0  0
 23 39  1  0  0  0
M  END
> <s_m_entry_id>
4740

> <s_m_entry_name>
dock_pv.228

> <s_m_Source_Path>
/home/csk/Desktop/cluster/DUD-E-result/lck

> <s_m_Source_File>
dock_pv.maegz

> <i_m_Source_File_Index>
228

> <chembl_id>
CHEMBL307856

> <chembl_pref_name>
None

> <i_lp_mmshare_version>
53161

> <i_f3d_flags>
0

> <r_lp_tautomer_probability>
1

> <s_lp_Force_Field>
OPLS_2005

> <r_lp_Energy>
28.162025

> <b_lp_Chiralities_Consistent>
1

> <s_lp_Variant>
CHEMBL258_lig1064-1

> <s_i_glide_gridfile>
glide-grid_2of2

> <i_i_glide_lignum>
1152

> <i_i_glide_rotatable_bonds>
4

> <r_i_docking_score>
-7.10122618866703

> <r_i_glide_ligand_efficiency>
-0.308748964724654

> <r_i_glide_ligand_efficiency_sa>
-0.8780409849261

> <r_i_glide_ligand_efficiency_ln>
-1.71714088277876

> <r_i_glide_gscore>
-7.10122618866703

> <r_i_glide_lipo>
-2.56234186842845

> <r_i_glide_hbond>
-0.32

> <r_i_glide_metal>
0

> <r_i_glide_rewards>
-1.82132593939394

> <r_i_glide_evdw>
-32.2216415405273

> <r_i_glide_ecoul>
-6.51155376434326

> <r_i_glide_erotb>
0.190256760833214

> <r_i_glide_esite>
0

> <r_i_glide_emodel>
-54.9554491143293

> <r_i_glide_energy>
-38.7331953048706

> <r_i_glide_einternal>
0.78666615486145

> <i_i_glide_confnum>
2

> <i_i_glide_posenum>
17

> <r_i_glide_eff_state_penalty>
0

> <s_user_duplicate_titles>
CHEMBL258_lig1064

> <s_m_subgroup_title>
dock_pv

> <s_m_subgroupid>
dock_pv

> <b_m_subgroup_collapsed>
1

$$$$
CHEMBL258_lig800
                    3D
 Schrodinger Suite 2021-1.
 35 37  0  0  1  0            999 V2000
   19.9300   36.7709   85.2720 C   0  0  0  0  0  0
   19.7812   36.0657   86.4869 C   0  0  0  0  0  0
   18.6285   36.2550   87.2579 C   0  0  0  0  0  0
   17.6347   37.1367   86.8379 C   0  0  0  0  0  0
   17.7624   37.8041   85.6206 C   0  0  0  0  0  0
   18.8914   37.6087   84.8252 C   0  0  0  0  0  0
   20.8008   35.0212   86.9371 C   0  0  0  0  0  0
   21.0900   36.6256   84.4833 N   0  0  0  0  0  0
   22.3277   36.9867   84.8870 C   0  0  0  0  0  0
   22.5512   37.6094   85.9275 O   0  0  0  0  0  0
   23.4002   36.5563   84.0210 C   0  0  0  0  0  0
   23.3988   35.6738   82.9329 C   0  0  0  0  0  0
   24.5674   35.4208   82.3742 N   0  0  0  0  0  0
   25.5498   36.0814   82.9340 C   0  0  0  0  0  0
   25.0502   37.0746   84.2804 S   0  0  0  0  0  0
   26.8492   35.9477   82.4871 N   0  0  0  0  0  0
   18.9519   38.4028   83.2878 Cl  0  0  0  0  0  0
   28.0410   36.6209   82.8098 C   0  0  0  0  0  0
   28.0394   37.7303   83.6027 N   0  0  0  0  0  0
   29.1801   38.3969   83.8500 N   0  0  0  0  0  0
   30.3449   37.9659   83.2997 C   0  0  0  0  0  0
   30.4106   36.8358   82.4870 C   0  0  0  0  0  0
   29.2262   36.1449   82.2408 C   0  0  0  0  0  0
   18.4924   35.7061   88.1778 H   0  0  0  0  0  0
   16.7508   37.2873   87.4416 H   0  0  0  0  0  0
   16.9714   38.4586   85.2844 H   0  0  0  0  0  0
   21.1683   34.4462   86.0879 H   0  0  0  0  0  0
   21.6640   35.4888   87.4105 H   0  0  0  0  0  0
   20.3631   34.2960   87.6244 H   0  0  0  0  0  0
   20.9711   36.1930   83.5818 H   0  0  0  0  0  0
   22.5318   35.1632   82.5354 H   0  0  0  0  0  0
   27.0282   35.2421   81.7872 H   0  0  0  0  0  0
   31.2305   38.5396   83.5302 H   0  0  0  0  0  0
   31.3461   36.5016   82.0597 H   0  0  0  0  0  0
   29.2358   35.2683   81.6073 H   0  0  0  0  0  0
  1  6  2  0  0  0
  1  2  1  0  0  0
  1  8  1  0  0  0
  2  7  1  0  0  0
  2  3  2  0  0  0
  3  4  1  0  0  0
  3 24  1  0  0  0
  4  5  2  0  0  0
  4 25  1  0  0  0
  5  6  1  0  0  0
  5 26  1  0  0  0
  6 17  1  0  0  0
  7 27  1  0  0  0
  7 28  1  0  0  0
  7 29  1  0  0  0
  8  9  1  0  0  0
  8 30  1  0  0  0
  9 10  2  0  0  0
  9 11  1  0  0  0
 11 12  2  0  0  0
 11 15  1  0  0  0
 12 13  1  0  0  0
 12 31  1  0  0  0
 13 14  2  0  0  0
 14 15  1  0  0  0
 14 16  1  0  0  0
 16 18  1  0  0  0
 16 32  1  0  0  0
 18 19  2  0  0  0
 18 23  1  0  0  0
 19 20  1  0  0  0
 20 21  2  0  0  0
 21 22  1  0  0  0
 21 33  1  0  0  0
 22 23  2  0  0  0
 22 34  1  0  0  0
 23 35  1  0  0  0
M  END
> <s_m_entry_id>
4741

> <s_m_entry_name>
dock_pv.229

> <s_m_Source_Path>
/home/csk/Desktop/cluster/DUD-E-result/lck

> <s_m_Source_File>
dock_pv.maegz

> <i_m_Source_File_Index>
229

> <chembl_id>
CHEMBL407005

> <chembl_pref_name>
None

> <i_lp_mmshare_version>
53161

> <i_f3d_flags>
0

> <r_lp_tautomer_probability>
0.999978240473126

> <s_lp_Force_Field>
OPLS_2005

> <r_lp_Energy>
23.179345

> <b_lp_Chiralities_Consistent>
1

> <s_lp_Variant>
CHEMBL258_lig800-1

> <s_i_glide_gridfile>
glide-grid_2of2

> <i_i_glide_lignum>
885

> <i_i_glide_rotatable_bonds>
5

> <r_i_docking_score>
-7.09082190701935

> <r_i_glide_ligand_efficiency>
-0.308296604653015

> <r_i_glide_ligand_efficiency_sa>
-0.87675453305671

> <r_i_glide_ligand_efficiency_ln>
-1.71462503313554

> <r_i_glide_gscore>
-7.09082190701935

> <r_i_glide_lipo>
-2.75994499832967

> <r_i_glide_hbond>
-0.105288161292556

> <r_i_glide_metal>
0

> <r_i_glide_rewards>
-2.22034969763001

> <r_i_glide_evdw>
-40.3814964294434

> <r_i_glide_ecoul>
-5.2051682472229

> <r_i_glide_erotb>
0.794611008788482

> <r_i_glide_esite>
0

> <r_i_glide_emodel>
-61.8943322315564

> <r_i_glide_energy>
-45.5866646766663

> <r_i_glide_einternal>
5.38561725616455

> <i_i_glide_confnum>
20

> <i_i_glide_posenum>
35

> <r_i_glide_eff_state_penalty>
0

> <s_user_duplicate_titles>
CHEMBL258_lig800,361460

> <s_m_subgroup_title>
dock_pv

> <s_m_subgroupid>
dock_pv

> <b_m_subgroup_collapsed>
1

$$$$
CHEMBL258_lig1203
                    3D
 Schrodinger Suite 2021-1.
 38 41  0  0  1  0            999 V2000
   24.8915   38.8575   84.4906 C   0  0  0  0  0  0
   23.8684   39.4537   85.2327 C   0  0  0  0  0  0
   22.8158   38.7502   85.7243 N   0  0  0  0  0  0
   22.7952   37.4155   85.4592 C   0  0  0  0  0  0
   23.7397   36.7542   84.7486 N   0  0  0  0  0  0
   24.7872   37.4794   84.2629 C   0  0  0  0  0  0
   25.7498   36.7528   83.5211 N   0  0  0  0  0  0
   21.7296   36.6213   85.9063 N   0  0  0  0  0  0
   26.5157   35.0468   82.2375 N   0  0  0  0  0  0
   25.4952   35.5676   82.8522 C   0  0  0  0  0  0
   20.4714   37.1971   86.3805 C   0  0  0  0  0  0
   19.4986   37.5821   85.2611 C   0  0  0  0  0  0
   18.1655   37.8236   85.6023 C   0  0  0  0  0  0
   17.2544   38.2162   84.6248 C   0  0  0  0  0  0
   17.6602   38.3525   83.3060 C   0  0  0  0  0  0
   18.9809   38.1272   82.9579 C   0  0  0  0  0  0
   19.9017   37.7487   83.9277 C   0  0  0  0  0  0
   27.5361   35.9217   82.4871 C   0  0  0  0  0  0
   27.0981   37.0211   83.2839 C   0  0  0  0  0  0
   27.9977   38.0164   83.6981 C   0  0  0  0  0  0
   29.3281   37.8834   83.2876 C   0  0  0  0  0  0
   29.7582   36.8215   82.4879 C   0  0  0  0  0  0
   28.8781   35.8216   82.0878 C   0  0  0  0  0  0
   25.6884   39.4570   84.0853 H   0  0  0  0  0  0
   23.8712   40.5159   85.4310 H   0  0  0  0  0  0
   21.7234   35.6470   85.6355 H   0  0  0  0  0  0
   24.4995   35.1442   82.8661 H   0  0  0  0  0  0
   20.6588   38.0774   86.9979 H   0  0  0  0  0  0
   19.9908   36.4632   87.0290 H   0  0  0  0  0  0
   17.8314   37.7244   86.6257 H   0  0  0  0  0  0
   16.2233   38.4049   84.8874 H   0  0  0  0  0  0
   16.9500   38.6389   82.5472 H   0  0  0  0  0  0
   19.2940   38.2211   81.9289 H   0  0  0  0  0  0
   20.9221   37.5774   83.6232 H   0  0  0  0  0  0
   27.7114   38.8323   84.3411 H   0  0  0  0  0  0
   30.0511   38.6240   83.5994 H   0  0  0  0  0  0
   30.7962   36.7640   82.1918 H   0  0  0  0  0  0
   29.2180   34.9905   81.4841 H   0  0  0  0  0  0
  1  6  1  0  0  0
  1  2  2  0  0  0
  1 24  1  0  0  0
  2  3  1  0  0  0
  2 25  1  0  0  0
  3  4  2  0  0  0
  4  8  1  0  0  0
  4  5  1  0  0  0
  5  6  2  0  0  0
  6  7  1  0  0  0
  7 19  1  0  0  0
  7 10  1  0  0  0
  8 11  1  0  0  0
  8 26  1  0  0  0
  9 18  1  0  0  0
  9 10  2  0  0  0
 10 27  1  0  0  0
 11 12  1  0  0  0
 11 28  1  0  0  0
 11 29  1  0  0  0
 12 13  2  0  0  0
 12 17  1  0  0  0
 13 14  1  0  0  0
 13 30  1  0  0  0
 14 15  2  0  0  0
 14 31  1  0  0  0
 15 16  1  0  0  0
 15 32  1  0  0  0
 16 17  2  0  0  0
 16 33  1  0  0  0
 17 34  1  0  0  0
 18 19  2  0  0  0
 18 23  1  0  0  0
 19 20  1  0  0  0
 20 21  2  0  0  0
 20 35  1  0  0  0
 21 22  1  0  0  0
 21 36  1  0  0  0
 22 23  2  0  0  0
 22 37  1  0  0  0
 23 38  1  0  0  0
M  END
> <s_m_entry_id>
4742

> <s_m_entry_name>
dock_pv.230

> <s_m_Source_Path>
/home/csk/Desktop/cluster/DUD-E-result/lck

> <s_m_Source_File>
dock_pv.maegz

> <i_m_Source_File_Index>
230

> <chembl_id>
CHEMBL568100

> <chembl_pref_name>
None

> <i_lp_mmshare_version>
53161

> <i_f3d_flags>
0

> <r_lp_tautomer_probability>
1

> <s_lp_Force_Field>
OPLS_2005

> <r_lp_Energy>
8.359188

> <b_lp_Chiralities_Consistent>
1

> <s_lp_Variant>
CHEMBL258_lig1203-1

> <s_i_glide_gridfile>
glide-grid_2of2

> <i_i_glide_lignum>
1292

> <i_i_glide_rotatable_bonds>
4

> <r_i_docking_score>
-7.07851860454526

> <r_i_glide_ligand_efficiency>
-0.30776167845849

> <r_i_glide_ligand_efficiency_sa>
-0.875233274117031

> <r_i_glide_ligand_efficiency_ln>
-1.71164998303713

> <r_i_glide_gscore>
-7.07851860454526

> <r_i_glide_lipo>
-2.23343345680327

> <r_i_glide_hbond>
-0.0979285033668206

> <r_i_glide_metal>
0

> <r_i_glide_rewards>
-3.45813444489317

> <r_i_glide_evdw>
-34.5011558532715

> <r_i_glide_ecoul>
-2.49506974220276

> <r_i_glide_erotb>
0.810296054511979

> <r_i_glide_esite>
0

> <r_i_glide_emodel>
-51.2906074382627

> <r_i_glide_energy>
-36.9962255954742

> <r_i_glide_einternal>
4.6971549987793

> <i_i_glide_confnum>
2

> <i_i_glide_posenum>
204

> <r_i_glide_eff_state_penalty>
0

> <s_user_duplicate_titles>
CHEMBL258_lig1203,580641

> <s_m_subgroup_title>
dock_pv

> <s_m_subgroupid>
dock_pv

> <b_m_subgroup_collapsed>
1

$$$$
CHEMBL258_lig292
                    3D
 Schrodinger Suite 2021-1.
 37 39  0  0  1  0            999 V2000
   25.1795   37.1776   83.8918 C   0  0  0  0  0  0
   23.7729   37.0425   84.1197 C   0  0  0  0  0  0
   25.7366   36.3153   82.8994 C   0  0  0  0  0  0
   26.0330   38.0988   84.5575 C   0  0  0  0  0  0
   23.0169   36.1639   83.4165 N   0  0  0  0  0  0
   27.1134   36.3927   82.6096 C   0  0  0  0  0  0
   23.0970   37.8650   85.0439 N   0  0  0  0  0  0
   27.4035   38.1549   84.2543 C   0  0  0  0  0  0
   27.9468   37.2972   83.2869 C   0  0  0  0  0  0
   24.9744   35.4212   82.2057 N   0  0  0  0  0  0
   23.6509   35.4205   82.4872 C   0  0  0  0  0  0
   21.7531   37.8389   85.4594 C   0  0  0  0  0  0
   19.0734   37.8374   86.2417 C   0  0  0  0  0  0
   28.2830   39.0207   84.8821 O   0  0  0  0  0  0
   29.3106   37.3747   83.0642 O   0  0  0  0  0  0
   21.0643   39.0496   85.6089 C   0  0  0  0  0  0
   21.1013   36.6294   85.7359 C   0  0  0  0  0  0
   19.7638   36.6303   86.1272 C   0  0  0  0  0  0
   19.7216   39.0480   85.9931 C   0  0  0  0  0  0
   17.7498   37.8212   86.5985 O   0  0  0  0  0  0
   29.9452   36.4082   82.2263 C   0  0  0  0  0  0
   27.8276   39.8518   85.9454 C   0  0  0  0  0  0
   25.6083   38.7501   85.3038 H   0  0  0  0  0  0
   27.5038   35.7312   81.8491 H   0  0  0  0  0  0
   23.6585   38.5920   85.4592 H   0  0  0  0  0  0
   23.0371   34.7215   81.9376 H   0  0  0  0  0  0
   21.5604   39.9897   85.4076 H   0  0  0  0  0  0
   21.6209   35.6846   85.6347 H   0  0  0  0  0  0
   19.2665   35.6926   86.3284 H   0  0  0  0  0  0
   19.1877   39.9842   86.0895 H   0  0  0  0  0  0
   17.2905   38.6692   86.4956 H   0  0  0  0  0  0
   31.0179   36.6019   82.2094 H   0  0  0  0  0  0
   29.8010   35.3934   82.6060 H   0  0  0  0  0  0
   29.5876   36.4537   81.1972 H   0  0  0  0  0  0
   28.6630   40.4314   86.3305 H   0  0  0  0  0  0
   27.4309   39.2569   86.7701 H   0  0  0  0  0  0
   27.0640   40.5551   85.6081 H   0  0  0  0  0  0
  1  2  1  0  0  0
  1  3  1  0  0  0
  1  4  2  0  0  0
  2  5  2  0  0  0
  2  7  1  0  0  0
  3  6  2  0  0  0
  3 10  1  0  0  0
  4  8  1  0  0  0
  4 23  1  0  0  0
  5 11  1  0  0  0
  6  9  1  0  0  0
  6 24  1  0  0  0
  7 12  1  0  0  0
  7 25  1  0  0  0
  8  9  2  0  0  0
  8 14  1  0  0  0
  9 15  1  0  0  0
 10 11  2  0  0  0
 11 26  1  0  0  0
 12 16  1  0  0  0
 12 17  2  0  0  0
 13 18  2  0  0  0
 13 19  1  0  0  0
 13 20  1  0  0  0
 14 22  1  0  0  0
 15 21  1  0  0  0
 16 19  2  0  0  0
 16 27  1  0  0  0
 17 18  1  0  0  0
 17 28  1  0  0  0
 18 29  1  0  0  0
 19 30  1  0  0  0
 20 31  1  0  0  0
 21 32  1  0  0  0
 21 33  1  0  0  0
 21 34  1  0  0  0
 22 35  1  0  0  0
 22 36  1  0  0  0
 22 37  1  0  0  0
M  END
> <s_m_entry_id>
4743

> <s_m_entry_name>
dock_pv.231

> <s_m_Source_Path>
/home/csk/Desktop/cluster/DUD-E-result/lck

> <s_m_Source_File>
dock_pv.maegz

> <i_m_Source_File_Index>
231

> <chembl_id>
CHEMBL555201

> <chembl_pref_name>
None

> <i_lp_mmshare_version>
53161

> <i_f3d_flags>
0

> <r_lp_tautomer_probability>
0.999978000241998

> <s_lp_Force_Field>
OPLS_2005

> <r_lp_Energy>
20.752818

> <b_lp_Chiralities_Consistent>
1

> <s_lp_Variant>
CHEMBL258_lig292-1

> <s_i_glide_gridfile>
glide-grid_2of2

> <i_i_glide_lignum>
324

> <i_i_glide_rotatable_bonds>
5

> <r_i_docking_score>
-7.07834702397747

> <r_i_glide_ligand_efficiency>
-0.321743046544431

> <r_i_glide_ligand_efficiency_sa>
-0.901536669853485

> <r_i_glide_ligand_efficiency_ln>
-1.73020620164107

> <r_i_glide_gscore>
-7.07834702397747

> <r_i_glide_lipo>
-2.6564372852333

> <r_i_glide_hbond>
-0.266849396966042

> <r_i_glide_metal>
0

> <r_i_glide_rewards>
-1.97823069669141

> <r_i_glide_evdw>
-33.7039604187012

> <r_i_glide_ecoul>
-6.04301691055298

> <r_i_glide_erotb>
0.41482091243128

> <r_i_glide_esite>
0

> <r_i_glide_emodel>
-57.1559577432971

> <r_i_glide_energy>
-39.7469773292542

> <r_i_glide_einternal>
1.15839028358459

> <i_i_glide_confnum>
1

> <i_i_glide_posenum>
234

> <r_i_glide_eff_state_penalty>
0

> <s_user_duplicate_titles>
CHEMBL258_lig292

> <s_m_subgroup_title>
dock_pv

> <s_m_subgroupid>
dock_pv

> <b_m_subgroup_collapsed>
1

$$$$
CHEMBL258_lig831
                    3D
 Schrodinger Suite 2021-1.
 52 56  0  0  1  0            999 V2000
   23.5847   37.5758   84.4870 N   0  0  0  0  0  0
   22.7673   38.4274   85.1749 C   0  0  0  0  0  0
   23.2671   39.6578   85.6329 C   0  0  0  0  0  0
   24.6156   39.9443   85.4222 C   0  0  0  0  0  0
   25.4322   39.0851   84.7616 N   0  0  0  0  0  0
   24.8865   37.9314   84.3072 C   0  0  0  0  0  0
   25.7151   37.0628   83.5421 N   0  0  0  0  0  0
   25.3059   35.9132   82.8866 C   0  0  0  0  0  0
   26.2445   35.2699   82.2490 N   0  0  0  0  0  0
   27.0862   37.1438   83.2890 C   0  0  0  0  0  0
   27.3753   36.0029   82.4871 C   0  0  0  0  0  0
   28.6981   35.7437   82.0871 C   0  0  0  0  0  0
   29.6982   36.6236   82.4876 C   0  0  0  0  0  0
   29.4051   37.7333   83.2827 C   0  0  0  0  0  0
   28.1017   38.0311   83.6861 C   0  0  0  0  0  0
   25.1255   41.1747   85.8581 N   0  0  0  0  0  0
   26.4437   41.6466   85.7617 C   0  0  0  0  0  0
   26.6592   42.8151   85.0277 C   0  0  0  0  0  0
   27.9501   43.3040   84.8433 C   0  0  0  0  0  0
   29.0360   42.6366   85.4033 C   0  0  0  0  0  0
   28.8282   41.4953   86.1759 C   0  0  0  0  0  0
   27.5366   40.9942   86.3693 C   0  0  0  0  0  0
   27.3622   39.7848   87.2824 C   0  0  0  0  0  0
   28.1500   44.4259   84.0871 O   0  0  0  0  0  0
   21.3949   38.1508   85.1633 N   0  0  0  0  0  0
   20.4616   38.7066   86.1675 C   0  0  0  0  0  0
   18.9882   38.7735   85.7054 C   0  0  0  0  0  0
   18.5675   37.5179   85.1957 O   0  0  0  0  0  0
   19.3464   37.1312   84.0766 C   0  0  0  0  0  0
   20.8223   36.9626   84.4925 C   0  0  0  0  0  0
   22.6394   40.3935   86.1084 H   0  0  0  0  0  0
   24.2679   35.6137   82.9232 H   0  0  0  0  0  0
   28.9441   34.8790   81.4861 H   0  0  0  0  0  0
   30.7208   36.4370   82.1898 H   0  0  0  0  0  0
   30.2111   38.3876   83.5836 H   0  0  0  0  0  0
   27.9111   38.8985   84.2990 H   0  0  0  0  0  0
   24.4442   41.8508   86.1677 H   0  0  0  0  0  0
   25.8305   43.3341   84.5664 H   0  0  0  0  0  0
   30.0399   43.0093   85.2506 H   0  0  0  0  0  0
   29.6780   41.0039   86.6273 H   0  0  0  0  0  0
   26.4184   39.8303   87.8281 H   0  0  0  0  0  0
   27.3979   38.8542   86.7144 H   0  0  0  0  0  0
   28.1498   39.7642   88.0369 H   0  0  0  0  0  0
   29.0683   44.4989   83.7769 H   0  0  0  0  0  0
   20.5412   38.1168   87.0826 H   0  0  0  0  0  0
   20.7381   39.7243   86.4384 H   0  0  0  0  0  0
   18.8495   39.5562   84.9568 H   0  0  0  0  0  0
   18.3445   39.0401   86.5449 H   0  0  0  0  0  0
   19.2505   37.8603   83.2686 H   0  0  0  0  0  0
   18.9534   36.1940   83.6862 H   0  0  0  0  0  0
   21.3827   36.7486   83.5812 H   0  0  0  0  0  0
   20.9399   36.0928   85.1411 H   0  0  0  0  0  0
  1  2  2  0  0  0
  1  6  1  0  0  0
  2  3  1  0  0  0
  2 25  1  0  0  0
  3  4  2  0  0  0
  3 31  1  0  0  0
  4 16  1  0  0  0
  4  5  1  0  0  0
  5  6  2  0  0  0
  6  7  1  0  0  0
  7  8  1  0  0  0
  7 10  1  0  0  0
  8  9  2  0  0  0
  8 32  1  0  0  0
  9 11  1  0  0  0
 10 15  1  0  0  0
 10 11  2  0  0  0
 11 12  1  0  0  0
 12 13  2  0  0  0
 12 33  1  0  0  0
 13 14  1  0  0  0
 13 34  1  0  0  0
 14 15  2  0  0  0
 14 35  1  0  0  0
 15 36  1  0  0  0
 16 17  1  0  0  0
 16 37  1  0  0  0
 17 18  2  0  0  0
 17 22  1  0  0  0
 18 19  1  0  0  0
 18 38  1  0  0  0
 19 20  2  0  0  0
 19 24  1  0  0  0
 20 21  1  0  0  0
 20 39  1  0  0  0
 21 22  2  0  0  0
 21 40  1  0  0  0
 22 23  1  0  0  0
 23 41  1  0  0  0
 23 42  1  0  0  0
 23 43  1  0  0  0
 24 44  1  0  0  0
 25 26  1  0  0  0
 25 30  1  0  0  0
 26 27  1  0  0  0
 26 45  1  0  0  0
 26 46  1  0  0  0
 27 28  1  0  0  0
 27 47  1  0  0  0
 27 48  1  0  0  0
 28 29  1  0  0  0
 29 30  1  0  0  0
 29 49  1  0  0  0
 29 50  1  0  0  0
 30 51  1  0  0  0
 30 52  1  0  0  0
M  END
> <s_m_entry_id>
4744

> <s_m_entry_name>
dock_pv.232

> <s_m_Source_Path>
/home/csk/Desktop/cluster/DUD-E-result/lck

> <s_m_Source_File>
dock_pv.maegz

> <i_m_Source_File_Index>
232

> <chembl_id>
CHEMBL221553

> <chembl_pref_name>
None

> <i_lp_mmshare_version>
53161

> <i_f3d_flags>
0

> <r_lp_tautomer_probability>
1

> <s_lp_Force_Field>
OPLS_2005

> <r_lp_Energy>
26.381635

> <b_lp_Chiralities_Consistent>
1

> <s_lp_Variant>
CHEMBL258_lig831-1

> <s_i_glide_gridfile>
glide-grid_2of2

> <i_i_glide_lignum>
916

> <i_i_glide_rotatable_bonds>
5

> <r_i_docking_score>
-7.06966739015582

> <r_i_glide_ligand_efficiency>
-0.235655579671861

> <r_i_glide_ligand_efficiency_sa>
-0.732236676535644

> <r_i_glide_ligand_efficiency_ln>
-1.60630546123925

> <r_i_glide_gscore>
-7.06966739015582

> <r_i_glide_lipo>
-1.73828651893652

> <r_i_glide_hbond>
-0.242525829320978

> <r_i_glide_metal>
0

> <r_i_glide_rewards>
-2.72680691558643

> <r_i_glide_evdw>
-38.3466415405273

> <r_i_glide_ecoul>
-6.19573545455933

> <r_i_glide_erotb>
0.484644268898379

> <r_i_glide_esite>
0

> <r_i_glide_emodel>
-62.9442309618552

> <r_i_glide_energy>
-44.5423769950867

> <r_i_glide_einternal>
3.46717619895935

> <i_i_glide_confnum>
9

> <i_i_glide_posenum>
28

> <r_i_glide_eff_state_penalty>
0

> <s_user_duplicate_titles>
CHEMBL258_lig831,368668

> <s_m_subgroup_title>
dock_pv

> <s_m_subgroupid>
dock_pv

> <b_m_subgroup_collapsed>
1

$$$$
CHEMBL258_lig215
                    3D
 Schrodinger Suite 2021-1.
 43 46  0  0  1  0            999 V2000
   22.4470   37.0764   84.3957 C   0  0  0  0  0  0
   23.4912   36.4629   83.6871 C   0  0  0  0  0  0
   22.6606   38.1516   85.1966 N   0  0  0  0  0  0
   24.7672   36.9980   83.8802 N   0  0  0  0  0  0
   23.9155   38.6703   85.3231 C   0  0  0  0  0  0
   25.0230   38.0665   84.6669 C   0  0  0  0  0  0
   21.1377   36.6211   84.2131 N   0  0  0  0  0  0
   24.1383   39.8129   86.1502 C   0  0  0  0  0  0
   24.9657   35.2995   82.4424 N   0  0  0  0  0  0
   20.0058   36.8718   85.0088 C   0  0  0  0  0  0
   25.6142   36.2299   83.1094 C   0  0  0  0  0  0
   23.6922   35.4210   82.7491 C   0  0  0  0  0  0
   26.3279   38.5845   84.8497 C   0  0  0  0  0  0
   25.4405   40.2996   86.3382 C   0  0  0  0  0  0
   18.9421   37.6306   84.4902 C   0  0  0  0  0  0
   19.9016   36.3350   86.3094 C   0  0  0  0  0  0
   26.5164   39.6811   85.6829 C   0  0  0  0  0  0
   23.0960   40.4223   86.8149 O   0  0  0  0  0  0
   18.9489   38.2210   82.8666 Cl  0  0  0  0  0  0
   25.5873   41.3857   87.1836 O   0  0  0  0  0  0
   17.7464   37.4141   86.5752 C   0  0  0  0  0  0
   17.8260   37.9050   85.2773 C   0  0  0  0  0  0
   18.7661   36.6125   87.0770 C   0  0  0  0  0  0
   20.9469   35.3747   86.8737 C   0  0  0  0  0  0
   22.3106   41.2915   86.0069 C   0  0  0  0  0  0
   26.8757   41.9580   87.3785 C   0  0  0  0  0  0
   21.0491   35.8222   83.6047 H   0  0  0  0  0  0
   26.6770   36.4063   83.0562 H   0  0  0  0  0  0
   22.9509   34.7642   82.3158 H   0  0  0  0  0  0
   27.1792   38.1340   84.3603 H   0  0  0  0  0  0
   27.5253   40.0424   85.8119 H   0  0  0  0  0  0
   16.8769   37.6328   87.1785 H   0  0  0  0  0  0
   17.0129   38.5003   84.8852 H   0  0  0  0  0  0
   18.6604   36.1957   88.0682 H   0  0  0  0  0  0
   21.7736   35.9226   87.3257 H   0  0  0  0  0  0
   20.5136   34.6820   87.5984 H   0  0  0  0  0  0
   21.3498   34.7374   86.0872 H   0  0  0  0  0  0
   21.5412   41.7611   86.6201 H   0  0  0  0  0  0
   22.9172   42.0882   85.5720 H   0  0  0  0  0  0
   21.8069   40.7579   85.1991 H   0  0  0  0  0  0
   26.7915   42.8069   88.0564 H   0  0  0  0  0  0
   27.5681   41.2452   87.8282 H   0  0  0  0  0  0
   27.2969   42.3254   86.4416 H   0  0  0  0  0  0
  1  2  1  0  0  0
  1  3  2  0  0  0
  1  7  1  0  0  0
  2  4  1  0  0  0
  2 12  2  0  0  0
  3  5  1  0  0  0
  4 11  1  0  0  0
  4  6  1  0  0  0
  5  6  1  0  0  0
  5  8  2  0  0  0
  6 13  2  0  0  0
  7 10  1  0  0  0
  7 27  1  0  0  0
  8 14  1  0  0  0
  8 18  1  0  0  0
  9 12  1  0  0  0
  9 11  2  0  0  0
 10 15  1  0  0  0
 10 16  2  0  0  0
 11 28  1  0  0  0
 12 29  1  0  0  0
 13 17  1  0  0  0
 13 30  1  0  0  0
 14 17  2  0  0  0
 14 20  1  0  0  0
 15 19  1  0  0  0
 15 22  2  0  0  0
 16 23  1  0  0  0
 16 24  1  0  0  0
 17 31  1  0  0  0
 18 25  1  0  0  0
 20 26  1  0  0  0
 21 23  2  0  0  0
 21 22  1  0  0  0
 21 32  1  0  0  0
 22 33  1  0  0  0
 23 34  1  0  0  0
 24 35  1  0  0  0
 24 36  1  0  0  0
 24 37  1  0  0  0
 25 38  1  0  0  0
 25 39  1  0  0  0
 25 40  1  0  0  0
 26 41  1  0  0  0
 26 42  1  0  0  0
 26 43  1  0  0  0
M  END
> <s_m_entry_id>
4745

> <s_m_entry_name>
dock_pv.233

> <s_m_Source_Path>
/home/csk/Desktop/cluster/DUD-E-result/lck

> <s_m_Source_File>
dock_pv.maegz

> <i_m_Source_File_Index>
233

> <chembl_id>
CHEMBL29320

> <chembl_pref_name>
None

> <i_lp_mmshare_version>
53161

> <i_f3d_flags>
0

> <r_lp_tautomer_probability>
1

> <s_lp_Force_Field>
OPLS_2005

> <r_lp_Energy>
70.771699

> <b_lp_Chiralities_Consistent>
1

> <s_lp_Variant>
CHEMBL258_lig215-1

> <s_i_glide_gridfile>
glide-grid_2of2

> <i_i_glide_lignum>
243

> <i_i_glide_rotatable_bonds>
4

> <r_i_docking_score>
-7.05783071007317

> <r_i_glide_ligand_efficiency>
-0.271455027310507

> <r_i_glide_ligand_efficiency_sa>
-0.804184450283421

> <r_i_glide_ligand_efficiency_ln>
-1.65750838362922

> <r_i_glide_gscore>
-7.05783071007317

> <r_i_glide_lipo>
-2.54112787208554

> <r_i_glide_hbond>
-0.0509208184248219

> <r_i_glide_metal>
0

> <r_i_glide_rewards>
-2.47840253416792

> <r_i_glide_evdw>
-37.0378341674805

> <r_i_glide_ecoul>
-2.79251050949097

> <r_i_glide_erotb>
0.283388799402785

> <r_i_glide_esite>
0

> <r_i_glide_emodel>
-55.7224675489737

> <r_i_glide_energy>
-39.8303446769714

> <r_i_glide_einternal>
0.939364373683929

> <i_i_glide_confnum>
2

> <i_i_glide_posenum>
6

> <r_i_glide_eff_state_penalty>
0

> <s_user_duplicate_titles>
CHEMBL258_lig215,40194

> <s_m_subgroup_title>
dock_pv

> <s_m_subgroupid>
dock_pv

> <b_m_subgroup_collapsed>
1

$$$$
CHEMBL258_lig245
                    3D
 Schrodinger Suite 2021-1.
 39 42  0  0  1  0            999 V2000
   23.4739   36.4760   83.7312 C   0  0  0  0  0  0
   22.4116   37.0802   84.4288 C   0  0  0  0  0  0
   24.7398   37.0405   83.9295 N   0  0  0  0  0  0
   22.5997   38.1525   85.2410 N   0  0  0  0  0  0
   24.9705   38.1182   84.7163 C   0  0  0  0  0  0
   21.1066   36.6210   84.2283 N   0  0  0  0  0  0
   23.8432   38.6826   85.3727 C   0  0  0  0  0  0
   24.9773   35.3461   82.4872 N   0  0  0  0  0  0
   19.9671   36.8493   85.0212 C   0  0  0  0  0  0
   25.6033   36.2933   83.1560 C   0  0  0  0  0  0
   23.7030   35.4213   82.8084 C   0  0  0  0  0  0
   26.2597   38.6976   84.8958 C   0  0  0  0  0  0
   18.8923   37.5921   84.5008 C   0  0  0  0  0  0
   19.8694   36.3068   86.3212 C   0  0  0  0  0  0
   24.0215   39.8209   86.1865 C   0  0  0  0  0  0
   26.4083   39.8305   85.7141 C   0  0  0  0  0  0
   18.9084   38.2209   82.8873 Cl  0  0  0  0  0  0
   25.2904   40.3720   86.3464 C   0  0  0  0  0  0
   27.6037   40.4806   85.9482 O   0  0  0  0  0  0
   17.6843   37.3248   86.5774 C   0  0  0  0  0  0
   17.7610   37.8243   85.2817 C   0  0  0  0  0  0
   18.7250   36.5551   87.0870 C   0  0  0  0  0  0
   20.9346   35.3679   86.8850 C   0  0  0  0  0  0
   28.7925   40.0176   85.3191 C   0  0  0  0  0  0
   21.0284   35.8290   83.6099 H   0  0  0  0  0  0
   26.6607   36.4994   83.0995 H   0  0  0  0  0  0
   22.9788   34.7401   82.3836 H   0  0  0  0  0  0
   27.1125   38.2645   84.3977 H   0  0  0  0  0  0
   23.1652   40.2556   86.6814 H   0  0  0  0  0  0
   25.4115   41.2449   86.9709 H   0  0  0  0  0  0
   16.8045   37.5177   87.1747 H   0  0  0  0  0  0
   16.9376   38.4038   84.8883 H   0  0  0  0  0  0
   18.6276   36.1384   88.0805 H   0  0  0  0  0  0
   21.7518   35.9329   87.3334 H   0  0  0  0  0  0
   20.5168   34.6702   87.6147 H   0  0  0  0  0  0
   21.3499   34.7386   86.0977 H   0  0  0  0  0  0
   29.6161   40.6839   85.5764 H   0  0  0  0  0  0
   29.0608   39.0209   85.6650 H   0  0  0  0  0  0
   28.7005   40.0130   84.2320 H   0  0  0  0  0  0
  1  2  1  0  0  0
  1  3  1  0  0  0
  1 11  2  0  0  0
  2  4  2  0  0  0
  2  6  1  0  0  0
  3  5  1  0  0  0
  3 10  1  0  0  0
  4  7  1  0  0  0
  5  7  1  0  0  0
  5 12  2  0  0  0
  6  9  1  0  0  0
  6 25  1  0  0  0
  7 15  2  0  0  0
  8 11  1  0  0  0
  8 10  2  0  0  0
  9 13  2  0  0  0
  9 14  1  0  0  0
 10 26  1  0  0  0
 11 27  1  0  0  0
 12 16  1  0  0  0
 12 28  1  0  0  0
 13 17  1  0  0  0
 13 21  1  0  0  0
 14 22  2  0  0  0
 14 23  1  0  0  0
 15 18  1  0  0  0
 15 29  1  0  0  0
 16 18  2  0  0  0
 16 19  1  0  0  0
 18 30  1  0  0  0
 19 24  1  0  0  0
 20 22  1  0  0  0
 20 21  2  0  0  0
 20 31  1  0  0  0
 21 32  1  0  0  0
 22 33  1  0  0  0
 23 34  1  0  0  0
 23 35  1  0  0  0
 23 36  1  0  0  0
 24 37  1  0  0  0
 24 38  1  0  0  0
 24 39  1  0  0  0
M  END
> <s_m_entry_id>
4746

> <s_m_entry_name>
dock_pv.234

> <s_m_Source_Path>
/home/csk/Desktop/cluster/DUD-E-result/lck

> <s_m_Source_File>
dock_pv.maegz

> <i_m_Source_File_Index>
234

> <chembl_id>
CHEMBL86230

> <chembl_pref_name>
None

> <i_lp_mmshare_version>
53161

> <i_f3d_flags>
0

> <r_lp_tautomer_probability>
1

> <s_lp_Force_Field>
OPLS_2005

> <r_lp_Energy>
62.115328

> <b_lp_Chiralities_Consistent>
1

> <s_lp_Variant>
CHEMBL258_lig245-1

> <s_i_glide_gridfile>
glide-grid_2of2

> <i_i_glide_lignum>
273

> <i_i_glide_rotatable_bonds>
3

> <r_i_docking_score>
-7.05229555021531

> <r_i_glide_ligand_efficiency>
-0.293845647925638

> <r_i_glide_ligand_efficiency_sa>
-0.847597518017003

> <r_i_glide_ligand_efficiency_ln>
-1.68793793392269

> <r_i_glide_gscore>
-7.05229555021531

> <r_i_glide_lipo>
-2.5368509715874

> <r_i_glide_hbond>
-0.0273617725464891

> <r_i_glide_metal>
0

> <r_i_glide_rewards>
-2.68169262339462

> <r_i_glide_evdw>
-35.9727897644043

> <r_i_glide_ecoul>
-2.24910688400269

> <r_i_glide_erotb>
0.329615338133815

> <r_i_glide_esite>
0

> <r_i_glide_emodel>
-53.5768121389236

> <r_i_glide_energy>
-38.221896648407

> <r_i_glide_einternal>
1.4229199886322

> <i_i_glide_confnum>
4

> <i_i_glide_posenum>
150

> <r_i_glide_eff_state_penalty>
0

> <s_user_duplicate_titles>
CHEMBL258_lig245,136808

> <s_m_subgroup_title>
dock_pv

> <s_m_subgroupid>
dock_pv

> <b_m_subgroup_collapsed>
1

$$$$
CHEMBL258_lig447
                    3D
 Schrodinger Suite 2021-1.
 41 44  0  0  1  0            999 V2000
   24.2620   36.4966   83.6867 C   0  0  0  0  0  0
   23.3590   37.0553   84.6040 C   0  0  0  0  0  0
   25.4755   37.1707   83.5218 N   0  0  0  0  0  0
   23.6428   38.1961   85.2869 N   0  0  0  0  0  0
   25.7990   38.3053   84.1782 C   0  0  0  0  0  0
   22.1235   36.4272   84.7982 N   0  0  0  0  0  0
   24.8359   38.8188   85.0865 C   0  0  0  0  0  0
   25.4929   35.4188   82.1342 N   0  0  0  0  0  0
   20.9441   36.8926   85.4117 C   0  0  0  0  0  0
   27.0278   38.9875   83.9796 C   0  0  0  0  0  0
   26.1786   36.4494   82.5795 C   0  0  0  0  0  0
   24.3393   35.4210   82.7644 C   0  0  0  0  0  0
   27.2998   40.1590   84.6960 C   0  0  0  0  0  0
   28.5934   40.8729   84.4596 C   0  0  0  0  0  0
   20.2967   38.0579   84.9583 C   0  0  0  0  0  0
   25.1293   40.0022   85.7949 C   0  0  0  0  0  0
   20.3113   36.1041   86.3908 C   0  0  0  0  0  0
   29.2713   40.7225   83.4376 O   0  0  0  0  0  0
   26.3454   40.6539   85.5972 C   0  0  0  0  0  0
   28.9796   41.6106   85.5300 O   0  0  0  0  0  0
   20.9500   39.0210   83.6873 Cl  0  0  0  0  0  0
   18.4493   37.6593   86.4595 C   0  0  0  0  0  0
   19.0707   38.4466   85.4985 C   0  0  0  0  0  0
   19.0622   36.4870   86.8886 C   0  0  0  0  0  0
   20.9335   34.8085   86.9032 C   0  0  0  0  0  0
   30.2003   42.3375   85.5202 C   0  0  0  0  0  0
   22.0162   35.5533   84.3087 H   0  0  0  0  0  0
   27.7540   38.5958   83.2803 H   0  0  0  0  0  0
   27.1661   36.7258   82.2441 H   0  0  0  0  0  0
   23.5859   34.6780   82.5401 H   0  0  0  0  0  0
   24.3986   40.3979   86.4849 H   0  0  0  0  0  0
   26.5318   41.5643   86.1509 H   0  0  0  0  0  0
   17.4892   37.9550   86.8605 H   0  0  0  0  0  0
   18.5831   39.3483   85.1571 H   0  0  0  0  0  0
   18.5638   35.8765   87.6281 H   0  0  0  0  0  0
   20.1970   34.1712   87.3933 H   0  0  0  0  0  0
   21.3502   34.2214   86.0871 H   0  0  0  0  0  0
   21.7451   35.0217   87.5993 H   0  0  0  0  0  0
   30.4335   42.6743   86.5307 H   0  0  0  0  0  0
   30.1192   43.2204   84.8870 H   0  0  0  0  0  0
   31.0348   41.7271   85.1693 H   0  0  0  0  0  0
  1  2  1  0  0  0
  1  3  1  0  0  0
  1 12  2  0  0  0
  2  4  2  0  0  0
  2  6  1  0  0  0
  3  5  1  0  0  0
  3 11  1  0  0  0
  4  7  1  0  0  0
  5  7  1  0  0  0
  5 10  2  0  0  0
  6  9  1  0  0  0
  6 27  1  0  0  0
  7 16  2  0  0  0
  8 12  1  0  0  0
  8 11  2  0  0  0
  9 15  1  0  0  0
  9 17  2  0  0  0
 10 13  1  0  0  0
 10 28  1  0  0  0
 11 29  1  0  0  0
 12 30  1  0  0  0
 13 14  1  0  0  0
 13 19  2  0  0  0
 14 18  2  0  0  0
 14 20  1  0  0  0
 15 21  1  0  0  0
 15 23  2  0  0  0
 16 19  1  0  0  0
 16 31  1  0  0  0
 17 24  1  0  0  0
 17 25  1  0  0  0
 19 32  1  0  0  0
 20 26  1  0  0  0
 22 24  2  0  0  0
 22 23  1  0  0  0
 22 33  1  0  0  0
 23 34  1  0  0  0
 24 35  1  0  0  0
 25 36  1  0  0  0
 25 37  1  0  0  0
 25 38  1  0  0  0
 26 39  1  0  0  0
 26 40  1  0  0  0
 26 41  1  0  0  0
M  END
> <s_m_entry_id>
4747

> <s_m_entry_name>
dock_pv.235

> <s_m_Source_Path>
/home/csk/Desktop/cluster/DUD-E-result/lck

> <s_m_Source_File>
dock_pv.maegz

> <i_m_Source_File_Index>
235

> <chembl_id>
CHEMBL321464

> <chembl_pref_name>
None

> <i_lp_mmshare_version>
53161

> <i_f3d_flags>
0

> <r_lp_tautomer_probability>
1

> <s_lp_Force_Field>
OPLS_2005

> <r_lp_Energy>
61.996233

> <b_lp_Chiralities_Consistent>
1

> <s_lp_Variant>
CHEMBL258_lig447-1

> <s_i_glide_gridfile>
glide-grid_2of2

> <i_i_glide_lignum>
494

> <i_i_glide_rotatable_bonds>
4

> <r_i_docking_score>
-7.05109192366274

> <r_i_glide_ligand_efficiency>
-0.271195843217798

> <r_i_glide_ligand_efficiency_sa>
-0.803416618428611

> <r_i_glide_ligand_efficiency_ln>
-1.65592580175249

> <r_i_glide_gscore>
-7.05109192366274

> <r_i_glide_lipo>
-2.48283938405155

> <r_i_glide_hbond>
-0.18985996907954

> <r_i_glide_metal>
0

> <r_i_glide_rewards>
-2.40127105306558

> <r_i_glide_evdw>
-38.9441108703613

> <r_i_glide_ecoul>
-3.05139636993408

> <r_i_glide_erotb>
0.42926520243491

> <r_i_glide_esite>
-0.00147172089279936

> <r_i_glide_emodel>
-58.1903732726475

> <r_i_glide_energy>
-41.9955072402954

> <r_i_glide_einternal>
2.85256862640381

> <i_i_glide_confnum>
2

> <i_i_glide_posenum>
63

> <r_i_glide_eff_state_penalty>
0

> <s_user_duplicate_titles>
CHEMBL258_lig447,176290

> <s_m_subgroup_title>
dock_pv

> <s_m_subgroupid>
dock_pv

> <b_m_subgroup_collapsed>
1

$$$$
CHEMBL258_lig120
                    3D
 Schrodinger Suite 2021-1.
 31 33  0  0  1  0            999 V2000
   24.1343   36.7994   83.7108 C   0  0  0  0  0  0
   24.9563   37.8685   84.2955 C   0  0  0  0  0  0
   25.0180   35.9698   82.8870 C   0  0  0  0  0  0
   26.3461   37.6155   83.8780 C   0  0  0  0  0  0
   26.3729   36.5138   83.0361 C   0  0  0  0  0  0
   22.7943   36.5885   83.8323 C   0  0  0  0  0  0
   19.8108   38.7188   86.0884 C   0  0  0  0  0  0
   21.0478   38.4282   86.6727 C   0  0  0  0  0  0
   19.5470   38.2836   84.7840 C   0  0  0  0  0  0
   21.7783   37.3114   84.6394 C   0  0  0  0  0  0
   24.5410   38.7934   84.9900 O   0  0  0  0  0  0
   27.5323   38.2930   84.1971 C   0  0  0  0  0  0
   22.0103   37.7144   85.9592 C   0  0  0  0  0  0
   20.5308   37.5929   84.0699 C   0  0  0  0  0  0
   24.6514   35.0210   82.1942 O   0  0  0  0  0  0
   17.8643   38.6216   83.9505 Br  0  0  0  0  0  0
   21.4571   39.0212   88.4356 Br  0  0  0  0  0  0
   18.8820   39.4342   86.8045 O   0  0  0  0  0  0
   27.5443   39.4168   85.0217 N   0  0  0  0  0  0
   27.5795   36.0644   82.4895 C   0  0  0  0  0  0
   28.7675   36.6972   82.8594 C   0  0  0  0  0  0
   28.7442   37.8204   83.6876 C   0  0  0  0  0  0
   22.3778   35.7524   83.2820 H   0  0  0  0  0  0
   22.9496   37.4912   86.4407 H   0  0  0  0  0  0
   20.3216   37.2891   83.0559 H   0  0  0  0  0  0
   17.9787   39.4198   86.4606 H   0  0  0  0  0  0
   28.4184   39.8739   85.2377 H   0  0  0  0  0  0
   26.6676   39.7584   85.3948 H   0  0  0  0  0  0
   27.6161   35.2041   81.8348 H   0  0  0  0  0  0
   29.7085   36.3344   82.4690 H   0  0  0  0  0  0
   29.6730   38.3139   83.9396 H   0  0  0  0  0  0
  1  2  1  0  0  0
  1  3  1  0  0  0
  1  6  2  0  0  0
  2  4  1  0  0  0
  2 11  2  0  0  0
  3  5  1  0  0  0
  3 15  2  0  0  0
  4 12  2  0  0  0
  4  5  1  0  0  0
  5 20  2  0  0  0
  6 10  1  0  0  0
  6 23  1  0  0  0
  7  9  1  0  0  0
  7 18  1  0  0  0
  7  8  2  0  0  0
  8 13  1  0  0  0
  8 17  1  0  0  0
  9 14  2  0  0  0
  9 16  1  0  0  0
 10 13  2  0  0  0
 10 14  1  0  0  0
 12 19  1  0  0  0
 12 22  1  0  0  0
 13 24  1  0  0  0
 14 25  1  0  0  0
 18 26  1  0  0  0
 19 27  1  0  0  0
 19 28  1  0  0  0
 20 21  1  0  0  0
 20 29  1  0  0  0
 21 22  2  0  0  0
 21 30  1  0  0  0
 22 31  1  0  0  0
M  END
> <s_m_entry_id>
4748

> <s_m_entry_name>
dock_pv.236

> <s_m_Source_Path>
/home/csk/Desktop/cluster/DUD-E-result/lck

> <s_m_Source_File>
dock_pv.maegz

> <i_m_Source_File_Index>
236

> <chembl_id>
CHEMBL81862

> <chembl_pref_name>
None

> <i_lp_mmshare_version>
53161

> <i_f3d_flags>
0

> <r_lp_tautomer_probability>
1

> <s_lp_Force_Field>
OPLS_2005

> <r_lp_Energy>
32.790748

> <b_lp_Chiralities_Consistent>
1

> <s_lp_Variant>
CHEMBL258_lig120-1

> <s_i_glide_gridfile>
glide-grid_2of2

> <i_i_glide_lignum>
141

> <i_i_glide_rotatable_bonds>
2

> <r_i_docking_score>
-7.04910137194549

> <r_i_glide_ligand_efficiency>
-0.320413698724795

> <r_i_glide_ligand_efficiency_sa>
-0.897811784982583

> <r_i_glide_ligand_efficiency_ln>
-1.72305749752338

> <r_i_glide_gscore>
-7.04910137194549

> <r_i_glide_lipo>
-2.88057737806143

> <r_i_glide_hbond>
-0.304627285522465

> <r_i_glide_metal>
0

> <r_i_glide_rewards>
-1.36635865535593

> <r_i_glide_evdw>
-35.2047157287598

> <r_i_glide_ecoul>
-5.65347290039062

> <r_i_glide_erotb>
0.110718668490919

> <r_i_glide_esite>
0

> <r_i_glide_emodel>
-58.3825450610405

> <r_i_glide_energy>
-40.8581886291504

> <r_i_glide_einternal>
1.06092846393585

> <i_i_glide_confnum>
3

> <i_i_glide_posenum>
10

> <r_i_glide_eff_state_penalty>
0

> <s_user_duplicate_titles>
CHEMBL258_lig120,132396

> <s_m_subgroup_title>
dock_pv

> <s_m_subgroupid>
dock_pv

> <b_m_subgroup_collapsed>
1

$$$$
CHEMBL258_lig207
                    3D
 Schrodinger Suite 2021-1.
 32 35  0  0  1  0            999 V2000
   24.3983   36.6767   83.6870 C   0  0  0  0  0  0
   23.8626   37.6436   84.5610 C   0  0  0  0  0  0
   25.7673   36.7816   83.4121 N   0  0  0  0  0  0
   24.6395   38.6198   85.0999 N   0  0  0  0  0  0
   26.5719   37.7327   83.9383 C   0  0  0  0  0  0
   22.4835   37.6205   84.8291 N   0  0  0  0  0  0
   25.9658   38.6738   84.8116 C   0  0  0  0  0  0
   24.9870   35.0450   82.2415 N   0  0  0  0  0  0
   26.0533   35.7592   82.5322 C   0  0  0  0  0  0
   23.9759   35.5696   82.8992 C   0  0  0  0  0  0
   21.5974   38.4847   85.5078 C   0  0  0  0  0  0
   20.2168   38.3527   85.2682 C   0  0  0  0  0  0
   19.5273   37.0210   84.0858 Br  0  0  0  0  0  0
   27.9629   37.8209   83.6563 C   0  0  0  0  0  0
   26.7617   39.6891   85.3897 C   0  0  0  0  0  0
   22.0281   39.4945   86.3844 C   0  0  0  0  0  0
   19.3053   39.2147   85.8829 C   0  0  0  0  0  0
   28.7162   38.8386   84.2385 C   0  0  0  0  0  0
   28.1234   39.7614   85.0975 C   0  0  0  0  0  0
   21.1138   40.3582   86.9893 C   0  0  0  0  0  0
   19.7522   40.2215   86.7350 C   0  0  0  0  0  0
   22.0028   36.8906   84.3258 H   0  0  0  0  0  0
   27.0432   35.5916   82.1344 H   0  0  0  0  0  0
   22.9806   35.1573   82.8021 H   0  0  0  0  0  0
   28.4418   37.1109   82.9976 H   0  0  0  0  0  0
   26.3022   40.4057   86.0546 H   0  0  0  0  0  0
   23.0706   39.6332   86.6162 H   0  0  0  0  0  0
   18.2456   39.1135   85.6908 H   0  0  0  0  0  0
   29.7742   38.9083   84.0303 H   0  0  0  0  0  0
   28.7276   40.5379   85.5437 H   0  0  0  0  0  0
   21.4627   41.1403   87.6487 H   0  0  0  0  0  0
   19.0430   40.8986   87.1899 H   0  0  0  0  0  0
  1  2  1  0  0  0
  1  3  1  0  0  0
  1 10  2  0  0  0
  2  4  2  0  0  0
  2  6  1  0  0  0
  3  5  1  0  0  0
  3  9  1  0  0  0
  4  7  1  0  0  0
  5  7  1  0  0  0
  5 14  2  0  0  0
  6 11  1  0  0  0
  6 22  1  0  0  0
  7 15  2  0  0  0
  8 10  1  0  0  0
  8  9  2  0  0  0
  9 23  1  0  0  0
 10 24  1  0  0  0
 11 12  2  0  0  0
 11 16  1  0  0  0
 12 13  1  0  0  0
 12 17  1  0  0  0
 14 18  1  0  0  0
 14 25  1  0  0  0
 15 19  1  0  0  0
 15 26  1  0  0  0
 16 20  2  0  0  0
 16 27  1  0  0  0
 17 21  2  0  0  0
 17 28  1  0  0  0
 18 19  2  0  0  0
 18 29  1  0  0  0
 19 30  1  0  0  0
 20 21  1  0  0  0
 20 31  1  0  0  0
 21 32  1  0  0  0
M  END
> <s_m_entry_id>
4749

> <s_m_entry_name>
dock_pv.237

> <s_m_Source_Path>
/home/csk/Desktop/cluster/DUD-E-result/lck

> <s_m_Source_File>
dock_pv.maegz

> <i_m_Source_File_Index>
237

> <chembl_id>
CHEMBL28916

> <chembl_pref_name>
None

> <i_lp_mmshare_version>
53161

> <i_f3d_flags>
0

> <r_lp_tautomer_probability>
1

> <s_lp_Force_Field>
OPLS_2005

> <r_lp_Energy>
58.380707

> <b_lp_Chiralities_Consistent>
1

> <s_lp_Variant>
CHEMBL258_lig207-1

> <s_i_glide_gridfile>
glide-grid_2of2

> <i_i_glide_lignum>
235

> <i_i_glide_rotatable_bonds>
2

> <r_i_docking_score>
-7.04151255008229

> <r_i_glide_ligand_efficiency>
-0.33531012143249

> <r_i_glide_ligand_efficiency_sa>
-0.925095199666562

> <r_i_glide_ligand_efficiency_ln>
-1.74099974929199

> <r_i_glide_gscore>
-7.04151255008229

> <r_i_glide_lipo>
-2.45074673675433

> <r_i_glide_hbond>
-0.271343701965625

> <r_i_glide_metal>
0

> <r_i_glide_rewards>
-2.66004063790302

> <r_i_glide_evdw>
-32.9791717529297

> <r_i_glide_ecoul>
-2.26234555244446

> <r_i_glide_erotb>
0.328928947053839

> <r_i_glide_esite>
0

> <r_i_glide_emodel>
-50.5473018450128

> <r_i_glide_energy>
-35.2415173053741

> <r_i_glide_einternal>
1.5134871006012

> <i_i_glide_confnum>
1

> <i_i_glide_posenum>
39

> <r_i_glide_eff_state_penalty>
0

> <s_user_duplicate_titles>
CHEMBL258_lig207,38645

> <s_m_subgroup_title>
dock_pv

> <s_m_subgroupid>
dock_pv

> <b_m_subgroup_collapsed>
1

$$$$
CHEMBL258_lig801
                    3D
 Schrodinger Suite 2021-1.
 42 44  0  0  1  0            999 V2000
   20.3636   36.7486   85.3593 C   0  0  0  0  0  0
   20.1254   35.9415   86.4877 C   0  0  0  0  0  0
   18.9522   36.1156   87.2259 C   0  0  0  0  0  0
   18.0355   37.0964   86.8749 C   0  0  0  0  0  0
   18.2533   37.8745   85.7389 C   0  0  0  0  0  0
   19.4075   37.7041   84.9687 C   0  0  0  0  0  0
   21.0974   34.8571   86.9272 C   0  0  0  0  0  0
   21.5186   36.5514   84.5857 N   0  0  0  0  0  0
   22.7172   37.1060   84.8536 C   0  0  0  0  0  0
   22.9060   37.9505   85.7300 O   0  0  0  0  0  0
   23.7927   36.6225   84.0209 C   0  0  0  0  0  0
   23.7918   35.6905   82.9744 C   0  0  0  0  0  0
   24.9571   35.4205   82.4185 N   0  0  0  0  0  0
   25.9327   36.1247   82.9341 C   0  0  0  0  0  0
   25.4301   37.1962   84.2175 S   0  0  0  0  0  0
   27.2294   35.9757   82.4868 N   0  0  0  0  0  0
   28.4389   36.6202   82.7990 C   0  0  0  0  0  0
   28.4840   37.6505   83.6877 N   0  0  0  0  0  0
   29.6756   38.2618   83.9114 C   0  0  0  0  0  0
   30.8531   37.8771   83.2699 C   0  0  0  0  0  0
   30.8017   36.8181   82.3632 C   0  0  0  0  0  0
   29.5828   36.1819   82.1215 C   0  0  0  0  0  0
   19.6067   38.5750   83.7383 C   0  0  0  0  0  0
   16.8276   37.3402   87.7463 C   0  0  0  0  0  0
   18.7607   35.4918   88.0864 H   0  0  0  0  0  0
   17.5212   38.6216   85.4662 H   0  0  0  0  0  0
   22.0218   35.2930   87.3044 H   0  0  0  0  0  0
   20.6683   34.2010   87.6853 H   0  0  0  0  0  0
   21.3501   34.2212   86.0863 H   0  0  0  0  0  0
   21.4504   35.8680   83.8508 H   0  0  0  0  0  0
   22.9250   35.1600   82.6035 H   0  0  0  0  0  0
   27.3867   35.2927   81.7602 H   0  0  0  0  0  0
   29.6751   39.0709   84.6283 H   0  0  0  0  0  0
   31.7855   38.3838   83.4742 H   0  0  0  0  0  0
   31.6942   36.4939   81.8485 H   0  0  0  0  0  0
   29.5374   35.3682   81.4104 H   0  0  0  0  0  0
   20.6002   39.0263   83.7515 H   0  0  0  0  0  0
   19.5255   37.9734   82.8338 H   0  0  0  0  0  0
   18.8838   39.3881   83.6927 H   0  0  0  0  0  0
   15.9088   37.3879   87.1611 H   0  0  0  0  0  0
   16.9638   38.2856   88.2426 H   0  0  0  0  0  0
   16.7211   36.6209   88.5494 H   0  0  0  0  0  0
  1  6  2  0  0  0
  1  2  1  0  0  0
  1  8  1  0  0  0
  2  7  1  0  0  0
  2  3  2  0  0  0
  3  4  1  0  0  0
  3 25  1  0  0  0
  4  5  2  0  0  0
  4 24  1  0  0  0
  5  6  1  0  0  0
  5 26  1  0  0  0
  6 23  1  0  0  0
  7 27  1  0  0  0
  7 28  1  0  0  0
  7 29  1  0  0  0
  8  9  1  0  0  0
  8 30  1  0  0  0
  9 10  2  0  0  0
  9 11  1  0  0  0
 11 15  1  0  0  0
 11 12  2  0  0  0
 12 13  1  0  0  0
 12 31  1  0  0  0
 13 14  2  0  0  0
 14 15  1  0  0  0
 14 16  1  0  0  0
 16 17  1  0  0  0
 16 32  1  0  0  0
 17 18  2  0  0  0
 17 22  1  0  0  0
 18 19  1  0  0  0
 19 20  2  0  0  0
 19 33  1  0  0  0
 20 21  1  0  0  0
 20 34  1  0  0  0
 21 22  2  0  0  0
 21 35  1  0  0  0
 22 36  1  0  0  0
 23 37  1  0  0  0
 23 38  1  0  0  0
 23 39  1  0  0  0
 24 40  1  0  0  0
 24 41  1  0  0  0
 24 42  1  0  0  0
M  END
> <s_m_entry_id>
4750

> <s_m_entry_name>
dock_pv.238

> <s_m_Source_Path>
/home/csk/Desktop/cluster/DUD-E-result/lck

> <s_m_Source_File>
dock_pv.maegz

> <i_m_Source_File_Index>
238

> <chembl_id>
CHEMBL386371

> <chembl_pref_name>
None

> <i_lp_mmshare_version>
53161

> <i_f3d_flags>
0

> <r_lp_tautomer_probability>
0.999999772200052

> <s_lp_Force_Field>
OPLS_2005

> <r_lp_Energy>
19.418514

> <b_lp_Chiralities_Consistent>
1

> <s_lp_Variant>
CHEMBL258_lig801-1

> <s_i_glide_gridfile>
glide-grid_2of2

> <i_i_glide_lignum>
886

> <i_i_glide_rotatable_bonds>
5

> <r_i_docking_score>
-7.0393000396422

> <r_i_glide_ligand_efficiency>
-0.293304168318425

> <r_i_glide_ligand_efficiency_sa>
-0.846035620556992

> <r_i_glide_ligand_efficiency_ln>
-1.68482751191743

> <r_i_glide_gscore>
-7.0393000396422

> <r_i_glide_lipo>
-2.81675957022056

> <r_i_glide_hbond>
-0.167942355478571

> <r_i_glide_metal>
0

> <r_i_glide_rewards>
-2.25787261944608

> <r_i_glide_evdw>
-40.4617385864258

> <r_i_glide_ecoul>
-3.92897653579712

> <r_i_glide_erotb>
0.825604697998548

> <r_i_glide_esite>
-0.00989678280468892

> <r_i_glide_emodel>
-58.654763390548

> <r_i_glide_energy>
-44.3907151222229

> <r_i_glide_einternal>
5.25233745574951

> <i_i_glide_confnum>
21

> <i_i_glide_posenum>
346

> <r_i_glide_eff_state_penalty>
0

> <s_user_duplicate_titles>
CHEMBL258_lig801,361450

> <s_m_subgroup_title>
dock_pv

> <s_m_subgroupid>
dock_pv

> <b_m_subgroup_collapsed>
1

$$$$
CHEMBL258_lig792
                    3D
 Schrodinger Suite 2021-1.
 41 43  0  0  1  0            999 V2000
   23.6214   36.6218   84.0900 C   0  0  0  0  0  0
   25.7441   36.1101   82.9692 C   0  0  0  0  0  0
   28.2433   36.6207   82.7917 C   0  0  0  0  0  0
   25.2690   37.1742   84.2704 S   0  0  0  0  0  0
   22.5499   37.1746   84.8860 C   0  0  0  0  0  0
   27.0322   35.9785   82.4874 N   0  0  0  0  0  0
   21.4620   36.3821   84.9838 N   0  0  0  0  0  0
   24.7508   35.4212   82.4626 N   0  0  0  0  0  0
   23.5906   35.7174   83.0207 C   0  0  0  0  0  0
   20.2399   36.7269   85.5957 C   0  0  0  0  0  0
   29.3086   36.1335   82.1037 N   0  0  0  0  0  0
   28.2958   37.6628   83.6661 N   0  0  0  0  0  0
   29.5088   38.2476   83.8506 C   0  0  0  0  0  0
   30.5067   36.7400   82.3051 C   0  0  0  0  0  0
   22.6466   38.2851   85.4109 O   0  0  0  0  0  0
   19.7882   35.9456   86.6749 C   0  0  0  0  0  0
   30.6577   37.8204   83.1786 C   0  0  0  0  0  0
   19.4315   37.7836   85.1227 C   0  0  0  0  0  0
   20.7226   34.6210   87.2868 Cl  0  0  0  0  0  0
   17.7768   37.2762   86.8265 C   0  0  0  0  0  0
   18.5632   36.2242   87.2862 C   0  0  0  0  0  0
   18.2091   38.0447   85.7486 C   0  0  0  0  0  0
   31.6725   36.1921   81.5069 C   0  0  0  0  0  0
   29.5467   39.4025   84.8314 C   0  0  0  0  0  0
   19.8016   38.6171   83.9029 C   0  0  0  0  0  0
   27.2024   35.3089   81.7503 H   0  0  0  0  0  0
   21.5130   35.4423   84.6200 H   0  0  0  0  0  0
   22.7028   35.2344   82.6351 H   0  0  0  0  0  0
   31.6153   38.2972   83.3287 H   0  0  0  0  0  0
   16.8272   37.4941   87.2944 H   0  0  0  0  0  0
   18.2204   35.6173   88.1111 H   0  0  0  0  0  0
   17.5779   38.8460   85.3932 H   0  0  0  0  0  0
   32.6144   36.3313   82.0388 H   0  0  0  0  0  0
   31.5536   35.1238   81.3141 H   0  0  0  0  0  0
   31.7395   36.7011   80.5462 H   0  0  0  0  0  0
   30.5680   39.6440   85.1247 H   0  0  0  0  0  0
   29.1003   40.2909   84.3851 H   0  0  0  0  0  0
   28.9923   39.1606   85.7381 H   0  0  0  0  0  0
   20.3116   38.0151   83.1513 H   0  0  0  0  0  0
   18.9131   39.0178   83.4143 H   0  0  0  0  0  0
   20.4526   39.4441   84.1869 H   0  0  0  0  0  0
  1  4  1  0  0  0
  1  5  1  0  0  0
  1  9  2  0  0  0
  2  4  1  0  0  0
  2  6  1  0  0  0
  2  8  2  0  0  0
  3  6  1  0  0  0
  3 11  2  0  0  0
  3 12  1  0  0  0
  5  7  1  0  0  0
  5 15  2  0  0  0
  6 26  1  0  0  0
  7 10  1  0  0  0
  7 27  1  0  0  0
  8  9  1  0  0  0
  9 28  1  0  0  0
 10 16  1  0  0  0
 10 18  2  0  0  0
 11 14  1  0  0  0
 12 13  2  0  0  0
 13 17  1  0  0  0
 13 24  1  0  0  0
 14 23  1  0  0  0
 14 17  2  0  0  0
 16 19  1  0  0  0
 16 21  2  0  0  0
 17 29  1  0  0  0
 18 22  1  0  0  0
 18 25  1  0  0  0
 20 22  2  0  0  0
 20 21  1  0  0  0
 20 30  1  0  0  0
 21 31  1  0  0  0
 22 32  1  0  0  0
 23 33  1  0  0  0
 23 34  1  0  0  0
 23 35  1  0  0  0
 24 36  1  0  0  0
 24 37  1  0  0  0
 24 38  1  0  0  0
 25 39  1  0  0  0
 25 40  1  0  0  0
 25 41  1  0  0  0
M  END
> <s_m_entry_id>
4751

> <s_m_entry_name>
dock_pv.239

> <s_m_Source_Path>
/home/csk/Desktop/cluster/DUD-E-result/lck

> <s_m_Source_File>
dock_pv.maegz

> <i_m_Source_File_Index>
239

> <chembl_id>
CHEMBL186564

> <chembl_pref_name>
None

> <i_lp_mmshare_version>
53161

> <i_f3d_flags>
0

> <r_lp_tautomer_probability>
0.999999987636

> <s_lp_Force_Field>
OPLS_2005

> <r_lp_Energy>
13.539573

> <b_lp_Chiralities_Consistent>
1

> <s_lp_Variant>
CHEMBL258_lig792-1

> <s_i_glide_gridfile>
glide-grid_2of2

> <i_i_glide_lignum>
877

> <i_i_glide_rotatable_bonds>
5

> <r_i_docking_score>
-7.03883445810686

> <r_i_glide_ligand_efficiency>
-0.281553378324274

> <r_i_glide_ligand_efficiency_sa>
-0.823267071590605

> <r_i_glide_ligand_efficiency_ln>
-1.66841470341848

> <r_i_glide_gscore>
-7.03883445810686

> <r_i_glide_lipo>
-2.62158171288839

> <r_i_glide_hbond>
-0.230244170700089

> <r_i_glide_metal>
0

> <r_i_glide_rewards>
-2.1934625568148

> <r_i_glide_evdw>
-43.0966987609863

> <r_i_glide_ecoul>
-3.53456783294678

> <r_i_glide_erotb>
0.691474095287753

> <r_i_glide_esite>
0

> <r_i_glide_emodel>
-63.6283217820292

> <r_i_glide_energy>
-46.6312665939331

> <r_i_glide_einternal>
4.80290651321411

> <i_i_glide_confnum>
54

> <i_i_glide_posenum>
370

> <r_i_glide_eff_state_penalty>
0

> <s_user_duplicate_titles>
CHEMBL258_lig792,312520

> <s_m_subgroup_title>
dock_pv

> <s_m_subgroupid>
dock_pv

> <b_m_subgroup_collapsed>
1

$$$$
CHEMBL258_lig395
                    3D
 Schrodinger Suite 2021-1.
 38 42  0  0  1  0            999 V2000
   23.5049   36.4605   83.6894 C   0  0  0  0  0  0
   22.4670   37.0803   84.4070 C   0  0  0  0  0  0
   24.7888   36.9753   83.8852 N   0  0  0  0  0  0
   22.6919   38.1449   85.2226 N   0  0  0  0  0  0
   25.0639   38.0308   84.6807 C   0  0  0  0  0  0
   23.9542   38.6397   85.3509 C   0  0  0  0  0  0
   21.1542   36.6259   84.2204 N   0  0  0  0  0  0
   26.3899   38.5342   84.8522 C   0  0  0  0  0  0
   24.9654   35.2923   82.4296 N   0  0  0  0  0  0
   20.0163   36.8789   85.0079 C   0  0  0  0  0  0
   24.1772   39.7785   86.1741 C   0  0  0  0  0  0
   25.6253   36.2103   83.1008 C   0  0  0  0  0  0
   26.5381   39.6424   85.6727 C   0  0  0  0  0  0
   25.4831   40.2393   86.3016 C   0  0  0  0  0  0
   23.6949   35.4210   82.7432 C   0  0  0  0  0  0
   27.6879   40.2810   86.0099 O   0  0  0  0  0  0
   25.9434   41.2729   87.0545 O   0  0  0  0  0  0
   27.2936   41.4332   86.7021 C   0  0  0  0  0  0
   18.9503   37.6330   84.4849 C   0  0  0  0  0  0
   19.9091   36.3435   86.3086 C   0  0  0  0  0  0
   18.9499   38.2211   82.8610 Cl  0  0  0  0  0  0
   17.7482   37.4146   86.5672 C   0  0  0  0  0  0
   17.8305   37.9042   85.2706 C   0  0  0  0  0  0
   18.7699   36.6183   87.0725 C   0  0  0  0  0  0
   20.9534   35.3842   86.8736 C   0  0  0  0  0  0
   21.0615   35.8363   83.5989 H   0  0  0  0  0  0
   27.2402   38.0757   84.3691 H   0  0  0  0  0  0
   23.3475   40.2450   86.6833 H   0  0  0  0  0  0
   26.6898   36.3733   83.0466 H   0  0  0  0  0  0
   22.9499   34.7756   82.3066 H   0  0  0  0  0  0
   27.9132   41.5716   87.5884 H   0  0  0  0  0  0
   27.3976   42.2991   86.0444 H   0  0  0  0  0  0
   16.8759   37.6304   87.1673 H   0  0  0  0  0  0
   17.0152   38.4967   84.8785 H   0  0  0  0  0  0
   18.6637   36.2022   88.0633 H   0  0  0  0  0  0
   21.7814   35.9323   87.3242 H   0  0  0  0  0  0
   20.5215   34.6919   87.6008 H   0  0  0  0  0  0
   21.3529   34.7430   86.0866 H   0  0  0  0  0  0
  1  2  1  0  0  0
  1  3  1  0  0  0
  1 15  2  0  0  0
  2  4  2  0  0  0
  2  7  1  0  0  0
  3  5  1  0  0  0
  3 12  1  0  0  0
  4  6  1  0  0  0
  5  6  1  0  0  0
  5  8  2  0  0  0
  6 11  2  0  0  0
  7 10  1  0  0  0
  7 26  1  0  0  0
  8 13  1  0  0  0
  8 27  1  0  0  0
  9 15  1  0  0  0
  9 12  2  0  0  0
 10 19  1  0  0  0
 10 20  2  0  0  0
 11 14  1  0  0  0
 11 28  1  0  0  0
 12 29  1  0  0  0
 13 14  2  0  0  0
 13 16  1  0  0  0
 14 17  1  0  0  0
 15 30  1  0  0  0
 16 18  1  0  0  0
 17 18  1  0  0  0
 18 31  1  0  0  0
 18 32  1  0  0  0
 19 21  1  0  0  0
 19 23  2  0  0  0
 20 24  1  0  0  0
 20 25  1  0  0  0
 22 24  2  0  0  0
 22 23  1  0  0  0
 22 33  1  0  0  0
 23 34  1  0  0  0
 24 35  1  0  0  0
 25 36  1  0  0  0
 25 37  1  0  0  0
 25 38  1  0  0  0
M  END
> <s_m_entry_id>
4752

> <s_m_entry_name>
dock_pv.240

> <s_m_Source_Path>
/home/csk/Desktop/cluster/DUD-E-result/lck

> <s_m_Source_File>
dock_pv.maegz

> <i_m_Source_File_Index>
240

> <chembl_id>
CHEMBL320280

> <chembl_pref_name>
None

> <i_lp_mmshare_version>
53161

> <i_f3d_flags>
0

> <r_lp_tautomer_probability>
1

> <s_lp_Force_Field>
OPLS_2005

> <r_lp_Energy>
70.312476

> <b_lp_Chiralities_Consistent>
1

> <s_lp_Variant>
CHEMBL258_lig395-1

> <s_i_glide_gridfile>
glide-grid_2of2

> <i_i_glide_lignum>
436

> <i_i_glide_rotatable_bonds>
2

> <r_i_docking_score>
-7.03856177098038

> <r_i_glide_ligand_efficiency>
-0.281542470839215

> <r_i_glide_ligand_efficiency_sa>
-0.823235177910847

> <r_i_glide_ligand_efficiency_ln>
-1.66835006839773

> <r_i_glide_gscore>
-7.03856177098038

> <r_i_glide_lipo>
-2.54123707993948

> <r_i_glide_hbond>
-0.0548556980150501

> <r_i_glide_metal>
0

> <r_i_glide_rewards>
-2.61440920054629

> <r_i_glide_evdw>
-36.0357856750488

> <r_i_glide_ecoul>
-2.22029304504395

> <r_i_glide_erotb>
0.306773448029477

> <r_i_glide_esite>
0

> <r_i_glide_emodel>
-53.5103793799832

> <r_i_glide_energy>
-38.2560787200928

> <r_i_glide_einternal>
0.916997134685516

> <i_i_glide_confnum>
2

> <i_i_glide_posenum>
166

> <r_i_glide_eff_state_penalty>
0

> <s_user_duplicate_titles>
CHEMBL258_lig395,176462

> <s_m_subgroup_title>
dock_pv

> <s_m_subgroupid>
dock_pv

> <b_m_subgroup_collapsed>
1

$$$$
CHEMBL258_lig816
                    3D
 Schrodinger Suite 2021-1.
 36 39  0  0  1  0            999 V2000
   25.0644   35.8244   82.6250 C   0  0  0  0  0  0
   23.7352   35.4207   82.4871 C   0  0  0  0  0  0
   22.7432   35.8427   83.3046 N   0  0  0  0  0  0
   23.1019   36.7131   84.2845 C   0  0  0  0  0  0
   24.3604   37.1810   84.4871 N   0  0  0  0  0  0
   25.3419   36.7623   83.6337 C   0  0  0  0  0  0
   26.6150   37.3903   83.7756 N   0  0  0  0  0  0
   26.8543   38.5691   84.4672 C   0  0  0  0  0  0
   28.0788   39.0128   84.4199 N   0  0  0  0  0  0
   27.8626   37.0419   83.2465 C   0  0  0  0  0  0
   28.7351   38.0869   83.6644 C   0  0  0  0  0  0
   30.0872   38.0775   83.2873 C   0  0  0  0  0  0
   30.5435   37.0281   82.4879 C   0  0  0  0  0  0
   29.6922   35.9980   82.0979 C   0  0  0  0  0  0
   28.3505   35.9631   82.4870 C   0  0  0  0  0  0
   22.1258   37.1977   85.1647 N   0  0  0  0  0  0
   20.7476   37.3981   84.9737 C   0  0  0  0  0  0
   19.9154   37.4568   86.0941 C   0  0  0  0  0  0
   18.5574   37.7427   85.9496 C   0  0  0  0  0  0
   18.0176   37.9638   84.6834 C   0  0  0  0  0  0
   18.8357   37.8942   83.5592 C   0  0  0  0  0  0
   20.1973   37.6230   83.7050 C   0  0  0  0  0  0
   17.7500   37.8265   87.0494 O   0  0  0  0  0  0
   25.7914   35.5083   81.9015 H   0  0  0  0  0  0
   23.4389   34.7490   81.6947 H   0  0  0  0  0  0
   26.0410   39.0712   84.9739 H   0  0  0  0  0  0
   30.7562   38.8674   83.5989 H   0  0  0  0  0  0
   31.5778   37.0030   82.1737 H   0  0  0  0  0  0
   30.0832   35.1913   81.4940 H   0  0  0  0  0  0
   27.7524   35.1205   82.1842 H   0  0  0  0  0  0
   22.5177   37.7440   85.9175 H   0  0  0  0  0  0
   20.3222   37.3000   87.0817 H   0  0  0  0  0  0
   16.9659   38.1852   84.5743 H   0  0  0  0  0  0
   18.4183   38.0627   82.5760 H   0  0  0  0  0  0
   20.8275   37.6058   82.8285 H   0  0  0  0  0  0
   16.9671   38.3696   86.8839 H   0  0  0  0  0  0
  1  6  1  0  0  0
  1  2  2  0  0  0
  1 24  1  0  0  0
  2  3  1  0  0  0
  2 25  1  0  0  0
  3  4  2  0  0  0
  4 16  1  0  0  0
  4  5  1  0  0  0
  5  6  2  0  0  0
  6  7  1  0  0  0
  7  8  1  0  0  0
  7 10  1  0  0  0
  8  9  2  0  0  0
  8 26  1  0  0  0
  9 11  1  0  0  0
 10 11  2  0  0  0
 10 15  1  0  0  0
 11 12  1  0  0  0
 12 13  2  0  0  0
 12 27  1  0  0  0
 13 14  1  0  0  0
 13 28  1  0  0  0
 14 15  2  0  0  0
 14 29  1  0  0  0
 15 30  1  0  0  0
 16 17  1  0  0  0
 16 31  1  0  0  0
 17 18  2  0  0  0
 17 22  1  0  0  0
 18 19  1  0  0  0
 18 32  1  0  0  0
 19 20  2  0  0  0
 19 23  1  0  0  0
 20 21  1  0  0  0
 20 33  1  0  0  0
 21 22  2  0  0  0
 21 34  1  0  0  0
 22 35  1  0  0  0
 23 36  1  0  0  0
M  END
> <s_m_entry_id>
4753

> <s_m_entry_name>
dock_pv.241

> <s_m_Source_Path>
/home/csk/Desktop/cluster/DUD-E-result/lck

> <s_m_Source_File>
dock_pv.maegz

> <i_m_Source_File_Index>
241

> <chembl_id>
CHEMBL426538

> <chembl_pref_name>
None

> <i_lp_mmshare_version>
53161

> <i_f3d_flags>
0

> <r_lp_tautomer_probability>
1

> <s_lp_Force_Field>
OPLS_2005

> <r_lp_Energy>
10.086491

> <b_lp_Chiralities_Consistent>
1

> <s_lp_Variant>
CHEMBL258_lig816-1

> <s_i_glide_gridfile>
glide-grid_2of2

> <i_i_glide_lignum>
901

> <i_i_glide_rotatable_bonds>
4

> <r_i_docking_score>
-7.03580477962276

> <r_i_glide_ligand_efficiency>
-0.305904555635772

> <r_i_glide_ligand_efficiency_sa>
-0.869951863849495

> <r_i_glide_ligand_efficiency_ln>
-1.70132139286331

> <r_i_glide_gscore>
-7.03580477962276

> <r_i_glide_lipo>
-2.60636266671448

> <r_i_glide_hbond>
-0.148316923341329

> <r_i_glide_metal>
0

> <r_i_glide_rewards>
-2.65893612413449

> <r_i_glide_evdw>
-38.6150932312012

> <r_i_glide_ecoul>
-1.94833612442017

> <r_i_glide_erotb>
0.600816014790621

> <r_i_glide_esite>
0

> <r_i_glide_emodel>
-57.1011799174606

> <r_i_glide_energy>
-40.5634293556213

> <r_i_glide_einternal>
3.08335542678833

> <i_i_glide_confnum>
16

> <i_i_glide_posenum>
117

> <r_i_glide_eff_state_penalty>
0

> <s_user_duplicate_titles>
CHEMBL258_lig816

> <s_m_subgroup_title>
dock_pv

> <s_m_subgroupid>
dock_pv

> <b_m_subgroup_collapsed>
1

$$$$
CHEMBL258_lig640
                    3D
 Schrodinger Suite 2021-1.
 52 55  0  0  1  0            999 V2000
   27.1229   38.4483   83.9838 C   0  0  0  0  0  0
   27.8406   37.4955   83.2433 C   0  0  0  0  0  0
   27.1688   36.3927   82.6950 C   0  0  0  0  0  0
   25.7823   38.2091   84.3084 C   0  0  0  0  0  0
   25.0864   37.0954   83.7713 C   0  0  0  0  0  0
   25.7920   36.1992   82.9160 C   0  0  0  0  0  0
   25.1748   35.1624   82.2872 N   0  0  0  0  0  0
   23.8428   35.0466   82.4870 C   0  0  0  0  0  0
   23.0754   35.8211   83.2873 N   0  0  0  0  0  0
   23.6935   36.8259   83.9561 C   0  0  0  0  0  0
   22.9195   37.6548   84.7942 N   0  0  0  0  0  0
   21.5396   37.8540   85.0187 C   0  0  0  0  0  0
   20.5290   37.1442   84.3499 C   0  0  0  0  0  0
   19.1831   37.4231   84.5886 C   0  0  0  0  0  0
   18.8253   38.4141   85.4990 C   0  0  0  0  0  0
   19.8145   39.1286   86.1720 C   0  0  0  0  0  0
   21.1649   38.8488   85.9372 C   0  0  0  0  0  0
   29.1916   37.7164   83.0357 O   0  0  0  0  0  0
   27.7972   39.7875   84.3319 C   0  0  0  0  0  0
   27.3649   40.4106   85.5911 N   0  0  1  0  0  0
   29.9881   36.7141   82.4050 C   0  0  0  0  0  0
   19.3521   40.3640   87.2872 Cl  0  0  0  0  0  0
   22.1168   39.5546   86.5990 F   0  0  0  0  0  0
   28.4657   41.0021   86.3945 C   0  0  2  0  0  0
   27.9004   41.3775   87.7939 C   0  0  0  0  0  0
   26.7801   42.2582   87.6870 O   0  0  0  0  0  0
   25.7216   41.7270   86.8865 C   0  0  0  0  0  0
   26.2261   41.3443   85.4735 C   0  0  0  0  0  0
   29.1362   42.2275   85.6927 C   0  0  0  0  0  0
   30.1751   42.0071   84.8871 N   0  0  0  0  0  0
   28.7219   43.3730   85.8556 O   0  0  0  0  0  0
   27.6814   35.6787   82.0680 H   0  0  0  0  0  0
   25.2325   38.8987   84.9254 H   0  0  0  0  0  0
   23.3500   34.2256   81.9929 H   0  0  0  0  0  0
   23.4817   38.3179   85.3050 H   0  0  0  0  0  0
   20.7520   36.3696   83.6357 H   0  0  0  0  0  0
   18.4200   36.8663   84.0651 H   0  0  0  0  0  0
   17.7806   38.6313   85.6828 H   0  0  0  0  0  0
   27.6476   40.4783   83.5008 H   0  0  0  0  0  0
   28.8709   39.6107   84.3786 H   0  0  0  0  0  0
   31.0395   36.9952   82.4680 H   0  0  0  0  0  0
   29.8798   35.7401   82.8857 H   0  0  0  0  0  0
   29.7417   36.6138   81.3475 H   0  0  0  0  0  0
   29.2632   40.2666   86.5033 H   0  0  0  0  0  0
   27.5690   40.4774   88.3108 H   0  0  0  0  0  0
   28.6661   41.8363   88.4210 H   0  0  0  0  0  0
   25.2723   40.8655   87.3833 H   0  0  0  0  0  0
   24.9383   42.4801   86.8053 H   0  0  0  0  0  0
   25.3981   40.9039   84.9240 H   0  0  0  0  0  0
   26.4989   42.2241   84.8890 H   0  0  0  0  0  0
   30.5496   42.7955   84.3622 H   0  0  0  0  0  0
   30.5572   41.0838   84.7570 H   0  0  0  0  0  0
  1  2  2  0  0  0
  1 19  1  0  0  0
  1  4  1  0  0  0
  2 18  1  0  0  0
  2  3  1  0  0  0
  3  6  2  0  0  0
  3 32  1  0  0  0
  4  5  2  0  0  0
  4 33  1  0  0  0
  5 10  1  0  0  0
  5  6  1  0  0  0
  6  7  1  0  0  0
  7  8  2  0  0  0
  8  9  1  0  0  0
  8 34  1  0  0  0
  9 10  2  0  0  0
 10 11  1  0  0  0
 11 12  1  0  0  0
 11 35  1  0  0  0
 12 17  2  0  0  0
 12 13  1  0  0  0
 13 14  2  0  0  0
 13 36  1  0  0  0
 14 15  1  0  0  0
 14 37  1  0  0  0
 15 16  2  0  0  0
 15 38  1  0  0  0
 16 17  1  0  0  0
 16 22  1  0  0  0
 17 23  1  0  0  0
 18 21  1  0  0  0
 19 20  1  0  0  0
 19 39  1  0  0  0
 19 40  1  0  0  0
 20 24  1  0  0  0
 20 28  1  0  0  0
 21 41  1  0  0  0
 21 42  1  0  0  0
 21 43  1  0  0  0
 24 25  1  0  0  0
 24 29  1  0  0  0
 24 44  1  0  0  0
 25 26  1  0  0  0
 25 45  1  0  0  0
 25 46  1  0  0  0
 26 27  1  0  0  0
 27 28  1  0  0  0
 27 47  1  0  0  0
 27 48  1  0  0  0
 28 49  1  0  0  0
 28 50  1  0  0  0
 29 30  1  0  0  0
 29 31  2  0  0  0
 30 51  1  0  0  0
 30 52  1  0  0  0
M  END
> <s_m_entry_id>
4754

> <s_m_entry_name>
dock_pv.242

> <s_m_Source_Path>
/home/csk/Desktop/cluster/DUD-E-result/lck

> <s_m_Source_File>
dock_pv.maegz

> <i_m_Source_File_Index>
242

> <chembl_id>
CHEMBL207674

> <chembl_pref_name>
None

> <i_lp_mmshare_version>
53161

> <i_f3d_flags>
0

> <r_lp_tautomer_probability>
0.999978000241998

> <s_lp_Force_Field>
OPLS_2005

> <r_lp_Energy>
33.944846

> <b_lp_Chiralities_Consistent>
1

> <s_lp_Variant>
CHEMBL258_lig640-1

> <s_i_glide_gridfile>
glide-grid_2of2

> <i_i_glide_lignum>
721

> <i_i_glide_rotatable_bonds>
6

> <r_i_docking_score>
-7.03574573404896

> <r_i_glide_ligand_efficiency>
-0.226959539808031

> <r_i_glide_ligand_efficiency_sa>
-0.712966306412497

> <r_i_glide_ligand_efficiency_ln>
-1.58677628273984

> <r_i_glide_gscore>
-7.03574573404896

> <r_i_glide_lipo>
-2.7668927403312

> <r_i_glide_hbond>
-0.354017900938962

> <r_i_glide_metal>
0

> <r_i_glide_rewards>
-1.59886487433555

> <r_i_glide_evdw>
-36.6673049926758

> <r_i_glide_ecoul>
-5.43600606918335

> <r_i_glide_erotb>
0.402643866664698

> <r_i_glide_esite>
-0.069847925096648

> <r_i_glide_emodel>
-59.9385144668858

> <r_i_glide_energy>
-42.1033110618591

> <r_i_glide_einternal>
3.41828918457031

> <i_i_glide_confnum>
18

> <i_i_glide_posenum>
221

> <r_i_glide_eff_state_penalty>
0

> <s_user_duplicate_titles>
CHEMBL258_lig640

> <s_m_subgroup_title>
dock_pv

> <s_m_subgroupid>
dock_pv

> <b_m_subgroup_collapsed>
1

$$$$
CHEMBL258_lig536
                    3D
 Schrodinger Suite 2021-1.
 42 45  0  0  1  0            999 V2000
   25.9875   37.6765   83.9336 C   0  0  0  0  0  0
   22.3816   37.1757   84.4046 C   0  0  0  0  0  0
   24.5700   37.5456   84.1988 C   0  0  0  0  0  0
   26.7639   36.9186   82.9831 C   0  0  0  0  0  0
   23.5385   36.6709   83.8163 N   0  0  0  0  0  0
   22.5922   38.2034   85.1810 N   0  0  0  0  0  0
   26.7123   38.6753   84.6764 C   0  0  0  0  0  0
   28.1028   37.0213   82.8876 N   0  0  0  0  0  0
   21.1411   36.6210   84.1819 N   0  0  0  0  0  0
   23.9258   38.4491   85.0818 C   0  0  0  0  0  0
   28.1312   38.7958   84.5118 C   0  0  0  0  0  0
   28.7699   37.9240   83.6283 C   0  0  0  0  0  0
   19.9949   36.8913   84.9506 C   0  0  0  0  0  0
   26.0016   39.5350   85.5590 C   0  0  0  0  0  0
   26.1502   36.1072   82.0864 O   0  0  0  0  0  0
   24.6318   39.4476   85.7442 C   0  0  0  0  0  0
   19.8727   36.3463   86.2399 C   0  0  0  0  0  0
   18.9360   37.6483   84.4237 C   0  0  0  0  0  0
   23.5702   35.5089   82.9335 C   0  0  0  0  0  0
   18.9493   38.2211   82.7955 Cl  0  0  0  0  0  0
   21.0850   35.2873   86.8870 Cl  0  0  0  0  0  0
   28.9107   39.8521   85.3018 C   0  0  0  0  0  0
   30.2720   37.9403   83.3908 C   0  0  0  0  0  0
   17.7211   37.4206   86.5002 C   0  0  0  0  0  0
   18.7378   36.6159   87.0063 C   0  0  0  0  0  0
   17.8140   37.9205   85.2055 C   0  0  0  0  0  0
   21.0324   35.8183   83.5810 H   0  0  0  0  0  0
   26.5286   40.2995   86.1071 H   0  0  0  0  0  0
   26.8070   35.8192   81.4437 H   0  0  0  0  0  0
   24.1273   40.1287   86.4156 H   0  0  0  0  0  0
   22.6760   34.8993   83.0504 H   0  0  0  0  0  0
   23.6341   35.8199   81.8936 H   0  0  0  0  0  0
   24.4279   34.9047   83.2042 H   0  0  0  0  0  0
   28.7603   39.7128   86.3732 H   0  0  0  0  0  0
   28.5650   40.8530   85.0374 H   0  0  0  0  0  0
   29.9857   39.8297   85.1289 H   0  0  0  0  0  0
   30.5749   38.8855   82.9384 H   0  0  0  0  0  0
   30.8077   37.8208   84.3321 H   0  0  0  0  0  0
   30.5926   37.1349   82.7278 H   0  0  0  0  0  0
   16.8484   37.6380   87.0980 H   0  0  0  0  0  0
   18.6345   36.1900   87.9933 H   0  0  0  0  0  0
   17.0008   38.5167   84.8132 H   0  0  0  0  0  0
  1  3  2  0  0  0
  1  4  1  0  0  0
  1  7  1  0  0  0
  2  5  1  0  0  0
  2  9  1  0  0  0
  2  6  2  0  0  0
  3  5  1  0  0  0
  3 10  1  0  0  0
  4  8  2  0  0  0
  4 15  1  0  0  0
  5 19  1  0  0  0
  6 10  1  0  0  0
  7 11  1  0  0  0
  7 14  2  0  0  0
  8 12  1  0  0  0
  9 13  1  0  0  0
  9 27  1  0  0  0
 10 16  2  0  0  0
 11 12  2  0  0  0
 11 22  1  0  0  0
 12 23  1  0  0  0
 13 17  2  0  0  0
 13 18  1  0  0  0
 14 16  1  0  0  0
 14 28  1  0  0  0
 15 29  1  0  0  0
 16 30  1  0  0  0
 17 21  1  0  0  0
 17 25  1  0  0  0
 18 20  1  0  0  0
 18 26  2  0  0  0
 19 31  1  0  0  0
 19 32  1  0  0  0
 19 33  1  0  0  0
 22 34  1  0  0  0
 22 35  1  0  0  0
 22 36  1  0  0  0
 23 37  1  0  0  0
 23 38  1  0  0  0
 23 39  1  0  0  0
 24 26  1  0  0  0
 24 25  2  0  0  0
 24 40  1  0  0  0
 25 41  1  0  0  0
 26 42  1  0  0  0
M  END
> <s_m_entry_id>
4755

> <s_m_entry_name>
dock_pv.243

> <s_m_Source_Path>
/home/csk/Desktop/cluster/DUD-E-result/lck

> <s_m_Source_File>
dock_pv.maegz

> <i_m_Source_File_Index>
243

> <chembl_id>
CHEMBL28912

> <chembl_pref_name>
None

> <i_lp_mmshare_version>
53161

> <i_f3d_flags>
0

> <r_lp_tautomer_probability>
1

> <s_lp_Force_Field>
OPLS_2005

> <r_lp_Energy>
28.034696

> <b_lp_Chiralities_Consistent>
1

> <s_lp_Variant>
CHEMBL258_lig536-1

> <s_i_glide_gridfile>
glide-grid_2of2

> <i_i_glide_lignum>
608

> <i_i_glide_rotatable_bonds>
3

> <r_i_docking_score>
-7.03546675953006

> <r_i_glide_ligand_efficiency>
-0.270594875366541

> <r_i_glide_ligand_efficiency_sa>
-0.801636253533957

> <r_i_glide_ligand_efficiency_ln>
-1.65225628322628

> <r_i_glide_gscore>
-7.03546675953006

> <r_i_glide_lipo>
-3.17632855004298

> <r_i_glide_hbond>
-0.316540057632474

> <r_i_glide_metal>
0

> <r_i_glide_rewards>
-1.23579907695661

> <r_i_glide_evdw>
-39.3776741027832

> <r_i_glide_ecoul>
-3.98393034934998

> <r_i_glide_erotb>
0.259674182643658

> <r_i_glide_esite>
0

> <r_i_glide_emodel>
-60.7614724029541

> <r_i_glide_energy>
-43.3616044521332

> <r_i_glide_einternal>
1.47296690940857

> <i_i_glide_confnum>
1

> <i_i_glide_posenum>
148

> <r_i_glide_eff_state_penalty>
0

> <s_user_duplicate_titles>
CHEMBL258_lig536,37285

> <s_m_subgroup_title>
dock_pv

> <s_m_subgroupid>
dock_pv

> <b_m_subgroup_collapsed>
1

$$$$
CHEMBL258_lig921
                    3D
 Schrodinger Suite 2021-1.
 42 44  0  0  1  0            999 V2000
   21.1997   37.3335   86.7113 C   0  0  0  0  0  0
   19.9915   37.7270   86.1369 C   0  0  0  0  0  0
   19.7878   37.6192   84.7500 C   0  0  0  0  0  0
   20.8366   37.1166   83.9613 C   0  0  0  0  0  0
   22.0507   36.7260   84.5295 C   0  0  0  0  0  0
   22.2192   36.8256   85.9103 C   0  0  0  0  0  0
   23.0666   36.2206   83.7043 N   0  0  0  0  0  0
   24.4314   36.5353   83.6598 C   0  0  0  0  0  0
   24.8941   37.5849   84.3896 N   0  0  0  0  0  0
   26.1811   37.9645   84.1867 C   0  0  0  0  0  0
   27.0139   37.2884   83.2878 C   0  0  0  0  0  0
   26.4596   36.2071   82.5992 C   0  0  0  0  0  0
   25.1699   35.8176   82.7736 N   0  0  0  0  0  0
   18.4887   38.0414   84.0976 C   0  0  0  0  0  0
   17.4287   38.2198   84.8838 N   0  0  0  0  0  0
   18.3991   38.2210   82.8866 O   0  0  0  0  0  0
   26.6037   39.0452   84.9669 N   0  0  0  0  0  0
   27.7240   39.8941   84.9295 C   0  0  0  0  0  0
   28.1449   40.5225   86.1172 C   0  0  0  0  0  0
   29.2159   41.4211   86.0869 C   0  0  0  0  0  0
   29.8598   41.7104   84.8877 C   0  0  0  0  0  0
   29.4449   41.0980   83.7093 C   0  0  0  0  0  0
   28.3820   40.1938   83.7280 C   0  0  0  0  0  0
   30.0691   41.4209   82.5340 O   0  0  0  0  0  0
   27.4574   40.2532   87.4524 C   0  0  0  0  0  0
   21.3471   37.4211   87.7774 H   0  0  0  0  0  0
   19.2236   38.1201   86.7875 H   0  0  0  0  0  0
   20.7190   37.0390   82.8908 H   0  0  0  0  0  0
   23.1446   36.5065   86.3599 H   0  0  0  0  0  0
   22.7800   35.5107   83.0469 H   0  0  0  0  0  0
   28.0495   37.5549   83.1483 H   0  0  0  0  0  0
   27.0501   35.6354   81.8965 H   0  0  0  0  0  0
   16.5508   38.5050   84.4789 H   0  0  0  0  0  0
   17.5026   38.1649   85.8871 H   0  0  0  0  0  0
   25.9120   39.3225   85.6458 H   0  0  0  0  0  0
   29.5510   41.9044   86.9932 H   0  0  0  0  0  0
   30.6743   42.4208   84.8764 H   0  0  0  0  0  0
   28.0456   39.7639   82.7978 H   0  0  0  0  0  0
   30.5268   42.2773   82.6163 H   0  0  0  0  0  0
   27.8780   40.8550   88.2584 H   0  0  0  0  0  0
   26.3925   40.4800   87.3872 H   0  0  0  0  0  0
   27.5537   39.2001   87.7188 H   0  0  0  0  0  0
  1  6  1  0  0  0
  1  2  2  0  0  0
  1 26  1  0  0  0
  2  3  1  0  0  0
  2 27  1  0  0  0
  3 14  1  0  0  0
  3  4  2  0  0  0
  4  5  1  0  0  0
  4 28  1  0  0  0
  5  7  1  0  0  0
  5  6  2  0  0  0
  6 29  1  0  0  0
  7  8  1  0  0  0
  7 30  1  0  0  0
  8 13  1  0  0  0
  8  9  2  0  0  0
  9 10  1  0  0  0
 10 17  1  0  0  0
 10 11  2  0  0  0
 11 12  1  0  0  0
 11 31  1  0  0  0
 12 13  2  0  0  0
 12 32  1  0  0  0
 14 15  1  0  0  0
 14 16  2  0  0  0
 15 33  1  0  0  0
 15 34  1  0  0  0
 17 18  1  0  0  0
 17 35  1  0  0  0
 18 19  2  0  0  0
 18 23  1  0  0  0
 19 20  1  0  0  0
 19 25  1  0  0  0
 20 21  2  0  0  0
 20 36  1  0  0  0
 21 22  1  0  0  0
 21 37  1  0  0  0
 22 23  2  0  0  0
 22 24  1  0  0  0
 23 38  1  0  0  0
 24 39  1  0  0  0
 25 40  1  0  0  0
 25 41  1  0  0  0
 25 42  1  0  0  0
M  END
> <s_m_entry_id>
4756

> <s_m_entry_name>
dock_pv.244

> <s_m_Source_Path>
/home/csk/Desktop/cluster/DUD-E-result/lck

> <s_m_Source_File>
dock_pv.maegz

> <i_m_Source_File_Index>
244

> <chembl_id>
CHEMBL249097

> <chembl_pref_name>
None

> <i_lp_mmshare_version>
53161

> <i_f3d_flags>
0

> <r_lp_tautomer_probability>
0.999999624730965

> <s_lp_Force_Field>
OPLS_2005

> <r_lp_Energy>
9.403193

> <b_lp_Chiralities_Consistent>
1

> <s_lp_Variant>
CHEMBL258_lig921-1

> <s_i_glide_gridfile>
glide-grid_2of2

> <i_i_glide_lignum>
1009

> <i_i_glide_rotatable_bonds>
6

> <r_i_docking_score>
-7.0293406174004

> <r_i_glide_ligand_efficiency>
-0.281173624696016

> <r_i_glide_ligand_efficiency_sa>
-0.822156665246618

> <r_i_glide_ligand_efficiency_ln>
-1.6661643786636

> <r_i_glide_gscore>
-7.0293406174004

> <r_i_glide_lipo>
-2.15650482074236

> <r_i_glide_hbond>
-0.456

> <r_i_glide_metal>
0

> <r_i_glide_rewards>
-1.88439604803428

> <r_i_glide_evdw>
-40.4458389282227

> <r_i_glide_ecoul>
-7.72346782684326

> <r_i_glide_erotb>
0.671222591772614

> <r_i_glide_esite>
-0.0228502199587546

> <r_i_glide_emodel>
-65.5176067752193

> <r_i_glide_energy>
-48.1693067550659

> <r_i_glide_einternal>
6.02326774597168

> <i_i_glide_confnum>
14

> <i_i_glide_posenum>
304

> <r_i_glide_eff_state_penalty>
0

> <s_user_duplicate_titles>
CHEMBL258_lig921,413815

> <s_m_subgroup_title>
dock_pv

> <s_m_subgroupid>
dock_pv

> <b_m_subgroup_collapsed>
1

$$$$
CHEMBL258_lig407
                    3D
 Schrodinger Suite 2021-1.
 36 39  0  0  1  0            999 V2000
   24.2667   36.4793   83.6861 C   0  0  0  0  0  0
   23.3601   37.0517   84.5907 C   0  0  0  0  0  0
   25.5146   37.0984   83.5810 N   0  0  0  0  0  0
   23.6592   38.1799   85.2874 N   0  0  0  0  0  0
   25.8689   38.1953   84.2835 C   0  0  0  0  0  0
   22.1149   36.4376   84.7714 N   0  0  0  0  0  0
   24.8883   38.7484   85.1504 C   0  0  0  0  0  0
   25.5027   35.3776   82.1570 N   0  0  0  0  0  0
   20.9437   36.9027   85.4000 C   0  0  0  0  0  0
   26.2174   36.3672   82.6467 C   0  0  0  0  0  0
   24.3287   35.4210   82.7462 C   0  0  0  0  0  0
   29.8078   41.0181   84.7535 N   0  0  0  0  0  0
   28.7585   40.5390   84.8361 C   0  0  0  0  0  0
   27.1507   38.7959   84.1786 C   0  0  0  0  0  0
   20.2964   38.0698   84.9550 C   0  0  0  0  0  0
   20.3189   36.1155   86.3846 C   0  0  0  0  0  0
   25.2095   39.9046   85.8959 C   0  0  0  0  0  0
   27.4395   39.9317   84.9366 C   0  0  0  0  0  0
   20.9501   39.0326   83.6871 Cl  0  0  0  0  0  0
   26.4750   40.4819   85.7849 C   0  0  0  0  0  0
   18.4581   37.6733   86.4666 C   0  0  0  0  0  0
   19.0748   38.4611   85.5031 C   0  0  0  0  0  0
   19.0732   36.4999   86.8915 C   0  0  0  0  0  0
   20.9484   34.8251   86.9000 C   0  0  0  0  0  0
   22.0008   35.5660   84.2788 H   0  0  0  0  0  0
   27.2266   36.6065   82.3501 H   0  0  0  0  0  0
   23.5532   34.7131   82.4868 H   0  0  0  0  0  0
   27.8975   38.3719   83.5215 H   0  0  0  0  0  0
   24.4656   40.3293   86.5543 H   0  0  0  0  0  0
   26.6989   41.3645   86.3690 H   0  0  0  0  0  0
   17.5012   37.9706   86.8741 H   0  0  0  0  0  0
   18.5873   39.3649   85.1660 H   0  0  0  0  0  0
   18.5792   35.8914   87.6357 H   0  0  0  0  0  0
   20.2204   34.2024   87.4203 H   0  0  0  0  0  0
   21.3490   34.2211   86.0869 H   0  0  0  0  0  0
   21.7739   35.0463   87.5768 H   0  0  0  0  0  0
  1  2  1  0  0  0
  1  3  1  0  0  0
  1 11  2  0  0  0
  2  4  2  0  0  0
  2  6  1  0  0  0
  3  5  1  0  0  0
  3 10  1  0  0  0
  4  7  1  0  0  0
  5  7  1  0  0  0
  5 14  2  0  0  0
  6  9  1  0  0  0
  6 25  1  0  0  0
  7 17  2  0  0  0
  8 11  1  0  0  0
  8 10  2  0  0  0
  9 15  1  0  0  0
  9 16  2  0  0  0
 10 26  1  0  0  0
 11 27  1  0  0  0
 12 13  3  0  0  0
 13 18  1  0  0  0
 14 18  1  0  0  0
 14 28  1  0  0  0
 15 19  1  0  0  0
 15 22  2  0  0  0
 16 23  1  0  0  0
 16 24  1  0  0  0
 17 20  1  0  0  0
 17 29  1  0  0  0
 18 20  2  0  0  0
 20 30  1  0  0  0
 21 23  2  0  0  0
 21 22  1  0  0  0
 21 31  1  0  0  0
 22 32  1  0  0  0
 23 33  1  0  0  0
 24 34  1  0  0  0
 24 35  1  0  0  0
 24 36  1  0  0  0
M  END
> <s_m_entry_id>
4757

> <s_m_entry_name>
dock_pv.245

> <s_m_Source_Path>
/home/csk/Desktop/cluster/DUD-E-result/lck

> <s_m_Source_File>
dock_pv.maegz

> <i_m_Source_File_Index>
245

> <chembl_id>
CHEMBL423321

> <chembl_pref_name>
None

> <i_lp_mmshare_version>
53161

> <i_f3d_flags>
0

> <r_lp_tautomer_probability>
1

> <s_lp_Force_Field>
OPLS_2005

> <r_lp_Energy>
58.35705

> <b_lp_Chiralities_Consistent>
1

> <s_lp_Variant>
CHEMBL258_lig407-1

> <s_i_glide_gridfile>
glide-grid_2of2

> <i_i_glide_lignum>
449

> <i_i_glide_rotatable_bonds>
2

> <r_i_docking_score>
-7.02523571214844

> <r_i_glide_ligand_efficiency>
-0.292718154672852

> <r_i_glide_ligand_efficiency_sa>
-0.844345264701737

> <r_i_glide_ligand_efficiency_ln>
-1.68146127297823

> <r_i_glide_gscore>
-7.02523571214844

> <r_i_glide_lipo>
-2.47463408612442

> <r_i_glide_hbond>
-0.198223148395391

> <r_i_glide_metal>
0

> <r_i_glide_rewards>
-2.68483053658691

> <r_i_glide_evdw>
-37.2716255187988

> <r_i_glide_ecoul>
-0.949368357658386

> <r_i_glide_erotb>
0.338438588546983

> <r_i_glide_esite>
0

> <r_i_glide_emodel>
-53.5311134233308

> <r_i_glide_energy>
-38.2209938764572

> <r_i_glide_einternal>
1.74687397480011

> <i_i_glide_confnum>
4

> <i_i_glide_posenum>
114

> <r_i_glide_eff_state_penalty>
0

> <s_user_duplicate_titles>
CHEMBL258_lig407,176361

> <s_m_subgroup_title>
dock_pv

> <s_m_subgroupid>
dock_pv

> <b_m_subgroup_collapsed>
1

$$$$
CHEMBL258_lig836
                    3D
 Schrodinger Suite 2021-1.
 39 42  0  0  1  0            999 V2000
   23.0358   36.0702   83.3981 C   0  0  0  0  0  0
   23.8039   35.3458   82.4871 C   0  0  0  0  0  0
   25.1423   35.5073   82.3594 N   0  0  0  0  0  0
   25.7099   36.4598   83.1385 C   0  0  0  0  0  0
   25.0472   37.2005   84.0686 N   0  0  0  0  0  0
   23.6964   37.0214   84.1879 C   0  0  0  0  0  0
   22.9671   37.9690   85.1132 C   0  0  0  0  0  0
   23.6036   38.9834   85.6787 N   0  0  0  0  0  0
   22.6808   39.7684   86.3768 O   0  0  0  0  0  0
   21.5672   38.0102   85.4695 C   0  0  0  0  0  0
   21.4600   39.1928   86.2296 C   0  0  0  0  0  0
   20.2534   39.6815   86.7433 C   0  0  0  0  0  0
   19.1098   38.9258   86.4866 C   0  0  0  0  0  0
   19.1812   37.7321   85.7659 C   0  0  0  0  0  0
   20.3928   37.2561   85.2536 C   0  0  0  0  0  0
   27.0699   36.6787   82.8868 N   0  0  0  0  0  0
   27.9966   37.6595   83.2872 C   0  0  0  0  0  0
   27.5974   38.8977   83.8112 C   0  0  0  0  0  0
   28.5413   39.8651   84.1481 C   0  0  0  0  0  0
   29.8978   39.6060   83.9727 C   0  0  0  0  0  0
   30.3099   38.3871   83.4397 C   0  0  0  0  0  0
   29.3687   37.4207   83.0767 C   0  0  0  0  0  0
   29.8664   36.1310   82.4253 C   0  0  0  0  0  0
   28.1329   41.1017   84.6406 N   0  0  0  0  0  0
   21.9726   35.9148   83.4367 H   0  0  0  0  0  0
   23.3500   34.6212   81.8311 H   0  0  0  0  0  0
   20.2103   40.6061   87.3005 H   0  0  0  0  0  0
   18.1513   39.2657   86.8524 H   0  0  0  0  0  0
   18.2757   37.1653   85.5987 H   0  0  0  0  0  0
   20.3924   36.3254   84.7082 H   0  0  0  0  0  0
   27.4332   36.0521   82.1844 H   0  0  0  0  0  0
   26.5538   39.1370   83.9311 H   0  0  0  0  0  0
   30.6336   40.3525   84.2327 H   0  0  0  0  0  0
   31.3653   38.2087   83.2891 H   0  0  0  0  0  0
   29.4077   35.2559   82.8874 H   0  0  0  0  0  0
   29.6001   36.1115   81.3672 H   0  0  0  0  0  0
   30.9466   36.0074   82.5137 H   0  0  0  0  0  0
   27.1549   41.2605   84.8372 H   0  0  0  0  0  0
   28.8326   41.7911   84.8821 H   0  0  0  0  0  0
  1  6  1  0  0  0
  1  2  2  0  0  0
  1 25  1  0  0  0
  2  3  1  0  0  0
  2 26  1  0  0  0
  3  4  2  0  0  0
  4 16  1  0  0  0
  4  5  1  0  0  0
  5  6  2  0  0  0
  6  7  1  0  0  0
  7  8  2  0  0  0
  7 10  1  0  0  0
  8  9  1  0  0  0
  9 11  1  0  0  0
 10 15  1  0  0  0
 10 11  2  0  0  0
 11 12  1  0  0  0
 12 13  2  0  0  0
 12 27  1  0  0  0
 13 14  1  0  0  0
 13 28  1  0  0  0
 14 15  2  0  0  0
 14 29  1  0  0  0
 15 30  1  0  0  0
 16 17  1  0  0  0
 16 31  1  0  0  0
 17 18  2  0  0  0
 17 22  1  0  0  0
 18 19  1  0  0  0
 18 32  1  0  0  0
 19 20  2  0  0  0
 19 24  1  0  0  0
 20 21  1  0  0  0
 20 33  1  0  0  0
 21 22  2  0  0  0
 21 34  1  0  0  0
 22 23  1  0  0  0
 23 35  1  0  0  0
 23 36  1  0  0  0
 23 37  1  0  0  0
 24 38  1  0  0  0
 24 39  1  0  0  0
M  END
> <s_m_entry_id>
4758

> <s_m_entry_name>
dock_pv.246

> <s_m_Source_Path>
/home/csk/Desktop/cluster/DUD-E-result/lck

> <s_m_Source_File>
dock_pv.maegz

> <i_m_Source_File_Index>
246

> <chembl_id>
CHEMBL220924

> <chembl_pref_name>
None

> <i_lp_mmshare_version>
53161

> <i_f3d_flags>
0

> <r_lp_tautomer_probability>
0.999999987636

> <s_lp_Force_Field>
OPLS_2005

> <r_lp_Energy>
20.247137

> <b_lp_Chiralities_Consistent>
1

> <s_lp_Variant>
CHEMBL258_lig836-1

> <s_i_glide_gridfile>
glide-grid_2of2

> <i_i_glide_lignum>
921

> <i_i_glide_rotatable_bonds>
3

> <r_i_docking_score>
-7.02458006458867

> <r_i_glide_ligand_efficiency>
-0.292690836024528

> <r_i_glide_ligand_efficiency_sa>
-0.844266464084208

> <r_i_glide_ligand_efficiency_ln>
-1.68130434643147

> <r_i_glide_gscore>
-7.02458006458867

> <r_i_glide_lipo>
-2.67663428645953

> <r_i_glide_hbond>
0

> <r_i_glide_metal>
0

> <r_i_glide_rewards>
-2.53161577163247

> <r_i_glide_evdw>
-34.6493606567383

> <r_i_glide_ecoul>
-4.25881099700928

> <r_i_glide_erotb>
0.554959675891635

> <r_i_glide_esite>
0

> <r_i_glide_emodel>
-54.7925180167856

> <r_i_glide_energy>
-38.9081716537476

> <r_i_glide_einternal>
1.00516963005066

> <i_i_glide_confnum>
4

> <i_i_glide_posenum>
251

> <r_i_glide_eff_state_penalty>
0

> <s_user_duplicate_titles>
CHEMBL258_lig836,368743

> <s_m_subgroup_title>
dock_pv

> <s_m_subgroupid>
dock_pv

> <b_m_subgroup_collapsed>
1

$$$$
CHEMBL258_lig174
                    3D
 Schrodinger Suite 2021-1.
 38 40  0  0  1  0            999 V2000
   23.3202   39.1879   85.4625 C   0  0  0  0  0  0
   22.6503   40.0325   86.4568 C   0  0  0  0  0  0
   21.2905   39.8270   86.6270 O   0  0  0  0  0  0
   24.7224   39.3847   85.0915 C   0  0  0  0  0  0
   22.5940   38.2475   84.8050 C   0  0  0  0  0  0
   20.5302   38.9164   85.9049 C   0  0  0  0  0  0
   19.1418   38.8622   86.0870 C   0  0  0  0  0  0
   21.1562   38.0824   84.9774 C   0  0  0  0  0  0
   25.3873   38.2525   84.7562 N   0  0  0  0  0  0
   26.6899   38.1094   84.2409 C   0  0  0  0  0  0
   23.1592   40.9198   87.1942 N   0  0  0  0  0  0
   18.3906   37.9575   85.3109 C   0  0  0  0  0  0
   26.9500   37.0387   83.3565 C   0  0  0  0  0  0
   25.2367   40.5030   85.0478 O   0  0  0  0  0  0
   20.4080   37.2003   84.2020 C   0  0  0  0  0  0
   19.0275   37.1474   84.3683 C   0  0  0  0  0  0
   18.5500   39.6965   87.0080 O   0  0  0  0  0  0
   17.0307   37.8210   85.4379 O   0  0  0  0  0  0
   25.8247   36.0734   82.9509 C   0  0  0  0  0  0
   26.1960   35.0210   82.0870 O   0  0  0  0  0  0
   27.7327   38.9708   84.6189 C   0  0  0  0  0  0
   28.2611   36.8522   82.8870 C   0  0  0  0  0  0
   29.2896   37.7050   83.2870 C   0  0  0  0  0  0
   29.0242   38.7702   84.1402 C   0  0  0  0  0  0
   23.0564   37.6248   84.0526 H   0  0  0  0  0  0
   24.8542   37.3993   84.7922 H   0  0  0  0  0  0
   22.4480   41.3451   87.7696 H   0  0  0  0  0  0
   20.8824   36.5634   83.4687 H   0  0  0  0  0  0
   18.4510   36.4659   83.7598 H   0  0  0  0  0  0
   17.5917   39.8210   86.8870 H   0  0  0  0  0  0
   16.5851   38.5163   85.9416 H   0  0  0  0  0  0
   25.4112   35.6189   83.8523 H   0  0  0  0  0  0
   25.0074   36.6210   82.4870 H   0  0  0  0  0  0
   26.7085   35.3905   81.3567 H   0  0  0  0  0  0
   27.5645   39.7844   85.3087 H   0  0  0  0  0  0
   28.5055   36.0341   82.2247 H   0  0  0  0  0  0
   30.2950   37.5408   82.9268 H   0  0  0  0  0  0
   29.8223   39.4302   84.4482 H   0  0  0  0  0  0
  1  2  1  0  0  0
  1  4  1  0  0  0
  1  5  2  0  0  0
  2  3  1  0  0  0
  2 11  2  0  0  0
  3  6  1  0  0  0
  4  9  1  0  0  0
  4 14  2  0  0  0
  5  8  1  0  0  0
  5 25  1  0  0  0
  6  8  1  0  0  0
  6  7  2  0  0  0
  7 17  1  0  0  0
  7 12  1  0  0  0
  8 15  2  0  0  0
  9 10  1  0  0  0
  9 26  1  0  0  0
 10 13  1  0  0  0
 10 21  2  0  0  0
 11 27  1  0  0  0
 12 16  2  0  0  0
 12 18  1  0  0  0
 13 19  1  0  0  0
 13 22  2  0  0  0
 15 16  1  0  0  0
 15 28  1  0  0  0
 16 29  1  0  0  0
 17 30  1  0  0  0
 18 31  1  0  0  0
 19 20  1  0  0  0
 19 32  1  0  0  0
 19 33  1  0  0  0
 20 34  1  0  0  0
 21 24  1  0  0  0
 21 35  1  0  0  0
 22 23  1  0  0  0
 22 36  1  0  0  0
 23 24  2  0  0  0
 23 37  1  0  0  0
 24 38  1  0  0  0
M  END
> <s_m_entry_id>
4759

> <s_m_entry_name>
dock_pv.247

> <s_m_Source_Path>
/home/csk/Desktop/cluster/DUD-E-result/lck

> <s_m_Source_File>
dock_pv.maegz

> <i_m_Source_File_Index>
247

> <chembl_id>
CHEMBL311194

> <chembl_pref_name>
None

> <i_lp_mmshare_version>
53161

> <i_f3d_flags>
0

> <r_lp_tautomer_probability>
1

> <s_lp_Force_Field>
OPLS_2005

> <r_lp_Energy>
40.415068

> <b_lp_Chiralities_Consistent>
1

> <s_lp_Variant>
CHEMBL258_lig174-1

> <s_i_glide_gridfile>
glide-grid_2of2

> <i_i_glide_lignum>
202

> <i_i_glide_rotatable_bonds>
7

> <r_i_docking_score>
-7.02226312953667

> <r_i_glide_ligand_efficiency>
-0.292594297064028

> <r_i_glide_ligand_efficiency_sa>
-0.843987997535905

> <r_i_glide_ligand_efficiency_ln>
-1.68074979755631

> <r_i_glide_gscore>
-7.02226312953667

> <r_i_glide_lipo>
-2.51341837179752

> <r_i_glide_hbond>
-0.624708142390576

> <r_i_glide_metal>
0

> <r_i_glide_rewards>
-1.35018811522859

> <r_i_glide_evdw>
-31.117862701416

> <r_i_glide_ecoul>
-11.2170848846436

> <r_i_glide_erotb>
0.704507367647356

> <r_i_glide_esite>
0

> <r_i_glide_emodel>
-61.1339663710354

> <r_i_glide_energy>
-42.3349475860596

> <r_i_glide_einternal>
3.62897658348083

> <i_i_glide_confnum>
9

> <i_i_glide_posenum>
187

> <r_i_glide_eff_state_penalty>
0

> <s_user_duplicate_titles>
CHEMBL258_lig174

> <s_m_subgroup_title>
dock_pv

> <s_m_subgroupid>
dock_pv

> <b_m_subgroup_collapsed>
1

$$$$
CHEMBL258_lig1074
                    3D
 Schrodinger Suite 2021-1.
 47 49  0  0  1  0            999 V2000
   22.4417   37.9756   85.3366 C   0  0  0  0  0  0
   22.0196   36.8983   84.5412 C   0  0  0  0  0  0
   22.9170   36.2208   83.7195 C   0  0  0  0  0  0
   23.7865   38.3673   85.2872 C   0  0  0  0  0  0
   24.6880   37.6659   84.4754 C   0  0  0  0  0  0
   24.2665   36.5857   83.6870 C   0  0  0  0  0  0
   25.2447   35.8784   82.8072 C   0  0  0  0  0  0
   26.5638   36.4630   82.8217 C   0  0  0  0  0  0
   26.8837   37.5148   83.6057 C   0  0  0  0  0  0
   26.0041   38.0917   84.4700 O   0  0  0  0  0  0
   28.2348   38.1274   83.6907 C   0  0  0  0  0  0
   28.3973   39.4297   84.1745 C   0  0  0  0  0  0
   29.6563   40.0213   84.2479 C   0  0  0  0  0  0
   30.7889   39.3205   83.8132 C   0  0  0  0  0  0
   30.6515   38.0260   83.2858 C   0  0  0  0  0  0
   29.3764   37.4391   83.2560 C   0  0  0  0  0  0
   21.6022   38.6869   86.1744 O   0  0  0  0  0  0
   20.2173   38.3578   86.2236 C   0  0  0  0  0  0
   31.7893   37.3993   82.8074 O   0  0  0  0  0  0
   31.6912   36.1199   82.1858 C   0  0  0  0  0  0
   32.0160   39.9423   83.8774 O   0  0  0  0  0  0
   32.9480   39.3587   84.7851 C   0  0  0  0  0  0
   29.7491   41.3119   84.7053 O   0  0  0  0  0  0
   24.9463   34.9317   82.0872 O   0  0  0  0  0  0
   24.2209   39.4212   86.0577 O   0  0  0  0  0  0
   24.2660   40.6619   85.3640 C   0  0  0  0  0  0
   30.1182   41.4315   86.0710 C   0  0  0  0  0  0
   20.9923   36.5661   84.5454 H   0  0  0  0  0  0
   22.5533   35.3990   83.1135 H   0  0  0  0  0  0
   27.2969   36.0320   82.1585 H   0  0  0  0  0  0
   27.5413   40.0023   84.5036 H   0  0  0  0  0  0
   29.2692   36.4353   82.8778 H   0  0  0  0  0  0
   19.7081   39.0373   86.9070 H   0  0  0  0  0  0
   19.7433   38.4623   85.2466 H   0  0  0  0  0  0
   20.0613   37.3425   86.5917 H   0  0  0  0  0  0
   32.6762   35.8144   81.8318 H   0  0  0  0  0  0
   31.3459   35.3569   82.8858 H   0  0  0  0  0  0
   31.0254   36.1403   81.3203 H   0  0  0  0  0  0
   33.6837   40.1104   85.0686 H   0  0  0  0  0  0
   32.4795   38.9925   85.7029 H   0  0  0  0  0  0
   33.4876   38.5327   84.3183 H   0  0  0  0  0  0
   24.5935   41.4453   86.0468 H   0  0  0  0  0  0
   24.9691   40.6343   84.5299 H   0  0  0  0  0  0
   23.2833   40.9440   84.9819 H   0  0  0  0  0  0
   30.2350   42.4875   86.3179 H   0  0  0  0  0  0
   31.0655   40.9363   86.2882 H   0  0  0  0  0  0
   29.3504   41.0202   86.7279 H   0  0  0  0  0  0
  1  2  2  0  0  0
  1  4  1  0  0  0
  1 17  1  0  0  0
  2  3  1  0  0  0
  2 28  1  0  0  0
  3  6  2  0  0  0
  3 29  1  0  0  0
  4  5  2  0  0  0
  4 25  1  0  0  0
  5 10  1  0  0  0
  5  6  1  0  0  0
  6  7  1  0  0  0
  7  8  1  0  0  0
  7 24  2  0  0  0
  8  9  2  0  0  0
  8 30  1  0  0  0
  9 11  1  0  0  0
  9 10  1  0  0  0
 11 16  1  0  0  0
 11 12  2  0  0  0
 12 13  1  0  0  0
 12 31  1  0  0  0
 13 14  2  0  0  0
 13 23  1  0  0  0
 14 15  1  0  0  0
 14 21  1  0  0  0
 15 16  2  0  0  0
 15 19  1  0  0  0
 16 32  1  0  0  0
 17 18  1  0  0  0
 18 33  1  0  0  0
 18 34  1  0  0  0
 18 35  1  0  0  0
 19 20  1  0  0  0
 20 36  1  0  0  0
 20 37  1  0  0  0
 20 38  1  0  0  0
 21 22  1  0  0  0
 22 39  1  0  0  0
 22 40  1  0  0  0
 22 41  1  0  0  0
 23 27  1  0  0  0
 25 26  1  0  0  0
 26 42  1  0  0  0
 26 43  1  0  0  0
 26 44  1  0  0  0
 27 45  1  0  0  0
 27 46  1  0  0  0
 27 47  1  0  0  0
M  END
> <s_m_entry_id>
4760

> <s_m_entry_name>
dock_pv.248

> <s_m_Source_Path>
/home/csk/Desktop/cluster/DUD-E-result/lck

> <s_m_Source_File>
dock_pv.maegz

> <i_m_Source_File_Index>
248

> <chembl_id>
CHEMBL465255

> <chembl_pref_name>
None

> <i_lp_mmshare_version>
53161

> <i_f3d_flags>
0

> <r_lp_tautomer_probability>
1

> <s_lp_Force_Field>
OPLS_2005

> <r_lp_Energy>
38.661012

> <b_lp_Chiralities_Consistent>
1

> <s_lp_Variant>
CHEMBL258_lig1074-1

> <s_i_glide_gridfile>
glide-grid_2of2

> <i_i_glide_lignum>
1162

> <i_i_glide_rotatable_bonds>
6

> <r_i_docking_score>
-7.02172493113662

> <r_i_glide_ligand_efficiency>
-0.260063886338394

> <r_i_glide_ligand_efficiency_sa>
-0.780191658158052

> <r_i_glide_ligand_efficiency_ln>
-1.63454180178581

> <r_i_glide_gscore>
-7.02172493113662

> <r_i_glide_lipo>
-2.97007463808436

> <r_i_glide_hbond>
-0.32

> <r_i_glide_metal>
0

> <r_i_glide_rewards>
-1.41683358947581

> <r_i_glide_evdw>
-32.8664932250977

> <r_i_glide_ecoul>
-5.40519666671753

> <r_i_glide_erotb>
0.139287457686063

> <r_i_glide_esite>
0

> <r_i_glide_emodel>
-50.7826926516525

> <r_i_glide_energy>
-38.2716898918152

> <r_i_glide_einternal>
6.60176992416382

> <i_i_glide_confnum>
2

> <i_i_glide_posenum>
10

> <r_i_glide_eff_state_penalty>
0

> <s_user_duplicate_titles>
CHEMBL258_lig1074

> <s_m_subgroup_title>
dock_pv

> <s_m_subgroupid>
dock_pv

> <b_m_subgroup_collapsed>
1

$$$$
CHEMBL258_lig1138
                    3D
 Schrodinger Suite 2021-1.
 46 49  0  0  1  0            999 V2000
   26.0726   41.7324   86.7986 N   0  0  0  0  0  0
   26.8749   40.6416   86.7155 C   0  0  0  0  0  0
   26.4595   39.4493   86.1135 C   0  0  0  0  0  0
   25.1574   39.4203   85.5871 C   0  0  0  0  0  0
   24.3300   40.5013   85.6558 N   0  0  0  0  0  0
   24.8313   41.6082   86.2618 C   0  0  0  0  0  0
   28.1488   40.7577   87.2587 N   0  0  0  0  0  0
   24.6579   38.2720   84.9165 N   0  0  0  0  0  0
   23.2234   36.6458   84.2671 N   0  0  0  0  0  0
   23.3861   37.7080   85.0154 C   0  0  0  0  0  0
   24.4408   36.4403   83.6863 C   0  0  0  0  0  0
   25.3686   37.4461   84.0589 C   0  0  0  0  0  0
   26.6764   37.4695   83.5479 C   0  0  0  0  0  0
   27.0343   36.4306   82.6856 C   0  0  0  0  0  0
   26.1405   35.4213   82.3408 C   0  0  0  0  0  0
   24.8270   35.4220   82.8057 C   0  0  0  0  0  0
   22.4267   38.2663   85.8310 N   0  0  0  0  0  0
   21.0587   37.9503   85.9265 C   0  0  0  0  0  0
   20.5908   36.7187   86.4386 C   0  0  0  0  0  0
   19.2216   36.5119   86.6097 C   0  0  0  0  0  0
   18.3030   37.5015   86.2856 C   0  0  0  0  0  0
   18.7577   38.7124   85.7688 C   0  0  0  0  0  0
   20.1240   38.9505   85.5973 C   0  0  0  0  0  0
   16.8193   37.2697   86.4982 C   0  0  0  0  0  0
   20.5553   40.3035   85.0442 C   0  0  0  0  0  0
   21.5206   35.6085   86.8894 C   0  0  0  0  0  0
   27.1106   38.5897   86.0737 H   0  0  0  0  0  0
   24.1820   42.4703   86.3111 H   0  0  0  0  0  0
   28.7970   39.9799   87.2585 H   0  0  0  0  0  0
   28.4150   41.6452   87.6579 H   0  0  0  0  0  0
   27.3834   38.2444   83.8018 H   0  0  0  0  0  0
   28.0351   36.4007   82.2747 H   0  0  0  0  0  0
   26.4858   34.6321   81.6868 H   0  0  0  0  0  0
   24.1247   34.6595   82.4954 H   0  0  0  0  0  0
   22.5806   39.2366   86.0645 H   0  0  0  0  0  0
   18.8647   35.5769   87.0176 H   0  0  0  0  0  0
   18.0417   39.4834   85.5222 H   0  0  0  0  0  0
   16.5506   36.2199   86.3903 H   0  0  0  0  0  0
   16.2307   37.8204   85.7654 H   0  0  0  0  0  0
   16.5309   37.5964   87.4968 H   0  0  0  0  0  0
   21.3892   40.2024   84.3460 H   0  0  0  0  0  0
   19.7501   40.7734   84.4828 H   0  0  0  0  0  0
   20.8607   40.9736   85.8511 H   0  0  0  0  0  0
   22.1499   35.9847   87.6910 H   0  0  0  0  0  0
   20.9865   34.7304   87.2611 H   0  0  0  0  0  0
   22.1497   35.2848   86.0728 H   0  0  0  0  0  0
  1  6  1  0  0  0
  1  2  2  0  0  0
  2  7  1  0  0  0
  2  3  1  0  0  0
  3  4  2  0  0  0
  3 27  1  0  0  0
  4  5  1  0  0  0
  4  8  1  0  0  0
  5  6  2  0  0  0
  6 28  1  0  0  0
  7 29  1  0  0  0
  7 30  1  0  0  0
  8 12  1  0  0  0
  8 10  1  0  0  0
  9 11  1  0  0  0
  9 10  2  0  0  0
 10 17  1  0  0  0
 11 16  1  0  0  0
 11 12  2  0  0  0
 12 13  1  0  0  0
 13 14  2  0  0  0
 13 31  1  0  0  0
 14 15  1  0  0  0
 14 32  1  0  0  0
 15 16  2  0  0  0
 15 33  1  0  0  0
 16 34  1  0  0  0
 17 18  1  0  0  0
 17 35  1  0  0  0
 18 19  2  0  0  0
 18 23  1  0  0  0
 19 20  1  0  0  0
 19 26  1  0  0  0
 20 21  2  0  0  0
 20 36  1  0  0  0
 21 22  1  0  0  0
 21 24  1  0  0  0
 22 23  2  0  0  0
 22 37  1  0  0  0
 23 25  1  0  0  0
 24 38  1  0  0  0
 24 39  1  0  0  0
 24 40  1  0  0  0
 25 41  1  0  0  0
 25 42  1  0  0  0
 25 43  1  0  0  0
 26 44  1  0  0  0
 26 45  1  0  0  0
 26 46  1  0  0  0
M  END
> <s_m_entry_id>
4761

> <s_m_entry_name>
dock_pv.249

> <s_m_Source_Path>
/home/csk/Desktop/cluster/DUD-E-result/lck

> <s_m_Source_File>
dock_pv.maegz

> <i_m_Source_File_Index>
249

> <chembl_id>
CHEMBL477613

> <chembl_pref_name>
None

> <i_lp_mmshare_version>
53161

> <i_f3d_flags>
0

> <r_lp_tautomer_probability>
1

> <s_lp_Force_Field>
OPLS_2005

> <r_lp_Energy>
19.161816

> <b_lp_Chiralities_Consistent>
1

> <s_lp_Variant>
CHEMBL258_lig1138-1

> <s_i_glide_gridfile>
glide-grid_2of2

> <i_i_glide_lignum>
1226

> <i_i_glide_rotatable_bonds>
3

> <r_i_docking_score>
-6.99836280112026

> <r_i_glide_ligand_efficiency>
-0.269167800043087

> <r_i_glide_ligand_efficiency_sa>
-0.797408548503495

> <r_i_glide_ligand_efficiency_ln>
-1.64354254034175

> <r_i_glide_gscore>
-6.99836280112026

> <r_i_glide_lipo>
-3.03476696921078

> <r_i_glide_hbond>
-0.313586457541339

> <r_i_glide_metal>
0

> <r_i_glide_rewards>
-1.773728294298

> <r_i_glide_evdw>
-38.9741630554199

> <r_i_glide_ecoul>
-2.5960738658905

> <r_i_glide_erotb>
0.480198776205031

> <r_i_glide_esite>
-0.0183606236205937

> <r_i_glide_emodel>
-57.4800317415023

> <r_i_glide_energy>
-41.5702369213104

> <r_i_glide_einternal>
1.91943669319153

> <i_i_glide_confnum>
7

> <i_i_glide_posenum>
13

> <r_i_glide_eff_state_penalty>
0

> <s_user_duplicate_titles>
CHEMBL258_lig1138,490694

> <s_m_subgroup_title>
dock_pv

> <s_m_subgroupid>
dock_pv

> <b_m_subgroup_collapsed>
1

$$$$
CHEMBL258_lig931
                    3D
 Schrodinger Suite 2021-1.
 41 44  0  0  1  0            999 V2000
   31.8746   39.3341   83.5993 O   0  0  0  0  0  0
   31.8105   38.2299   83.0597 C   0  0  0  0  0  0
   30.5672   37.5023   82.8871 C   0  0  0  0  0  0
   30.6055   35.9731   82.0863 S   0  0  0  0  0  0
   28.8885   35.8825   82.3166 C   0  0  0  0  0  0
   29.3777   37.8810   83.2870 N   0  0  0  0  0  0
   28.4161   37.0204   82.9810 C   0  0  0  0  0  0
   26.9915   37.2995   83.3794 C   0  0  0  0  0  0
   26.6249   38.5439   83.9040 C   0  0  0  0  0  0
   26.0215   36.2959   83.2868 C   0  0  0  0  0  0
   24.7320   36.4828   83.7848 C   0  0  0  0  0  0
   24.3528   37.7231   84.3678 C   0  0  0  0  0  0
   25.3188   38.7764   84.3909 C   0  0  0  0  0  0
   25.0377   40.0109   84.8871 N   0  0  0  0  0  0
   23.8015   40.2372   85.3835 C   0  0  0  0  0  0
   22.8106   39.2664   85.4365 C   0  0  0  0  0  0
   23.0621   37.9834   84.9348 C   0  0  0  0  0  0
   22.1029   36.9625   85.0748 N   0  0  0  0  0  0
   20.7651   37.0340   85.5001 C   0  0  0  0  0  0
   20.2647   36.1013   86.4258 C   0  0  0  0  0  0
   21.1158   34.9397   86.9222 C   0  0  0  0  0  0
   19.9076   38.0109   84.9840 C   0  0  0  0  0  0
   18.5899   38.0942   85.4251 C   0  0  0  0  0  0
   17.7500   39.0225   84.8870 O   0  0  0  0  0  0
   18.1194   37.2291   86.4071 C   0  0  0  0  0  0
   18.9504   36.2216   86.8884 C   0  0  0  0  0  0
   32.6998   37.7296   82.6734 H   0  0  0  0  0  0
   28.3386   35.0290   81.9442 H   0  0  0  0  0  0
   27.3437   39.3471   83.9735 H   0  0  0  0  0  0
   26.2772   35.3313   82.8751 H   0  0  0  0  0  0
   24.0148   35.6771   83.7233 H   0  0  0  0  0  0
   23.6209   41.2281   85.7720 H   0  0  0  0  0  0
   21.8661   39.5162   85.8940 H   0  0  0  0  0  0
   22.4919   36.0332   85.1197 H   0  0  0  0  0  0
   20.6120   34.3445   87.6841 H   0  0  0  0  0  0
   21.3493   34.2779   86.0877 H   0  0  0  0  0  0
   22.0582   35.2969   87.3407 H   0  0  0  0  0  0
   20.2596   38.7004   84.2304 H   0  0  0  0  0  0
   17.0342   39.2826   85.4914 H   0  0  0  0  0  0
   17.0993   37.3000   86.7571 H   0  0  0  0  0  0
   18.5606   35.5181   87.6102 H   0  0  0  0  0  0
  1  2  2  0  0  0
  2  3  1  0  0  0
  2 27  1  0  0  0
  3  4  1  0  0  0
  3  6  2  0  0  0
  4  5  1  0  0  0
  5  7  2  0  0  0
  5 28  1  0  0  0
  6  7  1  0  0  0
  7  8  1  0  0  0
  8 10  2  0  0  0
  8  9  1  0  0  0
  9 13  2  0  0  0
  9 29  1  0  0  0
 10 11  1  0  0  0
 10 30  1  0  0  0
 11 12  2  0  0  0
 11 31  1  0  0  0
 12 13  1  0  0  0
 12 17  1  0  0  0
 13 14  1  0  0  0
 14 15  2  0  0  0
 15 16  1  0  0  0
 15 32  1  0  0  0
 16 17  2  0  0  0
 16 33  1  0  0  0
 17 18  1  0  0  0
 18 19  1  0  0  0
 18 34  1  0  0  0
 19 20  2  0  0  0
 19 22  1  0  0  0
 20 21  1  0  0  0
 20 26  1  0  0  0
 21 35  1  0  0  0
 21 36  1  0  0  0
 21 37  1  0  0  0
 22 23  2  0  0  0
 22 38  1  0  0  0
 23 25  1  0  0  0
 23 24  1  0  0  0
 24 39  1  0  0  0
 25 26  2  0  0  0
 25 40  1  0  0  0
 26 41  1  0  0  0
M  END
> <s_m_entry_id>
4762

> <s_m_entry_name>
dock_pv.250

> <s_m_Source_Path>
/home/csk/Desktop/cluster/DUD-E-result/lck

> <s_m_Source_File>
dock_pv.maegz

> <i_m_Source_File_Index>
250

> <chembl_id>
CHEMBL237127

> <chembl_pref_name>
None

> <i_lp_mmshare_version>
53161

> <i_f3d_flags>
0

> <r_lp_tautomer_probability>
1

> <s_lp_Force_Field>
OPLS_2005

> <r_lp_Energy>
20.022369

> <b_lp_Chiralities_Consistent>
1

> <s_lp_Variant>
CHEMBL258_lig931-1

> <s_i_glide_gridfile>
glide-grid_2of2

> <i_i_glide_lignum>
1019

> <i_i_glide_rotatable_bonds>
5

> <r_i_docking_score>
-6.996923945833

> <r_i_glide_ligand_efficiency>
-0.269112459455115

> <r_i_glide_ligand_efficiency_sa>
-0.797244602229384

> <r_i_glide_ligand_efficiency_ln>
-1.64320462989881

> <r_i_glide_gscore>
-6.996923945833

> <r_i_glide_lipo>
-3.25122342125854

> <r_i_glide_hbond>
-0.277558108331724

> <r_i_glide_metal>
0

> <r_i_glide_rewards>
-1.09191225578633

> <r_i_glide_evdw>
-39.2242317199707

> <r_i_glide_ecoul>
-5.7050609588623

> <r_i_glide_erotb>
0.440740569371479

> <r_i_glide_esite>
0

> <r_i_glide_emodel>
-60.0073942393021

> <r_i_glide_energy>
-44.929292678833

> <r_i_glide_einternal>
8.52045345306396

> <i_i_glide_confnum>
3

> <i_i_glide_posenum>
82

> <r_i_glide_eff_state_penalty>
0

> <s_user_duplicate_titles>
CHEMBL258_lig931,398539

> <s_m_subgroup_title>
dock_pv

> <s_m_subgroupid>
dock_pv

> <b_m_subgroup_collapsed>
1

$$$$
CHEMBL258_lig124
                    3D
 Schrodinger Suite 2021-1.
 31 33  0  0  1  0            999 V2000
   23.9379   36.8556   83.9513 C   0  0  0  0  0  0
   26.1815   37.6198   84.0494 C   0  0  0  0  0  0
   24.7976   37.9257   84.4810 C   0  0  0  0  0  0
   24.7821   35.9781   83.1468 C   0  0  0  0  0  0
   26.1461   36.4924   83.2446 C   0  0  0  0  0  0
   27.5300   39.4426   85.1895 N   0  3  0  0  0  0
   27.4086   38.2723   84.2954 C   0  0  0  0  0  0
   22.5951   36.6814   84.0870 C   0  0  0  0  0  0
   19.7164   39.0107   86.2648 C   0  0  0  0  0  0
   19.4319   38.5491   84.9722 C   0  0  0  0  0  0
   20.9395   38.6776   86.8608 C   0  0  0  0  0  0
   21.6092   37.4670   84.8630 C   0  0  0  0  0  0
   26.9607   39.4070   86.2757 O   0  5  0  0  0  0
   24.4039   38.8910   85.1310 O   0  0  0  0  0  0
   28.2361   40.3739   84.8163 O   0  0  0  0  0  0
   20.3744   37.7806   84.2846 C   0  0  0  0  0  0
   21.8639   37.9015   86.1662 C   0  0  0  0  0  0
   24.3823   35.0211   82.4871 O   0  0  0  0  0  0
   17.9303   38.9224   84.1963 Cl  0  0  0  0  0  0
   21.3505   39.2190   88.4505 Cl  0  0  0  0  0  0
   18.8101   39.7854   86.9471 O   0  0  0  0  0  0
   27.3051   35.9878   82.6579 C   0  0  0  0  0  0
   28.5692   37.7676   83.6867 C   0  0  0  0  0  0
   28.5223   36.6237   82.8867 C   0  0  0  0  0  0
   22.1500   35.8340   83.5788 H   0  0  0  0  0  0
   20.1441   37.4389   83.2870 H   0  0  0  0  0  0
   22.7960   37.6522   86.6452 H   0  0  0  0  0  0
   17.9321   39.8217   86.5392 H   0  0  0  0  0  0
   27.2855   35.0743   82.0866 H   0  0  0  0  0  0
   29.5238   38.2449   83.8622 H   0  0  0  0  0  0
   29.4274   36.2266   82.4495 H   0  0  0  0  0  0
  1  3  1  0  0  0
  1  4  1  0  0  0
  1  8  2  0  0  0
  2  3  1  0  0  0
  2  7  2  0  0  0
  2  5  1  0  0  0
  3 14  2  0  0  0
  4  5  1  0  0  0
  4 18  2  0  0  0
  5 22  2  0  0  0
  6  7  1  0  0  0
  6 13  1  0  0  0
  6 15  2  0  0  0
  7 23  1  0  0  0
  8 12  1  0  0  0
  8 25  1  0  0  0
  9 11  1  0  0  0
  9 21  1  0  0  0
  9 10  2  0  0  0
 10 16  1  0  0  0
 10 19  1  0  0  0
 11 17  2  0  0  0
 11 20  1  0  0  0
 12 16  2  0  0  0
 12 17  1  0  0  0
 16 26  1  0  0  0
 17 27  1  0  0  0
 21 28  1  0  0  0
 22 24  1  0  0  0
 22 29  1  0  0  0
 23 24  2  0  0  0
 23 30  1  0  0  0
 24 31  1  0  0  0
M  CHG  2   6   1  13  -1
M  END
> <s_m_entry_id>
4763

> <s_m_entry_name>
dock_pv.251

> <s_m_Source_Path>
/home/csk/Desktop/cluster/DUD-E-result/lck

> <s_m_Source_File>
dock_pv.maegz

> <i_m_Source_File_Index>
251

> <chembl_id>
CHEMBL83376

> <chembl_pref_name>
None

> <i_lp_mmshare_version>
53161

> <i_f3d_flags>
0

> <r_lp_tautomer_probability>
1

> <s_lp_Force_Field>
OPLS_2005

> <r_lp_Energy>
33.438244

> <b_lp_Chiralities_Consistent>
1

> <s_lp_Variant>
CHEMBL258_lig124-1

> <s_i_glide_gridfile>
glide-grid_2of2

> <i_i_glide_lignum>
145

> <i_i_glide_rotatable_bonds>
3

> <r_i_docking_score>
-6.9940514131316

> <r_i_glide_ligand_efficiency>
-0.291418808880483

> <r_i_glide_ligand_efficiency_sa>
-0.84059730288426

> <r_i_glide_ligand_efficiency_ln>
-1.67399743926926

> <r_i_glide_gscore>
-6.9940514131316

> <r_i_glide_lipo>
-2.66689034853201

> <r_i_glide_hbond>
-0.158277495207753

> <r_i_glide_metal>
0

> <r_i_glide_rewards>
-1.79665471087365

> <r_i_glide_evdw>
-35.1404075622559

> <r_i_glide_ecoul>
-5.06781053543091

> <r_i_glide_erotb>
0.14496309990924

> <r_i_glide_esite>
0

> <r_i_glide_emodel>
-57.1998053208131

> <r_i_glide_energy>
-40.2082180976868

> <r_i_glide_einternal>
2.09302020072937

> <i_i_glide_confnum>
2

> <i_i_glide_posenum>
329

> <r_i_glide_eff_state_penalty>
0

> <s_user_duplicate_titles>
CHEMBL258_lig124

> <s_m_subgroup_title>
dock_pv

> <s_m_subgroupid>
dock_pv

> <b_m_subgroup_collapsed>
1

$$$$
CHEMBL258_lig465
                    3D
 Schrodinger Suite 2021-1.
 40 43  0  0  1  0            999 V2000
   25.1772   37.2412   83.6857 N   0  0  0  0  0  0
   23.9600   36.5422   83.7334 C   0  0  0  0  0  0
   22.9477   37.1009   84.5284 C   0  0  0  0  0  0
   23.1050   38.2904   85.1549 N   0  0  0  0  0  0
   25.4016   38.4159   84.3400 C   0  0  0  0  0  0
   21.7505   36.3971   84.6985 N   0  0  0  0  0  0
   24.2897   38.9455   85.0621 C   0  0  0  0  0  0
   25.3621   35.4187   82.3807 N   0  0  0  0  0  0
   20.5737   36.7448   85.3934 C   0  0  0  0  0  0
   25.9750   36.4869   82.8420 C   0  0  0  0  0  0
   24.1530   35.4212   82.8867 C   0  0  0  0  0  0
   26.6376   39.1487   84.3435 C   0  0  0  0  0  0
   20.1658   35.9576   86.4870 C   0  0  0  0  0  0
   19.7470   37.8022   84.9640 C   0  0  0  0  0  0
   27.8284   38.7092   83.7663 N   0  0  0  0  0  0
   24.4017   40.1901   85.7151 C   0  0  0  0  0  0
   25.5936   40.9003   85.6652 C   0  0  0  0  0  0
   18.1525   37.2849   86.7141 C   0  0  0  0  0  0
   26.6946   40.3817   84.9947 C   0  0  0  0  0  0
   18.5507   38.0712   85.6380 C   0  0  0  0  0  0
   18.9497   36.2211   87.1265 C   0  0  0  0  0  0
   20.0707   38.6208   83.7275 C   0  0  0  0  0  0
   21.0213   34.7962   86.9731 C   0  0  0  0  0  0
   21.8022   35.4251   84.4375 H   0  0  0  0  0  0
   26.9718   36.7605   82.5458 H   0  0  0  0  0  0
   23.4382   34.6526   82.6258 H   0  0  0  0  0  0
   28.6531   39.2648   83.9490 H   0  0  0  0  0  0
   27.9326   37.7212   83.5948 H   0  0  0  0  0  0
   23.5504   40.5853   86.2491 H   0  0  0  0  0  0
   25.6689   41.8571   86.1622 H   0  0  0  0  0  0
   17.2166   37.4935   87.2152 H   0  0  0  0  0  0
   27.6122   40.9531   84.9992 H   0  0  0  0  0  0
   17.9086   38.8812   85.3184 H   0  0  0  0  0  0
   18.6189   35.6051   87.9506 H   0  0  0  0  0  0
   20.5401   38.0100   82.9560 H   0  0  0  0  0  0
   19.1582   39.0220   83.2877 H   0  0  0  0  0  0
   20.7429   39.4399   83.9798 H   0  0  0  0  0  0
   21.3483   34.2203   86.1052 H   0  0  0  0  0  0
   21.9168   35.1672   87.4718 H   0  0  0  0  0  0
   20.4844   34.1310   87.6554 H   0  0  0  0  0  0
  1  2  1  0  0  0
  1  5  1  0  0  0
  1 10  1  0  0  0
  2  3  1  0  0  0
  2 11  2  0  0  0
  3  6  1  0  0  0
  3  4  2  0  0  0
  4  7  1  0  0  0
  5  7  1  0  0  0
  5 12  2  0  0  0
  6  9  1  0  0  0
  6 24  1  0  0  0
  7 16  2  0  0  0
  8 10  2  0  0  0
  8 11  1  0  0  0
  9 13  1  0  0  0
  9 14  2  0  0  0
 10 25  1  0  0  0
 11 26  1  0  0  0
 12 15  1  0  0  0
 12 19  1  0  0  0
 13 21  2  0  0  0
 13 23  1  0  0  0
 14 20  1  0  0  0
 14 22  1  0  0  0
 15 27  1  0  0  0
 15 28  1  0  0  0
 16 17  1  0  0  0
 16 29  1  0  0  0
 17 19  2  0  0  0
 17 30  1  0  0  0
 18 20  2  0  0  0
 18 21  1  0  0  0
 18 31  1  0  0  0
 19 32  1  0  0  0
 20 33  1  0  0  0
 21 34  1  0  0  0
 22 35  1  0  0  0
 22 36  1  0  0  0
 22 37  1  0  0  0
 23 38  1  0  0  0
 23 39  1  0  0  0
 23 40  1  0  0  0
M  END
> <s_m_entry_id>
4764

> <s_m_entry_name>
dock_pv.252

> <s_m_Source_Path>
/home/csk/Desktop/cluster/DUD-E-result/lck

> <s_m_Source_File>
dock_pv.maegz

> <i_m_Source_File_Index>
252

> <chembl_id>
CHEMBL106304

> <chembl_pref_name>
None

> <i_lp_mmshare_version>
53161

> <i_f3d_flags>
0

> <r_lp_tautomer_probability>
1

> <s_lp_Force_Field>
OPLS_2005

> <r_lp_Energy>
65.929373

> <b_lp_Chiralities_Consistent>
1

> <s_lp_Variant>
CHEMBL258_lig465-1

> <s_i_glide_gridfile>
glide-grid_2of2

> <i_i_glide_lignum>
513

> <i_i_glide_rotatable_bonds>
2

> <r_i_docking_score>
-6.99303778525642

> <r_i_glide_ligand_efficiency>
-0.304045121098105

> <r_i_glide_ligand_efficiency_sa>
-0.864663879372155

> <r_i_glide_ligand_efficiency_ln>
-1.69097994583587

> <r_i_glide_gscore>
-6.99303778525642

> <r_i_glide_lipo>
-2.41138834000191

> <r_i_glide_hbond>
-0.0405898326173688

> <r_i_glide_metal>
0

> <r_i_glide_rewards>
-2.89297402632783

> <r_i_glide_evdw>
-35.972541809082

> <r_i_glide_ecoul>
-1.66601932048798

> <r_i_glide_erotb>
0.400444402217996

> <r_i_glide_esite>
0

> <r_i_glide_emodel>
-51.1081985141543

> <r_i_glide_energy>
-37.63856112957

> <r_i_glide_einternal>
3.67079329490662

> <i_i_glide_confnum>
2

> <i_i_glide_posenum>
158

> <r_i_glide_eff_state_penalty>
0

> <s_user_duplicate_titles>
CHEMBL258_lig465

> <s_m_subgroup_title>
dock_pv

> <s_m_subgroupid>
dock_pv

> <b_m_subgroup_collapsed>
1

$$$$
CHEMBL258_lig825
                    3D
 Schrodinger Suite 2021-1.
 61 64  0  0  1  0            999 V2000
   29.9559   41.0210   86.0869 O   0  0  0  0  0  0
   28.8305   41.7555   85.8258 C   0  0  0  0  0  0
   28.9631   43.0594   85.3619 C   0  0  0  0  0  0
   27.8349   43.8376   85.1192 C   0  0  0  0  0  0
   26.5567   43.3123   85.3283 C   0  0  0  0  0  0
   25.3508   44.2058   85.0661 C   0  0  0  0  0  0
   27.5609   41.2159   86.0220 C   0  0  0  0  0  0
   26.4161   41.9775   85.7503 C   0  0  0  0  0  0
   25.1384   41.4226   85.9283 N   0  0  0  0  0  0
   24.6505   40.1606   85.5689 C   0  0  0  0  0  0
   25.4129   39.3371   84.8027 N   0  0  0  0  0  0
   23.3821   39.7867   86.0096 C   0  0  0  0  0  0
   22.9259   38.5163   85.6582 C   0  0  0  0  0  0
   21.7020   38.0944   86.1918 N   0  0  0  0  0  0
   21.0536   36.8265   85.8529 C   0  0  0  0  0  0
   19.8248   36.9486   84.9158 C   0  0  0  0  0  0
   18.8084   37.9439   85.3172 N   0  0  0  0  0  0
   17.5987   37.9455   84.4881 C   0  0  0  0  0  0
   17.8785   38.1835   83.0030 C   0  0  0  0  0  0
   18.4364   37.9215   86.7360 C   0  0  0  0  0  0
   17.8270   36.5998   87.2493 C   0  0  0  0  0  0
   23.6683   37.6772   84.8868 N   0  0  0  0  0  0
   24.8909   38.1237   84.4869 C   0  0  0  0  0  0
   25.6782   37.2459   83.6954 N   0  0  0  0  0  0
   27.0370   37.3127   83.3893 C   0  0  0  0  0  0
   28.0725   38.2070   83.7069 C   0  0  0  0  0  0
   27.2898   36.1297   82.6392 C   0  0  0  0  0  0
   26.1513   35.3940   82.4657 N   0  0  0  0  0  0
   25.2389   36.0737   83.1025 C   0  0  0  0  0  0
   28.5959   35.8216   82.2310 C   0  0  0  0  0  0
   29.6196   36.7082   82.5548 C   0  0  0  0  0  0
   29.3611   37.8677   83.2869 C   0  0  0  0  0  0
   29.8211   40.2528   86.6539 H   0  0  0  0  0  0
   29.9465   43.4751   85.1932 H   0  0  0  0  0  0
   27.9644   44.8510   84.7662 H   0  0  0  0  0  0
   25.6225   45.0954   84.4963 H   0  0  0  0  0  0
   24.5950   43.6752   84.4867 H   0  0  0  0  0  0
   24.8910   44.5138   86.0053 H   0  0  0  0  0  0
   27.4609   40.2030   86.3817 H   0  0  0  0  0  0
   24.4563   42.0474   86.3294 H   0  0  0  0  0  0
   22.7891   40.4442   86.6277 H   0  0  0  0  0  0
   21.1322   38.7873   86.6535 H   0  0  0  0  0  0
   20.7585   36.3264   86.7754 H   0  0  0  0  0  0
   21.7673   36.1336   85.4066 H   0  0  0  0  0  0
   19.3499   35.9716   84.8611 H   0  0  0  0  0  0
   20.1849   37.1784   83.9126 H   0  0  0  0  0  0
   16.9493   38.7512   84.8339 H   0  0  0  0  0  0
   17.0361   37.0215   84.6134 H   0  0  0  0  0  0
   16.9502   38.4020   82.4862 H   0  0  0  0  0  0
   18.3213   37.3117   82.5301 H   0  0  0  0  0  0
   18.5504   39.0232   82.8554 H   0  0  0  0  0  0
   19.3355   38.1670   87.2870 H   0  0  0  0  0  0
   17.7509   38.7423   86.9479 H   0  0  0  0  0  0
   17.6318   36.6533   88.3198 H   0  0  0  0  0  0
   16.8761   36.3782   86.7656 H   0  0  0  0  0  0
   18.4922   35.7528   87.0888 H   0  0  0  0  0  0
   27.9065   39.1092   84.2727 H   0  0  0  0  0  0
   24.2021   35.7805   83.1930 H   0  0  0  0  0  0
   28.8061   34.9139   81.6850 H   0  0  0  0  0  0
   30.6321   36.4851   82.2477 H   0  0  0  0  0  0
   30.1831   38.5267   83.5299 H   0  0  0  0  0  0
  1  2  1  0  0  0
  1 33  1  0  0  0
  2  3  2  0  0  0
  2  7  1  0  0  0
  3  4  1  0  0  0
  3 34  1  0  0  0
  4  5  2  0  0  0
  4 35  1  0  0  0
  5  6  1  0  0  0
  5  8  1  0  0  0
  6 36  1  0  0  0
  6 37  1  0  0  0
  6 38  1  0  0  0
  7  8  2  0  0  0
  7 39  1  0  0  0
  8  9  1  0  0  0
  9 10  1  0  0  0
  9 40  1  0  0  0
 10 11  2  0  0  0
 10 12  1  0  0  0
 11 23  1  0  0  0
 12 13  2  0  0  0
 12 41  1  0  0  0
 13 14  1  0  0  0
 13 22  1  0  0  0
 14 15  1  0  0  0
 14 42  1  0  0  0
 15 16  1  0  0  0
 15 43  1  0  0  0
 15 44  1  0  0  0
 16 17  1  0  0  0
 16 45  1  0  0  0
 16 46  1  0  0  0
 17 18  1  0  0  0
 17 20  1  0  0  0
 18 19  1  0  0  0
 18 47  1  0  0  0
 18 48  1  0  0  0
 19 49  1  0  0  0
 19 50  1  0  0  0
 19 51  1  0  0  0
 20 21  1  0  0  0
 20 52  1  0  0  0
 20 53  1  0  0  0
 21 54  1  0  0  0
 21 55  1  0  0  0
 21 56  1  0  0  0
 22 23  2  0  0  0
 23 24  1  0  0  0
 24 25  1  0  0  0
 24 29  1  0  0  0
 25 26  1  0  0  0
 25 27  2  0  0  0
 26 32  2  0  0  0
 26 57  1  0  0  0
 27 28  1  0  0  0
 27 30  1  0  0  0
 28 29  2  0  0  0
 29 58  1  0  0  0
 30 31  2  0  0  0
 30 59  1  0  0  0
 31 32  1  0  0  0
 31 60  1  0  0  0
 32 61  1  0  0  0
M  END
> <s_m_entry_id>
4765

> <s_m_entry_name>
dock_pv.253

> <s_m_Source_Path>
/home/csk/Desktop/cluster/DUD-E-result/lck

> <s_m_Source_File>
dock_pv.maegz

> <i_m_Source_File_Index>
253

> <chembl_id>
CHEMBL434369

> <chembl_pref_name>
None

> <i_lp_mmshare_version>
53161

> <i_f3d_flags>
0

> <r_lp_tautomer_probability>
1

> <s_lp_Force_Field>
OPLS_2005

> <r_lp_Energy>
17.747453

> <b_lp_Chiralities_Consistent>
1

> <s_lp_Variant>
CHEMBL258_lig825-1

> <s_i_glide_gridfile>
glide-grid_2of2

> <i_i_glide_lignum>
910

> <i_i_glide_rotatable_bonds>
10

> <r_i_docking_score>
-6.99277707280126

> <r_i_glide_ligand_efficiency>
-0.21852428352504

> <r_i_glide_ligand_efficiency_sa>
-0.693771354295014

> <r_i_glide_ligand_efficiency_ln>
-1.565873402504

> <r_i_glide_gscore>
-6.99277707280126

> <r_i_glide_lipo>
-2.04349843685677

> <r_i_glide_hbond>
-0.32

> <r_i_glide_metal>
0

> <r_i_glide_rewards>
-2.28169593627412

> <r_i_glide_evdw>
-42.4923210144043

> <r_i_glide_ecoul>
-6.47101736068726

> <r_i_glide_erotb>
0.747685955152931

> <r_i_glide_esite>
0

> <r_i_glide_emodel>
-67.2836895186576

> <r_i_glide_energy>
-48.9633383750916

> <r_i_glide_einternal>
8.16565132141113

> <i_i_glide_confnum>
56

> <i_i_glide_posenum>
14

> <r_i_glide_eff_state_penalty>
0

> <s_user_duplicate_titles>
CHEMBL258_lig825,368691

> <s_m_subgroup_title>
dock_pv

> <s_m_subgroupid>
dock_pv

> <b_m_subgroup_collapsed>
1

$$$$
CHEMBL258_lig98
                    3D
 Schrodinger Suite 2021-1.
 51 55  0  0  1  0            999 V2000
   30.3910   37.4548   82.8875 N   0  0  0  0  0  0
   30.1368   38.7690   83.2770 C   0  0  0  0  0  0
   28.7230   38.9210   83.4439 C   0  0  0  0  0  0
   28.1295   37.6126   83.2875 C   0  0  0  0  0  0
   29.1769   36.7944   82.8869 C   0  0  0  0  0  0
   31.0282   39.7639   83.4107 N   0  0  0  0  0  0
   28.2925   40.2462   83.6828 C   0  0  0  0  0  0
   31.6806   36.8270   82.4967 C   0  0  1  0  0  0
   29.1679   41.2664   83.8133 N   0  0  0  0  0  0
   26.7044   37.2004   83.4710 C   0  0  0  0  0  0
   30.4800   40.9727   83.6858 C   0  0  0  0  0  0
   32.1894   37.2574   81.0984 C   0  0  2  0  0  0
   22.6704   36.1260   83.8359 O   0  0  0  0  0  0
   25.9127   37.8343   84.4289 C   0  0  0  0  0  0
   26.1478   36.1827   82.6907 C   0  0  0  0  0  0
   26.9536   40.6127   83.7215 N   0  0  0  0  0  0
   24.0032   36.4969   83.7776 C   0  0  0  0  0  0
   24.5683   37.5126   84.5582 C   0  0  0  0  0  0
   24.8119   35.8211   82.8626 C   0  0  0  0  0  0
   21.7632   36.7627   84.6564 C   0  0  0  0  0  0
   32.9488   36.2207   80.4871 O   0  0  0  0  0  0
   32.8300   37.1357   83.4785 C   0  0  0  0  0  0
   33.7431   38.1592   82.7815 C   0  0  0  0  0  0
   33.1394   38.4248   81.3915 C   0  0  0  0  0  0
   20.6882   37.4364   84.0734 C   0  0  0  0  0  0
   21.8872   36.7211   86.0492 C   0  0  0  0  0  0
   20.9803   37.4108   86.8516 C   0  0  0  0  0  0
   19.7605   38.0975   84.8754 C   0  0  0  0  0  0
   19.9169   38.0899   86.2604 C   0  0  0  0  0  0
   29.1543   35.7454   82.6281 H   0  0  0  0  0  0
   31.4479   35.7603   82.5269 H   0  0  0  0  0  0
   31.1634   41.8050   83.7824 H   0  0  0  0  0  0
   31.3617   37.5497   80.4479 H   0  0  0  0  0  0
   26.3344   38.5766   85.0887 H   0  0  0  0  0  0
   26.7464   35.6753   81.9458 H   0  0  0  0  0  0
   26.2420   39.9110   83.5759 H   0  0  0  0  0  0
   26.7225   41.5822   83.8865 H   0  0  0  0  0  0
   23.9834   38.0571   85.2843 H   0  0  0  0  0  0
   24.3829   35.0395   82.2531 H   0  0  0  0  0  0
   32.3529   35.6156   80.0198 H   0  0  0  0  0  0
   32.4751   37.4864   84.4492 H   0  0  0  0  0  0
   33.3913   36.2221   83.6806 H   0  0  0  0  0  0
   34.7515   37.7530   82.6796 H   0  0  0  0  0  0
   33.8291   39.0810   83.3582 H   0  0  0  0  0  0
   33.9001   38.5534   80.6196 H   0  0  0  0  0  0
   32.5757   39.3577   81.4018 H   0  0  0  0  0  0
   20.5812   37.4490   82.9991 H   0  0  0  0  0  0
   22.7067   36.1773   86.4933 H   0  0  0  0  0  0
   21.1000   37.4217   87.9228 H   0  0  0  0  0  0
   18.9279   38.6209   84.4283 H   0  0  0  0  0  0
   19.2039   38.6150   86.8791 H   0  0  0  0  0  0
  1  2  1  0  0  0
  1  5  1  0  0  0
  1  8  1  0  0  0
  2  3  1  0  0  0
  2  6  2  0  0  0
  3  7  2  0  0  0
  3  4  1  0  0  0
  4  5  2  0  0  0
  4 10  1  0  0  0
  5 30  1  0  0  0
  6 11  1  0  0  0
  7 16  1  0  0  0
  7  9  1  0  0  0
  8 12  1  0  0  0
  8 22  1  0  0  0
  8 31  1  0  0  0
  9 11  2  0  0  0
 10 14  1  0  0  0
 10 15  2  0  0  0
 11 32  1  0  0  0
 12 21  1  0  0  0
 12 24  1  0  0  0
 12 33  1  0  0  0
 13 17  1  0  0  0
 13 20  1  0  0  0
 14 18  2  0  0  0
 14 34  1  0  0  0
 15 19  1  0  0  0
 15 35  1  0  0  0
 16 36  1  0  0  0
 16 37  1  0  0  0
 17 19  2  0  0  0
 17 18  1  0  0  0
 18 38  1  0  0  0
 19 39  1  0  0  0
 20 25  1  0  0  0
 20 26  2  0  0  0
 21 40  1  0  0  0
 22 23  1  0  0  0
 22 41  1  0  0  0
 22 42  1  0  0  0
 23 24  1  0  0  0
 23 43  1  0  0  0
 23 44  1  0  0  0
 24 45  1  0  0  0
 24 46  1  0  0  0
 25 28  2  0  0  0
 25 47  1  0  0  0
 26 27  1  0  0  0
 26 48  1  0  0  0
 27 29  2  0  0  0
 27 49  1  0  0  0
 28 29  1  0  0  0
 28 50  1  0  0  0
 29 51  1  0  0  0
M  END
> <s_m_entry_id>
4766

> <s_m_entry_name>
dock_pv.254

> <s_m_Source_Path>
/home/csk/Desktop/cluster/DUD-E-result/lck

> <s_m_Source_File>
dock_pv.maegz

> <i_m_Source_File_Index>
254

> <chembl_id>
CHEMBL419082

> <chembl_pref_name>
None

> <i_lp_mmshare_version>
53161

> <i_f3d_flags>
0

> <r_lp_tautomer_probability>
1

> <s_lp_Force_Field>
OPLS_2005

> <r_lp_Energy>
39.986122

> <b_lp_Chiralities_Consistent>
1

> <s_lp_Variant>
CHEMBL258_lig98-2

> <s_i_glide_gridfile>
glide-grid_2of2

> <i_i_glide_lignum>
111

> <i_i_glide_rotatable_bonds>
5

> <r_i_docking_score>
-6.99205489405569

> <r_i_glide_ligand_efficiency>
-0.241105341174334

> <r_i_glide_ligand_efficiency_sa>
-0.74075199562119

> <r_i_glide_ligand_efficiency_ln>
-1.60100326752478

> <r_i_glide_gscore>
-6.99205489405569

> <r_i_glide_lipo>
-3.41582137139049

> <r_i_glide_hbond>
-0.32

> <r_i_glide_metal>
0

> <r_i_glide_rewards>
-1.08925728939333

> <r_i_glide_evdw>
-39.4122200012207

> <r_i_glide_ecoul>
-4.45638751983643

> <r_i_glide_erotb>
0.521316962828087

> <r_i_glide_esite>
-0.0492240680634554

> <r_i_glide_emodel>
-61.0707073895724

> <r_i_glide_energy>
-43.8686075210571

> <r_i_glide_einternal>
6.21321964263916

> <i_i_glide_confnum>
195

> <i_i_glide_posenum>
35

> <r_i_glide_eff_state_penalty>
0

> <s_user_duplicate_titles>
CHEMBL258_lig98,107748

> <s_m_subgroup_title>
dock_pv

> <s_m_subgroupid>
dock_pv

> <b_m_subgroup_collapsed>
1

$$$$
CHEMBL258_lig832
                    3D
 Schrodinger Suite 2021-1.
 43 46  0  0  1  0            999 V2000
   25.5777   37.0195   83.4637 N   0  0  0  0  0  0
   24.8563   35.9484   83.0241 C   0  0  0  0  0  0
   23.4955   35.8209   83.2902 C   0  0  0  0  0  0
   22.8955   36.7909   84.0871 C   0  0  0  0  0  0
   23.5877   37.8846   84.5064 N   0  0  0  0  0  0
   24.9041   37.9668   84.1667 C   0  0  0  0  0  0
   25.5819   39.1774   84.4798 N   0  0  0  0  0  0
   25.0148   40.2934   85.0745 C   0  0  0  0  0  0
   25.8060   41.3233   85.1990 N   0  0  0  0  0  0
   26.9014   39.5495   84.2171 C   0  0  0  0  0  0
   26.9857   40.8990   84.6610 C   0  0  0  0  0  0
   28.1780   41.6202   84.5109 C   0  0  0  0  0  0
   29.2686   40.9779   83.9274 C   0  0  0  0  0  0
   29.1857   39.6486   83.5157 C   0  0  0  0  0  0
   28.0106   38.9033   83.6455 C   0  0  0  0  0  0
   21.5352   36.6504   84.3946 N   0  0  0  0  0  0
   20.6831   37.5312   85.0768 C   0  0  0  0  0  0
   19.4712   37.8540   84.4567 C   0  0  0  0  0  0
   18.5926   38.7557   85.0528 C   0  0  0  0  0  0
   18.9495   39.3803   86.2453 C   0  0  0  0  0  0
   20.1317   39.0414   86.8871 C   0  0  0  0  0  0
   20.9817   38.0820   86.3404 C   0  0  0  0  0  0
   22.1559   37.6305   87.1929 C   0  0  0  0  0  0
   17.3728   39.0209   84.4869 O   0  0  0  0  0  0
   25.4683   34.9715   82.2677 O   0  0  0  0  0  0
   26.8789   35.0212   82.0914 C   0  0  0  0  0  0
   22.9407   34.9756   82.9110 H   0  0  0  0  0  0
   23.9762   40.2769   85.3745 H   0  0  0  0  0  0
   28.2522   42.6493   84.8318 H   0  0  0  0  0  0
   30.1944   41.5235   83.7983 H   0  0  0  0  0  0
   30.0589   39.1840   83.0794 H   0  0  0  0  0  0
   27.9779   37.8784   83.3107 H   0  0  0  0  0  0
   21.0910   35.8126   84.0465 H   0  0  0  0  0  0
   19.2035   37.4030   83.5126 H   0  0  0  0  0  0
   18.2831   40.0973   86.7026 H   0  0  0  0  0  0
   20.3663   39.4980   87.8371 H   0  0  0  0  0  0
   22.9553   38.3695   87.1586 H   0  0  0  0  0  0
   21.8461   37.5253   88.2321 H   0  0  0  0  0  0
   22.5397   36.6568   86.8883 H   0  0  0  0  0  0
   16.7782   39.4219   85.1438 H   0  0  0  0  0  0
   27.1735   34.2209   81.4160 H   0  0  0  0  0  0
   27.2163   35.9758   81.6873 H   0  0  0  0  0  0
   27.3909   34.8527   83.0358 H   0  0  0  0  0  0
  1  6  1  0  0  0
  1  2  2  0  0  0
  2  3  1  0  0  0
  2 25  1  0  0  0
  3  4  2  0  0  0
  3 27  1  0  0  0
  4 16  1  0  0  0
  4  5  1  0  0  0
  5  6  2  0  0  0
  6  7  1  0  0  0
  7  8  1  0  0  0
  7 10  1  0  0  0
  8  9  2  0  0  0
  8 28  1  0  0  0
  9 11  1  0  0  0
 10 15  1  0  0  0
 10 11  2  0  0  0
 11 12  1  0  0  0
 12 13  2  0  0  0
 12 29  1  0  0  0
 13 14  1  0  0  0
 13 30  1  0  0  0
 14 15  2  0  0  0
 14 31  1  0  0  0
 15 32  1  0  0  0
 16 17  1  0  0  0
 16 33  1  0  0  0
 17 18  2  0  0  0
 17 22  1  0  0  0
 18 19  1  0  0  0
 18 34  1  0  0  0
 19 20  2  0  0  0
 19 24  1  0  0  0
 20 21  1  0  0  0
 20 35  1  0  0  0
 21 22  2  0  0  0
 21 36  1  0  0  0
 22 23  1  0  0  0
 23 37  1  0  0  0
 23 38  1  0  0  0
 23 39  1  0  0  0
 24 40  1  0  0  0
 25 26  1  0  0  0
 26 41  1  0  0  0
 26 42  1  0  0  0
 26 43  1  0  0  0
M  END
> <s_m_entry_id>
4767

> <s_m_entry_name>
dock_pv.255

> <s_m_Source_Path>
/home/csk/Desktop/cluster/DUD-E-result/lck

> <s_m_Source_File>
dock_pv.maegz

> <i_m_Source_File_Index>
255

> <chembl_id>
CHEMBL221859

> <chembl_pref_name>
None

> <i_lp_mmshare_version>
53161

> <i_f3d_flags>
0

> <r_lp_tautomer_probability>
1

> <s_lp_Force_Field>
OPLS_2005

> <r_lp_Energy>
12.814677

> <b_lp_Chiralities_Consistent>
1

> <s_lp_Variant>
CHEMBL258_lig832-1

> <s_i_glide_gridfile>
glide-grid_2of2

> <i_i_glide_lignum>
917

> <i_i_glide_rotatable_bonds>
5

> <r_i_docking_score>
-6.9901247939742

> <r_i_glide_ligand_efficiency>
-0.268850953614392

> <r_i_glide_ligand_efficiency_sa>
-0.796469892205218

> <r_i_glide_ligand_efficiency_ln>
-1.64160787139461

> <r_i_glide_gscore>
-6.9901247939742

> <r_i_glide_lipo>
-2.07457551551593

> <r_i_glide_hbond>
-0.74222864536667

> <r_i_glide_metal>
0

> <r_i_glide_rewards>
-1.65416325029298

> <r_i_glide_evdw>
-35.9188194274902

> <r_i_glide_ecoul>
-7.97452735900879

> <r_i_glide_erotb>
0.472962692427211

> <r_i_glide_esite>
0

> <r_i_glide_emodel>
-61.112199963913

> <r_i_glide_energy>
-43.893346786499

> <r_i_glide_einternal>
3.57536172866821

> <i_i_glide_confnum>
1

> <i_i_glide_posenum>
110

> <r_i_glide_eff_state_penalty>
0

> <s_user_duplicate_titles>
CHEMBL258_lig832,368661

> <s_m_subgroup_title>
dock_pv

> <s_m_subgroupid>
dock_pv

> <b_m_subgroup_collapsed>
1

$$$$
CHEMBL258_lig808
                    3D
 Schrodinger Suite 2021-1.
 63 67  0  0  1  0            999 V2000
   24.8449   40.5901   85.1168 N   0  0  0  0  0  0
   23.5664   40.7953   85.5272 C   0  0  0  0  0  0
   22.6302   39.7583   85.5865 C   0  0  0  0  0  0
   23.0566   38.4802   85.1942 C   0  0  0  0  0  0
   24.3293   38.2525   84.7834 N   0  0  0  0  0  0
   25.1752   39.3200   84.7557 C   0  0  0  0  0  0
   26.5275   39.0823   84.3999 N   0  0  0  0  0  0
   27.6079   39.8929   84.7066 C   0  0  0  0  0  0
   28.7679   39.4456   84.3103 N   0  0  0  0  0  0
   27.0729   38.0119   83.6978 C   0  0  0  0  0  0
   28.4710   38.2690   83.6868 C   0  0  0  0  0  0
   29.3500   37.3644   83.0774 C   0  0  0  0  0  0
   28.8117   36.2209   82.4871 C   0  0  0  0  0  0
   27.4369   35.9883   82.4871 C   0  0  0  0  0  0
   26.5336   36.8726   83.0824 C   0  0  0  0  0  0
   22.2287   37.3497   85.2561 N   0  0  0  0  0  0
   20.8697   37.2515   85.5943 C   0  0  0  0  0  0
   19.9526   38.1547   85.0512 C   0  0  0  0  0  0
   18.6208   38.1324   85.4443 C   0  0  0  0  0  0
   18.1852   37.2149   86.3964 C   0  0  0  0  0  0
   19.0739   36.2592   86.8872 C   0  0  0  0  0  0
   20.4101   36.2506   86.4696 C   0  0  0  0  0  0
   21.3263   35.1338   86.9494 C   0  0  0  0  0  0
   17.7499   39.0213   84.8870 O   0  0  0  0  0  0
   23.2164   42.2122   85.9677 C   0  0  0  0  0  0
   23.7554   42.5692   87.3710 C   0  0  0  0  0  0
   23.0907   41.7596   88.5050 C   0  0  0  0  0  0
   23.6383   42.0180   89.9294 C   0  0  0  0  0  0
   22.7973   41.2827   90.9954 C   0  0  0  0  0  0
   23.3561   41.4289   92.4245 C   0  0  0  0  0  0
   24.7584   41.0207   92.4869 N   0  0  1  0  0  0
   25.6125   41.7817   91.5740 C   0  0  0  0  0  0
   25.1282   41.6452   90.1131 C   0  0  0  0  0  0
   21.6344   39.9449   85.9541 H   0  0  0  0  0  0
   27.4574   40.8104   85.2597 H   0  0  0  0  0  0
   30.4151   37.5451   83.0645 H   0  0  0  0  0  0
   29.4651   35.5051   82.0058 H   0  0  0  0  0  0
   27.0646   35.0950   82.0092 H   0  0  0  0  0  0
   25.4736   36.6698   83.0702 H   0  0  0  0  0  0
   22.7004   36.4730   85.0964 H   0  0  0  0  0  0
   20.2731   38.8874   84.3263 H   0  0  0  0  0  0
   17.1517   37.2056   86.7118 H   0  0  0  0  0  0
   18.7122   35.5106   87.5789 H   0  0  0  0  0  0
   20.7974   34.3856   87.5425 H   0  0  0  0  0  0
   21.7491   34.6211   86.0895 H   0  0  0  0  0  0
   22.1500   35.5327   87.5406 H   0  0  0  0  0  0
   17.0241   39.2640   85.4901 H   0  0  0  0  0  0
   22.1340   42.3569   85.9360 H   0  0  0  0  0  0
   23.6162   42.9118   85.2303 H   0  0  0  0  0  0
   23.5909   43.6317   87.5534 H   0  0  0  0  0  0
   24.8359   42.4257   87.3786 H   0  0  0  0  0  0
   23.1776   40.6946   88.2884 H   0  0  0  0  0  0
   22.0199   41.9722   88.4924 H   0  0  0  0  0  0
   23.5578   43.0816   90.1613 H   0  0  0  0  0  0
   22.7284   40.2206   90.7616 H   0  0  0  0  0  0
   21.7650   41.6294   90.9550 H   0  0  0  0  0  0
   22.7814   40.8129   93.1175 H   0  0  0  0  0  0
   23.2706   42.4632   92.7621 H   0  0  0  0  0  0
   25.0891   41.0645   93.4439 H   0  0  0  0  0  0
   26.6371   41.4201   91.6676 H   0  0  0  0  0  0
   25.6097   42.8300   91.8776 H   0  0  0  0  0  0
   25.7561   42.2424   89.4522 H   0  0  0  0  0  0
   25.3094   40.6211   89.7899 H   0  0  0  0  0  0
  1  6  1  0  0  0
  1  2  2  0  0  0
  2  3  1  0  0  0
  2 25  1  0  0  0
  3  4  2  0  0  0
  3 34  1  0  0  0
  4 16  1  0  0  0
  4  5  1  0  0  0
  5  6  2  0  0  0
  6  7  1  0  0  0
  7  8  1  0  0  0
  7 10  1  0  0  0
  8  9  2  0  0  0
  8 35  1  0  0  0
  9 11  1  0  0  0
 10 11  2  0  0  0
 10 15  1  0  0  0
 11 12  1  0  0  0
 12 13  2  0  0  0
 12 36  1  0  0  0
 13 14  1  0  0  0
 13 37  1  0  0  0
 14 15  2  0  0  0
 14 38  1  0  0  0
 15 39  1  0  0  0
 16 17  1  0  0  0
 16 40  1  0  0  0
 17 18  2  0  0  0
 17 22  1  0  0  0
 18 19  1  0  0  0
 18 41  1  0  0  0
 19 20  2  0  0  0
 19 24  1  0  0  0
 20 21  1  0  0  0
 20 42  1  0  0  0
 21 22  2  0  0  0
 21 43  1  0  0  0
 22 23  1  0  0  0
 23 44  1  0  0  0
 23 45  1  0  0  0
 23 46  1  0  0  0
 24 47  1  0  0  0
 25 26  1  0  0  0
 25 48  1  0  0  0
 25 49  1  0  0  0
 26 27  1  0  0  0
 26 50  1  0  0  0
 26 51  1  0  0  0
 27 28  1  0  0  0
 27 52  1  0  0  0
 27 53  1  0  0  0
 28 29  1  0  0  0
 28 33  1  0  0  0
 28 54  1  0  0  0
 29 30  1  0  0  0
 29 55  1  0  0  0
 29 56  1  0  0  0
 30 31  1  0  0  0
 30 57  1  0  0  0
 30 58  1  0  0  0
 31 32  1  0  0  0
 31 59  1  0  0  0
 32 33  1  0  0  0
 32 60  1  0  0  0
 32 61  1  0  0  0
 33 62  1  0  0  0
 33 63  1  0  0  0
M  END
> <s_m_entry_id>
4768

> <s_m_entry_name>
dock_pv.256

> <s_m_Source_Path>
/home/csk/Desktop/cluster/DUD-E-result/lck

> <s_m_Source_File>
dock_pv.maegz

> <i_m_Source_File_Index>
256

> <chembl_id>
CHEMBL375666

> <chembl_pref_name>
None

> <i_lp_mmshare_version>
53161

> <i_f3d_flags>
0

> <r_lp_tautomer_probability>
1

> <s_lp_Force_Field>
OPLS_2005

> <r_lp_Energy>
25.842104

> <b_lp_Chiralities_Consistent>
1

> <s_lp_Variant>
CHEMBL258_lig808-1

> <s_i_glide_gridfile>
glide-grid_2of2

> <i_i_glide_lignum>
893

> <i_i_glide_rotatable_bonds>
8

> <r_i_docking_score>
-6.98985397978834

> <r_i_glide_ligand_efficiency>
-0.211813756963283

> <r_i_glide_ligand_efficiency_sa>
-0.679399896233281

> <r_i_glide_ligand_efficiency_ln>
-1.55450733357795

> <r_i_glide_gscore>
-6.98985397978834

> <r_i_glide_lipo>
-2.99616534239094

> <r_i_glide_hbond>
-0.414839529777831

> <r_i_glide_metal>
0

> <r_i_glide_rewards>
-0.911767075271177

> <r_i_glide_evdw>
-44.5735855102539

> <r_i_glide_ecoul>
-7.00412368774414

> <r_i_glide_erotb>
0.612215796325927

> <r_i_glide_esite>
0

> <r_i_glide_emodel>
-69.9157510183757

> <r_i_glide_energy>
-51.577709197998

> <r_i_glide_einternal>
6.77420473098755

> <i_i_glide_confnum>
22

> <i_i_glide_posenum>
367

> <r_i_glide_eff_state_penalty>
0

> <s_user_duplicate_titles>
CHEMBL258_lig808,368720

> <s_m_subgroup_title>
dock_pv

> <s_m_subgroupid>
dock_pv

> <b_m_subgroup_collapsed>
1

$$$$
CHEMBL258_lig551
                    3D
 Schrodinger Suite 2021-1.
 61 65  0  0  1  0            999 V2000
   25.9523   37.2970   83.8039 C   0  0  0  0  0  0
   22.3170   37.0440   84.3388 C   0  0  0  0  0  0
   24.5303   37.2390   84.0980 C   0  0  0  0  0  0
   26.6684   36.5047   82.8382 C   0  0  0  0  0  0
   23.4164   36.4860   83.6863 N   0  0  0  0  0  0
   22.6255   37.9946   85.1729 N   0  0  0  0  0  0
   26.7466   38.2513   84.5394 C   0  0  0  0  0  0
   27.9944   36.6235   82.6282 N   0  0  0  0  0  0
   21.0267   36.6197   84.1247 N   0  0  0  0  0  0
   23.9692   38.1353   85.0421 C   0  0  0  0  0  0
   28.1489   38.3957   84.2556 C   0  0  0  0  0  0
   28.7069   37.5538   83.2892 C   0  0  0  0  0  0
   19.9282   36.9049   84.9509 C   0  0  0  0  0  0
   26.1194   39.0395   85.5365 C   0  0  0  0  0  0
   26.0126   35.6066   82.0606 O   0  0  0  0  0  0
   27.7667   43.1230   84.4877 N   0  0  0  0  0  0
   24.7547   39.0288   85.7481 C   0  0  0  0  0  0
   19.8454   36.3622   86.2489 C   0  0  0  0  0  0
   18.8511   37.6565   84.4528 C   0  0  0  0  0  0
   27.4413   45.8846   85.2352 O   0  0  0  0  0  0
   23.3006   35.4213   82.6840 C   0  0  0  0  0  0
   29.0166   39.4356   84.9980 C   0  0  0  0  0  0
   18.8122   38.2211   82.8191 Cl  0  0  0  0  0  0
   21.0761   35.3201   86.8870 Cl  0  0  0  0  0  0
   30.1687   37.6349   82.8685 C   0  0  0  0  0  0
   27.7401   41.7032   84.8498 C   0  0  0  0  0  0
   28.9818   40.8791   84.4289 C   0  0  0  0  0  0
   26.4400   43.7193   84.7155 C   0  0  0  0  0  0
   28.8257   43.8794   85.1768 C   0  0  0  0  0  0
   17.6902   37.4192   86.5573 C   0  0  0  0  0  0
   17.7496   37.9218   85.2617 C   0  0  0  0  0  0
   18.7242   36.6211   87.0389 C   0  0  0  0  0  0
   26.4251   45.2447   84.4730 C   0  0  0  0  0  0
   28.7328   45.3975   84.8904 C   0  0  0  0  0  0
   20.8356   35.8720   83.4766 H   0  0  0  0  0  0
   26.6946   39.7045   86.1552 H   0  0  0  0  0  0
   26.6306   35.3305   81.3757 H   0  0  0  0  0  0
   24.3161   39.6839   86.4870 H   0  0  0  0  0  0
   22.3071   34.9770   82.6932 H   0  0  0  0  0  0
   23.4752   35.8209   81.6874 H   0  0  0  0  0  0
   24.0042   34.6212   82.8869 H   0  0  0  0  0  0
   30.0540   39.1078   84.9776 H   0  0  0  0  0  0
   28.8046   39.4289   86.0676 H   0  0  0  0  0  0
   30.4093   38.6408   82.5251 H   0  0  0  0  0  0
   30.8282   37.3962   83.7005 H   0  0  0  0  0  0
   30.4081   36.9447   82.0558 H   0  0  0  0  0  0
   27.5769   41.6121   85.9250 H   0  0  0  0  0  0
   26.8724   41.2508   84.3682 H   0  0  0  0  0  0
   29.0179   40.8156   83.3402 H   0  0  0  0  0  0
   29.8958   41.3910   84.7237 H   0  0  0  0  0  0
   26.1194   43.5224   85.7404 H   0  0  0  0  0  0
   25.7033   43.2333   84.0741 H   0  0  0  0  0  0
   29.8094   43.5142   84.8876 H   0  0  0  0  0  0
   28.7511   43.7146   86.2540 H   0  0  0  0  0  0
   16.8295   37.6301   87.1763 H   0  0  0  0  0  0
   16.9250   38.5097   84.8828 H   0  0  0  0  0  0
   18.6510   36.1958   88.0284 H   0  0  0  0  0  0
   26.5508   45.4662   83.4104 H   0  0  0  0  0  0
   25.4592   45.6555   84.7697 H   0  0  0  0  0  0
   28.9495   45.6179   83.8439 H   0  0  0  0  0  0
   29.4803   45.9303   85.4763 H   0  0  0  0  0  0
  1  3  2  0  0  0
  1  4  1  0  0  0
  1  7  1  0  0  0
  2  5  1  0  0  0
  2  9  1  0  0  0
  2  6  2  0  0  0
  3  5  1  0  0  0
  3 10  1  0  0  0
  4  8  2  0  0  0
  4 15  1  0  0  0
  5 21  1  0  0  0
  6 10  1  0  0  0
  7 11  1  0  0  0
  7 14  2  0  0  0
  8 12  1  0  0  0
  9 13  1  0  0  0
  9 35  1  0  0  0
 10 17  2  0  0  0
 11 12  2  0  0  0
 11 22  1  0  0  0
 12 25  1  0  0  0
 13 18  2  0  0  0
 13 19  1  0  0  0
 14 17  1  0  0  0
 14 36  1  0  0  0
 15 37  1  0  0  0
 16 26  1  0  0  0
 16 28  1  0  0  0
 16 29  1  0  0  0
 17 38  1  0  0  0
 18 24  1  0  0  0
 18 32  1  0  0  0
 19 23  1  0  0  0
 19 31  2  0  0  0
 20 34  1  0  0  0
 20 33  1  0  0  0
 21 39  1  0  0  0
 21 40  1  0  0  0
 21 41  1  0  0  0
 22 27  1  0  0  0
 22 42  1  0  0  0
 22 43  1  0  0  0
 25 44  1  0  0  0
 25 45  1  0  0  0
 25 46  1  0  0  0
 26 27  1  0  0  0
 26 47  1  0  0  0
 26 48  1  0  0  0
 27 49  1  0  0  0
 27 50  1  0  0  0
 28 33  1  0  0  0
 28 51  1  0  0  0
 28 52  1  0  0  0
 29 34  1  0  0  0
 29 53  1  0  0  0
 29 54  1  0  0  0
 30 31  1  0  0  0
 30 32  2  0  0  0
 30 55  1  0  0  0
 31 56  1  0  0  0
 32 57  1  0  0  0
 33 58  1  0  0  0
 33 59  1  0  0  0
 34 60  1  0  0  0
 34 61  1  0  0  0
M  END
> <s_m_entry_id>
4769

> <s_m_entry_name>
dock_pv.257

> <s_m_Source_Path>
/home/csk/Desktop/cluster/DUD-E-result/lck

> <s_m_Source_File>
dock_pv.maegz

> <i_m_Source_File_Index>
257

> <chembl_id>
CHEMBL29566

> <chembl_pref_name>
None

> <i_lp_mmshare_version>
53161

> <i_f3d_flags>
0

> <r_lp_tautomer_probability>
1

> <s_lp_Force_Field>
OPLS_2005

> <r_lp_Energy>
49.133108

> <b_lp_Chiralities_Consistent>
1

> <s_lp_Variant>
CHEMBL258_lig551-1

> <s_i_glide_gridfile>
glide-grid_2of2

> <i_i_glide_lignum>
623

> <i_i_glide_rotatable_bonds>
7

> <r_i_docking_score>
-6.98571343748556

> <r_i_glide_ligand_efficiency>
-0.205462159926046

> <r_i_glide_ligand_efficiency_sa>
-0.665617637229978

> <r_i_glide_ligand_efficiency_ln>
-1.54334004096546

> <r_i_glide_gscore>
-6.98571343748556

> <r_i_glide_lipo>
-3.391270551759

> <r_i_glide_hbond>
-0.418273752157226

> <r_i_glide_metal>
0

> <r_i_glide_rewards>
-0.462353730147087

> <r_i_glide_evdw>
-45.971565246582

> <r_i_glide_ecoul>
-5.48628664016724

> <r_i_glide_erotb>
0.407705854931934

> <r_i_glide_esite>
0

> <r_i_glide_emodel>
-70.8981935319926

> <r_i_glide_energy>
-51.4578518867493

> <r_i_glide_einternal>
2.9054708480835

> <i_i_glide_confnum>
17

> <i_i_glide_posenum>
261

> <r_i_glide_eff_state_penalty>
0

> <s_user_duplicate_titles>
CHEMBL258_lig551,37578

> <s_m_subgroup_title>
dock_pv

> <s_m_subgroupid>
dock_pv

> <b_m_subgroup_collapsed>
1

$$$$
CHEMBL258_lig785
                    3D
 Schrodinger Suite 2021-1.
 62 65  0  0  1  0            999 V2000
   19.9230   36.7767   85.2701 C   0  0  0  0  0  0
   19.7694   36.0732   86.4870 C   0  0  0  0  0  0
   18.6141   36.2639   87.2525 C   0  0  0  0  0  0
   17.6237   37.1470   86.8308 C   0  0  0  0  0  0
   17.7582   37.8147   85.6152 C   0  0  0  0  0  0
   18.8888   37.6195   84.8231 C   0  0  0  0  0  0
   20.7799   35.0206   86.9419 C   0  0  0  0  0  0
   21.0799   36.6277   84.4777 N   0  0  0  0  0  0
   22.3216   36.9586   84.8872 C   0  0  0  0  0  0
   22.5510   37.5628   85.9374 O   0  0  0  0  0  0
   23.3920   36.5213   84.0207 C   0  0  0  0  0  0
   23.4018   35.6606   82.9123 C   0  0  0  0  0  0
   24.5790   35.4209   82.3606 N   0  0  0  0  0  0
   25.5524   36.0827   82.9385 C   0  0  0  0  0  0
   25.0364   37.0196   84.3153 S   0  0  0  0  0  0
   26.8550   35.9915   82.4871 N   0  0  0  0  0  0
   28.0577   36.6283   82.8384 C   0  0  0  0  0  0
   28.1774   37.7564   83.6679 C   0  0  0  0  0  0
   29.4572   38.3045   83.8429 C   0  0  0  0  0  0
   30.5423   37.8078   83.2030 N   0  0  0  0  0  0
   30.3340   36.7079   82.4383 C   0  0  0  0  0  0
   29.1442   36.0948   82.2282 N   0  0  0  0  0  0
   18.9509   38.4189   83.2881 Cl  0  0  0  0  0  0
   29.7213   39.3921   84.6847 N   0  0  0  0  0  0
   31.5330   36.1278   81.7149 C   0  0  0  0  0  0
   28.7164   40.0137   85.5377 C   0  0  0  0  0  0
   28.0505   41.2409   84.9014 C   0  0  0  0  0  0
   27.0595   41.9097   85.8729 C   0  0  0  0  0  0
   26.4010   43.1005   85.3272 N   0  0  0  0  0  0
   25.3139   43.5188   86.2291 C   0  0  0  0  0  0
   24.6745   44.8612   85.8121 C   0  0  0  0  0  0
   25.6831   45.8582   85.6817 O   0  0  0  0  0  0
   26.6317   45.5119   84.6773 C   0  0  0  0  0  0
   27.3471   44.1970   85.0500 C   0  0  0  0  0  0
   18.4704   35.7117   88.1695 H   0  0  0  0  0  0
   16.7348   37.2978   87.4259 H   0  0  0  0  0  0
   16.9680   38.4708   85.2793 H   0  0  0  0  0  0
   20.3340   34.3034   87.6354 H   0  0  0  0  0  0
   21.1369   34.4333   86.0976 H   0  0  0  0  0  0
   21.6506   35.4813   87.4082 H   0  0  0  0  0  0
   20.9568   36.2037   83.5733 H   0  0  0  0  0  0
   22.5378   35.1621   82.4946 H   0  0  0  0  0  0
   27.0456   35.3803   81.7053 H   0  0  0  0  0  0
   27.3339   38.2239   84.1320 H   0  0  0  0  0  0
   30.6494   39.7901   84.6638 H   0  0  0  0  0  0
   31.4080   35.0581   81.5351 H   0  0  0  0  0  0
   31.6674   36.6229   80.7529 H   0  0  0  0  0  0
   32.4415   36.2565   82.3039 H   0  0  0  0  0  0
   29.2046   40.3054   86.4685 H   0  0  0  0  0  0
   27.9672   39.2957   85.8709 H   0  0  0  0  0  0
   27.5286   40.9341   83.9930 H   0  0  0  0  0  0
   28.8333   41.9351   84.5940 H   0  0  0  0  0  0
   27.5606   42.1485   86.8130 H   0  0  0  0  0  0
   26.3014   41.1681   86.1359 H   0  0  0  0  0  0
   25.7030   43.6223   87.2444 H   0  0  0  0  0  0
   24.5561   42.7345   86.2765 H   0  0  0  0  0  0
   24.1066   44.7527   84.8875 H   0  0  0  0  0  0
   23.9584   45.1860   86.5674 H   0  0  0  0  0  0
   26.1503   45.4212   83.7032 H   0  0  0  0  0  0
   27.3581   46.3182   84.5886 H   0  0  0  0  0  0
   28.0359   43.9171   84.2525 H   0  0  0  0  0  0
   27.9672   44.3731   85.9317 H   0  0  0  0  0  0
  1  8  1  0  0  0
  1  6  2  0  0  0
  1  2  1  0  0  0
  2  3  2  0  0  0
  2  7  1  0  0  0
  3  4  1  0  0  0
  3 35  1  0  0  0
  4  5  2  0  0  0
  4 36  1  0  0  0
  5  6  1  0  0  0
  5 37  1  0  0  0
  6 23  1  0  0  0
  7 38  1  0  0  0
  7 39  1  0  0  0
  7 40  1  0  0  0
  8  9  1  0  0  0
  8 41  1  0  0  0
  9 10  2  0  0  0
  9 11  1  0  0  0
 11 12  2  0  0  0
 11 15  1  0  0  0
 12 13  1  0  0  0
 12 42  1  0  0  0
 13 14  2  0  0  0
 14 15  1  0  0  0
 14 16  1  0  0  0
 16 17  1  0  0  0
 16 43  1  0  0  0
 17 18  2  0  0  0
 17 22  1  0  0  0
 18 19  1  0  0  0
 18 44  1  0  0  0
 19 20  2  0  0  0
 19 24  1  0  0  0
 20 21  1  0  0  0
 21 22  2  0  0  0
 21 25  1  0  0  0
 24 26  1  0  0  0
 24 45  1  0  0  0
 25 46  1  0  0  0
 25 47  1  0  0  0
 25 48  1  0  0  0
 26 27  1  0  0  0
 26 49  1  0  0  0
 26 50  1  0  0  0
 27 28  1  0  0  0
 27 51  1  0  0  0
 27 52  1  0  0  0
 28 29  1  0  0  0
 28 53  1  0  0  0
 28 54  1  0  0  0
 29 30  1  0  0  0
 29 34  1  0  0  0
 30 31  1  0  0  0
 30 55  1  0  0  0
 30 56  1  0  0  0
 31 32  1  0  0  0
 31 57  1  0  0  0
 31 58  1  0  0  0
 32 33  1  0  0  0
 33 34  1  0  0  0
 33 59  1  0  0  0
 33 60  1  0  0  0
 34 61  1  0  0  0
 34 62  1  0  0  0
M  END
> <s_m_entry_id>
4770

> <s_m_entry_name>
dock_pv.258

> <s_m_Source_Path>
/home/csk/Desktop/cluster/DUD-E-result/lck

> <s_m_Source_File>
dock_pv.maegz

> <i_m_Source_File_Index>
258

> <chembl_id>
CHEMBL214617

> <chembl_pref_name>
None

> <i_lp_mmshare_version>
53161

> <i_f3d_flags>
0

> <r_lp_tautomer_probability>
0.999999968245435

> <s_lp_Force_Field>
OPLS_2005

> <r_lp_Energy>
33.834763

> <b_lp_Chiralities_Consistent>
1

> <s_lp_Variant>
CHEMBL258_lig785-1

> <s_i_glide_gridfile>
glide-grid_2of2

> <i_i_glide_lignum>
870

> <i_i_glide_rotatable_bonds>
10

> <r_i_docking_score>
-6.97865639148589

> <r_i_glide_ligand_efficiency>
-0.205254599749585

> <r_i_glide_ligand_efficiency_sa>
-0.66494522283363

> <r_i_glide_ligand_efficiency_ln>
-1.5417809415607

> <r_i_glide_gscore>
-6.97865639148589

> <r_i_glide_lipo>
-2.7542410255599

> <r_i_glide_hbond>
-0.195490196361256

> <r_i_glide_metal>
0

> <r_i_glide_rewards>
-1.42934579320989

> <r_i_glide_evdw>
-50.4192276000977

> <r_i_glide_ecoul>
-5.38780069351196

> <r_i_glide_erotb>
0.729552107676831

> <r_i_glide_esite>
0

> <r_i_glide_emodel>
-73.3805424727948

> <r_i_glide_energy>
-55.8070282936096

> <r_i_glide_einternal>
11.405725479126

> <i_i_glide_confnum>
14

> <i_i_glide_posenum>
67

> <r_i_glide_eff_state_penalty>
0

> <s_user_duplicate_titles>
CHEMBL258_lig785,361441

> <s_m_subgroup_title>
dock_pv

> <s_m_subgroupid>
dock_pv

> <b_m_subgroup_collapsed>
1

$$$$
CHEMBL258_lig129
                    3D
 Schrodinger Suite 2021-1.
 33 35  0  0  1  0            999 V2000
   24.1582   36.8870   83.8699 C   0  0  0  0  0  0
   25.0734   36.0440   83.0885 C   0  0  0  0  0  0
   24.9393   38.0333   84.3629 C   0  0  0  0  0  0
   26.4010   36.6696   83.1621 C   0  0  0  0  0  0
   26.3235   37.8150   83.9307 C   0  0  0  0  0  0
   22.8308   36.6240   84.0331 C   0  0  0  0  0  0
   19.8619   38.9046   86.1574 C   0  0  0  0  0  0
   19.5690   38.3445   84.9079 C   0  0  0  0  0  0
   21.1088   38.6660   86.7418 C   0  0  0  0  0  0
   21.8017   37.3713   84.8023 C   0  0  0  0  0  0
   27.4631   38.5780   84.1849 C   0  0  0  0  0  0
   27.6229   36.2666   82.6104 C   0  0  0  0  0  0
   20.5354   37.5817   84.2438 C   0  0  0  0  0  0
   22.0525   37.8878   86.0767 C   0  0  0  0  0  0
   24.7510   35.0211   82.4859 O   0  0  0  0  0  0
   24.5037   38.9853   85.0056 O   0  0  0  0  0  0
   17.8732   38.6206   84.0772 Br  0  0  0  0  0  0
   21.5724   39.4200   88.4300 Br  0  0  0  0  0  0
   28.7895   37.0067   82.8873 C   0  0  0  0  0  0
   18.9499   39.6932   86.8141 O   0  0  0  0  0  0
   28.6911   38.1596   83.6733 C   0  0  0  0  0  0
   30.0553   36.6833   82.4411 O   0  0  0  0  0  0
   30.2443   35.5008   81.6735 C   0  0  0  0  0  0
   22.4411   35.7309   83.5601 H   0  0  0  0  0  0
   27.4155   39.4762   84.7847 H   0  0  0  0  0  0
   27.6715   35.3712   82.0089 H   0  0  0  0  0  0
   20.2987   37.1681   83.2766 H   0  0  0  0  0  0
   22.9995   37.7135   86.5552 H   0  0  0  0  0  0
   18.0426   39.6353   86.4853 H   0  0  0  0  0  0
   29.5800   38.7359   83.8864 H   0  0  0  0  0  0
   31.3080   35.3564   81.4866 H   0  0  0  0  0  0
   29.8810   34.6210   82.2039 H   0  0  0  0  0  0
   29.7502   35.5707   80.7049 H   0  0  0  0  0  0
  1  2  1  0  0  0
  1  3  1  0  0  0
  1  6  2  0  0  0
  2  4  1  0  0  0
  2 15  2  0  0  0
  3  5  1  0  0  0
  3 16  2  0  0  0
  4 12  2  0  0  0
  4  5  1  0  0  0
  5 11  2  0  0  0
  6 10  1  0  0  0
  6 24  1  0  0  0
  7  9  1  0  0  0
  7 20  1  0  0  0
  7  8  2  0  0  0
  8 13  1  0  0  0
  8 17  1  0  0  0
  9 14  2  0  0  0
  9 18  1  0  0  0
 10 13  2  0  0  0
 10 14  1  0  0  0
 11 21  1  0  0  0
 11 25  1  0  0  0
 12 19  1  0  0  0
 12 26  1  0  0  0
 13 27  1  0  0  0
 14 28  1  0  0  0
 19 22  1  0  0  0
 19 21  2  0  0  0
 20 29  1  0  0  0
 21 30  1  0  0  0
 22 23  1  0  0  0
 23 31  1  0  0  0
 23 32  1  0  0  0
 23 33  1  0  0  0
M  END
> <s_m_entry_id>
4771

> <s_m_entry_name>
dock_pv.259

> <s_m_Source_Path>
/home/csk/Desktop/cluster/DUD-E-result/lck

> <s_m_Source_File>
dock_pv.maegz

> <i_m_Source_File_Index>
259

> <chembl_id>
CHEMBL82560

> <chembl_pref_name>
None

> <i_lp_mmshare_version>
53161

> <i_f3d_flags>
0

> <r_lp_tautomer_probability>
1

> <s_lp_Force_Field>
OPLS_2005

> <r_lp_Energy>
33.080034

> <b_lp_Chiralities_Consistent>
1

> <s_lp_Variant>
CHEMBL258_lig129-1

> <s_i_glide_gridfile>
glide-grid_2of2

> <i_i_glide_lignum>
150

> <i_i_glide_rotatable_bonds>
3

> <r_i_docking_score>
-6.97496030879711

> <r_i_glide_ligand_efficiency>
-0.303259143860744

> <r_i_glide_ligand_efficiency_sa>
-0.862428664662246

> <r_i_glide_ligand_efficiency_ln>
-1.68660864811051

> <r_i_glide_gscore>
-6.97496030879711

> <r_i_glide_lipo>
-2.91183287490508

> <r_i_glide_hbond>
-0.171344101880192

> <r_i_glide_metal>
0

> <r_i_glide_rewards>
-1.21312261478856

> <r_i_glide_evdw>
-37.9173889160156

> <r_i_glide_ecoul>
-5.91155242919922

> <r_i_glide_erotb>
0.103941592957388

> <r_i_glide_esite>
0

> <r_i_glide_emodel>
-61.0309928741002

> <r_i_glide_energy>
-43.8289413452148

> <r_i_glide_einternal>
4.0649676322937

> <i_i_glide_confnum>
2

> <i_i_glide_posenum>
141

> <r_i_glide_eff_state_penalty>
0

> <s_user_duplicate_titles>
CHEMBL258_lig129,132770

> <s_m_subgroup_title>
dock_pv

> <s_m_subgroupid>
dock_pv

> <b_m_subgroup_collapsed>
1

$$$$
CHEMBL258_lig222
                    3D
 Schrodinger Suite 2021-1.
 35 38  0  0  1  0            999 V2000
   25.0628   36.8134   83.6609 C   0  0  0  0  0  0
   24.6541   37.8710   84.4871 C   0  0  0  0  0  0
   26.4070   36.8080   83.2786 N   0  0  0  0  0  0
   25.5208   38.8394   84.8868 N   0  0  0  0  0  0
   27.3044   37.7411   83.6656 C   0  0  0  0  0  0
   23.3065   37.9148   84.8731 N   0  0  0  0  0  0
   26.8229   38.7861   84.4984 C   0  0  0  0  0  0
   25.4385   35.0215   82.3490 N   0  0  0  0  0  0
   26.5629   35.6911   82.4872 C   0  0  0  0  0  0
   24.5170   35.6711   83.0235 C   0  0  0  0  0  0
   22.5291   38.8279   85.6085 C   0  0  0  0  0  0
   21.1313   38.8223   85.4457 C   0  0  0  0  0  0
   20.3357   39.7181   86.1643 C   0  0  0  0  0  0
   23.1009   39.7534   86.4903 C   0  0  0  0  0  0
   20.3473   37.7253   84.3541 Cl  0  0  0  0  0  0
   20.9206   40.6293   87.0452 C   0  0  0  0  0  0
   22.3046   40.6454   87.2029 C   0  0  0  0  0  0
   28.6739   37.7045   83.2872 C   0  0  0  0  0  0
   27.7228   39.7867   84.9319 C   0  0  0  0  0  0
   20.0743   41.6160   87.8199 C   0  0  0  0  0  0
   29.5317   38.7066   83.7357 C   0  0  0  0  0  0
   29.0624   39.7374   84.5475 C   0  0  0  0  0  0
   22.7544   37.1903   84.4412 H   0  0  0  0  0  0
   27.5092   35.4183   82.0443 H   0  0  0  0  0  0
   23.4956   35.3176   83.0474 H   0  0  0  0  0  0
   19.2624   39.7072   86.0308 H   0  0  0  0  0  0
   24.1641   39.7868   86.6589 H   0  0  0  0  0  0
   22.7678   41.3508   87.8773 H   0  0  0  0  0  0
   29.0571   36.9119   82.6607 H   0  0  0  0  0  0
   27.3614   40.5832   85.5652 H   0  0  0  0  0  0
   20.4610   42.6210   87.6603 H   0  0  0  0  0  0
   20.1498   41.4239   88.8868 H   0  0  0  0  0  0
   19.0268   41.6033   87.5163 H   0  0  0  0  0  0
   30.5741   38.6835   83.4521 H   0  0  0  0  0  0
   29.7458   40.5027   84.8871 H   0  0  0  0  0  0
  1  2  1  0  0  0
  1  3  1  0  0  0
  1 10  2  0  0  0
  2  4  2  0  0  0
  2  6  1  0  0  0
  3  5  1  0  0  0
  3  9  1  0  0  0
  4  7  1  0  0  0
  5  7  1  0  0  0
  5 18  2  0  0  0
  6 11  1  0  0  0
  6 23  1  0  0  0
  7 19  2  0  0  0
  8 10  1  0  0  0
  8  9  2  0  0  0
  9 24  1  0  0  0
 10 25  1  0  0  0
 11 12  1  0  0  0
 11 14  2  0  0  0
 12 13  2  0  0  0
 12 15  1  0  0  0
 13 16  1  0  0  0
 13 26  1  0  0  0
 14 17  1  0  0  0
 14 27  1  0  0  0
 16 17  2  0  0  0
 16 20  1  0  0  0
 17 28  1  0  0  0
 18 21  1  0  0  0
 18 29  1  0  0  0
 19 22  1  0  0  0
 19 30  1  0  0  0
 20 31  1  0  0  0
 20 32  1  0  0  0
 20 33  1  0  0  0
 21 22  2  0  0  0
 21 34  1  0  0  0
 22 35  1  0  0  0
M  END
> <s_m_entry_id>
4772

> <s_m_entry_name>
dock_pv.260

> <s_m_Source_Path>
/home/csk/Desktop/cluster/DUD-E-result/lck

> <s_m_Source_File>
dock_pv.maegz

> <i_m_Source_File_Index>
260

> <chembl_id>
CHEMBL284911

> <chembl_pref_name>
None

> <i_lp_mmshare_version>
53161

> <i_f3d_flags>
0

> <r_lp_tautomer_probability>
1

> <s_lp_Force_Field>
OPLS_2005

> <r_lp_Energy>
58.156285

> <b_lp_Chiralities_Consistent>
1

> <s_lp_Variant>
CHEMBL258_lig222-1

> <s_i_glide_gridfile>
glide-grid_2of2

> <i_i_glide_lignum>
250

> <i_i_glide_rotatable_bonds>
2

> <r_i_docking_score>
-6.97233576373041

> <r_i_glide_ligand_efficiency>
-0.316924352896837

> <r_i_glide_ligand_efficiency_sa>
-0.88803450074446

> <r_i_glide_ligand_efficiency_ln>
-1.70429318278202

> <r_i_glide_gscore>
-6.97233576373041

> <r_i_glide_lipo>
-2.35375885547798

> <r_i_glide_hbond>
-0.244702691934575

> <r_i_glide_metal>
0

> <r_i_glide_rewards>
-2.72979811519455

> <r_i_glide_evdw>
-33.6442604064941

> <r_i_glide_ecoul>
-2.33399057388306

> <r_i_glide_erotb>
0.388235505283872

> <r_i_glide_esite>
0

> <r_i_glide_emodel>
-51.2512729926368

> <r_i_glide_energy>
-35.9782509803772

> <r_i_glide_einternal>
0.199065029621124

> <i_i_glide_confnum>
4

> <i_i_glide_posenum>
95

> <r_i_glide_eff_state_penalty>
0

> <s_user_duplicate_titles>
CHEMBL258_lig222,38221

> <s_m_subgroup_title>
dock_pv

> <s_m_subgroupid>
dock_pv

> <b_m_subgroup_collapsed>
1

$$$$
CHEMBL258_lig228
                    3D
 Schrodinger Suite 2021-1.
 43 46  0  0  1  0            999 V2000
   22.4612   37.0855   84.3810 C   0  0  0  0  0  0
   23.5179   36.4744   83.6877 C   0  0  0  0  0  0
   24.7875   37.0235   83.8960 N   0  0  0  0  0  0
   22.6547   38.1698   85.1728 N   0  0  0  0  0  0
   23.9038   38.7109   85.3117 C   0  0  0  0  0  0
   25.0237   38.1058   84.6723 C   0  0  0  0  0  0
   21.1546   36.6209   84.2016 N   0  0  0  0  0  0
   25.0217   35.3071   82.4844 N   0  0  0  0  0  0
   20.0244   36.8483   85.0078 C   0  0  0  0  0  0
   25.6521   36.2542   83.1450 C   0  0  0  0  0  0
   23.7418   35.4210   82.7666 C   0  0  0  0  0  0
   24.0951   39.8930   86.1006 C   0  0  0  0  0  0
   18.9437   37.5901   84.4987 C   0  0  0  0  0  0
   19.9362   36.3027   86.3072 C   0  0  0  0  0  0
   22.9825   40.5173   86.7048 N   0  0  0  0  0  0
   18.9485   38.2210   82.8870 Cl  0  0  0  0  0  0
   26.3230   38.6488   84.8478 C   0  0  0  0  0  0
   26.4865   39.7862   85.6286 C   0  0  0  0  0  0
   17.7497   37.3173   86.5815 C   0  0  0  0  0  0
   25.3957   40.4019   86.2348 C   0  0  0  0  0  0
   17.8179   37.8222   85.2876 C   0  0  0  0  0  0
   18.7939   36.5442   87.0781 C   0  0  0  0  0  0
   21.0129   35.3749   86.8686 C   0  0  0  0  0  0
   23.0107   41.8177   87.3641 C   0  0  0  0  0  0
   22.7230   42.9755   86.3993 C   0  0  0  0  0  0
   21.0735   35.8221   83.5919 H   0  0  0  0  0  0
   26.7137   36.4431   83.1043 H   0  0  0  0  0  0
   23.0125   34.7516   82.3337 H   0  0  0  0  0  0
   22.0823   40.1522   86.4223 H   0  0  0  0  0  0
   27.1833   38.1986   84.3752 H   0  0  0  0  0  0
   27.4729   40.2077   85.7582 H   0  0  0  0  0  0
   16.8733   37.5073   87.1854 H   0  0  0  0  0  0
   25.5875   41.2913   86.8128 H   0  0  0  0  0  0
   16.9915   38.4037   84.9018 H   0  0  0  0  0  0
   18.7034   36.1203   88.0677 H   0  0  0  0  0  0
   20.6360   34.7240   87.6632 H   0  0  0  0  0  0
   21.3654   34.7002   86.0881 H   0  0  0  0  0  0
   21.8648   35.9486   87.2356 H   0  0  0  0  0  0
   22.2624   41.8026   88.1568 H   0  0  0  0  0  0
   23.9545   41.9855   87.8796 H   0  0  0  0  0  0
   22.7101   43.9289   86.9261 H   0  0  0  0  0  0
   23.4799   43.0423   85.6169 H   0  0  0  0  0  0
   21.7508   42.8653   85.9182 H   0  0  0  0  0  0
  1  2  1  0  0  0
  1  4  2  0  0  0
  1  7  1  0  0  0
  2  3  1  0  0  0
  2 11  2  0  0  0
  3 10  1  0  0  0
  3  6  1  0  0  0
  4  5  1  0  0  0
  5  6  1  0  0  0
  5 12  2  0  0  0
  6 17  2  0  0  0
  7  9  1  0  0  0
  7 26  1  0  0  0
  8 11  1  0  0  0
  8 10  2  0  0  0
  9 13  2  0  0  0
  9 14  1  0  0  0
 10 27  1  0  0  0
 11 28  1  0  0  0
 12 15  1  0  0  0
 12 20  1  0  0  0
 13 16  1  0  0  0
 13 21  1  0  0  0
 14 22  2  0  0  0
 14 23  1  0  0  0
 15 24  1  0  0  0
 15 29  1  0  0  0
 17 18  1  0  0  0
 17 30  1  0  0  0
 18 20  2  0  0  0
 18 31  1  0  0  0
 19 22  1  0  0  0
 19 21  2  0  0  0
 19 32  1  0  0  0
 20 33  1  0  0  0
 21 34  1  0  0  0
 22 35  1  0  0  0
 23 36  1  0  0  0
 23 37  1  0  0  0
 23 38  1  0  0  0
 24 25  1  0  0  0
 24 39  1  0  0  0
 24 40  1  0  0  0
 25 41  1  0  0  0
 25 42  1  0  0  0
 25 43  1  0  0  0
M  END
> <s_m_entry_id>
4773

> <s_m_entry_name>
dock_pv.261

> <s_m_Source_Path>
/home/csk/Desktop/cluster/DUD-E-result/lck

> <s_m_Source_File>
dock_pv.maegz

> <i_m_Source_File_Index>
261

> <chembl_id>
CHEMBL85976

> <chembl_pref_name>
None

> <i_lp_mmshare_version>
53161

> <i_f3d_flags>
0

> <r_lp_tautomer_probability>
1

> <s_lp_Force_Field>
OPLS_2005

> <r_lp_Energy>
62.880746

> <b_lp_Chiralities_Consistent>
1

> <s_lp_Variant>
CHEMBL258_lig228-1

> <s_i_glide_gridfile>
glide-grid_2of2

> <i_i_glide_lignum>
256

> <i_i_glide_rotatable_bonds>
4

> <r_i_docking_score>
-6.9613557642024

> <r_i_glide_ligand_efficiency>
-0.278454230568096

> <r_i_glide_ligand_efficiency_sa>
-0.814205108587919

> <r_i_glide_ligand_efficiency_ln>
-1.65004993111402

> <r_i_glide_gscore>
-6.9613557642024

> <r_i_glide_lipo>
-2.54838549819711

> <r_i_glide_hbond>
-0.0219877269060389

> <r_i_glide_metal>
0

> <r_i_glide_rewards>
-2.59153623940424

> <r_i_glide_evdw>
-36.7929229736328

> <r_i_glide_ecoul>
-2.8143572807312

> <r_i_glide_erotb>
0.462353441096314

> <r_i_glide_esite>
0

> <r_i_glide_emodel>
-55.1538071068704

> <r_i_glide_energy>
-39.607280254364

> <r_i_glide_einternal>
1.24586522579193

> <i_i_glide_confnum>
10

> <i_i_glide_posenum>
385

> <r_i_glide_eff_state_penalty>
0

> <s_user_duplicate_titles>
CHEMBL258_lig228,136963

> <s_m_subgroup_title>
dock_pv

> <s_m_subgroupid>
dock_pv

> <b_m_subgroup_collapsed>
1

$$$$
CHEMBL258_lig829
                    3D
 Schrodinger Suite 2021-1.
 59 63  0  0  1  0            999 V2000
   23.4695   38.8032   85.5270 N   0  0  0  0  0  0
   22.4871   39.5495   86.1148 C   0  0  0  0  0  0
   22.6191   40.9362   86.2787 C   0  0  0  0  0  0
   23.8063   41.5327   85.8354 C   0  0  0  0  0  0
   24.7709   40.7914   85.2450 N   0  0  0  0  0  0
   24.5734   39.4631   85.1019 C   0  0  0  0  0  0
   25.6089   38.7502   84.4444 N   0  0  0  0  0  0
   26.9040   39.1981   84.2335 C   0  0  0  0  0  0
   27.6656   38.4038   83.5344 N   0  0  0  0  0  0
   25.5591   37.5084   83.8224 C   0  0  0  0  0  0
   26.8513   37.3487   83.2471 C   0  0  0  0  0  0
   27.1483   36.2112   82.4874 C   0  0  0  0  0  0
   26.1494   35.2557   82.3257 C   0  0  0  0  0  0
   24.8853   35.4211   82.8867 C   0  0  0  0  0  0
   24.5608   36.5352   83.6647 C   0  0  0  0  0  0
   24.0150   42.9142   86.0110 N   0  0  0  0  0  0
   25.1103   43.7749   85.7420 C   0  0  0  0  0  0
   26.3445   43.3058   85.2666 C   0  0  0  0  0  0
   27.3934   44.1645   84.9724 C   0  0  0  0  0  0
   27.2539   45.5313   85.1792 C   0  0  0  0  0  0
   26.0525   46.0231   85.6870 C   0  0  0  0  0  0
   24.9801   45.1621   85.9597 C   0  0  0  0  0  0
   23.6813   45.7702   86.4684 C   0  0  0  0  0  0
   28.5500   43.6226   84.4870 O   0  0  0  0  0  0
   21.3386   38.9147   86.5664 O   0  0  0  0  0  0
   21.2693   37.4779   86.5648 C   0  0  0  0  0  0
   19.8290   36.9274   86.4498 C   0  0  0  0  0  0
   19.0356   37.3927   85.3048 N   0  0  0  0  0  0
   18.1498   38.5279   85.5915 C   0  0  0  0  0  0
   17.2187   38.7790   84.3808 C   0  0  0  0  0  0
   18.0039   39.0209   83.2313 O   0  0  0  0  0  0
   18.8007   37.9059   82.8828 C   0  0  0  0  0  0
   19.7572   37.5219   84.0312 C   0  0  0  0  0  0
   21.8366   41.5138   86.7463 H   0  0  0  0  0  0
   27.2164   40.1548   84.6266 H   0  0  0  0  0  0
   28.1217   36.0759   82.0378 H   0  0  0  0  0  0
   26.3714   34.3756   81.7415 H   0  0  0  0  0  0
   24.1296   34.6705   82.7059 H   0  0  0  0  0  0
   23.5709   36.6455   84.0806 H   0  0  0  0  0  0
   23.2055   43.4013   86.3659 H   0  0  0  0  0  0
   26.5487   42.2677   85.0971 H   0  0  0  0  0  0
   28.0675   46.2043   84.9548 H   0  0  0  0  0  0
   25.9503   47.0861   85.8466 H   0  0  0  0  0  0
   23.7812   46.8293   86.7143 H   0  0  0  0  0  0
   22.9228   45.6643   85.6954 H   0  0  0  0  0  0
   23.3298   45.2545   87.3636 H   0  0  0  0  0  0
   29.1810   44.2184   84.0538 H   0  0  0  0  0  0
   21.7203   37.1207   87.4915 H   0  0  0  0  0  0
   21.8418   37.0128   85.7618 H   0  0  0  0  0  0
   19.2806   37.0956   87.3751 H   0  0  0  0  0  0
   19.8900   35.8408   86.3611 H   0  0  0  0  0  0
   18.7255   39.4161   85.8564 H   0  0  0  0  0  0
   17.5387   38.2828   86.4618 H   0  0  0  0  0  0
   16.5499   37.9316   84.2268 H   0  0  0  0  0  0
   16.5853   39.6545   84.4868 H   0  0  0  0  0  0
   18.1566   37.0699   82.6004 H   0  0  0  0  0  0
   19.3696   38.2122   82.0040 H   0  0  0  0  0  0
   20.2465   36.5746   83.7998 H   0  0  0  0  0  0
   20.5523   38.2647   84.1152 H   0  0  0  0  0  0
  1  6  1  0  0  0
  1  2  2  0  0  0
  2  3  1  0  0  0
  2 25  1  0  0  0
  3  4  2  0  0  0
  3 34  1  0  0  0
  4 16  1  0  0  0
  4  5  1  0  0  0
  5  6  2  0  0  0
  6  7  1  0  0  0
  7  8  1  0  0  0
  7 10  1  0  0  0
  8  9  2  0  0  0
  8 35  1  0  0  0
  9 11  1  0  0  0
 10 11  2  0  0  0
 10 15  1  0  0  0
 11 12  1  0  0  0
 12 13  2  0  0  0
 12 36  1  0  0  0
 13 14  1  0  0  0
 13 37  1  0  0  0
 14 15  2  0  0  0
 14 38  1  0  0  0
 15 39  1  0  0  0
 16 17  1  0  0  0
 16 40  1  0  0  0
 17 18  2  0  0  0
 17 22  1  0  0  0
 18 19  1  0  0  0
 18 41  1  0  0  0
 19 20  2  0  0  0
 19 24  1  0  0  0
 20 21  1  0  0  0
 20 42  1  0  0  0
 21 22  2  0  0  0
 21 43  1  0  0  0
 22 23  1  0  0  0
 23 44  1  0  0  0
 23 45  1  0  0  0
 23 46  1  0  0  0
 24 47  1  0  0  0
 25 26  1  0  0  0
 26 27  1  0  0  0
 26 48  1  0  0  0
 26 49  1  0  0  0
 27 28  1  0  0  0
 27 50  1  0  0  0
 27 51  1  0  0  0
 28 29  1  0  0  0
 28 33  1  0  0  0
 29 30  1  0  0  0
 29 52  1  0  0  0
 29 53  1  0  0  0
 30 31  1  0  0  0
 30 54  1  0  0  0
 30 55  1  0  0  0
 31 32  1  0  0  0
 32 33  1  0  0  0
 32 56  1  0  0  0
 32 57  1  0  0  0
 33 58  1  0  0  0
 33 59  1  0  0  0
M  END
> <s_m_entry_id>
4774

> <s_m_entry_name>
dock_pv.262

> <s_m_Source_Path>
/home/csk/Desktop/cluster/DUD-E-result/lck

> <s_m_Source_File>
dock_pv.maegz

> <i_m_Source_File_Index>
262

> <chembl_id>
CHEMBL220645

> <chembl_pref_name>
None

> <i_lp_mmshare_version>
53161

> <i_f3d_flags>
0

> <r_lp_tautomer_probability>
1

> <s_lp_Force_Field>
OPLS_2005

> <r_lp_Energy>
30.794484

> <b_lp_Chiralities_Consistent>
1

> <s_lp_Variant>
CHEMBL258_lig829-1

> <s_i_glide_gridfile>
glide-grid_2of2

> <i_i_glide_lignum>
914

> <i_i_glide_rotatable_bonds>
8

> <r_i_docking_score>
-6.95468097448694

> <r_i_glide_ligand_efficiency>
-0.210747908317786

> <r_i_glide_ligand_efficiency_sa>
-0.675981150116254

> <r_i_glide_ligand_efficiency_ln>
-1.54668503931499

> <r_i_glide_gscore>
-6.95468097448694

> <r_i_glide_lipo>
-2.30525896380972

> <r_i_glide_hbond>
-0.436479205392978

> <r_i_glide_metal>
0

> <r_i_glide_rewards>
-1.48628964145763

> <r_i_glide_evdw>
-41.5065002441406

> <r_i_glide_ecoul>
-8.24625968933105

> <r_i_glide_erotb>
0.602424750960758

> <r_i_glide_esite>
-0.0168139491806797

> <r_i_glide_emodel>
-68.7296175816233

> <r_i_glide_energy>
-49.7527599334717

> <r_i_glide_einternal>
6.08456325531006

> <i_i_glide_confnum>
6

> <i_i_glide_posenum>
165

> <r_i_glide_eff_state_penalty>
0

> <s_user_duplicate_titles>
CHEMBL258_lig829,368675

> <s_m_subgroup_title>
dock_pv

> <s_m_subgroupid>
dock_pv

> <b_m_subgroup_collapsed>
1

$$$$
CHEMBL258_lig362
                    3D
 Schrodinger Suite 2021-1.
 31 33  0  0  1  0            999 V2000
   24.6280   36.5269   83.6635 C   0  0  0  0  0  0
   25.9159   37.0122   83.4100 N   0  0  0  0  0  0
   23.8858   37.2158   84.6324 C   0  0  0  0  0  0
   24.3731   38.3208   85.2648 N   0  0  0  0  0  0
   26.4506   38.0884   84.0281 C   0  0  0  0  0  0
   25.6290   38.7567   84.9773 C   0  0  0  0  0  0
   25.5945   35.2360   82.0881 N   0  0  0  0  0  0
   26.4478   36.1706   82.4575 C   0  0  0  0  0  0
   24.4945   35.4214   82.7842 C   0  0  0  0  0  0
   22.6240   36.7157   84.9775 N   0  0  0  0  0  0
   27.7654   38.5581   83.7666 C   0  0  0  0  0  0
   26.1439   39.8908   85.6486 C   0  0  0  0  0  0
   21.8511   37.2698   86.0834 C   0  0  0  0  0  0
   20.6039   36.4347   86.4132 C   0  0  0  0  0  0
   28.2371   39.6768   84.4496 C   0  0  0  0  0  0
   27.4364   40.3369   85.3784 C   0  0  0  0  0  0
   20.9295   35.0052   86.8846 C   0  0  0  0  0  0
   27.4460   36.2856   82.0615 H   0  0  0  0  0  0
   23.6315   34.7852   82.6439 H   0  0  0  0  0  0
   22.2787   35.8891   84.5146 H   0  0  0  0  0  0
   28.4031   38.0555   83.0545 H   0  0  0  0  0  0
   25.5238   40.4041   86.3686 H   0  0  0  0  0  0
   21.5931   38.3084   85.8760 H   0  0  0  0  0  0
   22.5094   37.2934   86.9543 H   0  0  0  0  0  0
   19.9499   36.3831   85.5420 H   0  0  0  0  0  0
   20.0364   36.9450   87.1927 H   0  0  0  0  0  0
   29.2382   40.0374   84.2596 H   0  0  0  0  0  0
   27.8230   41.2040   85.8933 H   0  0  0  0  0  0
   20.0377   34.4910   87.2413 H   0  0  0  0  0  0
   21.6619   35.0138   87.6901 H   0  0  0  0  0  0
   21.3501   34.3987   86.0849 H   0  0  0  0  0  0
  1  2  1  0  0  0
  1  3  1  0  0  0
  1  9  2  0  0  0
  2  5  1  0  0  0
  2  8  1  0  0  0
  3  4  2  0  0  0
  3 10  1  0  0  0
  4  6  1  0  0  0
  5 11  2  0  0  0
  5  6  1  0  0  0
  6 12  2  0  0  0
  7  9  1  0  0  0
  7  8  2  0  0  0
  8 18  1  0  0  0
  9 19  1  0  0  0
 10 13  1  0  0  0
 10 20  1  0  0  0
 11 15  1  0  0  0
 11 21  1  0  0  0
 12 16  1  0  0  0
 12 22  1  0  0  0
 13 14  1  0  0  0
 13 23  1  0  0  0
 13 24  1  0  0  0
 14 17  1  0  0  0
 14 25  1  0  0  0
 14 26  1  0  0  0
 15 16  2  0  0  0
 15 27  1  0  0  0
 16 28  1  0  0  0
 17 29  1  0  0  0
 17 30  1  0  0  0
 17 31  1  0  0  0
M  END
> <s_m_entry_id>
4775

> <s_m_entry_name>
dock_pv.263

> <s_m_Source_Path>
/home/csk/Desktop/cluster/DUD-E-result/lck

> <s_m_Source_File>
dock_pv.maegz

> <i_m_Source_File_Index>
263

> <chembl_id>
CHEMBL29462

> <chembl_pref_name>
None

> <i_lp_mmshare_version>
53161

> <i_f3d_flags>
0

> <r_lp_tautomer_probability>
1

> <s_lp_Force_Field>
OPLS_2005

> <r_lp_Energy>
48.10563

> <b_lp_Chiralities_Consistent>
1

> <s_lp_Variant>
CHEMBL258_lig362-1

> <s_i_glide_gridfile>
glide-grid_2of2

> <i_i_glide_lignum>
402

> <i_i_glide_rotatable_bonds>
3

> <r_i_docking_score>
-6.94444628619458

> <r_i_glide_ligand_efficiency>
-0.408496840364387

> <r_i_glide_ligand_efficiency_sa>
-1.05036040447904

> <r_i_glide_ligand_efficiency_ln>
-1.8116513908527

> <r_i_glide_gscore>
-6.94444628619458

> <r_i_glide_lipo>
-1.94473599815819

> <r_i_glide_hbond>
-0.309521071915548

> <r_i_glide_metal>
0

> <r_i_glide_rewards>
-3.37538857617278

> <r_i_glide_evdw>
-27.5315284729004

> <r_i_glide_ecoul>
-1.80048048496246

> <r_i_glide_erotb>
0.331847856441334

> <r_i_glide_esite>
0

> <r_i_glide_emodel>
-40.4445050695772

> <r_i_glide_energy>
-29.3320089578629

> <r_i_glide_einternal>
1.85194802284241

> <i_i_glide_confnum>
3

> <i_i_glide_posenum>
308

> <r_i_glide_eff_state_penalty>
0

> <s_user_duplicate_titles>
CHEMBL258_lig362

> <s_m_subgroup_title>
dock_pv

> <s_m_subgroupid>
dock_pv

> <b_m_subgroup_collapsed>
1

$$$$
CHEMBL258_lig807
                    3D
 Schrodinger Suite 2021-1.
 65 69  0  0  1  0            999 V2000
   20.5461   39.7187   84.5850 C   0  0  0  0  0  0
   20.0219   38.5367   85.3933 C   0  0  0  0  0  0
   18.7125   38.6008   85.8727 C   0  0  0  0  0  0
   18.1715   37.5514   86.6040 C   0  0  0  0  0  0
   18.9526   36.4384   86.8908 C   0  0  0  0  0  0
   20.2675   36.3482   86.4226 C   0  0  0  0  0  0
   21.0847   35.1164   86.7993 C   0  0  0  0  0  0
   20.8139   37.3938   85.6437 C   0  0  0  0  0  0
   22.2019   37.3077   85.1045 C   0  0  0  0  0  0
   23.1719   38.2135   85.5420 C   0  0  0  0  0  0
   24.4745   38.1881   85.0509 C   0  0  0  0  0  0
   25.5112   39.1799   85.5630 C   0  0  0  0  0  0
   24.8373   37.2044   84.0871 C   0  0  0  0  0  0
   26.1038   37.1382   83.6003 N   0  0  0  0  0  0
   26.3442   36.2456   82.6125 C   0  0  0  0  0  0
   27.6397   36.1195   82.0884 N   0  0  0  0  0  0
   28.8941   36.6206   82.4871 C   0  0  0  0  0  0
   29.0463   37.7267   83.3300 C   0  0  0  0  0  0
   30.3120   38.1898   83.6632 C   0  0  0  0  0  0
   31.4509   37.5695   83.1372 C   0  0  0  0  0  0
   32.7384   37.9887   83.4124 O   0  0  0  0  0  0
   32.9653   39.3449   83.8109 C   0  0  0  0  0  0
   32.4920   40.3690   82.7498 C   0  0  0  0  0  0
   33.2263   40.2230   81.4925 N   0  0  0  0  0  0
   32.5679   40.8908   80.3794 C   0  0  0  0  0  0
   33.6510   41.1137   79.3220 C   0  0  0  0  0  0
   34.9703   40.9851   80.0869 C   0  0  0  0  0  0
   34.5485   40.8316   81.5452 C   0  0  0  0  0  0
   31.3006   36.4649   82.3006 C   0  0  0  0  0  0
   30.0311   35.9889   81.9769 C   0  0  0  0  0  0
   25.4066   35.4186   82.0891 N   0  0  0  0  0  0
   24.1657   35.4211   82.6075 N   0  0  0  0  0  0
   23.8499   36.2962   83.6093 C   0  0  0  0  0  0
   22.5363   36.3552   84.1347 C   0  0  0  0  0  0
   19.7497   40.3858   84.2604 H   0  0  0  0  0  0
   21.2595   40.3008   85.1696 H   0  0  0  0  0  0
   21.0571   39.3702   83.6879 H   0  0  0  0  0  0
   18.1058   39.4731   85.6835 H   0  0  0  0  0  0
   17.1542   37.6152   86.9623 H   0  0  0  0  0  0
   18.5301   35.6360   87.4791 H   0  0  0  0  0  0
   20.5488   34.4458   87.4704 H   0  0  0  0  0  0
   21.3502   34.5513   85.9096 H   0  0  0  0  0  0
   22.0140   35.4091   87.2866 H   0  0  0  0  0  0
   22.9017   38.9505   86.2833 H   0  0  0  0  0  0
   25.0948   39.8622   86.3036 H   0  0  0  0  0  0
   26.3476   38.6542   86.0240 H   0  0  0  0  0  0
   25.9003   39.7779   84.7409 H   0  0  0  0  0  0
   27.6760   35.6090   81.2020 H   0  0  0  0  0  0
   28.2049   38.2636   83.7325 H   0  0  0  0  0  0
   30.3870   39.0347   84.3296 H   0  0  0  0  0  0
   34.0334   39.4622   83.9948 H   0  0  0  0  0  0
   32.4920   39.5390   84.7729 H   0  0  0  0  0  0
   32.5789   41.3862   83.1390 H   0  0  0  0  0  0
   31.4287   40.2322   82.5501 H   0  0  0  0  0  0
   32.0941   41.8210   80.6816 H   0  0  0  0  0  0
   31.7589   40.2554   80.0133 H   0  0  0  0  0  0
   33.5544   42.1059   78.8873 H   0  0  0  0  0  0
   33.5820   40.3779   78.5174 H   0  0  0  0  0  0
   35.5470   40.1201   79.7557 H   0  0  0  0  0  0
   35.5990   41.8668   79.9691 H   0  0  0  0  0  0
   35.2216   40.1738   82.0970 H   0  0  0  0  0  0
   34.5531   41.7853   82.0800 H   0  0  0  0  0  0
   32.1745   35.9768   81.8946 H   0  0  0  0  0  0
   29.9395   35.1358   81.3188 H   0  0  0  0  0  0
   21.7847   35.6721   83.7609 H   0  0  0  0  0  0
  1  2  1  0  0  0
  1 35  1  0  0  0
  1 36  1  0  0  0
  1 37  1  0  0  0
  2  3  2  0  0  0
  2  8  1  0  0  0
  3  4  1  0  0  0
  3 38  1  0  0  0
  4  5  2  0  0  0
  4 39  1  0  0  0
  5  6  1  0  0  0
  5 40  1  0  0  0
  6  7  1  0  0  0
  6  8  2  0  0  0
  7 41  1  0  0  0
  7 42  1  0  0  0
  7 43  1  0  0  0
  8  9  1  0  0  0
  9 10  2  0  0  0
  9 34  1  0  0  0
 10 11  1  0  0  0
 10 44  1  0  0  0
 11 12  1  0  0  0
 11 13  2  0  0  0
 12 45  1  0  0  0
 12 46  1  0  0  0
 12 47  1  0  0  0
 13 14  1  0  0  0
 13 33  1  0  0  0
 14 15  2  0  0  0
 15 16  1  0  0  0
 15 31  1  0  0  0
 16 17  1  0  0  0
 16 48  1  0  0  0
 17 18  2  0  0  0
 17 30  1  0  0  0
 18 19  1  0  0  0
 18 49  1  0  0  0
 19 20  2  0  0  0
 19 50  1  0  0  0
 20 21  1  0  0  0
 20 29  1  0  0  0
 21 22  1  0  0  0
 22 23  1  0  0  0
 22 51  1  0  0  0
 22 52  1  0  0  0
 23 24  1  0  0  0
 23 53  1  0  0  0
 23 54  1  0  0  0
 24 25  1  0  0  0
 24 28  1  0  0  0
 25 26  1  0  0  0
 25 55  1  0  0  0
 25 56  1  0  0  0
 26 27  1  0  0  0
 26 57  1  0  0  0
 26 58  1  0  0  0
 27 28  1  0  0  0
 27 59  1  0  0  0
 27 60  1  0  0  0
 28 61  1  0  0  0
 28 62  1  0  0  0
 29 30  2  0  0  0
 29 63  1  0  0  0
 30 64  1  0  0  0
 31 32  2  0  0  0
 32 33  1  0  0  0
 33 34  2  0  0  0
 34 65  1  0  0  0
M  END
> <s_m_entry_id>
4776

> <s_m_entry_name>
dock_pv.264

> <s_m_Source_Path>
/home/csk/Desktop/cluster/DUD-E-result/lck

> <s_m_Source_File>
dock_pv.maegz

> <i_m_Source_File_Index>
264

> <chembl_id>
CHEMBL436137

> <chembl_pref_name>
None

> <i_lp_mmshare_version>
53161

> <i_f3d_flags>
0

> <r_lp_tautomer_probability>
1

> <s_lp_Force_Field>
OPLS_2005

> <r_lp_Energy>
55.808205

> <b_lp_Chiralities_Consistent>
1

> <s_lp_Variant>
CHEMBL258_lig807-1

> <s_i_glide_gridfile>
glide-grid_2of2

> <i_i_glide_lignum>
892

> <i_i_glide_rotatable_bonds>
7

> <r_i_docking_score>
-6.94088163358896

> <r_i_glide_ligand_efficiency>
-0.204143577458499

> <r_i_glide_ligand_efficiency_sa>
-0.661345941912175

> <r_i_glide_ligand_efficiency_ln>
-1.5334354379952

> <r_i_glide_gscore>
-6.94088163358896

> <r_i_glide_lipo>
-3.13933911218017

> <r_i_glide_hbond>
-0.32

> <r_i_glide_metal>
0

> <r_i_glide_rewards>
-0.800517518998642

> <r_i_glide_evdw>
-46.1698303222656

> <r_i_glide_ecoul>
-6.0546555519104

> <r_i_glide_erotb>
0.585444076064299

> <r_i_glide_esite>
-0.0497792295746038

> <r_i_glide_emodel>
-72.012349183423

> <r_i_glide_energy>
-52.224485874176

> <r_i_glide_einternal>
4.58957672119141

> <i_i_glide_confnum>
1

> <i_i_glide_posenum>
5

> <r_i_glide_eff_state_penalty>
0

> <s_user_duplicate_titles>
CHEMBL258_lig807,367769

> <s_m_subgroup_title>
dock_pv

> <s_m_subgroupid>
dock_pv

> <b_m_subgroup_collapsed>
1

$$$$
CHEMBL258_lig218
                    3D
 Schrodinger Suite 2021-1.
 36 39  0  0  1  0            999 V2000
   22.3479   37.5383   84.8451 C   0  0  0  0  0  0
   22.4048   38.6876   85.6571 C   0  0  0  0  0  0
   23.6586   39.2932   85.7675 N   0  0  0  0  0  0
   23.4463   37.0305   84.2380 N   0  0  0  0  0  0
   24.6553   37.6559   84.3668 C   0  0  0  0  0  0
   21.1557   36.8719   84.5653 N   0  0  0  0  0  0
   24.7772   38.8359   85.1578 C   0  0  0  0  0  0
   22.2179   40.5033   86.9791 N   0  0  0  0  0  0
   19.9672   36.9146   85.3081 C   0  0  0  0  0  0
   23.4687   40.3893   86.5833 C   0  0  0  0  0  0
   21.5509   39.5086   86.4385 C   0  0  0  0  0  0
   25.8203   37.1542   83.7041 C   0  0  0  0  0  0
   25.7454   35.0203   82.1933 N   0  0  0  0  0  0
   25.7796   35.9624   82.8615 C   0  0  0  0  0  0
   18.8904   37.7070   84.8789 C   0  0  0  0  0  0
   19.8448   36.1556   86.4871 C   0  0  0  0  0  0
   18.9500   38.6204   83.4108 Cl  0  0  0  0  0  0
   26.0322   39.4855   85.2881 C   0  0  0  0  0  0
   27.0395   37.8220   83.8513 C   0  0  0  0  0  0
   27.1433   38.9673   84.6329 C   0  0  0  0  0  0
   17.6138   37.0387   86.8238 C   0  0  0  0  0  0
   17.7303   37.7714   85.6431 C   0  0  0  0  0  0
   18.6650   36.2240   87.2384 C   0  0  0  0  0  0
   20.9494   35.1974   86.9269 C   0  0  0  0  0  0
   21.2651   36.0677   83.9660 H   0  0  0  0  0  0
   24.2662   41.0655   86.8462 H   0  0  0  0  0  0
   20.4903   39.4013   86.6072 H   0  0  0  0  0  0
   26.1393   40.3796   85.8850 H   0  0  0  0  0  0
   27.9286   37.4556   83.3562 H   0  0  0  0  0  0
   28.1000   39.4623   84.7297 H   0  0  0  0  0  0
   16.7024   37.0934   87.4008 H   0  0  0  0  0  0
   16.9054   38.3785   85.3004 H   0  0  0  0  0  0
   18.5495   35.6267   88.1293 H   0  0  0  0  0  0
   20.6037   34.4881   87.6805 H   0  0  0  0  0  0
   21.3093   34.6047   86.0872 H   0  0  0  0  0  0
   21.8008   35.7537   87.3171 H   0  0  0  0  0  0
  1  2  1  0  0  0
  1  4  2  0  0  0
  1  6  1  0  0  0
  2  3  1  0  0  0
  2 11  2  0  0  0
  3 10  1  0  0  0
  3  7  1  0  0  0
  4  5  1  0  0  0
  5  7  1  0  0  0
  5 12  2  0  0  0
  6  9  1  0  0  0
  6 25  1  0  0  0
  7 18  2  0  0  0
  8 11  1  0  0  0
  8 10  2  0  0  0
  9 15  2  0  0  0
  9 16  1  0  0  0
 10 26  1  0  0  0
 11 27  1  0  0  0
 12 14  1  0  0  0
 12 19  1  0  0  0
 13 14  3  0  0  0
 15 17  1  0  0  0
 15 22  1  0  0  0
 16 23  2  0  0  0
 16 24  1  0  0  0
 18 20  1  0  0  0
 18 28  1  0  0  0
 19 20  2  0  0  0
 19 29  1  0  0  0
 20 30  1  0  0  0
 21 23  1  0  0  0
 21 22  2  0  0  0
 21 31  1  0  0  0
 22 32  1  0  0  0
 23 33  1  0  0  0
 24 34  1  0  0  0
 24 35  1  0  0  0
 24 36  1  0  0  0
M  END
> <s_m_entry_id>
4777

> <s_m_entry_name>
dock_pv.265

> <s_m_Source_Path>
/home/csk/Desktop/cluster/DUD-E-result/lck

> <s_m_Source_File>
dock_pv.maegz

> <i_m_Source_File_Index>
265

> <chembl_id>
CHEMBL85824

> <chembl_pref_name>
None

> <i_lp_mmshare_version>
53161

> <i_f3d_flags>
0

> <r_lp_tautomer_probability>
1

> <s_lp_Force_Field>
OPLS_2005

> <r_lp_Energy>
59.278895

> <b_lp_Chiralities_Consistent>
1

> <s_lp_Variant>
CHEMBL258_lig218-1

> <s_i_glide_gridfile>
glide-grid_2of2

> <i_i_glide_lignum>
246

> <i_i_glide_rotatable_bonds>
2

> <r_i_docking_score>
-6.93727337481059

> <r_i_glide_ligand_efficiency>
-0.289053057283774

> <r_i_glide_ligand_efficiency_sa>
-0.833773294443874

> <r_i_glide_ligand_efficiency_ln>
-1.66040784932464

> <r_i_glide_gscore>
-6.93727337481059

> <r_i_glide_lipo>
-2.58038234420586

> <r_i_glide_hbond>
-0.32

> <r_i_glide_metal>
0

> <r_i_glide_rewards>
-1.91484977553522

> <r_i_glide_evdw>
-38.648380279541

> <r_i_glide_ecoul>
-3.52040553092957

> <r_i_glide_erotb>
0.338438588546983

> <r_i_glide_esite>
0

> <r_i_glide_emodel>
-56.0402072931534

> <r_i_glide_energy>
-42.1687858104706

> <r_i_glide_einternal>
6.58199834823608

> <i_i_glide_confnum>
2

> <i_i_glide_posenum>
75

> <r_i_glide_eff_state_penalty>
0

> <s_user_duplicate_titles>
CHEMBL258_lig218,137294

> <s_m_subgroup_title>
dock_pv

> <s_m_subgroupid>
dock_pv

> <b_m_subgroup_collapsed>
1

$$$$
CHEMBL258_lig167
                    3D
 Schrodinger Suite 2021-1.
 80 84  0  0  1  0            999 V2000
   21.5962   38.8364   85.8843 N   0  0  0  0  0  0
   21.6412   39.2736   87.1734 C   0  0  0  0  0  0
   21.1952   39.7172   84.8207 N   0  0  0  0  0  0
   21.4441   37.3829   85.5427 C   0  0  2  0  0  0
   22.4959   36.8929   84.5113 C   0  0  0  0  0  0
   28.5098   45.5306   85.1095 P   0  0  0  0  0  0
   22.0275   40.6579   84.2741 C   0  0  0  0  0  0
   22.1606   42.1147   89.5417 C   0  0  0  0  0  0
   21.9780   40.7930   87.3408 C   0  0  1  0  0  0
   23.7863   37.1759   84.8032 N   0  0  0  0  0  0
   22.1503   41.0035   88.7861 N   0  0  0  0  0  0
   21.9324   43.5156   88.9149 C   0  0  1  0  0  0
   24.9553   36.8778   84.0657 C   0  0  0  0  0  0
   20.6225   44.0664   89.2869 N   0  0  0  0  0  0
   20.1754   44.4799   90.4833 C   0  0  0  0  0  0
   21.5142   38.5067   88.1300 O   0  0  0  0  0  0
   26.1431   37.6535   84.3044 C   0  0  0  0  0  0
   26.8774   45.4820   85.0261 O   0  0  0  0  0  0
   29.0762   46.1804   86.3213 O   0  0  0  0  0  0
   22.1336   36.2710   83.5117 O   0  0  0  0  0  0
   22.3602   42.0199   90.7508 O   0  0  0  0  0  0
   23.3393   40.8618   85.0468 C   0  0  0  0  0  0
   21.7505   41.4125   83.3457 O   0  0  0  0  0  0
   23.1013   44.5109   89.1933 C   0  0  0  0  0  0
   23.2267   41.2779   86.5375 C   0  0  0  0  0  0
   20.8312   44.4342   91.5228 O   0  0  0  0  0  0
   28.9503   43.9890   84.8871 O   0  0  0  0  0  0
   28.9493   46.2213   83.7082 O   0  0  0  0  0  0
   27.3002   37.4212   83.4904 C   0  0  0  0  0  0
   19.7550   39.5545   84.5043 C   0  0  0  0  0  0
   25.9945   45.1340   86.0257 C   0  0  0  0  0  0
   24.1098   44.6406   88.0482 C   0  0  0  0  0  0
   19.9702   37.1299   85.1210 C   0  0  0  0  0  0
   23.7069   45.1868   86.8250 C   0  0  0  0  0  0
   25.4509   44.2977   88.2386 C   0  0  0  0  0  0
   26.3892   44.5388   87.2323 C   0  0  0  0  0  0
   24.6450   45.4235   85.8221 C   0  0  0  0  0  0
   25.0094   35.8242   83.1401 C   0  0  0  0  0  0
   19.5048   38.1119   84.0427 C   0  0  0  0  0  0
   26.1505   35.5847   82.3889 C   0  0  0  0  0  0
   18.7629   45.0502   90.5071 C   0  0  0  0  0  0
   26.2407   38.6572   85.3164 C   0  0  0  0  0  0
   27.2727   36.3889   82.5226 C   0  0  0  0  0  0
   28.4657   38.2072   83.6825 C   0  0  0  0  0  0
   27.3984   39.4113   85.4767 C   0  0  0  0  0  0
   28.4999   39.1944   84.6611 C   0  0  0  0  0  0
   21.6693   36.7352   86.3943 H   0  0  0  0  0  0
   21.0813   41.3338   87.0290 H   0  0  0  0  0  0
   23.9505   37.6569   85.6723 H   0  0  0  0  0  0
   22.1624   40.1349   89.3058 H   0  0  0  0  0  0
   21.8186   43.4129   87.8388 H   0  0  0  0  0  0
   20.0325   44.2206   88.4651 H   0  0  0  0  0  0
   23.9759   41.5714   84.5137 H   0  0  0  0  0  0
   23.8722   39.9213   84.9626 H   0  0  0  0  0  0
   23.6055   44.2811   90.1338 H   0  0  0  0  0  0
   22.7082   45.5160   89.3497 H   0  0  0  0  0  0
   23.2450   42.3669   86.5566 H   0  0  0  0  0  0
   24.1445   40.9874   87.0518 H   0  0  0  0  0  0
   29.6824   43.8852   84.2324 H   0  0  0  0  0  0
   29.8601   46.0028   83.4013 H   0  0  0  0  0  0
   19.1734   39.7778   85.4028 H   0  0  0  0  0  0
   19.3972   40.2209   83.7384 H   0  0  0  0  0  0
   19.3264   37.2496   85.9939 H   0  0  0  0  0  0
   19.8211   36.1061   84.7934 H   0  0  0  0  0  0
   22.6714   45.4510   86.6556 H   0  0  0  0  0  0
   25.7784   43.8780   89.1785 H   0  0  0  0  0  0
   27.4260   44.2930   87.4097 H   0  0  0  0  0  0
   24.3251   45.8583   84.8871 H   0  0  0  0  0  0
   24.1647   35.1742   82.9741 H   0  0  0  0  0  0
   18.4422   37.9665   83.8433 H   0  0  0  0  0  0
   20.0132   37.9249   83.0952 H   0  0  0  0  0  0
   26.1719   34.7695   81.6842 H   0  0  0  0  0  0
   18.2256   44.8289   89.5824 H   0  0  0  0  0  0
   18.2001   44.6287   91.3405 H   0  0  0  0  0  0
   18.8004   46.1323   90.6261 H   0  0  0  0  0  0
   25.4180   38.8359   85.9897 H   0  0  0  0  0  0
   28.1472   36.2011   81.9146 H   0  0  0  0  0  0
   29.3368   38.0295   83.0677 H   0  0  0  0  0  0
   27.4490   40.1683   86.2466 H   0  0  0  0  0  0
   29.3962   39.7809   84.8017 H   0  0  0  0  0  0
  1  2  1  0  0  0
  1  3  1  0  0  0
  1  4  1  0  0  0
  2  9  1  0  0  0
  2 16  2  0  0  0
  3  7  1  0  0  0
  3 30  1  0  0  0
  4  5  1  0  0  0
  4 33  1  0  0  0
  4 47  1  0  0  0
  5 10  1  0  0  0
  5 20  2  0  0  0
  6 18  1  0  0  0
  6 19  2  0  0  0
  6 27  1  0  0  0
  6 28  1  0  0  0
  7 22  1  0  0  0
  7 23  2  0  0  0
  8 11  1  0  0  0
  8 12  1  0  0  0
  8 21  2  0  0  0
  9 11  1  0  0  0
  9 25  1  0  0  0
  9 48  1  0  0  0
 10 13  1  0  0  0
 10 49  1  0  0  0
 11 50  1  0  0  0
 12 14  1  0  0  0
 12 24  1  0  0  0
 12 51  1  0  0  0
 13 17  1  0  0  0
 13 38  2  0  0  0
 14 15  1  0  0  0
 14 52  1  0  0  0
 15 26  2  0  0  0
 15 41  1  0  0  0
 17 29  2  0  0  0
 17 42  1  0  0  0
 18 31  1  0  0  0
 22 25  1  0  0  0
 22 53  1  0  0  0
 22 54  1  0  0  0
 24 32  1  0  0  0
 24 55  1  0  0  0
 24 56  1  0  0  0
 25 57  1  0  0  0
 25 58  1  0  0  0
 27 59  1  0  0  0
 28 60  1  0  0  0
 29 44  1  0  0  0
 29 43  1  0  0  0
 30 39  1  0  0  0
 30 61  1  0  0  0
 30 62  1  0  0  0
 31 36  1  0  0  0
 31 37  2  0  0  0
 32 34  2  0  0  0
 32 35  1  0  0  0
 33 39  1  0  0  0
 33 63  1  0  0  0
 33 64  1  0  0  0
 34 37  1  0  0  0
 34 65  1  0  0  0
 35 36  2  0  0  0
 35 66  1  0  0  0
 36 67  1  0  0  0
 37 68  1  0  0  0
 38 40  1  0  0  0
 38 69  1  0  0  0
 39 70  1  0  0  0
 39 71  1  0  0  0
 40 43  2  0  0  0
 40 72  1  0  0  0
 41 73  1  0  0  0
 41 74  1  0  0  0
 41 75  1  0  0  0
 42 45  2  0  0  0
 42 76  1  0  0  0
 43 77  1  0  0  0
 44 46  2  0  0  0
 44 78  1  0  0  0
 45 46  1  0  0  0
 45 79  1  0  0  0
 46 80  1  0  0  0
M  END
> <s_m_entry_id>
4778

> <s_m_entry_name>
dock_pv.266

> <s_m_Source_Path>
/home/csk/Desktop/cluster/DUD-E-result/lck

> <s_m_Source_File>
dock_pv.maegz

> <i_m_Source_File_Index>
266

> <chembl_id>
CHEMBL29820

> <chembl_pref_name>
None

> <i_lp_mmshare_version>
53161

> <i_f3d_flags>
0

> <r_lp_tautomer_probability>
1

> <s_lp_Force_Field>
OPLS_2005

> <r_lp_Energy>
35.880611

> <b_lp_Chiralities_Consistent>
1

> <s_lp_Variant>
CHEMBL258_lig167-1

> <s_i_glide_gridfile>
glide-grid_2of2

> <i_i_glide_lignum>
194

> <i_i_glide_rotatable_bonds>
14

> <r_i_docking_score>
-6.93541900109623

> <r_i_glide_ligand_efficiency>
-0.150769978284701

> <r_i_glide_ligand_efficiency_sa>
-0.540216049016686

> <r_i_glide_ligand_efficiency_ln>
-1.4363085662437

> <r_i_glide_gscore>
-6.93541900109623

> <r_i_glide_lipo>
-2.54686712449457

> <r_i_glide_hbond>
-0.16

> <r_i_glide_metal>
0

> <r_i_glide_rewards>
0.240803404958912

> <r_i_glide_evdw>
-50.1042671203613

> <r_i_glide_ecoul>
-14.2258863449097

> <r_i_glide_erotb>
0.398601882579151

> <r_i_glide_esite>
-0.228860856385209

> <r_i_glide_emodel>
-84.5302814536503

> <r_i_glide_energy>
-64.330153465271

> <r_i_glide_einternal>
14.7364673614502

> <i_i_glide_confnum>
26

> <i_i_glide_posenum>
40

> <r_i_glide_eff_state_penalty>
0

> <s_user_duplicate_titles>
CHEMBL258_lig167

> <s_m_subgroup_title>
dock_pv

> <s_m_subgroupid>
dock_pv

> <b_m_subgroup_collapsed>
1

$$$$
CHEMBL258_lig646
                    3D
 Schrodinger Suite 2021-1.
 54 57  0  0  1  0            999 V2000
   27.2912   38.4283   84.4524 C   0  0  0  0  0  0
   27.9566   37.6258   83.5141 C   0  0  0  0  0  0
   27.2461   36.6392   82.8132 C   0  0  0  0  0  0
   25.9339   38.2115   84.7225 C   0  0  0  0  0  0
   25.1903   37.2443   84.0025 C   0  0  0  0  0  0
   25.8662   36.4452   83.0324 C   0  0  0  0  0  0
   25.2130   35.5088   82.2895 N   0  0  0  0  0  0
   23.8777   35.4158   82.4872 C   0  0  0  0  0  0
   23.1360   36.1056   83.3776 N   0  0  0  0  0  0
   23.7839   37.0210   84.1348 C   0  0  0  0  0  0
   23.0235   37.8223   85.0100 N   0  0  0  0  0  0
   21.6473   37.9868   85.2749 C   0  0  0  0  0  0
   20.6471   37.1507   84.7557 C   0  0  0  0  0  0
   19.3018   37.4034   85.0147 C   0  0  0  0  0  0
   18.9309   38.4912   85.7992 C   0  0  0  0  0  0
   19.9094   39.3302   86.3275 C   0  0  0  0  0  0
   21.2623   39.0781   86.0717 C   0  0  0  0  0  0
   29.3086   37.8568   83.3259 O   0  0  0  0  0  0
   28.0856   39.5242   85.1797 C   0  0  0  0  0  0
   27.2954   40.4350   86.0231 N   0  0  1  0  0  0
   30.0725   36.9582   82.5265 C   0  0  0  0  0  0
   28.0155   41.1607   87.0817 C   0  0  2  0  0  0
   26.9228   42.1099   87.6189 C   0  0  0  0  0  0
   25.9829   42.3736   86.4319 C   0  0  0  0  0  0
   26.4784   41.4317   85.3307 C   0  0  0  0  0  0
   19.4286   40.6832   87.2869 Cl  0  0  0  0  0  0
   29.2720   41.9465   86.5877 C   0  0  0  0  0  0
   29.1473   42.9875   85.9419 O   0  0  0  0  0  0
   30.4711   41.4211   86.8858 N   0  0  0  0  0  0
   22.2039   39.9055   86.5913 F   0  0  0  0  0  0
   31.7469   41.9987   86.4788 C   0  0  0  0  0  0
   27.7282   36.0171   82.0735 H   0  0  0  0  0  0
   25.4290   38.8050   85.4687 H   0  0  0  0  0  0
   23.3497   34.6853   81.8903 H   0  0  0  0  0  0
   23.5880   38.4930   85.5086 H   0  0  0  0  0  0
   20.8739   36.2887   84.1516 H   0  0  0  0  0  0
   18.5495   36.7488   84.6025 H   0  0  0  0  0  0
   17.8846   38.6832   85.9978 H   0  0  0  0  0  0
   28.6459   40.1063   84.4443 H   0  0  0  0  0  0
   28.8277   39.0223   85.8030 H   0  0  0  0  0  0
   31.1244   37.2411   82.5675 H   0  0  0  0  0  0
   29.9924   35.9297   82.8809 H   0  0  0  0  0  0
   29.7645   36.9949   81.4837 H   0  0  0  0  0  0
   28.3365   40.4592   87.8532 H   0  0  0  0  0  0
   26.3942   41.6379   88.4485 H   0  0  0  0  0  0
   27.3271   43.0411   88.0206 H   0  0  0  0  0  0
   24.9457   42.1644   86.6980 H   0  0  0  0  0  0
   26.0431   43.4121   86.1034 H   0  0  0  0  0  0
   25.6597   40.9554   84.7914 H   0  0  0  0  0  0
   27.0399   41.9525   84.5515 H   0  0  0  0  0  0
   30.5096   40.5267   87.3742 H   0  0  0  0  0  0
   32.4718   41.2043   86.3033 H   0  0  0  0  0  0
   32.1353   42.6468   87.2644 H   0  0  0  0  0  0
   31.6636   42.5826   85.5594 H   0  0  0  0  0  0
  1  2  2  0  0  0
  1 19  1  0  0  0
  1  4  1  0  0  0
  2 18  1  0  0  0
  2  3  1  0  0  0
  3  6  2  0  0  0
  3 32  1  0  0  0
  4  5  2  0  0  0
  4 33  1  0  0  0
  5 10  1  0  0  0
  5  6  1  0  0  0
  6  7  1  0  0  0
  7  8  2  0  0  0
  8  9  1  0  0  0
  8 34  1  0  0  0
  9 10  2  0  0  0
 10 11  1  0  0  0
 11 12  1  0  0  0
 11 35  1  0  0  0
 12 17  2  0  0  0
 12 13  1  0  0  0
 13 14  2  0  0  0
 13 36  1  0  0  0
 14 15  1  0  0  0
 14 37  1  0  0  0
 15 16  2  0  0  0
 15 38  1  0  0  0
 16 17  1  0  0  0
 16 26  1  0  0  0
 17 30  1  0  0  0
 18 21  1  0  0  0
 19 20  1  0  0  0
 19 39  1  0  0  0
 19 40  1  0  0  0
 20 22  1  0  0  0
 20 25  1  0  0  0
 21 41  1  0  0  0
 21 42  1  0  0  0
 21 43  1  0  0  0
 22 23  1  0  0  0
 22 27  1  0  0  0
 22 44  1  0  0  0
 23 24  1  0  0  0
 23 45  1  0  0  0
 23 46  1  0  0  0
 24 25  1  0  0  0
 24 47  1  0  0  0
 24 48  1  0  0  0
 25 49  1  0  0  0
 25 50  1  0  0  0
 27 28  2  0  0  0
 27 29  1  0  0  0
 29 31  1  0  0  0
 29 51  1  0  0  0
 31 52  1  0  0  0
 31 53  1  0  0  0
 31 54  1  0  0  0
M  END
> <s_m_entry_id>
4779

> <s_m_entry_name>
dock_pv.267

> <s_m_Source_Path>
/home/csk/Desktop/cluster/DUD-E-result/lck

> <s_m_Source_File>
dock_pv.maegz

> <i_m_Source_File_Index>
267

> <chembl_id>
CHEMBL383760

> <chembl_pref_name>
None

> <i_lp_mmshare_version>
53161

> <i_f3d_flags>
0

> <r_lp_tautomer_probability>
0.999978000241998

> <s_lp_Force_Field>
OPLS_2005

> <r_lp_Energy>
39.634326

> <b_lp_Chiralities_Consistent>
1

> <s_lp_Variant>
CHEMBL258_lig646-1

> <s_i_glide_gridfile>
glide-grid_2of2

> <i_i_glide_lignum>
729

> <i_i_glide_rotatable_bonds>
7

> <r_i_docking_score>
-6.93004711048301

> <r_i_glide_ligand_efficiency>
-0.223549906789775

> <r_i_glide_ligand_efficiency_sa>
-0.702255351229452

> <r_i_glide_ligand_efficiency_ln>
-1.56293800385193

> <r_i_glide_gscore>
-6.93004711048301

> <r_i_glide_lipo>
-2.53498504212281

> <r_i_glide_hbond>
-0.362829928570174

> <r_i_glide_metal>
0

> <r_i_glide_rewards>
-1.66765798437302

> <r_i_glide_evdw>
-37.3261528015137

> <r_i_glide_ecoul>
-6.44954776763916

> <r_i_glide_erotb>
0.507375341241734

> <r_i_glide_esite>
-0.0382096914371764

> <r_i_glide_emodel>
-60.3906906006113

> <r_i_glide_energy>
-43.7757005691528

> <r_i_glide_einternal>
3.59358978271484

> <i_i_glide_confnum>
29

> <i_i_glide_posenum>
99

> <r_i_glide_eff_state_penalty>
0

> <s_user_duplicate_titles>
CHEMBL258_lig646

> <s_m_subgroup_title>
dock_pv

> <s_m_subgroupid>
dock_pv

> <b_m_subgroup_collapsed>
1

$$$$
CHEMBL258_lig1229
                    3D
 Schrodinger Suite 2021-1.
 48 51  0  0  1  0            999 V2000
   22.0663   36.3267   83.8553 C   0  0  0  0  0  0
   20.9556   36.9390   84.4389 C   0  0  0  0  0  0
   21.0610   38.0287   85.2361 N   0  0  0  0  0  0
   22.3097   38.5044   85.4574 C   0  0  0  0  0  0
   23.4503   37.9776   84.9332 N   0  0  0  0  0  0
   23.3264   36.8931   84.1155 C   0  0  0  0  0  0
   24.5066   36.4052   83.4838 N   0  0  0  0  0  0
   22.3621   39.6242   86.2971 N   0  0  0  0  0  0
   25.7495   35.1098   82.0869 N   0  0  0  0  0  0
   24.5614   35.3988   82.5359 C   0  0  0  0  0  0
   26.5568   36.0345   82.6734 C   0  0  0  0  0  0
   25.8228   36.8593   83.5728 C   0  0  0  0  0  0
   26.4594   37.8723   84.3032 C   0  0  0  0  0  0
   27.8311   38.0432   84.1010 C   0  0  0  0  0  0
   28.5558   37.2310   83.2320 C   0  0  0  0  0  0
   27.9366   36.2208   82.4956 C   0  0  0  0  0  0
   23.5892   40.2848   86.7441 C   0  0  1  0  0  0
   24.3815   41.0168   85.6094 C   0  0  2  0  0  0
   25.6190   41.7139   86.0435 N   0  0  2  0  0  0
   26.2999   42.2884   84.8751 C   0  0  0  0  0  0
   25.3699   43.2868   84.1582 C   0  0  0  0  0  0
   24.1563   42.6209   83.6934 N   0  0  1  0  0  0
   23.4677   42.0240   84.8391 C   0  0  0  0  0  0
   23.2645   41.1932   87.9487 C   0  0  0  0  0  0
   26.5724   40.8535   86.7475 C   0  0  0  0  0  0
   21.9196   35.4692   83.2166 H   0  0  0  0  0  0
   19.9557   36.5687   84.2638 H   0  0  0  0  0  0
   21.4856   39.9829   86.6447 H   0  0  0  0  0  0
   23.6627   34.8894   82.2245 H   0  0  0  0  0  0
   25.9258   38.4967   84.9978 H   0  0  0  0  0  0
   28.3531   38.8162   84.6469 H   0  0  0  0  0  0
   29.6187   37.3913   83.1221 H   0  0  0  0  0  0
   28.5124   35.5929   81.8299 H   0  0  0  0  0  0
   24.2327   39.4852   87.1100 H   0  0  0  0  0  0
   24.6740   40.2515   84.8912 H   0  0  0  0  0  0
   27.2028   42.8108   85.1929 H   0  0  0  0  0  0
   26.6117   41.5039   84.1812 H   0  0  0  0  0  0
   25.1068   44.1125   84.8228 H   0  0  0  0  0  0
   25.8698   43.7455   83.3041 H   0  0  0  0  0  0
   23.5661   43.3244   83.2644 H   0  0  0  0  0  0
   23.1075   42.8174   85.4971 H   0  0  0  0  0  0
   22.5872   41.5217   84.4366 H   0  0  0  0  0  0
   24.1611   41.6560   88.3602 H   0  0  0  0  0  0
   22.5758   41.9941   87.6785 H   0  0  0  0  0  0
   22.8008   40.6232   88.7554 H   0  0  0  0  0  0
   26.1398   40.4260   87.6508 H   0  0  0  0  0  0
   27.4404   41.4326   87.0642 H   0  0  0  0  0  0
   26.9315   40.0401   86.1225 H   0  0  0  0  0  0
  1  6  1  0  0  0
  1  2  2  0  0  0
  1 26  1  0  0  0
  2  3  1  0  0  0
  2 27  1  0  0  0
  3  4  2  0  0  0
  4  8  1  0  0  0
  4  5  1  0  0  0
  5  6  2  0  0  0
  6  7  1  0  0  0
  7 12  1  0  0  0
  7 10  1  0  0  0
  8 17  1  0  0  0
  8 28  1  0  0  0
  9 11  1  0  0  0
  9 10  2  0  0  0
 10 29  1  0  0  0
 11 12  2  0  0  0
 11 16  1  0  0  0
 12 13  1  0  0  0
 13 14  2  0  0  0
 13 30  1  0  0  0
 14 15  1  0  0  0
 14 31  1  0  0  0
 15 16  2  0  0  0
 15 32  1  0  0  0
 16 33  1  0  0  0
 17 18  1  0  0  0
 17 24  1  0  0  0
 17 34  1  0  0  0
 18 19  1  0  0  0
 18 23  1  0  0  0
 18 35  1  0  0  0
 19 20  1  0  0  0
 19 25  1  0  0  0
 20 21  1  0  0  0
 20 36  1  0  0  0
 20 37  1  0  0  0
 21 22  1  0  0  0
 21 38  1  0  0  0
 21 39  1  0  0  0
 22 23  1  0  0  0
 22 40  1  0  0  0
 23 41  1  0  0  0
 23 42  1  0  0  0
 24 43  1  0  0  0
 24 44  1  0  0  0
 24 45  1  0  0  0
 25 46  1  0  0  0
 25 47  1  0  0  0
 25 48  1  0  0  0
M  END
> <s_m_entry_id>
4780

> <s_m_entry_name>
dock_pv.268

> <s_m_Source_Path>
/home/csk/Desktop/cluster/DUD-E-result/lck

> <s_m_Source_File>
dock_pv.maegz

> <i_m_Source_File_Index>
268

> <chembl_id>
CHEMBL577469

> <chembl_pref_name>
None

> <i_lp_mmshare_version>
53161

> <i_f3d_flags>
0

> <r_lp_tautomer_probability>
1

> <s_lp_Force_Field>
OPLS_2005

> <r_lp_Energy>
34.40232

> <b_lp_Chiralities_Consistent>
1

> <s_lp_Variant>
CHEMBL258_lig1229-2

> <s_i_glide_gridfile>
glide-grid_2of2

> <i_i_glide_lignum>
1373

> <i_i_glide_rotatable_bonds>
4

> <r_i_docking_score>
-6.92749136414405

> <r_i_glide_ligand_efficiency>
-0.277099654565762

> <r_i_glide_ligand_efficiency_sa>
-0.810244304333587

> <r_i_glide_ligand_efficiency_ln>
-1.64202305346602

> <r_i_glide_gscore>
-6.92749136414405

> <r_i_glide_lipo>
-1.59013144306199

> <r_i_glide_hbond>
-0.474717597410728

> <r_i_glide_metal>
0

> <r_i_glide_rewards>
-3.13183629852401

> <r_i_glide_evdw>
-31.8346118927002

> <r_i_glide_ecoul>
-5.35367012023926

> <r_i_glide_erotb>
0.663975087523577

> <r_i_glide_esite>
0

> <r_i_glide_emodel>
-51.7028769350033

> <r_i_glide_energy>
-37.1882820129395

> <r_i_glide_einternal>
4.5925407409668

> <i_i_glide_confnum>
5

> <i_i_glide_posenum>
211

> <r_i_glide_eff_state_penalty>
0

> <s_user_duplicate_titles>
CHEMBL258_lig1229

> <s_m_subgroup_title>
dock_pv

> <s_m_subgroupid>
dock_pv

> <b_m_subgroup_collapsed>
1

$$$$
CHEMBL258_lig466
                    3D
 Schrodinger Suite 2021-1.
 51 54  0  0  1  0            999 V2000
   23.5395   36.3459   83.5015 C   0  0  0  0  0  0
   22.5098   36.9752   84.2265 C   0  0  0  0  0  0
   24.8382   36.8043   83.7496 N   0  0  0  0  0  0
   22.7630   37.9770   85.1075 N   0  0  0  0  0  0
   24.0381   38.4058   85.2867 C   0  0  0  0  0  0
   21.1753   36.6210   83.9956 N   0  0  0  0  0  0
   25.1306   37.8043   84.6090 C   0  0  0  0  0  0
   24.9838   35.2100   82.1931 N   0  0  0  0  0  0
   20.0491   36.8874   84.8003 C   0  0  0  0  0  0
   25.6629   36.0571   82.9360 C   0  0  0  0  0  0
   23.7116   35.3707   82.4877 C   0  0  0  0  0  0
   24.2841   39.4649   86.1821 C   0  0  0  0  0  0
   26.4509   38.2682   84.8437 C   0  0  0  0  0  0
   18.9710   37.6335   84.2864 C   0  0  0  0  0  0
   19.9683   36.3867   86.1181 C   0  0  0  0  0  0
   25.5871   39.9195   86.4095 C   0  0  0  0  0  0
   25.8935   40.9657   87.2958 N   0  0  0  0  0  0
   26.6534   39.3159   85.7401 C   0  0  0  0  0  0
   23.6120   42.8034   86.1030 N   0  0  0  0  0  0
   18.9499   38.2210   82.6617 Cl  0  0  0  0  0  0
   24.8900   41.7532   88.0173 C   0  0  0  0  0  0
   17.7905   37.4210   86.3829 C   0  0  0  0  0  0
   17.8579   37.9036   85.0816 C   0  0  0  0  0  0
   18.8320   36.6495   86.8872 C   0  0  0  0  0  0
   24.4349   43.0443   87.2935 C   0  0  0  0  0  0
   21.0422   35.4843   86.7199 C   0  0  0  0  0  0
   23.5908   43.9886   85.2479 C   0  0  0  0  0  0
   22.2307   42.4961   86.4762 C   0  0  0  0  0  0
   21.0440   35.8876   83.3174 H   0  0  0  0  0  0
   26.7332   36.1905   82.9095 H   0  0  0  0  0  0
   22.9501   34.7895   81.9916 H   0  0  0  0  0  0
   23.4390   39.9050   86.6821 H   0  0  0  0  0  0
   27.2954   37.8222   84.3390 H   0  0  0  0  0  0
   26.8032   41.3891   87.1850 H   0  0  0  0  0  0
   27.6625   39.6602   85.9158 H   0  0  0  0  0  0
   25.3421   42.0303   88.9699 H   0  0  0  0  0  0
   24.0313   41.1504   88.3102 H   0  0  0  0  0  0
   16.9219   37.6329   86.9901 H   0  0  0  0  0  0
   17.0341   38.4859   84.6933 H   0  0  0  0  0  0
   18.7479   36.2470   87.8861 H   0  0  0  0  0  0
   25.3401   43.5745   86.9914 H   0  0  0  0  0  0
   23.9368   43.7198   87.9917 H   0  0  0  0  0  0
   20.5991   34.7310   87.3723 H   0  0  0  0  0  0
   21.5684   34.9197   85.9534 H   0  0  0  0  0  0
   21.7657   36.0696   87.2871 H   0  0  0  0  0  0
   22.9715   43.8209   84.3650 H   0  0  0  0  0  0
   24.5937   44.2282   84.8923 H   0  0  0  0  0  0
   23.1958   44.8634   85.7682 H   0  0  0  0  0  0
   21.6421   42.2541   85.5903 H   0  0  0  0  0  0
   22.1687   41.6397   87.1459 H   0  0  0  0  0  0
   21.7511   43.3412   86.9751 H   0  0  0  0  0  0
  1  2  1  0  0  0
  1  3  1  0  0  0
  1 11  2  0  0  0
  2  4  2  0  0  0
  2  6  1  0  0  0
  3  7  1  0  0  0
  3 10  1  0  0  0
  4  5  1  0  0  0
  5  7  1  0  0  0
  5 12  2  0  0  0
  6  9  1  0  0  0
  6 29  1  0  0  0
  7 13  2  0  0  0
  8 11  1  0  0  0
  8 10  2  0  0  0
  9 14  1  0  0  0
  9 15  2  0  0  0
 10 30  1  0  0  0
 11 31  1  0  0  0
 12 16  1  0  0  0
 12 32  1  0  0  0
 13 18  1  0  0  0
 13 33  1  0  0  0
 14 20  1  0  0  0
 14 23  2  0  0  0
 15 24  1  0  0  0
 15 26  1  0  0  0
 16 18  2  0  0  0
 16 17  1  0  0  0
 17 21  1  0  0  0
 17 34  1  0  0  0
 18 35  1  0  0  0
 19 25  1  0  0  0
 19 27  1  0  0  0
 19 28  1  0  0  0
 21 25  1  0  0  0
 21 36  1  0  0  0
 21 37  1  0  0  0
 22 24  2  0  0  0
 22 23  1  0  0  0
 22 38  1  0  0  0
 23 39  1  0  0  0
 24 40  1  0  0  0
 25 41  1  0  0  0
 25 42  1  0  0  0
 26 43  1  0  0  0
 26 44  1  0  0  0
 26 45  1  0  0  0
 27 46  1  0  0  0
 27 47  1  0  0  0
 27 48  1  0  0  0
 28 49  1  0  0  0
 28 50  1  0  0  0
 28 51  1  0  0  0
M  END
> <s_m_entry_id>
4781

> <s_m_entry_name>
dock_pv.269

> <s_m_Source_Path>
/home/csk/Desktop/cluster/DUD-E-result/lck

> <s_m_Source_File>
dock_pv.maegz

> <i_m_Source_File_Index>
269

> <chembl_id>
CHEMBL110932

> <chembl_pref_name>
None

> <i_lp_mmshare_version>
53161

> <i_f3d_flags>
0

> <r_lp_tautomer_probability>
1

> <s_lp_Force_Field>
OPLS_2005

> <r_lp_Energy>
64.876416

> <b_lp_Chiralities_Consistent>
1

> <s_lp_Variant>
CHEMBL258_lig466-1

> <s_i_glide_gridfile>
glide-grid_2of2

> <i_i_glide_lignum>
514

> <i_i_glide_rotatable_bonds>
6

> <r_i_docking_score>
-6.91686805856638

> <r_i_glide_ligand_efficiency>
-0.247031002091656

> <r_i_glide_ligand_efficiency_sa>
-0.75013161582972

> <r_i_glide_ligand_efficiency_ln>
-1.59661623598805

> <r_i_glide_gscore>
-6.91686805856638

> <r_i_glide_lipo>
-2.56692983177939

> <r_i_glide_hbond>
-0.225752887877277

> <r_i_glide_metal>
0

> <r_i_glide_rewards>
-2.2597775083066

> <r_i_glide_evdw>
-37.9920349121094

> <r_i_glide_ecoul>
-3.94406056404114

> <r_i_glide_erotb>
0.626802999608524

> <r_i_glide_esite>
0

> <r_i_glide_emodel>
-56.7383802293505

> <r_i_glide_energy>
-41.9360954761505

> <r_i_glide_einternal>
3.53048348426819

> <i_i_glide_confnum>
124

> <i_i_glide_posenum>
329

> <r_i_glide_eff_state_penalty>
0

> <s_user_duplicate_titles>
CHEMBL258_lig466,176884

> <s_m_subgroup_title>
dock_pv

> <s_m_subgroupid>
dock_pv

> <b_m_subgroup_collapsed>
1

$$$$
CHEMBL258_lig458
                    3D
 Schrodinger Suite 2021-1.
 54 57  0  0  1  0            999 V2000
   23.6418   36.2738   83.4673 C   0  0  0  0  0  0
   22.6376   36.9352   84.2008 C   0  0  0  0  0  0
   24.9508   36.7221   83.6768 N   0  0  0  0  0  0
   22.9276   37.9443   85.0639 N   0  0  0  0  0  0
   24.2132   38.3568   85.2090 C   0  0  0  0  0  0
   21.2918   36.6028   84.0029 N   0  0  0  0  0  0
   25.2783   37.7375   84.5055 C   0  0  0  0  0  0
   25.0460   35.0743   82.1716 N   0  0  0  0  0  0
   20.1829   36.8734   84.8307 C   0  0  0  0  0  0
   25.7483   35.9445   82.8645 C   0  0  0  0  0  0
   23.7814   35.2532   82.4871 C   0  0  0  0  0  0
   24.4982   39.4212   86.0870 C   0  0  0  0  0  0
   26.6084   38.2005   84.6859 C   0  0  0  0  0  0
   19.1006   37.6353   84.3434 C   0  0  0  0  0  0
   20.1140   36.3523   86.1407 C   0  0  0  0  0  0
   25.8111   39.8765   86.2589 C   0  0  0  0  0  0
   26.8492   39.2638   85.5545 C   0  0  0  0  0  0
   26.1371   40.9511   87.1055 N   0  0  0  0  0  0
   22.1631   42.3357   88.3340 N   0  0  0  0  0  0
   19.0382   38.2209   82.7211 Cl  0  0  0  0  0  0
   24.3655   42.7275   87.1618 C   0  0  0  0  0  0
   17.9572   37.4209   86.4582 C   0  0  0  0  0  0
   18.0080   37.9149   85.1622 C   0  0  0  0  0  0
   23.1774   43.3265   87.9462 C   0  0  0  0  0  0
   18.9944   36.6223   86.9281 C   0  0  0  0  0  0
   25.1311   41.6277   87.9214 C   0  0  0  0  0  0
   21.1834   35.4197   86.7066 C   0  0  0  0  0  0
   21.2056   42.9592   89.2451 C   0  0  0  0  0  0
   21.4327   41.8219   87.1733 C   0  0  0  0  0  0
   21.1385   35.8680   83.3300 H   0  0  0  0  0  0
   26.8188   36.0652   82.8107 H   0  0  0  0  0  0
   23.0122   34.6270   82.0553 H   0  0  0  0  0  0
   23.6719   39.8669   86.6136 H   0  0  0  0  0  0
   27.4329   37.7432   84.1574 H   0  0  0  0  0  0
   27.8650   39.6107   85.6850 H   0  0  0  0  0  0
   27.0002   41.4435   86.9229 H   0  0  0  0  0  0
   24.0294   42.3745   86.1873 H   0  0  0  0  0  0
   25.0617   43.5297   86.9206 H   0  0  0  0  0  0
   17.1029   37.6361   87.0839 H   0  0  0  0  0  0
   17.1825   38.5083   84.7951 H   0  0  0  0  0  0
   22.7167   44.1320   87.3692 H   0  0  0  0  0  0
   23.5770   43.7852   88.8525 H   0  0  0  0  0  0
   18.9292   36.2135   87.9255 H   0  0  0  0  0  0
   25.5907   42.0314   88.8239 H   0  0  0  0  0  0
   24.4232   40.8979   88.3136 H   0  0  0  0  0  0
   20.8886   34.9429   87.6456 H   0  0  0  0  0  0
   21.3588   34.6128   85.9989 H   0  0  0  0  0  0
   22.1247   35.9465   86.8621 H   0  0  0  0  0  0
   21.7076   43.3233   90.1427 H   0  0  0  0  0  0
   20.4509   42.2406   89.5649 H   0  0  0  0  0  0
   20.6908   43.8036   88.7825 H   0  0  0  0  0  0
   22.0877   41.2960   86.4816 H   0  0  0  0  0  0
   20.6608   41.1133   87.4802 H   0  0  0  0  0  0
   20.9500   42.6211   86.6125 H   0  0  0  0  0  0
  1  2  1  0  0  0
  1  3  1  0  0  0
  1 11  2  0  0  0
  2  4  2  0  0  0
  2  6  1  0  0  0
  3  7  1  0  0  0
  3 10  1  0  0  0
  4  5  1  0  0  0
  5  7  1  0  0  0
  5 12  2  0  0  0
  6  9  1  0  0  0
  6 30  1  0  0  0
  7 13  2  0  0  0
  8 11  1  0  0  0
  8 10  2  0  0  0
  9 14  1  0  0  0
  9 15  2  0  0  0
 10 31  1  0  0  0
 11 32  1  0  0  0
 12 16  1  0  0  0
 12 33  1  0  0  0
 13 17  1  0  0  0
 13 34  1  0  0  0
 14 20  1  0  0  0
 14 23  2  0  0  0
 15 25  1  0  0  0
 15 27  1  0  0  0
 16 17  2  0  0  0
 16 18  1  0  0  0
 17 35  1  0  0  0
 18 26  1  0  0  0
 18 36  1  0  0  0
 19 24  1  0  0  0
 19 28  1  0  0  0
 19 29  1  0  0  0
 21 26  1  0  0  0
 21 24  1  0  0  0
 21 37  1  0  0  0
 21 38  1  0  0  0
 22 25  2  0  0  0
 22 23  1  0  0  0
 22 39  1  0  0  0
 23 40  1  0  0  0
 24 41  1  0  0  0
 24 42  1  0  0  0
 25 43  1  0  0  0
 26 44  1  0  0  0
 26 45  1  0  0  0
 27 46  1  0  0  0
 27 47  1  0  0  0
 27 48  1  0  0  0
 28 49  1  0  0  0
 28 50  1  0  0  0
 28 51  1  0  0  0
 29 52  1  0  0  0
 29 53  1  0  0  0
 29 54  1  0  0  0
M  END
> <s_m_entry_id>
4782

> <s_m_entry_name>
dock_pv.270

> <s_m_Source_Path>
/home/csk/Desktop/cluster/DUD-E-result/lck

> <s_m_Source_File>
dock_pv.maegz

> <i_m_Source_File_Index>
270

> <chembl_id>
CHEMBL110394

> <chembl_pref_name>
None

> <i_lp_mmshare_version>
53161

> <i_f3d_flags>
0

> <r_lp_tautomer_probability>
1

> <s_lp_Force_Field>
OPLS_2005

> <r_lp_Energy>
68.36027

> <b_lp_Chiralities_Consistent>
1

> <s_lp_Variant>
CHEMBL258_lig458-1

> <s_i_glide_gridfile>
glide-grid_2of2

> <i_i_glide_lignum>
506

> <i_i_glide_rotatable_bonds>
7

> <r_i_docking_score>
-6.91107747678689

> <r_i_glide_ligand_efficiency>
-0.238313016440927

> <r_i_glide_ligand_efficiency_sa>
-0.732173089369594

> <r_i_glide_ligand_efficiency_ln>
-1.58246149238035

> <r_i_glide_gscore>
-6.91107747678689

> <r_i_glide_lipo>
-2.67684536402009

> <r_i_glide_hbond>
-0.312937031517687

> <r_i_glide_metal>
0

> <r_i_glide_rewards>
-2.2283677172226

> <r_i_glide_evdw>
-37.2690467834473

> <r_i_glide_ecoul>
-3.5721287727356

> <r_i_glide_erotb>
0.706344291056198

> <r_i_glide_esite>
0

> <r_i_glide_emodel>
-55.8848123117494

> <r_i_glide_energy>
-40.8411755561829

> <r_i_glide_einternal>
3.33121633529663

> <i_i_glide_confnum>
40

> <i_i_glide_posenum>
10

> <r_i_glide_eff_state_penalty>
0

> <s_user_duplicate_titles>
CHEMBL258_lig458,176544

> <s_m_subgroup_title>
dock_pv

> <s_m_subgroupid>
dock_pv

> <b_m_subgroup_collapsed>
1

$$$$
CHEMBL258_lig561
                    3D
 Schrodinger Suite 2021-1.
 41 44  0  0  1  0            999 V2000
   26.0133   37.7777   83.9643 C   0  0  0  0  0  0
   22.4098   37.2746   84.4529 C   0  0  0  0  0  0
   24.5979   37.6582   84.2430 C   0  0  0  0  0  0
   26.7727   37.0208   83.0009 C   0  0  0  0  0  0
   23.5783   36.7645   83.8975 N   0  0  0  0  0  0
   22.6079   38.3297   85.1989 N   0  0  0  0  0  0
   26.7501   38.7647   84.7120 C   0  0  0  0  0  0
   28.1075   37.1187   82.8936 N   0  0  0  0  0  0
   21.1846   36.6830   84.2228 N   0  0  0  0  0  0
   23.9470   38.5773   85.1027 C   0  0  0  0  0  0
   28.1799   38.8418   84.5752 C   0  0  0  0  0  0
   28.8068   37.9953   83.6423 C   0  0  0  0  0  0
   20.0232   36.9208   84.9782 C   0  0  0  0  0  0
   26.0330   39.6540   85.5636 C   0  0  0  0  0  0
   26.1496   36.2277   82.0873 O   0  0  0  0  0  0
   24.6590   39.5881   85.7405 C   0  0  0  0  0  0
   19.9055   36.3611   86.2608 C   0  0  0  0  0  0
   18.9453   37.6483   84.4472 C   0  0  0  0  0  0
   30.2590   38.0014   83.2887 C   0  0  0  0  0  0
   31.1049   38.8089   83.6630 O   0  0  0  0  0  0
   23.6368   35.5644   83.0823 C   0  0  0  0  0  0
   21.1353   35.3133   86.8889 Cl  0  0  0  0  0  0
   18.9499   38.2210   82.8177 Cl  0  0  0  0  0  0
   28.9610   39.8135   85.4742 C   0  0  0  0  0  0
   17.7275   37.3820   86.5158 C   0  0  0  0  0  0
   18.7624   36.6023   87.0236 C   0  0  0  0  0  0
   17.8099   37.8840   85.2216 C   0  0  0  0  0  0
   21.1075   35.8740   83.6252 H   0  0  0  0  0  0
   26.5527   40.4393   86.0897 H   0  0  0  0  0  0
   26.8039   35.8870   81.4678 H   0  0  0  0  0  0
   24.1572   40.2936   86.3885 H   0  0  0  0  0  0
   30.5519   37.2024   82.6026 H   0  0  0  0  0  0
   22.7785   34.9260   83.2773 H   0  0  0  0  0  0
   23.6530   35.8209   82.0241 H   0  0  0  0  0  0
   24.5310   35.0208   83.3672 H   0  0  0  0  0  0
   28.5521   39.8374   86.4830 H   0  0  0  0  0  0
   28.9414   40.8226   85.0632 H   0  0  0  0  0  0
   29.9955   39.5228   85.6353 H   0  0  0  0  0  0
   16.8440   37.5727   87.1082 H   0  0  0  0  0  0
   18.6653   36.1692   88.0085 H   0  0  0  0  0  0
   16.9822   38.4553   84.8237 H   0  0  0  0  0  0
  1  3  2  0  0  0
  1  4  1  0  0  0
  1  7  1  0  0  0
  2  5  1  0  0  0
  2  9  1  0  0  0
  2  6  2  0  0  0
  3  5  1  0  0  0
  3 10  1  0  0  0
  4  8  2  0  0  0
  4 15  1  0  0  0
  5 21  1  0  0  0
  6 10  1  0  0  0
  7 11  1  0  0  0
  7 14  2  0  0  0
  8 12  1  0  0  0
  9 13  1  0  0  0
  9 28  1  0  0  0
 10 16  2  0  0  0
 11 12  2  0  0  0
 11 24  1  0  0  0
 12 19  1  0  0  0
 13 17  2  0  0  0
 13 18  1  0  0  0
 14 16  1  0  0  0
 14 29  1  0  0  0
 15 30  1  0  0  0
 16 31  1  0  0  0
 17 22  1  0  0  0
 17 26  1  0  0  0
 18 23  1  0  0  0
 18 27  2  0  0  0
 19 20  2  0  0  0
 19 32  1  0  0  0
 21 33  1  0  0  0
 21 34  1  0  0  0
 21 35  1  0  0  0
 24 36  1  0  0  0
 24 37  1  0  0  0
 24 38  1  0  0  0
 25 27  1  0  0  0
 25 26  2  0  0  0
 25 39  1  0  0  0
 26 40  1  0  0  0
 27 41  1  0  0  0
M  END
> <s_m_entry_id>
4783

> <s_m_entry_name>
dock_pv.271

> <s_m_Source_Path>
/home/csk/Desktop/cluster/DUD-E-result/lck

> <s_m_Source_File>
dock_pv.maegz

> <i_m_Source_File_Index>
271

> <chembl_id>
CHEMBL284446

> <chembl_pref_name>
None

> <i_lp_mmshare_version>
53161

> <i_f3d_flags>
0

> <r_lp_tautomer_probability>
1

> <s_lp_Force_Field>
OPLS_2005

> <r_lp_Energy>
34.333946

> <b_lp_Chiralities_Consistent>
1

> <s_lp_Variant>
CHEMBL258_lig561-1

> <s_i_glide_gridfile>
glide-grid_2of2

> <i_i_glide_lignum>
634

> <i_i_glide_rotatable_bonds>
4

> <r_i_docking_score>
-6.9101630385446

> <r_i_glide_ligand_efficiency>
-0.255931964390541

> <r_i_glide_ligand_efficiency_sa>
-0.767795892328113

> <r_i_glide_ligand_efficiency_ln>
-1.60857203243193

> <r_i_glide_gscore>
-6.9101630385446

> <r_i_glide_lipo>
-2.99635308239934

> <r_i_glide_hbond>
-0.257065434000649

> <r_i_glide_metal>
0

> <r_i_glide_rewards>
-1.323611317174

> <r_i_glide_evdw>
-40.5808486938477

> <r_i_glide_ecoul>
-3.65148949623108

> <r_i_glide_erotb>
0.243632654156429

> <r_i_glide_esite>
0

> <r_i_glide_emodel>
-62.0387081585007

> <r_i_glide_energy>
-44.2323381900787

> <r_i_glide_einternal>
1.55717635154724

> <i_i_glide_confnum>
1

> <i_i_glide_posenum>
9

> <r_i_glide_eff_state_penalty>
0

> <s_user_duplicate_titles>
CHEMBL258_lig561,37151

> <s_m_subgroup_title>
dock_pv

> <s_m_subgroupid>
dock_pv

> <b_m_subgroup_collapsed>
1

$$$$
CHEMBL258_lig365
                    3D
 Schrodinger Suite 2021-1.
 29 32  0  0  1  0            999 V2000
   24.5505   36.5228   83.5856 C   0  0  0  0  0  0
   23.8246   37.3166   84.4882 C   0  0  0  0  0  0
   25.8921   36.8670   83.3959 N   0  0  0  0  0  0
   24.3929   38.3786   85.1238 N   0  0  0  0  0  0
   26.5004   37.8992   84.0196 C   0  0  0  0  0  0
   25.7039   38.6711   84.9079 C   0  0  0  0  0  0
   25.4620   35.1075   82.0881 N   0  0  0  0  0  0
   22.4794   36.9951   84.7254 N   0  0  0  0  0  0
   26.3849   35.9563   82.4871 C   0  0  0  0  0  0
   24.3507   35.4210   82.7157 C   0  0  0  0  0  0
   21.6051   37.8724   85.4926 C   0  0  0  0  0  0
   20.5479   37.2091   86.3420 C   0  0  0  0  0  0
   21.7495   37.8602   86.9957 C   0  0  0  0  0  0
   27.8689   38.2277   83.8204 C   0  0  0  0  0  0
   26.2944   39.7621   85.5855 C   0  0  0  0  0  0
   28.4166   39.3098   84.5067 C   0  0  0  0  0  0
   27.6398   40.0678   85.3803 C   0  0  0  0  0  0
   22.0440   36.3383   84.0958 H   0  0  0  0  0  0
   27.4073   35.9681   82.1404 H   0  0  0  0  0  0
   23.4391   34.8670   82.5377 H   0  0  0  0  0  0
   21.3725   38.8213   85.0049 H   0  0  0  0  0  0
   20.4703   36.1203   86.3310 H   0  0  0  0  0  0
   19.5724   37.6906   86.4188 H   0  0  0  0  0  0
   21.6269   38.8035   87.5278 H   0  0  0  0  0  0
   22.5268   37.2362   87.4370 H   0  0  0  0  0  0
   28.4879   37.6475   83.1520 H   0  0  0  0  0  0
   25.6923   40.3511   86.2616 H   0  0  0  0  0  0
   29.4576   39.5634   84.3659 H   0  0  0  0  0  0
   28.0867   40.9008   85.9038 H   0  0  0  0  0  0
  1  2  1  0  0  0
  1  3  1  0  0  0
  1 10  2  0  0  0
  2  4  2  0  0  0
  2  8  1  0  0  0
  3  5  1  0  0  0
  3  9  1  0  0  0
  4  6  1  0  0  0
  5  6  1  0  0  0
  5 14  2  0  0  0
  6 15  2  0  0  0
  7 10  1  0  0  0
  7  9  2  0  0  0
  8 11  1  0  0  0
  8 18  1  0  0  0
  9 19  1  0  0  0
 10 20  1  0  0  0
 11 12  1  0  0  0
 11 13  1  0  0  0
 11 21  1  0  0  0
 12 13  1  0  0  0
 12 22  1  0  0  0
 12 23  1  0  0  0
 13 24  1  0  0  0
 13 25  1  0  0  0
 14 16  1  0  0  0
 14 26  1  0  0  0
 15 17  1  0  0  0
 15 27  1  0  0  0
 16 17  2  0  0  0
 16 28  1  0  0  0
 17 29  1  0  0  0
M  END
> <s_m_entry_id>
4784

> <s_m_entry_name>
dock_pv.272

> <s_m_Source_Path>
/home/csk/Desktop/cluster/DUD-E-result/lck

> <s_m_Source_File>
dock_pv.maegz

> <i_m_Source_File_Index>
272

> <chembl_id>
CHEMBL286032

> <chembl_pref_name>
None

> <i_lp_mmshare_version>
53161

> <i_f3d_flags>
0

> <r_lp_tautomer_probability>
1

> <s_lp_Force_Field>
OPLS_2005

> <r_lp_Energy>
57.010511

> <b_lp_Chiralities_Consistent>
1

> <s_lp_Variant>
CHEMBL258_lig365-1

> <s_i_glide_gridfile>
glide-grid_2of2

> <i_i_glide_lignum>
405

> <i_i_glide_rotatable_bonds>
2

> <r_i_docking_score>
-6.9091189617357

> <r_i_glide_ligand_efficiency>
-0.406418762455041

> <r_i_glide_ligand_efficiency_sa>
-1.04501708101183

> <r_i_glide_ligand_efficiency_ln>
-1.80243527860222

> <r_i_glide_gscore>
-6.9091189617357

> <r_i_glide_lipo>
-2.17339443787157

> <r_i_glide_hbond>
-0.32

> <r_i_glide_metal>
0

> <r_i_glide_rewards>
-3.41915895089893

> <r_i_glide_evdw>
-26.8364162445068

> <r_i_glide_ecoul>
-2.19046401977539

> <r_i_glide_erotb>
0.673824842226454

> <r_i_glide_esite>
0

> <r_i_glide_emodel>
-41.2932613761361

> <r_i_glide_energy>
-29.0268802642822

> <r_i_glide_einternal>
0.261071771383286

> <i_i_glide_confnum>
2

> <i_i_glide_posenum>
183

> <r_i_glide_eff_state_penalty>
0

> <s_user_duplicate_titles>
CHEMBL258_lig365

> <s_m_subgroup_title>
dock_pv

> <s_m_subgroupid>
dock_pv

> <b_m_subgroup_collapsed>
1

$$$$
CHEMBL258_lig198
                    3D
 Schrodinger Suite 2021-1.
 38 41  0  0  1  0            999 V2000
   23.9233   36.5099   83.7691 C   0  0  0  0  0  0
   22.9213   37.0433   84.5984 C   0  0  0  0  0  0
   25.1264   37.2186   83.7160 N   0  0  0  0  0  0
   23.0904   38.2174   85.2645 N   0  0  0  0  0  0
   21.7314   36.3280   84.7749 N   0  0  0  0  0  0
   25.3460   38.3780   84.3785 C   0  0  0  0  0  0
   24.2722   38.8842   85.1616 C   0  0  0  0  0  0
   25.3505   35.4232   82.3987 N   0  0  0  0  0  0
   20.5410   36.6938   85.4406 C   0  0  0  0  0  0
   25.9520   36.4911   82.8834 C   0  0  0  0  0  0
   24.1284   35.4211   82.8851 C   0  0  0  0  0  0
   20.0714   35.8924   86.4982 C   0  0  0  0  0  0
   19.7720   37.8010   85.0314 C   0  0  0  0  0  0
   26.5727   39.0931   84.3068 C   0  0  0  0  0  0
   24.4425   40.1044   85.8554 C   0  0  0  0  0  0
   18.1465   37.3373   86.7666 C   0  0  0  0  0  0
   18.8789   36.2214   87.1533 C   0  0  0  0  0  0
   18.5888   38.1216   85.7073 C   0  0  0  0  0  0
   20.1329   38.6211   83.8060 C   0  0  0  0  0  0
   20.8238   34.6498   86.9479 C   0  0  0  0  0  0
   26.7044   40.2910   85.0070 C   0  0  0  0  0  0
   25.6524   40.7928   85.7704 C   0  0  0  0  0  0
   21.7740   35.3607   84.4967 H   0  0  0  0  0  0
   26.9649   36.7908   82.6585 H   0  0  0  0  0  0
   23.4221   34.6499   82.6090 H   0  0  0  0  0  0
   27.3999   38.7217   83.7190 H   0  0  0  0  0  0
   23.6266   40.4931   86.4472 H   0  0  0  0  0  0
   17.2254   37.5897   87.2750 H   0  0  0  0  0  0
   18.5149   35.6080   87.9655 H   0  0  0  0  0  0
   17.9914   38.9697   85.4038 H   0  0  0  0  0  0
   20.6193   38.0129   83.0443 H   0  0  0  0  0  0
   19.2314   39.0215   83.3406 H   0  0  0  0  0  0
   20.7904   39.4456   84.0817 H   0  0  0  0  0  0
   20.9804   34.0050   86.0874 H   0  0  0  0  0  0
   21.8021   34.9107   87.3505 H   0  0  0  0  0  0
   20.2726   34.0701   87.6873 H   0  0  0  0  0  0
   27.6334   40.8401   84.9567 H   0  0  0  0  0  0
   25.7750   41.7259   86.3017 H   0  0  0  0  0  0
  1  2  1  0  0  0
  1  3  1  0  0  0
  1 11  2  0  0  0
  2  4  2  0  0  0
  2  5  1  0  0  0
  3  6  1  0  0  0
  3 10  1  0  0  0
  4  7  1  0  0  0
  5  9  1  0  0  0
  5 23  1  0  0  0
  6  7  1  0  0  0
  6 14  2  0  0  0
  7 15  2  0  0  0
  8 11  1  0  0  0
  8 10  2  0  0  0
  9 12  1  0  0  0
  9 13  2  0  0  0
 10 24  1  0  0  0
 11 25  1  0  0  0
 12 17  2  0  0  0
 12 20  1  0  0  0
 13 18  1  0  0  0
 13 19  1  0  0  0
 14 21  1  0  0  0
 14 26  1  0  0  0
 15 22  1  0  0  0
 15 27  1  0  0  0
 16 18  2  0  0  0
 16 17  1  0  0  0
 16 28  1  0  0  0
 17 29  1  0  0  0
 18 30  1  0  0  0
 19 31  1  0  0  0
 19 32  1  0  0  0
 19 33  1  0  0  0
 20 34  1  0  0  0
 20 35  1  0  0  0
 20 36  1  0  0  0
 21 22  2  0  0  0
 21 37  1  0  0  0
 22 38  1  0  0  0
M  END
> <s_m_entry_id>
4785

> <s_m_entry_name>
dock_pv.273

> <s_m_Source_Path>
/home/csk/Desktop/cluster/DUD-E-result/lck

> <s_m_Source_File>
dock_pv.maegz

> <i_m_Source_File_Index>
273

> <chembl_id>
CHEMBL28632

> <chembl_pref_name>
None

> <i_lp_mmshare_version>
53161

> <i_f3d_flags>
0

> <r_lp_tautomer_probability>
1

> <s_lp_Force_Field>
OPLS_2005

> <r_lp_Energy>
58.421449

> <b_lp_Chiralities_Consistent>
1

> <s_lp_Variant>
CHEMBL258_lig198-1

> <s_i_glide_gridfile>
glide-grid_2of2

> <i_i_glide_lignum>
226

> <i_i_glide_rotatable_bonds>
2

> <r_i_docking_score>
-6.90759269874682

> <r_i_glide_ligand_efficiency>
-0.313981486306673

> <r_i_glide_ligand_efficiency_sa>
-0.879788472822447

> <r_i_glide_ligand_efficiency_ln>
-1.68846761613936

> <r_i_glide_gscore>
-6.90759269874682

> <r_i_glide_lipo>
-2.45506797917757

> <r_i_glide_hbond>
-0.0285091846823888

> <r_i_glide_metal>
0

> <r_i_glide_rewards>
-2.95861317160387

> <r_i_glide_evdw>
-32.9921989440918

> <r_i_glide_ecoul>
-1.68918097019196

> <r_i_glide_erotb>
0.437584729450391

> <r_i_glide_esite>
0

> <r_i_glide_emodel>
-47.3891660203724

> <r_i_glide_energy>
-34.6813799142838

> <r_i_glide_einternal>
3.43949866294861

> <i_i_glide_confnum>
2

> <i_i_glide_posenum>
245

> <r_i_glide_eff_state_penalty>
0

> <s_user_duplicate_titles>
CHEMBL258_lig198,39483

> <s_m_subgroup_title>
dock_pv

> <s_m_subgroupid>
dock_pv

> <b_m_subgroup_collapsed>
1

$$$$
CHEMBL258_lig717
                    3D
 Schrodinger Suite 2021-1.
 40 43  0  0  1  0            999 V2000
   21.4588   40.1572   87.2572 N   0  0  0  0  0  0
   20.2830   39.5263   86.8857 N   0  0  0  0  0  0
   20.5492   38.5877   85.9950 C   0  0  0  0  0  0
   22.4476   39.5864   86.5327 C   0  0  0  0  0  0
   21.9042   38.5791   85.7216 N   0  0  0  0  0  0
   22.6853   37.8232   84.8860 C   0  0  0  0  0  0
   24.0695   38.0347   84.8246 C   0  0  0  0  0  0
   24.6207   39.0205   85.6556 C   0  0  0  0  0  0
   23.8309   39.8190   86.4869 C   0  0  0  0  0  0
   24.8863   37.1885   83.8758 C   0  0  0  0  0  0
   24.4440   35.9819   83.2877 C   0  0  0  0  0  0
   25.3046   35.4242   82.4784 N   0  0  0  0  0  0
   26.3342   36.2612   82.5068 N   0  0  0  0  0  0
   26.1854   37.3423   83.3465 C   0  0  0  0  0  0
   27.2967   38.3403   83.5116 C   0  0  0  0  0  0
   28.6383   37.9192   83.4979 C   0  0  0  0  0  0
   29.6757   38.8331   83.6868 C   0  0  0  0  0  0
   29.3908   40.1821   83.8859 C   0  0  0  0  0  0
   28.0682   40.6152   83.8861 C   0  0  0  0  0  0
   27.0326   39.7054   83.6793 C   0  0  0  0  0  0
   28.9501   36.6213   83.2858 F   0  0  0  0  0  0
   27.7871   41.9173   84.0998 F   0  0  0  0  0  0
   19.5297   37.6848   85.2994 C   0  0  0  0  0  0
   19.3194   38.1052   83.8324 C   0  0  0  0  0  0
   18.1832   37.6280   86.0488 C   0  0  0  0  0  0
   22.1649   37.0845   84.2974 H   0  0  0  0  0  0
   25.6879   39.1563   85.6995 H   0  0  0  0  0  0
   24.2777   40.5785   87.1115 H   0  0  0  0  0  0
   23.4829   35.5156   83.4418 H   0  0  0  0  0  0
   27.1709   36.0805   81.9671 H   0  0  0  0  0  0
   30.7009   38.4924   83.6796 H   0  0  0  0  0  0
   30.1894   40.8934   84.0428 H   0  0  0  0  0  0
   26.0192   40.0741   83.6822 H   0  0  0  0  0  0
   19.9191   36.6649   85.2938 H   0  0  0  0  0  0
   20.2454   38.0627   83.2591 H   0  0  0  0  0  0
   18.9387   39.1245   83.7692 H   0  0  0  0  0  0
   18.5990   37.4550   83.3338 H   0  0  0  0  0  0
   18.3006   37.2059   87.0471 H   0  0  0  0  0  0
   17.7504   38.6213   86.1597 H   0  0  0  0  0  0
   17.4502   37.0211   85.5178 H   0  0  0  0  0  0
  1  2  1  0  0  0
  1  4  2  0  0  0
  2  3  2  0  0  0
  3  5  1  0  0  0
  3 23  1  0  0  0
  4  9  1  0  0  0
  4  5  1  0  0  0
  5  6  1  0  0  0
  6  7  2  0  0  0
  6 26  1  0  0  0
  7  8  1  0  0  0
  7 10  1  0  0  0
  8  9  2  0  0  0
  8 27  1  0  0  0
  9 28  1  0  0  0
 10 14  2  0  0  0
 10 11  1  0  0  0
 11 29  1  0  0  0
 11 12  2  0  0  0
 12 13  1  0  0  0
 13 30  1  0  0  0
 13 14  1  0  0  0
 14 15  1  0  0  0
 15 16  2  0  0  0
 15 20  1  0  0  0
 16 17  1  0  0  0
 16 21  1  0  0  0
 17 18  2  0  0  0
 17 31  1  0  0  0
 18 19  1  0  0  0
 18 32  1  0  0  0
 19 20  2  0  0  0
 19 22  1  0  0  0
 20 33  1  0  0  0
 23 24  1  0  0  0
 23 25  1  0  0  0
 23 34  1  0  0  0
 24 35  1  0  0  0
 24 36  1  0  0  0
 24 37  1  0  0  0
 25 38  1  0  0  0
 25 39  1  0  0  0
 25 40  1  0  0  0
M  END
> <s_m_entry_id>
4786

> <s_m_entry_name>
dock_pv.274

> <s_m_Source_Path>
/home/csk/Desktop/cluster/DUD-E-result/lck

> <s_m_Source_File>
dock_pv.maegz

> <i_m_Source_File_Index>
274

> <chembl_id>
CHEMBL214198

> <chembl_pref_name>
None

> <i_lp_mmshare_version>
53161

> <i_f3d_flags>
0

> <r_lp_tautomer_probability>
0.5

> <s_lp_Force_Field>
OPLS_2005

> <r_lp_Energy>
14.909538

> <b_lp_Chiralities_Consistent>
1

> <s_lp_Variant>
CHEMBL258_lig717-2

> <s_i_glide_gridfile>
glide-grid_2of2

> <i_i_glide_lignum>
802

> <i_i_glide_rotatable_bonds>
3

> <r_i_docking_score>
-6.90626642553345

> <r_i_glide_ligand_efficiency>
-0.276250657021338

> <r_i_glide_ligand_efficiency_sa>
-0.807761820456655

> <r_i_glide_ligand_efficiency_ln>
-1.63699210695522

> <r_i_glide_gscore>
-6.90626642553345

> <r_i_glide_lipo>
-2.46594935492616

> <r_i_glide_hbond>
0

> <r_i_glide_metal>
0

> <r_i_glide_rewards>
-2.67334336580851

> <r_i_glide_evdw>
-35.6584129333496

> <r_i_glide_ecoul>
-2.01915621757507

> <r_i_glide_erotb>
0.32866671838316

> <r_i_glide_esite>
-0.00984634387819863

> <r_i_glide_emodel>
-53.8124199439285

> <r_i_glide_energy>
-37.6775691509247

> <r_i_glide_einternal>
0.637917101383209

> <i_i_glide_confnum>
14

> <i_i_glide_posenum>
215

> <r_i_glide_eff_state_penalty>
0

> <s_user_duplicate_titles>
CHEMBL258_lig717

> <s_m_subgroup_title>
dock_pv

> <s_m_subgroupid>
dock_pv

> <b_m_subgroup_collapsed>
1

$$$$
CHEMBL258_lig633
                    3D
 Schrodinger Suite 2021-1.
 53 55  0  0  1  0            999 V2000
   27.4067   38.2144   84.2576 C   0  0  0  0  0  0
   27.9129   37.3313   83.2870 C   0  0  0  0  0  0
   27.0559   36.3976   82.6893 C   0  0  0  0  0  0
   26.0748   38.1054   84.6824 C   0  0  0  0  0  0
   25.1874   37.1802   84.0685 C   0  0  0  0  0  0
   25.6984   36.3149   83.0541 C   0  0  0  0  0  0
   24.9074   35.4209   82.3970 N   0  0  0  0  0  0
   23.5959   35.4210   82.7271 C   0  0  0  0  0  0
   23.0030   36.1881   83.6670 N   0  0  0  0  0  0
   23.7877   37.0588   84.3460 C   0  0  0  0  0  0
   23.1609   37.9097   85.2781 N   0  0  0  0  0  0
   21.8266   38.0736   85.7112 C   0  0  0  0  0  0
   20.8164   37.1179   85.5050 C   0  0  0  0  0  0
   19.5019   37.3738   85.8909 C   0  0  0  0  0  0
   19.1731   38.5886   86.4876 C   0  0  0  0  0  0
   20.1669   39.5362   86.7288 C   0  0  0  0  0  0
   21.4879   39.2802   86.3444 C   0  0  0  0  0  0
   29.2532   37.4223   82.9543 O   0  0  0  0  0  0
   28.3043   39.3287   84.8335 C   0  0  0  0  0  0
   29.8743   36.3420   82.2559 C   0  0  0  0  0  0
   19.7492   41.0209   87.5070 Cl  0  0  0  0  0  0
   22.4432   40.2136   86.5797 F   0  0  0  0  0  0
   27.6879   40.6700   84.9258 N   0  0  1  0  0  0
   28.6840   41.7176   85.3577 C   0  0  2  0  0  0
   29.4765   41.4100   86.6500 C   0  0  0  0  0  0
   27.9964   43.1011   85.5468 C   0  0  0  0  0  0
   28.5502   44.1319   84.8870 N   0  0  0  0  0  0
   26.9932   43.2065   86.2566 O   0  0  0  0  0  0
   27.0669   41.0186   83.6397 C   0  0  0  0  0  0
   27.9838   45.4710   84.8884 C   0  0  0  0  0  0
   27.4093   35.7259   81.9215 H   0  0  0  0  0  0
   25.7024   38.7833   85.4368 H   0  0  0  0  0  0
   22.9552   34.7394   82.1846 H   0  0  0  0  0  0
   23.7768   38.6177   85.6475 H   0  0  0  0  0  0
   21.0201   36.1600   85.0559 H   0  0  0  0  0  0
   18.7396   36.6265   85.7218 H   0  0  0  0  0  0
   18.1498   38.7906   86.7745 H   0  0  0  0  0  0
   29.2186   39.4102   84.2436 H   0  0  0  0  0  0
   28.6167   39.0210   85.8316 H   0  0  0  0  0  0
   30.9474   36.5225   82.1955 H   0  0  0  0  0  0
   29.7301   35.3899   82.7695 H   0  0  0  0  0  0
   29.4990   36.2445   81.2360 H   0  0  0  0  0  0
   29.4339   41.8467   84.5721 H   0  0  0  0  0  0
   30.0465   42.2716   87.0034 H   0  0  0  0  0  0
   28.8162   41.0938   87.4594 H   0  0  0  0  0  0
   30.2065   40.6207   86.4845 H   0  0  0  0  0  0
   29.3756   43.9919   84.3061 H   0  0  0  0  0  0
   26.2798   40.3255   83.3515 H   0  0  0  0  0  0
   26.5782   41.9922   83.6871 H   0  0  0  0  0  0
   27.8133   41.0210   82.8455 H   0  0  0  0  0  0
   28.6410   46.1469   84.3398 H   0  0  0  0  0  0
   27.8728   45.8492   85.9068 H   0  0  0  0  0  0
   27.0063   45.4789   84.4023 H   0  0  0  0  0  0
  1  2  1  0  0  0
  1 19  1  0  0  0
  1  4  2  0  0  0
  2 18  1  0  0  0
  2  3  2  0  0  0
  3  6  1  0  0  0
  3 31  1  0  0  0
  4  5  1  0  0  0
  4 32  1  0  0  0
  5 10  2  0  0  0
  5  6  1  0  0  0
  6  7  2  0  0  0
  7  8  1  0  0  0
  8  9  2  0  0  0
  8 33  1  0  0  0
  9 10  1  0  0  0
 10 11  1  0  0  0
 11 12  1  0  0  0
 11 34  1  0  0  0
 12 17  2  0  0  0
 12 13  1  0  0  0
 13 14  2  0  0  0
 13 35  1  0  0  0
 14 15  1  0  0  0
 14 36  1  0  0  0
 15 16  2  0  0  0
 15 37  1  0  0  0
 16 17  1  0  0  0
 16 21  1  0  0  0
 17 22  1  0  0  0
 18 20  1  0  0  0
 19 23  1  0  0  0
 19 38  1  0  0  0
 19 39  1  0  0  0
 20 40  1  0  0  0
 20 41  1  0  0  0
 20 42  1  0  0  0
 23 24  1  0  0  0
 23 29  1  0  0  0
 24 25  1  0  0  0
 24 26  1  0  0  0
 24 43  1  0  0  0
 25 44  1  0  0  0
 25 45  1  0  0  0
 25 46  1  0  0  0
 26 27  1  0  0  0
 26 28  2  0  0  0
 27 30  1  0  0  0
 27 47  1  0  0  0
 29 48  1  0  0  0
 29 49  1  0  0  0
 29 50  1  0  0  0
 30 51  1  0  0  0
 30 52  1  0  0  0
 30 53  1  0  0  0
M  END
> <s_m_entry_id>
4787

> <s_m_entry_name>
dock_pv.275

> <s_m_Source_Path>
/home/csk/Desktop/cluster/DUD-E-result/lck

> <s_m_Source_File>
dock_pv.maegz

> <i_m_Source_File_Index>
275

> <chembl_id>
CHEMBL211003

> <chembl_pref_name>
None

> <i_lp_mmshare_version>
53161

> <i_f3d_flags>
0

> <r_lp_tautomer_probability>
0.999978000241998

> <s_lp_Force_Field>
OPLS_2005

> <r_lp_Energy>
27.980968

> <b_lp_Chiralities_Consistent>
1

> <s_lp_Variant>
CHEMBL258_lig633-1

> <s_i_glide_gridfile>
glide-grid_2of2

> <i_i_glide_lignum>
713

> <i_i_glide_rotatable_bonds>
8

> <r_i_docking_score>
-6.90227455256033

> <r_i_glide_ligand_efficiency>
-0.230075818418678

> <r_i_glide_ligand_efficiency_sa>
-0.714899061013949

> <r_i_glide_ligand_efficiency_ln>
-1.56827198464651

> <r_i_glide_gscore>
-6.90227455256033

> <r_i_glide_lipo>
-2.68864387696147

> <r_i_glide_hbond>
-0.16

> <r_i_glide_metal>
0

> <r_i_glide_rewards>
-1.77084211475141

> <r_i_glide_evdw>
-39.474681854248

> <r_i_glide_ecoul>
-5.80871963500977

> <r_i_glide_erotb>
0.63991316289307

> <r_i_glide_esite>
-0.0776596857766554

> <r_i_glide_emodel>
-62.5132232531711

> <r_i_glide_energy>
-45.2834014892578

> <r_i_glide_einternal>
5.19470882415771

> <i_i_glide_confnum>
38

> <i_i_glide_posenum>
51

> <r_i_glide_eff_state_penalty>
0

> <s_user_duplicate_titles>
CHEMBL258_lig633

> <s_m_subgroup_title>
dock_pv

> <s_m_subgroupid>
dock_pv

> <b_m_subgroup_collapsed>
1

$$$$
CHEMBL258_lig216
                    3D
 Schrodinger Suite 2021-1.
 41 44  0  0  1  0            999 V2000
   24.4302   38.2455   84.9886 C   0  0  0  0  0  0
   25.6373   38.8842   85.2197 N   0  3  0  0  0  0
   24.4145   37.1533   84.0864 C   0  0  0  0  0  0
   25.6220   36.8008   83.4692 N   0  0  0  0  0  0
   26.8319   38.5164   84.5981 C   0  0  0  0  0  0
   23.2379   38.7303   85.6483 N   0  0  0  0  0  0
   26.7973   37.4268   83.6839 C   0  0  0  0  0  0
   24.0650   35.4209   82.6657 N   0  0  0  0  0  0
   21.8674   38.3601   85.4561 C   0  0  0  0  0  0
   25.3387   35.7365   82.6413 C   0  0  0  0  0  0
   23.4887   36.2210   83.5336 C   0  0  0  0  0  0
   25.7083   39.9624   86.1115 N   0  0  0  0  0  0
   20.9894   39.3332   84.9244 C   0  0  0  0  0  0
   21.3307   37.1380   85.9351 C   0  0  0  0  0  0
   28.0799   39.1754   84.8300 C   0  0  0  0  0  0
   27.9954   37.0212   83.0268 C   0  0  0  0  0  0
   19.1053   37.8488   85.2848 C   0  0  0  0  0  0
   19.9593   36.8917   85.8166 C   0  0  0  0  0  0
   19.6206   39.0648   84.8557 C   0  0  0  0  0  0
   22.1500   36.0615   86.6356 C   0  0  0  0  0  0
   21.4659   40.6952   84.4077 C   0  0  0  0  0  0
   29.2322   38.7533   84.1740 C   0  0  0  0  0  0
   29.1913   37.6854   83.2871 C   0  0  0  0  0  0
   23.3553   39.6439   86.0588 H   0  0  0  0  0  0
   26.0882   35.2549   82.0341 H   0  0  0  0  0  0
   22.4270   36.1380   83.7152 H   0  0  0  0  0  0
   25.3744   40.8266   85.7072 H   0  0  0  0  0  0
   25.4283   39.7164   87.0505 H   0  0  0  0  0  0
   28.1472   40.0027   85.5206 H   0  0  0  0  0  0
   28.0032   36.1972   82.3281 H   0  0  0  0  0  0
   18.0416   37.6603   85.2264 H   0  0  0  0  0  0
   19.5450   35.9581   86.1686 H   0  0  0  0  0  0
   18.9477   39.8189   84.4865 H   0  0  0  0  0  0
   23.1781   36.0183   86.2855 H   0  0  0  0  0  0
   22.1490   36.2433   87.7094 H   0  0  0  0  0  0
   21.7314   35.0693   86.4559 H   0  0  0  0  0  0
   22.3057   40.5714   83.7228 H   0  0  0  0  0  0
   20.6916   41.2288   83.8547 H   0  0  0  0  0  0
   21.7953   41.3277   85.2323 H   0  0  0  0  0  0
   30.1694   39.2563   84.3652 H   0  0  0  0  0  0
   30.0985   37.3691   82.7925 H   0  0  0  0  0  0
  1  2  2  0  0  0
  1  3  1  0  0  0
  1  6  1  0  0  0
  2  5  1  0  0  0
  2 12  1  0  0  0
  3  4  1  0  0  0
  3 11  2  0  0  0
  4  7  1  0  0  0
  4 10  1  0  0  0
  5 15  2  0  0  0
  5  7  1  0  0  0
  6  9  1  0  0  0
  6 24  1  0  0  0
  7 16  2  0  0  0
  8 11  1  0  0  0
  8 10  2  0  0  0
  9 13  1  0  0  0
  9 14  2  0  0  0
 10 25  1  0  0  0
 11 26  1  0  0  0
 12 27  1  0  0  0
 12 28  1  0  0  0
 13 19  2  0  0  0
 13 21  1  0  0  0
 14 18  1  0  0  0
 14 20  1  0  0  0
 15 22  1  0  0  0
 15 29  1  0  0  0
 16 23  1  0  0  0
 16 30  1  0  0  0
 17 18  2  0  0  0
 17 19  1  0  0  0
 17 31  1  0  0  0
 18 32  1  0  0  0
 19 33  1  0  0  0
 20 34  1  0  0  0
 20 35  1  0  0  0
 20 36  1  0  0  0
 21 37  1  0  0  0
 21 38  1  0  0  0
 21 39  1  0  0  0
 22 23  2  0  0  0
 22 40  1  0  0  0
 23 41  1  0  0  0
M  CHG  1   2   1
M  END
> <s_m_entry_id>
4788

> <s_m_entry_name>
dock_pv.276

> <s_m_Source_Path>
/home/csk/Desktop/cluster/DUD-E-result/lck

> <s_m_Source_File>
dock_pv.maegz

> <i_m_Source_File_Index>
276

> <chembl_id>
CHEMBL85909

> <chembl_pref_name>
None

> <i_lp_mmshare_version>
53161

> <i_f3d_flags>
0

> <r_lp_tautomer_probability>
1

> <s_lp_Force_Field>
OPLS_2005

> <r_lp_Energy>
68.038063

> <b_lp_Chiralities_Consistent>
1

> <s_lp_Variant>
CHEMBL258_lig216-1

> <s_i_glide_gridfile>
glide-grid_2of2

> <i_i_glide_lignum>
244

> <i_i_glide_rotatable_bonds>
2

> <r_i_docking_score>
-6.8955797030398

> <r_i_glide_ligand_efficiency>
-0.299807813175643

> <r_i_glide_ligand_efficiency_sa>
-0.852613539300598

> <r_i_glide_ligand_efficiency_ln>
-1.66741369785486

> <r_i_glide_gscore>
-6.8955797030398

> <r_i_glide_lipo>
-2.9048053822002

> <r_i_glide_hbond>
0

> <r_i_glide_metal>
0

> <r_i_glide_rewards>
-2.39692349425138

> <r_i_glide_evdw>
-34.8268127441406

> <r_i_glide_ecoul>
-1.67089092731476

> <r_i_glide_erotb>
0.398123449716024

> <r_i_glide_esite>
0

> <r_i_glide_emodel>
-51.1621739123044

> <r_i_glide_energy>
-36.4977036714554

> <r_i_glide_einternal>
4.31465244293213

> <i_i_glide_confnum>
6

> <i_i_glide_posenum>
316

> <r_i_glide_eff_state_penalty>
0

> <s_user_duplicate_titles>
CHEMBL258_lig216,137350

> <s_m_subgroup_title>
dock_pv

> <s_m_subgroupid>
dock_pv

> <b_m_subgroup_collapsed>
1

$$$$
CHEMBL258_lig547
                    3D
 Schrodinger Suite 2021-1.
 43 46  0  0  1  0            999 V2000
   25.9763   37.7803   83.9458 C   0  0  0  0  0  0
   22.3816   37.2299   84.4481 C   0  0  0  0  0  0
   24.5607   37.6453   84.2212 C   0  0  0  0  0  0
   26.7555   37.0205   82.9987 C   0  0  0  0  0  0
   23.5467   36.7457   83.8656 N   0  0  0  0  0  0
   22.5710   38.2829   85.1976 N   0  0  0  0  0  0
   26.6957   38.7837   84.6867 C   0  0  0  0  0  0
   28.0952   37.1219   82.9140 N   0  0  0  0  0  0
   21.1608   36.6211   84.2423 N   0  0  0  0  0  0
   23.9045   38.5517   85.0922 C   0  0  0  0  0  0
   28.1183   38.8949   84.5422 C   0  0  0  0  0  0
   28.7688   38.0224   83.6619 C   0  0  0  0  0  0
   20.0096   36.8543   85.0137 C   0  0  0  0  0  0
   25.9741   39.6570   85.5510 C   0  0  0  0  0  0
   26.1478   36.2121   82.0873 O   0  0  0  0  0  0
   24.6040   39.5680   85.7335 C   0  0  0  0  0  0
   19.8972   36.2711   86.2865 C   0  0  0  0  0  0
   18.9395   37.6087   84.5036 C   0  0  0  0  0  0
   23.6114   35.5566   83.0300 C   0  0  0  0  0  0
   30.2921   38.0578   83.4701 C   0  0  0  0  0  0
   18.9499   38.2211   82.8871 Cl  0  0  0  0  0  0
   21.1183   35.1958   86.8871 Cl  0  0  0  0  0  0
   28.8879   39.9381   85.3615 C   0  0  0  0  0  0
   30.8097   37.1994   82.4667 O   0  0  0  0  0  0
   17.7328   37.3120   86.5786 C   0  0  0  0  0  0
   18.7608   36.5077   87.0610 C   0  0  0  0  0  0
   17.8130   37.8430   85.2938 C   0  0  0  0  0  0
   21.0729   35.8174   83.6386 H   0  0  0  0  0  0
   26.4956   40.4345   86.0890 H   0  0  0  0  0  0
   26.8092   35.8762   81.4707 H   0  0  0  0  0  0
   24.0941   40.2583   86.3922 H   0  0  0  0  0  0
   22.7464   34.9165   83.1897 H   0  0  0  0  0  0
   23.6510   35.8206   81.9774 H   0  0  0  0  0  0
   24.5011   35.0132   83.3262 H   0  0  0  0  0  0
   30.5941   39.0724   83.2052 H   0  0  0  0  0  0
   30.7830   37.8208   84.4159 H   0  0  0  0  0  0
   28.6670   39.8248   86.4241 H   0  0  0  0  0  0
   28.6001   40.9453   85.0556 H   0  0  0  0  0  0
   29.9700   39.8647   85.2654 H   0  0  0  0  0  0
   30.4209   36.3279   82.5855 H   0  0  0  0  0  0
   16.8567   37.5010   87.1860 H   0  0  0  0  0  0
   18.6687   36.0537   88.0370 H   0  0  0  0  0  0
   16.9906   38.4351   84.9140 H   0  0  0  0  0  0
  1  3  2  0  0  0
  1  4  1  0  0  0
  1  7  1  0  0  0
  2  5  1  0  0  0
  2  9  1  0  0  0
  2  6  2  0  0  0
  3  5  1  0  0  0
  3 10  1  0  0  0
  4  8  2  0  0  0
  4 15  1  0  0  0
  5 19  1  0  0  0
  6 10  1  0  0  0
  7 11  1  0  0  0
  7 14  2  0  0  0
  8 12  1  0  0  0
  9 13  1  0  0  0
  9 28  1  0  0  0
 10 16  2  0  0  0
 11 12  2  0  0  0
 11 23  1  0  0  0
 12 20  1  0  0  0
 13 17  2  0  0  0
 13 18  1  0  0  0
 14 16  1  0  0  0
 14 29  1  0  0  0
 15 30  1  0  0  0
 16 31  1  0  0  0
 17 22  1  0  0  0
 17 26  1  0  0  0
 18 21  1  0  0  0
 18 27  2  0  0  0
 19 32  1  0  0  0
 19 33  1  0  0  0
 19 34  1  0  0  0
 20 24  1  0  0  0
 20 35  1  0  0  0
 20 36  1  0  0  0
 23 37  1  0  0  0
 23 38  1  0  0  0
 23 39  1  0  0  0
 24 40  1  0  0  0
 25 27  1  0  0  0
 25 26  2  0  0  0
 25 41  1  0  0  0
 26 42  1  0  0  0
 27 43  1  0  0  0
M  END
> <s_m_entry_id>
4789

> <s_m_entry_name>
dock_pv.277

> <s_m_Source_Path>
/home/csk/Desktop/cluster/DUD-E-result/lck

> <s_m_Source_File>
dock_pv.maegz

> <i_m_Source_File_Index>
277

> <chembl_id>
CHEMBL27302

> <chembl_pref_name>
None

> <i_lp_mmshare_version>
53161

> <i_f3d_flags>
0

> <r_lp_tautomer_probability>
1

> <s_lp_Force_Field>
OPLS_2005

> <r_lp_Energy>
29.022267

> <b_lp_Chiralities_Consistent>
1

> <s_lp_Variant>
CHEMBL258_lig547-1

> <s_i_glide_gridfile>
glide-grid_2of2

> <i_i_glide_lignum>
619

> <i_i_glide_rotatable_bonds>
5

> <r_i_docking_score>
-6.8887296700551

> <r_i_glide_ligand_efficiency>
-0.255138135927967

> <r_i_glide_ligand_efficiency_sa>
-0.765414406943006

> <r_i_glide_ligand_efficiency_ln>
-1.60358269760427

> <r_i_glide_gscore>
-6.8887296700551

> <r_i_glide_lipo>
-3.12391051808536

> <r_i_glide_hbond>
-0.283890000864335

> <r_i_glide_metal>
0

> <r_i_glide_rewards>
-1.17465949772339

> <r_i_glide_evdw>
-40.6424598693848

> <r_i_glide_ecoul>
-4.24208164215088

> <r_i_glide_erotb>
0.362165586409857

> <r_i_glide_esite>
0

> <r_i_glide_emodel>
-63.8669451252102

> <r_i_glide_energy>
-44.8845415115356

> <r_i_glide_einternal>
1.4778014421463

> <i_i_glide_confnum>
3

> <i_i_glide_posenum>
88

> <r_i_glide_eff_state_penalty>
0

> <s_user_duplicate_titles>
CHEMBL258_lig547

> <s_m_subgroup_title>
dock_pv

> <s_m_subgroupid>
dock_pv

> <b_m_subgroup_collapsed>
1

$$$$
CHEMBL258_lig810
                    3D
 Schrodinger Suite 2021-1.
 42 45  0  0  1  0            999 V2000
   25.5319   41.8948   85.2109 N   0  0  0  0  0  0
   24.7124   42.8208   85.7718 C   0  0  0  0  0  0
   23.3974   42.5307   86.1405 C   0  0  0  0  0  0
   22.9408   41.2328   85.9029 C   0  0  0  0  0  0
   23.7380   40.2867   85.3347 N   0  0  0  0  0  0
   25.0087   40.6509   85.0126 C   0  0  0  0  0  0
   25.8368   39.6871   84.3716 N   0  0  0  0  0  0
   27.1209   39.9056   83.8974 C   0  0  0  0  0  0
   27.6724   38.8931   83.2871 N   0  0  0  0  0  0
   25.5602   38.3599   84.0385 C   0  0  0  0  0  0
   26.7205   37.9168   83.3425 C   0  0  0  0  0  0
   26.7754   36.6207   82.8106 C   0  0  0  0  0  0
   25.6747   35.7857   82.9965 C   0  0  0  0  0  0
   24.5491   36.2208   83.6942 C   0  0  0  0  0  0
   24.4607   37.5068   84.2318 C   0  0  0  0  0  0
   21.6171   40.9168   86.2304 N   0  0  0  0  0  0
   20.9124   39.7435   85.9247 C   0  0  0  0  0  0
   19.9376   39.8309   84.9377 C   0  0  0  0  0  0
   19.1774   38.7287   84.5663 C   0  0  0  0  0  0
   19.4098   37.5024   85.2042 C   0  0  0  0  0  0
   20.3773   37.3971   86.1997 C   0  0  0  0  0  0
   21.1295   38.5147   86.5722 C   0  0  0  0  0  0
   18.2405   38.9411   83.5790 O   0  0  0  0  0  0
   22.1496   38.3714   87.6827 C   0  0  0  0  0  0
   17.3504   37.8865   83.2625 C   0  0  0  0  0  0
   25.1245   43.8105   85.9115 H   0  0  0  0  0  0
   22.7574   43.2878   86.5704 H   0  0  0  0  0  0
   27.5896   40.8704   84.0309 H   0  0  0  0  0  0
   27.6461   36.2766   82.2697 H   0  0  0  0  0  0
   25.6951   34.7821   82.5967 H   0  0  0  0  0  0
   23.7130   35.5464   83.8106 H   0  0  0  0  0  0
   23.5681   37.8184   84.7530 H   0  0  0  0  0  0
   21.0461   41.7132   86.4754 H   0  0  0  0  0  0
   19.7642   40.7755   84.4465 H   0  0  0  0  0  0
   18.8487   36.6223   84.9414 H   0  0  0  0  0  0
   20.5338   36.4418   86.6806 H   0  0  0  0  0  0
   23.1410   38.5866   87.2866 H   0  0  0  0  0  0
   21.9419   39.0894   88.4765 H   0  0  0  0  0  0
   22.1528   37.3694   88.1123 H   0  0  0  0  0  0
   16.6659   38.2209   82.4878 H   0  0  0  0  0  0
   16.7599   37.6141   84.1379 H   0  0  0  0  0  0
   17.8757   37.0078   82.8873 H   0  0  0  0  0  0
  1  6  1  0  0  0
  1  2  2  0  0  0
  2  3  1  0  0  0
  2 26  1  0  0  0
  3  4  2  0  0  0
  3 27  1  0  0  0
  4 16  1  0  0  0
  4  5  1  0  0  0
  5  6  2  0  0  0
  6  7  1  0  0  0
  7  8  1  0  0  0
  7 10  1  0  0  0
  8  9  2  0  0  0
  8 28  1  0  0  0
  9 11  1  0  0  0
 10 15  1  0  0  0
 10 11  2  0  0  0
 11 12  1  0  0  0
 12 13  2  0  0  0
 12 29  1  0  0  0
 13 14  1  0  0  0
 13 30  1  0  0  0
 14 15  2  0  0  0
 14 31  1  0  0  0
 15 32  1  0  0  0
 16 17  1  0  0  0
 16 33  1  0  0  0
 17 18  2  0  0  0
 17 22  1  0  0  0
 18 19  1  0  0  0
 18 34  1  0  0  0
 19 20  2  0  0  0
 19 23  1  0  0  0
 20 21  1  0  0  0
 20 35  1  0  0  0
 21 22  2  0  0  0
 21 36  1  0  0  0
 22 24  1  0  0  0
 23 25  1  0  0  0
 24 37  1  0  0  0
 24 38  1  0  0  0
 24 39  1  0  0  0
 25 40  1  0  0  0
 25 41  1  0  0  0
 25 42  1  0  0  0
M  END
> <s_m_entry_id>
4790

> <s_m_entry_name>
dock_pv.278

> <s_m_Source_Path>
/home/csk/Desktop/cluster/DUD-E-result/lck

> <s_m_Source_File>
dock_pv.maegz

> <i_m_Source_File_Index>
278

> <chembl_id>
CHEMBL374009

> <chembl_pref_name>
None

> <i_lp_mmshare_version>
53161

> <i_f3d_flags>
0

> <r_lp_tautomer_probability>
1

> <s_lp_Force_Field>
OPLS_2005

> <r_lp_Energy>
14.639202

> <b_lp_Chiralities_Consistent>
1

> <s_lp_Variant>
CHEMBL258_lig810-1

> <s_i_glide_gridfile>
glide-grid_2of2

> <i_i_glide_lignum>
895

> <i_i_glide_rotatable_bonds>
4

> <r_i_docking_score>
-6.88544688654055

> <r_i_glide_ligand_efficiency>
-0.275417875461622

> <r_i_glide_ligand_efficiency_sa>
-0.805326752406602

> <r_i_glide_ligand_efficiency_ln>
-1.63205725230267

> <r_i_glide_gscore>
-6.88544688654055

> <r_i_glide_lipo>
-2.95781958779096

> <r_i_glide_hbond>
-0.32

> <r_i_glide_metal>
0

> <r_i_glide_rewards>
-1.68593148369232

> <r_i_glide_evdw>
-36.1915435791016

> <r_i_glide_ecoul>
-4.10865783691406

> <r_i_glide_erotb>
0.514187457045719

> <r_i_glide_esite>
-0.0100074176107949

> <r_i_glide_emodel>
-53.9039565660738

> <r_i_glide_energy>
-40.3002014160156

> <r_i_glide_einternal>
5.41807985305786

> <i_i_glide_confnum>
3

> <i_i_glide_posenum>
399

> <r_i_glide_eff_state_penalty>
0

> <s_user_duplicate_titles>
CHEMBL258_lig810

> <s_m_subgroup_title>
dock_pv

> <s_m_subgroupid>
dock_pv

> <b_m_subgroup_collapsed>
1

$$$$
CHEMBL258_lig123
                    3D
 Schrodinger Suite 2021-1.
 29 31  0  0  1  0            999 V2000
   24.0987   36.7777   83.7273 C   0  0  0  0  0  0
   24.9591   35.9423   82.8871 C   0  0  0  0  0  0
   24.9450   37.8306   84.3108 C   0  0  0  0  0  0
   26.3256   36.4494   83.0373 C   0  0  0  0  0  0
   26.3182   37.5523   83.8718 C   0  0  0  0  0  0
   22.7580   36.5821   83.8532 C   0  0  0  0  0  0
   19.8195   38.7450   86.1223 C   0  0  0  0  0  0
   19.5405   38.3097   84.8217 C   0  0  0  0  0  0
   21.0564   38.4407   86.6997 C   0  0  0  0  0  0
   21.7585   37.3150   84.6652 C   0  0  0  0  0  0
   20.5108   37.6079   84.1024 C   0  0  0  0  0  0
   22.0072   37.7156   85.9824 C   0  0  0  0  0  0
   24.5605   38.7583   85.0190 O   0  0  0  0  0  0
   24.5654   35.0210   82.1765 O   0  0  0  0  0  0
   17.8518   38.6543   84.0031 Br  0  0  0  0  0  0
   21.4807   39.0211   88.4630 Br  0  0  0  0  0  0
   18.9005   39.4713   86.8385 O   0  0  0  0  0  0
   27.5076   38.2212   84.1747 C   0  0  0  0  0  0
   27.5226   35.9824   82.4871 C   0  0  0  0  0  0
   28.7203   36.6216   82.8168 C   0  0  0  0  0  0
   28.7119   37.7456   83.6500 C   0  0  0  0  0  0
   22.3265   35.7534   83.3041 H   0  0  0  0  0  0
   20.2892   37.2996   83.0924 H   0  0  0  0  0  0
   22.9493   37.4796   86.4558 H   0  0  0  0  0  0
   18.0008   39.4627   86.4867 H   0  0  0  0  0  0
   27.5143   39.0877   84.8212 H   0  0  0  0  0  0
   27.5450   35.1197   81.8358 H   0  0  0  0  0  0
   29.6528   36.2553   82.4111 H   0  0  0  0  0  0
   29.6395   38.2443   83.8915 H   0  0  0  0  0  0
  1  2  1  0  0  0
  1  3  1  0  0  0
  1  6  2  0  0  0
  2  4  1  0  0  0
  2 14  2  0  0  0
  3  5  1  0  0  0
  3 13  2  0  0  0
  4 19  2  0  0  0
  4  5  1  0  0  0
  5 18  2  0  0  0
  6 10  1  0  0  0
  6 22  1  0  0  0
  7  9  1  0  0  0
  7 17  1  0  0  0
  7  8  2  0  0  0
  8 11  1  0  0  0
  8 15  1  0  0  0
  9 12  2  0  0  0
  9 16  1  0  0  0
 10 11  2  0  0  0
 10 12  1  0  0  0
 11 23  1  0  0  0
 12 24  1  0  0  0
 17 25  1  0  0  0
 18 21  1  0  0  0
 18 26  1  0  0  0
 19 20  1  0  0  0
 19 27  1  0  0  0
 20 21  2  0  0  0
 20 28  1  0  0  0
 21 29  1  0  0  0
M  END
> <s_m_entry_id>
4791

> <s_m_entry_name>
dock_pv.279

> <s_m_Source_Path>
/home/csk/Desktop/cluster/DUD-E-result/lck

> <s_m_Source_File>
dock_pv.maegz

> <i_m_Source_File_Index>
279

> <chembl_id>
CHEMBL82404

> <chembl_pref_name>
None

> <i_lp_mmshare_version>
53161

> <i_f3d_flags>
0

> <r_lp_tautomer_probability>
1

> <s_lp_Force_Field>
OPLS_2005

> <r_lp_Energy>
29.833518

> <b_lp_Chiralities_Consistent>
1

> <s_lp_Variant>
CHEMBL258_lig123-1

> <s_i_glide_gridfile>
glide-grid_2of2

> <i_i_glide_lignum>
144

> <i_i_glide_rotatable_bonds>
2

> <r_i_docking_score>
-6.8805889804197

> <r_i_glide_ligand_efficiency>
-0.3276470943057

> <r_i_glide_ligand_efficiency_sa>
-0.903953488883652

> <r_i_glide_ligand_efficiency_ln>
-1.7012117218696

> <r_i_glide_gscore>
-6.8805889804197

> <r_i_glide_lipo>
-2.84833145824694

> <r_i_glide_hbond>
-0.282268595482283

> <r_i_glide_metal>
0

> <r_i_glide_rewards>
-1.38658110427818

> <r_i_glide_evdw>
-33.7661552429199

> <r_i_glide_ecoul>
-5.28856945037842

> <r_i_glide_erotb>
0.118185357290458

> <r_i_glide_esite>
0

> <r_i_glide_emodel>
-55.6835015767151

> <r_i_glide_energy>
-39.0547246932983

> <r_i_glide_einternal>
1.02061116695404

> <i_i_glide_confnum>
4

> <i_i_glide_posenum>
1

> <r_i_glide_eff_state_penalty>
0

> <s_user_duplicate_titles>
CHEMBL258_lig123,132651

> <s_m_subgroup_title>
dock_pv

> <s_m_subgroupid>
dock_pv

> <b_m_subgroup_collapsed>
1

$$$$
CHEMBL258_lig545
                    3D
 Schrodinger Suite 2021-1.
 64 68  0  0  1  0            999 V2000
   22.2491   37.0773   84.4887 C   0  0  0  0  0  0
   25.8127   37.0819   83.6674 C   0  0  0  0  0  0
   22.6711   38.0222   85.2813 N   0  0  0  0  0  0
   24.4246   37.1773   84.0542 C   0  0  0  0  0  0
   26.4024   36.0511   82.8536 C   0  0  0  0  0  0
   23.9937   38.1744   84.9671 C   0  0  0  0  0  0
   23.2335   36.5439   83.6732 N   0  0  0  0  0  0
   26.7081   38.0917   84.1610 C   0  0  0  0  0  0
   27.6999   36.0600   82.4869 N   0  0  0  0  0  0
   20.9587   36.6210   84.4074 N   0  0  0  0  0  0
   28.0941   38.0501   83.7857 C   0  0  0  0  0  0
   28.5245   37.0210   82.9412 C   0  0  0  0  0  0
   19.9101   36.8583   85.3012 C   0  0  0  0  0  0
   24.8717   39.1554   85.4455 C   0  0  0  0  0  0
   26.1982   39.1036   85.0224 C   0  0  0  0  0  0
   25.6381   34.9802   82.5163 O   0  0  0  0  0  0
   18.8700   37.7194   84.9321 C   0  0  0  0  0  0
   19.8052   36.1088   86.4869 C   0  0  0  0  0  0
   23.5618   41.2337   85.7896 N   0  0  1  0  0  0
   22.9504   35.5957   82.5786 C   0  0  0  0  0  0
   24.4506   40.2533   86.4163 C   0  0  0  0  0  0
   21.0285   34.9639   86.9285 Cl  0  0  0  0  0  0
   18.8951   38.6204   83.4538 Cl  0  0  0  0  0  0
   22.8298   42.7859   90.5691 C   0  0  0  0  0  0
   29.0607   39.1101   84.3225 C   0  0  0  0  0  0
   22.4640   41.9295   87.9254 C   0  0  0  0  0  0
   29.9661   36.8835   82.4670 C   0  0  0  0  0  0
   22.8992   43.6961   89.5124 C   0  0  0  0  0  0
   22.5511   41.4395   90.2912 C   0  0  0  0  0  0
   22.7176   43.2753   88.1955 C   0  0  0  0  0  0
   22.3577   41.0210   88.9779 C   0  0  0  0  0  0
   23.0439   43.2877   91.8397 O   0  0  0  0  0  0
   22.2923   41.4453   86.4881 C   0  0  0  0  0  0
   17.6360   37.0819   86.9153 C   0  0  0  0  0  0
   18.6639   36.2211   87.2868 C   0  0  0  0  0  0
   17.7481   37.8216   85.7422 C   0  0  0  0  0  0
   23.0400   42.3951   92.9504 C   0  0  0  0  0  0
   20.7430   35.8460   83.7983 H   0  0  0  0  0  0
   26.8690   39.8648   85.3905 H   0  0  0  0  0  0
   24.7758   35.0749   82.9241 H   0  0  0  0  0  0
   24.0224   42.1222   85.6480 H   0  0  0  0  0  0
   21.9122   35.6726   82.2580 H   0  0  0  0  0  0
   23.5356   35.8208   81.6908 H   0  0  0  0  0  0
   23.1219   34.5746   82.8870 H   0  0  0  0  0  0
   25.3218   40.7735   86.8161 H   0  0  0  0  0  0
   23.9767   39.7624   87.2646 H   0  0  0  0  0  0
   30.0956   38.9523   84.0235 H   0  0  0  0  0  0
   28.7681   40.1002   83.9729 H   0  0  0  0  0  0
   29.0500   39.1171   85.4128 H   0  0  0  0  0  0
   30.3309   37.8210   82.0578 H   0  0  0  0  0  0
   30.6302   36.6210   83.2868 H   0  0  0  0  0  0
   30.0755   36.1245   81.6893 H   0  0  0  0  0  0
   23.0999   44.7375   89.7154 H   0  0  0  0  0  0
   22.4860   40.7056   91.0790 H   0  0  0  0  0  0
   22.7736   43.9924   87.3887 H   0  0  0  0  0  0
   22.1500   39.9803   88.7751 H   0  0  0  0  0  0
   21.6900   40.5356   86.4483 H   0  0  0  0  0  0
   21.7264   42.2009   85.9404 H   0  0  0  0  0  0
   16.7476   37.1703   87.5244 H   0  0  0  0  0  0
   18.5514   35.6148   88.1728 H   0  0  0  0  0  0
   16.9488   38.4771   85.4376 H   0  0  0  0  0  0
   23.2459   42.9540   93.8633 H   0  0  0  0  0  0
   23.8109   41.6283   92.8525 H   0  0  0  0  0  0
   22.0691   41.9126   93.0731 H   0  0  0  0  0  0
  1  3  2  0  0  0
  1  7  1  0  0  0
  1 10  1  0  0  0
  2  4  2  0  0  0
  2  5  1  0  0  0
  2  8  1  0  0  0
  3  6  1  0  0  0
  4  7  1  0  0  0
  4  6  1  0  0  0
  5  9  2  0  0  0
  5 16  1  0  0  0
  6 14  2  0  0  0
  7 20  1  0  0  0
  8 11  1  0  0  0
  8 15  2  0  0  0
  9 12  1  0  0  0
 10 13  1  0  0  0
 10 38  1  0  0  0
 11 12  2  0  0  0
 11 25  1  0  0  0
 12 27  1  0  0  0
 13 17  2  0  0  0
 13 18  1  0  0  0
 14 15  1  0  0  0
 14 21  1  0  0  0
 15 39  1  0  0  0
 16 40  1  0  0  0
 17 23  1  0  0  0
 17 36  1  0  0  0
 18 22  1  0  0  0
 18 35  2  0  0  0
 19 21  1  0  0  0
 19 33  1  0  0  0
 19 41  1  0  0  0
 20 42  1  0  0  0
 20 43  1  0  0  0
 20 44  1  0  0  0
 21 45  1  0  0  0
 21 46  1  0  0  0
 24 29  1  0  0  0
 24 32  1  0  0  0
 24 28  2  0  0  0
 25 47  1  0  0  0
 25 48  1  0  0  0
 25 49  1  0  0  0
 26 33  1  0  0  0
 26 30  2  0  0  0
 26 31  1  0  0  0
 27 50  1  0  0  0
 27 51  1  0  0  0
 27 52  1  0  0  0
 28 30  1  0  0  0
 28 53  1  0  0  0
 29 31  2  0  0  0
 29 54  1  0  0  0
 30 55  1  0  0  0
 31 56  1  0  0  0
 32 37  1  0  0  0
 33 57  1  0  0  0
 33 58  1  0  0  0
 34 35  1  0  0  0
 34 36  2  0  0  0
 34 59  1  0  0  0
 35 60  1  0  0  0
 36 61  1  0  0  0
 37 62  1  0  0  0
 37 63  1  0  0  0
 37 64  1  0  0  0
M  END
> <s_m_entry_id>
4792

> <s_m_entry_name>
dock_pv.280

> <s_m_Source_Path>
/home/csk/Desktop/cluster/DUD-E-result/lck

> <s_m_Source_File>
dock_pv.maegz

> <i_m_Source_File_Index>
280

> <chembl_id>
CHEMBL280565

> <chembl_pref_name>
None

> <i_lp_mmshare_version>
53161

> <i_f3d_flags>
0

> <r_lp_tautomer_probability>
1

> <s_lp_Force_Field>
OPLS_2005

> <r_lp_Energy>
41.297116

> <b_lp_Chiralities_Consistent>
1

> <s_lp_Variant>
CHEMBL258_lig545-1

> <s_i_glide_gridfile>
glide-grid_2of2

> <i_i_glide_lignum>
617

> <i_i_glide_rotatable_bonds>
8

> <r_i_docking_score>
-6.8716099099552

> <r_i_glide_ligand_efficiency>
-0.185719186755546

> <r_i_glide_ligand_efficiency_sa>
-0.618857531631864

> <r_i_glide_ligand_efficiency_ln>
-1.49029109607691

> <r_i_glide_gscore>
-6.8716099099552

> <r_i_glide_lipo>
-3.5192106871054

> <r_i_glide_hbond>
-0.254080790097449

> <r_i_glide_metal>
0

> <r_i_glide_rewards>
-0.540140210499311

> <r_i_glide_evdw>
-49.6073608398438

> <r_i_glide_ecoul>
-3.38905262947083

> <r_i_glide_erotb>
0.430547714159771

> <r_i_glide_esite>
0

> <r_i_glide_emodel>
-68.888554583947

> <r_i_glide_energy>
-52.9964134693146

> <r_i_glide_einternal>
8.9060230255127

> <i_i_glide_confnum>
1

> <i_i_glide_posenum>
18

> <r_i_glide_eff_state_penalty>
0

> <s_user_duplicate_titles>
CHEMBL258_lig545,37478

> <s_m_subgroup_title>
dock_pv

> <s_m_subgroupid>
dock_pv

> <b_m_subgroup_collapsed>
1

$$$$
CHEMBL258_lig366
                    3D
 Schrodinger Suite 2021-1.
 50 53  0  0  1  0            999 V2000
   23.2714   39.7316   84.9242 N   0  0  0  0  0  0
   22.0954   38.9530   85.0148 C   0  0  0  0  0  0
   22.1967   37.5977   84.6443 C   0  0  0  0  0  0
   24.5012   37.7958   84.2434 C   0  0  0  0  0  0
   23.3714   37.0386   84.2861 N   0  0  0  0  0  0
   24.4746   39.1878   84.5607 C   0  0  0  0  0  0
   22.8644   41.0334   85.2577 C   0  0  0  0  0  0
   21.5920   41.0528   85.6018 N   0  0  0  0  0  0
   21.1071   39.8509   85.4732 C   0  0  0  0  0  0
   21.1016   36.7291   84.5865 N   0  0  0  0  0  0
   25.7238   37.1753   83.8529 C   0  0  0  0  0  0
   19.9006   36.8209   85.3083 C   0  0  0  0  0  0
   25.6907   39.9167   84.4878 C   0  0  0  0  0  0
   26.9043   37.9264   83.7852 C   0  0  0  0  0  0
   18.8041   37.5614   84.8332 C   0  0  0  0  0  0
   23.6885   42.3285   85.2164 C   0  0  1  0  0  0
   19.7732   36.0950   86.5074 C   0  0  0  0  0  0
   26.8695   39.2881   84.1042 C   0  0  0  0  0  0
   25.7495   35.8235   83.5830 O   0  0  0  0  0  0
   18.8262   38.3426   83.2864 Cl  0  0  0  0  0  0
   28.0576   37.2719   83.3861 O   0  0  0  0  0  0
   24.0366   42.6199   83.8758 O   0  0  0  0  0  0
   17.5607   37.0212   86.8414 C   0  0  0  0  0  0
   17.6527   37.6703   85.6121 C   0  0  0  0  0  0
   18.6111   36.2210   87.2802 C   0  0  0  0  0  0
   20.8577   35.1118   86.9431 C   0  0  0  0  0  0
   22.9582   43.5738   85.7620 C   0  0  0  0  0  0
   25.7147   35.4999   82.2025 C   0  0  0  0  0  0
   29.3181   37.9187   83.5230 C   0  0  0  0  0  0
   20.0700   39.6674   85.6993 H   0  0  0  0  0  0
   21.3693   35.7879   84.3476 H   0  0  0  0  0  0
   25.7511   40.9652   84.7046 H   0  0  0  0  0  0
   24.5884   42.2317   85.8228 H   0  0  0  0  0  0
   27.7620   39.8920   84.0539 H   0  0  0  0  0  0
   24.0732   43.5784   83.7555 H   0  0  0  0  0  0
   16.6573   37.1118   87.4277 H   0  0  0  0  0  0
   16.8131   38.2503   85.2587 H   0  0  0  0  0  0
   18.5021   35.6667   88.2005 H   0  0  0  0  0  0
   20.4929   34.4015   87.6867 H   0  0  0  0  0  0
   21.1900   34.5127   86.0962 H   0  0  0  0  0  0
   21.7329   35.6381   87.3262 H   0  0  0  0  0  0
   22.6814   43.4423   86.8082 H   0  0  0  0  0  0
   22.0392   43.7851   85.2144 H   0  0  0  0  0  0
   23.5814   44.4665   85.7030 H   0  0  0  0  0  0
   25.7879   34.4189   82.0875 H   0  0  0  0  0  0
   24.7816   35.8209   81.7381 H   0  0  0  0  0  0
   26.5479   35.9492   81.6621 H   0  0  0  0  0  0
   30.1094   37.2320   83.2238 H   0  0  0  0  0  0
   29.3903   38.7989   82.8862 H   0  0  0  0  0  0
   29.5092   38.2156   84.5553 H   0  0  0  0  0  0
  1  2  1  0  0  0
  1  6  1  0  0  0
  1  7  1  0  0  0
  2  3  1  0  0  0
  2  9  2  0  0  0
  3 10  1  0  0  0
  3  5  2  0  0  0
  4  6  1  0  0  0
  4  5  1  0  0  0
  4 11  2  0  0  0
  6 13  2  0  0  0
  7  8  2  0  0  0
  7 16  1  0  0  0
  8  9  1  0  0  0
  9 30  1  0  0  0
 10 12  1  0  0  0
 10 31  1  0  0  0
 11 19  1  0  0  0
 11 14  1  0  0  0
 12 15  1  0  0  0
 12 17  2  0  0  0
 13 18  1  0  0  0
 13 32  1  0  0  0
 14 18  2  0  0  0
 14 21  1  0  0  0
 15 20  1  0  0  0
 15 24  2  0  0  0
 16 22  1  0  0  0
 16 27  1  0  0  0
 16 33  1  0  0  0
 17 25  1  0  0  0
 17 26  1  0  0  0
 18 34  1  0  0  0
 19 28  1  0  0  0
 21 29  1  0  0  0
 22 35  1  0  0  0
 23 25  2  0  0  0
 23 24  1  0  0  0
 23 36  1  0  0  0
 24 37  1  0  0  0
 25 38  1  0  0  0
 26 39  1  0  0  0
 26 40  1  0  0  0
 26 41  1  0  0  0
 27 42  1  0  0  0
 27 43  1  0  0  0
 27 44  1  0  0  0
 28 45  1  0  0  0
 28 46  1  0  0  0
 28 47  1  0  0  0
 29 48  1  0  0  0
 29 49  1  0  0  0
 29 50  1  0  0  0
M  END
> <s_m_entry_id>
4793

> <s_m_entry_name>
dock_pv.281

> <s_m_Source_Path>
/home/csk/Desktop/cluster/DUD-E-result/lck

> <s_m_Source_File>
dock_pv.maegz

> <i_m_Source_File_Index>
281

> <chembl_id>
CHEMBL282741

> <chembl_pref_name>
None

> <i_lp_mmshare_version>
53161

> <i_f3d_flags>
0

> <r_lp_tautomer_probability>
1

> <s_lp_Force_Field>
OPLS_2005

> <r_lp_Energy>
76.493435

> <b_lp_Chiralities_Consistent>
1

> <s_lp_Variant>
CHEMBL258_lig366-2

> <s_i_glide_gridfile>
glide-grid_2of2

> <i_i_glide_lignum>
407

> <i_i_glide_rotatable_bonds>
6

> <r_i_docking_score>
-6.87022592782371

> <r_i_glide_ligand_efficiency>
-0.236904342338749

> <r_i_glide_ligand_efficiency_sa>
-0.727845196228421

> <r_i_glide_ligand_efficiency_ln>
-1.57310752357369

> <r_i_glide_gscore>
-6.87022592782371

> <r_i_glide_lipo>
-3.09298577266297

> <r_i_glide_hbond>
-0.320898570867025

> <r_i_glide_metal>
0

> <r_i_glide_rewards>
-0.803181657555246

> <r_i_glide_evdw>
-43.5042724609375

> <r_i_glide_ecoul>
-5.49297904968262

> <r_i_glide_erotb>
0.347110977541444

> <r_i_glide_esite>
-0.00111042378064077

> <r_i_glide_emodel>
-62.80014373

> <r_i_glide_energy>
-48.9972515106201

> <r_i_glide_einternal>
10.490758895874

> <i_i_glide_confnum>
8

> <i_i_glide_posenum>
250

> <r_i_glide_eff_state_penalty>
0

> <s_user_duplicate_titles>
CHEMBL258_lig366,39509

> <s_m_subgroup_title>
dock_pv

> <s_m_subgroupid>
dock_pv

> <b_m_subgroup_collapsed>
1

$$$$
CHEMBL258_lig102
                    3D
 Schrodinger Suite 2021-1.
 51 55  0  0  1  0            999 V2000
   27.9670   37.5995   83.6426 C   0  0  0  0  0  0
   28.2839   38.7525   84.3436 N   0  0  0  0  0  0
   26.5510   37.3972   83.7092 C   0  0  0  0  0  0
   26.0059   38.4811   84.4926 C   0  0  0  0  0  0
   27.0969   39.2653   84.8298 C   0  0  0  0  0  0
   28.8371   36.7821   83.0328 N   0  0  0  0  0  0
   29.6448   39.2412   84.6515 C   0  0  1  0  0  0
   26.0920   36.2302   83.0521 C   0  0  0  0  0  0
   26.9505   35.3614   82.4839 N   0  0  0  0  0  0
   24.6097   38.7077   84.9663 C   0  0  0  0  0  0
   30.6037   39.2789   83.4336 C   0  0  0  0  0  0
   28.2636   35.6869   82.4870 C   0  0  0  0  0  0
   29.7120   40.6473   85.2842 C   0  0  0  0  0  0
   20.7221   39.2856   86.3187 O   0  0  0  0  0  0
   23.7993   37.6175   85.2870 C   0  0  0  0  0  0
   24.1132   40.0059   85.1298 C   0  0  0  0  0  0
   24.7537   35.8720   82.9478 N   0  0  0  0  0  0
   22.0290   39.1049   85.9375 C   0  0  0  0  0  0
   31.1410   40.7050   83.3213 C   0  0  2  0  0  0
   22.8233   40.2055   85.6191 C   0  0  0  0  0  0
   22.5231   37.8107   85.7877 C   0  0  0  0  0  0
   31.0052   41.2560   84.7448 C   0  0  0  0  0  0
   19.7416   38.7807   85.4897 C   0  0  0  0  0  0
   30.2588   41.4210   82.4870 O   0  0  0  0  0  0
   18.5500   38.3323   86.0556 C   0  0  0  0  0  0
   19.9174   38.7140   84.1005 C   0  0  0  0  0  0
   18.9112   38.2210   83.2867 C   0  0  0  0  0  0
   17.5434   37.8210   85.2406 C   0  0  0  0  0  0
   17.7286   37.7876   83.8606 C   0  0  0  0  0  0
   27.1118   40.1436   85.4575 H   0  0  0  0  0  0
   30.0430   38.5022   85.3462 H   0  0  0  0  0  0
   31.4411   38.6097   83.6368 H   0  0  0  0  0  0
   30.1753   38.9259   82.4965 H   0  0  0  0  0  0
   28.9287   34.9971   81.9858 H   0  0  0  0  0  0
   28.9018   41.2877   84.9328 H   0  0  0  0  0  0
   29.6888   40.6211   86.3747 H   0  0  0  0  0  0
   24.1825   36.6108   85.2451 H   0  0  0  0  0  0
   24.7235   40.8614   84.8793 H   0  0  0  0  0  0
   24.0481   36.5052   83.2943 H   0  0  0  0  0  0
   24.5102   35.0224   82.4645 H   0  0  0  0  0  0
   32.1656   40.7811   82.9540 H   0  0  0  0  0  0
   22.4293   41.2059   85.7259 H   0  0  0  0  0  0
   21.9074   36.9607   86.0437 H   0  0  0  0  0  0
   31.8536   40.9258   85.3465 H   0  0  0  0  0  0
   31.0071   42.3471   84.7813 H   0  0  0  0  0  0
   30.5500   42.3505   82.4860 H   0  0  0  0  0  0
   18.3973   38.3910   87.1223 H   0  0  0  0  0  0
   20.8372   39.0556   83.6516 H   0  0  0  0  0  0
   19.0412   38.1946   82.2148 H   0  0  0  0  0  0
   16.6110   37.4901   85.6753 H   0  0  0  0  0  0
   16.9500   37.4210   83.2146 H   0  0  0  0  0  0
  1  2  1  0  0  0
  1  3  1  0  0  0
  1  6  2  0  0  0
  2  5  1  0  0  0
  2  7  1  0  0  0
  3  4  1  0  0  0
  3  8  2  0  0  0
  4 10  1  0  0  0
  4  5  2  0  0  0
  5 30  1  0  0  0
  6 12  1  0  0  0
  7 11  1  0  0  0
  7 13  1  0  0  0
  7 31  1  0  0  0
  8 17  1  0  0  0
  8  9  1  0  0  0
  9 12  2  0  0  0
 10 15  2  0  0  0
 10 16  1  0  0  0
 11 19  1  0  0  0
 11 32  1  0  0  0
 11 33  1  0  0  0
 12 34  1  0  0  0
 13 22  1  0  0  0
 13 35  1  0  0  0
 13 36  1  0  0  0
 14 18  1  0  0  0
 14 23  1  0  0  0
 15 21  1  0  0  0
 15 37  1  0  0  0
 16 20  2  0  0  0
 16 38  1  0  0  0
 17 39  1  0  0  0
 17 40  1  0  0  0
 18 20  1  0  0  0
 18 21  2  0  0  0
 19 24  1  0  0  0
 19 22  1  0  0  0
 19 41  1  0  0  0
 20 42  1  0  0  0
 21 43  1  0  0  0
 22 44  1  0  0  0
 22 45  1  0  0  0
 23 25  1  0  0  0
 23 26  2  0  0  0
 24 46  1  0  0  0
 25 28  2  0  0  0
 25 47  1  0  0  0
 26 27  1  0  0  0
 26 48  1  0  0  0
 27 29  2  0  0  0
 27 49  1  0  0  0
 28 29  1  0  0  0
 28 50  1  0  0  0
 29 51  1  0  0  0
M  END
> <s_m_entry_id>
4794

> <s_m_entry_name>
dock_pv.282

> <s_m_Source_Path>
/home/csk/Desktop/cluster/DUD-E-result/lck

> <s_m_Source_File>
dock_pv.maegz

> <i_m_Source_File_Index>
282

> <chembl_id>
CHEMBL69129

> <chembl_pref_name>
None

> <i_lp_mmshare_version>
53161

> <i_f3d_flags>
0

> <r_lp_tautomer_probability>
1

> <s_lp_Force_Field>
OPLS_2005

> <r_lp_Energy>
41.177332

> <b_lp_Chiralities_Consistent>
1

> <s_lp_Variant>
CHEMBL258_lig102-4

> <s_i_glide_gridfile>
glide-grid_2of2

> <i_i_glide_lignum>
120

> <i_i_glide_rotatable_bonds>
5

> <r_i_docking_score>
-6.86908074259697

> <r_i_glide_ligand_efficiency>
-0.236864853192999

> <r_i_glide_ligand_efficiency_sa>
-0.727723873061638

> <r_i_glide_ligand_efficiency_ln>
-1.57284530519615

> <r_i_glide_gscore>
-6.86908074259697

> <r_i_glide_lipo>
-2.62275779978992

> <r_i_glide_hbond>
-0.456

> <r_i_glide_metal>
0

> <r_i_glide_rewards>
-1.25320860492941

> <r_i_glide_evdw>
-37.6245765686035

> <r_i_glide_ecoul>
-7.66525459289551

> <r_i_glide_erotb>
0.521316962828087

> <r_i_glide_esite>
-0.0274142833412226

> <r_i_glide_emodel>
-61.4425580658668

> <r_i_glide_energy>
-45.289831161499

> <r_i_glide_einternal>
4.92093372344971

> <i_i_glide_confnum>
77

> <i_i_glide_posenum>
162

> <r_i_glide_eff_state_penalty>
0

> <s_user_duplicate_titles>
CHEMBL258_lig102,107756

> <s_m_subgroup_title>
dock_pv

> <s_m_subgroupid>
dock_pv

> <b_m_subgroup_collapsed>
1

$$$$
CHEMBL258_lig239
                    3D
 Schrodinger Suite 2021-1.
 49 52  0  0  1  0            999 V2000
   23.4812   36.4585   83.7112 C   0  0  0  0  0  0
   22.4339   37.0753   84.4173 C   0  0  0  0  0  0
   24.7609   36.9727   83.9368 N   0  0  0  0  0  0
   22.6464   38.1383   85.2383 N   0  0  0  0  0  0
   23.9073   38.6224   85.3949 C   0  0  0  0  0  0
   21.1247   36.6242   84.2233 N   0  0  0  0  0  0
   25.0186   38.0175   84.7532 C   0  0  0  0  0  0
   24.9646   35.2951   82.4752 N   0  0  0  0  0  0
   19.9893   36.8608   85.0193 C   0  0  0  0  0  0
   24.1248   39.7342   86.2385 C   0  0  0  0  0  0
   25.6113   36.2103   83.1651 C   0  0  0  0  0  0
   23.6876   35.4211   82.7666 C   0  0  0  0  0  0
   25.4188   40.2177   86.4876 C   0  0  0  0  0  0
   26.3245   38.5119   84.9854 C   0  0  0  0  0  0
   25.6295   41.3100   87.3727 N   0  0  0  0  0  0
   18.9213   37.6147   84.5028 C   0  0  0  0  0  0
   26.5001   39.5870   85.8518 C   0  0  0  0  0  0
   19.8852   36.3145   86.3164 C   0  0  0  0  0  0
   18.9328   38.2211   82.8849 Cl  0  0  0  0  0  0
   17.7163   37.3676   86.5800 C   0  0  0  0  0  0
   26.9437   41.5560   87.9743 C   0  0  0  0  0  0
   24.5591   42.2724   87.6549 C   0  0  0  0  0  0
   17.7982   37.8704   85.2864 C   0  0  0  0  0  0
   18.7438   36.5752   87.0820 C   0  0  0  0  0  0
   20.9379   35.3598   86.8762 C   0  0  0  0  0  0
   23.8215   41.9912   88.9710 C   0  0  0  0  0  0
   27.7924   42.5630   87.1856 C   0  0  0  0  0  0
   21.0392   35.8358   83.6018 H   0  0  0  0  0  0
   23.2629   40.1699   86.7176 H   0  0  0  0  0  0
   26.6765   36.3765   83.1332 H   0  0  0  0  0  0
   22.9497   34.7734   82.3156 H   0  0  0  0  0  0
   27.1829   38.0615   84.5090 H   0  0  0  0  0  0
   27.5088   39.9368   86.0057 H   0  0  0  0  0  0
   16.8408   37.5718   87.1800 H   0  0  0  0  0  0
   27.4909   40.6184   88.0864 H   0  0  0  0  0  0
   26.8061   41.9159   88.9951 H   0  0  0  0  0  0
   24.9838   43.2769   87.6860 H   0  0  0  0  0  0
   23.8441   42.3060   86.8313 H   0  0  0  0  0  0
   16.9816   38.4605   84.8944 H   0  0  0  0  0  0
   18.6385   36.1499   88.0695 H   0  0  0  0  0  0
   20.5113   34.6594   87.5973 H   0  0  0  0  0  0
   21.3504   34.7324   86.0863 H   0  0  0  0  0  0
   21.7581   35.9130   87.3330 H   0  0  0  0  0  0
   23.0499   42.7420   89.1448 H   0  0  0  0  0  0
   23.3324   41.0188   88.9577 H   0  0  0  0  0  0
   24.5018   42.0155   89.8221 H   0  0  0  0  0  0
   28.7903   42.6483   87.6143 H   0  0  0  0  0  0
   27.3413   43.5552   87.2048 H   0  0  0  0  0  0
   27.9043   42.2706   86.1424 H   0  0  0  0  0  0
  1  2  1  0  0  0
  1  3  1  0  0  0
  1 12  2  0  0  0
  2  4  2  0  0  0
  2  6  1  0  0  0
  3  7  1  0  0  0
  3 11  1  0  0  0
  4  5  1  0  0  0
  5  7  1  0  0  0
  5 10  2  0  0  0
  6  9  1  0  0  0
  6 28  1  0  0  0
  7 14  2  0  0  0
  8 12  1  0  0  0
  8 11  2  0  0  0
  9 16  2  0  0  0
  9 18  1  0  0  0
 10 13  1  0  0  0
 10 29  1  0  0  0
 11 30  1  0  0  0
 12 31  1  0  0  0
 13 17  2  0  0  0
 13 15  1  0  0  0
 14 17  1  0  0  0
 14 32  1  0  0  0
 15 21  1  0  0  0
 15 22  1  0  0  0
 16 19  1  0  0  0
 16 23  1  0  0  0
 17 33  1  0  0  0
 18 24  2  0  0  0
 18 25  1  0  0  0
 20 24  1  0  0  0
 20 23  2  0  0  0
 20 34  1  0  0  0
 21 27  1  0  0  0
 21 35  1  0  0  0
 21 36  1  0  0  0
 22 26  1  0  0  0
 22 37  1  0  0  0
 22 38  1  0  0  0
 23 39  1  0  0  0
 24 40  1  0  0  0
 25 41  1  0  0  0
 25 42  1  0  0  0
 25 43  1  0  0  0
 26 44  1  0  0  0
 26 45  1  0  0  0
 26 46  1  0  0  0
 27 47  1  0  0  0
 27 48  1  0  0  0
 27 49  1  0  0  0
M  END
> <s_m_entry_id>
4795

> <s_m_entry_name>
dock_pv.283

> <s_m_Source_Path>
/home/csk/Desktop/cluster/DUD-E-result/lck

> <s_m_Source_File>
dock_pv.maegz

> <i_m_Source_File_Index>
283

> <chembl_id>
CHEMBL84877

> <chembl_pref_name>
None

> <i_lp_mmshare_version>
53161

> <i_f3d_flags>
0

> <r_lp_tautomer_probability>
1

> <s_lp_Force_Field>
OPLS_2005

> <r_lp_Energy>
65.096219

> <b_lp_Chiralities_Consistent>
1

> <s_lp_Variant>
CHEMBL258_lig239-1

> <s_i_glide_gridfile>
glide-grid_2of2

> <i_i_glide_lignum>
267

> <i_i_glide_rotatable_bonds>
5

> <r_i_docking_score>
-6.86257111250968

> <r_i_glide_ligand_efficiency>
-0.254169300463321

> <r_i_glide_ligand_efficiency_sa>
-0.762507900552264

> <r_i_glide_ligand_efficiency_ln>
-1.59749341666522

> <r_i_glide_gscore>
-6.86257111250968

> <r_i_glide_lipo>
-2.60158805347825

> <r_i_glide_hbond>
-0.0284645527816373

> <r_i_glide_metal>
0

> <r_i_glide_rewards>
-2.39801091325986

> <r_i_glide_evdw>
-37.3331489562988

> <r_i_glide_ecoul>
-2.4735209941864

> <r_i_glide_erotb>
0.40317800395297

> <r_i_glide_esite>
0

> <r_i_glide_emodel>
-54.0703975200464

> <r_i_glide_energy>
-39.8066699504852

> <r_i_glide_einternal>
4.72157573699951

> <i_i_glide_confnum>
18

> <i_i_glide_posenum>
59

> <r_i_glide_eff_state_penalty>
0

> <s_user_duplicate_titles>
CHEMBL258_lig239,136877

> <s_m_subgroup_title>
dock_pv

> <s_m_subgroupid>
dock_pv

> <b_m_subgroup_collapsed>
1

$$$$
CHEMBL258_lig353
                    3D
 Schrodinger Suite 2021-1.
 31 34  0  0  1  0            999 V2000
   24.3263   36.3230   83.4335 C   0  0  0  0  0  0
   23.3129   36.8995   84.2103 C   0  0  0  0  0  0
   25.5837   36.9252   83.5266 N   0  0  0  0  0  0
   23.5118   38.0046   84.9819 N   0  0  0  0  0  0
   25.8437   38.0092   84.2934 C   0  0  0  0  0  0
   24.7540   38.5609   85.0241 C   0  0  0  0  0  0
   25.7499   35.2229   82.0879 N   0  0  0  0  0  0
   22.0644   36.3189   84.1142 O   0  0  0  0  0  0
   26.4027   36.1967   82.6906 C   0  0  0  0  0  0
   24.4990   35.2898   82.4870 C   0  0  0  0  0  0
   20.9642   36.8629   84.7390 C   0  0  0  0  0  0
   20.5447   36.3914   85.9899 C   0  0  0  0  0  0
   21.5193   35.0224   86.8869 Br  0  0  0  0  0  0
   27.1310   38.6033   84.3771 C   0  0  0  0  0  0
   24.9772   39.7058   85.8232 C   0  0  0  0  0  0
   20.2193   37.8490   84.0880 C   0  0  0  0  0  0
   19.3858   36.9050   86.5742 C   0  0  0  0  0  0
   27.3138   39.7255   85.1811 C   0  0  0  0  0  0
   26.2487   40.2733   85.8950 C   0  0  0  0  0  0
   19.0649   38.3643   84.6788 C   0  0  0  0  0  0
   18.6477   37.8933   85.9230 C   0  0  0  0  0  0
   27.4490   36.4204   82.5508 H   0  0  0  0  0  0
   23.7405   34.6204   82.1061 H   0  0  0  0  0  0
   27.9682   38.1934   83.8302 H   0  0  0  0  0  0
   24.1513   40.1281   86.3784 H   0  0  0  0  0  0
   20.5376   38.2046   83.1192 H   0  0  0  0  0  0
   19.0557   36.5267   87.5300 H   0  0  0  0  0  0
   28.2911   40.1796   85.2531 H   0  0  0  0  0  0
   26.4101   41.1466   86.5101 H   0  0  0  0  0  0
   18.4875   39.1226   84.1750 H   0  0  0  0  0  0
   17.7491   38.2879   86.3786 H   0  0  0  0  0  0
  1  2  1  0  0  0
  1  3  1  0  0  0
  1 10  2  0  0  0
  2  4  2  0  0  0
  2  8  1  0  0  0
  3  5  1  0  0  0
  3  9  1  0  0  0
  4  6  1  0  0  0
  5  6  1  0  0  0
  5 14  2  0  0  0
  6 15  2  0  0  0
  7 10  1  0  0  0
  7  9  2  0  0  0
  8 11  1  0  0  0
  9 22  1  0  0  0
 10 23  1  0  0  0
 11 12  2  0  0  0
 11 16  1  0  0  0
 12 13  1  0  0  0
 12 17  1  0  0  0
 14 18  1  0  0  0
 14 24  1  0  0  0
 15 19  1  0  0  0
 15 25  1  0  0  0
 16 20  2  0  0  0
 16 26  1  0  0  0
 17 21  2  0  0  0
 17 27  1  0  0  0
 18 19  2  0  0  0
 18 28  1  0  0  0
 19 29  1  0  0  0
 20 21  1  0  0  0
 20 30  1  0  0  0
 21 31  1  0  0  0
M  END
> <s_m_entry_id>
4796

> <s_m_entry_name>
dock_pv.284

> <s_m_Source_Path>
/home/csk/Desktop/cluster/DUD-E-result/lck

> <s_m_Source_File>
dock_pv.maegz

> <i_m_Source_File_Index>
284

> <chembl_id>
CHEMBL287214

> <chembl_pref_name>
None

> <i_lp_mmshare_version>
53161

> <i_f3d_flags>
0

> <r_lp_tautomer_probability>
1

> <s_lp_Force_Field>
OPLS_2005

> <r_lp_Energy>
56.617302

> <b_lp_Chiralities_Consistent>
1

> <s_lp_Variant>
CHEMBL258_lig353-1

> <s_i_glide_gridfile>
glide-grid_2of2

> <i_i_glide_lignum>
392

> <i_i_glide_rotatable_bonds>
2

> <r_i_docking_score>
-6.86172484950164

> <r_i_glide_ligand_efficiency>
-0.326748802357221

> <r_i_glide_ligand_efficiency_sa>
-0.901475169512059

> <r_i_glide_ligand_efficiency_ln>
-1.69654760361868

> <r_i_glide_gscore>
-6.86172484950164

> <r_i_glide_lipo>
-2.57086357623713

> <r_i_glide_hbond>
-0.301917383066085

> <r_i_glide_metal>
0

> <r_i_glide_rewards>
-2.62039359461028

> <r_i_glide_evdw>
-35.3513793945312

> <r_i_glide_ecoul>
0.478504568338394

> <r_i_glide_erotb>
0.327242988887667

> <r_i_glide_esite>
0

> <r_i_glide_emodel>
-49.4796402738301

> <r_i_glide_energy>
-34.8728748261929

> <r_i_glide_einternal>
0.124137222766876

> <i_i_glide_confnum>
3

> <i_i_glide_posenum>
238

> <r_i_glide_eff_state_penalty>
0

> <s_user_duplicate_titles>
CHEMBL258_lig353

> <s_m_subgroup_title>
dock_pv

> <s_m_subgroupid>
dock_pv

> <b_m_subgroup_collapsed>
1

$$$$
CHEMBL258_lig121
                    3D
 Schrodinger Suite 2021-1.
 31 33  0  0  1  0            999 V2000
   24.1170   36.8297   83.8044 C   0  0  0  0  0  0
   24.9502   35.9624   82.9665 C   0  0  0  0  0  0
   24.9896   37.8976   84.3231 C   0  0  0  0  0  0
   26.3216   36.4611   83.0622 C   0  0  0  0  0  0
   26.3502   37.5913   83.8557 C   0  0  0  0  0  0
   22.7777   36.6424   83.9719 C   0  0  0  0  0  0
   19.8630   38.9222   86.1689 C   0  0  0  0  0  0
   19.5477   38.3646   84.9245 C   0  0  0  0  0  0
   21.1255   38.6904   86.7250 C   0  0  0  0  0  0
   21.7831   37.4051   84.7679 C   0  0  0  0  0  0
   27.5567   38.2569   84.0921 C   0  0  0  0  0  0
   27.4939   35.9668   82.4869 C   0  0  0  0  0  0
   20.5027   37.6087   84.2400 C   0  0  0  0  0  0
   22.0644   37.9267   86.0336 C   0  0  0  0  0  0
   24.5341   35.0209   82.2968 O   0  0  0  0  0  0
   24.6342   38.8568   85.0031 O   0  0  0  0  0  0
   28.7048   36.6210   82.7189 C   0  0  0  0  0  0
   21.6116   39.4212   88.4162 Br  0  0  0  0  0  0
   17.8297   38.6216   84.1321 Br  0  0  0  0  0  0
   18.9497   39.6907   86.8474 O   0  0  0  0  0  0
   28.7359   37.7652   83.5233 C   0  0  0  0  0  0
   29.8709   36.1457   82.1213 N   0  0  0  0  0  0
   22.3385   35.7919   83.4658 H   0  0  0  0  0  0
   27.5927   39.1448   84.7073 H   0  0  0  0  0  0
   27.4725   35.0829   81.8643 H   0  0  0  0  0  0
   20.2409   37.1857   83.2838 H   0  0  0  0  0  0
   23.0246   37.7548   86.4883 H   0  0  0  0  0  0
   18.0515   39.6693   86.4873 H   0  0  0  0  0  0
   29.6693   38.2785   83.7023 H   0  0  0  0  0  0
   29.8354   35.3141   81.5464 H   0  0  0  0  0  0
   30.7550   36.5933   82.3137 H   0  0  0  0  0  0
  1  2  1  0  0  0
  1  3  1  0  0  0
  1  6  2  0  0  0
  2  4  1  0  0  0
  2 15  2  0  0  0
  3  5  1  0  0  0
  3 16  2  0  0  0
  4 12  2  0  0  0
  4  5  1  0  0  0
  5 11  2  0  0  0
  6 10  1  0  0  0
  6 23  1  0  0  0
  7  9  1  0  0  0
  7 20  1  0  0  0
  7  8  2  0  0  0
  8 13  1  0  0  0
  8 19  1  0  0  0
  9 14  2  0  0  0
  9 18  1  0  0  0
 10 13  2  0  0  0
 10 14  1  0  0  0
 11 21  1  0  0  0
 11 24  1  0  0  0
 12 17  1  0  0  0
 12 25  1  0  0  0
 13 26  1  0  0  0
 14 27  1  0  0  0
 17 22  1  0  0  0
 17 21  2  0  0  0
 20 28  1  0  0  0
 21 29  1  0  0  0
 22 30  1  0  0  0
 22 31  1  0  0  0
M  END
> <s_m_entry_id>
4797

> <s_m_entry_name>
dock_pv.285

> <s_m_Source_Path>
/home/csk/Desktop/cluster/DUD-E-result/lck

> <s_m_Source_File>
dock_pv.maegz

> <i_m_Source_File_Index>
285

> <chembl_id>
CHEMBL84807

> <chembl_pref_name>
None

> <i_lp_mmshare_version>
53161

> <i_f3d_flags>
0

> <r_lp_tautomer_probability>
1

> <s_lp_Force_Field>
OPLS_2005

> <r_lp_Energy>
30.926194

> <b_lp_Chiralities_Consistent>
1

> <s_lp_Variant>
CHEMBL258_lig121-1

> <s_i_glide_gridfile>
glide-grid_2of2

> <i_i_glide_lignum>
142

> <i_i_glide_rotatable_bonds>
2

> <r_i_docking_score>
-6.86164378614665

> <r_i_glide_ligand_efficiency>
-0.311892899370302

> <r_i_glide_ligand_efficiency_sa>
-0.873936170087272

> <r_i_glide_ligand_efficiency_ln>
-1.67723602587256

> <r_i_glide_gscore>
-6.86164378614665

> <r_i_glide_lipo>
-2.79573086768259

> <r_i_glide_hbond>
-0.216669343991349

> <r_i_glide_metal>
0

> <r_i_glide_rewards>
-1.29833015811714

> <r_i_glide_evdw>
-36.1092262268066

> <r_i_glide_ecoul>
-5.70780515670776

> <r_i_glide_erotb>
0.110718668490919

> <r_i_glide_esite>
0

> <r_i_glide_emodel>
-59.5703126880205

> <r_i_glide_energy>
-41.8170313835144

> <r_i_glide_einternal>
1.02856838703156

> <i_i_glide_confnum>
4

> <i_i_glide_posenum>
168

> <r_i_glide_eff_state_penalty>
0

> <s_user_duplicate_titles>
CHEMBL258_lig121,133407

> <s_m_subgroup_title>
dock_pv

> <s_m_subgroupid>
dock_pv

> <b_m_subgroup_collapsed>
1

$$$$
CHEMBL258_lig204
                    3D
 Schrodinger Suite 2021-1.
 47 50  0  0  1  0            999 V2000
   23.7618   36.4953   83.8047 C   0  0  0  0  0  0
   25.0403   37.0769   83.8219 N   0  0  0  0  0  0
   22.7937   37.0886   84.6294 C   0  0  0  0  0  0
   25.3646   38.1192   84.6371 C   0  0  0  0  0  0
   23.0471   38.2128   85.3418 N   0  0  0  0  0  0
   24.3028   38.7218   85.3587 C   0  0  0  0  0  0
   21.5301   36.5008   84.7257 N   0  0  0  0  0  0
   25.0582   35.3889   82.3455 N   0  0  0  0  0  0
   23.8655   35.4215   82.8869 C   0  0  0  0  0  0
   25.7498   36.3997   82.8345 C   0  0  0  0  0  0
   26.6884   38.5894   84.8548 C   0  0  0  0  0  0
   20.3973   36.8972   85.4600 C   0  0  0  0  0  0
   24.5625   39.8348   86.1818 C   0  0  0  0  0  0
   26.9338   39.6911   85.6879 C   0  0  0  0  0  0
   25.8675   40.3221   86.3438 C   0  0  0  0  0  0
   19.9267   36.0614   86.4870 C   0  0  0  0  0  0
   19.7147   38.0987   85.1882 C   0  0  0  0  0  0
   20.7733   34.6208   86.9313 Cl  0  0  0  0  0  0
   28.2021   40.1974   85.9147 O   0  0  0  0  0  0
   26.1755   41.4013   87.1550 O   0  0  0  0  0  0
   27.0514   36.8500   82.2057 C   0  0  0  0  0  0
   28.0802   35.9272   82.4871 O   0  0  0  0  0  0
   18.0628   37.5429   86.8754 C   0  0  0  0  0  0
   18.7558   36.3755   87.1766 C   0  0  0  0  0  0
   18.5501   38.4058   85.8974 C   0  0  0  0  0  0
   20.1674   39.0641   84.1041 C   0  0  0  0  0  0
   29.3126   39.7029   85.1691 C   0  0  0  0  0  0
   25.1279   42.1348   87.7812 C   0  0  0  0  0  0
   21.4563   35.5818   84.3161 H   0  0  0  0  0  0
   23.1006   34.7158   82.5914 H   0  0  0  0  0  0
   27.5228   38.0538   84.4412 H   0  0  0  0  0  0
   23.7269   40.2725   86.7056 H   0  0  0  0  0  0
   26.9291   36.8924   81.1242 H   0  0  0  0  0  0
   27.3499   37.8612   82.4627 H   0  0  0  0  0  0
   28.0261   35.2111   81.8455 H   0  0  0  0  0  0
   17.1544   37.7934   87.4053 H   0  0  0  0  0  0
   18.3888   35.7142   87.9487 H   0  0  0  0  0  0
   18.0077   39.3164   85.6856 H   0  0  0  0  0  0
   19.3130   39.5906   83.6872 H   0  0  0  0  0  0
   20.8664   39.7970   84.5075 H   0  0  0  0  0  0
   20.6447   38.5463   83.2736 H   0  0  0  0  0  0
   30.2149   40.2274   85.4832 H   0  0  0  0  0  0
   29.1810   39.8849   84.1016 H   0  0  0  0  0  0
   29.4861   38.6375   85.3241 H   0  0  0  0  0  0
   25.5560   42.9712   88.3333 H   0  0  0  0  0  0
   24.4313   42.5465   87.0489 H   0  0  0  0  0  0
   24.5777   41.5177   88.4929 H   0  0  0  0  0  0
  1  2  1  0  0  0
  1  3  1  0  0  0
  1  9  2  0  0  0
  2  4  1  0  0  0
  2 10  1  0  0  0
  3  5  2  0  0  0
  3  7  1  0  0  0
  4 11  2  0  0  0
  4  6  1  0  0  0
  5  6  1  0  0  0
  6 13  2  0  0  0
  7 12  1  0  0  0
  7 29  1  0  0  0
  8  9  1  0  0  0
  8 10  2  0  0  0
  9 30  1  0  0  0
 10 21  1  0  0  0
 11 14  1  0  0  0
 11 31  1  0  0  0
 12 16  2  0  0  0
 12 17  1  0  0  0
 13 15  1  0  0  0
 13 32  1  0  0  0
 14 19  1  0  0  0
 14 15  2  0  0  0
 15 20  1  0  0  0
 16 18  1  0  0  0
 16 24  1  0  0  0
 17 25  2  0  0  0
 17 26  1  0  0  0
 19 27  1  0  0  0
 20 28  1  0  0  0
 21 22  1  0  0  0
 21 33  1  0  0  0
 21 34  1  0  0  0
 22 35  1  0  0  0
 23 25  1  0  0  0
 23 24  2  0  0  0
 23 36  1  0  0  0
 24 37  1  0  0  0
 25 38  1  0  0  0
 26 39  1  0  0  0
 26 40  1  0  0  0
 26 41  1  0  0  0
 27 42  1  0  0  0
 27 43  1  0  0  0
 27 44  1  0  0  0
 28 45  1  0  0  0
 28 46  1  0  0  0
 28 47  1  0  0  0
M  END
> <s_m_entry_id>
4798

> <s_m_entry_name>
dock_pv.286

> <s_m_Source_Path>
/home/csk/Desktop/cluster/DUD-E-result/lck

> <s_m_Source_File>
dock_pv.maegz

> <i_m_Source_File_Index>
286

> <chembl_id>
CHEMBL314819

> <chembl_pref_name>
None

> <i_lp_mmshare_version>
53161

> <i_f3d_flags>
0

> <r_lp_tautomer_probability>
1

> <s_lp_Force_Field>
OPLS_2005

> <r_lp_Energy>
70.320316

> <b_lp_Chiralities_Consistent>
1

> <s_lp_Variant>
CHEMBL258_lig204-1

> <s_i_glide_gridfile>
glide-grid_2of2

> <i_i_glide_lignum>
232

> <i_i_glide_rotatable_bonds>
6

> <r_i_docking_score>
-6.85472671036327

> <r_i_glide_ligand_efficiency>
-0.24481166822726

> <r_i_glide_ligand_efficiency_sa>
-0.743392411099668

> <r_i_glide_ligand_efficiency_ln>
-1.58227218827351

> <r_i_glide_gscore>
-6.85472671036327

> <r_i_glide_lipo>
-2.55689246138339

> <r_i_glide_hbond>
-0.195786517634051

> <r_i_glide_metal>
0

> <r_i_glide_rewards>
-2.20442499286691

> <r_i_glide_evdw>
-39.0184669494629

> <r_i_glide_ecoul>
-2.10747361183167

> <r_i_glide_erotb>
0.36942165076897

> <r_i_glide_esite>
0

> <r_i_glide_emodel>
-58.4992728485388

> <r_i_glide_energy>
-41.1259405612946

> <r_i_glide_einternal>
1.46195030212402

> <i_i_glide_confnum>
2

> <i_i_glide_posenum>
138

> <r_i_glide_eff_state_penalty>
0

> <s_user_duplicate_titles>
CHEMBL258_lig204,136612

> <s_m_subgroup_title>
dock_pv

> <s_m_subgroupid>
dock_pv

> <b_m_subgroup_collapsed>
1

$$$$
CHEMBL258_lig102
                    3D
 Schrodinger Suite 2021-1.
 51 55  0  0  1  0            999 V2000
   27.8327   37.4487   83.4930 C   0  0  0  0  0  0
   28.2013   38.6278   84.1318 N   0  0  0  0  0  0
   26.4135   37.2936   83.6073 C   0  0  0  0  0  0
   25.9257   38.4232   84.3623 C   0  0  0  0  0  0
   27.0442   39.1967   84.6230 C   0  0  0  0  0  0
   28.6523   36.5671   82.9045 N   0  0  0  0  0  0
   29.5636   39.1078   84.4496 C   0  0  2  0  0  0
   25.8948   36.1164   83.0136 C   0  0  0  0  0  0
   26.7060   35.1781   82.4870 N   0  0  0  0  0  0
   24.5569   38.6865   84.8870 C   0  0  0  0  0  0
   29.7152   40.6508   84.4729 C   0  0  0  0  0  0
   28.0320   35.4461   82.4774 C   0  0  0  0  0  0
   30.6852   38.6119   83.5216 C   0  0  0  0  0  0
   20.7118   39.3204   86.3123 O   0  0  0  0  0  0
   23.7607   37.6126   85.2870 C   0  0  0  0  0  0
   24.0723   39.9925   85.0179 C   0  0  0  0  0  0
   24.5398   35.8210   82.9318 N   0  0  0  0  0  0
   22.0157   39.1290   85.9298 C   0  0  0  0  0  0
   31.0183   41.0017   83.7285 C   0  0  1  0  0  0
   22.8003   40.2150   85.5429 C   0  0  0  0  0  0
   22.5044   37.8290   85.8244 C   0  0  0  0  0  0
   31.7728   39.6747   83.6303 C   0  0  0  0  0  0
   19.7350   38.8020   85.4871 C   0  0  0  0  0  0
   30.6904   41.4210   82.4204 O   0  0  0  0  0  0
   19.9110   38.7265   84.0980 C   0  0  0  0  0  0
   18.5500   38.3433   86.0569 C   0  0  0  0  0  0
   17.5462   37.8210   85.2450 C   0  0  0  0  0  0
   18.9088   38.2210   83.2870 C   0  0  0  0  0  0
   17.7289   37.7865   83.8645 C   0  0  0  0  0  0
   27.1130   40.0999   85.2121 H   0  0  0  0  0  0
   29.7575   38.7350   85.4568 H   0  0  0  0  0  0
   28.8593   41.1887   84.0609 H   0  0  0  0  0  0
   29.8102   40.9640   85.5139 H   0  0  0  0  0  0
   28.6648   34.7087   82.0023 H   0  0  0  0  0  0
   31.0541   37.6209   83.7893 H   0  0  0  0  0  0
   30.3473   38.5872   82.4870 H   0  0  0  0  0  0
   24.1394   36.6031   85.2661 H   0  0  0  0  0  0
   24.6747   40.8340   84.7085 H   0  0  0  0  0  0
   23.8691   36.4990   83.2633 H   0  0  0  0  0  0
   24.2503   34.9646   82.4870 H   0  0  0  0  0  0
   31.6085   41.7697   84.2316 H   0  0  0  0  0  0
   22.4082   41.2192   85.6164 H   0  0  0  0  0  0
   21.8946   36.9917   86.1312 H   0  0  0  0  0  0
   32.4854   39.6467   82.8041 H   0  0  0  0  0  0
   32.3484   39.5165   84.5439 H   0  0  0  0  0  0
   30.5500   42.3827   82.4790 H   0  0  0  0  0  0
   20.8287   39.0714   83.6476 H   0  0  0  0  0  0
   18.3981   38.4054   87.1235 H   0  0  0  0  0  0
   16.6161   37.4864   85.6820 H   0  0  0  0  0  0
   19.0378   38.1911   82.2151 H   0  0  0  0  0  0
   16.9500   37.4211   83.2192 H   0  0  0  0  0  0
  1  2  1  0  0  0
  1  3  1  0  0  0
  1  6  2  0  0  0
  2  5  1  0  0  0
  2  7  1  0  0  0
  3  4  1  0  0  0
  3  8  2  0  0  0
  4 10  1  0  0  0
  4  5  2  0  0  0
  5 30  1  0  0  0
  6 12  1  0  0  0
  7 11  1  0  0  0
  7 13  1  0  0  0
  7 31  1  0  0  0
  8 17  1  0  0  0
  8  9  1  0  0  0
  9 12  2  0  0  0
 10 15  2  0  0  0
 10 16  1  0  0  0
 11 19  1  0  0  0
 11 32  1  0  0  0
 11 33  1  0  0  0
 12 34  1  0  0  0
 13 22  1  0  0  0
 13 35  1  0  0  0
 13 36  1  0  0  0
 14 18  1  0  0  0
 14 23  1  0  0  0
 15 21  1  0  0  0
 15 37  1  0  0  0
 16 20  2  0  0  0
 16 38  1  0  0  0
 17 39  1  0  0  0
 17 40  1  0  0  0
 18 20  1  0  0  0
 18 21  2  0  0  0
 19 24  1  0  0  0
 19 22  1  0  0  0
 19 41  1  0  0  0
 20 42  1  0  0  0
 21 43  1  0  0  0
 22 44  1  0  0  0
 22 45  1  0  0  0
 23 25  1  0  0  0
 23 26  2  0  0  0
 24 46  1  0  0  0
 25 28  2  0  0  0
 25 47  1  0  0  0
 26 27  1  0  0  0
 26 48  1  0  0  0
 27 29  2  0  0  0
 27 49  1  0  0  0
 28 29  1  0  0  0
 28 50  1  0  0  0
 29 51  1  0  0  0
M  END
> <s_m_entry_id>
4799

> <s_m_entry_name>
dock_pv.287

> <s_m_Source_Path>
/home/csk/Desktop/cluster/DUD-E-result/lck

> <s_m_Source_File>
dock_pv.maegz

> <i_m_Source_File_Index>
287

> <chembl_id>
CHEMBL69129

> <chembl_pref_name>
None

> <i_lp_mmshare_version>
53161

> <i_f3d_flags>
0

> <r_lp_tautomer_probability>
1

> <s_lp_Force_Field>
OPLS_2005

> <r_lp_Energy>
40.946024

> <b_lp_Chiralities_Consistent>
1

> <s_lp_Variant>
CHEMBL258_lig102-1

> <s_i_glide_gridfile>
glide-grid_2of2

> <i_i_glide_lignum>
117

> <i_i_glide_rotatable_bonds>
5

> <r_i_docking_score>
-6.8524629446498

> <r_i_glide_ligand_efficiency>
-0.236291825677579

> <r_i_glide_ligand_efficiency_sa>
-0.72596335098641

> <r_i_glide_ligand_efficiency_ln>
-1.56904025085725

> <r_i_glide_gscore>
-6.8524629446498

> <r_i_glide_lipo>
-2.74498928741

> <r_i_glide_hbond>
-0.306595705730438

> <r_i_glide_metal>
0

> <r_i_glide_rewards>
-1.32926446758434

> <r_i_glide_evdw>
-38.1151580810547

> <r_i_glide_ecoul>
-6.98634576797485

> <r_i_glide_erotb>
0.521316962828087

> <r_i_glide_esite>
-0.0392206775041472

> <r_i_glide_emodel>
-60.7702664771309

> <r_i_glide_energy>
-45.1015038490295

> <r_i_glide_einternal>
6.46327686309814

> <i_i_glide_confnum>
87

> <i_i_glide_posenum>
252

> <r_i_glide_eff_state_penalty>
0

> <s_user_duplicate_titles>
CHEMBL258_lig102

> <s_m_subgroup_title>
dock_pv

> <s_m_subgroupid>
dock_pv

> <b_m_subgroup_collapsed>
1

$$$$
CHEMBL258_lig399
                    3D
 Schrodinger Suite 2021-1.
 34 37  0  0  1  0            999 V2000
   23.5147   36.4757   83.6870 C   0  0  0  0  0  0
   22.4537   37.1033   84.3590 C   0  0  0  0  0  0
   24.7890   37.0023   83.9142 N   0  0  0  0  0  0
   22.6474   38.1849   85.1591 N   0  0  0  0  0  0
   25.0299   38.0668   84.7102 C   0  0  0  0  0  0
   27.8745   40.2139   86.0462 N   0  3  0  0  0  0
   21.1550   36.6210   84.1741 N   0  0  0  0  0  0
   20.0175   36.9007   84.9497 C   0  0  0  0  0  0
   23.9044   38.6740   85.3272 C   0  0  0  0  0  0
   26.3331   38.5804   84.9423 C   0  0  0  0  0  0
   25.0151   35.2974   82.4870 N   0  0  0  0  0  0
   26.5133   39.6859   85.7849 C   0  0  0  0  0  0
   25.6510   36.2290   83.1656 C   0  0  0  0  0  0
   23.7353   35.4210   82.7663 C   0  0  0  0  0  0
   28.7971   39.8210   85.3372 O   0  5  0  0  0  0
   28.0222   41.0210   86.9598 O   0  0  0  0  0  0
   18.9517   37.6533   84.4274 C   0  0  0  0  0  0
   19.9047   36.3572   86.2412 C   0  0  0  0  0  0
   24.1043   39.8006   86.1521 C   0  0  0  0  0  0
   25.3917   40.2862   86.3748 C   0  0  0  0  0  0
   21.1237   35.3058   86.8870 Cl  0  0  0  0  0  0
   18.9500   38.2210   82.7971 Cl  0  0  0  0  0  0
   17.7483   37.4210   86.5095 C   0  0  0  0  0  0
   18.7708   36.6210   87.0103 C   0  0  0  0  0  0
   17.8322   37.9216   85.2145 C   0  0  0  0  0  0
   21.0851   35.7915   83.6062 H   0  0  0  0  0  0
   27.1890   38.1112   84.4781 H   0  0  0  0  0  0
   26.7158   36.4002   83.1370 H   0  0  0  0  0  0
   23.0023   34.7633   82.3200 H   0  0  0  0  0  0
   23.2493   40.2692   86.6172 H   0  0  0  0  0  0
   25.5132   41.1461   87.0190 H   0  0  0  0  0  0
   16.8758   37.6340   87.1107 H   0  0  0  0  0  0
   18.6762   36.1964   87.9989 H   0  0  0  0  0  0
   17.0156   38.5139   84.8253 H   0  0  0  0  0  0
  1  2  1  0  0  0
  1  3  1  0  0  0
  1 14  2  0  0  0
  2  4  2  0  0  0
  2  7  1  0  0  0
  3  5  1  0  0  0
  3 13  1  0  0  0
  4  9  1  0  0  0
  5  9  1  0  0  0
  5 10  2  0  0  0
  6 12  1  0  0  0
  6 15  1  0  0  0
  6 16  2  0  0  0
  7  8  1  0  0  0
  7 26  1  0  0  0
  8 17  1  0  0  0
  8 18  2  0  0  0
  9 19  2  0  0  0
 10 12  1  0  0  0
 10 27  1  0  0  0
 11 14  1  0  0  0
 11 13  2  0  0  0
 12 20  2  0  0  0
 13 28  1  0  0  0
 14 29  1  0  0  0
 17 22  1  0  0  0
 17 25  2  0  0  0
 18 21  1  0  0  0
 18 24  1  0  0  0
 19 20  1  0  0  0
 19 30  1  0  0  0
 20 31  1  0  0  0
 23 24  2  0  0  0
 23 25  1  0  0  0
 23 32  1  0  0  0
 24 33  1  0  0  0
 25 34  1  0  0  0
M  CHG  2   6   1  15  -1
M  END
> <s_m_entry_id>
4800

> <s_m_entry_name>
dock_pv.288

> <s_m_Source_Path>
/home/csk/Desktop/cluster/DUD-E-result/lck

> <s_m_Source_File>
dock_pv.maegz

> <i_m_Source_File_Index>
288

> <chembl_id>
CHEMBL107826

> <chembl_pref_name>
None

> <i_lp_mmshare_version>
53161

> <i_f3d_flags>
0

> <r_lp_tautomer_probability>
1

> <s_lp_Force_Field>
OPLS_2005

> <r_lp_Energy>
59.937772

> <b_lp_Chiralities_Consistent>
1

> <s_lp_Variant>
CHEMBL258_lig399-1

> <s_i_glide_gridfile>
glide-grid_2of2

> <i_i_glide_lignum>
441

> <i_i_glide_rotatable_bonds>
3

> <r_i_docking_score>
-6.85207473791359

> <r_i_glide_ligand_efficiency>
-0.274082989516544

> <r_i_glide_ligand_efficiency_sa>
-0.801423522228891

> <r_i_glide_ligand_efficiency_ln>
-1.62414705299549

> <r_i_glide_gscore>
-6.85207473791359

> <r_i_glide_lipo>
-2.5533176368823

> <r_i_glide_hbond>
-0.034154246732893

> <r_i_glide_metal>
0

> <r_i_glide_rewards>
-2.4227391398732

> <r_i_glide_evdw>
-37.6911277770996

> <r_i_glide_ecoul>
-1.51905536651611

> <r_i_glide_erotb>
0.27616683928905

> <r_i_glide_esite>
-0.00561585988185475

> <r_i_glide_emodel>
-54.656632984369

> <r_i_glide_energy>
-39.2101831436157

> <r_i_glide_einternal>
1.16869366168976

> <i_i_glide_confnum>
1

> <i_i_glide_posenum>
358

> <r_i_glide_eff_state_penalty>
0

> <s_user_duplicate_titles>
CHEMBL258_lig399,176418

> <s_m_subgroup_title>
dock_pv

> <s_m_subgroupid>
dock_pv

> <b_m_subgroup_collapsed>
1

$$$$
CHEMBL258_lig34
                    3D
 Schrodinger Suite 2021-1.
 32 34  0  0  1  0            999 V2000
   23.2648   37.2986   84.5239 N   0  0  0  0  0  0
   24.2581   38.1704   84.8656 C   0  0  0  0  0  0
   23.6940   36.3112   83.6870 C   0  0  0  0  0  0
   21.8647   37.4689   85.0146 C   0  0  2  0  0  0
   25.1321   36.5778   83.4456 C   0  0  0  0  0  0
   25.4710   37.6998   84.1480 C   0  0  0  0  0  0
   21.6505   36.8022   86.3894 C   0  0  0  0  0  0
   18.5239   37.8680   83.0624 N   0  0  0  0  0  0
   20.7786   37.1274   83.9461 C   0  0  0  0  0  0
   19.4104   37.7321   84.1342 C   0  0  0  0  0  0
   17.5356   38.6210   84.8870 N   0  0  0  0  0  0
   23.0179   35.4210   83.1786 O   0  0  0  0  0  0
   24.1640   39.1502   85.6047 O   0  0  0  0  0  0
   17.4271   38.3906   83.5825 C   0  0  0  0  0  0
   18.7967   38.2100   85.2735 C   0  0  0  0  0  0
   21.7500   37.4210   87.4267 O   0  0  0  0  0  0
   21.3499   35.4750   86.2742 O   0  0  0  0  0  0
   26.7669   38.2162   84.0959 C   0  0  0  0  0  0
   26.0612   35.9156   82.6409 C   0  0  0  0  0  0
   27.3587   36.4298   82.5558 C   0  0  0  0  0  0
   27.7117   37.5723   83.2874 C   0  0  0  0  0  0
   21.7456   38.5383   85.2015 H   0  0  0  0  0  0
   20.6407   36.0548   83.8354 H   0  0  0  0  0  0
   21.1199   37.4654   82.9685 H   0  0  0  0  0  0
   16.8404   39.0711   85.4896 H   0  0  0  0  0  0
   16.5500   38.6202   83.0006 H   0  0  0  0  0  0
   19.1371   38.2915   86.2955 H   0  0  0  0  0  0
   21.2044   35.1799   85.3704 H   0  0  0  0  0  0
   27.0428   39.1013   84.6517 H   0  0  0  0  0  0
   25.7944   35.0330   82.0796 H   0  0  0  0  0  0
   28.0920   35.9382   81.9315 H   0  0  0  0  0  0
   28.7193   37.9578   83.2282 H   0  0  0  0  0  0
  1  2  1  0  0  0
  1  3  1  0  0  0
  1  4  1  0  0  0
  2  6  1  0  0  0
  2 13  2  0  0  0
  3  5  1  0  0  0
  3 12  2  0  0  0
  4  7  1  0  0  0
  4  9  1  0  0  0
  4 22  1  0  0  0
  5 19  1  0  0  0
  5  6  2  0  0  0
  6 18  1  0  0  0
  7 16  2  0  0  0
  7 17  1  0  0  0
  8 10  1  0  0  0
  8 14  2  0  0  0
  9 10  1  0  0  0
  9 23  1  0  0  0
  9 24  1  0  0  0
 10 15  2  0  0  0
 11 15  1  0  0  0
 11 14  1  0  0  0
 11 25  1  0  0  0
 14 26  1  0  0  0
 15 27  1  0  0  0
 17 28  1  0  0  0
 18 21  2  0  0  0
 18 29  1  0  0  0
 19 20  2  0  0  0
 19 30  1  0  0  0
 20 21  1  0  0  0
 20 31  1  0  0  0
 21 32  1  0  0  0
M  END
> <s_m_entry_id>
4801

> <s_m_entry_name>
dock_pv.289

> <s_m_Source_Path>
/home/csk/Desktop/cluster/DUD-E-result/lck

> <s_m_Source_File>
dock_pv.maegz

> <i_m_Source_File_Index>
289

> <chembl_id>
CHEMBL331687

> <chembl_pref_name>
None

> <i_lp_mmshare_version>
53161

> <i_f3d_flags>
0

> <r_lp_tautomer_probability>
0.499999999999999

> <s_lp_Force_Field>
OPLS_2005

> <r_lp_Energy>
33.163833

> <b_lp_Chiralities_Consistent>
1

> <s_lp_Variant>
CHEMBL258_lig34-1

> <s_i_glide_gridfile>
glide-grid_2of2

> <i_i_glide_lignum>
37

> <i_i_glide_rotatable_bonds>
5

> <r_i_docking_score>
-6.84179722005156

> <r_i_glide_ligand_efficiency>
-0.325799867621503

> <r_i_glide_ligand_efficiency_sa>
-0.898857130530536

> <r_i_glide_ligand_efficiency_ln>
-1.69162053750471

> <r_i_glide_gscore>
-6.84179722005156

> <r_i_glide_lipo>
-2.00431020324363

> <r_i_glide_hbond>
-0.155903851640197

> <r_i_glide_metal>
0

> <r_i_glide_rewards>
-2.98140562015426

> <r_i_glide_evdw>
-33.749397277832

> <r_i_glide_ecoul>
-5.70610666275024

> <r_i_glide_erotb>
0.891753762152612

> <r_i_glide_esite>
-0.0485454438619454

> <r_i_glide_emodel>
-53.2866385783055

> <r_i_glide_energy>
-39.4555039405823

> <r_i_glide_einternal>
7.60366153717041

> <i_i_glide_confnum>
8

> <i_i_glide_posenum>
348

> <r_i_glide_eff_state_penalty>
0

> <s_user_duplicate_titles>
CHEMBL258_lig34

> <s_m_subgroup_title>
dock_pv

> <s_m_subgroupid>
dock_pv

> <b_m_subgroup_collapsed>
1

$$$$
CHEMBL258_lig1137
                    3D
 Schrodinger Suite 2021-1.
 40 43  0  0  1  0            999 V2000
   26.0673   41.7642   86.7950 N   0  0  0  0  0  0
   26.8848   40.6852   86.7200 C   0  0  0  0  0  0
   26.4972   39.4916   86.1049 C   0  0  0  0  0  0
   25.2019   39.4444   85.5656 C   0  0  0  0  0  0
   24.3580   40.5144   85.6299 N   0  0  0  0  0  0
   24.8365   41.6268   86.2417 C   0  0  0  0  0  0
   28.1496   40.8155   87.2853 N   0  0  0  0  0  0
   24.7232   38.2875   84.8951 N   0  0  0  0  0  0
   23.3118   36.6265   84.2658 N   0  0  0  0  0  0
   23.4602   37.7072   84.9916 C   0  0  0  0  0  0
   24.5317   36.4397   83.6863 C   0  0  0  0  0  0
   25.4444   37.4621   84.0472 C   0  0  0  0  0  0
   26.7514   37.4973   83.5353 C   0  0  0  0  0  0
   27.1224   36.4579   82.6816 C   0  0  0  0  0  0
   26.2413   35.4347   82.3406 C   0  0  0  0  0  0
   24.9296   35.4210   82.8122 C   0  0  0  0  0  0
   22.4933   38.2489   85.8075 N   0  0  0  0  0  0
   21.1265   37.9210   85.8481 C   0  0  0  0  0  0
   20.1838   38.8987   85.4770 C   0  0  0  0  0  0
   18.8190   38.6365   85.6077 C   0  0  0  0  0  0
   18.3796   37.4208   86.1178 C   0  0  0  0  0  0
   19.3074   36.4520   86.4897 C   0  0  0  0  0  0
   20.6748   36.6889   86.3635 C   0  0  0  0  0  0
   20.6062   40.2494   84.9124 C   0  0  0  0  0  0
   21.7497   35.4352   86.8869 Cl  0  0  0  0  0  0
   27.1620   38.6446   86.0644 H   0  0  0  0  0  0
   24.1804   42.4844   86.2841 H   0  0  0  0  0  0
   28.8081   40.0449   87.2845 H   0  0  0  0  0  0
   28.4003   41.7062   87.6865 H   0  0  0  0  0  0
   27.4472   38.2850   83.7817 H   0  0  0  0  0  0
   28.1237   36.4372   82.2710 H   0  0  0  0  0  0
   26.5875   34.6499   81.6857 H   0  0  0  0  0  0
   24.2352   34.6479   82.5098 H   0  0  0  0  0  0
   22.6817   39.1585   86.2045 H   0  0  0  0  0  0
   18.0877   39.3829   85.3310 H   0  0  0  0  0  0
   17.3194   37.2348   86.2217 H   0  0  0  0  0  0
   18.9594   35.5086   86.8865 H   0  0  0  0  0  0
   21.0520   40.8690   85.6899 H   0  0  0  0  0  0
   21.3428   40.1227   84.1169 H   0  0  0  0  0  0
   19.7602   40.7817   84.4822 H   0  0  0  0  0  0
  1  6  1  0  0  0
  1  2  2  0  0  0
  2  7  1  0  0  0
  2  3  1  0  0  0
  3  4  2  0  0  0
  3 26  1  0  0  0
  4  5  1  0  0  0
  4  8  1  0  0  0
  5  6  2  0  0  0
  6 27  1  0  0  0
  7 28  1  0  0  0
  7 29  1  0  0  0
  8 12  1  0  0  0
  8 10  1  0  0  0
  9 11  1  0  0  0
  9 10  2  0  0  0
 10 17  1  0  0  0
 11 12  2  0  0  0
 11 16  1  0  0  0
 12 13  1  0  0  0
 13 14  2  0  0  0
 13 30  1  0  0  0
 14 15  1  0  0  0
 14 31  1  0  0  0
 15 16  2  0  0  0
 15 32  1  0  0  0
 16 33  1  0  0  0
 17 18  1  0  0  0
 17 34  1  0  0  0
 18 19  2  0  0  0
 18 23  1  0  0  0
 19 20  1  0  0  0
 19 24  1  0  0  0
 20 21  2  0  0  0
 20 35  1  0  0  0
 21 22  1  0  0  0
 21 36  1  0  0  0
 22 23  2  0  0  0
 22 37  1  0  0  0
 23 25  1  0  0  0
 24 38  1  0  0  0
 24 39  1  0  0  0
 24 40  1  0  0  0
M  END
> <s_m_entry_id>
4802

> <s_m_entry_name>
dock_pv.290

> <s_m_Source_Path>
/home/csk/Desktop/cluster/DUD-E-result/lck

> <s_m_Source_File>
dock_pv.maegz

> <i_m_Source_File_Index>
290

> <chembl_id>
CHEMBL516276

> <chembl_pref_name>
None

> <i_lp_mmshare_version>
53161

> <i_f3d_flags>
0

> <r_lp_tautomer_probability>
1

> <s_lp_Force_Field>
OPLS_2005

> <r_lp_Energy>
19.977599

> <b_lp_Chiralities_Consistent>
1

> <s_lp_Variant>
CHEMBL258_lig1137-1

> <s_i_glide_gridfile>
glide-grid_2of2

> <i_i_glide_lignum>
1225

> <i_i_glide_rotatable_bonds>
3

> <r_i_docking_score>
-6.84071791571527

> <r_i_glide_ligand_efficiency>
-0.273628716628611

> <r_i_glide_ligand_efficiency_sa>
-0.80009522024801

> <r_i_glide_ligand_efficiency_ln>
-1.62145514579799

> <r_i_glide_gscore>
-6.84071791571527

> <r_i_glide_lipo>
-3.02580612358469

> <r_i_glide_hbond>
-0.32

> <r_i_glide_metal>
0

> <r_i_glide_rewards>
-1.67778019104491

> <r_i_glide_evdw>
-38.4497032165527

> <r_i_glide_ecoul>
-2.28067088127136

> <r_i_glide_erotb>
0.464765326819785

> <r_i_glide_esite>
-0.0173111348871117

> <r_i_glide_emodel>
-56.4939232118791

> <r_i_glide_energy>
-40.7303740978241

> <r_i_glide_einternal>
2.19172477722168

> <i_i_glide_confnum>
24

> <i_i_glide_posenum>
147

> <r_i_glide_eff_state_penalty>
0

> <s_user_duplicate_titles>
CHEMBL258_lig1137,490693

> <s_m_subgroup_title>
dock_pv

> <s_m_subgroupid>
dock_pv

> <b_m_subgroup_collapsed>
1

$$$$
CHEMBL258_lig474
                    3D
 Schrodinger Suite 2021-1.
 55 59  0  0  1  0            999 V2000
   26.5443   36.9589   83.4391 C   0  0  0  0  0  0
   27.1715   37.9916   84.1521 C   0  0  0  0  0  0
   25.1810   36.7722   83.6892 N   0  0  0  0  0  0
   26.4909   38.7431   85.0619 N   0  0  0  0  0  0
   24.4620   37.5340   84.5469 C   0  0  0  0  0  0
   28.5168   38.2974   83.8906 N   0  0  0  0  0  0
   25.1548   38.5690   85.2231 C   0  0  0  0  0  0
   23.0781   37.3305   84.7933 C   0  0  0  0  0  0
   25.7969   35.2438   82.1832 N   0  0  0  0  0  0
   29.2420   39.4483   84.2673 C   0  0  0  0  0  0
   21.0064   37.9200   85.9926 N   0  0  0  0  0  0
   24.7946   35.7196   82.8884 C   0  0  0  0  0  0
   22.3713   38.1525   85.6892 C   0  0  0  0  0  0
   26.8583   35.9590   82.4867 C   0  0  0  0  0  0
   18.2663   37.8966   84.1671 N   0  0  1  0  0  0
   28.7056   40.7413   84.0777 C   0  0  0  0  0  0
   24.4387   39.4207   86.0872 C   0  0  0  0  0  0
   20.2841   36.8003   85.3630 C   0  0  0  0  0  0
   30.5655   39.3338   84.7480 C   0  0  0  0  0  0
   23.0816   39.1945   86.3163 C   0  0  0  0  0  0
   19.4713   37.0726   84.0784 C   0  0  0  0  0  0
   18.7050   39.0352   86.3878 C   0  0  0  0  0  0
   27.1877   41.0202   83.2906 Cl  0  0  0  0  0  0
   20.2260   39.0052   86.6099 C   0  0  0  0  0  0
   18.3146   39.1487   84.9094 C   0  0  0  0  0  0
   17.5271   38.0002   82.9149 C   0  0  0  0  0  0
   30.6906   41.7357   85.0316 C   0  0  0  0  0  0
   29.4187   41.8636   84.4871 C   0  0  0  0  0  0
   31.2680   40.4768   85.1417 C   0  0  0  0  0  0
   31.2941   37.9997   84.8292 C   0  0  0  0  0  0
   29.0127   37.6254   83.3249 H   0  0  0  0  0  0
   22.5831   36.5297   84.2707 H   0  0  0  0  0  0
   23.7800   35.3548   82.8583 H   0  0  0  0  0  0
   27.8134   35.7518   82.0241 H   0  0  0  0  0  0
   24.9630   40.2152   86.5981 H   0  0  0  0  0  0
   20.8960   35.9051   85.2604 H   0  0  0  0  0  0
   19.5915   36.4084   86.1096 H   0  0  0  0  0  0
   22.5920   39.8439   87.0248 H   0  0  0  0  0  0
   20.1763   37.5901   83.4255 H   0  0  0  0  0  0
   19.2799   36.1371   83.5566 H   0  0  0  0  0  0
   18.2512   38.1519   86.8423 H   0  0  0  0  0  0
   18.2985   39.8907   86.9269 H   0  0  0  0  0  0
   20.4091   39.0094   87.6849 H   0  0  0  0  0  0
   20.5583   39.9454   86.1666 H   0  0  0  0  0  0
   18.9949   39.8203   84.3894 H   0  0  0  0  0  0
   17.3353   39.6157   84.8785 H   0  0  0  0  0  0
   18.0780   38.5982   82.1873 H   0  0  0  0  0  0
   17.3540   37.0153   82.4840 H   0  0  0  0  0  0
   16.5513   38.4624   83.0754 H   0  0  0  0  0  0
   31.2405   42.6174   85.3211 H   0  0  0  0  0  0
   29.0041   42.8514   84.3418 H   0  0  0  0  0  0
   32.2726   40.3929   85.5292 H   0  0  0  0  0  0
   31.1281   37.4208   83.9221 H   0  0  0  0  0  0
   32.3748   38.1280   84.9185 H   0  0  0  0  0  0
   30.9501   37.4211   85.6859 H   0  0  0  0  0  0
  1  2  1  0  0  0
  1  3  1  0  0  0
  1 14  2  0  0  0
  2  4  2  0  0  0
  2  6  1  0  0  0
  3  5  1  0  0  0
  3 12  1  0  0  0
  4  7  1  0  0  0
  5  7  1  0  0  0
  5  8  2  0  0  0
  6 10  1  0  0  0
  6 31  1  0  0  0
  7 17  2  0  0  0
  8 13  1  0  0  0
  8 32  1  0  0  0
  9 14  1  0  0  0
  9 12  2  0  0  0
 10 16  1  0  0  0
 10 19  2  0  0  0
 11 13  1  0  0  0
 11 18  1  0  0  0
 11 24  1  0  0  0
 12 33  1  0  0  0
 13 20  2  0  0  0
 14 34  1  0  0  0
 15 21  1  0  0  0
 15 26  1  0  0  0
 15 25  1  0  0  0
 16 23  1  0  0  0
 16 28  2  0  0  0
 17 20  1  0  0  0
 17 35  1  0  0  0
 18 21  1  0  0  0
 18 36  1  0  0  0
 18 37  1  0  0  0
 19 29  1  0  0  0
 19 30  1  0  0  0
 20 38  1  0  0  0
 21 39  1  0  0  0
 21 40  1  0  0  0
 22 24  1  0  0  0
 22 25  1  0  0  0
 22 41  1  0  0  0
 22 42  1  0  0  0
 24 43  1  0  0  0
 24 44  1  0  0  0
 25 45  1  0  0  0
 25 46  1  0  0  0
 26 47  1  0  0  0
 26 48  1  0  0  0
 26 49  1  0  0  0
 27 29  2  0  0  0
 27 28  1  0  0  0
 27 50  1  0  0  0
 28 51  1  0  0  0
 29 52  1  0  0  0
 30 53  1  0  0  0
 30 54  1  0  0  0
 30 55  1  0  0  0
M  END
> <s_m_entry_id>
4803

> <s_m_entry_name>
dock_pv.291

> <s_m_Source_Path>
/home/csk/Desktop/cluster/DUD-E-result/lck

> <s_m_Source_File>
dock_pv.maegz

> <i_m_Source_File_Index>
291

> <chembl_id>
CHEMBL110783

> <chembl_pref_name>
None

> <i_lp_mmshare_version>
53161

> <i_f3d_flags>
0

> <r_lp_tautomer_probability>
1

> <s_lp_Force_Field>
OPLS_2005

> <r_lp_Energy>
86.557714

> <b_lp_Chiralities_Consistent>
1

> <s_lp_Variant>
CHEMBL258_lig474-1

> <s_i_glide_gridfile>
glide-grid_2of2

> <i_i_glide_lignum>
525

> <i_i_glide_rotatable_bonds>
3

> <r_i_docking_score>
-6.82995357577535

> <r_i_glide_ligand_efficiency>
-0.227665119192512

> <r_i_glide_ligand_efficiency_sa>
-0.70740845802482

> <r_i_glide_ligand_efficiency_ln>
-1.55183987072081

> <r_i_glide_gscore>
-6.82995357577535

> <r_i_glide_lipo>
-2.22684380236961

> <r_i_glide_hbond>
-0.227081296383023

> <r_i_glide_metal>
0

> <r_i_glide_rewards>
-2.33299726107508

> <r_i_glide_evdw>
-40.4886703491211

> <r_i_glide_ecoul>
-2.35854887962341

> <r_i_glide_erotb>
0.335184633451928

> <r_i_glide_esite>
0

> <r_i_glide_emodel>
-59.5365198424202

> <r_i_glide_energy>
-42.8472192287445

> <r_i_glide_einternal>
2.64962482452393

> <i_i_glide_confnum>
44

> <i_i_glide_posenum>
201

> <r_i_glide_eff_state_penalty>
0

> <s_user_duplicate_titles>
CHEMBL258_lig474

> <s_m_subgroup_title>
dock_pv

> <s_m_subgroupid>
dock_pv

> <b_m_subgroup_collapsed>
1

$$$$
CHEMBL258_lig1197
                    3D
 Schrodinger Suite 2021-1.
 55 60  0  0  1  0            999 V2000
   25.9069   37.8433   84.0729 C   0  0  0  0  0  0
   27.1417   38.1756   83.6376 C   0  0  0  0  0  0
   27.9282   39.4184   83.8396 C   0  0  0  0  0  0
   25.5910   36.5283   83.5708 C   0  0  0  0  0  0
   24.9640   38.6208   84.9347 C   0  0  0  0  0  0
   27.6741   37.0210   82.9483 C   0  0  0  0  0  0
   26.6679   36.1482   82.8864 N   0  0  0  0  0  0
   22.7599   39.3230   85.1773 C   0  0  0  0  0  0
   23.6807   38.5952   84.4958 N   0  0  0  0  0  0
   23.0496   40.1795   86.1945 N   0  0  0  0  0  0
   29.3140   39.4725   83.9199 C   0  0  0  0  0  0
   21.4126   39.0868   84.8880 N   0  0  0  0  0  0
   25.3486   39.3812   86.0848 C   0  0  0  0  0  0
   27.4813   40.7821   84.0829 C   0  0  0  0  0  0
   29.7240   40.7300   84.2787 N   0  0  0  0  0  0
   24.3359   40.2216   86.6385 C   0  0  0  0  0  0
   28.6338   41.5550   84.4292 C   0  0  0  0  0  0
   18.5670   38.5306   84.4215 N   0  0  0  0  0  0
   24.5726   35.8552   83.7168 O   0  0  0  0  0  0
   28.8037   36.8137   82.5057 O   0  0  0  0  0  0
   20.3178   39.9834   85.3196 C   0  0  0  0  0  0
   20.9506   38.1199   83.8647 C   0  0  0  0  0  0
   19.5655   37.4935   84.1499 C   0  0  0  0  0  0
   19.0013   39.2367   85.6242 C   0  0  0  0  0  0
   26.6336   39.3692   86.6864 C   0  0  0  0  0  0
   26.2356   41.4407   84.0830 C   0  0  0  0  0  0
   17.2665   37.9110   84.6429 C   0  0  0  0  0  0
   24.6720   41.1129   87.6860 C   0  0  0  0  0  0
   28.5550   42.8939   84.8296 C   0  0  0  0  0  0
   26.9401   40.2687   87.6989 C   0  0  0  0  0  0
   26.1525   42.7716   84.4894 C   0  0  0  0  0  0
   25.9714   41.1392   88.1919 C   0  0  0  0  0  0
   27.2898   43.4760   84.8641 C   0  0  0  0  0  0
   26.7492   35.2565   82.4253 H   0  0  0  0  0  0
   30.0523   38.6902   83.8048 H   0  0  0  0  0  0
   30.6920   40.9744   84.4271 H   0  0  0  0  0  0
   20.5969   40.5761   86.1897 H   0  0  0  0  0  0
   20.1400   40.7004   84.5180 H   0  0  0  0  0  0
   20.9107   38.6201   82.8987 H   0  0  0  0  0  0
   21.6670   37.3040   83.7587 H   0  0  0  0  0  0
   19.2498   36.9061   83.2881 H   0  0  0  0  0  0
   19.6391   36.7902   84.9838 H   0  0  0  0  0  0
   19.1510   38.5434   86.4553 H   0  0  0  0  0  0
   18.2320   39.9366   85.9491 H   0  0  0  0  0  0
   27.3978   38.7012   86.3190 H   0  0  0  0  0  0
   25.3404   40.9236   83.7847 H   0  0  0  0  0  0
   16.5094   38.6552   84.8866 H   0  0  0  0  0  0
   16.9501   37.4220   83.7227 H   0  0  0  0  0  0
   17.2835   37.1716   85.4458 H   0  0  0  0  0  0
   23.9153   41.7700   88.0901 H   0  0  0  0  0  0
   29.4355   43.4686   85.0701 H   0  0  0  0  0  0
   27.9469   40.2921   88.0878 H   0  0  0  0  0  0
   25.1924   43.2690   84.5026 H   0  0  0  0  0  0
   26.2290   41.8332   88.9790 H   0  0  0  0  0  0
   27.1921   44.5118   85.1589 H   0  0  0  0  0  0
  1  2  2  0  0  0
  1  4  1  0  0  0
  1  5  1  0  0  0
  2  3  1  0  0  0
  2  6  1  0  0  0
  3 11  2  0  0  0
  3 14  1  0  0  0
  4  7  1  0  0  0
  4 19  2  0  0  0
  5  9  2  0  0  0
  5 13  1  0  0  0
  6 20  2  0  0  0
  6  7  1  0  0  0
  7 34  1  0  0  0
  8  9  1  0  0  0
  8 12  1  0  0  0
  8 10  2  0  0  0
 10 16  1  0  0  0
 11 15  1  0  0  0
 11 35  1  0  0  0
 12 21  1  0  0  0
 12 22  1  0  0  0
 13 16  2  0  0  0
 13 25  1  0  0  0
 14 17  2  0  0  0
 14 26  1  0  0  0
 15 17  1  0  0  0
 15 36  1  0  0  0
 16 28  1  0  0  0
 17 29  1  0  0  0
 18 23  1  0  0  0
 18 27  1  0  0  0
 18 24  1  0  0  0
 21 24  1  0  0  0
 21 37  1  0  0  0
 21 38  1  0  0  0
 22 23  1  0  0  0
 22 39  1  0  0  0
 22 40  1  0  0  0
 23 41  1  0  0  0
 23 42  1  0  0  0
 24 43  1  0  0  0
 24 44  1  0  0  0
 25 30  2  0  0  0
 25 45  1  0  0  0
 26 31  2  0  0  0
 26 46  1  0  0  0
 27 47  1  0  0  0
 27 48  1  0  0  0
 27 49  1  0  0  0
 28 32  2  0  0  0
 28 50  1  0  0  0
 29 33  2  0  0  0
 29 51  1  0  0  0
 30 32  1  0  0  0
 30 52  1  0  0  0
 31 33  1  0  0  0
 31 53  1  0  0  0
 32 54  1  0  0  0
 33 55  1  0  0  0
M  END
> <s_m_entry_id>
4804

> <s_m_entry_name>
dock_pv.292

> <s_m_Source_Path>
/home/csk/Desktop/cluster/DUD-E-result/lck

> <s_m_Source_File>
dock_pv.maegz

> <i_m_Source_File_Index>
292

> <chembl_id>
CHEMBL565612

> <chembl_pref_name>
SOTRASTAURIN

> <i_lp_mmshare_version>
53161

> <i_f3d_flags>
0

> <r_lp_tautomer_probability>
1

> <s_lp_Force_Field>
OPLS_2005

> <r_lp_Energy>
43.039211

> <b_lp_Chiralities_Consistent>
1

> <s_lp_Variant>
CHEMBL258_lig1197-1

> <s_i_glide_gridfile>
glide-grid_2of2

> <i_i_glide_lignum>
1286

> <i_i_glide_rotatable_bonds>
3

> <r_i_docking_score>
-6.82340456163084

> <r_i_glide_ligand_efficiency>
-0.206769835200935

> <r_i_glide_ligand_efficiency_sa>
-0.663221344041591

> <r_i_glide_ligand_efficiency_ln>
-1.51748984480868

> <r_i_glide_gscore>
-6.82340456163084

> <r_i_glide_lipo>
-2.31142190388281

> <r_i_glide_hbond>
0

> <r_i_glide_metal>
0

> <r_i_glide_rewards>
-2.16656866324185

> <r_i_glide_evdw>
-40.4110412597656

> <r_i_glide_ecoul>
-4.12507057189941

> <r_i_glide_erotb>
0.311290489255702

> <r_i_glide_esite>
-0.0173918349886946

> <r_i_glide_emodel>
-58.8382625504437

> <r_i_glide_energy>
-44.536111831665

> <r_i_glide_einternal>
6.26708364486694

> <i_i_glide_confnum>
22

> <i_i_glide_posenum>
322

> <r_i_glide_eff_state_penalty>
0

> <s_user_duplicate_titles>
CHEMBL258_lig1197

> <s_m_subgroup_title>
dock_pv

> <s_m_subgroupid>
dock_pv

> <b_m_subgroup_collapsed>
1

$$$$
CHEMBL258_lig415
                    3D
 Schrodinger Suite 2021-1.
 55 59  0  0  1  0            999 V2000
   27.4459   37.4506   83.6025 C   0  0  0  0  0  0
   27.1069   38.5484   84.4014 C   0  0  0  0  0  0
   26.3940   36.6070   83.2412 N   0  0  0  0  0  0
   25.8299   38.7847   84.7998 N   0  0  0  0  0  0
   24.8487   37.9112   84.4572 C   0  0  0  0  0  0
   28.1318   39.4194   84.7757 N   0  0  0  0  0  0
   21.2490   37.3391   85.2580 N   0  0  0  0  0  0
   25.1138   36.7848   83.6379 C   0  0  0  0  0  0
   28.2761   35.7636   82.3811 N   0  0  0  0  0  0
   28.0550   40.7244   85.2862 C   0  0  0  0  0  0
   23.5439   38.1118   84.9532 C   0  0  0  0  0  0
   22.5058   37.2163   84.6579 C   0  0  0  0  0  0
   26.9706   35.6109   82.4875 C   0  0  0  0  0  0
   28.5912   36.8759   82.9990 C   0  0  0  0  0  0
   18.9495   39.1540   85.0842 N   0  0  1  0  0  0
   24.0605   35.9061   83.2870 C   0  0  0  0  0  0
   19.9899   36.9393   84.6034 C   0  0  0  0  0  0
   20.9081   38.3023   86.3213 C   0  0  0  0  0  0
   28.6077   41.7557   84.5079 C   0  0  0  0  0  0
   22.7844   36.1446   83.7961 C   0  0  0  0  0  0
   20.1695   39.5518   85.7785 C   0  0  2  0  0  0
   19.1886   38.1479   84.0562 C   0  0  1  0  0  0
   27.4249   41.0362   86.5110 C   0  0  0  0  0  0
   29.3958   41.4212   82.9970 Cl  0  0  0  0  0  0
   27.8920   43.3876   86.1416 C   0  0  0  0  0  0
   28.5229   43.0787   84.9404 C   0  0  0  0  0  0
   27.3503   42.3706   86.9237 C   0  0  0  0  0  0
   26.8698   39.9685   87.4475 C   0  0  0  0  0  0
   17.8865   37.6856   83.3996 C   0  0  0  0  0  0
   19.8760   40.5562   86.9000 C   0  0  0  0  0  0
   29.0068   39.2134   84.3185 H   0  0  0  0  0  0
   23.3850   38.9726   85.5826 H   0  0  0  0  0  0
   26.4087   34.7875   82.0803 H   0  0  0  0  0  0
   29.6148   37.2200   83.0329 H   0  0  0  0  0  0
   18.2055   38.8988   85.7211 H   0  0  0  0  0  0
   24.2376   35.0440   82.6594 H   0  0  0  0  0  0
   20.1888   36.2839   83.7588 H   0  0  0  0  0  0
   19.3969   36.3611   85.3137 H   0  0  0  0  0  0
   20.2901   37.7890   87.0599 H   0  0  0  0  0  0
   21.8021   38.6090   86.8615 H   0  0  0  0  0  0
   22.0228   35.4199   83.5557 H   0  0  0  0  0  0
   20.8187   40.0581   85.0615 H   0  0  0  0  0  0
   19.7969   38.6191   83.2856 H   0  0  0  0  0  0
   27.8307   44.4148   86.4686 H   0  0  0  0  0  0
   28.9494   43.8712   84.3421 H   0  0  0  0  0  0
   26.8746   42.6240   87.8603 H   0  0  0  0  0  0
   25.8073   39.8102   87.2682 H   0  0  0  0  0  0
   27.3980   39.0208   87.3403 H   0  0  0  0  0  0
   26.9913   40.2698   88.4852 H   0  0  0  0  0  0
   18.0789   37.1200   82.4905 H   0  0  0  0  0  0
   17.3484   37.0291   84.0818 H   0  0  0  0  0  0
   17.2376   38.5224   83.1377 H   0  0  0  0  0  0
   20.7971   40.9109   87.3631 H   0  0  0  0  0  0
   19.3473   41.4282   86.5152 H   0  0  0  0  0  0
   19.2565   40.1133   87.6804 H   0  0  0  0  0  0
  1  2  1  0  0  0
  1  3  1  0  0  0
  1 14  2  0  0  0
  2  4  2  0  0  0
  2  6  1  0  0  0
  3  8  1  0  0  0
  3 13  1  0  0  0
  4  5  1  0  0  0
  5  8  1  0  0  0
  5 11  2  0  0  0
  6 10  1  0  0  0
  6 31  1  0  0  0
  7 12  1  0  0  0
  7 17  1  0  0  0
  7 18  1  0  0  0
  8 16  2  0  0  0
  9 14  1  0  0  0
  9 13  2  0  0  0
 10 19  1  0  0  0
 10 23  2  0  0  0
 11 12  1  0  0  0
 11 32  1  0  0  0
 12 20  2  0  0  0
 13 33  1  0  0  0
 14 34  1  0  0  0
 15 21  1  0  0  0
 15 22  1  0  0  0
 15 35  1  0  0  0
 16 20  1  0  0  0
 16 36  1  0  0  0
 17 22  1  0  0  0
 17 37  1  0  0  0
 17 38  1  0  0  0
 18 21  1  0  0  0
 18 39  1  0  0  0
 18 40  1  0  0  0
 19 24  1  0  0  0
 19 26  2  0  0  0
 20 41  1  0  0  0
 21 30  1  0  0  0
 21 42  1  0  0  0
 22 29  1  0  0  0
 22 43  1  0  0  0
 23 27  1  0  0  0
 23 28  1  0  0  0
 25 27  2  0  0  0
 25 26  1  0  0  0
 25 44  1  0  0  0
 26 45  1  0  0  0
 27 46  1  0  0  0
 28 47  1  0  0  0
 28 48  1  0  0  0
 28 49  1  0  0  0
 29 50  1  0  0  0
 29 51  1  0  0  0
 29 52  1  0  0  0
 30 53  1  0  0  0
 30 54  1  0  0  0
 30 55  1  0  0  0
M  END
> <s_m_entry_id>
4805

> <s_m_entry_name>
dock_pv.293

> <s_m_Source_Path>
/home/csk/Desktop/cluster/DUD-E-result/lck

> <s_m_Source_File>
dock_pv.maegz

> <i_m_Source_File_Index>
293

> <chembl_id>
CHEMBL322600

> <chembl_pref_name>
None

> <i_lp_mmshare_version>
53161

> <i_f3d_flags>
0

> <r_lp_tautomer_probability>
1

> <s_lp_Force_Field>
OPLS_2005

> <r_lp_Energy>
85.267484

> <b_lp_Chiralities_Consistent>
1

> <s_lp_Variant>
CHEMBL258_lig415-2

> <s_i_glide_gridfile>
glide-grid_2of2

> <i_i_glide_lignum>
459

> <i_i_glide_rotatable_bonds>
3

> <r_i_docking_score>
-6.82039789874935

> <r_i_glide_ligand_efficiency>
-0.227346596624978

> <r_i_glide_ligand_efficiency_sa>
-0.706418734350223

> <r_i_glide_ligand_efficiency_ln>
-1.54966871678306

> <r_i_glide_gscore>
-6.82039789874935

> <r_i_glide_lipo>
-3.05837602233443

> <r_i_glide_hbond>
0

> <r_i_glide_metal>
0

> <r_i_glide_rewards>
-1.90947873071684

> <r_i_glide_evdw>
-40.2131423950195

> <r_i_glide_ecoul>
-1.18047106266022

> <r_i_glide_erotb>
0.335184633451929

> <r_i_glide_esite>
0

> <r_i_glide_emodel>
-56.9876979056281

> <r_i_glide_energy>
-41.3936134576797

> <r_i_glide_einternal>
1.95682311058044

> <i_i_glide_confnum>
51

> <i_i_glide_posenum>
250

> <r_i_glide_eff_state_penalty>
0

> <s_user_duplicate_titles>
CHEMBL258_lig415

> <s_m_subgroup_title>
dock_pv

> <s_m_subgroupid>
dock_pv

> <b_m_subgroup_collapsed>
1

$$$$
CHEMBL258_lig119
                    3D
 Schrodinger Suite 2021-1.
 32 34  0  0  1  0            999 V2000
   24.0943   36.8207   83.7896 C   0  0  0  0  0  0
   24.9416   35.9618   82.9454 C   0  0  0  0  0  0
   26.3166   36.4829   83.0599 C   0  0  0  0  0  0
   26.3440   37.6090   83.8719 C   0  0  0  0  0  0
   22.7557   36.6210   83.9102 C   0  0  0  0  0  0
   19.8659   38.9343   86.1150 C   0  0  0  0  0  0
   24.9669   37.9135   84.3835 C   0  0  0  0  0  0
   19.5279   38.3377   84.8948 C   0  0  0  0  0  0
   21.1548   38.7564   86.6310 C   0  0  0  0  0  0
   21.7748   37.4043   84.7042 C   0  0  0  0  0  0
   27.4910   35.9892   82.4870 C   0  0  0  0  0  0
   20.4753   37.5717   84.2084 C   0  0  0  0  0  0
   22.0933   37.9982   85.9305 C   0  0  0  0  0  0
   27.5537   38.2627   84.1159 C   0  0  0  0  0  0
   24.5438   35.0210   82.2620 O   0  0  0  0  0  0
   28.7350   37.7641   83.5628 C   0  0  0  0  0  0
   17.7912   38.5650   84.1356 Br  0  0  0  0  0  0
   21.6730   39.5453   88.2873 Br  0  0  0  0  0  0
   18.9500   39.6896   86.8082 O   0  0  0  0  0  0
   28.7051   36.6211   82.7598 C   0  0  0  0  0  0
   29.9451   38.4052   83.8113 N   0  0  0  0  0  0
   22.3182   35.7824   83.3819 H   0  0  0  0  0  0
   24.6305   38.9057   84.0786 H   0  0  0  0  0  0
   24.9844   37.8959   85.4698 H   0  0  0  0  0  0
   27.4833   35.1106   81.8574 H   0  0  0  0  0  0
   20.1931   37.1126   83.2747 H   0  0  0  0  0  0
   23.0660   37.8672   86.3696 H   0  0  0  0  0  0
   27.5827   39.1411   84.7436 H   0  0  0  0  0  0
   18.0395   39.6306   86.4870 H   0  0  0  0  0  0
   29.6146   36.2288   82.3280 H   0  0  0  0  0  0
   30.8004   37.9894   83.4721 H   0  0  0  0  0  0
   29.9713   39.1778   84.4612 H   0  0  0  0  0  0
  1  2  1  0  0  0
  1  5  2  0  0  0
  1  7  1  0  0  0
  2  3  1  0  0  0
  2 15  2  0  0  0
  3 11  2  0  0  0
  3  4  1  0  0  0
  4  7  1  0  0  0
  4 14  2  0  0  0
  5 10  1  0  0  0
  5 22  1  0  0  0
  6  9  1  0  0  0
  6 19  1  0  0  0
  6  8  2  0  0  0
  7 23  1  0  0  0
  7 24  1  0  0  0
  8 12  1  0  0  0
  8 17  1  0  0  0
  9 13  2  0  0  0
  9 18  1  0  0  0
 10 12  2  0  0  0
 10 13  1  0  0  0
 11 20  1  0  0  0
 11 25  1  0  0  0
 12 26  1  0  0  0
 13 27  1  0  0  0
 14 16  1  0  0  0
 14 28  1  0  0  0
 16 21  1  0  0  0
 16 20  2  0  0  0
 19 29  1  0  0  0
 20 30  1  0  0  0
 21 31  1  0  0  0
 21 32  1  0  0  0
M  END
> <s_m_entry_id>
4806

> <s_m_entry_name>
dock_pv.294

> <s_m_Source_Path>
/home/csk/Desktop/cluster/DUD-E-result/lck

> <s_m_Source_File>
dock_pv.maegz

> <i_m_Source_File_Index>
294

> <chembl_id>
CHEMBL86228

> <chembl_pref_name>
None

> <i_lp_mmshare_version>
53161

> <i_f3d_flags>
0

> <r_lp_tautomer_probability>
1

> <s_lp_Force_Field>
OPLS_2005

> <r_lp_Energy>
27.34023

> <b_lp_Chiralities_Consistent>
1

> <s_lp_Variant>
CHEMBL258_lig119-1

> <s_i_glide_gridfile>
glide-grid_2of2

> <i_i_glide_lignum>
140

> <i_i_glide_rotatable_bonds>
2

> <r_i_docking_score>
-6.81803397755273

> <r_i_glide_ligand_efficiency>
-0.324668284645368

> <r_i_glide_ligand_efficiency_sa>
-0.895735178903264

> <r_i_glide_ligand_efficiency_ln>
-1.68574512381503

> <r_i_glide_gscore>
-6.81803397755273

> <r_i_glide_lipo>
-3.03000647498849

> <r_i_glide_hbond>
-0.238160629505706

> <r_i_glide_metal>
0

> <r_i_glide_rewards>
-1.115173682297

> <r_i_glide_evdw>
-34.0933380126953

> <r_i_glide_ecoul>
-5.6511664390564

> <r_i_glide_erotb>
0.117648675731699

> <r_i_glide_esite>
0

> <r_i_glide_emodel>
-56.4102773520204

> <r_i_glide_energy>
-39.7445044517517

> <r_i_glide_einternal>
0.871054649353027

> <i_i_glide_confnum>
1

> <i_i_glide_posenum>
59

> <r_i_glide_eff_state_penalty>
0

> <s_user_duplicate_titles>
CHEMBL258_lig119

> <s_m_subgroup_title>
dock_pv

> <s_m_subgroupid>
dock_pv

> <b_m_subgroup_collapsed>
1

$$$$
CHEMBL258_lig835
                    3D
 Schrodinger Suite 2021-1.
 41 44  0  0  1  0            999 V2000
   24.5634   41.4210   84.5270 N   0  0  0  0  0  0
   23.2393   41.6055   84.7576 C   0  0  0  0  0  0
   22.3574   40.5422   84.9647 C   0  0  0  0  0  0
   22.8942   39.2488   84.8946 C   0  0  0  0  0  0
   24.2129   39.0368   84.6635 N   0  0  0  0  0  0
   24.9989   40.1311   84.4873 C   0  0  0  0  0  0
   26.3794   39.9091   84.2535 N   0  0  0  0  0  0
   27.4024   40.8139   84.4797 C   0  0  0  0  0  0
   28.6005   40.3749   84.2048 N   0  0  0  0  0  0
   27.0078   38.7742   83.7482 C   0  0  0  0  0  0
   28.3921   39.1020   83.7577 C   0  0  0  0  0  0
   29.3415   38.1627   83.3321 C   0  0  0  0  0  0
   28.8870   36.9215   82.8872 C   0  0  0  0  0  0
   27.5259   36.6214   82.8556 C   0  0  0  0  0  0
   26.5553   37.5286   83.2863 C   0  0  0  0  0  0
   22.1568   38.0762   85.1019 N   0  0  0  0  0  0
   20.8048   37.8332   85.3947 C   0  0  0  0  0  0
   19.7838   38.5624   84.7744 C   0  0  0  0  0  0
   18.4509   38.3360   85.1115 C   0  0  0  0  0  0
   18.1290   37.4097   86.0949 C   0  0  0  0  0  0
   19.1289   36.6245   86.6657 C   0  0  0  0  0  0
   20.4663   36.8118   86.3033 C   0  0  0  0  0  0
   21.5177   35.8748   86.8870 C   0  0  0  0  0  0
   17.4483   39.0216   84.4869 O   0  0  0  0  0  0
   22.7765   42.9166   84.7729 N   0  0  0  0  0  0
   21.3175   40.7251   85.1791 H   0  0  0  0  0  0
   27.1756   41.7965   84.8693 H   0  0  0  0  0  0
   30.3961   38.3944   83.3435 H   0  0  0  0  0  0
   29.5987   36.1843   82.5430 H   0  0  0  0  0  0
   27.2191   35.6524   82.4893 H   0  0  0  0  0  0
   25.5079   37.2697   83.2569 H   0  0  0  0  0  0
   22.7386   37.2532   85.1285 H   0  0  0  0  0  0
   20.0192   39.2997   84.0242 H   0  0  0  0  0  0
   17.0979   37.2469   86.3730 H   0  0  0  0  0  0
   18.8586   35.8565   87.3756 H   0  0  0  0  0  0
   22.1552   35.4928   86.0908 H   0  0  0  0  0  0
   22.1498   36.3962   87.6058 H   0  0  0  0  0  0
   21.0735   34.9942   87.3528 H   0  0  0  0  0  0
   16.7367   39.2243   85.1168 H   0  0  0  0  0  0
   21.8025   43.1270   84.9529 H   0  0  0  0  0  0
   23.4199   43.6684   84.5636 H   0  0  0  0  0  0
  1  6  1  0  0  0
  1  2  2  0  0  0
  2  3  1  0  0  0
  2 25  1  0  0  0
  3  4  2  0  0  0
  3 26  1  0  0  0
  4 16  1  0  0  0
  4  5  1  0  0  0
  5  6  2  0  0  0
  6  7  1  0  0  0
  7  8  1  0  0  0
  7 10  1  0  0  0
  8  9  2  0  0  0
  8 27  1  0  0  0
  9 11  1  0  0  0
 10 15  1  0  0  0
 10 11  2  0  0  0
 11 12  1  0  0  0
 12 13  2  0  0  0
 12 28  1  0  0  0
 13 14  1  0  0  0
 13 29  1  0  0  0
 14 15  2  0  0  0
 14 30  1  0  0  0
 15 31  1  0  0  0
 16 17  1  0  0  0
 16 32  1  0  0  0
 17 18  2  0  0  0
 17 22  1  0  0  0
 18 19  1  0  0  0
 18 33  1  0  0  0
 19 20  2  0  0  0
 19 24  1  0  0  0
 20 21  1  0  0  0
 20 34  1  0  0  0
 21 22  2  0  0  0
 21 35  1  0  0  0
 22 23  1  0  0  0
 23 36  1  0  0  0
 23 37  1  0  0  0
 23 38  1  0  0  0
 24 39  1  0  0  0
 25 40  1  0  0  0
 25 41  1  0  0  0
M  END
> <s_m_entry_id>
4807

> <s_m_entry_name>
dock_pv.295

> <s_m_Source_Path>
/home/csk/Desktop/cluster/DUD-E-result/lck

> <s_m_Source_File>
dock_pv.maegz

> <i_m_Source_File_Index>
295

> <chembl_id>
CHEMBL375363

> <chembl_pref_name>
None

> <i_lp_mmshare_version>
53161

> <i_f3d_flags>
0

> <r_lp_tautomer_probability>
1

> <s_lp_Force_Field>
OPLS_2005

> <r_lp_Energy>
13.294416

> <b_lp_Chiralities_Consistent>
1

> <s_lp_Variant>
CHEMBL258_lig835-1

> <s_i_glide_gridfile>
glide-grid_2of2

> <i_i_glide_lignum>
920

> <i_i_glide_rotatable_bonds>
4

> <r_i_docking_score>
-6.81640107666435

> <r_i_glide_ligand_efficiency>
-0.272656043066574

> <r_i_glide_ligand_efficiency_sa>
-0.797251105502176

> <r_i_glide_ligand_efficiency_ln>
-1.61569132622606

> <r_i_glide_gscore>
-6.81640107666435

> <r_i_glide_lipo>
-2.3958296689487

> <r_i_glide_hbond>
-0.40349192265772

> <r_i_glide_metal>
0

> <r_i_glide_rewards>
-1.55621133281499

> <r_i_glide_evdw>
-35.9850425720215

> <r_i_glide_ecoul>
-7.41945648193359

> <r_i_glide_erotb>
0.511487279113436

> <r_i_glide_esite>
-0.0601848304652601

> <r_i_glide_emodel>
-59.5508213516856

> <r_i_glide_energy>
-43.4044990539551

> <r_i_glide_einternal>
4.81217193603516

> <i_i_glide_confnum>
7

> <i_i_glide_posenum>
266

> <r_i_glide_eff_state_penalty>
0

> <s_user_duplicate_titles>
CHEMBL258_lig835,368654

> <s_m_subgroup_title>
dock_pv

> <s_m_subgroupid>
dock_pv

> <b_m_subgroup_collapsed>
1

$$$$
CHEMBL258_lig223
                    3D
 Schrodinger Suite 2021-1.
 42 45  0  0  1  0            999 V2000
   22.4222   37.0864   84.3560 C   0  0  0  0  0  0
   23.4880   36.4646   83.6871 C   0  0  0  0  0  0
   24.7599   36.9869   83.9382 N   0  0  0  0  0  0
   22.6117   38.1628   85.1613 N   0  0  0  0  0  0
   23.8664   38.6684   85.3524 C   0  0  0  0  0  0
   24.9954   38.0462   84.7460 C   0  0  0  0  0  0
   21.1143   36.6440   84.1365 N   0  0  0  0  0  0
   25.0013   35.3025   82.4867 N   0  0  0  0  0  0
   19.9752   36.8852   84.9263 C   0  0  0  0  0  0
   24.0633   39.8207   86.1803 C   0  0  0  0  0  0
   25.6296   36.2211   83.1899 C   0  0  0  0  0  0
   23.7188   35.4210   82.7556 C   0  0  0  0  0  0
   22.9150   40.4503   86.7134 N   0  0  0  0  0  0
   22.8063   41.4049   87.6587 C   0  0  0  0  0  0
   18.9042   37.6303   84.4029 C   0  0  0  0  0  0
   19.8765   36.3579   86.2316 C   0  0  0  0  0  0
   23.7354   41.8511   88.3293 O   0  0  0  0  0  0
   18.9121   38.2195   82.7788 Cl  0  0  0  0  0  0
   26.3016   38.5442   84.9883 C   0  0  0  0  0  0
   25.3727   40.2822   86.3945 C   0  0  0  0  0  0
   26.4683   39.6490   85.8153 C   0  0  0  0  0  0
   17.7045   37.4037   86.4857 C   0  0  0  0  0  0
   21.3969   41.9272   87.9132 C   0  0  0  0  0  0
   17.7821   37.8929   85.1870 C   0  0  0  0  0  0
   18.7352   36.6207   86.9943 C   0  0  0  0  0  0
   20.9330   35.4199   86.8103 C   0  0  0  0  0  0
   21.0365   35.8458   83.5261 H   0  0  0  0  0  0
   26.6945   36.3933   83.1764 H   0  0  0  0  0  0
   22.9927   34.7694   82.2908 H   0  0  0  0  0  0
   22.0556   40.0860   86.3274 H   0  0  0  0  0  0
   27.1673   38.0783   84.5407 H   0  0  0  0  0  0
   25.5698   41.1536   86.9984 H   0  0  0  0  0  0
   27.4614   40.0327   86.0002 H   0  0  0  0  0  0
   16.8304   37.6126   87.0856 H   0  0  0  0  0  0
   20.6521   41.4131   87.3055 H   0  0  0  0  0  0
   21.1329   41.8038   88.9622 H   0  0  0  0  0  0
   21.3507   42.9911   87.6747 H   0  0  0  0  0  0
   16.9623   38.4786   84.7948 H   0  0  0  0  0  0
   18.6353   36.2097   87.9884 H   0  0  0  0  0  0
   20.4987   34.7180   87.5245 H   0  0  0  0  0  0
   21.3599   34.7902   86.0313 H   0  0  0  0  0  0
   21.7388   35.9802   87.2846 H   0  0  0  0  0  0
  1  2  1  0  0  0
  1  4  2  0  0  0
  1  7  1  0  0  0
  2  3  1  0  0  0
  2 12  2  0  0  0
  3 11  1  0  0  0
  3  6  1  0  0  0
  4  5  1  0  0  0
  5  6  1  0  0  0
  5 10  2  0  0  0
  6 19  2  0  0  0
  7  9  1  0  0  0
  7 27  1  0  0  0
  8 12  1  0  0  0
  8 11  2  0  0  0
  9 15  2  0  0  0
  9 16  1  0  0  0
 10 13  1  0  0  0
 10 20  1  0  0  0
 11 28  1  0  0  0
 12 29  1  0  0  0
 13 14  1  0  0  0
 13 30  1  0  0  0
 14 17  2  0  0  0
 14 23  1  0  0  0
 15 18  1  0  0  0
 15 24  1  0  0  0
 16 25  2  0  0  0
 16 26  1  0  0  0
 19 21  1  0  0  0
 19 31  1  0  0  0
 20 21  2  0  0  0
 20 32  1  0  0  0
 21 33  1  0  0  0
 22 25  1  0  0  0
 22 24  2  0  0  0
 22 34  1  0  0  0
 23 35  1  0  0  0
 23 36  1  0  0  0
 23 37  1  0  0  0
 24 38  1  0  0  0
 25 39  1  0  0  0
 26 40  1  0  0  0
 26 41  1  0  0  0
 26 42  1  0  0  0
M  END
> <s_m_entry_id>
4808

> <s_m_entry_name>
dock_pv.296

> <s_m_Source_Path>
/home/csk/Desktop/cluster/DUD-E-result/lck

> <s_m_Source_File>
dock_pv.maegz

> <i_m_Source_File_Index>
296

> <chembl_id>
CHEMBL85637

> <chembl_pref_name>
None

> <i_lp_mmshare_version>
53161

> <i_f3d_flags>
0

> <r_lp_tautomer_probability>
1

> <s_lp_Force_Field>
OPLS_2005

> <r_lp_Energy>
64.213994

> <b_lp_Chiralities_Consistent>
1

> <s_lp_Variant>
CHEMBL258_lig223-1

> <s_i_glide_gridfile>
glide-grid_2of2

> <i_i_glide_lignum>
251

> <i_i_glide_rotatable_bonds>
4

> <r_i_docking_score>
-6.81370148188065

> <r_i_glide_ligand_efficiency>
-0.262065441610794

> <r_i_glide_ligand_efficiency_sa>
-0.776367839594259

> <r_i_glide_ligand_efficiency_ln>
-1.60017543544154

> <r_i_glide_gscore>
-6.81370148188065

> <r_i_glide_lipo>
-2.48531967825255

> <r_i_glide_hbond>
-0.0126541321041017

> <r_i_glide_metal>
0

> <r_i_glide_rewards>
-2.46158197778257

> <r_i_glide_evdw>
-38.3117828369141

> <r_i_glide_ecoul>
-2.39105486869812

> <r_i_glide_erotb>
0.431330697678282

> <r_i_glide_esite>
-0.0112290192692992

> <r_i_glide_emodel>
-57.6085315155079

> <r_i_glide_energy>
-40.7028377056122

> <r_i_glide_einternal>
1.83601999282837

> <i_i_glide_confnum>
1

> <i_i_glide_posenum>
126

> <r_i_glide_eff_state_penalty>
0

> <s_user_duplicate_titles>
CHEMBL258_lig223,136989

> <s_m_subgroup_title>
dock_pv

> <s_m_subgroupid>
dock_pv

> <b_m_subgroup_collapsed>
1

$$$$
CHEMBL258_lig236
                    3D
 Schrodinger Suite 2021-1.
 48 52  0  0  1  0            999 V2000
   22.4145   37.0601   84.3116 C   0  0  0  0  0  0
   23.5168   36.4590   83.6871 C   0  0  0  0  0  0
   22.5605   38.1276   85.1279 N   0  0  0  0  0  0
   24.7669   37.0096   83.9908 N   0  0  0  0  0  0
   23.7876   38.6437   85.4146 C   0  0  0  0  0  0
   24.9489   38.0629   84.8248 C   0  0  0  0  0  0
   21.1111   36.6209   84.0617 N   0  0  0  0  0  0
   23.9164   39.7814   86.2918 C   0  0  0  0  0  0
   25.0990   35.3478   82.5278 N   0  0  0  0  0  0
   19.9727   36.8631   84.8563 C   0  0  0  0  0  0
   22.8025   40.4000   86.8798 N   0  0  0  0  0  0
   25.6791   36.2760   83.2608 C   0  0  0  0  0  0
   23.8064   35.4211   82.7643 C   0  0  0  0  0  0
   18.9067   37.6245   84.3455 C   0  0  0  0  0  0
   19.8823   36.3450   86.1667 C   0  0  0  0  0  0
   20.5361   41.5499   88.2343 O   0  0  0  0  0  0
   18.9065   38.2210   82.7242 Cl  0  0  0  0  0  0
   26.2312   38.5964   85.1080 C   0  0  0  0  0  0
   25.2110   40.2729   86.5233 C   0  0  0  0  0  0
   21.8170   39.6142   87.6509 C   0  0  0  0  0  0
   22.8609   41.7414   87.4926 C   0  0  0  0  0  0
   26.3407   39.6923   85.9547 C   0  0  0  0  0  0
   17.7292   37.4202   86.4451 C   0  0  0  0  0  0
   17.7993   37.9067   85.1446 C   0  0  0  0  0  0
   18.7536   36.6221   86.9418 C   0  0  0  0  0  0
   21.4612   42.4005   87.5639 C   0  0  0  0  0  0
   20.4346   40.2905   87.5872 C   0  0  0  0  0  0
   20.9387   35.4099   86.7482 C   0  0  0  0  0  0
   21.0371   35.8259   83.4470 H   0  0  0  0  0  0
   26.7388   36.4762   83.2851 H   0  0  0  0  0  0
   23.1106   34.7542   82.2738 H   0  0  0  0  0  0
   27.1222   38.1672   84.6735 H   0  0  0  0  0  0
   25.3643   41.1209   87.1733 H   0  0  0  0  0  0
   21.7094   38.5924   87.2992 H   0  0  0  0  0  0
   22.1494   39.5269   88.6859 H   0  0  0  0  0  0
   23.3228   41.6895   88.4798 H   0  0  0  0  0  0
   23.4903   42.3876   86.8794 H   0  0  0  0  0  0
   27.3160   40.1036   86.1731 H   0  0  0  0  0  0
   16.8672   37.6455   87.0567 H   0  0  0  0  0  0
   16.9846   38.5060   84.7630 H   0  0  0  0  0  0
   18.6636   36.2155   87.9387 H   0  0  0  0  0  0
   21.5151   43.3525   88.0930 H   0  0  0  0  0  0
   21.0985   42.6210   86.5582 H   0  0  0  0  0  0
   19.6836   39.6877   88.0871 H   0  0  0  0  0  0
   20.0930   40.4025   86.5545 H   0  0  0  0  0  0
   21.3513   34.7651   85.9731 H   0  0  0  0  0  0
   21.7523   35.9740   87.2048 H   0  0  0  0  0  0
   20.5077   34.7261   87.4823 H   0  0  0  0  0  0
  1  2  1  0  0  0
  1  3  2  0  0  0
  1  7  1  0  0  0
  2  4  1  0  0  0
  2 13  2  0  0  0
  3  5  1  0  0  0
  4 12  1  0  0  0
  4  6  1  0  0  0
  5  6  1  0  0  0
  5  8  2  0  0  0
  6 18  2  0  0  0
  7 10  1  0  0  0
  7 29  1  0  0  0
  8 11  1  0  0  0
  8 19  1  0  0  0
  9 13  1  0  0  0
  9 12  2  0  0  0
 10 14  2  0  0  0
 10 15  1  0  0  0
 11 20  1  0  0  0
 11 21  1  0  0  0
 12 30  1  0  0  0
 13 31  1  0  0  0
 14 17  1  0  0  0
 14 24  1  0  0  0
 15 25  2  0  0  0
 15 28  1  0  0  0
 16 26  1  0  0  0
 16 27  1  0  0  0
 18 22  1  0  0  0
 18 32  1  0  0  0
 19 22  2  0  0  0
 19 33  1  0  0  0
 20 27  1  0  0  0
 20 34  1  0  0  0
 20 35  1  0  0  0
 21 26  1  0  0  0
 21 36  1  0  0  0
 21 37  1  0  0  0
 22 38  1  0  0  0
 23 25  1  0  0  0
 23 24  2  0  0  0
 23 39  1  0  0  0
 24 40  1  0  0  0
 25 41  1  0  0  0
 26 42  1  0  0  0
 26 43  1  0  0  0
 27 44  1  0  0  0
 27 45  1  0  0  0
 28 46  1  0  0  0
 28 47  1  0  0  0
 28 48  1  0  0  0
M  END
> <s_m_entry_id>
4809

> <s_m_entry_name>
dock_pv.297

> <s_m_Source_Path>
/home/csk/Desktop/cluster/DUD-E-result/lck

> <s_m_Source_File>
dock_pv.maegz

> <i_m_Source_File_Index>
297

> <chembl_id>
CHEMBL314049

> <chembl_pref_name>
None

> <i_lp_mmshare_version>
53161

> <i_f3d_flags>
0

> <r_lp_tautomer_probability>
1

> <s_lp_Force_Field>
OPLS_2005

> <r_lp_Energy>
77.365809

> <b_lp_Chiralities_Consistent>
1

> <s_lp_Variant>
CHEMBL258_lig236-1

> <s_i_glide_gridfile>
glide-grid_2of2

> <i_i_glide_lignum>
264

> <i_i_glide_rotatable_bonds>
3

> <r_i_docking_score>
-6.81205548237709

> <r_i_glide_ligand_efficiency>
-0.243287695799182

> <r_i_glide_ligand_efficiency_sa>
-0.738764733236265

> <r_i_glide_ligand_efficiency_ln>
-1.5724224159726

> <r_i_glide_gscore>
-6.81205548237709

> <r_i_glide_lipo>
-2.50640852704744

> <r_i_glide_hbond>
-0.00857284232888446

> <r_i_glide_metal>
0

> <r_i_glide_rewards>
-2.29068271914215

> <r_i_glide_evdw>
-39.4387016296387

> <r_i_glide_ecoul>
-2.74873280525208

> <r_i_glide_erotb>
0.377853608411132

> <r_i_glide_esite>
0

> <r_i_glide_emodel>
-56.6826022264255

> <r_i_glide_energy>
-42.1874344348907

> <r_i_glide_einternal>
3.2620050907135

> <i_i_glide_confnum>
38

> <i_i_glide_posenum>
336

> <r_i_glide_eff_state_penalty>
0

> <s_user_duplicate_titles>
CHEMBL258_lig236,136922

> <s_m_subgroup_title>
dock_pv

> <s_m_subgroupid>
dock_pv

> <b_m_subgroup_collapsed>
1

$$$$
CHEMBL258_lig459
                    3D
 Schrodinger Suite 2021-1.
 55 58  0  0  1  0            999 V2000
   24.1221   36.4759   83.7877 C   0  0  0  0  0  0
   23.1451   36.9786   84.6626 C   0  0  0  0  0  0
   25.3275   37.1811   83.7313 N   0  0  0  0  0  0
   23.3434   38.1170   85.3780 N   0  0  0  0  0  0
   25.5769   38.3000   84.4477 C   0  0  0  0  0  0
   24.5345   38.7679   85.2869 C   0  0  0  0  0  0
   21.9456   36.2713   84.8231 N   0  0  0  0  0  0
   26.8123   38.9942   84.3969 C   0  0  0  0  0  0
   25.5033   35.4415   82.3371 N   0  0  0  0  0  0
   20.7427   36.6592   85.4491 C   0  0  0  0  0  0
   24.7559   39.9101   86.0812 C   0  0  0  0  0  0
   26.1229   36.4878   82.8428 C   0  0  0  0  0  0
   24.2983   35.4210   82.8622 C   0  0  0  0  0  0
   27.0161   40.1291   85.1995 C   0  0  0  0  0  0
   25.9875   40.5777   86.0505 C   0  0  0  0  0  0
   19.9978   37.7387   84.9563 C   0  0  0  0  0  0
   20.1961   35.8854   86.4871 C   0  0  0  0  0  0
   26.2493   41.6991   86.8647 N   0  0  0  0  0  0
   25.2754   41.8999   90.5293 N   0  0  0  0  0  0
   20.5495   38.6211   83.5932 Cl  0  0  0  0  0  0
   28.2078   40.8391   85.2062 O   0  0  0  0  0  0
   25.4497   42.0846   88.0266 C   0  0  0  0  0  0
   18.2463   37.3285   86.5649 C   0  0  0  0  0  0
   18.7709   38.0852   85.5229 C   0  0  0  0  0  0
   18.9500   36.2211   87.0339 C   0  0  0  0  0  0
   25.9150   41.3757   89.3167 C   0  0  0  0  0  0
   20.9240   34.6612   87.0188 C   0  0  0  0  0  0
   25.8811   41.3036   91.7181 C   0  0  0  0  0  0
   23.8299   41.6804   90.5534 C   0  0  0  0  0  0
   29.3072   40.3978   84.4157 C   0  0  0  0  0  0
   21.8917   35.4025   84.3160 H   0  0  0  0  0  0
   27.5926   38.6299   83.7479 H   0  0  0  0  0  0
   23.9484   40.2313   86.7184 H   0  0  0  0  0  0
   27.1293   36.7902   82.6011 H   0  0  0  0  0  0
   23.5810   34.6658   82.5727 H   0  0  0  0  0  0
   27.2067   42.0246   86.8442 H   0  0  0  0  0  0
   24.3960   41.8900   87.8383 H   0  0  0  0  0  0
   25.5420   43.1666   88.1334 H   0  0  0  0  0  0
   17.2892   37.5928   86.9940 H   0  0  0  0  0  0
   18.2103   38.9277   85.1438 H   0  0  0  0  0  0
   18.5281   35.6225   87.8291 H   0  0  0  0  0  0
   26.9937   41.5136   89.4058 H   0  0  0  0  0  0
   25.7499   40.3001   89.2351 H   0  0  0  0  0  0
   20.2509   33.9683   87.5240 H   0  0  0  0  0  0
   21.3500   34.1292   86.1741 H   0  0  0  0  0  0
   21.7413   34.9425   87.6854 H   0  0  0  0  0  0
   25.4458   41.7167   92.6300 H   0  0  0  0  0  0
   26.9506   41.5149   91.7510 H   0  0  0  0  0  0
   25.7497   40.2207   91.7435 H   0  0  0  0  0  0
   23.3987   42.0622   91.4799 H   0  0  0  0  0  0
   23.3355   42.2076   89.7378 H   0  0  0  0  0  0
   23.5764   40.6225   90.4773 H   0  0  0  0  0  0
   30.1487   41.0766   84.5598 H   0  0  0  0  0  0
   29.6350   39.3988   84.7085 H   0  0  0  0  0  0
   29.0637   40.3994   83.3522 H   0  0  0  0  0  0
  1  2  1  0  0  0
  1  3  1  0  0  0
  1 13  2  0  0  0
  2  4  2  0  0  0
  2  7  1  0  0  0
  3  5  1  0  0  0
  3 12  1  0  0  0
  4  6  1  0  0  0
  5  6  1  0  0  0
  5  8  2  0  0  0
  6 11  2  0  0  0
  7 10  1  0  0  0
  7 31  1  0  0  0
  8 14  1  0  0  0
  8 32  1  0  0  0
  9 13  1  0  0  0
  9 12  2  0  0  0
 10 16  1  0  0  0
 10 17  2  0  0  0
 11 15  1  0  0  0
 11 33  1  0  0  0
 12 34  1  0  0  0
 13 35  1  0  0  0
 14 15  2  0  0  0
 14 21  1  0  0  0
 15 18  1  0  0  0
 16 20  1  0  0  0
 16 24  2  0  0  0
 17 25  1  0  0  0
 17 27  1  0  0  0
 18 22  1  0  0  0
 18 36  1  0  0  0
 19 26  1  0  0  0
 19 28  1  0  0  0
 19 29  1  0  0  0
 21 30  1  0  0  0
 22 26  1  0  0  0
 22 37  1  0  0  0
 22 38  1  0  0  0
 23 25  2  0  0  0
 23 24  1  0  0  0
 23 39  1  0  0  0
 24 40  1  0  0  0
 25 41  1  0  0  0
 26 42  1  0  0  0
 26 43  1  0  0  0
 27 44  1  0  0  0
 27 45  1  0  0  0
 27 46  1  0  0  0
 28 47  1  0  0  0
 28 48  1  0  0  0
 28 49  1  0  0  0
 29 50  1  0  0  0
 29 51  1  0  0  0
 29 52  1  0  0  0
 30 53  1  0  0  0
 30 54  1  0  0  0
 30 55  1  0  0  0
M  END
> <s_m_entry_id>
4810

> <s_m_entry_name>
dock_pv.298

> <s_m_Source_Path>
/home/csk/Desktop/cluster/DUD-E-result/lck

> <s_m_Source_File>
dock_pv.maegz

> <i_m_Source_File_Index>
298

> <chembl_id>
CHEMBL108362

> <chembl_pref_name>
None

> <i_lp_mmshare_version>
53161

> <i_f3d_flags>
0

> <r_lp_tautomer_probability>
1

> <s_lp_Force_Field>
OPLS_2005

> <r_lp_Energy>
74.985902

> <b_lp_Chiralities_Consistent>
1

> <s_lp_Variant>
CHEMBL258_lig459-1

> <s_i_glide_gridfile>
glide-grid_2of2

> <i_i_glide_lignum>
507

> <i_i_glide_rotatable_bonds>
7

> <r_i_docking_score>
-6.81069164223535

> <r_i_glide_ligand_efficiency>
-0.227023054741178

> <r_i_glide_ligand_efficiency_sa>
-0.705413414492981

> <r_i_glide_ligand_efficiency_ln>
-1.54746334954494

> <r_i_glide_gscore>
-6.81069164223535

> <r_i_glide_lipo>
-3.02994520808184

> <r_i_glide_hbond>
-0.055690717926548

> <r_i_glide_metal>
0

> <r_i_glide_rewards>
-2.08020481585726

> <r_i_glide_evdw>
-41.4056434631348

> <r_i_glide_ecoul>
-0.825072586536407

> <r_i_glide_erotb>
0.549192160767503

> <r_i_glide_esite>
0

> <r_i_glide_emodel>
-57.3499869872894

> <r_i_glide_energy>
-42.2307160496712

> <r_i_glide_einternal>
5.74969482421875

> <i_i_glide_confnum>
134

> <i_i_glide_posenum>
282

> <r_i_glide_eff_state_penalty>
0

> <s_user_duplicate_titles>
CHEMBL258_lig459

> <s_m_subgroup_title>
dock_pv

> <s_m_subgroupid>
dock_pv

> <b_m_subgroup_collapsed>
1

$$$$
CHEMBL258_lig420
                    3D
 Schrodinger Suite 2021-1.
 55 59  0  0  1  0            999 V2000
   23.6980   36.4709   83.6947 C   0  0  0  0  0  0
   22.6761   36.9869   84.5118 C   0  0  0  0  0  0
   24.9279   37.1372   83.7499 N   0  0  0  0  0  0
   22.8552   38.0969   85.2710 N   0  0  0  0  0  0
   25.1575   38.2247   84.5218 C   0  0  0  0  0  0
   21.4489   36.3225   84.6003 N   0  0  0  0  0  0
   27.8578   40.5543   85.6533 N   0  0  0  0  0  0
   24.0646   38.7048   85.2874 C   0  0  0  0  0  0
   26.4202   38.8691   84.6155 C   0  0  0  0  0  0
   25.1584   35.4215   82.3324 N   0  0  0  0  0  0
   20.3060   36.6715   85.3468 C   0  0  0  0  0  0
   26.6083   39.9490   85.4969 C   0  0  0  0  0  0
   25.7679   36.4395   82.9071 C   0  0  0  0  0  0
   23.9154   35.4212   82.7654 C   0  0  0  0  0  0
   30.1376   42.2211   84.8867 N   0  0  1  0  0  0
   28.0750   41.9145   86.1893 C   0  0  0  0  0  0
   29.1523   40.0012   85.2045 C   0  0  0  0  0  0
   19.9679   35.9230   86.4871 C   0  0  0  0  0  0
   28.8615   42.8366   85.2298 C   0  0  1  0  0  0
   29.8988   40.9422   84.2258 C   0  0  2  0  0  0
   24.2537   39.8095   86.1368 C   0  0  0  0  0  0
   19.4872   37.7528   84.9714 C   0  0  0  0  0  0
   25.5095   40.3930   86.2481 C   0  0  0  0  0  0
   20.9653   34.6210   87.0407 Cl  0  0  0  0  0  0
   17.9997   37.2819   86.8274 C   0  0  0  0  0  0
   18.8134   36.2209   87.2140 C   0  0  0  0  0  0
   18.3415   38.0471   85.7153 C   0  0  0  0  0  0
   19.7933   38.5977   83.7437 C   0  0  0  0  0  0
   31.2067   40.3089   83.7307 C   0  0  0  0  0  0
   29.0496   44.2382   85.8270 C   0  0  0  0  0  0
   21.3900   35.4371   84.1203 H   0  0  0  0  0  0
   27.2300   38.5025   84.0090 H   0  0  0  0  0  0
   26.7971   36.7166   82.7480 H   0  0  0  0  0  0
   23.2073   34.6787   82.4282 H   0  0  0  0  0  0
   30.5613   42.8553   84.2062 H   0  0  0  0  0  0
   27.1225   42.4082   86.3739 H   0  0  0  0  0  0
   28.5752   41.8279   87.1563 H   0  0  0  0  0  0
   29.7624   39.8116   86.0869 H   0  0  0  0  0  0
   29.0353   39.0271   84.7390 H   0  0  0  0  0  0
   28.2880   42.9701   84.3094 H   0  0  0  0  0  0
   29.2831   41.1051   83.3379 H   0  0  0  0  0  0
   23.4267   40.1629   86.7355 H   0  0  0  0  0  0
   25.6072   41.1937   86.9612 H   0  0  0  0  0  0
   17.1085   37.5227   87.3881 H   0  0  0  0  0  0
   18.5507   35.6355   88.0857 H   0  0  0  0  0  0
   17.7044   38.8715   85.4304 H   0  0  0  0  0  0
   20.6687   39.2246   83.9222 H   0  0  0  0  0  0
   20.0097   37.9572   82.8872 H   0  0  0  0  0  0
   18.9489   39.2289   83.4684 H   0  0  0  0  0  0
   31.0157   39.3806   83.1928 H   0  0  0  0  0  0
   31.7364   40.9796   83.0526 H   0  0  0  0  0  0
   31.8766   40.0806   84.5601 H   0  0  0  0  0  0
   28.0883   44.7102   86.0332 H   0  0  0  0  0  0
   29.6097   44.1994   86.7632 H   0  0  0  0  0  0
   29.5948   44.8901   85.1431 H   0  0  0  0  0  0
  1  2  1  0  0  0
  1  3  1  0  0  0
  1 14  2  0  0  0
  2  4  2  0  0  0
  2  6  1  0  0  0
  3  5  1  0  0  0
  3 13  1  0  0  0
  4  8  1  0  0  0
  5  8  1  0  0  0
  5  9  2  0  0  0
  6 11  1  0  0  0
  6 31  1  0  0  0
  7 12  1  0  0  0
  7 16  1  0  0  0
  7 17  1  0  0  0
  8 21  2  0  0  0
  9 12  1  0  0  0
  9 32  1  0  0  0
 10 14  1  0  0  0
 10 13  2  0  0  0
 11 18  1  0  0  0
 11 22  2  0  0  0
 12 23  2  0  0  0
 13 33  1  0  0  0
 14 34  1  0  0  0
 15 20  1  0  0  0
 15 19  1  0  0  0
 15 35  1  0  0  0
 16 19  1  0  0  0
 16 36  1  0  0  0
 16 37  1  0  0  0
 17 20  1  0  0  0
 17 38  1  0  0  0
 17 39  1  0  0  0
 18 24  1  0  0  0
 18 26  2  0  0  0
 19 30  1  0  0  0
 19 40  1  0  0  0
 20 29  1  0  0  0
 20 41  1  0  0  0
 21 23  1  0  0  0
 21 42  1  0  0  0
 22 27  1  0  0  0
 22 28  1  0  0  0
 23 43  1  0  0  0
 25 27  2  0  0  0
 25 26  1  0  0  0
 25 44  1  0  0  0
 26 45  1  0  0  0
 27 46  1  0  0  0
 28 47  1  0  0  0
 28 48  1  0  0  0
 28 49  1  0  0  0
 29 50  1  0  0  0
 29 51  1  0  0  0
 29 52  1  0  0  0
 30 53  1  0  0  0
 30 54  1  0  0  0
 30 55  1  0  0  0
M  END
> <s_m_entry_id>
4811

> <s_m_entry_name>
dock_pv.299

> <s_m_Source_Path>
/home/csk/Desktop/cluster/DUD-E-result/lck

> <s_m_Source_File>
dock_pv.maegz

> <i_m_Source_File_Index>
299

> <chembl_id>
CHEMBL109157

> <chembl_pref_name>
None

> <i_lp_mmshare_version>
53161

> <i_f3d_flags>
0

> <r_lp_tautomer_probability>
1

> <s_lp_Force_Field>
OPLS_2005

> <r_lp_Energy>
85.675802

> <b_lp_Chiralities_Consistent>
1

> <s_lp_Variant>
CHEMBL258_lig420-2

> <s_i_glide_gridfile>
glide-grid_2of2

> <i_i_glide_lignum>
466

> <i_i_glide_rotatable_bonds>
3

> <r_i_docking_score>
-6.80986494054903

> <r_i_glide_ligand_efficiency>
-0.226995498018301

> <r_i_glide_ligand_efficiency_sa>
-0.705327789347997

> <r_i_glide_ligand_efficiency_ln>
-1.54727551391417

> <r_i_glide_gscore>
-6.80986494054903

> <r_i_glide_lipo>
-2.41782365354236

> <r_i_glide_hbond>
-0.326540681752336

> <r_i_glide_metal>
0

> <r_i_glide_rewards>
-2.10092599378744

> <r_i_glide_evdw>
-38.2528648376465

> <r_i_glide_ecoul>
-2.58077335357666

> <r_i_glide_erotb>
0.335184633451928

> <r_i_glide_esite>
0

> <r_i_glide_emodel>
-57.3688247979973

> <r_i_glide_energy>
-40.8336381912231

> <r_i_glide_einternal>
2.18670082092285

> <i_i_glide_confnum>
3

> <i_i_glide_posenum>
329

> <r_i_glide_eff_state_penalty>
0

> <s_user_duplicate_titles>
CHEMBL258_lig420

> <s_m_subgroup_title>
dock_pv

> <s_m_subgroupid>
dock_pv

> <b_m_subgroup_collapsed>
1

$$$$
CHEMBL258_lig438
                    3D
 Schrodinger Suite 2021-1.
 51 54  0  0  1  0            999 V2000
   27.8175   36.4704   82.6438 C   0  0  0  0  0  0
   26.8421   35.6791   82.3119 N   0  0  0  0  0  0
   27.3776   37.8209   83.6876 S   0  0  0  0  0  0
   21.1609   36.5514   85.0393 N   0  0  0  0  0  0
   29.0807   36.2079   82.1682 N   0  0  0  0  0  0
   22.1463   37.4573   84.8989 C   0  0  0  0  0  0
   25.7341   37.1895   83.7114 C   0  0  0  0  0  0
   30.4675   37.8212   83.2782 N   0  0  0  0  0  0
   19.9351   36.7688   85.6745 C   0  0  0  0  0  0
   25.6704   36.0617   82.8621 C   0  0  0  0  0  0
   30.3305   36.8006   82.3951 C   0  0  0  0  0  0
   23.3825   36.9681   84.1845 C   0  0  0  0  0  0
   24.5971   37.6435   84.3889 C   0  0  0  0  0  0
   31.7016   38.3460   83.4935 C   0  0  0  0  0  0
   18.9818   37.6712   85.1580 C   0  0  0  0  0  0
   22.0931   38.6013   85.3548 O   0  0  0  0  0  0
   19.6192   35.9663   86.7869 C   0  0  0  0  0  0
   24.4528   35.4212   82.6247 C   0  0  0  0  0  0
   23.3214   35.8841   83.2879 C   0  0  0  0  0  0
   31.8793   39.3524   84.4519 N   0  0  0  0  0  0
   19.2357   38.5733   83.6992 Cl  0  0  0  0  0  0
   31.4201   36.2905   81.6870 C   0  0  0  0  0  0
   30.0419   41.4210   83.0773 O   0  0  0  0  0  0
   32.6825   36.8415   81.8969 C   0  0  0  0  0  0
   17.4593   37.0650   86.9358 C   0  0  0  0  0  0
   32.8292   37.8798   82.8159 C   0  0  0  0  0  0
   17.7515   37.8096   85.7957 C   0  0  0  0  0  0
   18.3898   36.1514   87.4252 C   0  0  0  0  0  0
   20.5676   34.8687   87.2865 C   0  0  0  0  0  0
   30.7568   40.0747   85.0549 C   0  0  0  0  0  0
   30.4648   41.4485   84.4270 C   0  0  0  0  0  0
   21.3262   35.6021   84.7429 H   0  0  0  0  0  0
   29.1450   35.4564   81.4977 H   0  0  0  0  0  0
   24.6555   38.5016   85.0451 H   0  0  0  0  0  0
   24.3778   34.6197   81.9177 H   0  0  0  0  0  0
   22.3826   35.3911   83.0740 H   0  0  0  0  0  0
   32.7935   39.7724   84.5233 H   0  0  0  0  0  0
   31.2988   35.4798   80.9826 H   0  0  0  0  0  0
   30.1499   42.3351   82.7653 H   0  0  0  0  0  0
   33.5395   36.4606   81.3611 H   0  0  0  0  0  0
   16.5045   37.1857   87.4258 H   0  0  0  0  0  0
   33.8051   38.3042   83.0008 H   0  0  0  0  0  0
   17.0129   38.4874   85.3917 H   0  0  0  0  0  0
   18.1414   35.5532   88.2904 H   0  0  0  0  0  0
   21.5117   35.2927   87.6329 H   0  0  0  0  0  0
   20.1503   34.2348   88.0772 H   0  0  0  0  0  0
   20.8233   34.2121   86.4609 H   0  0  0  0  0  0
   29.8460   39.4747   85.0211 H   0  0  0  0  0  0
   30.9238   40.1990   86.1230 H   0  0  0  0  0  0
   29.9302   42.1310   85.0860 H   0  0  0  0  0  0
   31.4342   41.9379   84.3253 H   0  0  0  0  0  0
  1  2  2  0  0  0
  1  3  1  0  0  0
  1  5  1  0  0  0
  2 10  1  0  0  0
  3  7  1  0  0  0
  4  6  1  0  0  0
  4  9  1  0  0  0
  4 32  1  0  0  0
  5 11  1  0  0  0
  5 33  1  0  0  0
  6 12  1  0  0  0
  6 16  2  0  0  0
  7 13  1  0  0  0
  7 10  2  0  0  0
  8 11  2  0  0  0
  8 14  1  0  0  0
  9 15  1  0  0  0
  9 17  2  0  0  0
 10 18  1  0  0  0
 11 22  1  0  0  0
 12 13  2  0  0  0
 12 19  1  0  0  0
 13 34  1  0  0  0
 14 20  1  0  0  0
 14 26  2  0  0  0
 15 21  1  0  0  0
 15 27  2  0  0  0
 17 28  1  0  0  0
 17 29  1  0  0  0
 18 19  2  0  0  0
 18 35  1  0  0  0
 19 36  1  0  0  0
 20 30  1  0  0  0
 20 37  1  0  0  0
 22 24  2  0  0  0
 22 38  1  0  0  0
 23 31  1  0  0  0
 23 39  1  0  0  0
 24 26  1  0  0  0
 24 40  1  0  0  0
 25 28  2  0  0  0
 25 27  1  0  0  0
 25 41  1  0  0  0
 26 42  1  0  0  0
 27 43  1  0  0  0
 28 44  1  0  0  0
 29 45  1  0  0  0
 29 46  1  0  0  0
 29 47  1  0  0  0
 30 31  1  0  0  0
 30 48  1  0  0  0
 30 49  1  0  0  0
 31 50  1  0  0  0
 31 51  1  0  0  0
M  END
> <s_m_entry_id>
4812

> <s_m_entry_name>
dock_pv.300

> <s_m_Source_Path>
/home/csk/Desktop/cluster/DUD-E-result/lck

> <s_m_Source_File>
dock_pv.maegz

> <i_m_Source_File_Index>
300

> <chembl_id>
CHEMBL312933

> <chembl_pref_name>
None

> <i_lp_mmshare_version>
53161

> <i_f3d_flags>
0

> <r_lp_tautomer_probability>
1

> <s_lp_Force_Field>
OPLS_2005

> <r_lp_Energy>
29.898181

> <b_lp_Chiralities_Consistent>
1

> <s_lp_Variant>
CHEMBL258_lig438-1

> <s_i_glide_gridfile>
glide-grid_2of2

> <i_i_glide_lignum>
485

> <i_i_glide_rotatable_bonds>
9

> <r_i_docking_score>
-6.80978316387001

> <r_i_glide_ligand_efficiency>
-0.219670424640968

> <r_i_glide_ligand_efficiency_sa>
-0.690068421079843

> <r_i_glide_ligand_efficiency_ln>
-1.53581479824336

> <r_i_glide_gscore>
-6.80978316387001

> <r_i_glide_lipo>
-3.13080888614772

> <r_i_glide_hbond>
-0.304187353675032

> <r_i_glide_metal>
0

> <r_i_glide_rewards>
-0.638394288303791

> <r_i_glide_evdw>
-42.6054039001465

> <r_i_glide_ecoul>
-9.23712062835693

> <r_i_glide_erotb>
0.779445653517393

> <r_i_glide_esite>
0

> <r_i_glide_emodel>
-71.4449896224699

> <r_i_glide_energy>
-51.8425245285034

> <r_i_glide_einternal>
3.98136115074158

> <i_i_glide_confnum>
4

> <i_i_glide_posenum>
84

> <r_i_glide_eff_state_penalty>
0

> <s_user_duplicate_titles>
CHEMBL258_lig438

> <s_m_subgroup_title>
dock_pv

> <s_m_subgroupid>
dock_pv

> <b_m_subgroup_collapsed>
1

$$$$
CHEMBL258_lig1296
                    3D
 Schrodinger Suite 2021-1.
 54 58  0  0  1  0            999 V2000
   31.7195   39.1206   82.7038 N   0  0  0  0  0  0
   31.2475   40.3674   82.9517 C   0  0  0  0  0  0
   30.1438   40.6137   83.7706 C   0  0  0  0  0  0
   29.5056   39.4942   84.3191 C   0  0  0  0  0  0
   29.9526   38.2260   84.0854 N   0  0  0  0  0  0
   31.0437   38.1023   83.2896 C   0  0  0  0  0  0
   28.3630   39.6294   85.1497 N   0  0  0  0  0  0
   26.3024   39.2162   85.9923 N   0  0  0  0  0  0
   27.1932   38.8779   85.0975 C   0  0  0  0  0  0
   26.8641   40.2655   86.6582 C   0  0  0  0  0  0
   28.1519   40.5722   86.1468 C   0  0  0  0  0  0
   28.9229   41.6172   86.6765 C   0  0  0  0  0  0
   28.3624   42.3445   87.7301 C   0  0  0  0  0  0
   27.0972   42.0529   88.2400 C   0  0  0  0  0  0
   26.3299   41.0119   87.7168 C   0  0  0  0  0  0
   27.0603   37.8923   84.1500 N   0  0  0  0  0  0
   25.9931   37.0716   83.7556 C   0  0  0  0  0  0
   24.6701   37.2837   84.1684 C   0  0  0  0  0  0
   23.6375   36.4482   83.7160 C   0  0  0  0  0  0
   23.9327   35.4210   82.8243 C   0  0  0  0  0  0
   25.2490   35.1830   82.4431 C   0  0  0  0  0  0
   26.2820   36.0037   82.8870 C   0  0  0  0  0  0
   27.7102   35.6794   82.4493 C   0  0  0  0  0  0
   22.2889   36.6208   84.0642 N   0  0  0  0  0  0
   21.7955   37.1243   85.2131 C   0  0  0  0  0  0
   20.3044   37.3379   85.2380 C   0  0  0  0  0  0
   22.4725   37.3804   86.2094 O   0  0  0  0  0  0
   31.8965   41.4210   82.3312 N   0  0  0  0  0  0
   19.5919   37.0987   86.4201 C   0  0  0  0  0  0
   18.2195   37.3348   86.4870 C   0  0  0  0  0  0
   17.5464   37.8175   85.3686 C   0  0  0  0  0  0
   18.2358   38.0443   84.1827 C   0  0  0  0  0  0
   19.6091   37.8079   84.1115 C   0  0  0  0  0  0
   17.3766   38.6203   82.8100 Cl  0  0  0  0  0  0
   17.3493   37.0134   87.9410 Cl  0  0  0  0  0  0
   29.7868   41.6195   83.9408 H   0  0  0  0  0  0
   31.4091   37.1018   83.1054 H   0  0  0  0  0  0
   29.9119   41.8467   86.3085 H   0  0  0  0  0  0
   28.9273   43.1566   88.1650 H   0  0  0  0  0  0
   26.7055   42.6456   89.0541 H   0  0  0  0  0  0
   25.3499   40.7882   88.1107 H   0  0  0  0  0  0
   27.9059   37.6388   83.6614 H   0  0  0  0  0  0
   24.4317   38.1121   84.8150 H   0  0  0  0  0  0
   23.1504   34.7722   82.4548 H   0  0  0  0  0  0
   25.4737   34.3496   81.8015 H   0  0  0  0  0  0
   28.0430   36.3830   81.6879 H   0  0  0  0  0  0
   28.4126   35.7365   83.2824 H   0  0  0  0  0  0
   27.7922   34.6700   82.0465 H   0  0  0  0  0  0
   21.6152   36.2919   83.3904 H   0  0  0  0  0  0
   31.5660   42.3721   82.4898 H   0  0  0  0  0  0
   32.6909   41.2290   81.7408 H   0  0  0  0  0  0
   20.1079   36.7204   87.2871 H   0  0  0  0  0  0
   16.4846   38.0085   85.4206 H   0  0  0  0  0  0
   20.1258   38.0131   83.1846 H   0  0  0  0  0  0
  1  2  1  0  0  0
  1  6  2  0  0  0
  2  3  2  0  0  0
  2 28  1  0  0  0
  3  4  1  0  0  0
  3 36  1  0  0  0
  4  5  2  0  0  0
  4  7  1  0  0  0
  5  6  1  0  0  0
  6 37  1  0  0  0
  7  9  1  0  0  0
  7 11  1  0  0  0
  8 10  1  0  0  0
  8  9  2  0  0  0
  9 16  1  0  0  0
 10 11  2  0  0  0
 10 15  1  0  0  0
 11 12  1  0  0  0
 12 13  2  0  0  0
 12 38  1  0  0  0
 13 14  1  0  0  0
 13 39  1  0  0  0
 14 15  2  0  0  0
 14 40  1  0  0  0
 15 41  1  0  0  0
 16 17  1  0  0  0
 16 42  1  0  0  0
 17 18  2  0  0  0
 17 22  1  0  0  0
 18 19  1  0  0  0
 18 43  1  0  0  0
 19 20  2  0  0  0
 19 24  1  0  0  0
 20 21  1  0  0  0
 20 44  1  0  0  0
 21 22  2  0  0  0
 21 45  1  0  0  0
 22 23  1  0  0  0
 23 46  1  0  0  0
 23 47  1  0  0  0
 23 48  1  0  0  0
 24 25  1  0  0  0
 24 49  1  0  0  0
 25 26  1  0  0  0
 25 27  2  0  0  0
 26 29  2  0  0  0
 26 33  1  0  0  0
 28 50  1  0  0  0
 28 51  1  0  0  0
 29 30  1  0  0  0
 29 52  1  0  0  0
 30 31  2  0  0  0
 30 35  1  0  0  0
 31 32  1  0  0  0
 31 53  1  0  0  0
 32 33  2  0  0  0
 32 34  1  0  0  0
 33 54  1  0  0  0
M  END
> <s_m_entry_id>
4813

> <s_m_entry_name>
dock_pv.301

> <s_m_Source_Path>
/home/csk/Desktop/cluster/DUD-E-result/lck

> <s_m_Source_File>
dock_pv.maegz

> <i_m_Source_File_Index>
301

> <chembl_id>
CHEMBL1079946

> <chembl_pref_name>
None

> <i_lp_mmshare_version>
53161

> <i_f3d_flags>
0

> <r_lp_tautomer_probability>
1

> <s_lp_Force_Field>
OPLS_2005

> <r_lp_Energy>
28.76642

> <b_lp_Chiralities_Consistent>
1

> <s_lp_Variant>
CHEMBL258_lig1296-1

> <s_i_glide_gridfile>
glide-grid_2of2

> <i_i_glide_lignum>
1449

> <i_i_glide_rotatable_bonds>
6

> <r_i_docking_score>
-6.80955680623613

> <r_i_glide_ligand_efficiency>
-0.194558765892461

> <r_i_glide_ligand_efficiency_sa>
-0.636414623708472

> <r_i_glide_ligand_efficiency_ln>
-1.49484884893948

> <r_i_glide_gscore>
-6.80955680623613

> <r_i_glide_lipo>
-3.25661077068277

> <r_i_glide_hbond>
-0.16

> <r_i_glide_metal>
0

> <r_i_glide_rewards>
-0.771095195050332

> <r_i_glide_evdw>
-52.2499160766602

> <r_i_glide_ecoul>
-3.10809993743896

> <r_i_glide_erotb>
0.482242069868966

> <r_i_glide_esite>
-0.0253821159231399

> <r_i_glide_emodel>
-75.0472070651111

> <r_i_glide_energy>
-55.3580160140991

> <r_i_glide_einternal>
4.91051197052002

> <i_i_glide_confnum>
37

> <i_i_glide_posenum>
303

> <r_i_glide_eff_state_penalty>
0

> <s_user_duplicate_titles>
CHEMBL258_lig1296

> <s_m_subgroup_title>
dock_pv

> <s_m_subgroupid>
dock_pv

> <b_m_subgroup_collapsed>
1

$$$$
CHEMBL258_lig238
                    3D
 Schrodinger Suite 2021-1.
 37 40  0  0  1  0            999 V2000
   22.7046   37.0097   84.4116 C   0  0  0  0  0  0
   22.9864   38.1454   85.1916 C   0  0  0  0  0  0
   23.6675   36.3714   83.6946 N   0  0  0  0  0  0
   24.3111   38.5909   85.1654 N   0  0  0  0  0  0
   24.9515   36.8434   83.6871 C   0  0  0  0  0  0
   25.2975   37.9942   84.4542 C   0  0  0  0  0  0
   21.4091   36.5087   84.2611 N   0  0  0  0  0  0
   25.9661   36.2138   82.8951 C   0  0  0  0  0  0
   23.1588   39.9813   86.4873 N   0  0  0  0  0  0
   20.2570   36.7784   85.0220 C   0  0  0  0  0  0
   24.3411   39.7067   85.9760 C   0  0  0  0  0  0
   22.3242   39.0712   86.0393 C   0  0  0  0  0  0
   26.6294   38.4831   84.4485 C   0  0  0  0  0  0
   27.2637   36.7447   82.8841 C   0  0  0  0  0  0
   19.2348   37.5885   84.4919 C   0  0  0  0  0  0
   20.0939   36.2217   86.3074 C   0  0  0  0  0  0
   27.5871   37.8493   83.6665 C   0  0  0  0  0  0
   25.7110   35.0799   82.1563 O   0  0  0  0  0  0
   19.3081   38.2209   82.8872 Cl  0  0  0  0  0  0
   28.2545   36.2064   82.0961 O   0  0  0  0  0  0
   17.9670   37.3691   86.5345 C   0  0  0  0  0  0
   18.1095   37.8932   85.2560 C   0  0  0  0  0  0
   18.9424   36.5174   87.0442 C   0  0  0  0  0  0
   21.0970   35.2274   86.8871 C   0  0  0  0  0  0
   21.3475   35.7081   83.6505 H   0  0  0  0  0  0
   25.2400   40.2767   86.1498 H   0  0  0  0  0  0
   21.2801   39.0943   86.3156 H   0  0  0  0  0  0
   26.9053   39.3505   85.0308 H   0  0  0  0  0  0
   28.5995   38.2304   83.6530 H   0  0  0  0  0  0
   26.5388   34.7015   81.8428 H   0  0  0  0  0  0
   27.9780   35.8269   81.2487 H   0  0  0  0  0  0
   17.0853   37.6015   87.1148 H   0  0  0  0  0  0
   17.3314   38.5294   84.8594 H   0  0  0  0  0  0
   18.7838   36.0780   88.0166 H   0  0  0  0  0  0
   21.9869   35.7387   87.2525 H   0  0  0  0  0  0
   20.6653   34.6197   87.6855 H   0  0  0  0  0  0
   21.4029   34.5215   86.1163 H   0  0  0  0  0  0
  1  2  1  0  0  0
  1  3  2  0  0  0
  1  7  1  0  0  0
  2  4  1  0  0  0
  2 12  2  0  0  0
  3  5  1  0  0  0
  4 11  1  0  0  0
  4  6  1  0  0  0
  5  6  1  0  0  0
  5  8  2  0  0  0
  6 13  2  0  0  0
  7 10  1  0  0  0
  7 25  1  0  0  0
  8 14  1  0  0  0
  8 18  1  0  0  0
  9 12  1  0  0  0
  9 11  2  0  0  0
 10 15  2  0  0  0
 10 16  1  0  0  0
 11 26  1  0  0  0
 12 27  1  0  0  0
 13 17  1  0  0  0
 13 28  1  0  0  0
 14 17  2  0  0  0
 14 20  1  0  0  0
 15 19  1  0  0  0
 15 22  1  0  0  0
 16 23  2  0  0  0
 16 24  1  0  0  0
 17 29  1  0  0  0
 18 30  1  0  0  0
 20 31  1  0  0  0
 21 23  1  0  0  0
 21 22  2  0  0  0
 21 32  1  0  0  0
 22 33  1  0  0  0
 23 34  1  0  0  0
 24 35  1  0  0  0
 24 36  1  0  0  0
 24 37  1  0  0  0
M  END
> <s_m_entry_id>
4814

> <s_m_entry_name>
dock_pv.302

> <s_m_Source_Path>
/home/csk/Desktop/cluster/DUD-E-result/lck

> <s_m_Source_File>
dock_pv.maegz

> <i_m_Source_File_Index>
302

> <chembl_id>
CHEMBL86045

> <chembl_pref_name>
None

> <i_lp_mmshare_version>
53161

> <i_f3d_flags>
0

> <r_lp_tautomer_probability>
1

> <s_lp_Force_Field>
OPLS_2005

> <r_lp_Energy>
60.102217

> <b_lp_Chiralities_Consistent>
1

> <s_lp_Variant>
CHEMBL258_lig238-1

> <s_i_glide_gridfile>
glide-grid_2of2

> <i_i_glide_lignum>
266

> <i_i_glide_rotatable_bonds>
4

> <r_i_docking_score>
-6.80895155344495

> <r_i_glide_ligand_efficiency>
-0.283706314726873

> <r_i_glide_ligand_efficiency_sa>
-0.81835062014974

> <r_i_glide_ligand_efficiency_ln>
-1.62969454916714

> <r_i_glide_gscore>
-6.80895155344495

> <r_i_glide_lipo>
-2.85177149850134

> <r_i_glide_hbond>
-0.00177970091363869

> <r_i_glide_metal>
0

> <r_i_glide_rewards>
-1.4542383991117

> <r_i_glide_evdw>
-37.1590194702148

> <r_i_glide_ecoul>
-5.81052780151367

> <r_i_glide_erotb>
0.228368188819526

> <r_i_glide_esite>
0

> <r_i_glide_emodel>
-56.5780670058322

> <r_i_glide_energy>
-42.9695472717285

> <r_i_glide_einternal>
7.10962963104248

> <i_i_glide_confnum>
6

> <i_i_glide_posenum>
346

> <r_i_glide_eff_state_penalty>
0

> <s_user_duplicate_titles>
CHEMBL258_lig238,137066

> <s_m_subgroup_title>
dock_pv

> <s_m_subgroupid>
dock_pv

> <b_m_subgroup_collapsed>
1

$$$$
CHEMBL258_lig1061
                    3D
 Schrodinger Suite 2021-1.
 42 45  0  0  1  0            999 V2000
   30.2528   37.8213   83.2166 C   0  0  0  0  0  0
   30.1268   36.6397   82.4861 C   0  0  0  0  0  0
   28.8785   36.0382   82.3282 C   0  0  0  0  0  0
   29.1320   38.4129   83.7885 C   0  0  0  0  0  0
   27.8851   37.8183   83.6224 C   0  0  0  0  0  0
   27.7376   36.6292   82.8866 C   0  0  0  0  0  0
   26.3818   36.0263   82.7159 C   0  0  0  0  0  0
   25.3410   36.7670   83.3846 C   0  0  0  0  0  0
   25.5759   37.9135   84.0539 C   0  0  0  0  0  0
   26.8126   38.4548   84.2118 O   0  0  0  0  0  0
   24.5324   38.6750   84.7677 C   0  0  0  0  0  0
   23.4493   38.0052   85.3437 C   0  0  0  0  0  0
   22.4274   38.7131   85.9589 C   0  0  0  0  0  0
   22.4133   40.1135   85.9098 C   0  0  0  0  0  0
   23.5101   40.7838   85.3718 C   0  0  0  0  0  0
   24.5735   40.0713   84.8234 C   0  0  0  0  0  0
   26.1591   34.9957   82.0870 O   0  0  0  0  0  0
   21.3463   40.8986   86.3071 O   0  0  0  0  0  0
   20.1298   40.3235   86.8022 C   0  0  0  0  0  0
   19.4393   39.3317   85.8572 C   0  0  0  0  0  0
   19.7249   39.2800   84.4879 C   0  0  0  0  0  0
   19.1324   38.3049   83.6864 C   0  0  0  0  0  0
   18.2160   37.4212   84.2425 C   0  0  0  0  0  0
   17.9016   37.4855   85.5965 C   0  0  0  0  0  0
   18.5271   38.4305   86.4018 C   0  0  0  0  0  0
   31.4789   38.4014   83.3677 O   0  0  0  0  0  0
   31.0013   36.1860   82.0424 H   0  0  0  0  0  0
   28.8065   35.1231   81.7528 H   0  0  0  0  0  0
   29.2120   39.3234   84.3619 H   0  0  0  0  0  0
   24.3339   36.3875   83.3123 H   0  0  0  0  0  0
   23.4007   36.9263   85.3380 H   0  0  0  0  0  0
   21.6234   38.1489   86.4054 H   0  0  0  0  0  0
   23.5158   41.8639   85.3478 H   0  0  0  0  0  0
   25.4002   40.6106   84.3833 H   0  0  0  0  0  0
   19.4355   41.1410   87.0019 H   0  0  0  0  0  0
   20.3388   39.8455   87.7612 H   0  0  0  0  0  0
   20.4341   39.9772   84.0673 H   0  0  0  0  0  0
   19.3766   38.2233   82.6385 H   0  0  0  0  0  0
   17.7504   36.6769   83.6148 H   0  0  0  0  0  0
   17.1714   36.8143   86.0251 H   0  0  0  0  0  0
   18.2538   38.4848   87.4428 H   0  0  0  0  0  0
   31.4500   39.1906   83.9122 H   0  0  0  0  0  0
  1  4  2  0  0  0
  1  2  1  0  0  0
  1 26  1  0  0  0
  2  3  2  0  0  0
  2 27  1  0  0  0
  3  6  1  0  0  0
  3 28  1  0  0  0
  4  5  1  0  0  0
  4 29  1  0  0  0
  5 10  1  0  0  0
  5  6  2  0  0  0
  6  7  1  0  0  0
  7 17  2  0  0  0
  7  8  1  0  0  0
  8  9  2  0  0  0
  8 30  1  0  0  0
  9 11  1  0  0  0
  9 10  1  0  0  0
 11 16  1  0  0  0
 11 12  2  0  0  0
 12 13  1  0  0  0
 12 31  1  0  0  0
 13 14  2  0  0  0
 13 32  1  0  0  0
 14 15  1  0  0  0
 14 18  1  0  0  0
 15 16  2  0  0  0
 15 33  1  0  0  0
 16 34  1  0  0  0
 18 19  1  0  0  0
 19 20  1  0  0  0
 19 35  1  0  0  0
 19 36  1  0  0  0
 20 21  2  0  0  0
 20 25  1  0  0  0
 21 22  1  0  0  0
 21 37  1  0  0  0
 22 23  2  0  0  0
 22 38  1  0  0  0
 23 24  1  0  0  0
 23 39  1  0  0  0
 24 25  2  0  0  0
 24 40  1  0  0  0
 25 41  1  0  0  0
 26 42  1  0  0  0
M  END
> <s_m_entry_id>
4815

> <s_m_entry_name>
dock_pv.303

> <s_m_Source_Path>
/home/csk/Desktop/cluster/DUD-E-result/lck

> <s_m_Source_File>
dock_pv.maegz

> <i_m_Source_File_Index>
303

> <chembl_id>
CHEMBL484868

> <chembl_pref_name>
None

> <i_lp_mmshare_version>
53161

> <i_f3d_flags>
0

> <r_lp_tautomer_probability>
1

> <s_lp_Force_Field>
OPLS_2005

> <r_lp_Energy>
22.590974

> <b_lp_Chiralities_Consistent>
1

> <s_lp_Variant>
CHEMBL258_lig1061-1

> <s_i_glide_gridfile>
glide-grid_2of2

> <i_i_glide_lignum>
1149

> <i_i_glide_rotatable_bonds>
5

> <r_i_docking_score>
-6.8031266367254

> <r_i_glide_ligand_efficiency>
-0.261658716797131

> <r_i_glide_ligand_efficiency_sa>
-0.775162918934165

> <r_i_glide_ligand_efficiency_ln>
-1.59769196775573

> <r_i_glide_gscore>
-6.8031266367254

> <r_i_glide_lipo>
-3.32501357241502

> <r_i_glide_hbond>
-0.32

> <r_i_glide_metal>
0

> <r_i_glide_rewards>
-1.5611626553495

> <r_i_glide_evdw>
-36.9857406616211

> <r_i_glide_ecoul>
-2.58735466003418

> <r_i_glide_erotb>
0.640439823125299

> <r_i_glide_esite>
0

> <r_i_glide_emodel>
-56.5285607838021

> <r_i_glide_energy>
-39.5730953216553

> <r_i_glide_einternal>
1.03865396976471

> <i_i_glide_confnum>
9

> <i_i_glide_posenum>
105

> <r_i_glide_eff_state_penalty>
0

> <s_user_duplicate_titles>
CHEMBL258_lig1061

> <s_m_subgroup_title>
dock_pv

> <s_m_subgroupid>
dock_pv

> <b_m_subgroup_collapsed>
1

$$$$
CHEMBL258_lig1229
                    3D
 Schrodinger Suite 2021-1.
 48 51  0  0  1  0            999 V2000
   22.1154   36.3501   83.9747 C   0  0  0  0  0  0
   21.0095   37.0038   84.5223 C   0  0  0  0  0  0
   21.1188   38.1663   85.2095 N   0  0  0  0  0  0
   22.3737   38.6613   85.3723 C   0  0  0  0  0  0
   23.5050   38.0909   84.8874 N   0  0  0  0  0  0
   23.3757   36.9456   84.1590 C   0  0  0  0  0  0
   24.5416   36.4359   83.5164 N   0  0  0  0  0  0
   22.5647   39.8665   86.0589 N   0  0  0  0  0  0
   25.7493   35.1408   82.0871 N   0  0  0  0  0  0
   24.5732   35.4211   82.5743 C   0  0  0  0  0  0
   26.5739   36.0535   82.6738 C   0  0  0  0  0  0
   25.8596   36.8880   83.5813 C   0  0  0  0  0  0
   26.5126   37.9054   84.2965 C   0  0  0  0  0  0
   27.8851   38.0529   84.0863 C   0  0  0  0  0  0
   28.5934   37.2250   83.2180 C   0  0  0  0  0  0
   27.9546   36.2229   82.4872 C   0  0  0  0  0  0
   21.5305   40.9048   86.1071 C   0  0  2  0  0  0
   22.1653   42.3284   86.2229 C   0  0  2  0  0  0
   23.1794   42.6516   85.1868 N   0  0  2  0  0  0
   23.7210   44.0030   85.3946 C   0  0  0  0  0  0
   24.3603   44.1406   86.7897 C   0  0  0  0  0  0
   23.3689   43.8752   87.8283 N   0  0  2  0  0  0
   22.7635   42.5553   87.6520 C   0  0  0  0  0  0
   20.4535   40.6258   87.1784 C   0  0  0  0  0  0
   22.6191   42.6002   83.8340 C   0  0  0  0  0  0
   21.9667   35.4442   83.4093 H   0  0  0  0  0  0
   20.0086   36.6158   84.3991 H   0  0  0  0  0  0
   23.5067   40.2301   86.0097 H   0  0  0  0  0  0
   23.6648   34.9220   82.2755 H   0  0  0  0  0  0
   25.9975   38.5534   84.9877 H   0  0  0  0  0  0
   28.4210   38.8208   84.6259 H   0  0  0  0  0  0
   29.6579   37.3713   83.0987 H   0  0  0  0  0  0
   28.5189   35.5888   81.8176 H   0  0  0  0  0  0
   21.0018   40.8753   85.1530 H   0  0  0  0  0  0
   21.3494   43.0428   86.1033 H   0  0  0  0  0  0
   24.4833   44.2160   84.6428 H   0  0  0  0  0  0
   22.9494   44.7637   85.2760 H   0  0  0  0  0  0
   25.2006   43.4496   86.8862 H   0  0  0  0  0  0
   24.7433   45.1543   86.9128 H   0  0  0  0  0  0
   22.6718   44.6077   87.8840 H   0  0  0  0  0  0
   23.5096   41.7921   87.8759 H   0  0  0  0  0  0
   21.9627   42.5079   88.3893 H   0  0  0  0  0  0
   19.7428   41.4510   87.2437 H   0  0  0  0  0  0
   19.8776   39.7294   86.9491 H   0  0  0  0  0  0
   20.8956   40.4808   88.1634 H   0  0  0  0  0  0
   22.3190   41.5859   83.5698 H   0  0  0  0  0  0
   23.3613   42.9047   83.0943 H   0  0  0  0  0  0
   21.7510   43.2542   83.7280 H   0  0  0  0  0  0
  1  6  1  0  0  0
  1  2  2  0  0  0
  1 26  1  0  0  0
  2  3  1  0  0  0
  2 27  1  0  0  0
  3  4  2  0  0  0
  4  8  1  0  0  0
  4  5  1  0  0  0
  5  6  2  0  0  0
  6  7  1  0  0  0
  7 12  1  0  0  0
  7 10  1  0  0  0
  8 17  1  0  0  0
  8 28  1  0  0  0
  9 11  1  0  0  0
  9 10  2  0  0  0
 10 29  1  0  0  0
 11 12  2  0  0  0
 11 16  1  0  0  0
 12 13  1  0  0  0
 13 14  2  0  0  0
 13 30  1  0  0  0
 14 15  1  0  0  0
 14 31  1  0  0  0
 15 16  2  0  0  0
 15 32  1  0  0  0
 16 33  1  0  0  0
 17 18  1  0  0  0
 17 24  1  0  0  0
 17 34  1  0  0  0
 18 19  1  0  0  0
 18 23  1  0  0  0
 18 35  1  0  0  0
 19 20  1  0  0  0
 19 25  1  0  0  0
 20 21  1  0  0  0
 20 36  1  0  0  0
 20 37  1  0  0  0
 21 22  1  0  0  0
 21 38  1  0  0  0
 21 39  1  0  0  0
 22 23  1  0  0  0
 22 40  1  0  0  0
 23 41  1  0  0  0
 23 42  1  0  0  0
 24 43  1  0  0  0
 24 44  1  0  0  0
 24 45  1  0  0  0
 25 46  1  0  0  0
 25 47  1  0  0  0
 25 48  1  0  0  0
M  END
> <s_m_entry_id>
4816

> <s_m_entry_name>
dock_pv.304

> <s_m_Source_Path>
/home/csk/Desktop/cluster/DUD-E-result/lck

> <s_m_Source_File>
dock_pv.maegz

> <i_m_Source_File_Index>
304

> <chembl_id>
CHEMBL577469

> <chembl_pref_name>
None

> <i_lp_mmshare_version>
53161

> <i_f3d_flags>
0

> <r_lp_tautomer_probability>
1

> <s_lp_Force_Field>
OPLS_2005

> <r_lp_Energy>
39.466853

> <b_lp_Chiralities_Consistent>
1

> <s_lp_Variant>
CHEMBL258_lig1229-1

> <s_i_glide_gridfile>
glide-grid_2of2

> <i_i_glide_lignum>
1372

> <i_i_glide_rotatable_bonds>
4

> <r_i_docking_score>
-6.80154346409

> <r_i_glide_ligand_efficiency>
-0.2720617385636

> <r_i_glide_ligand_efficiency_sa>
-0.795513348595445

> <r_i_glide_ligand_efficiency_ln>
-1.61216962679922

> <r_i_glide_gscore>
-6.80154346409

> <r_i_glide_lipo>
-1.48176382045024

> <r_i_glide_hbond>
-0.32

> <r_i_glide_metal>
0

> <r_i_glide_rewards>
-3.09707415674623

> <r_i_glide_evdw>
-35.1115570068359

> <r_i_glide_ecoul>
-5.40735149383545

> <r_i_glide_erotb>
0.663975087523577

> <r_i_glide_esite>
0

> <r_i_glide_emodel>
-53.4720092150674

> <r_i_glide_energy>
-40.5189085006714

> <r_i_glide_einternal>
8.28155136108398

> <i_i_glide_confnum>
66

> <i_i_glide_posenum>
312

> <r_i_glide_eff_state_penalty>
0

> <s_user_duplicate_titles>
CHEMBL258_lig1229

> <s_m_subgroup_title>
dock_pv

> <s_m_subgroupid>
dock_pv

> <b_m_subgroup_collapsed>
1

$$$$
458490
                    3D
 Schrodinger Suite 2021-1.
 44 46  0  0  1  0            999 V2000
   18.4098   38.0052   86.1978 C   0  0  0  0  0  0
   19.8745   37.9876   85.7955 C   0  0  0  0  0  0
   20.4606   39.1413   85.2725 C   0  0  0  0  0  0
   21.7984   39.1268   84.8848 C   0  0  0  0  0  0
   22.5606   37.9616   85.0196 C   0  0  0  0  0  0
   21.9688   36.8111   85.5496 C   0  0  0  0  0  0
   20.6295   36.8210   85.9329 C   0  0  0  0  0  0
   23.9930   37.9362   84.5779 C   0  0  0  0  0  0
   24.6208   36.9605   83.7193 C   0  0  0  0  0  0
   24.2340   35.8210   82.9789 C   0  0  0  0  0  0
   25.1305   35.0977   82.2680 N   0  0  0  0  0  0
   26.4105   35.5385   82.2719 C   0  0  0  0  0  0
   26.9089   36.6375   82.8888 N   0  0  0  0  0  0
   25.9979   37.3115   83.6073 C   0  0  0  0  0  0
   26.2266   38.4467   84.3727 N   0  0  0  0  0  0
   24.9985   38.8548   84.8944 C   0  0  0  0  0  0
   24.9179   40.0605   85.7273 C   0  0  0  0  0  0
   24.4986   40.0160   86.8833 O   0  0  0  0  0  0
   25.3047   41.4051   85.0958 C   0  0  0  0  0  0
   24.8562   42.4249   85.8311 F   0  0  0  0  0  0
   27.5576   39.0429   84.5951 C   0  0  0  0  0  0
   28.0238   39.9127   83.4077 C   0  0  0  0  0  0
   29.2782   40.7370   83.7518 C   0  0  0  0  0  0
   29.7533   41.4210   82.6136 O   0  0  0  0  0  0
   22.9047   35.4217   82.8869 N   0  0  0  0  0  0
   18.0258   37.0048   86.4026 H   0  0  0  0  0  0
   17.8034   38.4289   85.3959 H   0  0  0  0  0  0
   18.2593   38.6310   87.0783 H   0  0  0  0  0  0
   19.8821   40.0478   85.1645 H   0  0  0  0  0  0
   22.2383   40.0231   84.4725 H   0  0  0  0  0  0
   22.5455   35.9055   85.6676 H   0  0  0  0  0  0
   20.1823   35.9203   86.3294 H   0  0  0  0  0  0
   27.1161   34.9596   81.6917 H   0  0  0  0  0  0
   26.3848   41.5153   85.0260 H   0  0  0  0  0  0
   24.8699   41.5033   84.1011 H   0  0  0  0  0  0
   27.5508   39.6133   85.5242 H   0  0  0  0  0  0
   28.2705   38.2353   84.7720 H   0  0  0  0  0  0
   28.2320   39.2702   82.5519 H   0  0  0  0  0  0
   27.2289   40.5892   83.0914 H   0  0  0  0  0  0
   29.0641   41.4390   84.5594 H   0  0  0  0  0  0
   30.0681   40.0921   84.1409 H   0  0  0  0  0  0
   30.1499   42.2686   82.8850 H   0  0  0  0  0  0
   22.1986   35.9560   83.3735 H   0  0  0  0  0  0
   22.6576   34.6367   82.2962 H   0  0  0  0  0  0
  1  2  1  0  0  0
  1 26  1  0  0  0
  1 27  1  0  0  0
  1 28  1  0  0  0
  2  7  1  0  0  0
  2  3  2  0  0  0
  3  4  1  0  0  0
  3 29  1  0  0  0
  4  5  2  0  0  0
  4 30  1  0  0  0
  5  6  1  0  0  0
  5  8  1  0  0  0
  6  7  2  0  0  0
  6 31  1  0  0  0
  7 32  1  0  0  0
  8 16  2  0  0  0
  8  9  1  0  0  0
  9 14  2  0  0  0
  9 10  1  0  0  0
 10 11  2  0  0  0
 10 25  1  0  0  0
 11 12  1  0  0  0
 12 13  2  0  0  0
 12 33  1  0  0  0
 13 14  1  0  0  0
 14 15  1  0  0  0
 15 16  1  0  0  0
 15 21  1  0  0  0
 16 17  1  0  0  0
 17 18  2  0  0  0
 17 19  1  0  0  0
 19 20  1  0  0  0
 19 34  1  0  0  0
 19 35  1  0  0  0
 21 22  1  0  0  0
 21 36  1  0  0  0
 21 37  1  0  0  0
 22 23  1  0  0  0
 22 38  1  0  0  0
 22 39  1  0  0  0
 23 24  1  0  0  0
 23 40  1  0  0  0
 23 41  1  0  0  0
 24 42  1  0  0  0
 25 43  1  0  0  0
 25 44  1  0  0  0
M  END
> <s_m_entry_id>
5817

> <s_m_entry_name>
ligand_docking-pose.6

> <s_m_Source_Path>
/home/csk/Desktop/cluster/DUD-E-result/lck

> <s_m_Source_File>
ligand_docking-pose.sdf

> <i_m_Source_File_Index>
6

> <i_lp_mmshare_version>
53161

> <r_lp_tautomer_probability>
0.99990000499975

> <s_lp_Force_Field>
OPLS_2005

> <r_lp_Energy>
20.177809

> <b_lp_Chiralities_Consistent>
1

> <s_lp_Variant>
458490-1

> <s_i_glide_gridfile>
glide-grid_2of2

> <i_i_glide_lignum>
202

> <i_i_glide_rotatable_bonds>
7

> <r_i_docking_score>
-8.9861099186954

> <r_i_glide_ligand_efficiency>
-0.359444396747816

> <r_i_glide_ligand_efficiency_sa>
-1.05102179086413

> <r_i_glide_ligand_efficiency_ln>
-2.12997734271454

> <r_i_glide_gscore>
-8.9861099186954

> <r_i_glide_lipo>
-2.07033517249813

> <r_i_glide_hbond>
-1.05033195907362

> <r_i_glide_metal>
0

> <r_i_glide_rewards>
-3.15869582126462

> <r_i_glide_evdw>
-32.1985206604004

> <r_i_glide_ecoul>
-11.0643720626831

> <r_i_glide_erotb>
0.56618514136648

> <r_i_glide_esite>
-0.00335026480303116

> <r_i_glide_emodel>
-64.8262335792526

> <r_i_glide_energy>
-43.2628927230835

> <r_i_glide_einternal>
4.76328802108765

> <i_i_glide_confnum>
201

> <i_i_glide_posenum>
217

> <r_i_glide_eff_state_penalty>
0

> <i_f3d_flags>
0

> <s_user_duplicate_titles>
458490

> <s_m_subgroup_title>
dock_pv

> <s_m_subgroupid>
dock_pv1

> <b_m_subgroup_collapsed>
0

$$$$
312623
                    3D
 Schrodinger Suite 2021-1.
 52 56  0  0  1  0            999 V2000
   21.0386   35.1982   86.8873 C   0  0  0  0  0  0
   19.9059   36.1208   86.4522 C   0  0  0  0  0  0
   18.7750   36.2319   87.2713 C   0  0  0  0  0  0
   17.6959   37.0208   86.8867 C   0  0  0  0  0  0
   17.7117   37.6514   85.6492 C   0  0  0  0  0  0
   18.8032   37.5090   84.7960 C   0  0  0  0  0  0
   19.9288   36.7684   85.1982 C   0  0  0  0  0  0
   21.0291   36.6211   84.3283 N   0  0  0  0  0  0
   22.3288   37.1145   84.4888 C   0  0  0  0  0  0
   23.4028   36.5155   83.7971 C   0  0  0  0  0  0
   23.6561   35.4520   82.8870 C   0  0  0  0  0  0
   24.9341   35.3955   82.5708 N   0  0  0  0  0  0
   25.5450   36.3484   83.2438 C   0  0  0  0  0  0
   24.6653   37.0878   84.0043 N   0  0  0  0  0  0
   24.8791   38.1617   84.7959 C   0  0  0  0  0  0
   23.7488   38.7223   85.4416 C   0  0  0  0  0  0
   22.5062   38.1912   85.3014 N   0  0  0  0  0  0
   23.9594   39.8530   86.2547 C   0  0  0  0  0  0
   25.2533   40.3539   86.4064 C   0  0  0  0  0  0
   26.3345   39.7474   85.7424 C   0  0  0  0  0  0
   26.1448   38.6541   84.9449 N   0  0  0  0  0  0
   27.6564   40.1721   85.9315 N   0  0  0  0  0  0
   28.0527   41.3849   86.6729 C   0  0  0  0  0  0
   28.3841   42.5526   85.7181 C   0  0  0  0  0  0
   29.5269   42.1962   84.8867 N   0  0  1  0  0  0
   29.2243   40.9939   84.1024 C   0  0  2  0  0  0
   28.7901   39.8260   85.0428 C   0  0  0  0  0  0
   30.4143   40.5682   83.2141 C   0  0  0  0  0  0
   30.5478   41.4210   82.0917 O   0  0  0  0  0  0
   18.6852   38.2211   83.2295 Cl  0  0  0  0  0  0
   28.3869   41.2172   83.4379 H   0  0  0  0  0  0
   20.7321   34.5236   87.6870 H   0  0  0  0  0  0
   21.3500   34.5604   86.0626 H   0  0  0  0  0  0
   21.9031   35.7771   87.2120 H   0  0  0  0  0  0
   18.7087   35.6876   88.1986 H   0  0  0  0  0  0
   16.8302   37.1142   87.5264 H   0  0  0  0  0  0
   16.8490   38.2215   85.3358 H   0  0  0  0  0  0
   20.9570   35.8278   83.7110 H   0  0  0  0  0  0
   22.9493   34.7534   82.4631 H   0  0  0  0  0  0
   26.6010   36.5723   83.2065 H   0  0  0  0  0  0
   23.1183   40.3084   86.7573 H   0  0  0  0  0  0
   25.3806   41.2124   87.0439 H   0  0  0  0  0  0
   27.3000   41.7092   87.3861 H   0  0  0  0  0  0
   28.9230   41.1471   87.2880 H   0  0  0  0  0  0
   27.5267   42.8078   85.0916 H   0  0  0  0  0  0
   28.6221   43.4575   86.2784 H   0  0  0  0  0  0
   29.7700   42.9706   84.2704 H   0  0  0  0  0  0
   28.5248   38.9717   84.4211 H   0  0  0  0  0  0
   29.6263   39.5030   85.6663 H   0  0  0  0  0  0
   30.2632   39.5559   82.8378 H   0  0  0  0  0  0
   31.3456   40.5547   83.7833 H   0  0  0  0  0  0
   30.7205   42.3258   82.4055 H   0  0  0  0  0  0
  1  2  1  0  0  0
  1 32  1  0  0  0
  1 33  1  0  0  0
  1 34  1  0  0  0
  2  7  1  0  0  0
  2  3  2  0  0  0
  3  4  1  0  0  0
  3 35  1  0  0  0
  4  5  2  0  0  0
  4 36  1  0  0  0
  5  6  1  0  0  0
  5 37  1  0  0  0
  6  7  2  0  0  0
  6 30  1  0  0  0
  7  8  1  0  0  0
  8  9  1  0  0  0
  8 38  1  0  0  0
  9 17  2  0  0  0
  9 10  1  0  0  0
 10 14  1  0  0  0
 10 11  2  0  0  0
 11 12  1  0  0  0
 11 39  1  0  0  0
 12 13  2  0  0  0
 13 14  1  0  0  0
 13 40  1  0  0  0
 14 15  1  0  0  0
 15 21  1  0  0  0
 15 16  2  0  0  0
 16 17  1  0  0  0
 16 18  1  0  0  0
 18 19  2  0  0  0
 18 41  1  0  0  0
 19 20  1  0  0  0
 19 42  1  0  0  0
 20 21  2  0  0  0
 20 22  1  0  0  0
 22 27  1  0  0  0
 22 23  1  0  0  0
 23 24  1  0  0  0
 23 43  1  0  0  0
 23 44  1  0  0  0
 24 25  1  0  0  0
 24 45  1  0  0  0
 24 46  1  0  0  0
 25 26  1  0  0  0
 25 47  1  0  0  0
 26 31  1  0  0  0
 26 27  1  0  0  0
 26 28  1  0  0  0
 27 48  1  0  0  0
 27 49  1  0  0  0
 28 29  1  0  0  0
 28 50  1  0  0  0
 28 51  1  0  0  0
 29 52  1  0  0  0
M  END
> <s_m_entry_id>
5827

> <s_m_entry_name>
ligand_docking-pose.16

> <s_m_Source_Path>
/home/csk/Desktop/cluster/DUD-E-result/lck

> <s_m_Source_File>
ligand_docking-pose.sdf

> <i_m_Source_File_Index>
16

> <i_lp_mmshare_version>
53161

> <r_lp_tautomer_probability>
1

> <s_lp_Force_Field>
OPLS_2005

> <r_lp_Energy>
83.108063

> <b_lp_Chiralities_Consistent>
1

> <s_lp_Variant>
312623-1

> <s_i_glide_gridfile>
glide-grid_2of2

> <i_i_glide_lignum>
403

> <i_i_glide_rotatable_bonds>
5

> <r_i_docking_score>
-8.47255422088361

> <r_i_glide_ligand_efficiency>
-0.282418474029454

> <r_i_glide_ligand_efficiency_sa>
-0.877539861791309

> <r_i_glide_ligand_efficiency_ln>
-1.92505663485691

> <r_i_glide_gscore>
-8.47255422088361

> <r_i_glide_lipo>
-2.34008013981691

> <r_i_glide_hbond>
-0.602934418842971

> <r_i_glide_metal>
0

> <r_i_glide_rewards>
-2.48088261083426

> <r_i_glide_evdw>
-41.0401573181152

> <r_i_glide_ecoul>
-9.58621501922607

> <r_i_glide_erotb>
0.441283067400208

> <r_i_glide_esite>
0

> <r_i_glide_emodel>
-73.0778423129242

> <r_i_glide_energy>
-50.6263723373413

> <r_i_glide_einternal>
3.91659593582153

> <i_i_glide_confnum>
45

> <i_i_glide_posenum>
135

> <r_i_glide_eff_state_penalty>
0

> <i_f3d_flags>
0

> <s_user_duplicate_titles>
312623

> <s_m_subgroup_title>
dock_pv

> <s_m_subgroupid>
dock_pv1

> <b_m_subgroup_collapsed>
0

$$$$
312548
                    3D
 Schrodinger Suite 2021-1.
 47 51  0  0  1  0            999 V2000
   21.1290   34.9899   86.8881 C   0  0  0  0  0  0
   20.2803   36.0982   86.2805 C   0  0  0  0  0  0
   19.1007   36.4815   86.9269 C   0  0  0  0  0  0
   18.2566   37.4370   86.3704 C   0  0  0  0  0  0
   18.5684   37.9908   85.1347 C   0  0  0  0  0  0
   19.7261   37.5953   84.4640 C   0  0  0  0  0  0
   20.6117   36.6706   85.0400 C   0  0  0  0  0  0
   21.7500   36.2395   84.3310 N   0  0  0  0  0  0
   23.0264   36.8074   84.2747 C   0  0  0  0  0  0
   23.9987   36.2210   83.4405 C   0  0  0  0  0  0
   24.1233   35.1789   82.4870 C   0  0  0  0  0  0
   25.3698   35.0575   82.0870 N   0  0  0  0  0  0
   26.0521   36.0448   82.6239 C   0  0  0  0  0  0
   25.2684   36.8086   83.4599 N   0  0  0  0  0  0
   25.5625   37.9186   84.1676 C   0  0  0  0  0  0
   24.5217   38.4880   84.9466 C   0  0  0  0  0  0
   23.2858   37.9215   85.0139 N   0  0  0  0  0  0
   24.8155   39.6730   85.6564 C   0  0  0  0  0  0
   26.0912   40.2312   85.5510 C   0  0  0  0  0  0
   27.0636   39.6067   84.7575 C   0  0  0  0  0  0
   26.8122   38.4557   84.0760 N   0  0  0  0  0  0
   28.3393   40.1642   84.5901 N   0  0  0  0  0  0
   28.8445   41.3860   85.2206 C   0  0  0  0  0  0
   30.3415   41.4889   84.9191 C   0  0  0  0  0  0
   30.5227   40.6705   83.6520 C   0  0  1  0  0  0
   29.4616   39.5847   83.8442 C   0  0  0  0  0  0
   30.2308   41.4210   82.4870 O   0  0  0  0  0  0
   20.0022   38.2210   82.8870 Cl  0  0  0  0  0  0
   31.5286   40.2524   83.5909 H   0  0  0  0  0  0
   21.3500   34.2386   86.1303 H   0  0  0  0  0  0
   22.0749   35.3828   87.2608 H   0  0  0  0  0  0
   20.6086   34.4626   87.6870 H   0  0  0  0  0  0
   18.8240   36.0270   87.8668 H   0  0  0  0  0  0
   17.3501   37.7329   86.8802 H   0  0  0  0  0  0
   17.8935   38.7082   84.6909 H   0  0  0  0  0  0
   21.6146   35.4169   83.7660 H   0  0  0  0  0  0
   23.3500   34.5090   82.1395 H   0  0  0  0  0  0
   27.0963   36.2626   82.4515 H   0  0  0  0  0  0
   24.0466   40.1370   86.2571 H   0  0  0  0  0  0
   26.3114   41.1482   86.0760 H   0  0  0  0  0  0
   28.3156   42.2699   84.8602 H   0  0  0  0  0  0
   28.7119   41.3101   86.3010 H   0  0  0  0  0  0
   30.6860   42.5194   84.8183 H   0  0  0  0  0  0
   30.9116   41.0515   85.7408 H   0  0  0  0  0  0
   29.8609   38.7575   84.4332 H   0  0  0  0  0  0
   29.1565   39.1602   82.8870 H   0  0  0  0  0  0
   30.5500   42.3326   82.6162 H   0  0  0  0  0  0
  1  2  1  0  0  0
  1 30  1  0  0  0
  1 31  1  0  0  0
  1 32  1  0  0  0
  2  7  1  0  0  0
  2  3  2  0  0  0
  3  4  1  0  0  0
  3 33  1  0  0  0
  4  5  2  0  0  0
  4 34  1  0  0  0
  5  6  1  0  0  0
  5 35  1  0  0  0
  6  7  2  0  0  0
  6 28  1  0  0  0
  7  8  1  0  0  0
  8  9  1  0  0  0
  8 36  1  0  0  0
  9 17  2  0  0  0
  9 10  1  0  0  0
 10 14  1  0  0  0
 10 11  2  0  0  0
 11 12  1  0  0  0
 11 37  1  0  0  0
 12 13  2  0  0  0
 13 14  1  0  0  0
 13 38  1  0  0  0
 14 15  1  0  0  0
 15 21  1  0  0  0
 15 16  2  0  0  0
 16 17  1  0  0  0
 16 18  1  0  0  0
 18 19  2  0  0  0
 18 39  1  0  0  0
 19 20  1  0  0  0
 19 40  1  0  0  0
 20 21  2  0  0  0
 20 22  1  0  0  0
 22 26  1  0  0  0
 22 23  1  0  0  0
 23 24  1  0  0  0
 23 41  1  0  0  0
 23 42  1  0  0  0
 24 25  1  0  0  0
 24 43  1  0  0  0
 24 44  1  0  0  0
 25 29  1  0  0  0
 25 26  1  0  0  0
 25 27  1  0  0  0
 26 45  1  0  0  0
 26 46  1  0  0  0
 27 47  1  0  0  0
M  END
> <s_m_entry_id>
5828

> <s_m_entry_name>
ligand_docking-pose.17

> <s_m_Source_Path>
/home/csk/Desktop/cluster/DUD-E-result/lck

> <s_m_Source_File>
ligand_docking-pose.sdf

> <i_m_Source_File_Index>
17

> <i_lp_mmshare_version>
53161

> <r_lp_tautomer_probability>
1

> <s_lp_Force_Field>
OPLS_2005

> <r_lp_Energy>
79.149884

> <b_lp_Chiralities_Consistent>
1

> <s_lp_Variant>
312548-1

> <s_i_glide_gridfile>
glide-grid_2of2

> <i_i_glide_lignum>
389

> <i_i_glide_rotatable_bonds>
4

> <r_i_docking_score>
-8.46673753949158

> <r_i_glide_ligand_efficiency>
-0.302383483553271

> <r_i_glide_ligand_efficiency_sa>
-0.918214350415315

> <r_i_glide_ligand_efficiency_ln>
-1.95437161833091

> <r_i_glide_gscore>
-8.46673753949158

> <r_i_glide_lipo>
-2.18336397684948

> <r_i_glide_hbond>
-0.734158144832774

> <r_i_glide_metal>
0

> <r_i_glide_rewards>
-2.66428191956294

> <r_i_glide_evdw>
-37.0901260375977

> <r_i_glide_ecoul>
-9.37721824645996

> <r_i_glide_erotb>
0.376155540602491

> <r_i_glide_esite>
0

> <r_i_glide_emodel>
-69.8823220121697

> <r_i_glide_energy>
-46.4673442840576

> <r_i_glide_einternal>
2.53805685043335

> <i_i_glide_confnum>
19

> <i_i_glide_posenum>
205

> <r_i_glide_eff_state_penalty>
0

> <i_f3d_flags>
0

> <s_user_duplicate_titles>
312548

> <s_m_subgroup_title>
dock_pv

> <s_m_subgroupid>
dock_pv1

> <b_m_subgroup_collapsed>
0

$$$$
312555
                    3D
 Schrodinger Suite 2021-1.
 50 53  0  0  1  0            999 V2000
   21.1552   35.5217   86.6954 C   0  0  0  0  0  0
   20.0618   36.4050   86.1006 C   0  0  0  0  0  0
   18.9352   36.6565   86.8870 C   0  0  0  0  0  0
   17.8797   37.4210   86.4022 C   0  0  0  0  0  0
   17.9223   37.9043   85.1008 C   0  0  0  0  0  0
   19.0211   37.6387   84.2842 C   0  0  0  0  0  0
   20.1152   36.8994   84.7785 C   0  0  0  0  0  0
   21.2246   36.6210   83.9530 N   0  0  0  0  0  0
   22.5726   36.9381   84.1654 C   0  0  0  0  0  0
   23.5781   36.2455   83.4539 C   0  0  0  0  0  0
   23.7222   35.2189   82.4870 C   0  0  0  0  0  0
   24.9866   35.0210   82.1806 N   0  0  0  0  0  0
   25.6924   35.8816   82.8792 C   0  0  0  0  0  0
   24.8916   36.6763   83.6705 N   0  0  0  0  0  0
   25.2139   37.7068   84.4774 C   0  0  0  0  0  0
   24.1581   38.3632   85.1547 C   0  0  0  0  0  0
   22.8659   37.9614   85.0173 N   0  0  0  0  0  0
   24.5011   39.4611   85.9720 C   0  0  0  0  0  0
   25.8396   39.8545   86.0636 C   0  0  0  0  0  0
   26.8377   39.1675   85.3446 C   0  0  0  0  0  0
   26.5156   38.0906   84.5715 N   0  0  0  0  0  0
   28.2062   39.5715   85.3614 N   0  0  0  0  0  0
   28.5941   40.6975   86.2173 C   0  0  0  0  0  0
   29.0353   39.1590   84.2018 C   0  0  0  0  0  0
   30.5389   39.5345   84.1329 C   0  0  1  0  0  0
   30.8502   41.0207   83.8370 C   0  0  0  0  0  0
   30.3707   41.4210   82.5651 O   0  0  0  0  0  0
   31.2192   39.0777   85.2870 O   0  0  0  0  0  0
   18.9502   38.2210   82.6589 Cl  0  0  0  0  0  0
   30.9584   38.9651   83.3013 H   0  0  0  0  0  0
   20.7240   34.7452   87.3278 H   0  0  0  0  0  0
   21.7122   34.9895   85.9282 H   0  0  0  0  0  0
   21.8507   36.1164   87.2869 H   0  0  0  0  0  0
   18.8719   36.2548   87.8874 H   0  0  0  0  0  0
   17.0189   37.6254   87.0233 H   0  0  0  0  0  0
   17.0873   38.4802   84.7271 H   0  0  0  0  0  0
   21.0635   35.9016   83.2658 H   0  0  0  0  0  0
   22.9500   34.6211   82.0326 H   0  0  0  0  0  0
   26.7654   36.0021   82.8413 H   0  0  0  0  0  0
   23.7222   39.9909   86.5012 H   0  0  0  0  0  0
   26.0693   40.7152   86.6710 H   0  0  0  0  0  0
   28.1332   40.6233   87.2024 H   0  0  0  0  0  0
   29.6647   40.7394   86.4025 H   0  0  0  0  0  0
   28.2795   41.6420   85.7715 H   0  0  0  0  0  0
   28.5474   39.5214   83.2953 H   0  0  0  0  0  0
   28.9858   38.0711   84.1308 H   0  0  0  0  0  0
   31.9291   41.1836   83.8574 H   0  0  0  0  0  0
   30.4458   41.6911   84.5924 H   0  0  0  0  0  0
   30.5492   42.3762   82.4870 H   0  0  0  0  0  0
   30.7000   39.3052   86.0658 H   0  0  0  0  0  0
  1  2  1  0  0  0
  1 31  1  0  0  0
  1 32  1  0  0  0
  1 33  1  0  0  0
  2  7  1  0  0  0
  2  3  2  0  0  0
  3  4  1  0  0  0
  3 34  1  0  0  0
  4  5  2  0  0  0
  4 35  1  0  0  0
  5  6  1  0  0  0
  5 36  1  0  0  0
  6  7  2  0  0  0
  6 29  1  0  0  0
  7  8  1  0  0  0
  8  9  1  0  0  0
  8 37  1  0  0  0
  9 17  2  0  0  0
  9 10  1  0  0  0
 10 14  1  0  0  0
 10 11  2  0  0  0
 11 12  1  0  0  0
 11 38  1  0  0  0
 12 13  2  0  0  0
 13 14  1  0  0  0
 13 39  1  0  0  0
 14 15  1  0  0  0
 15 21  1  0  0  0
 15 16  2  0  0  0
 16 17  1  0  0  0
 16 18  1  0  0  0
 18 19  2  0  0  0
 18 40  1  0  0  0
 19 20  1  0  0  0
 19 41  1  0  0  0
 20 21  2  0  0  0
 20 22  1  0  0  0
 22 23  1  0  0  0
 22 24  1  0  0  0
 23 42  1  0  0  0
 23 43  1  0  0  0
 23 44  1  0  0  0
 24 25  1  0  0  0
 24 45  1  0  0  0
 24 46  1  0  0  0
 25 30  1  0  0  0
 25 26  1  0  0  0
 25 28  1  0  0  0
 26 27  1  0  0  0
 26 47  1  0  0  0
 26 48  1  0  0  0
 27 49  1  0  0  0
 28 50  1  0  0  0
M  END
> <s_m_entry_id>
5831

> <s_m_entry_name>
ligand_docking-pose.20

> <s_m_Source_Path>
/home/csk/Desktop/cluster/DUD-E-result/lck

> <s_m_Source_File>
ligand_docking-pose.sdf

> <i_m_Source_File_Index>
20

> <i_lp_mmshare_version>
53161

> <r_lp_tautomer_probability>
1

> <s_lp_Force_Field>
OPLS_2005

> <r_lp_Energy>
70.625618

> <b_lp_Chiralities_Consistent>
1

> <s_lp_Variant>
312555-1

> <s_i_glide_gridfile>
glide-grid_2of2

> <i_i_glide_lignum>
405

> <i_i_glide_rotatable_bonds>
8

> <r_i_docking_score>
-8.41963229053913

> <r_i_glide_ligand_efficiency>
-0.290332147949625

> <r_i_glide_ligand_efficiency_sa>
-0.891992342181945

> <r_i_glide_ligand_efficiency_ln>
-1.92788229108015

> <r_i_glide_gscore>
-8.41963229053913

> <r_i_glide_lipo>
-2.35522367455844

> <r_i_glide_hbond>
-0.736251679294714

> <r_i_glide_metal>
0

> <r_i_glide_rewards>
-2.5472267786997

> <r_i_glide_evdw>
-39.3512420654297

> <r_i_glide_ecoul>
-10.0505332946777

> <r_i_glide_erotb>
0.694211939486872

> <r_i_glide_esite>
0

> <r_i_glide_emodel>
-71.2657940343673

> <r_i_glide_energy>
-49.4017753601074

> <r_i_glide_einternal>
7.51351070404053

> <i_i_glide_confnum>
15

> <i_i_glide_posenum>
362

> <r_i_glide_eff_state_penalty>
0

> <i_f3d_flags>
0

> <s_user_duplicate_titles>
312555

> <s_m_subgroup_title>
dock_pv

> <s_m_subgroupid>
dock_pv1

> <b_m_subgroup_collapsed>
0

$$$$
430646
                    3D
 Schrodinger Suite 2021-1.
 43 46  0  0  1  0            999 V2000
   26.4752   40.7292   84.6037 C   0  0  0  0  0  0
   26.8474   39.2863   85.0209 C   0  0  0  0  0  0
   28.1486   38.8855   84.2822 C   0  0  0  0  0  0
   27.1091   39.2344   86.5477 C   0  0  0  0  0  0
   25.7047   38.3863   84.6935 N   0  0  0  0  0  0
   25.5907   37.2965   83.8358 C   0  0  0  0  0  0
   24.2356   36.8750   83.9137 C   0  0  0  0  0  0
   23.6211   37.7430   84.8871 C   0  0  0  0  0  0
   24.5103   38.6208   85.2870 N   0  0  0  0  0  0
   22.2283   37.7018   85.4805 C   0  0  0  0  0  0
   21.6446   36.4345   85.6123 C   0  0  0  0  0  0
   20.3625   36.2509   86.0987 C   0  0  0  0  0  0
   19.5964   37.3352   86.4859 C   0  0  0  0  0  0
   20.1365   38.6395   86.4369 C   0  0  0  0  0  0
   21.4639   38.8461   85.9278 C   0  0  0  0  0  0
   21.9441   40.1893   85.8894 C   0  0  0  0  0  0
   21.1805   41.2436   86.3857 C   0  0  0  0  0  0
   19.9088   41.0157   86.8878 C   0  0  0  0  0  0
   19.3699   39.7386   86.8873 C   0  0  0  0  0  0
   23.8869   35.8211   83.0421 C   0  0  0  0  0  0
   24.8110   35.2094   82.2628 N   0  0  0  0  0  0
   26.0766   35.6909   82.3237 C   0  0  0  0  0  0
   26.5271   36.7374   83.0561 N   0  0  0  0  0  0
   22.5677   35.4211   82.8635 N   0  0  0  0  0  0
   25.5943   41.0951   85.1337 H   0  0  0  0  0  0
   27.2849   41.4286   84.8157 H   0  0  0  0  0  0
   26.2575   40.7914   83.5359 H   0  0  0  0  0  0
   28.4548   37.8646   84.5098 H   0  0  0  0  0  0
   28.0385   38.9615   83.2002 H   0  0  0  0  0  0
   28.9805   39.5339   84.5614 H   0  0  0  0  0  0
   27.3363   38.2210   86.8808 H   0  0  0  0  0  0
   27.9552   39.8631   86.8293 H   0  0  0  0  0  0
   26.2488   39.5778   87.1240 H   0  0  0  0  0  0
   22.1873   35.5427   85.3597 H   0  0  0  0  0  0
   19.9569   35.2515   86.1725 H   0  0  0  0  0  0
   18.5931   37.1805   86.8612 H   0  0  0  0  0  0
   22.9127   40.4235   85.4852 H   0  0  0  0  0  0
   21.5678   42.2532   86.3636 H   0  0  0  0  0  0
   19.3169   41.8373   87.2603 H   0  0  0  0  0  0
   18.3625   39.5782   87.2517 H   0  0  0  0  0  0
   26.8033   35.2093   81.6871 H   0  0  0  0  0  0
   21.8371   35.8781   83.3887 H   0  0  0  0  0  0
   22.3557   34.6927   82.1891 H   0  0  0  0  0  0
  1  2  1  0  0  0
  1 25  1  0  0  0
  1 26  1  0  0  0
  1 27  1  0  0  0
  2  3  1  0  0  0
  2  4  1  0  0  0
  2  5  1  0  0  0
  3 28  1  0  0  0
  3 29  1  0  0  0
  3 30  1  0  0  0
  4 31  1  0  0  0
  4 32  1  0  0  0
  4 33  1  0  0  0
  5  9  1  0  0  0
  5  6  1  0  0  0
  6 23  2  0  0  0
  6  7  1  0  0  0
  7  8  1  0  0  0
  7 20  2  0  0  0
  8  9  2  0  0  0
  8 10  1  0  0  0
 10 15  1  0  0  0
 10 11  2  0  0  0
 11 12  1  0  0  0
 11 34  1  0  0  0
 12 13  2  0  0  0
 12 35  1  0  0  0
 13 14  1  0  0  0
 13 36  1  0  0  0
 14 19  2  0  0  0
 14 15  1  0  0  0
 15 16  2  0  0  0
 16 17  1  0  0  0
 16 37  1  0  0  0
 17 18  2  0  0  0
 17 38  1  0  0  0
 18 19  1  0  0  0
 18 39  1  0  0  0
 19 40  1  0  0  0
 20 21  1  0  0  0
 20 24  1  0  0  0
 21 22  2  0  0  0
 22 23  1  0  0  0
 22 41  1  0  0  0
 24 42  1  0  0  0
 24 43  1  0  0  0
M  END
> <s_m_entry_id>
5837

> <s_m_entry_name>
ligand_docking-pose.26

> <s_m_Source_Path>
/home/csk/Desktop/cluster/DUD-E-result/lck

> <s_m_Source_File>
ligand_docking-pose.sdf

> <i_m_Source_File_Index>
26

> <i_lp_mmshare_version>
53161

> <r_lp_tautomer_probability>
1

> <s_lp_Force_Field>
OPLS_2005

> <r_lp_Energy>
42.969651

> <b_lp_Chiralities_Consistent>
1

> <s_lp_Variant>
430646-1

> <s_i_glide_gridfile>
glide-grid_2of2

> <i_i_glide_lignum>
763

> <i_i_glide_rotatable_bonds>
2

> <r_i_docking_score>
-8.28643815376102

> <r_i_glide_ligand_efficiency>
-0.345268256406709

> <r_i_glide_ligand_efficiency_sa>
-0.995925987831693

> <r_i_glide_ligand_efficiency_ln>
-1.98332489006513

> <r_i_glide_gscore>
-8.28643815376102

> <r_i_glide_lipo>
-2.12497114325557

> <r_i_glide_hbond>
-0.462754769445539

> <r_i_glide_metal>
0

> <r_i_glide_rewards>
-3.18145748187214

> <r_i_glide_evdw>
-34.3463554382324

> <r_i_glide_ecoul>
-6.19597768783569

> <r_i_glide_erotb>
0.129459665899199

> <r_i_glide_esite>
0

> <r_i_glide_emodel>
-58.683004752189

> <r_i_glide_energy>
-40.5423331260681

> <r_i_glide_einternal>
2.51681065559387

> <i_i_glide_confnum>
2

> <i_i_glide_posenum>
306

> <r_i_glide_eff_state_penalty>
0

> <i_f3d_flags>
0

> <s_user_duplicate_titles>
430646

> <s_m_subgroup_title>
dock_pv

> <s_m_subgroupid>
dock_pv1

> <b_m_subgroup_collapsed>
0

$$$$
86358
                    3D
 Schrodinger Suite 2021-1.
 61 68  0  0  1  0            999 V2000
   25.5785   40.9287   88.1299 C   0  0  0  0  0  0
   25.6641   40.9430   86.6024 C   0  0  1  0  0  0
   25.6966   42.4407   86.0417 C   0  0  1  0  0  0
   27.2138   42.8917   85.7093 C   0  0  1  0  0  0
   28.1170   41.8047   84.9620 C   0  0  0  0  0  0
   27.2734   40.5753   85.0283 C   0  0  2  0  0  0
   26.9151   40.4032   86.3606 O   0  0  0  0  0  0
   27.3519   39.2905   84.4244 N   0  0  0  0  0  0
   28.3298   38.5263   83.8155 C   0  0  0  0  0  0
   29.6963   38.7603   83.6217 C   0  0  0  0  0  0
   30.4193   37.7789   82.9424 C   0  0  0  0  0  0
   29.8149   36.6216   82.4569 C   0  0  0  0  0  0
   28.4504   36.3944   82.6224 C   0  0  0  0  0  0
   27.6804   37.3409   83.3252 C   0  0  0  0  0  0
   26.3078   37.3984   83.7039 C   0  0  0  0  0  0
   26.1771   38.5533   84.4767 C   0  0  0  0  0  0
   24.9602   38.9323   85.0984 C   0  0  0  0  0  0
   24.6683   40.0112   85.9721 N   0  0  0  0  0  0
   23.2815   39.9975   86.1505 C   0  0  0  0  0  0
   22.4372   40.8815   86.8422 C   0  0  0  0  0  0
   21.0702   40.6042   86.8509 C   0  0  0  0  0  0
   20.5446   39.4818   86.2208 C   0  0  0  0  0  0
   21.3681   38.5925   85.5359 C   0  0  0  0  0  0
   22.7485   38.8487   85.4806 C   0  0  0  0  0  0
   23.8076   38.1759   84.8471 C   0  0  0  0  0  0
   23.9107   37.0250   84.0386 C   0  0  0  0  0  0
   25.1369   36.6385   83.4901 C   0  0  0  0  0  0
   24.9175   35.4210   82.6552 C   0  0  0  0  0  0
   25.7373   34.7116   82.0870 O   0  0  0  0  0  0
   23.5853   35.2603   82.6218 N   0  0  0  0  0  0
   22.8337   36.1130   83.5267 C   0  0  0  0  0  0
   27.2896   44.2071   85.0814 N   0  0  2  0  0  0
   28.5796   44.8609   85.2590 C   0  0  0  0  0  0
   24.8686   42.5411   84.8742 O   0  0  0  0  0  0
   23.8606   43.5420   84.8887 C   0  0  0  0  0  0
   25.2909   43.0985   86.8143 H   0  0  0  0  0  0
   27.6700   43.0007   86.6959 H   0  0  0  0  0  0
   24.6127   41.2817   88.4833 H   0  0  0  0  0  0
   25.7499   39.9170   88.4988 H   0  0  0  0  0  0
   26.3528   41.5708   88.5514 H   0  0  0  0  0  0
   28.3072   42.0574   83.9178 H   0  0  0  0  0  0
   29.0701   41.6354   85.4636 H   0  0  0  0  0  0
   26.4443   40.8759   84.3760 H   0  0  0  0  0  0
   30.1807   39.6541   83.9875 H   0  0  0  0  0  0
   31.4786   37.9201   82.7842 H   0  0  0  0  0  0
   30.4126   35.8910   81.9301 H   0  0  0  0  0  0
   28.0162   35.4897   82.2275 H   0  0  0  0  0  0
   22.8087   41.7672   87.3330 H   0  0  0  0  0  0
   20.3994   41.2855   87.3549 H   0  0  0  0  0  0
   19.4788   39.3050   86.2540 H   0  0  0  0  0  0
   20.9411   37.7316   85.0433 H   0  0  0  0  0  0
   23.1322   34.5433   82.0702 H   0  0  0  0  0  0
   22.3444   35.5294   84.3073 H   0  0  0  0  0  0
   22.0524   36.6295   82.9703 H   0  0  0  0  0  0
   26.5069   44.7936   85.3357 H   0  0  0  0  0  0
   28.5989   45.8046   84.7129 H   0  0  0  0  0  0
   28.7664   45.0804   86.3110 H   0  0  0  0  0  0
   29.3975   44.2440   84.8868 H   0  0  0  0  0  0
   23.2412   43.4286   83.9991 H   0  0  0  0  0  0
   23.2049   43.4512   85.7543 H   0  0  0  0  0  0
   24.2967   44.5409   84.8871 H   0  0  0  0  0  0
  1  2  1  0  0  0
  1 38  1  0  0  0
  1 39  1  0  0  0
  1 40  1  0  0  0
  2  7  1  0  0  0
  2 18  1  0  0  0
  2  3  1  0  0  0
  3 36  1  0  0  0
  3  4  1  0  0  0
  3 34  1  0  0  0
  4 37  1  0  0  0
  4  5  1  0  0  0
  4 32  1  0  0  0
  5  6  1  0  0  0
  5 41  1  0  0  0
  5 42  1  0  0  0
  6  7  1  0  0  0
  6  8  1  0  0  0
  6 43  1  0  0  0
  8 16  1  0  0  0
  8  9  1  0  0  0
  9 14  2  0  0  0
  9 10  1  0  0  0
 10 11  2  0  0  0
 10 44  1  0  0  0
 11 12  1  0  0  0
 11 45  1  0  0  0
 12 13  2  0  0  0
 12 46  1  0  0  0
 13 14  1  0  0  0
 13 47  1  0  0  0
 14 15  1  0  0  0
 15 27  2  0  0  0
 15 16  1  0  0  0
 16 17  2  0  0  0
 17 25  1  0  0  0
 17 18  1  0  0  0
 18 19  1  0  0  0
 19 24  1  0  0  0
 19 20  2  0  0  0
 20 21  1  0  0  0
 20 48  1  0  0  0
 21 22  2  0  0  0
 21 49  1  0  0  0
 22 23  1  0  0  0
 22 50  1  0  0  0
 23 24  2  0  0  0
 23 51  1  0  0  0
 24 25  1  0  0  0
 25 26  2  0  0  0
 26 31  1  0  0  0
 26 27  1  0  0  0
 27 28  1  0  0  0
 28 29  2  0  0  0
 28 30  1  0  0  0
 30 31  1  0  0  0
 30 52  1  0  0  0
 31 53  1  0  0  0
 31 54  1  0  0  0
 32 33  1  0  0  0
 32 55  1  0  0  0
 33 56  1  0  0  0
 33 57  1  0  0  0
 33 58  1  0  0  0
 34 35  1  0  0  0
 35 59  1  0  0  0
 35 60  1  0  0  0
 35 61  1  0  0  0
M  END
> <s_m_entry_id>
5838

> <s_m_entry_name>
ligand_docking-pose.27

> <s_m_Source_Path>
/home/csk/Desktop/cluster/DUD-E-result/lck

> <s_m_Source_File>
ligand_docking-pose.sdf

> <i_m_Source_File_Index>
27

> <i_lp_mmshare_version>
53161

> <r_lp_tautomer_probability>
1

> <s_lp_Force_Field>
OPLS_2005

> <r_lp_Energy>
156.076751

> <b_lp_Chiralities_Consistent>
1

> <s_lp_Variant>
86358-2

> <s_i_glide_gridfile>
glide-grid_2of2

> <i_i_glide_lignum>
143

> <i_i_glide_rotatable_bonds>
2

> <r_i_docking_score>
-8.22764382875404

> <r_i_glide_ligand_efficiency>
-0.235075537964401

> <r_i_glide_ligand_efficiency_sa>
-0.768947671673519

> <r_i_glide_ligand_efficiency_ln>
-1.80615042312792

> <r_i_glide_gscore>
-8.22764382875404

> <r_i_glide_lipo>
-2.81264105850584

> <r_i_glide_hbond>
-0.528203152466129

> <r_i_glide_metal>
0

> <r_i_glide_rewards>
-1.93516273118539

> <r_i_glide_evdw>
-39.0078201293945

> <r_i_glide_ecoul>
-6.67497253417969

> <r_i_glide_erotb>
0

> <r_i_glide_esite>
0

> <r_i_glide_emodel>
-68.4890516058288

> <r_i_glide_energy>
-45.6827926635742

> <r_i_glide_einternal>
0.0262171607464552

> <i_i_glide_confnum>
1

> <i_i_glide_posenum>
102

> <r_i_glide_eff_state_penalty>
0

> <i_f3d_flags>
0

> <s_user_duplicate_titles>
86358

> <s_m_subgroup_title>
dock_pv

> <s_m_subgroupid>
dock_pv1

> <b_m_subgroup_collapsed>
0

$$$$
354466
                    3D
 Schrodinger Suite 2021-1.
 50 54  0  0  1  0            999 V2000
   33.8806   40.3329   84.1415 C   0  0  0  0  0  0
   32.6905   39.5853   83.9347 O   0  0  0  0  0  0
   32.6819   38.4997   83.1202 C   0  0  0  0  0  0
   33.6808   38.0898   82.5225 O   0  0  0  0  0  0
   31.3332   37.8504   83.0142 C   0  0  0  0  0  0
   30.2123   38.3568   83.6899 C   0  0  0  0  0  0
   28.9678   37.7499   83.5484 C   0  0  0  0  0  0
   28.8227   36.6209   82.7339 C   0  0  0  0  0  0
   29.9410   36.1002   82.0836 C   0  0  0  0  0  0
   31.1844   36.7104   82.2134 C   0  0  0  0  0  0
   27.5989   35.9768   82.4870 N   0  0  0  0  0  0
   26.2712   36.1930   82.8697 C   0  0  0  0  0  0
   25.3856   35.2920   82.3726 N   0  0  0  0  0  0
   24.0943   35.4210   82.7692 C   0  0  0  0  0  0
   23.6882   36.4125   83.6594 C   0  0  0  0  0  0
   24.6601   37.3262   84.0899 C   0  0  0  0  0  0
   25.9534   37.2242   83.6924 N   0  0  0  0  0  0
   24.2660   38.4119   84.9010 N   0  0  0  0  0  0
   25.1061   39.3068   85.6584 C   0  0  0  0  0  0
   24.1315   40.1239   86.4711 C   0  0  0  0  0  0
   22.8495   39.3022   86.5255 C   0  0  0  0  0  0
   21.9281   39.5030   87.3185 O   0  0  0  0  0  0
   22.9747   38.3441   85.5668 N   0  0  0  0  0  0
   22.0336   37.4246   85.1077 C   0  0  0  0  0  0
   22.3254   36.5118   84.1628 C   0  0  0  0  0  0
   20.6613   37.3946   85.6818 C   0  0  0  0  0  0
   19.7343   38.4160   85.4086 C   0  0  0  0  0  0
   18.4409   38.3400   85.9104 C   0  0  0  0  0  0
   18.0407   37.2636   86.6945 C   0  0  0  0  0  0
   18.9497   36.2506   86.9827 C   0  0  0  0  0  0
   20.2529   36.3120   86.4869 C   0  0  0  0  0  0
   21.3358   35.0210   86.8876 Cl  0  0  0  0  0  0
   20.1501   39.8178   84.4868 Cl  0  0  0  0  0  0
   33.6848   41.1561   84.8283 H   0  0  0  0  0  0
   34.6661   39.7102   84.5725 H   0  0  0  0  0  0
   34.2465   40.7519   83.2034 H   0  0  0  0  0  0
   30.2841   39.2299   84.3236 H   0  0  0  0  0  0
   28.1372   38.1846   84.0774 H   0  0  0  0  0  0
   29.8524   35.2288   81.4487 H   0  0  0  0  0  0
   32.0240   36.2874   81.6772 H   0  0  0  0  0  0
   27.6807   35.2179   81.8261 H   0  0  0  0  0  0
   23.3913   34.6931   82.3872 H   0  0  0  0  0  0
   25.7520   38.7094   86.3047 H   0  0  0  0  0  0
   25.7414   39.9197   85.0174 H   0  0  0  0  0  0
   24.5093   40.3373   87.4700 H   0  0  0  0  0  0
   23.9076   41.0722   85.9808 H   0  0  0  0  0  0
   21.5715   35.8096   83.8316 H   0  0  0  0  0  0
   17.7502   39.1381   85.6925 H   0  0  0  0  0  0
   17.0318   37.2236   87.0800 H   0  0  0  0  0  0
   18.6443   35.4143   87.5951 H   0  0  0  0  0  0
  1  2  1  0  0  0
  1 34  1  0  0  0
  1 35  1  0  0  0
  1 36  1  0  0  0
  2  3  1  0  0  0
  3  4  2  0  0  0
  3  5  1  0  0  0
  5 10  1  0  0  0
  5  6  2  0  0  0
  6  7  1  0  0  0
  6 37  1  0  0  0
  7  8  2  0  0  0
  7 38  1  0  0  0
  8  9  1  0  0  0
  8 11  1  0  0  0
  9 10  2  0  0  0
  9 39  1  0  0  0
 10 40  1  0  0  0
 11 12  1  0  0  0
 11 41  1  0  0  0
 12 17  1  0  0  0
 12 13  2  0  0  0
 13 14  1  0  0  0
 14 15  2  0  0  0
 14 42  1  0  0  0
 15 25  1  0  0  0
 15 16  1  0  0  0
 16 17  2  0  0  0
 16 18  1  0  0  0
 18 23  1  0  0  0
 18 19  1  0  0  0
 19 20  1  0  0  0
 19 43  1  0  0  0
 19 44  1  0  0  0
 20 21  1  0  0  0
 20 45  1  0  0  0
 20 46  1  0  0  0
 21 22  2  0  0  0
 21 23  1  0  0  0
 23 24  1  0  0  0
 24 25  2  0  0  0
 24 26  1  0  0  0
 25 47  1  0  0  0
 26 31  1  0  0  0
 26 27  2  0  0  0
 27 28  1  0  0  0
 27 33  1  0  0  0
 28 29  2  0  0  0
 28 48  1  0  0  0
 29 30  1  0  0  0
 29 49  1  0  0  0
 30 31  2  0  0  0
 30 50  1  0  0  0
 31 32  1  0  0  0
M  END
> <s_m_entry_id>
5840

> <s_m_entry_name>
ligand_docking-pose.29

> <s_m_Source_Path>
/home/csk/Desktop/cluster/DUD-E-result/lck

> <s_m_Source_File>
ligand_docking-pose.sdf

> <i_m_Source_File_Index>
29

> <i_lp_mmshare_version>
53161

> <r_lp_tautomer_probability>
1

> <s_lp_Force_Field>
OPLS_2005

> <r_lp_Energy>
24.149247

> <b_lp_Chiralities_Consistent>
1

> <s_lp_Variant>
354466-1

> <s_i_glide_gridfile>
glide-grid_2of2

> <i_i_glide_lignum>
1049

> <i_i_glide_rotatable_bonds>
5

> <r_i_docking_score>
-8.15308961037266

> <r_i_glide_ligand_efficiency>
-0.247063321526444

> <r_i_glide_ligand_efficiency_sa>
-0.792464084555248

> <r_i_glide_ligand_efficiency_ln>
-1.81320491490814

> <r_i_glide_gscore>
-8.15308961037266

> <r_i_glide_lipo>
-3.26452706490297

> <r_i_glide_hbond>
-0.213214128842475

> <r_i_glide_metal>
0

> <r_i_glide_rewards>
-1.75730450045769

> <r_i_glide_evdw>
-47.8278312683105

> <r_i_glide_ecoul>
-4.98965215682983

> <r_i_glide_erotb>
0.244247504181208

> <r_i_glide_esite>
-0.0224520334107263

> <r_i_glide_emodel>
-74.3830717036003

> <r_i_glide_energy>
-52.8174834251404

> <r_i_glide_einternal>
4.51577091217041

> <i_i_glide_confnum>
4

> <i_i_glide_posenum>
23

> <r_i_glide_eff_state_penalty>
0

> <i_f3d_flags>
0

> <s_user_duplicate_titles>
354466

> <s_m_subgroup_title>
dock_pv

> <s_m_subgroupid>
dock_pv1

> <b_m_subgroup_collapsed>
0

$$$$
413836
                    3D
 Schrodinger Suite 2021-1.
 43 45  0  0  1  0            999 V2000
   22.7549   40.5857   85.3231 C   0  0  0  0  0  0
   21.8718   39.3939   85.6817 C   0  0  0  0  0  0
   20.5809   39.6341   86.1659 C   0  0  0  0  0  0
   19.7376   38.5724   86.4869 C   0  0  0  0  0  0
   20.1809   37.2629   86.3294 C   0  0  0  0  0  0
   21.4642   37.0112   85.8532 C   0  0  0  0  0  0
   22.3142   38.0694   85.5090 C   0  0  0  0  0  0
   23.6070   37.8122   85.0193 N   0  0  0  0  0  0
   24.0620   36.8743   84.0862 C   0  0  0  0  0  0
   23.1913   36.0604   83.3499 C   0  0  0  0  0  0
   23.7585   35.2614   82.3610 C   0  0  0  0  0  0
   25.0877   35.2562   82.0945 N   0  0  0  0  0  0
   25.8602   36.0817   82.8404 C   0  0  0  0  0  0
   25.3967   36.8791   83.8435 N   0  0  0  0  0  0
   27.2182   36.0784   82.4910 N   0  0  0  0  0  0
   28.3149   36.8620   82.8878 C   0  0  0  0  0  0
   29.5895   36.4502   82.4844 C   0  0  0  0  0  0
   30.7157   37.2276   82.7669 C   0  0  0  0  0  0
   30.5786   38.4219   83.4750 C   0  0  0  0  0  0
   29.3142   38.8341   83.9024 C   0  0  0  0  0  0
   28.1934   38.0581   83.6108 C   0  0  0  0  0  0
   29.0945   40.3607   84.8033 S   0  0  0  0  0  0
   28.9867   41.4176   83.7932 O   0  0  0  0  0  0
   28.0296   40.1406   85.7860 O   0  0  0  0  0  0
   30.5742   40.6155   85.6870 N   0  0  0  0  0  0
   19.3482   36.2210   86.6307 O   0  0  0  0  0  0
   23.6261   40.6260   85.9782 H   0  0  0  0  0  0
   23.1178   40.4869   84.2998 H   0  0  0  0  0  0
   22.2219   41.5349   85.3931 H   0  0  0  0  0  0
   20.2209   40.6459   86.2870 H   0  0  0  0  0  0
   18.7362   38.7672   86.8461 H   0  0  0  0  0  0
   21.7989   35.9891   85.7539 H   0  0  0  0  0  0
   24.3161   38.4618   85.3232 H   0  0  0  0  0  0
   22.1217   36.0730   83.4882 H   0  0  0  0  0  0
   23.1445   34.6215   81.7485 H   0  0  0  0  0  0
   27.4216   35.4389   81.7347 H   0  0  0  0  0  0
   29.7124   35.5366   81.9213 H   0  0  0  0  0  0
   31.6905   36.9037   82.4377 H   0  0  0  0  0  0
   31.4510   39.0209   83.6901 H   0  0  0  0  0  0
   27.2349   38.4362   83.9253 H   0  0  0  0  0  0
   30.8422   41.6047   85.7165 H   0  0  0  0  0  0
   30.5502   40.1878   86.6198 H   0  0  0  0  0  0
   19.6636   35.3776   86.2926 H   0  0  0  0  0  0
  1  2  1  0  0  0
  1 27  1  0  0  0
  1 28  1  0  0  0
  1 29  1  0  0  0
  2  7  1  0  0  0
  2  3  2  0  0  0
  3  4  1  0  0  0
  3 30  1  0  0  0
  4  5  2  0  0  0
  4 31  1  0  0  0
  5  6  1  0  0  0
  5 26  1  0  0  0
  6  7  2  0  0  0
  6 32  1  0  0  0
  7  8  1  0  0  0
  8  9  1  0  0  0
  8 33  1  0  0  0
  9 14  1  0  0  0
  9 10  2  0  0  0
 10 11  1  0  0  0
 10 34  1  0  0  0
 11 12  2  0  0  0
 11 35  1  0  0  0
 12 13  1  0  0  0
 13 14  2  0  0  0
 13 15  1  0  0  0
 15 16  1  0  0  0
 15 36  1  0  0  0
 16 21  1  0  0  0
 16 17  2  0  0  0
 17 18  1  0  0  0
 17 37  1  0  0  0
 18 19  2  0  0  0
 18 38  1  0  0  0
 19 20  1  0  0  0
 19 39  1  0  0  0
 20 21  2  0  0  0
 20 22  1  0  0  0
 21 40  1  0  0  0
 22 23  2  0  0  0
 22 24  2  0  0  0
 22 25  1  0  0  0
 25 41  1  0  0  0
 25 42  1  0  0  0
 26 43  1  0  0  0
M  END
> <s_m_entry_id>
5843

> <s_m_entry_name>
ligand_docking-pose.32

> <s_m_Source_Path>
/home/csk/Desktop/cluster/DUD-E-result/lck

> <s_m_Source_File>
ligand_docking-pose.sdf

> <i_m_Source_File_Index>
32

> <i_lp_mmshare_version>
53161

> <r_lp_tautomer_probability>
0.999999624730965

> <s_lp_Force_Field>
OPLS_2005

> <r_lp_Energy>
13.28712

> <b_lp_Chiralities_Consistent>
1

> <s_lp_Variant>
413836-1

> <s_i_glide_gridfile>
glide-grid_2of2

> <i_i_glide_lignum>
450

> <i_i_glide_rotatable_bonds>
6

> <r_i_docking_score>
-8.0418091285379

> <r_i_glide_ligand_efficiency>
-0.309300351097612

> <r_i_glide_ligand_efficiency_sa>
-0.916301073088561

> <r_i_glide_ligand_efficiency_ln>
-1.88859248650913

> <r_i_glide_gscore>
-8.0418091285379

> <r_i_glide_lipo>
-2.50278149904508

> <r_i_glide_hbond>
-0.747659223616452

> <r_i_glide_metal>
0

> <r_i_glide_rewards>
-1.70684833932829

> <r_i_glide_evdw>
-36.2177925109863

> <r_i_glide_ecoul>
-10.6344995498657

> <r_i_glide_erotb>
0.391797948149058

> <r_i_glide_esite>
-0.0702534566679633

> <r_i_glide_emodel>
-66.2557114818969

> <r_i_glide_energy>
-46.8522920608521

> <r_i_glide_einternal>
5.22099637985229

> <i_i_glide_confnum>
20

> <i_i_glide_posenum>
318

> <r_i_glide_eff_state_penalty>
0

> <i_f3d_flags>
0

> <s_user_duplicate_titles>
413836

> <s_m_subgroup_title>
dock_pv

> <s_m_subgroupid>
dock_pv1

> <b_m_subgroup_collapsed>
0

$$$$
413845
                    3D
 Schrodinger Suite 2021-1.
 43 46  0  0  1  0            999 V2000
   30.7667   37.4211   82.8428 C   0  0  0  0  0  0
   30.5936   38.5765   83.6053 C   0  0  0  0  0  0
   29.3118   38.9644   84.0308 C   0  0  0  0  0  0
   28.2173   38.1597   83.6828 C   0  0  0  0  0  0
   28.3813   37.0028   82.9078 C   0  0  0  0  0  0
   29.6652   36.6415   82.4873 C   0  0  0  0  0  0
   27.3131   36.1945   82.4872 N   0  0  0  0  0  0
   25.9664   36.0892   82.8643 C   0  0  0  0  0  0
   25.2569   35.2442   82.0866 N   0  0  0  0  0  0
   23.9212   35.1957   82.2828 C   0  0  0  0  0  0
   23.2875   35.9167   83.2867 C   0  0  0  0  0  0
   24.0954   36.7257   84.0915 C   0  0  0  0  0  0
   25.4393   36.8194   83.8841 N   0  0  0  0  0  0
   23.5654   37.5784   85.0669 N   0  0  0  0  0  0
   22.2649   37.7430   85.5854 C   0  0  0  0  0  0
   21.3675   36.6690   85.6505 C   0  0  0  0  0  0
   20.0549   36.8384   86.0756 C   0  0  0  0  0  0
   19.6031   38.0853   86.4874 C   0  0  0  0  0  0
   20.4933   39.1824   86.5353 C   0  0  0  0  0  0
   21.8425   39.0156   86.0821 C   0  0  0  0  0  0
   22.6895   40.1625   86.1435 C   0  0  0  0  0  0
   22.1971   41.3665   86.6364 C   0  0  0  0  0  0
   20.8764   41.4207   87.0643 C   0  0  0  0  0  0
   20.0259   40.3679   87.0202 N   0  0  0  0  0  0
   29.0854   40.2162   84.8444 C   0  0  0  0  0  0
   28.1101   40.3390   85.5833 O   0  0  0  0  0  0
   29.9706   41.2025   84.7049 N   0  0  0  0  0  0
   31.7563   37.1309   82.5201 H   0  0  0  0  0  0
   31.4681   39.1565   83.8680 H   0  0  0  0  0  0
   27.2327   38.4682   83.9945 H   0  0  0  0  0  0
   29.8160   35.7567   81.8849 H   0  0  0  0  0  0
   27.5316   35.6390   81.6674 H   0  0  0  0  0  0
   23.3481   34.6174   81.5801 H   0  0  0  0  0  0
   22.2123   35.8933   83.3530 H   0  0  0  0  0  0
   24.2354   38.2632   85.3796 H   0  0  0  0  0  0
   21.6791   35.6735   85.3760 H   0  0  0  0  0  0
   19.3818   35.9928   86.0792 H   0  0  0  0  0  0
   18.5802   38.2132   86.8150 H   0  0  0  0  0  0
   23.7149   40.1045   85.8060 H   0  0  0  0  0  0
   22.8229   42.2461   86.6805 H   0  0  0  0  0  0
   20.4669   42.3497   87.4367 H   0  0  0  0  0  0
   29.8399   42.0599   85.2165 H   0  0  0  0  0  0
   30.7249   41.1303   84.0410 H   0  0  0  0  0  0
  1  6  1  0  0  0
  1  2  2  0  0  0
  1 28  1  0  0  0
  2  3  1  0  0  0
  2 29  1  0  0  0
  3  4  2  0  0  0
  3 25  1  0  0  0
  4  5  1  0  0  0
  4 30  1  0  0  0
  5  6  2  0  0  0
  5  7  1  0  0  0
  6 31  1  0  0  0
  7  8  1  0  0  0
  7 32  1  0  0  0
  8 13  1  0  0  0
  8  9  2  0  0  0
  9 10  1  0  0  0
 10 11  2  0  0  0
 10 33  1  0  0  0
 11 12  1  0  0  0
 11 34  1  0  0  0
 12 13  2  0  0  0
 12 14  1  0  0  0
 14 15  1  0  0  0
 14 35  1  0  0  0
 15 20  1  0  0  0
 15 16  2  0  0  0
 16 17  1  0  0  0
 16 36  1  0  0  0
 17 18  2  0  0  0
 17 37  1  0  0  0
 18 19  1  0  0  0
 18 38  1  0  0  0
 19 24  2  0  0  0
 19 20  1  0  0  0
 20 21  2  0  0  0
 21 22  1  0  0  0
 21 39  1  0  0  0
 22 23  2  0  0  0
 22 40  1  0  0  0
 23 24  1  0  0  0
 23 41  1  0  0  0
 25 26  2  0  0  0
 25 27  1  0  0  0
 27 42  1  0  0  0
 27 43  1  0  0  0
M  END
> <s_m_entry_id>
5846

> <s_m_entry_name>
ligand_docking-pose.35

> <s_m_Source_Path>
/home/csk/Desktop/cluster/DUD-E-result/lck

> <s_m_Source_File>
ligand_docking-pose.sdf

> <i_m_Source_File_Index>
35

> <i_lp_mmshare_version>
53161

> <r_lp_tautomer_probability>
0.999999624730965

> <s_lp_Force_Field>
OPLS_2005

> <r_lp_Energy>
17.789234

> <b_lp_Chiralities_Consistent>
1

> <s_lp_Variant>
413845-1

> <s_i_glide_gridfile>
glide-grid_2of2

> <i_i_glide_lignum>
75

> <i_i_glide_rotatable_bonds>
5

> <r_i_docking_score>
-7.8896899194823

> <r_i_glide_ligand_efficiency>
-0.292210737758604

> <r_i_glide_ligand_efficiency_sa>
-0.876632212312733

> <r_i_glide_ligand_efficiency_ln>
-1.8365897415515

> <r_i_glide_gscore>
-7.8896899194823

> <r_i_glide_lipo>
-2.53381656785979

> <r_i_glide_hbond>
-0.555171316880165

> <r_i_glide_metal>
0

> <r_i_glide_rewards>
-2.32234885539669

> <r_i_glide_evdw>
-38.721248626709

> <r_i_glide_ecoul>
-6.19760751724243

> <r_i_glide_erotb>
0.421776908499525

> <r_i_glide_esite>
-0.0344265289233654

> <r_i_glide_emodel>
-65.0256497949045

> <r_i_glide_energy>
-44.9188561439514

> <r_i_glide_einternal>
3.40492987632751

> <i_i_glide_confnum>
45

> <i_i_glide_posenum>
348

> <r_i_glide_eff_state_penalty>
0

> <i_f3d_flags>
0

> <s_user_duplicate_titles>
413845

> <s_m_subgroup_title>
dock_pv

> <s_m_subgroupid>
dock_pv1

> <b_m_subgroup_collapsed>
0

$$$$
413846
                    3D
 Schrodinger Suite 2021-1.
 40 43  0  0  1  0            999 V2000
   30.7665   36.8903   82.4870 C   0  0  0  0  0  0
   30.7786   38.0397   83.2775 C   0  0  0  0  0  0
   29.5918   38.5287   83.8463 C   0  0  0  0  0  0
   28.4015   37.8210   83.6216 C   0  0  0  0  0  0
   28.3754   36.6675   82.8249 C   0  0  0  0  0  0
   29.5709   36.2101   82.2613 C   0  0  0  0  0  0
   27.2006   35.9699   82.4871 N   0  0  0  0  0  0
   25.8535   36.0775   82.8631 C   0  0  0  0  0  0
   25.0192   35.2470   82.1889 N   0  0  0  0  0  0
   23.6998   35.3398   82.4862 C   0  0  0  0  0  0
   23.2030   36.2208   83.4404 C   0  0  0  0  0  0
   24.1302   37.0387   84.0933 C   0  0  0  0  0  0
   25.4562   36.9674   83.8120 N   0  0  0  0  0  0
   23.7442   38.0563   84.9731 N   0  0  0  0  0  0
   22.4871   38.3981   85.5038 C   0  0  0  0  0  0
   22.1602   39.7541   85.6046 C   0  0  0  0  0  0
   20.9097   40.1803   86.0521 C   0  0  0  0  0  0
   19.9269   39.2695   86.4354 C   0  0  0  0  0  0
   20.2428   37.9036   86.3919 C   0  0  0  0  0  0
   21.5234   37.4651   85.9532 C   0  0  0  0  0  0
   21.5802   36.1074   86.0747 N   0  0  0  0  0  0
   20.3336   35.8212   86.4869 N   0  0  3  0  0  0
   19.4740   36.8300   86.7141 N   0  0  0  0  0  0
   29.5585   39.7895   84.6845 C   0  0  0  0  0  0
   28.6168   40.0404   85.4344 O   0  0  0  0  0  0
   30.5831   40.6382   84.5614 N   0  0  0  0  0  0
   20.0453   34.8603   86.6062 H   0  0  0  0  0  0
   31.6826   36.5227   82.0492 H   0  0  0  0  0  0
   31.7248   38.5359   83.4359 H   0  0  0  0  0  0
   27.4938   38.2088   84.0539 H   0  0  0  0  0  0
   29.5787   35.3264   81.6382 H   0  0  0  0  0  0
   27.3412   35.3098   81.7363 H   0  0  0  0  0  0
   23.0355   34.6926   81.9355 H   0  0  0  0  0  0
   22.1400   36.2985   83.6017 H   0  0  0  0  0  0
   24.4720   38.7382   85.1221 H   0  0  0  0  0  0
   22.8753   40.5003   85.2963 H   0  0  0  0  0  0
   20.6960   41.2408   86.0870 H   0  0  0  0  0  0
   18.9523   39.6074   86.7582 H   0  0  0  0  0  0
   30.5689   41.4989   85.0881 H   0  0  0  0  0  0
   31.3312   40.4609   83.9086 H   0  0  0  0  0  0
  1  6  1  0  0  0
  1  2  2  0  0  0
  1 28  1  0  0  0
  2  3  1  0  0  0
  2 29  1  0  0  0
  3  4  2  0  0  0
  3 24  1  0  0  0
  4  5  1  0  0  0
  4 30  1  0  0  0
  5  6  2  0  0  0
  5  7  1  0  0  0
  6 31  1  0  0  0
  7  8  1  0  0  0
  7 32  1  0  0  0
  8 13  1  0  0  0
  8  9  2  0  0  0
  9 10  1  0  0  0
 10 11  2  0  0  0
 10 33  1  0  0  0
 11 12  1  0  0  0
 11 34  1  0  0  0
 12 13  2  0  0  0
 12 14  1  0  0  0
 14 15  1  0  0  0
 14 35  1  0  0  0
 15 20  1  0  0  0
 15 16  2  0  0  0
 16 17  1  0  0  0
 16 36  1  0  0  0
 17 18  2  0  0  0
 17 37  1  0  0  0
 18 19  1  0  0  0
 18 38  1  0  0  0
 19 20  1  0  0  0
 19 23  2  0  0  0
 20 21  2  0  0  0
 21 22  1  0  0  0
 22 23  1  0  0  0
 22 27  1  0  0  0
 24 25  2  0  0  0
 24 26  1  0  0  0
 26 39  1  0  0  0
 26 40  1  0  0  0
M  END
> <s_m_entry_id>
5847

> <s_m_entry_name>
ligand_docking-pose.36

> <s_m_Source_Path>
/home/csk/Desktop/cluster/DUD-E-result/lck

> <s_m_Source_File>
ligand_docking-pose.sdf

> <i_m_Source_File_Index>
36

> <i_lp_mmshare_version>
53161

> <r_lp_tautomer_probability>
0.499999812370071

> <s_lp_Force_Field>
OPLS_2005

> <r_lp_Energy>
19.451116

> <b_lp_Chiralities_Consistent>
1

> <s_lp_Variant>
413846-1

> <s_i_glide_gridfile>
glide-grid_2of2

> <i_i_glide_lignum>
77

> <i_i_glide_rotatable_bonds>
5

> <r_i_docking_score>
-7.88744220230457

> <r_i_glide_ligand_efficiency>
-0.303363161627099

> <r_i_glide_ligand_efficiency_sa>
-0.89871217264388

> <r_i_glide_ligand_efficiency_ln>
-1.85233992040243

> <r_i_glide_gscore>
-7.88744220230457

> <r_i_glide_lipo>
-2.43858446554766

> <r_i_glide_hbond>
-0.407556583044065

> <r_i_glide_metal>
0

> <r_i_glide_rewards>
-2.38919263640234

> <r_i_glide_evdw>
-39.5094184875488

> <r_i_glide_ecoul>
-7.17113733291626

> <r_i_glide_erotb>
0.443753875217198

> <r_i_glide_esite>
-0.0447208682128219

> <r_i_glide_emodel>
-64.2812191081498

> <r_i_glide_energy>
-46.6805558204651

> <r_i_glide_einternal>
9.90400505065918

> <i_i_glide_confnum>
30

> <i_i_glide_posenum>
359

> <r_i_glide_eff_state_penalty>
0

> <i_f3d_flags>
0

> <s_user_duplicate_titles>
413846

> <s_m_subgroup_title>
dock_pv

> <s_m_subgroupid>
dock_pv1

> <b_m_subgroup_collapsed>
0

$$$$
158592
                    3D
 Schrodinger Suite 2021-1.
 48 51  0  0  1  0            999 V2000
   27.8639   37.3975   83.3999 C   0  0  0  0  0  0
   27.0207   36.3726   82.8844 O   0  0  0  0  0  0
   25.6754   36.3744   83.1973 C   0  0  0  0  0  0
   24.9595   35.4237   82.5511 N   0  0  0  0  0  0
   23.6295   35.4210   82.8012 C   0  0  0  0  0  0
   23.0219   36.3047   83.6909 C   0  0  0  0  0  0
   23.8229   37.2823   84.3121 C   0  0  0  0  0  0
   25.1668   37.2994   84.0657 N   0  0  0  0  0  0
   23.3304   38.4173   85.2076 C   0  0  0  0  0  0
   24.0719   39.4642   85.8186 C   0  0  0  0  0  0
   23.3063   40.3008   86.4864 N   0  0  0  0  0  0
   22.1026   39.8431   86.3490 C   0  0  0  0  0  0
   22.0149   38.6804   85.6159 N   0  0  0  0  0  0
   20.7661   37.9223   85.3591 C   0  0  2  0  0  0
   20.2315   38.2562   83.9431 C   0  0  0  0  0  0
   18.9466   37.4472   83.6447 C   0  0  0  0  0  0
   17.8327   37.7060   84.6805 C   0  0  1  0  0  0
   18.3577   37.4660   86.1156 C   0  0  0  0  0  0
   19.6635   38.2311   86.4098 C   0  0  0  0  0  0
   17.3501   39.0209   84.4870 O   0  0  0  0  0  0
   25.5178   39.8213   85.7461 C   0  0  0  0  0  0
   26.3223   39.7622   86.8871 C   0  0  0  0  0  0
   27.6539   40.1653   86.8213 C   0  0  0  0  0  0
   28.1793   40.6263   85.6171 C   0  0  0  0  0  0
   27.3803   40.7002   84.4801 C   0  0  0  0  0  0
   26.0486   40.3000   84.5490 C   0  0  0  0  0  0
   29.4724   41.0131   85.5529 F   0  0  0  0  0  0
   28.8966   37.1908   83.1200 H   0  0  0  0  0  0
   27.8215   37.4568   84.4884 H   0  0  0  0  0  0
   27.5936   38.3637   82.9751 H   0  0  0  0  0  0
   23.0458   34.6695   82.2887 H   0  0  0  0  0  0
   21.9625   36.2064   83.8185 H   0  0  0  0  0  0
   21.2321   40.3169   86.7712 H   0  0  0  0  0  0
   21.0649   36.8848   85.4916 H   0  0  0  0  0  0
   20.0512   39.3278   83.8517 H   0  0  0  0  0  0
   20.9499   37.9975   83.1690 H   0  0  0  0  0  0
   19.1781   36.3807   83.6276 H   0  0  0  0  0  0
   18.5812   37.6922   82.6457 H   0  0  0  0  0  0
   16.9954   37.0375   84.4870 H   0  0  0  0  0  0
   18.5334   36.3995   86.2643 H   0  0  0  0  0  0
   17.5928   37.7463   86.8421 H   0  0  0  0  0  0
   20.0306   37.8986   87.3781 H   0  0  0  0  0  0
   19.4419   39.2947   86.4925 H   0  0  0  0  0  0
   16.8403   39.2997   85.2670 H   0  0  0  0  0  0
   25.9110   39.4206   87.8249 H   0  0  0  0  0  0
   28.2792   40.1332   87.6997 H   0  0  0  0  0  0
   27.7932   41.0722   83.5551 H   0  0  0  0  0  0
   25.4115   40.3755   83.6870 H   0  0  0  0  0  0
  1  2  1  0  0  0
  1 28  1  0  0  0
  1 29  1  0  0  0
  1 30  1  0  0  0
  2  3  1  0  0  0
  3  8  1  0  0  0
  3  4  2  0  0  0
  4  5  1  0  0  0
  5  6  2  0  0  0
  5 31  1  0  0  0
  6  7  1  0  0  0
  6 32  1  0  0  0
  7  8  2  0  0  0
  7  9  1  0  0  0
  9 13  1  0  0  0
  9 10  2  0  0  0
 10 11  1  0  0  0
 10 21  1  0  0  0
 11 12  2  0  0  0
 12 13  1  0  0  0
 12 33  1  0  0  0
 13 14  1  0  0  0
 14 19  1  0  0  0
 14 15  1  0  0  0
 14 34  1  0  0  0
 15 16  1  0  0  0
 15 35  1  0  0  0
 15 36  1  0  0  0
 16 17  1  0  0  0
 16 37  1  0  0  0
 16 38  1  0  0  0
 17 18  1  0  0  0
 17 20  1  0  0  0
 17 39  1  0  0  0
 18 19  1  0  0  0
 18 40  1  0  0  0
 18 41  1  0  0  0
 19 42  1  0  0  0
 19 43  1  0  0  0
 20 44  1  0  0  0
 21 26  1  0  0  0
 21 22  2  0  0  0
 22 23  1  0  0  0
 22 45  1  0  0  0
 23 24  2  0  0  0
 23 46  1  0  0  0
 24 25  1  0  0  0
 24 27  1  0  0  0
 25 26  2  0  0  0
 25 47  1  0  0  0
 26 48  1  0  0  0
M  END
> <s_m_entry_id>
5848

> <s_m_entry_name>
ligand_docking-pose.37

> <s_m_Source_Path>
/home/csk/Desktop/cluster/DUD-E-result/lck

> <s_m_Source_File>
ligand_docking-pose.sdf

> <i_m_Source_File_Index>
37

> <i_lp_mmshare_version>
53161

> <r_lp_tautomer_probability>
1

> <s_lp_Force_Field>
OPLS_2005

> <r_lp_Energy>
25.850836

> <b_lp_Chiralities_Consistent>
1

> <s_lp_Variant>
158592-1

> <s_i_glide_gridfile>
glide-grid_2of2

> <i_i_glide_lignum>
1043

> <i_i_glide_rotatable_bonds>
5

> <r_i_docking_score>
-7.8872232113358

> <r_i_glide_ligand_efficiency>
-0.292119378197622

> <r_i_glide_ligand_efficiency_sa>
-0.876358133630089

> <r_i_glide_ligand_efficiency_ln>
-1.83601553256186

> <r_i_glide_gscore>
-7.8872232113358

> <r_i_glide_lipo>
-2.92124540438755

> <r_i_glide_hbond>
-0.377617660703307

> <r_i_glide_metal>
0

> <r_i_glide_rewards>
-2.42199176057273

> <r_i_glide_evdw>
-34.4858741760254

> <r_i_glide_ecoul>
-5.75337314605713

> <r_i_glide_erotb>
0.425932561610475

> <r_i_glide_esite>
-0.00500126657284421

> <r_i_glide_emodel>
-57.871607057425

> <r_i_glide_energy>
-40.2392473220825

> <r_i_glide_einternal>
3.75934553146362

> <i_i_glide_confnum>
1

> <i_i_glide_posenum>
219

> <r_i_glide_eff_state_penalty>
0

> <i_f3d_flags>
0

> <s_user_duplicate_titles>
158592

> <s_m_subgroup_title>
dock_pv

> <s_m_subgroupid>
dock_pv1

> <b_m_subgroup_collapsed>
0

$$$$
312407
                    3D
 Schrodinger Suite 2021-1.
 50 53  0  0  1  0            999 V2000
   20.2412   39.0038   84.0873 C   0  0  0  0  0  0
   19.8397   38.0243   85.1764 C   0  0  0  0  0  0
   18.6499   38.2760   85.8696 C   0  0  0  0  0  0
   18.1887   37.3916   86.8383 C   0  0  0  0  0  0
   18.9369   36.2617   87.1500 C   0  0  0  0  0  0
   20.1390   36.0087   86.4868 C   0  0  0  0  0  0
   20.5840   36.8598   85.4595 C   0  0  0  0  0  0
   21.7367   36.4984   84.7296 N   0  0  0  0  0  0
   22.9718   37.1373   84.5697 C   0  0  0  0  0  0
   23.9563   36.5388   83.7534 C   0  0  0  0  0  0
   24.1226   35.4215   82.8873 C   0  0  0  0  0  0
   25.3470   35.3774   82.4057 N   0  0  0  0  0  0
   25.9929   36.4215   82.8833 C   0  0  0  0  0  0
   25.1955   37.1910   83.7036 N   0  0  0  0  0  0
   25.4567   38.3484   84.3522 C   0  0  0  0  0  0
   24.4006   38.9234   85.1026 C   0  0  0  0  0  0
   23.1918   38.3115   85.2219 N   0  0  0  0  0  0
   24.6454   40.1650   85.7234 C   0  0  0  0  0  0
   25.9009   40.7601   85.5881 C   0  0  0  0  0  0
   26.9240   40.1185   84.8641 C   0  0  0  0  0  0
   26.6909   38.9215   84.2451 N   0  0  0  0  0  0
   28.2256   40.6920   84.7493 N   0  0  0  0  0  0
   29.3457   39.8756   84.2307 C   0  0  0  0  0  0
   30.5245   40.5852   83.5219 C   0  0  0  0  0  0
   30.1608   41.4209   82.4450 O   0  0  0  0  0  0
   28.5453   41.9378   85.4669 C   0  0  0  0  0  0
   28.2006   43.2327   84.7044 C   0  0  0  0  0  0
   28.9487   44.3639   85.0968 O   0  0  0  0  0  0
   21.0520   34.6211   86.9638 Cl  0  0  0  0  0  0
   19.3566   39.4965   83.6875 H   0  0  0  0  0  0
   20.9232   39.7606   84.4757 H   0  0  0  0  0  0
   20.7188   38.4921   83.2524 H   0  0  0  0  0  0
   18.0615   39.1566   85.6513 H   0  0  0  0  0  0
   17.2594   37.5939   87.3520 H   0  0  0  0  0  0
   18.5867   35.5836   87.9147 H   0  0  0  0  0  0
   21.6958   35.5698   84.3398 H   0  0  0  0  0  0
   23.3898   34.6740   82.6158 H   0  0  0  0  0  0
   27.0163   36.6880   82.6627 H   0  0  0  0  0  0
   23.8566   40.6408   86.2885 H   0  0  0  0  0  0
   26.0548   41.7162   86.0627 H   0  0  0  0  0  0
   28.9700   39.2019   83.4604 H   0  0  0  0  0  0
   29.7047   39.1275   84.9386 H   0  0  0  0  0  0
   31.4917   40.0825   83.5470 H   0  0  0  0  0  0
   30.8099   41.3818   84.2044 H   0  0  0  0  0  0
   30.4974   42.3206   82.6081 H   0  0  0  0  0  0
   28.1320   41.9924   86.4739 H   0  0  0  0  0  0
   29.5915   41.9704   85.7680 H   0  0  0  0  0  0
   28.5499   43.0545   83.6877 H   0  0  0  0  0  0
   27.1543   43.3468   84.4194 H   0  0  0  0  0  0
   29.5926   44.5430   84.3908 H   0  0  0  0  0  0
  1  2  1  0  0  0
  1 30  1  0  0  0
  1 31  1  0  0  0
  1 32  1  0  0  0
  2  7  1  0  0  0
  2  3  2  0  0  0
  3  4  1  0  0  0
  3 33  1  0  0  0
  4  5  2  0  0  0
  4 34  1  0  0  0
  5  6  1  0  0  0
  5 35  1  0  0  0
  6  7  2  0  0  0
  6 29  1  0  0  0
  7  8  1  0  0  0
  8  9  1  0  0  0
  8 36  1  0  0  0
  9 17  2  0  0  0
  9 10  1  0  0  0
 10 14  1  0  0  0
 10 11  2  0  0  0
 11 12  1  0  0  0
 11 37  1  0  0  0
 12 13  2  0  0  0
 13 14  1  0  0  0
 13 38  1  0  0  0
 14 15  1  0  0  0
 15 21  1  0  0  0
 15 16  2  0  0  0
 16 17  1  0  0  0
 16 18  1  0  0  0
 18 19  2  0  0  0
 18 39  1  0  0  0
 19 20  1  0  0  0
 19 40  1  0  0  0
 20 21  2  0  0  0
 20 22  1  0  0  0
 22 23  1  0  0  0
 22 26  1  0  0  0
 23 24  1  0  0  0
 23 41  1  0  0  0
 23 42  1  0  0  0
 24 25  1  0  0  0
 24 43  1  0  0  0
 24 44  1  0  0  0
 25 45  1  0  0  0
 26 27  1  0  0  0
 26 46  1  0  0  0
 26 47  1  0  0  0
 27 28  1  0  0  0
 27 48  1  0  0  0
 27 49  1  0  0  0
 28 50  1  0  0  0
M  END
> <s_m_entry_id>
5853

> <s_m_entry_name>
ligand_docking-pose.42

> <s_m_Source_Path>
/home/csk/Desktop/cluster/DUD-E-result/lck

> <s_m_Source_File>
ligand_docking-pose.sdf

> <i_m_Source_File_Index>
42

> <i_lp_mmshare_version>
53161

> <r_lp_tautomer_probability>
1

> <s_lp_Force_Field>
OPLS_2005

> <r_lp_Energy>
65.457311

> <b_lp_Chiralities_Consistent>
1

> <s_lp_Variant>
312407-1

> <s_i_glide_gridfile>
glide-grid_2of2

> <i_i_glide_lignum>
410

> <i_i_glide_rotatable_bonds>
9

> <r_i_docking_score>
-7.78495929818049

> <r_i_glide_ligand_efficiency>
-0.268446872351051

> <r_i_glide_ligand_efficiency_sa>
-0.824753841801146

> <r_i_glide_ligand_efficiency_ln>
-1.78255826974849

> <r_i_glide_gscore>
-7.78495929818049

> <r_i_glide_lipo>
-1.98925987142332

> <r_i_glide_hbond>
-0.611618892385715

> <r_i_glide_metal>
0

> <r_i_glide_rewards>
-2.4083188904238

> <r_i_glide_evdw>
-38.8609886169434

> <r_i_glide_ecoul>
-10.9508409500122

> <r_i_glide_erotb>
0.80991392940135

> <r_i_glide_esite>
0

> <r_i_glide_emodel>
-69.6880633609632

> <r_i_glide_energy>
-49.8118295669556

> <r_i_glide_einternal>
7.63290977478027

> <i_i_glide_confnum>
174

> <i_i_glide_posenum>
42

> <r_i_glide_eff_state_penalty>
0

> <i_f3d_flags>
0

> <s_user_duplicate_titles>
312407

> <s_m_subgroup_title>
dock_pv

> <s_m_subgroupid>
dock_pv1

> <b_m_subgroup_collapsed>
0

$$$$
37521
                    3D
 Schrodinger Suite 2021-1.
 52 55  0  0  1  0            999 V2000
   27.0471   43.2859   84.7338 C   0  0  0  0  0  0
   28.5519   42.9933   84.6692 C   0  0  0  0  0  0
   28.8515   41.6059   85.0005 N   0  0  0  0  0  0
   29.0579   40.6187   84.1129 C   0  0  0  0  0  0
   29.0826   40.7784   82.8885 O   0  0  0  0  0  0
   29.2456   39.2227   84.7193 C   0  0  0  0  0  0
   28.3179   38.1850   84.0652 C   0  0  0  0  0  0
   28.8146   37.2821   83.1232 C   0  0  0  0  0  0
   28.0362   36.3902   82.4911 N   0  0  0  0  0  0
   26.7211   36.3235   82.7629 C   0  0  0  0  0  0
   26.0580   37.1909   83.7082 C   0  0  0  0  0  0
   26.9081   38.1526   84.3653 C   0  0  0  0  0  0
   26.3292   39.0579   85.2975 C   0  0  0  0  0  0
   24.9763   39.0710   85.5953 C   0  0  0  0  0  0
   24.1408   38.1421   84.9837 C   0  0  0  0  0  0
   24.6470   37.1966   84.0556 C   0  0  0  0  0  0
   23.4990   36.4794   83.6779 N   0  0  0  0  0  0
   22.4371   37.0507   84.3697 C   0  0  0  0  0  0
   22.7960   38.0104   85.1776 N   0  0  0  0  0  0
   21.1396   36.6210   84.1822 N   0  0  0  0  0  0
   20.0295   36.9182   84.9890 C   0  0  0  0  0  0
   18.9591   37.6695   84.4773 C   0  0  0  0  0  0
   17.8417   37.9310   85.2699 C   0  0  0  0  0  0
   17.7633   37.4204   86.5614 C   0  0  0  0  0  0
   18.7918   36.6207   87.0523 C   0  0  0  0  0  0
   19.9217   36.3613   86.2744 C   0  0  0  0  0  0
   21.1339   35.2837   86.8870 Cl  0  0  0  0  0  0
   18.9447   38.2212   82.8424 Cl  0  0  0  0  0  0
   23.3290   35.4329   82.6682 C   0  0  0  0  0  0
   26.0436   35.3729   82.0857 O   0  0  0  0  0  0
   30.2713   37.2537   82.6760 C   0  0  0  0  0  0
   26.8387   44.3070   84.4142 H   0  0  0  0  0  0
   26.6660   43.1781   85.7496 H   0  0  0  0  0  0
   26.4792   42.6168   84.0870 H   0  0  0  0  0  0
   28.9409   43.2468   83.6867 H   0  0  0  0  0  0
   29.0838   43.6374   85.3704 H   0  0  0  0  0  0
   28.9352   41.3911   85.9824 H   0  0  0  0  0  0
   30.2956   38.9620   84.6051 H   0  0  0  0  0  0
   29.0878   39.2257   85.7984 H   0  0  0  0  0  0
   26.9437   39.7856   85.8008 H   0  0  0  0  0  0
   24.5820   39.7866   86.3025 H   0  0  0  0  0  0
   20.9420   35.8762   83.5309 H   0  0  0  0  0  0
   17.0208   38.5199   84.8842 H   0  0  0  0  0  0
   16.8923   37.6253   87.1672 H   0  0  0  0  0  0
   18.7007   36.1856   88.0374 H   0  0  0  0  0  0
   22.3219   35.0213   82.6678 H   0  0  0  0  0  0
   23.5363   35.8209   81.6742 H   0  0  0  0  0  0
   23.9983   34.6210   82.8868 H   0  0  0  0  0  0
   26.6803   35.0215   81.4540 H   0  0  0  0  0  0
   30.5629   38.2202   82.2676 H   0  0  0  0  0  0
   30.9343   37.0271   83.5093 H   0  0  0  0  0  0
   30.4521   36.5054   81.9015 H   0  0  0  0  0  0
  1  2  1  0  0  0
  1 32  1  0  0  0
  1 33  1  0  0  0
  1 34  1  0  0  0
  2  3  1  0  0  0
  2 35  1  0  0  0
  2 36  1  0  0  0
  3  4  1  0  0  0
  3 37  1  0  0  0
  4  5  2  0  0  0
  4  6  1  0  0  0
  6  7  1  0  0  0
  6 38  1  0  0  0
  6 39  1  0  0  0
  7 12  1  0  0  0
  7  8  2  0  0  0
  8  9  1  0  0  0
  8 31  1  0  0  0
  9 10  2  0  0  0
 10 11  1  0  0  0
 10 30  1  0  0  0
 11 16  2  0  0  0
 11 12  1  0  0  0
 12 13  2  0  0  0
 13 14  1  0  0  0
 13 40  1  0  0  0
 14 15  2  0  0  0
 14 41  1  0  0  0
 15 19  1  0  0  0
 15 16  1  0  0  0
 16 17  1  0  0  0
 17 18  1  0  0  0
 17 29  1  0  0  0
 18 19  2  0  0  0
 18 20  1  0  0  0
 20 21  1  0  0  0
 20 42  1  0  0  0
 21 26  1  0  0  0
 21 22  2  0  0  0
 22 23  1  0  0  0
 22 28  1  0  0  0
 23 24  2  0  0  0
 23 43  1  0  0  0
 24 25  1  0  0  0
 24 44  1  0  0  0
 25 26  2  0  0  0
 25 45  1  0  0  0
 26 27  1  0  0  0
 29 46  1  0  0  0
 29 47  1  0  0  0
 29 48  1  0  0  0
 30 49  1  0  0  0
 31 50  1  0  0  0
 31 51  1  0  0  0
 31 52  1  0  0  0
M  END
> <s_m_entry_id>
5864

> <s_m_entry_name>
ligand_docking-pose.53

> <s_m_Source_Path>
/home/csk/Desktop/cluster/DUD-E-result/lck

> <s_m_Source_File>
ligand_docking-pose.sdf

> <i_m_Source_File_Index>
53

> <i_lp_mmshare_version>
53161

> <r_lp_tautomer_probability>
1

> <s_lp_Force_Field>
OPLS_2005

> <r_lp_Energy>
26.978263

> <b_lp_Chiralities_Consistent>
1

> <s_lp_Variant>
37521-1

> <s_i_glide_gridfile>
glide-grid_2of2

> <i_i_glide_lignum>
850

> <i_i_glide_rotatable_bonds>
7

> <r_i_docking_score>
-7.67638972165357

> <r_i_glide_ligand_efficiency>
-0.247625474892051

> <r_i_glide_ligand_efficiency_sa>
-0.777885874974702

> <r_i_glide_ligand_efficiency_ln>
-1.73126113532502

> <r_i_glide_gscore>
-7.67638972165357

> <r_i_glide_lipo>
-3.36382032806351

> <r_i_glide_hbond>
-0.687071429280592

> <r_i_glide_metal>
0

> <r_i_glide_rewards>
-0.756243159439539

> <r_i_glide_evdw>
-44.1962966918945

> <r_i_glide_ecoul>
-7.45089483261108

> <r_i_glide_erotb>
0.478685047847858

> <r_i_glide_esite>
-0.0204907932313971

> <r_i_glide_emodel>
-71.5255456665078

> <r_i_glide_energy>
-51.6471915245056

> <r_i_glide_einternal>
4.29991483688354

> <i_i_glide_confnum>
17

> <i_i_glide_posenum>
68

> <r_i_glide_eff_state_penalty>
0

> <i_f3d_flags>
0

> <s_user_duplicate_titles>
37521

> <s_m_subgroup_title>
dock_pv

> <s_m_subgroupid>
dock_pv1

> <b_m_subgroup_collapsed>
0

$$$$
77762
                    3D
 Schrodinger Suite 2021-1.
 31 34  0  0  1  0            999 V2000
   29.5978   38.9032   84.2537 C   0  0  0  0  0  0
   29.9667   37.8458   83.4333 C   0  0  0  0  0  0
   28.9889   37.0209   82.8870 C   0  0  0  0  0  0
   27.6255   37.2425   83.1117 C   0  0  0  0  0  0
   27.2536   38.3072   83.9745 C   0  0  0  0  0  0
   28.2521   39.1251   84.5267 C   0  0  0  0  0  0
   25.8345   38.6002   84.3178 C   0  0  0  0  0  0
   24.8048   37.6944   84.4141 C   0  0  0  0  0  0
   23.6281   38.4329   84.7938 C   0  0  0  0  0  0
   22.2899   38.0870   85.0510 C   0  0  0  0  0  0
   21.3780   39.0915   85.3719 C   0  0  0  0  0  0
   21.7749   40.4246   85.4486 C   0  0  0  0  0  0
   23.0940   40.8170   85.2147 C   0  0  0  0  0  0
   24.0060   39.8053   84.8870 C   0  0  0  0  0  0
   25.3509   39.8573   84.5971 N   0  0  0  0  0  0
   19.5611   38.6343   85.7067 Br  0  0  0  0  0  0
   24.9286   36.2078   84.1917 C   0  0  0  0  0  0
   25.5223   35.8214   82.8249 C   0  0  0  0  0  0
   24.9519   35.0211   82.0871 O   0  0  0  0  0  0
   26.7132   36.3628   82.4873 N   0  0  0  0  0  0
   25.9377   40.6785   84.5708 H   0  0  0  0  0  0
   30.3531   39.5385   84.6886 H   0  0  0  0  0  0
   31.0101   37.6591   83.2237 H   0  0  0  0  0  0
   29.2994   36.2009   82.2544 H   0  0  0  0  0  0
   27.9943   39.9364   85.1905 H   0  0  0  0  0  0
   21.9631   37.0608   84.9914 H   0  0  0  0  0  0
   21.0386   41.1765   85.6978 H   0  0  0  0  0  0
   23.3805   41.8576   85.2796 H   0  0  0  0  0  0
   25.5267   35.7399   84.9734 H   0  0  0  0  0  0
   23.9434   35.7473   84.2594 H   0  0  0  0  0  0
   27.0497   35.9680   81.6181 H   0  0  0  0  0  0
  1  6  1  0  0  0
  1  2  2  0  0  0
  1 22  1  0  0  0
  2  3  1  0  0  0
  2 23  1  0  0  0
  3  4  2  0  0  0
  3 24  1  0  0  0
  4 20  1  0  0  0
  4  5  1  0  0  0
  5  6  2  0  0  0
  5  7  1  0  0  0
  6 25  1  0  0  0
  7 15  1  0  0  0
  7  8  2  0  0  0
  8  9  1  0  0  0
  8 17  1  0  0  0
  9 14  2  0  0  0
  9 10  1  0  0  0
 10 11  2  0  0  0
 10 26  1  0  0  0
 11 12  1  0  0  0
 11 16  1  0  0  0
 12 13  2  0  0  0
 12 27  1  0  0  0
 13 14  1  0  0  0
 13 28  1  0  0  0
 14 15  1  0  0  0
 15 21  1  0  0  0
 17 18  1  0  0  0
 17 29  1  0  0  0
 17 30  1  0  0  0
 18 19  2  0  0  0
 18 20  1  0  0  0
 20 31  1  0  0  0
M  END
> <s_m_entry_id>
5868

> <s_m_entry_name>
ligand_docking-pose.57

> <s_m_Source_Path>
/home/csk/Desktop/cluster/DUD-E-result/lck

> <s_m_Source_File>
ligand_docking-pose.sdf

> <i_m_Source_File_Index>
57

> <i_lp_mmshare_version>
53161

> <r_lp_tautomer_probability>
1

> <s_lp_Force_Field>
OPLS_2005

> <r_lp_Energy>
19.355424

> <b_lp_Chiralities_Consistent>
1

> <s_lp_Variant>
77762-1

> <s_i_glide_gridfile>
glide-grid_2of2

> <i_i_glide_lignum>
7

> <i_i_glide_rotatable_bonds>
0

> <r_i_docking_score>
-7.61171892108028

> <r_i_glide_ligand_efficiency>
-0.380585946054014

> <r_i_glide_ligand_efficiency_sa>
-1.03306919556585

> <r_i_glide_ligand_efficiency_ln>
-1.90496219465426

> <r_i_glide_gscore>
-7.61171892108028

> <r_i_glide_lipo>
-2.42335081064277

> <r_i_glide_hbond>
-0.489278486092254

> <r_i_glide_metal>
0

> <r_i_glide_rewards>
-2.42334995454545

> <r_i_glide_evdw>
-29.7966594696045

> <r_i_glide_ecoul>
-5.23937797546387

> <r_i_glide_erotb>
0

> <r_i_glide_esite>
0

> <r_i_glide_emodel>
-51.1585637072642

> <r_i_glide_energy>
-35.0360374450684

> <r_i_glide_einternal>
0

> <i_i_glide_confnum>
1

> <i_i_glide_posenum>
123

> <r_i_glide_eff_state_penalty>
0

> <i_f3d_flags>
0

> <s_user_duplicate_titles>
77762

> <s_m_subgroup_title>
dock_pv

> <s_m_subgroupid>
dock_pv1

> <b_m_subgroup_collapsed>
0

$$$$
73586
                    3D
 Schrodinger Suite 2021-1.
 66 67  0  0  1  0            999 V2000
   27.1562   37.6867   83.6861 C   0  0  0  0  0  0
   28.0905   38.7222   83.6865 C   0  0  0  0  0  0
   28.0410   39.7277   84.6629 C   0  0  0  0  0  0
   27.0257   39.6796   85.6300 C   0  0  0  0  0  0
   26.0912   38.6430   85.6213 C   0  0  0  0  0  0
   26.1565   37.6326   84.6604 C   0  0  0  0  0  0
   25.1672   36.4684   84.6806 C   0  0  0  0  0  0
   23.7891   36.8508   84.0742 C   0  0  2  0  0  0
   22.6649   37.0940   85.1113 C   0  0  0  0  0  0
   22.5500   36.3472   86.0834 O   0  0  0  0  0  0
   21.8430   38.1245   84.8297 N   0  0  0  0  0  0
   20.8002   38.7656   85.6627 C   0  0  0  0  0  0
   19.9442   37.8521   86.5968 C   0  0  0  0  0  0
   19.1366   36.8034   85.7981 C   0  0  0  0  0  0
   18.2248   37.4585   84.7309 C   0  0  0  0  0  0
   18.9776   38.4813   83.8585 C   0  0  0  0  0  0
   19.7456   39.4781   84.7503 C   0  0  0  0  0  0
   21.5239   39.8066   86.5766 C   0  0  0  0  0  0
   22.4607   39.4451   87.2871 O   0  0  0  0  0  0
   21.1303   41.0912   86.5319 N   0  0  0  0  0  0
   21.8618   42.2613   87.0328 C   0  0  2  0  0  0
   23.3311   42.3371   86.5073 C   0  0  0  0  0  0
   23.4794   42.1108   84.9947 C   0  0  0  0  0  0
   24.0407   41.1066   84.5646 O   0  0  0  0  0  0
   22.9493   43.0209   84.1788 N   0  0  0  0  0  0
   21.7315   42.4287   88.5598 C   0  0  0  0  0  0
   22.3309   41.6923   89.3390 O   0  0  0  0  0  0
   20.9503   43.4225   88.9786 N   0  0  0  0  0  0
   23.2814   35.8206   83.1488 N   0  0  0  0  0  0
   26.9352   40.6626   86.6183 N   0  0  0  0  0  0
   28.9433   40.7692   84.6994 O   0  0  0  0  0  0
   30.3166   40.9225   83.8314 P   0  0  0  0  0  0
   30.1501   41.0210   82.3594 O   0  0  0  0  0  0
   31.0150   42.2207   84.4873 O   0  0  0  0  0  0
   31.2421   39.7002   84.3493 O   0  0  0  0  0  0
   27.2205   36.9208   82.9271 H   0  0  0  0  0  0
   28.8501   38.7304   82.9219 H   0  0  0  0  0  0
   25.3078   38.6300   86.3618 H   0  0  0  0  0  0
   25.0937   36.0503   85.6858 H   0  0  0  0  0  0
   25.6054   35.6492   84.1080 H   0  0  0  0  0  0
   23.9386   37.7676   83.5046 H   0  0  0  0  0  0
   22.1596   38.7027   84.0649 H   0  0  0  0  0  0
   20.5915   37.2900   87.2701 H   0  0  0  0  0  0
   19.3014   38.4368   87.2575 H   0  0  0  0  0  0
   19.8202   36.1082   85.3096 H   0  0  0  0  0  0
   18.5360   36.2080   86.4859 H   0  0  0  0  0  0
   17.7834   36.6973   84.0863 H   0  0  0  0  0  0
   17.3913   37.9561   85.2314 H   0  0  0  0  0  0
   19.6648   37.9601   83.1904 H   0  0  0  0  0  0
   18.2744   39.0152   83.2171 H   0  0  0  0  0  0
   19.0547   40.1065   85.3163 H   0  0  0  0  0  0
   20.2767   40.1584   84.0868 H   0  0  0  0  0  0
   20.3185   41.3187   85.9778 H   0  0  0  0  0  0
   21.3530   43.0999   86.5630 H   0  0  0  0  0  0
   23.9548   41.6010   87.0173 H   0  0  0  0  0  0
   23.7648   43.3086   86.7467 H   0  0  0  0  0  0
   23.0666   42.9184   83.1820 H   0  0  0  0  0  0
   22.4862   43.8529   84.5267 H   0  0  0  0  0  0
   20.8479   43.6047   89.9622 H   0  0  0  0  0  0
   20.4545   43.9979   88.2945 H   0  0  0  0  0  0
   23.2597   34.9142   83.5952 H   0  0  0  0  0  0
   22.3404   36.0175   82.8388 H   0  0  0  0  0  0
   27.5888   41.4331   86.5784 H   0  0  0  0  0  0
   26.1421   40.6759   87.2424 H   0  0  0  0  0  0
   30.9500   43.0130   83.8915 H   0  0  0  0  0  0
   31.6620   39.1856   83.6348 H   0  0  0  0  0  0
  1  6  1  0  0  0
  1  2  2  0  0  0
  1 36  1  0  0  0
  2  3  1  0  0  0
  2 37  1  0  0  0
  3  4  2  0  0  0
  3 31  1  0  0  0
  4  5  1  0  0  0
  4 30  1  0  0  0
  5  6  2  0  0  0
  5 38  1  0  0  0
  6  7  1  0  0  0
  7  8  1  0  0  0
  7 39  1  0  0  0
  7 40  1  0  0  0
  8  9  1  0  0  0
  8 29  1  0  0  0
  8 41  1  0  0  0
  9 10  2  0  0  0
  9 11  1  0  0  0
 11 12  1  0  0  0
 11 42  1  0  0  0
 12 17  1  0  0  0
 12 13  1  0  0  0
 12 18  1  0  0  0
 13 14  1  0  0  0
 13 43  1  0  0  0
 13 44  1  0  0  0
 14 15  1  0  0  0
 14 45  1  0  0  0
 14 46  1  0  0  0
 15 16  1  0  0  0
 15 47  1  0  0  0
 15 48  1  0  0  0
 16 17  1  0  0  0
 16 49  1  0  0  0
 16 50  1  0  0  0
 17 51  1  0  0  0
 17 52  1  0  0  0
 18 19  2  0  0  0
 18 20  1  0  0  0
 20 21  1  0  0  0
 20 53  1  0  0  0
 21 22  1  0  0  0
 21 26  1  0  0  0
 21 54  1  0  0  0
 22 23  1  0  0  0
 22 55  1  0  0  0
 22 56  1  0  0  0
 23 24  2  0  0  0
 23 25  1  0  0  0
 25 57  1  0  0  0
 25 58  1  0  0  0
 26 27  2  0  0  0
 26 28  1  0  0  0
 28 59  1  0  0  0
 28 60  1  0  0  0
 29 61  1  0  0  0
 29 62  1  0  0  0
 30 63  1  0  0  0
 30 64  1  0  0  0
 31 32  1  0  0  0
 32 33  2  0  0  0
 32 34  1  0  0  0
 32 35  1  0  0  0
 34 65  1  0  0  0
 35 66  1  0  0  0
M  END
> <s_m_entry_id>
5869

> <s_m_entry_name>
ligand_docking-pose.58

> <s_m_Source_Path>
/home/csk/Desktop/cluster/DUD-E-result/lck

> <s_m_Source_File>
ligand_docking-pose.sdf

> <i_m_Source_File_Index>
58

> <i_lp_mmshare_version>
53161

> <r_lp_tautomer_probability>
1

> <s_lp_Force_Field>
OPLS_2005

> <r_lp_Energy>
7.56724

> <b_lp_Chiralities_Consistent>
1

> <s_lp_Variant>
73586-1

> <s_i_glide_gridfile>
glide-grid_2of2

> <i_i_glide_lignum>
49

> <i_i_glide_rotatable_bonds>
15

> <r_i_docking_score>
-7.60369353213006

> <r_i_glide_ligand_efficiency>
-0.217248386632287

> <r_i_glide_ligand_efficiency_sa>
-0.710633877613517

> <r_i_glide_ligand_efficiency_ln>
-1.66917948518822

> <r_i_glide_gscore>
-7.60369353213006

> <r_i_glide_lipo>
-2.62256165828391

> <r_i_glide_hbond>
-0.663291215326713

> <r_i_glide_metal>
0

> <r_i_glide_rewards>
-0.348274940083109

> <r_i_glide_evdw>
-38.7046432495117

> <r_i_glide_ecoul>
-17.2482089996338

> <r_i_glide_erotb>
0.852509281049571

> <r_i_glide_esite>
-0.299611487065246

> <r_i_glide_emodel>
-78.2917005702099

> <r_i_glide_energy>
-55.9528522491455

> <r_i_glide_einternal>
11.4802932739258

> <i_i_glide_confnum>
264

> <i_i_glide_posenum>
68

> <r_i_glide_eff_state_penalty>
0

> <i_f3d_flags>
0

> <s_user_duplicate_titles>
73586

> <s_m_subgroup_title>
dock_pv

> <s_m_subgroupid>
dock_pv1

> <b_m_subgroup_collapsed>
0

$$$$
217554
                    3D
 Schrodinger Suite 2021-1.
 36 37  0  0  1  0            999 V2000
   29.9343   35.7039   81.6451 C   0  0  0  0  0  0
   28.6016   35.9136   82.0907 O   0  0  0  0  0  0
   28.2813   36.9631   82.8904 C   0  0  0  0  0  0
   29.1134   37.7849   83.2870 O   0  0  0  0  0  0
   26.8243   37.0210   83.2872 C   0  0  0  0  0  0
   26.4243   38.0622   84.1418 C   0  0  0  0  0  0
   25.1156   38.1464   84.6169 C   0  0  0  0  0  0
   24.1656   37.1929   84.2550 C   0  0  0  0  0  0
   24.5460   36.1600   83.3956 C   0  0  0  0  0  0
   25.8497   36.0713   82.9137 C   0  0  0  0  0  0
   26.1236   35.0201   82.0867 O   0  0  0  0  0  0
   22.8651   37.3209   84.7679 N   0  0  0  0  0  0
   21.7655   36.4733   84.3211 C   0  0  0  0  0  0
   20.4789   36.8476   85.0428 C   0  0  0  0  0  0
   19.6083   37.7718   84.4459 C   0  0  0  0  0  0
   18.4092   38.1202   85.0691 C   0  0  0  0  0  0
   18.0725   37.5487   86.2941 C   0  0  0  0  0  0
   18.9249   36.6209   86.8870 C   0  0  0  0  0  0
   20.1224   36.2626   86.2704 C   0  0  0  0  0  0
   20.9070   35.3153   86.8816 O   0  0  0  0  0  0
   17.5593   39.0207   84.4869 O   0  0  0  0  0  0
   29.9716   34.8325   80.9904 H   0  0  0  0  0  0
   30.6046   35.5254   82.4879 H   0  0  0  0  0  0
   30.3035   36.5629   81.0821 H   0  0  0  0  0  0
   27.1281   38.8182   84.4644 H   0  0  0  0  0  0
   24.8477   38.9577   85.2789 H   0  0  0  0  0  0
   23.8309   35.4126   83.0882 H   0  0  0  0  0  0
   27.0369   35.0653   81.7778 H   0  0  0  0  0  0
   22.6383   38.1483   85.3014 H   0  0  0  0  0  0
   21.6321   36.5870   83.2436 H   0  0  0  0  0  0
   21.9999   35.4222   84.4918 H   0  0  0  0  0  0
   19.8598   38.2210   83.4967 H   0  0  0  0  0  0
   17.1464   37.8146   86.7827 H   0  0  0  0  0  0
   18.6468   36.1646   87.8253 H   0  0  0  0  0  0
   21.2124   34.6562   86.2524 H   0  0  0  0  0  0
   16.9077   39.3506   85.1276 H   0  0  0  0  0  0
  1  2  1  0  0  0
  1 22  1  0  0  0
  1 23  1  0  0  0
  1 24  1  0  0  0
  2  3  1  0  0  0
  3  4  2  0  0  0
  3  5  1  0  0  0
  5 10  1  0  0  0
  5  6  2  0  0  0
  6  7  1  0  0  0
  6 25  1  0  0  0
  7  8  2  0  0  0
  7 26  1  0  0  0
  8  9  1  0  0  0
  8 12  1  0  0  0
  9 10  2  0  0  0
  9 27  1  0  0  0
 10 11  1  0  0  0
 11 28  1  0  0  0
 12 13  1  0  0  0
 12 29  1  0  0  0
 13 14  1  0  0  0
 13 30  1  0  0  0
 13 31  1  0  0  0
 14 19  1  0  0  0
 14 15  2  0  0  0
 15 16  1  0  0  0
 15 32  1  0  0  0
 16 17  2  0  0  0
 16 21  1  0  0  0
 17 18  1  0  0  0
 17 33  1  0  0  0
 18 19  2  0  0  0
 18 34  1  0  0  0
 19 20  1  0  0  0
 20 35  1  0  0  0
 21 36  1  0  0  0
M  END
> <s_m_entry_id>
5870

> <s_m_entry_name>
ligand_docking-pose.59

> <s_m_Source_Path>
/home/csk/Desktop/cluster/DUD-E-result/lck

> <s_m_Source_File>
ligand_docking-pose.sdf

> <i_m_Source_File_Index>
59

> <i_lp_mmshare_version>
53161

> <r_lp_tautomer_probability>
0.999999999416998

> <s_lp_Force_Field>
OPLS_2005

> <r_lp_Energy>
17.282199

> <b_lp_Chiralities_Consistent>
1

> <s_lp_Variant>
217554-1

> <s_i_glide_gridfile>
glide-grid_2of2

> <i_i_glide_lignum>
1051

> <i_i_glide_rotatable_bonds>
8

> <r_i_docking_score>
-7.60134386832369

> <r_i_glide_ligand_efficiency>
-0.361968755634461

> <r_i_glide_ligand_efficiency_sa>
-0.998644350001041

> <r_i_glide_ligand_efficiency_ln>
-1.87941691148148

> <r_i_glide_gscore>
-7.60134386832369

> <r_i_glide_lipo>
-2.63074398249767

> <r_i_glide_hbond>
-0.402017524678598

> <r_i_glide_metal>
0

> <r_i_glide_rewards>
-2.1643619342919

> <r_i_glide_evdw>
-35.0152130126953

> <r_i_glide_ecoul>
-10.1579704284668

> <r_i_glide_erotb>
0.870235788049262

> <r_i_glide_esite>
0

> <r_i_glide_emodel>
-63.2266417248598

> <r_i_glide_energy>
-45.1731834411621

> <r_i_glide_einternal>
6.79752397537231

> <i_i_glide_confnum>
37

> <i_i_glide_posenum>
136

> <r_i_glide_eff_state_penalty>
0

> <i_f3d_flags>
0

> <s_user_duplicate_titles>
217554

> <s_m_subgroup_title>
dock_pv

> <s_m_subgroupid>
dock_pv1

> <b_m_subgroup_collapsed>
0

$$$$
312673
                    3D
 Schrodinger Suite 2021-1.
 40 43  0  0  1  0            999 V2000
   20.9273   34.7206   87.0695 C   0  0  0  0  0  0
   20.0248   35.8550   86.6023 C   0  0  0  0  0  0
   18.8240   36.0755   87.2870 C   0  0  0  0  0  0
   17.9516   37.0804   86.8868 C   0  0  0  0  0  0
   18.2697   37.8641   85.7848 C   0  0  0  0  0  0
   19.4551   37.6487   85.0809 C   0  0  0  0  0  0
   20.3568   36.6459   85.4864 C   0  0  0  0  0  0
   21.5001   36.3246   84.7216 N   0  0  0  0  0  0
   22.6917   37.0141   84.5746 C   0  0  0  0  0  0
   22.8667   38.1333   85.1905 N   0  0  0  0  0  0
   24.1159   38.8263   84.8449 C   0  0  2  0  0  0
   25.3490   37.8980   84.7821 C   0  0  1  0  0  0
   25.0077   36.9059   83.7437 N   0  0  0  0  0  0
   23.7168   36.4122   83.6877 C   0  0  0  0  0  0
   23.7423   35.4210   82.7164 C   0  0  0  0  0  0
   24.9474   35.2953   82.1888 N   0  0  0  0  0  0
   25.7089   36.1754   82.8035 C   0  0  0  0  0  0
   27.1669   36.3605   82.4595 C   0  0  0  0  0  0
   26.3548   38.9304   84.6478 N   0  0  0  0  0  0
   25.8214   39.9729   85.4002 C   0  0  0  0  0  0
   24.5642   39.9371   85.6351 N   0  0  0  0  0  0
   27.7809   38.6358   84.6417 C   0  0  0  0  0  0
   19.7397   38.6207   83.6870 Cl  0  0  0  0  0  0
   20.3792   33.9654   87.6335 H   0  0  0  0  0  0
   21.3497   34.2194   86.2047 H   0  0  0  0  0  0
   21.7538   35.0974   87.6730 H   0  0  0  0  0  0
   18.5492   35.4500   88.1236 H   0  0  0  0  0  0
   17.0240   37.2455   87.4169 H   0  0  0  0  0  0
   17.5777   38.6300   85.4658 H   0  0  0  0  0  0
   21.4662   35.3878   84.3517 H   0  0  0  0  0  0
   23.8983   39.2657   83.8595 H   0  0  0  0  0  0
   25.4931   37.3057   85.6867 H   0  0  0  0  0  0
   22.9106   34.8154   82.3877 H   0  0  0  0  0  0
   27.4928   35.6690   81.6870 H   0  0  0  0  0  0
   27.3502   37.3659   82.0890 H   0  0  0  0  0  0
   27.8420   36.1825   83.2870 H   0  0  0  0  0  0
   26.4834   40.7491   85.7754 H   0  0  0  0  0  0
   28.3292   39.2356   85.3704 H   0  0  0  0  0  0
   27.9639   37.5918   84.8867 H   0  0  0  0  0  0
   28.2046   38.8439   83.6596 H   0  0  0  0  0  0
  1  2  1  0  0  0
  1 24  1  0  0  0
  1 25  1  0  0  0
  1 26  1  0  0  0
  2  7  1  0  0  0
  2  3  2  0  0  0
  3  4  1  0  0  0
  3 27  1  0  0  0
  4  5  2  0  0  0
  4 28  1  0  0  0
  5  6  1  0  0  0
  5 29  1  0  0  0
  6  7  2  0  0  0
  6 23  1  0  0  0
  7  8  1  0  0  0
  8  9  1  0  0  0
  8 30  1  0  0  0
  9 14  1  0  0  0
  9 10  2  0  0  0
 10 11  1  0  0  0
 11 21  1  0  0  0
 11 12  1  0  0  0
 11 31  1  0  0  0
 12 13  1  0  0  0
 12 19  1  0  0  0
 12 32  1  0  0  0
 13 17  1  0  0  0
 13 14  1  0  0  0
 14 15  2  0  0  0
 15 16  1  0  0  0
 15 33  1  0  0  0
 16 17  2  0  0  0
 17 18  1  0  0  0
 18 34  1  0  0  0
 18 35  1  0  0  0
 18 36  1  0  0  0
 19 20  1  0  0  0
 19 22  1  0  0  0
 20 21  2  0  0  0
 20 37  1  0  0  0
 22 38  1  0  0  0
 22 39  1  0  0  0
 22 40  1  0  0  0
M  END
> <s_m_entry_id>
5873

> <s_m_entry_name>
ligand_docking-pose.62

> <s_m_Source_Path>
/home/csk/Desktop/cluster/DUD-E-result/lck

> <s_m_Source_File>
ligand_docking-pose.sdf

> <i_m_Source_File_Index>
62

> <i_lp_mmshare_version>
53161

> <r_lp_tautomer_probability>
1

> <s_lp_Force_Field>
OPLS_2005

> <r_lp_Energy>
50.110324

> <b_lp_Chiralities_Consistent>
1

> <s_lp_Variant>
312673-1

> <s_i_glide_gridfile>
glide-grid_2of2

> <i_i_glide_lignum>
485

> <i_i_glide_rotatable_bonds>
2

> <r_i_docking_score>
-7.55785452276595

> <r_i_glide_ligand_efficiency>
-0.328602370555041

> <r_i_glide_ligand_efficiency_sa>
-0.934501430145723

> <r_i_glide_ligand_efficiency_ln>
-1.82755775444069

> <r_i_glide_gscore>
-7.55785452276595

> <r_i_glide_lipo>
-1.67034656215896

> <r_i_glide_hbond>
-0.295339504519625

> <r_i_glide_metal>
0

> <r_i_glide_rewards>
-3.66591813806772

> <r_i_glide_evdw>
-33.8836402893066

> <r_i_glide_ecoul>
-3.86409187316895

> <r_i_glide_erotb>
0.347545477421027

> <r_i_glide_esite>
0

> <r_i_glide_emodel>
-53.3378252725332

> <r_i_glide_energy>
-37.7477321624756

> <r_i_glide_einternal>
1.51402962207794

> <i_i_glide_confnum>
1

> <i_i_glide_posenum>
299

> <r_i_glide_eff_state_penalty>
0

> <i_f3d_flags>
0

> <s_user_duplicate_titles>
312673

> <s_m_subgroup_title>
dock_pv

> <s_m_subgroupid>
dock_pv1

> <b_m_subgroup_collapsed>
0

$$$$
312574
                    3D
 Schrodinger Suite 2021-1.
 43 45  0  0  1  0            999 V2000
   19.7399   38.5209   83.8241 C   0  0  0  0  0  0
   19.3828   37.7174   85.0673 C   0  0  0  0  0  0
   18.1631   37.9882   85.6942 C   0  0  0  0  0  0
   17.7512   37.2541   86.8035 C   0  0  0  0  0  0
   18.5496   36.2216   87.2855 C   0  0  0  0  0  0
   19.7671   35.9270   86.6666 C   0  0  0  0  0  0
   20.2033   36.6811   85.5649 C   0  0  0  0  0  0
   21.4346   36.3484   84.9685 N   0  0  0  0  0  0
   22.5074   37.1610   84.8741 C   0  0  0  0  0  0
   22.5815   38.2768   85.3914 O   0  0  0  0  0  0
   23.5891   36.6212   84.0880 C   0  0  0  0  0  0
   23.5714   35.7074   83.0296 C   0  0  0  0  0  0
   24.7352   35.4209   82.4746 N   0  0  0  0  0  0
   25.7218   36.1199   82.9804 C   0  0  0  0  0  0
   25.2320   37.1761   84.2807 S   0  0  0  0  0  0
   27.0052   35.9901   82.4869 N   0  0  0  0  0  0
   28.2387   36.6211   82.7449 C   0  0  0  0  0  0
   28.4216   37.7564   83.5495 C   0  0  0  0  0  0
   29.6845   38.3398   83.6864 C   0  0  0  0  0  0
   30.7768   37.7957   83.0098 C   0  0  0  0  0  0
   30.6131   36.6667   82.2048 C   0  0  0  0  0  0
   29.3505   36.0824   82.0870 C   0  0  0  0  0  0
   31.8020   36.0694   81.4760 C   0  0  0  0  0  0
   29.8770   39.5520   84.5800 C   0  0  0  0  0  0
   20.7122   34.6162   87.2869 Cl  0  0  0  0  0  0
   20.2527   37.9012   83.0884 H   0  0  0  0  0  0
   18.8471   38.9018   83.3279 H   0  0  0  0  0  0
   20.3844   39.3598   84.0884 H   0  0  0  0  0  0
   17.5195   38.7709   85.3175 H   0  0  0  0  0  0
   16.8055   37.4799   87.2755 H   0  0  0  0  0  0
   18.2184   35.6373   88.1314 H   0  0  0  0  0  0
   21.5040   35.4058   84.6155 H   0  0  0  0  0  0
   22.6892   35.2137   82.6443 H   0  0  0  0  0  0
   27.1327   35.3137   81.7470 H   0  0  0  0  0  0
   27.6034   38.2254   84.0628 H   0  0  0  0  0  0
   31.7538   38.2464   83.1133 H   0  0  0  0  0  0
   29.2391   35.2102   81.4569 H   0  0  0  0  0  0
   32.7079   36.1596   82.0753 H   0  0  0  0  0  0
   31.6570   35.0049   81.2869 H   0  0  0  0  0  0
   31.9625   36.5793   80.5252 H   0  0  0  0  0  0
   30.7821   39.4393   85.1796 H   0  0  0  0  0  0
   29.9810   40.4582   83.9821 H   0  0  0  0  0  0
   29.0497   39.6766   85.2802 H   0  0  0  0  0  0
  1  2  1  0  0  0
  1 26  1  0  0  0
  1 27  1  0  0  0
  1 28  1  0  0  0
  2  7  1  0  0  0
  2  3  2  0  0  0
  3  4  1  0  0  0
  3 29  1  0  0  0
  4  5  2  0  0  0
  4 30  1  0  0  0
  5  6  1  0  0  0
  5 31  1  0  0  0
  6  7  2  0  0  0
  6 25  1  0  0  0
  7  8  1  0  0  0
  8  9  1  0  0  0
  8 32  1  0  0  0
  9 10  2  0  0  0
  9 11  1  0  0  0
 11 15  1  0  0  0
 11 12  2  0  0  0
 12 13  1  0  0  0
 12 33  1  0  0  0
 13 14  2  0  0  0
 14 15  1  0  0  0
 14 16  1  0  0  0
 16 17  1  0  0  0
 16 34  1  0  0  0
 17 22  1  0  0  0
 17 18  2  0  0  0
 18 19  1  0  0  0
 18 35  1  0  0  0
 19 20  2  0  0  0
 19 24  1  0  0  0
 20 21  1  0  0  0
 20 36  1  0  0  0
 21 22  2  0  0  0
 21 23  1  0  0  0
 22 37  1  0  0  0
 23 38  1  0  0  0
 23 39  1  0  0  0
 23 40  1  0  0  0
 24 41  1  0  0  0
 24 42  1  0  0  0
 24 43  1  0  0  0
M  END
> <s_m_entry_id>
5874

> <s_m_entry_name>
ligand_docking-pose.63

> <s_m_Source_Path>
/home/csk/Desktop/cluster/DUD-E-result/lck

> <s_m_Source_File>
ligand_docking-pose.sdf

> <i_m_Source_File_Index>
63

> <i_lp_mmshare_version>
53161

> <r_lp_tautomer_probability>
1

> <s_lp_Force_Field>
OPLS_2005

> <r_lp_Energy>
21.607432

> <b_lp_Chiralities_Consistent>
1

> <s_lp_Variant>
312574-1

> <s_i_glide_gridfile>
glide-grid_2of2

> <i_i_glide_lignum>
598

> <i_i_glide_rotatable_bonds>
5

> <r_i_docking_score>
-7.55086741931936

> <r_i_glide_ligand_efficiency>
-0.302034696772775

> <r_i_glide_ligand_efficiency_sa>
-0.883154809971748

> <r_i_glide_ligand_efficiency_ln>
-1.78978185961547

> <r_i_glide_gscore>
-7.55086741931936

> <r_i_glide_lipo>
-3.21727950141833

> <r_i_glide_hbond>
-0.233682280930214

> <r_i_glide_metal>
0

> <r_i_glide_rewards>
-2.04949663359824

> <r_i_glide_evdw>
-42.3513069152832

> <r_i_glide_ecoul>
-4.20602130889893

> <r_i_glide_erotb>
0.698059538726426

> <r_i_glide_esite>
0

> <r_i_glide_emodel>
-65.6806436249688

> <r_i_glide_energy>
-46.5573282241821

> <r_i_glide_einternal>
2.99512887001038

> <i_i_glide_confnum>
29

> <i_i_glide_posenum>
177

> <r_i_glide_eff_state_penalty>
0

> <i_f3d_flags>
0

> <s_user_duplicate_titles>
312574

> <s_m_subgroup_title>
dock_pv

> <s_m_subgroupid>
dock_pv1

> <b_m_subgroup_collapsed>
0

$$$$
312499
                    3D
 Schrodinger Suite 2021-1.
 46 49  0  0  1  0            999 V2000
   20.9527   35.3938   86.8871 C   0  0  0  0  0  0
   19.8668   36.3057   86.3157 C   0  0  0  0  0  0
   18.7248   36.5520   87.0857 C   0  0  0  0  0  0
   17.6804   37.3215   86.5817 C   0  0  0  0  0  0
   17.7501   37.8224   85.2859 C   0  0  0  0  0  0
   18.8767   37.5893   84.4995 C   0  0  0  0  0  0
   19.9541   36.8454   85.0135 C   0  0  0  0  0  0
   21.0902   36.6209   84.2154 N   0  0  0  0  0  0
   22.3953   37.0760   84.4219 C   0  0  0  0  0  0
   23.4609   36.4714   83.7248 C   0  0  0  0  0  0
   23.6947   35.4210   82.7978 C   0  0  0  0  0  0
   24.9723   35.3408   82.4864 N   0  0  0  0  0  0
   25.5973   36.2800   83.1689 C   0  0  0  0  0  0
   24.7294   37.0234   83.9386 N   0  0  0  0  0  0
   24.9556   38.0811   84.7504 C   0  0  0  0  0  0
   23.8308   38.6436   85.4084 C   0  0  0  0  0  0
   22.5810   38.1372   85.2510 N   0  0  0  0  0  0
   24.0552   39.7444   86.2593 C   0  0  0  0  0  0
   25.3581   40.2094   86.4402 C   0  0  0  0  0  0
   26.4299   39.6043   85.7599 C   0  0  0  0  0  0
   26.2258   38.5561   84.9087 N   0  0  0  0  0  0
   27.7622   40.0646   85.9333 N   0  0  0  0  0  0
   28.0686   41.1009   86.9204 C   0  0  0  0  0  0
   28.7372   39.8892   84.8513 C   0  0  0  0  0  0
   28.5885   40.8875   83.6868 C   0  0  0  0  0  0
   29.7446   41.0210   82.8871 O   0  0  0  0  0  0
   18.8847   38.2204   82.8874 Cl  0  0  0  0  0  0
   20.5775   34.7395   87.6823 H   0  0  0  0  0  0
   21.3491   34.7283   86.1222 H   0  0  0  0  0  0
   21.7788   35.9882   87.2769 H   0  0  0  0  0  0
   18.6331   36.1371   88.0801 H   0  0  0  0  0  0
   16.8044   37.5150   87.1853 H   0  0  0  0  0  0
   16.9257   38.4019   84.8960 H   0  0  0  0  0  0
   21.0073   35.8370   83.5889 H   0  0  0  0  0  0
   22.9696   34.7472   82.3645 H   0  0  0  0  0  0
   26.6570   36.4897   83.1359 H   0  0  0  0  0  0
   23.2187   40.1969   86.7709 H   0  0  0  0  0  0
   25.5122   41.0485   87.1014 H   0  0  0  0  0  0
   27.6102   40.8767   87.8846 H   0  0  0  0  0  0
   29.1447   41.1897   87.0833 H   0  0  0  0  0  0
   27.6935   42.0694   86.5897 H   0  0  0  0  0  0
   28.7639   38.8767   84.4442 H   0  0  0  0  0  0
   29.7537   39.9399   85.2450 H   0  0  0  0  0  0
   28.4488   41.8687   84.1439 H   0  0  0  0  0  0
   27.6132   40.8456   83.2009 H   0  0  0  0  0  0
   30.2997   41.7121   83.2682 H   0  0  0  0  0  0
  1  2  1  0  0  0
  1 28  1  0  0  0
  1 29  1  0  0  0
  1 30  1  0  0  0
  2  7  1  0  0  0
  2  3  2  0  0  0
  3  4  1  0  0  0
  3 31  1  0  0  0
  4  5  2  0  0  0
  4 32  1  0  0  0
  5  6  1  0  0  0
  5 33  1  0  0  0
  6  7  2  0  0  0
  6 27  1  0  0  0
  7  8  1  0  0  0
  8  9  1  0  0  0
  8 34  1  0  0  0
  9 17  2  0  0  0
  9 10  1  0  0  0
 10 14  1  0  0  0
 10 11  2  0  0  0
 11 12  1  0  0  0
 11 35  1  0  0  0
 12 13  2  0  0  0
 13 14  1  0  0  0
 13 36  1  0  0  0
 14 15  1  0  0  0
 15 21  1  0  0  0
 15 16  2  0  0  0
 16 17  1  0  0  0
 16 18  1  0  0  0
 18 19  2  0  0  0
 18 37  1  0  0  0
 19 20  1  0  0  0
 19 38  1  0  0  0
 20 21  2  0  0  0
 20 22  1  0  0  0
 22 23  1  0  0  0
 22 24  1  0  0  0
 23 39  1  0  0  0
 23 40  1  0  0  0
 23 41  1  0  0  0
 24 25  1  0  0  0
 24 42  1  0  0  0
 24 43  1  0  0  0
 25 26  1  0  0  0
 25 44  1  0  0  0
 25 45  1  0  0  0
 26 46  1  0  0  0
M  END
> <s_m_entry_id>
5876

> <s_m_entry_name>
ligand_docking-pose.65

> <s_m_Source_Path>
/home/csk/Desktop/cluster/DUD-E-result/lck

> <s_m_Source_File>
ligand_docking-pose.sdf

> <i_m_Source_File_Index>
65

> <i_lp_mmshare_version>
53161

> <r_lp_tautomer_probability>
1

> <s_lp_Force_Field>
OPLS_2005

> <r_lp_Energy>
60.410919

> <b_lp_Chiralities_Consistent>
1

> <s_lp_Variant>
312499-1

> <s_i_glide_gridfile>
glide-grid_2of2

> <i_i_glide_lignum>
409

> <i_i_glide_rotatable_bonds>
6

> <r_i_docking_score>
-7.53248474756714

> <r_i_glide_ligand_efficiency>
-0.278980916576561

> <r_i_glide_ligand_efficiency_sa>
-0.836942748810207

> <r_i_glide_ligand_efficiency_ln>
-1.75343826651716

> <r_i_glide_gscore>
-7.53248474756714

> <r_i_glide_lipo>
-2.24860175377625

> <r_i_glide_hbond>
-0.34594237396856

> <r_i_glide_metal>
0

> <r_i_glide_rewards>
-2.67964408621567

> <r_i_glide_evdw>
-39.7824592590332

> <r_i_glide_ecoul>
-6.21234226226807

> <r_i_glide_erotb>
0.662677768685213

> <r_i_glide_esite>
0

> <r_i_glide_emodel>
-64.1665167986673

> <r_i_glide_energy>
-45.9948015213013

> <r_i_glide_einternal>
5.69444227218628

> <i_i_glide_confnum>
11

> <i_i_glide_posenum>
344

> <r_i_glide_eff_state_penalty>
0

> <i_f3d_flags>
0

> <s_user_duplicate_titles>
312499

> <s_m_subgroup_title>
dock_pv

> <s_m_subgroupid>
dock_pv1

> <b_m_subgroup_collapsed>
0

$$$$
312572
                    3D
 Schrodinger Suite 2021-1.
 43 46  0  0  1  0            999 V2000
   20.9715   35.3520   86.8854 C   0  0  0  0  0  0
   19.9073   36.2975   86.3297 C   0  0  0  0  0  0
   18.7592   36.5395   87.0900 C   0  0  0  0  0  0
   17.7253   37.3226   86.5873 C   0  0  0  0  0  0
   17.8098   37.8379   85.2989 C   0  0  0  0  0  0
   18.9400   37.6031   84.5181 C   0  0  0  0  0  0
   20.0136   36.8555   85.0375 C   0  0  0  0  0  0
   21.1513   36.6218   84.2469 N   0  0  0  0  0  0
   22.4587   37.0868   84.4252 C   0  0  0  0  0  0
   23.5004   36.4688   83.7072 C   0  0  0  0  0  0
   23.6982   35.4210   82.7744 C   0  0  0  0  0  0
   24.9693   35.3064   82.4497 N   0  0  0  0  0  0
   25.6217   36.2471   83.0994 C   0  0  0  0  0  0
   24.7781   37.0138   83.8726 N   0  0  0  0  0  0
   25.0294   38.1031   84.6269 C   0  0  0  0  0  0
   23.9258   38.7019   85.2895 C   0  0  0  0  0  0
   22.6727   38.1745   85.2165 N   0  0  0  0  0  0
   24.1717   39.8900   86.0144 C   0  0  0  0  0  0
   25.4615   40.4270   86.0240 C   0  0  0  0  0  0
   26.4936   39.7655   85.3525 C   0  0  0  0  0  0
   26.2986   38.6000   84.6777 N   0  0  0  0  0  0
   27.7667   40.3537   85.3583 N   0  0  0  0  0  0
   28.9438   39.6846   84.8059 C   0  0  0  0  0  0
   29.1699   39.8723   83.2918 C   0  0  0  0  0  0
   29.3513   41.2151   82.8871 O   0  0  0  0  0  0
   18.9501   38.2209   82.9017 Cl  0  0  0  0  0  0
   20.5757   34.6739   87.6468 H   0  0  0  0  0  0
   21.3500   34.7021   86.0970 H   0  0  0  0  0  0
   21.8144   35.9112   87.2887 H   0  0  0  0  0  0
   18.6522   36.1054   88.0733 H   0  0  0  0  0  0
   16.8416   37.5072   87.1806 H   0  0  0  0  0  0
   16.9880   38.4238   84.9104 H   0  0  0  0  0  0
   21.0724   35.8215   83.6405 H   0  0  0  0  0  0
   22.9566   34.7552   82.3549 H   0  0  0  0  0  0
   26.6812   36.4478   83.0325 H   0  0  0  0  0  0
   23.3553   40.3807   86.5227 H   0  0  0  0  0  0
   25.6537   41.3514   86.5506 H   0  0  0  0  0  0
   27.8467   41.3311   85.6063 H   0  0  0  0  0  0
   28.9503   38.6212   85.0429 H   0  0  0  0  0  0
   29.8085   40.0638   85.3509 H   0  0  0  0  0  0
   28.2182   39.6398   82.8110 H   0  0  0  0  0  0
   29.8603   39.1421   82.8732 H   0  0  0  0  0  0
   30.1399   41.5873   83.2969 H   0  0  0  0  0  0
  1  2  1  0  0  0
  1 27  1  0  0  0
  1 28  1  0  0  0
  1 29  1  0  0  0
  2  7  1  0  0  0
  2  3  2  0  0  0
  3  4  1  0  0  0
  3 30  1  0  0  0
  4  5  2  0  0  0
  4 31  1  0  0  0
  5  6  1  0  0  0
  5 32  1  0  0  0
  6  7  2  0  0  0
  6 26  1  0  0  0
  7  8  1  0  0  0
  8  9  1  0  0  0
  8 33  1  0  0  0
  9 17  2  0  0  0
  9 10  1  0  0  0
 10 14  1  0  0  0
 10 11  2  0  0  0
 11 12  1  0  0  0
 11 34  1  0  0  0
 12 13  2  0  0  0
 13 14  1  0  0  0
 13 35  1  0  0  0
 14 15  1  0  0  0
 15 21  1  0  0  0
 15 16  2  0  0  0
 16 17  1  0  0  0
 16 18  1  0  0  0
 18 19  2  0  0  0
 18 36  1  0  0  0
 19 20  1  0  0  0
 19 37  1  0  0  0
 20 21  2  0  0  0
 20 22  1  0  0  0
 22 23  1  0  0  0
 22 38  1  0  0  0
 23 24  1  0  0  0
 23 39  1  0  0  0
 23 40  1  0  0  0
 24 25  1  0  0  0
 24 41  1  0  0  0
 24 42  1  0  0  0
 25 43  1  0  0  0
M  END
> <s_m_entry_id>
5877

> <s_m_entry_name>
ligand_docking-pose.66

> <s_m_Source_Path>
/home/csk/Desktop/cluster/DUD-E-result/lck

> <s_m_Source_File>
ligand_docking-pose.sdf

> <i_m_Source_File_Index>
66

> <i_lp_mmshare_version>
53161

> <r_lp_tautomer_probability>
1

> <s_lp_Force_Field>
OPLS_2005

> <r_lp_Energy>
62.576108

> <b_lp_Chiralities_Consistent>
1

> <s_lp_Variant>
312572-1

> <s_i_glide_gridfile>
glide-grid_2of2

> <i_i_glide_lignum>
411

> <i_i_glide_rotatable_bonds>
6

> <r_i_docking_score>
-7.53081279439647

> <r_i_glide_ligand_efficiency>
-0.289646645938326

> <r_i_glide_ligand_efficiency_sa>
-0.858077048887772

> <r_i_glide_ligand_efficiency_ln>
-1.76858667415174

> <r_i_glide_gscore>
-7.53081279439647

> <r_i_glide_lipo>
-2.21512336824094

> <r_i_glide_hbond>
-0.363301573536798

> <r_i_glide_metal>
0

> <r_i_glide_rewards>
-2.74339125462591

> <r_i_glide_evdw>
-38.3907165527344

> <r_i_glide_ecoul>
-6.65280961990356

> <r_i_glide_erotb>
0.708460672629437

> <r_i_glide_esite>
0

> <r_i_glide_emodel>
-63.9725925054835

> <r_i_glide_energy>
-45.0435261726379

> <r_i_glide_einternal>
4.78158950805664

> <i_i_glide_confnum>
79

> <i_i_glide_posenum>
388

> <r_i_glide_eff_state_penalty>
0

> <i_f3d_flags>
0

> <s_user_duplicate_titles>
312572

> <s_m_subgroup_title>
dock_pv

> <s_m_subgroupid>
dock_pv1

> <b_m_subgroup_collapsed>
0

$$$$
312494
                    3D
 Schrodinger Suite 2021-1.
 39 41  0  0  1  0            999 V2000
   20.9308   35.0103   86.9433 C   0  0  0  0  0  0
   19.9104   36.0487   86.4870 C   0  0  0  0  0  0
   18.7455   36.2210   87.2463 C   0  0  0  0  0  0
   17.7460   37.0910   86.8232 C   0  0  0  0  0  0
   17.8773   37.7593   85.6094 C   0  0  0  0  0  0
   19.0133   37.5784   84.8206 C   0  0  0  0  0  0
   20.0611   36.7543   85.2695 C   0  0  0  0  0  0
   21.2261   36.6289   84.4786 N   0  0  0  0  0  0
   22.4585   36.9957   84.8889 C   0  0  0  0  0  0
   22.6645   37.6138   85.9358 O   0  0  0  0  0  0
   23.5501   36.5939   84.0268 C   0  0  0  0  0  0
   23.6258   35.6641   82.9779 C   0  0  0  0  0  0
   24.8187   35.4689   82.4329 N   0  0  0  0  0  0
   25.7428   36.2469   82.9476 C   0  0  0  0  0  0
   25.1513   37.2359   84.2644 S   0  0  0  0  0  0
   27.0573   36.2449   82.4964 N   0  0  0  0  0  0
   28.1842   37.0006   82.9014 C   0  0  0  0  0  0
   29.4792   36.6213   82.4871 C   0  0  0  0  0  0
   30.5700   37.4060   82.8866 C   0  0  0  0  0  0
   30.3691   38.5277   83.6868 C   0  0  0  0  0  0
   29.0692   38.8407   84.0667 C   0  0  0  0  0  0
   28.0010   38.1022   83.6825 N   0  0  0  0  0  0
   29.7500   35.4092   81.6061 C   0  0  0  0  0  0
   19.0678   38.3743   83.2871 Cl  0  0  0  0  0  0
   21.3495   34.4734   86.0918 H   0  0  0  0  0  0
   21.7509   35.4799   87.4857 H   0  0  0  0  0  0
   20.4720   34.2486   87.5761 H   0  0  0  0  0  0
   18.5931   35.6607   88.1562 H   0  0  0  0  0  0
   16.8524   37.2264   87.4157 H   0  0  0  0  0  0
   17.0800   38.4082   85.2760 H   0  0  0  0  0  0
   21.1159   36.2036   83.5724 H   0  0  0  0  0  0
   22.7987   35.0735   82.6076 H   0  0  0  0  0  0
   27.3215   35.5559   81.8064 H   0  0  0  0  0  0
   31.5730   37.1448   82.5805 H   0  0  0  0  0  0
   31.2020   39.1366   84.0067 H   0  0  0  0  0  0
   28.8664   39.6991   84.6907 H   0  0  0  0  0  0
   30.7196   34.9667   81.8377 H   0  0  0  0  0  0
   29.0140   34.6209   81.7548 H   0  0  0  0  0  0
   29.7502   35.6950   80.5547 H   0  0  0  0  0  0
  1  2  1  0  0  0
  1 25  1  0  0  0
  1 26  1  0  0  0
  1 27  1  0  0  0
  2  7  1  0  0  0
  2  3  2  0  0  0
  3  4  1  0  0  0
  3 28  1  0  0  0
  4  5  2  0  0  0
  4 29  1  0  0  0
  5  6  1  0  0  0
  5 30  1  0  0  0
  6  7  2  0  0  0
  6 24  1  0  0  0
  7  8  1  0  0  0
  8  9  1  0  0  0
  8 31  1  0  0  0
  9 10  2  0  0  0
  9 11  1  0  0  0
 11 15  1  0  0  0
 11 12  2  0  0  0
 12 13  1  0  0  0
 12 32  1  0  0  0
 13 14  2  0  0  0
 14 15  1  0  0  0
 14 16  1  0  0  0
 16 17  1  0  0  0
 16 33  1  0  0  0
 17 22  1  0  0  0
 17 18  2  0  0  0
 18 19  1  0  0  0
 18 23  1  0  0  0
 19 20  2  0  0  0
 19 34  1  0  0  0
 20 21  1  0  0  0
 20 35  1  0  0  0
 21 22  2  0  0  0
 21 36  1  0  0  0
 23 37  1  0  0  0
 23 38  1  0  0  0
 23 39  1  0  0  0
M  END
> <s_m_entry_id>
5883

> <s_m_entry_name>
ligand_docking-pose.72

> <s_m_Source_Path>
/home/csk/Desktop/cluster/DUD-E-result/lck

> <s_m_Source_File>
ligand_docking-pose.sdf

> <i_m_Source_File_Index>
72

> <i_lp_mmshare_version>
53161

> <r_lp_tautomer_probability>
0.999999772200052

> <s_lp_Force_Field>
OPLS_2005

> <r_lp_Energy>
19.54871

> <b_lp_Chiralities_Consistent>
1

> <s_lp_Variant>
312494-1

> <s_i_glide_gridfile>
glide-grid_2of2

> <i_i_glide_lignum>
603

> <i_i_glide_rotatable_bonds>
5

> <r_i_docking_score>
-7.4749221440125

> <r_i_glide_ligand_efficiency>
-0.311455089333854

> <r_i_glide_ligand_efficiency_sa>
-0.898391936571901

> <r_i_glide_ligand_efficiency_ln>
-1.78909187088908

> <r_i_glide_gscore>
-7.4749221440125

> <r_i_glide_lipo>
-2.9734880508992

> <r_i_glide_hbond>
-0.136932779734591

> <r_i_glide_metal>
0

> <r_i_glide_rewards>
-2.20157379888407

> <r_i_glide_evdw>
-41.795295715332

> <r_i_glide_ecoul>
-5.44761800765991

> <r_i_glide_erotb>
0.743979972420949

> <r_i_glide_esite>
0

> <r_i_glide_emodel>
-65.4942493807735

> <r_i_glide_energy>
-47.2429137229919

> <r_i_glide_einternal>
4.37284755706787

> <i_i_glide_confnum>
13

> <i_i_glide_posenum>
28

> <r_i_glide_eff_state_penalty>
0

> <i_f3d_flags>
0

> <s_user_duplicate_titles>
312494

> <s_m_subgroup_title>
dock_pv

> <s_m_subgroupid>
dock_pv1

> <b_m_subgroup_collapsed>
0

$$$$
312358
                    3D
 Schrodinger Suite 2021-1.
 50 53  0  0  1  0            999 V2000
   20.9920   35.3599   86.8697 C   0  0  0  0  0  0
   19.9274   36.2999   86.3061 C   0  0  0  0  0  0
   18.7854   36.5502   87.0747 C   0  0  0  0  0  0
   17.7495   37.3348   86.5781 C   0  0  0  0  0  0
   17.8252   37.8416   85.2863 C   0  0  0  0  0  0
   18.9487   37.5971   84.4980 C   0  0  0  0  0  0
   20.0242   36.8467   85.0070 C   0  0  0  0  0  0
   21.1628   36.6207   84.2080 N   0  0  0  0  0  0
   22.4654   37.0892   84.4042 C   0  0  0  0  0  0
   23.5484   36.4904   83.7216 C   0  0  0  0  0  0
   23.8121   35.4234   82.8179 C   0  0  0  0  0  0
   25.0926   35.3710   82.5120 N   0  0  0  0  0  0
   25.6941   36.3355   83.1804 C   0  0  0  0  0  0
   24.8078   37.0712   83.9375 N   0  0  0  0  0  0
   25.0119   38.1439   84.7391 C   0  0  0  0  0  0
   23.8700   38.6949   85.3763 C   0  0  0  0  0  0
   22.6308   38.1671   85.2156 N   0  0  0  0  0  0
   24.0603   39.8085   86.2161 C   0  0  0  0  0  0
   25.3518   40.2862   86.4256 C   0  0  0  0  0  0
   26.4488   39.6826   85.7860 C   0  0  0  0  0  0
   26.2759   38.6361   84.9218 N   0  0  0  0  0  0
   27.7701   40.1322   86.0536 N   0  0  0  0  0  0
   28.0256   41.0630   87.1556 C   0  0  0  0  0  0
   28.8928   39.8618   85.1419 C   0  0  0  0  0  0
   29.1595   40.9460   84.0607 C   0  0  2  0  0  0
   30.4170   40.5977   83.2312 C   0  0  0  0  0  0
   30.5499   41.4210   82.0868 O   0  0  0  0  0  0
   29.3524   42.2210   84.6617 O   0  0  0  0  0  0
   18.9501   38.2209   82.8863 Cl  0  0  0  0  0  0
   28.2907   41.0155   83.4037 H   0  0  0  0  0  0
   20.6016   34.7044   87.6533 H   0  0  0  0  0  0
   21.3508   34.6907   86.0874 H   0  0  0  0  0  0
   21.8418   35.9247   87.2545 H   0  0  0  0  0  0
   18.6877   36.1242   88.0627 H   0  0  0  0  0  0
   16.8745   37.5309   87.1814 H   0  0  0  0  0  0
   17.0041   38.4298   84.9011 H   0  0  0  0  0  0
   21.0802   35.8398   83.5761 H   0  0  0  0  0  0
   23.1068   34.7234   82.3918 H   0  0  0  0  0  0
   26.7488   36.5667   83.1497 H   0  0  0  0  0  0
   23.2083   40.2569   86.7067 H   0  0  0  0  0  0
   25.4801   41.1272   87.0884 H   0  0  0  0  0  0
   27.5164   40.7461   88.0664 H   0  0  0  0  0  0
   29.0906   41.1367   87.3802 H   0  0  0  0  0  0
   27.6678   42.0609   86.8993 H   0  0  0  0  0  0
   28.7480   38.9011   84.6472 H   0  0  0  0  0  0
   29.7923   39.7222   85.7433 H   0  0  0  0  0  0
   30.3621   39.5645   82.8853 H   0  0  0  0  0  0
   31.3205   40.6792   83.8381 H   0  0  0  0  0  0
   30.7620   42.3276   82.3655 H   0  0  0  0  0  0
   29.6666   42.8565   84.0034 H   0  0  0  0  0  0
  1  2  1  0  0  0
  1 31  1  0  0  0
  1 32  1  0  0  0
  1 33  1  0  0  0
  2  7  1  0  0  0
  2  3  2  0  0  0
  3  4  1  0  0  0
  3 34  1  0  0  0
  4  5  2  0  0  0
  4 35  1  0  0  0
  5  6  1  0  0  0
  5 36  1  0  0  0
  6  7  2  0  0  0
  6 29  1  0  0  0
  7  8  1  0  0  0
  8  9  1  0  0  0
  8 37  1  0  0  0
  9 17  2  0  0  0
  9 10  1  0  0  0
 10 14  1  0  0  0
 10 11  2  0  0  0
 11 12  1  0  0  0
 11 38  1  0  0  0
 12 13  2  0  0  0
 13 14  1  0  0  0
 13 39  1  0  0  0
 14 15  1  0  0  0
 15 21  1  0  0  0
 15 16  2  0  0  0
 16 17  1  0  0  0
 16 18  1  0  0  0
 18 19  2  0  0  0
 18 40  1  0  0  0
 19 20  1  0  0  0
 19 41  1  0  0  0
 20 21  2  0  0  0
 20 22  1  0  0  0
 22 23  1  0  0  0
 22 24  1  0  0  0
 23 42  1  0  0  0
 23 43  1  0  0  0
 23 44  1  0  0  0
 24 25  1  0  0  0
 24 45  1  0  0  0
 24 46  1  0  0  0
 25 30  1  0  0  0
 25 26  1  0  0  0
 25 28  1  0  0  0
 26 27  1  0  0  0
 26 47  1  0  0  0
 26 48  1  0  0  0
 27 49  1  0  0  0
 28 50  1  0  0  0
M  END
> <s_m_entry_id>
5891

> <s_m_entry_name>
ligand_docking-pose.80

> <s_m_Source_Path>
/home/csk/Desktop/cluster/DUD-E-result/lck

> <s_m_Source_File>
ligand_docking-pose.sdf

> <i_m_Source_File_Index>
80

> <i_lp_mmshare_version>
53161

> <r_lp_tautomer_probability>
1

> <s_lp_Force_Field>
OPLS_2005

> <r_lp_Energy>
70.719171

> <b_lp_Chiralities_Consistent>
1

> <s_lp_Variant>
312358-1

> <s_i_glide_gridfile>
glide-grid_2of2

> <i_i_glide_lignum>
406

> <i_i_glide_rotatable_bonds>
8

> <r_i_docking_score>
-7.42087185032605

> <r_i_glide_ligand_efficiency>
-0.255892132769864

> <r_i_glide_ligand_efficiency_sa>
-0.786181704187054

> <r_i_glide_ligand_efficiency_ln>
-1.6991914766509

> <r_i_glide_gscore>
-7.42087185032605

> <r_i_glide_lipo>
-2.22505509424039

> <r_i_glide_hbond>
-0.0101095773634092

> <r_i_glide_metal>
0

> <r_i_glide_rewards>
-2.4583337014153

> <r_i_glide_evdw>
-40.6646308898926

> <r_i_glide_ecoul>
-9.25569248199463

> <r_i_glide_erotb>
0.694211939486872

> <r_i_glide_esite>
0

> <r_i_glide_emodel>
-69.2318023195939

> <r_i_glide_energy>
-49.9203233718872

> <r_i_glide_einternal>
6.51150703430176

> <i_i_glide_confnum>
139

> <i_i_glide_posenum>
372

> <r_i_glide_eff_state_penalty>
0

> <i_f3d_flags>
0

> <s_user_duplicate_titles>
312358

> <s_m_subgroup_title>
dock_pv

> <s_m_subgroupid>
dock_pv1

> <b_m_subgroup_collapsed>
0

$$$$
312589
                    3D
 Schrodinger Suite 2021-1.
 35 37  0  0  1  0            999 V2000
   20.7668   34.9953   86.9359 C   0  0  0  0  0  0
   19.7566   36.0492   86.4871 C   0  0  0  0  0  0
   18.6018   36.2379   87.2567 C   0  0  0  0  0  0
   17.6116   37.1206   86.8345 C   0  0  0  0  0  0
   17.7505   37.7945   85.6225 C   0  0  0  0  0  0
   18.8824   37.6066   84.8306 C   0  0  0  0  0  0
   19.9150   36.7631   85.2772 C   0  0  0  0  0  0
   21.0742   36.6227   84.4885 N   0  0  0  0  0  0
   22.3158   36.9439   84.9039 C   0  0  0  0  0  0
   22.5500   37.5337   85.9606 O   0  0  0  0  0  0
   23.3831   36.5104   84.0325 C   0  0  0  0  0  0
   23.3782   35.6670   82.9111 C   0  0  0  0  0  0
   24.5502   35.4209   82.3541 N   0  0  0  0  0  0
   25.5337   36.0537   82.9459 C   0  0  0  0  0  0
   25.0377   36.9745   84.3383 S   0  0  0  0  0  0
   26.8279   35.9625   82.4798 N   0  0  0  0  0  0
   28.0263   36.6211   82.8095 C   0  0  0  0  0  0
   28.1260   37.8184   83.5314 C   0  0  0  0  0  0
   29.3888   38.3845   83.7038 C   0  0  0  0  0  0
   30.5132   37.8211   83.1898 N   0  0  0  0  0  0
   30.4258   36.6802   82.4862 N   0  0  0  0  0  0
   29.2160   36.0891   82.3016 C   0  0  0  0  0  0
   18.9497   38.4143   83.3004 Cl  0  0  0  0  0  0
   21.1316   34.4180   86.0876 H   0  0  0  0  0  0
   21.6332   35.4530   87.4142 H   0  0  0  0  0  0
   20.3210   34.2691   87.6186 H   0  0  0  0  0  0
   18.4641   35.6849   88.1752 H   0  0  0  0  0  0
   16.7225   37.2698   87.4315 H   0  0  0  0  0  0
   16.9625   38.4543   85.2867 H   0  0  0  0  0  0
   20.9490   36.2182   83.5751 H   0  0  0  0  0  0
   22.5058   35.1880   82.4870 H   0  0  0  0  0  0
   26.9842   35.3634   81.6798 H   0  0  0  0  0  0
   27.2702   38.3395   83.9256 H   0  0  0  0  0  0
   29.5163   39.3085   84.2498 H   0  0  0  0  0  0
   29.2246   35.1827   81.7126 H   0  0  0  0  0  0
  1  2  1  0  0  0
  1 24  1  0  0  0
  1 25  1  0  0  0
  1 26  1  0  0  0
  2  7  1  0  0  0
  2  3  2  0  0  0
  3  4  1  0  0  0
  3 27  1  0  0  0
  4  5  2  0  0  0
  4 28  1  0  0  0
  5  6  1  0  0  0
  5 29  1  0  0  0
  6  7  2  0  0  0
  6 23  1  0  0  0
  7  8  1  0  0  0
  8  9  1  0  0  0
  8 30  1  0  0  0
  9 10  2  0  0  0
  9 11  1  0  0  0
 11 15  1  0  0  0
 11 12  2  0  0  0
 12 13  1  0  0  0
 12 31  1  0  0  0
 13 14  2  0  0  0
 14 15  1  0  0  0
 14 16  1  0  0  0
 16 17  1  0  0  0
 16 32  1  0  0  0
 17 22  1  0  0  0
 17 18  2  0  0  0
 18 19  1  0  0  0
 18 33  1  0  0  0
 19 20  2  0  0  0
 19 34  1  0  0  0
 20 21  1  0  0  0
 21 22  2  0  0  0
 22 35  1  0  0  0
M  END
> <s_m_entry_id>
5893

> <s_m_entry_name>
ligand_docking-pose.82

> <s_m_Source_Path>
/home/csk/Desktop/cluster/DUD-E-result/lck

> <s_m_Source_File>
ligand_docking-pose.sdf

> <i_m_Source_File_Index>
82

> <i_lp_mmshare_version>
53161

> <r_lp_tautomer_probability>
0.99999685998438

> <s_lp_Force_Field>
OPLS_2005

> <r_lp_Energy>
25.266098

> <b_lp_Chiralities_Consistent>
1

> <s_lp_Variant>
312589-1

> <s_i_glide_gridfile>
glide-grid_2of2

> <i_i_glide_lignum>
624

> <i_i_glide_rotatable_bonds>
5

> <r_i_docking_score>
-7.38356184224238

> <r_i_glide_ligand_efficiency>
-0.321024427923582

> <r_i_glide_ligand_efficiency_sa>
-0.912950769343429

> <r_i_glide_ligand_efficiency_ln>
-1.78541220389144

> <r_i_glide_gscore>
-7.38356184224238

> <r_i_glide_lipo>
-2.8915559897589

> <r_i_glide_hbond>
-0.202822519243084

> <r_i_glide_metal>
0

> <r_i_glide_rewards>
-2.32109225844122

> <r_i_glide_evdw>
-40.5148010253906

> <r_i_glide_ecoul>
-4.9130802154541

> <r_i_glide_erotb>
0.794611008788482

> <r_i_glide_esite>
0

> <r_i_glide_emodel>
-63.1215314889294

> <r_i_glide_energy>
-45.4278812408447

> <r_i_glide_einternal>
3.9399778842926

> <i_i_glide_confnum>
22

> <i_i_glide_posenum>
319

> <r_i_glide_eff_state_penalty>
0

> <i_f3d_flags>
0

> <s_user_duplicate_titles>
312589

> <s_m_subgroup_title>
dock_pv

> <s_m_subgroupid>
dock_pv1

> <b_m_subgroup_collapsed>
0

$$$$
312565
                    3D
 Schrodinger Suite 2021-1.
 47 51  0  0  1  0            999 V2000
   19.7273   38.5256   83.8240 C   0  0  0  0  0  0
   19.3717   37.7227   85.0693 C   0  0  0  0  0  0
   18.1506   37.9870   85.6954 C   0  0  0  0  0  0
   17.7465   37.2518   86.8067 C   0  0  0  0  0  0
   18.5495   36.2222   87.2870 C   0  0  0  0  0  0
   19.7675   35.9378   86.6698 C   0  0  0  0  0  0
   20.1990   36.6960   85.5686 C   0  0  0  0  0  0
   21.4439   36.4009   84.9903 N   0  0  0  0  0  0
   22.6064   37.1646   84.8809 C   0  0  0  0  0  0
   22.7757   38.4271   85.4912 C   0  0  0  0  0  0
   22.0711   39.3482   86.3109 C   0  0  0  0  0  0
   22.7981   40.4161   86.5605 N   0  0  0  0  0  0
   23.9555   40.2467   85.9553 C   0  0  0  0  0  0
   24.0165   39.0441   85.2864 N   0  0  0  0  0  0
   25.0217   38.4864   84.5752 C   0  0  0  0  0  0
   24.7846   37.2054   84.0137 C   0  0  0  0  0  0
   23.5930   36.5708   84.1626 N   0  0  0  0  0  0
   25.8344   36.6028   83.2881 C   0  0  0  0  0  0
   27.0560   37.2682   83.1848 C   0  0  0  0  0  0
   27.2195   38.5238   83.7838 C   0  0  0  0  0  0
   26.2084   39.1488   84.4490 N   0  0  0  0  0  0
   28.4447   39.2010   83.7119 N   0  0  0  0  0  0
   29.7457   38.5573   83.5115 C   0  0  0  0  0  0
   30.8377   39.5529   83.9147 C   0  0  0  0  0  0
   30.1716   40.9131   83.8076 C   0  0  2  0  0  0
   28.7294   40.5611   84.1780 C   0  0  0  0  0  0
   30.2372   41.4210   82.4871 O   0  0  0  0  0  0
   20.7108   34.6209   87.2869 Cl  0  0  0  0  0  0
   30.6159   41.6225   84.5082 H   0  0  0  0  0  0
   20.2836   39.4249   84.0881 H   0  0  0  0  0  0
   20.3205   37.9377   83.1222 H   0  0  0  0  0  0
   18.8265   38.8185   83.2849 H   0  0  0  0  0  0
   17.5010   38.7640   85.3166 H   0  0  0  0  0  0
   16.7995   37.4715   87.2790 H   0  0  0  0  0  0
   18.2202   35.6337   88.1308 H   0  0  0  0  0  0
   21.5189   35.4770   84.5912 H   0  0  0  0  0  0
   21.0711   39.2573   86.7094 H   0  0  0  0  0  0
   24.7841   40.9390   85.9637 H   0  0  0  0  0  0
   25.6847   35.6313   82.8406 H   0  0  0  0  0  0
   27.8677   36.8033   82.6446 H   0  0  0  0  0  0
   29.8206   37.7009   84.1833 H   0  0  0  0  0  0
   29.8907   38.2213   82.4869 H   0  0  0  0  0  0
   31.1439   39.3644   84.9456 H   0  0  0  0  0  0
   31.7364   39.4746   83.3016 H   0  0  0  0  0  0
   28.0078   41.2905   83.8080 H   0  0  0  0  0  0
   28.5982   40.5681   85.2612 H   0  0  0  0  0  0
   30.3537   42.3858   82.5470 H   0  0  0  0  0  0
  1  2  1  0  0  0
  1 30  1  0  0  0
  1 31  1  0  0  0
  1 32  1  0  0  0
  2  7  1  0  0  0
  2  3  2  0  0  0
  3  4  1  0  0  0
  3 33  1  0  0  0
  4  5  2  0  0  0
  4 34  1  0  0  0
  5  6  1  0  0  0
  5 35  1  0  0  0
  6  7  2  0  0  0
  6 28  1  0  0  0
  7  8  1  0  0  0
  8  9  1  0  0  0
  8 36  1  0  0  0
  9 17  2  0  0  0
  9 10  1  0  0  0
 10 14  1  0  0  0
 10 11  2  0  0  0
 11 12  1  0  0  0
 11 37  1  0  0  0
 12 13  2  0  0  0
 13 14  1  0  0  0
 13 38  1  0  0  0
 14 15  1  0  0  0
 15 21  1  0  0  0
 15 16  2  0  0  0
 16 17  1  0  0  0
 16 18  1  0  0  0
 18 19  2  0  0  0
 18 39  1  0  0  0
 19 20  1  0  0  0
 19 40  1  0  0  0
 20 21  2  0  0  0
 20 22  1  0  0  0
 22 26  1  0  0  0
 22 23  1  0  0  0
 23 24  1  0  0  0
 23 41  1  0  0  0
 23 42  1  0  0  0
 24 25  1  0  0  0
 24 43  1  0  0  0
 24 44  1  0  0  0
 25 29  1  0  0  0
 25 26  1  0  0  0
 25 27  1  0  0  0
 26 45  1  0  0  0
 26 46  1  0  0  0
 27 47  1  0  0  0
M  END
> <s_m_entry_id>
5900

> <s_m_entry_name>
ligand_docking-pose.89

> <s_m_Source_Path>
/home/csk/Desktop/cluster/DUD-E-result/lck

> <s_m_Source_File>
ligand_docking-pose.sdf

> <i_m_Source_File_Index>
89

> <i_lp_mmshare_version>
53161

> <r_lp_tautomer_probability>
1

> <s_lp_Force_Field>
OPLS_2005

> <r_lp_Energy>
82.816724

> <b_lp_Chiralities_Consistent>
1

> <s_lp_Variant>
312565-1

> <s_i_glide_gridfile>
glide-grid_2of2

> <i_i_glide_lignum>
390

> <i_i_glide_rotatable_bonds>
4

> <r_i_docking_score>
-7.34532906447539

> <r_i_glide_ligand_efficiency>
-0.262333180874121

> <r_i_glide_ligand_efficiency_sa>
-0.796598043114611

> <r_i_glide_ligand_efficiency_ln>
-1.69551761631362

> <r_i_glide_gscore>
-7.34532906447539

> <r_i_glide_lipo>
-2.71849785122129

> <r_i_glide_hbond>
-0.500083261159406

> <r_i_glide_metal>
0

> <r_i_glide_rewards>
-1.50018499637456

> <r_i_glide_evdw>
-39.954158782959

> <r_i_glide_ecoul>
-6.70007038116455

> <r_i_glide_erotb>
0.376155540602491

> <r_i_glide_esite>
0

> <r_i_glide_emodel>
-63.2041635843913

> <r_i_glide_energy>
-46.6542291641235

> <r_i_glide_einternal>
8.36607837677002

> <i_i_glide_confnum>
25

> <i_i_glide_posenum>
48

> <r_i_glide_eff_state_penalty>
0

> <i_f3d_flags>
0

> <s_user_duplicate_titles>
312565

> <s_m_subgroup_title>
dock_pv

> <s_m_subgroupid>
dock_pv1

> <b_m_subgroup_collapsed>
0

$$$$
312755
                    3D
 Schrodinger Suite 2021-1.
 43 46  0  0  1  0            999 V2000
   19.8446   38.5298   83.8171 C   0  0  0  0  0  0
   19.5034   37.7117   85.0553 C   0  0  0  0  0  0
   18.3024   37.9990   85.7112 C   0  0  0  0  0  0
   17.8998   37.2601   86.8188 C   0  0  0  0  0  0
   18.6995   36.2211   87.2830 C   0  0  0  0  0  0
   19.9084   35.9252   86.6478 C   0  0  0  0  0  0
   20.3264   36.6629   85.5248 C   0  0  0  0  0  0
   21.5273   36.2995   84.8756 N   0  0  0  0  0  0
   22.6807   37.0382   84.6646 C   0  0  0  0  0  0
   22.8069   38.2082   85.1935 N   0  0  0  0  0  0
   24.0162   38.9393   84.7739 C   0  0  2  0  0  0
   25.2894   38.0841   84.7439 C   0  0  1  0  0  0
   24.9834   36.9960   83.7981 N   0  0  0  0  0  0
   23.7186   36.4392   83.7993 C   0  0  0  0  0  0
   23.7648   35.4211   82.8611 C   0  0  0  0  0  0
   24.9674   35.3114   82.3254 N   0  0  0  0  0  0
   25.7019   36.2483   82.8851 C   0  0  0  0  0  0
   27.1473   36.4742   82.5095 C   0  0  0  0  0  0
   26.2859   39.1183   84.5303 N   0  0  1  0  0  0
   25.7982   40.2597   85.2310 N   0  0  0  0  0  0
   24.5573   40.1284   85.5194 C   0  0  0  0  0  0
   23.7236   41.0481   86.3821 C   0  0  0  0  0  0
   27.5831   38.7504   85.0867 C   0  0  0  0  0  0
   20.8584   34.6211   87.2815 Cl  0  0  0  0  0  0
   18.9453   38.9323   83.3501 H   0  0  0  0  0  0
   20.5055   39.3556   84.0838 H   0  0  0  0  0  0
   20.3341   37.9172   83.0591 H   0  0  0  0  0  0
   17.6644   38.7979   85.3593 H   0  0  0  0  0  0
   16.9644   37.4943   87.3081 H   0  0  0  0  0  0
   18.3796   35.6372   88.1330 H   0  0  0  0  0  0
   21.5512   35.3239   84.6202 H   0  0  0  0  0  0
   23.7851   39.3218   83.7733 H   0  0  0  0  0  0
   25.4509   37.5630   85.6867 H   0  0  0  0  0  0
   22.9483   34.7794   82.5589 H   0  0  0  0  0  0
   27.4482   35.8371   81.6870 H   0  0  0  0  0  0
   27.3285   37.5045   82.2138 H   0  0  0  0  0  0
   27.8543   36.2211   83.2874 H   0  0  0  0  0  0
   23.3608   41.8957   85.8014 H   0  0  0  0  0  0
   22.8585   40.5270   86.7908 H   0  0  0  0  0  0
   24.3054   41.4359   87.2180 H   0  0  0  0  0  0
   28.3096   39.5376   84.8841 H   0  0  0  0  0  0
   27.5318   38.6195   86.1685 H   0  0  0  0  0  0
   27.9714   37.8339   84.6541 H   0  0  0  0  0  0
  1  2  1  0  0  0
  1 25  1  0  0  0
  1 26  1  0  0  0
  1 27  1  0  0  0
  2  7  1  0  0  0
  2  3  2  0  0  0
  3  4  1  0  0  0
  3 28  1  0  0  0
  4  5  2  0  0  0
  4 29  1  0  0  0
  5  6  1  0  0  0
  5 30  1  0  0  0
  6  7  2  0  0  0
  6 24  1  0  0  0
  7  8  1  0  0  0
  8  9  1  0  0  0
  8 31  1  0  0  0
  9 14  1  0  0  0
  9 10  2  0  0  0
 10 11  1  0  0  0
 11 21  1  0  0  0
 11 12  1  0  0  0
 11 32  1  0  0  0
 12 13  1  0  0  0
 12 19  1  0  0  0
 12 33  1  0  0  0
 13 17  1  0  0  0
 13 14  1  0  0  0
 14 15  2  0  0  0
 15 16  1  0  0  0
 15 34  1  0  0  0
 16 17  2  0  0  0
 17 18  1  0  0  0
 18 35  1  0  0  0
 18 36  1  0  0  0
 18 37  1  0  0  0
 19 20  1  0  0  0
 19 23  1  0  0  0
 20 21  2  0  0  0
 21 22  1  0  0  0
 22 38  1  0  0  0
 22 39  1  0  0  0
 22 40  1  0  0  0
 23 41  1  0  0  0
 23 42  1  0  0  0
 23 43  1  0  0  0
M  END
> <s_m_entry_id>
5903

> <s_m_entry_name>
ligand_docking-pose.92

> <s_m_Source_Path>
/home/csk/Desktop/cluster/DUD-E-result/lck

> <s_m_Source_File>
ligand_docking-pose.sdf

> <i_m_Source_File_Index>
92

> <i_lp_mmshare_version>
53161

> <r_lp_tautomer_probability>
1

> <s_lp_Force_Field>
OPLS_2005

> <r_lp_Energy>
54.313551

> <b_lp_Chiralities_Consistent>
1

> <s_lp_Variant>
312755-2

> <s_i_glide_gridfile>
glide-grid_2of2

> <i_i_glide_lignum>
490

> <i_i_glide_rotatable_bonds>
2

> <r_i_docking_score>
-7.3368814844236

> <r_i_glide_ligand_efficiency>
-0.305703395184316

> <r_i_glide_ligand_efficiency_sa>
-0.881801179758055

> <r_i_glide_ligand_efficiency_ln>
-1.75605240677634

> <r_i_glide_gscore>
-7.3368814844236

> <r_i_glide_lipo>
-1.90344576383409

> <r_i_glide_hbond>
-0.18120254198572

> <r_i_glide_metal>
0

> <r_i_glide_rewards>
-3.49909750566211

> <r_i_glide_evdw>
-35.4736137390137

> <r_i_glide_ecoul>
-2.01481747627258

> <r_i_glide_erotb>
0.322767635449904

> <r_i_glide_esite>
0

> <r_i_glide_emodel>
-53.5806331976492

> <r_i_glide_energy>
-37.4884312152863

> <r_i_glide_einternal>
1.67070174217224

> <i_i_glide_confnum>
3

> <i_i_glide_posenum>
269

> <r_i_glide_eff_state_penalty>
0

> <i_f3d_flags>
0

> <s_user_duplicate_titles>
312755

> <s_m_subgroup_title>
dock_pv

> <s_m_subgroupid>
dock_pv1

> <b_m_subgroup_collapsed>
0

$$$$
313309
                    3D
 Schrodinger Suite 2021-1.
 53 56  0  0  1  0            999 V2000
   20.8708   35.0204   86.9364 C   0  0  0  0  0  0
   19.8367   36.0502   86.4869 C   0  0  0  0  0  0
   18.6829   36.2220   87.2620 C   0  0  0  0  0  0
   17.6671   37.0748   86.8384 C   0  0  0  0  0  0
   17.7757   37.7357   85.6175 C   0  0  0  0  0  0
   18.9077   37.5650   84.8187 C   0  0  0  0  0  0
   19.9645   36.7470   85.2594 C   0  0  0  0  0  0
   21.1158   36.6214   84.4488 N   0  0  0  0  0  0
   22.3573   36.9557   84.8540 C   0  0  0  0  0  0
   22.5819   37.5529   85.9094 O   0  0  0  0  0  0
   23.4394   36.5465   83.9803 C   0  0  0  0  0  0
   23.5154   35.6233   82.9191 C   0  0  0  0  0  0
   24.7152   35.4214   82.3911 N   0  0  0  0  0  0
   25.6371   36.1931   82.9252 C   0  0  0  0  0  0
   25.0397   37.1720   84.2429 S   0  0  0  0  0  0
   26.9536   36.2128   82.4904 N   0  0  0  0  0  0
   28.0587   36.9857   82.9154 C   0  0  0  0  0  0
   29.3332   36.6134   82.4850 C   0  0  0  0  0  0
   30.4383   37.3735   82.8700 C   0  0  0  0  0  0
   30.2534   38.4887   83.6830 C   0  0  0  0  0  0
   28.9578   38.8290   84.0866 C   0  0  0  0  0  0
   27.8914   38.0665   83.7228 N   0  0  0  0  0  0
   28.7322   39.8621   84.9951 N   0  0  0  0  0  0
   29.5816   41.0617   85.1271 C   0  0  0  0  0  0
   28.8235   42.3824   84.8391 C   0  0  0  0  0  0
   27.6101   42.4939   85.6467 N   0  0  2  0  0  0
   26.7323   41.3423   85.4457 C   0  0  2  0  0  0
   27.5048   40.0458   85.7933 C   0  0  0  0  0  0
   26.0353   41.2759   84.0758 C   0  0  0  0  0  0
   18.9504   38.3695   83.2872 Cl  0  0  0  0  0  0
   25.9426   41.4617   86.1885 H   0  0  0  0  0  0
   21.2731   34.4693   86.0858 H   0  0  0  0  0  0
   21.7061   35.4947   87.4510 H   0  0  0  0  0  0
   20.4256   34.2693   87.5913 H   0  0  0  0  0  0
   18.5501   35.6725   88.1815 H   0  0  0  0  0  0
   16.7791   37.2068   87.4398 H   0  0  0  0  0  0
   16.9653   38.3705   85.2872 H   0  0  0  0  0  0
   20.9892   36.2180   83.5359 H   0  0  0  0  0  0
   22.6877   35.0410   82.5367 H   0  0  0  0  0  0
   27.2446   35.5038   81.8307 H   0  0  0  0  0  0
   29.4731   35.7518   81.8495 H   0  0  0  0  0  0
   31.4298   37.0905   82.5504 H   0  0  0  0  0  0
   31.1124   39.0502   84.0138 H   0  0  0  0  0  0
   30.0244   41.0744   86.1256 H   0  0  0  0  0  0
   30.4213   41.0196   84.4354 H   0  0  0  0  0  0
   29.4652   43.2413   85.0483 H   0  0  0  0  0  0
   28.5815   42.4642   83.7776 H   0  0  0  0  0  0
   27.1187   43.3532   85.4478 H   0  0  0  0  0  0
   26.8315   39.1899   85.7374 H   0  0  0  0  0  0
   27.8120   40.0664   86.8417 H   0  0  0  0  0  0
   25.2615   40.5088   84.0865 H   0  0  0  0  0  0
   25.5610   42.2238   83.8206 H   0  0  0  0  0  0
   26.7342   41.0230   83.2790 H   0  0  0  0  0  0
  1  2  1  0  0  0
  1 32  1  0  0  0
  1 33  1  0  0  0
  1 34  1  0  0  0
  2  7  1  0  0  0
  2  3  2  0  0  0
  3  4  1  0  0  0
  3 35  1  0  0  0
  4  5  2  0  0  0
  4 36  1  0  0  0
  5  6  1  0  0  0
  5 37  1  0  0  0
  6  7  2  0  0  0
  6 30  1  0  0  0
  7  8  1  0  0  0
  8  9  1  0  0  0
  8 38  1  0  0  0
  9 10  2  0  0  0
  9 11  1  0  0  0
 11 15  1  0  0  0
 11 12  2  0  0  0
 12 13  1  0  0  0
 12 39  1  0  0  0
 13 14  2  0  0  0
 14 15  1  0  0  0
 14 16  1  0  0  0
 16 17  1  0  0  0
 16 40  1  0  0  0
 17 22  1  0  0  0
 17 18  2  0  0  0
 18 19  1  0  0  0
 18 41  1  0  0  0
 19 20  2  0  0  0
 19 42  1  0  0  0
 20 21  1  0  0  0
 20 43  1  0  0  0
 21 22  2  0  0  0
 21 23  1  0  0  0
 23 28  1  0  0  0
 23 24  1  0  0  0
 24 25  1  0  0  0
 24 44  1  0  0  0
 24 45  1  0  0  0
 25 26  1  0  0  0
 25 46  1  0  0  0
 25 47  1  0  0  0
 26 27  1  0  0  0
 26 48  1  0  0  0
 27 31  1  0  0  0
 27 28  1  0  0  0
 27 29  1  0  0  0
 28 49  1  0  0  0
 28 50  1  0  0  0
 29 51  1  0  0  0
 29 52  1  0  0  0
 29 53  1  0  0  0
M  END
> <s_m_entry_id>
5910

> <s_m_entry_name>
ligand_docking-pose.99

> <s_m_Source_Path>
/home/csk/Desktop/cluster/DUD-E-result/lck

> <s_m_Source_File>
ligand_docking-pose.sdf

> <i_m_Source_File_Index>
99

> <i_lp_mmshare_version>
53161

> <r_lp_tautomer_probability>
0.999999772200052

> <s_lp_Force_Field>
OPLS_2005

> <r_lp_Energy>
41.212033

> <b_lp_Chiralities_Consistent>
1

> <s_lp_Variant>
313309-1

> <s_i_glide_gridfile>
glide-grid_2of2

> <i_i_glide_lignum>
606

> <i_i_glide_rotatable_bonds>
6

> <r_i_docking_score>
-7.31770056902645

> <r_i_glide_ligand_efficiency>
-0.243923352300882

> <r_i_glide_ligand_efficiency_sa>
-0.757926568371249

> <r_i_glide_ligand_efficiency_ln>
-1.6626613020166

> <r_i_glide_gscore>
-7.31770056902645

> <r_i_glide_lipo>
-3.13322889078472

> <r_i_glide_hbond>
-0.109289890199524

> <r_i_glide_metal>
0

> <r_i_glide_rewards>
-1.66975436589204

> <r_i_glide_evdw>
-45.817741394043

> <r_i_glide_ecoul>
-4.83819055557251

> <r_i_glide_erotb>
0.611188230887859

> <r_i_glide_esite>
0

> <r_i_glide_emodel>
-71.103922327457

> <r_i_glide_energy>
-50.6559319496155

> <r_i_glide_einternal>
3.64333319664001

> <i_i_glide_confnum>
27

> <i_i_glide_posenum>
337

> <r_i_glide_eff_state_penalty>
0

> <i_f3d_flags>
0

> <s_user_duplicate_titles>
313309

> <s_m_subgroup_title>
dock_pv

> <s_m_subgroupid>
dock_pv1

> <b_m_subgroup_collapsed>
0

$$$$
41764
                    3D
 Schrodinger Suite 2021-1.
 59 62  0  0  1  0            999 V2000
   30.7257   41.8203   84.7190 C   0  0  0  0  0  0
   29.9129   40.8062   85.0726 C   0  0  0  0  0  0
   29.1911   40.0138   84.1053 C   0  0  0  0  0  0
   29.2216   40.2227   82.8880 O   0  0  0  0  0  0
   28.4869   39.0211   84.6881 N   0  0  0  0  0  0
   27.7367   38.0425   84.0182 C   0  0  0  0  0  0
   26.3762   37.9587   84.3225 C   0  0  0  0  0  0
   25.5606   36.9738   83.7054 C   0  0  0  0  0  0
   26.1600   36.0874   82.7571 C   0  0  0  0  0  0
   27.5388   36.1819   82.4870 C   0  0  0  0  0  0
   28.3378   37.1401   83.1189 C   0  0  0  0  0  0
   29.7016   37.2415   82.9058 O   0  0  0  0  0  0
   30.3834   36.3529   82.0205 C   0  0  0  0  0  0
   31.8899   36.4136   82.3268 C   0  0  0  0  0  0
   32.4994   37.8340   82.3576 C   0  0  0  0  0  0
   32.5501   38.4996   81.0499 N   0  0  0  0  0  0
   32.7864   39.9419   81.2318 C   0  0  0  0  0  0
   33.0343   40.6762   79.8961 C   0  0  0  0  0  0
   34.0975   40.0513   79.1859 O   0  0  0  0  0  0
   33.7989   38.6939   78.8704 C   0  0  0  0  0  0
   33.5394   37.8750   80.1537 C   0  0  0  0  0  0
   25.4375   35.1452   82.0893 N   0  0  0  0  0  0
   24.1245   35.0767   82.3784 C   0  0  0  0  0  0
   23.4667   35.8213   83.2849 N   0  0  0  0  0  0
   24.1580   36.7914   83.9221 C   0  0  0  0  0  0
   23.4206   37.6483   84.7663 N   0  0  0  0  0  0
   22.0311   37.8539   84.9267 C   0  0  0  0  0  0
   21.0534   37.2889   84.0880 C   0  0  0  0  0  0
   19.7030   37.5446   84.2837 C   0  0  0  0  0  0
   19.3010   38.3857   85.3120 C   0  0  0  0  0  0
   20.2521   38.9765   86.1464 C   0  0  0  0  0  0
   21.6108   38.7046   85.9556 C   0  0  0  0  0  0
   19.7640   40.0635   87.3971 Cl  0  0  0  0  0  0
   17.9850   38.6209   85.4771 F   0  0  0  0  0  0
   31.2520   42.3969   85.4645 H   0  0  0  0  0  0
   30.8816   42.0972   83.6859 H   0  0  0  0  0  0
   29.7867   40.5617   86.1185 H   0  0  0  0  0  0
   28.4474   39.0173   85.6943 H   0  0  0  0  0  0
   25.9349   38.6506   85.0266 H   0  0  0  0  0  0
   27.9535   35.4929   81.7645 H   0  0  0  0  0  0
   30.1859   36.6207   80.9822 H   0  0  0  0  0  0
   30.0606   35.3192   82.1611 H   0  0  0  0  0  0
   32.4273   35.7723   81.6319 H   0  0  0  0  0  0
   32.0516   35.9612   83.3049 H   0  0  0  0  0  0
   33.4864   37.8121   82.8217 H   0  0  0  0  0  0
   31.8766   38.4402   83.0189 H   0  0  0  0  0  0
   33.6592   40.0883   81.8723 H   0  0  0  0  0  0
   31.9492   40.3900   81.7667 H   0  0  0  0  0  0
   32.1300   40.7025   79.2886 H   0  0  0  0  0  0
   33.3034   41.7162   80.0871 H   0  0  0  0  0  0
   32.9508   38.6360   78.1895 H   0  0  0  0  0  0
   34.6448   38.2704   78.3285 H   0  0  0  0  0  0
   33.2226   36.8639   79.8960 H   0  0  0  0  0  0
   34.4864   37.7691   80.6848 H   0  0  0  0  0  0
   23.5137   34.3725   81.8358 H   0  0  0  0  0  0
   23.9928   38.3043   85.2749 H   0  0  0  0  0  0
   21.2911   36.6516   83.2551 H   0  0  0  0  0  0
   18.9687   37.0925   83.6335 H   0  0  0  0  0  0
   22.3344   39.1692   86.6089 H   0  0  0  0  0  0
  1  2  2  0  0  0
  1 35  1  0  0  0
  1 36  1  0  0  0
  2  3  1  0  0  0
  2 37  1  0  0  0
  3  4  2  0  0  0
  3  5  1  0  0  0
  5  6  1  0  0  0
  5 38  1  0  0  0
  6 11  1  0  0  0
  6  7  2  0  0  0
  7  8  1  0  0  0
  7 39  1  0  0  0
  8 25  2  0  0  0
  8  9  1  0  0  0
  9 10  1  0  0  0
  9 22  2  0  0  0
 10 11  2  0  0  0
 10 40  1  0  0  0
 11 12  1  0  0  0
 12 13  1  0  0  0
 13 14  1  0  0  0
 13 41  1  0  0  0
 13 42  1  0  0  0
 14 15  1  0  0  0
 14 43  1  0  0  0
 14 44  1  0  0  0
 15 16  1  0  0  0
 15 45  1  0  0  0
 15 46  1  0  0  0
 16 21  1  0  0  0
 16 17  1  0  0  0
 17 18  1  0  0  0
 17 47  1  0  0  0
 17 48  1  0  0  0
 18 19  1  0  0  0
 18 49  1  0  0  0
 18 50  1  0  0  0
 19 20  1  0  0  0
 20 21  1  0  0  0
 20 51  1  0  0  0
 20 52  1  0  0  0
 21 53  1  0  0  0
 21 54  1  0  0  0
 22 23  1  0  0  0
 23 24  2  0  0  0
 23 55  1  0  0  0
 24 25  1  0  0  0
 25 26  1  0  0  0
 26 27  1  0  0  0
 26 56  1  0  0  0
 27 32  1  0  0  0
 27 28  2  0  0  0
 28 29  1  0  0  0
 28 57  1  0  0  0
 29 30  2  0  0  0
 29 58  1  0  0  0
 30 31  1  0  0  0
 30 34  1  0  0  0
 31 32  2  0  0  0
 31 33  1  0  0  0
 32 59  1  0  0  0
M  END
> <s_m_entry_id>
5911

> <s_m_entry_name>
ligand_docking-pose.100

> <s_m_Source_Path>
/home/csk/Desktop/cluster/DUD-E-result/lck

> <s_m_Source_File>
ligand_docking-pose.sdf

> <i_m_Source_File_Index>
100

> <i_lp_mmshare_version>
53161

> <r_lp_tautomer_probability>
0.999978000241998

> <s_lp_Force_Field>
OPLS_2005

> <r_lp_Energy>
43.395912

> <b_lp_Chiralities_Consistent>
1

> <s_lp_Variant>
41764-1

> <s_i_glide_gridfile>
glide-grid_2of2

> <i_i_glide_lignum>
795

> <i_i_glide_rotatable_bonds>
10

> <r_i_docking_score>
-7.31213357698971

> <r_i_glide_ligand_efficiency>
-0.215062752264403

> <r_i_glide_ligand_efficiency_sa>
-0.696719829432014

> <r_i_glide_ligand_efficiency_ln>
-1.61545540555671

> <r_i_glide_gscore>
-7.31213357698971

> <r_i_glide_lipo>
-2.82940248523861

> <r_i_glide_hbond>
-0.529118006385368

> <r_i_glide_metal>
0

> <r_i_glide_rewards>
-1.30913842628328

> <r_i_glide_evdw>
-43.6433067321777

> <r_i_glide_ecoul>
-7.95628356933594

> <r_i_glide_erotb>
0.774418820830685

> <r_i_glide_esite>
-0.0432856079038481

> <r_i_glide_emodel>
-72.3851496413982

> <r_i_glide_energy>
-51.5995903015137

> <r_i_glide_einternal>
5.35014963150024

> <i_i_glide_confnum>
5

> <i_i_glide_posenum>
5

> <r_i_glide_eff_state_penalty>
0

> <i_f3d_flags>
0

> <s_user_duplicate_titles>
41764

> <s_m_subgroup_title>
dock_pv

> <s_m_subgroupid>
dock_pv1

> <b_m_subgroup_collapsed>
0

$$$$
217431
                    3D
 Schrodinger Suite 2021-1.
 36 37  0  0  1  0            999 V2000
   28.3993   39.9592   85.8078 C   0  0  0  0  0  0
   27.4233   39.0714   85.2769 O   0  0  0  0  0  0
   27.6785   38.3374   84.1615 C   0  0  0  0  0  0
   28.7534   38.3977   83.5594 O   0  0  0  0  0  0
   26.5337   37.4305   83.7753 C   0  0  0  0  0  0
   25.2819   37.5570   84.4188 C   0  0  0  0  0  0
   24.1901   36.7537   84.0778 C   0  0  0  0  0  0
   24.3601   35.7903   83.0799 C   0  0  0  0  0  0
   25.5857   35.6362   82.4416 C   0  0  0  0  0  0
   26.6676   36.4481   82.7673 C   0  0  0  0  0  0
   27.8412   36.2210   82.0871 O   0  0  0  0  0  0
   22.9584   36.9603   84.7298 N   0  0  0  0  0  0
   21.7332   36.3574   84.2082 C   0  0  0  0  0  0
   20.5020   36.7974   84.9928 C   0  0  0  0  0  0
   19.6378   37.7384   84.4168 C   0  0  0  0  0  0
   18.4633   38.1151   85.0674 C   0  0  0  0  0  0
   18.1473   37.5625   86.3075 C   0  0  0  0  0  0
   18.9976   36.6210   86.8861 C   0  0  0  0  0  0
   20.1675   36.2267   86.2345 C   0  0  0  0  0  0
   20.9418   35.2551   86.8167 O   0  0  0  0  0  0
   17.6164   39.0205   84.4870 O   0  0  0  0  0  0
   28.0127   40.4457   86.7035 H   0  0  0  0  0  0
   28.6591   40.7341   85.0847 H   0  0  0  0  0  0
   29.3094   39.4237   86.0830 H   0  0  0  0  0  0
   25.1333   38.3009   85.1888 H   0  0  0  0  0  0
   23.5473   35.1438   82.7851 H   0  0  0  0  0  0
   25.6958   34.8766   81.6873 H   0  0  0  0  0  0
   27.7490   35.8203   81.2067 H   0  0  0  0  0  0
   22.8479   37.8098   85.2629 H   0  0  0  0  0  0
   21.6155   36.6249   83.1563 H   0  0  0  0  0  0
   21.8061   35.2711   84.2363 H   0  0  0  0  0  0
   19.8658   38.1691   83.4526 H   0  0  0  0  0  0
   17.2379   37.8479   86.8171 H   0  0  0  0  0  0
   18.7328   36.1749   87.8332 H   0  0  0  0  0  0
   21.2410   34.6090   86.1717 H   0  0  0  0  0  0
   16.9623   39.3457   85.1266 H   0  0  0  0  0  0
  1  2  1  0  0  0
  1 22  1  0  0  0
  1 23  1  0  0  0
  1 24  1  0  0  0
  2  3  1  0  0  0
  3  4  2  0  0  0
  3  5  1  0  0  0
  5 10  1  0  0  0
  5  6  2  0  0  0
  6  7  1  0  0  0
  6 25  1  0  0  0
  7  8  2  0  0  0
  7 12  1  0  0  0
  8  9  1  0  0  0
  8 26  1  0  0  0
  9 10  2  0  0  0
  9 27  1  0  0  0
 10 11  1  0  0  0
 11 28  1  0  0  0
 12 13  1  0  0  0
 12 29  1  0  0  0
 13 14  1  0  0  0
 13 30  1  0  0  0
 13 31  1  0  0  0
 14 19  1  0  0  0
 14 15  2  0  0  0
 15 16  1  0  0  0
 15 32  1  0  0  0
 16 17  2  0  0  0
 16 21  1  0  0  0
 17 18  1  0  0  0
 17 33  1  0  0  0
 18 19  2  0  0  0
 18 34  1  0  0  0
 19 20  1  0  0  0
 20 35  1  0  0  0
 21 36  1  0  0  0
M  END
> <s_m_entry_id>
5914

> <s_m_entry_name>
ligand_docking-pose.103

> <s_m_Source_Path>
/home/csk/Desktop/cluster/DUD-E-result/lck

> <s_m_Source_File>
ligand_docking-pose.sdf

> <i_m_Source_File_Index>
103

> <i_lp_mmshare_version>
53161

> <r_lp_tautomer_probability>
0.999999999416998

> <s_lp_Force_Field>
OPLS_2005

> <r_lp_Energy>
16.76947

> <b_lp_Chiralities_Consistent>
1

> <s_lp_Variant>
217431-1

> <s_i_glide_gridfile>
glide-grid_2of2

> <i_i_glide_lignum>
1050

> <i_i_glide_rotatable_bonds>
8

> <r_i_docking_score>
-7.30993262632315

> <r_i_glide_ligand_efficiency>
-0.348092029824912

> <r_i_glide_ligand_efficiency_sa>
-0.960359515714915

> <r_i_glide_ligand_efficiency_ln>
-1.8073660707487

> <r_i_glide_gscore>
-7.30993262632315

> <r_i_glide_lipo>
-2.68603819335136

> <r_i_glide_hbond>
-0.416048029675909

> <r_i_glide_metal>
0

> <r_i_glide_rewards>
-1.69644366442864

> <r_i_glide_evdw>
-34.2555160522461

> <r_i_glide_ecoul>
-11.1257514953613

> <r_i_glide_erotb>
0.870235788049262

> <r_i_glide_esite>
0

> <r_i_glide_emodel>
-62.395522713859

> <r_i_glide_energy>
-45.3812675476074

> <r_i_glide_einternal>
6.49232053756714

> <i_i_glide_confnum>
15

> <i_i_glide_posenum>
270

> <r_i_glide_eff_state_penalty>
0

> <i_f3d_flags>
0

> <s_user_duplicate_titles>
217431

> <s_m_subgroup_title>
dock_pv

> <s_m_subgroupid>
dock_pv1

> <b_m_subgroup_collapsed>
0

$$$$
312870
                    3D
 Schrodinger Suite 2021-1.
 44 46  0  0  1  0            999 V2000
   19.5157   38.3920   83.2875 C   0  0  0  0  0  0
   19.4484   37.6477   84.6020 C   0  0  0  0  0  0
   18.2932   37.8228   85.3701 C   0  0  0  0  0  0
   18.1243   37.1272   86.5586 C   0  0  0  0  0  0
   19.1179   36.2588   86.9913 C   0  0  0  0  0  0
   20.3080   36.1171   86.2738 C   0  0  0  0  0  0
   20.4917   36.8081   85.0581 C   0  0  0  0  0  0
   21.6289   36.5245   84.2452 N   0  0  0  0  0  0
   21.3525   35.7036   83.0663 C   0  0  0  0  0  0
   22.8704   37.0276   84.5470 C   0  0  0  0  0  0
   23.0226   37.8523   85.4527 O   0  0  0  0  0  0
   24.0610   36.5733   83.8045 C   0  0  0  0  0  0
   24.2837   35.5360   82.8772 C   0  0  0  0  0  0
   25.4932   35.3941   82.3866 N   0  0  0  0  0  0
   26.3358   36.2538   82.8786 C   0  0  0  0  0  0
   25.6205   37.3525   84.0364 S   0  0  0  0  0  0
   27.6575   36.2213   82.4872 N   0  0  0  0  0  0
   28.7870   36.9512   82.8870 C   0  0  0  0  0  0
   30.0032   36.6208   82.2772 C   0  0  0  0  0  0
   31.1245   37.3763   82.6312 C   0  0  0  0  0  0
   31.0661   38.3848   83.5400 N   0  0  0  0  0  0
   29.8455   38.6209   84.0857 C   0  0  0  0  0  0
   28.6963   37.9559   83.8002 N   0  0  0  0  0  0
   29.7569   39.7290   85.1160 C   0  0  0  0  0  0
   32.4827   37.1094   82.0142 C   0  0  0  0  0  0
   21.4971   35.0200   86.8885 Cl  0  0  0  0  0  0
   20.5481   38.6208   83.0252 H   0  0  0  0  0  0
   19.0539   37.8207   82.4869 H   0  0  0  0  0  0
   18.9692   39.3330   83.3699 H   0  0  0  0  0  0
   17.5010   38.4799   85.0381 H   0  0  0  0  0  0
   17.2148   37.2479   87.1297 H   0  0  0  0  0  0
   18.9502   35.6910   87.8949 H   0  0  0  0  0  0
   21.7824   36.1340   82.1615 H   0  0  0  0  0  0
   21.7498   34.7021   83.2251 H   0  0  0  0  0  0
   20.2883   35.5722   82.8871 H   0  0  0  0  0  0
   23.5779   34.8198   82.4948 H   0  0  0  0  0  0
   27.9006   35.5630   81.7592 H   0  0  0  0  0  0
   30.0764   35.8256   81.5482 H   0  0  0  0  0  0
   30.6832   39.8062   85.6876 H   0  0  0  0  0  0
   29.5727   40.6860   84.6272 H   0  0  0  0  0  0
   28.9534   39.5428   85.8305 H   0  0  0  0  0  0
   32.4162   36.3953   81.1918 H   0  0  0  0  0  0
   32.9139   38.0310   81.6218 H   0  0  0  0  0  0
   33.1628   36.7028   82.7630 H   0  0  0  0  0  0
  1  2  1  0  0  0
  1 27  1  0  0  0
  1 28  1  0  0  0
  1 29  1  0  0  0
  2  7  1  0  0  0
  2  3  2  0  0  0
  3  4  1  0  0  0
  3 30  1  0  0  0
  4  5  2  0  0  0
  4 31  1  0  0  0
  5  6  1  0  0  0
  5 32  1  0  0  0
  6  7  2  0  0  0
  6 26  1  0  0  0
  7  8  1  0  0  0
  8  9  1  0  0  0
  8 10  1  0  0  0
  9 33  1  0  0  0
  9 34  1  0  0  0
  9 35  1  0  0  0
 10 11  2  0  0  0
 10 12  1  0  0  0
 12 16  1  0  0  0
 12 13  2  0  0  0
 13 14  1  0  0  0
 13 36  1  0  0  0
 14 15  2  0  0  0
 15 16  1  0  0  0
 15 17  1  0  0  0
 17 18  1  0  0  0
 17 37  1  0  0  0
 18 23  1  0  0  0
 18 19  2  0  0  0
 19 20  1  0  0  0
 19 38  1  0  0  0
 20 21  2  0  0  0
 20 25  1  0  0  0
 21 22  1  0  0  0
 22 23  2  0  0  0
 22 24  1  0  0  0
 24 39  1  0  0  0
 24 40  1  0  0  0
 24 41  1  0  0  0
 25 42  1  0  0  0
 25 43  1  0  0  0
 25 44  1  0  0  0
M  END
> <s_m_entry_id>
5923

> <s_m_entry_name>
ligand_docking-pose.112

> <s_m_Source_Path>
/home/csk/Desktop/cluster/DUD-E-result/lck

> <s_m_Source_File>
ligand_docking-pose.sdf

> <i_m_Source_File_Index>
112

> <i_lp_mmshare_version>
53161

> <r_lp_tautomer_probability>
0.999999583200174

> <s_lp_Force_Field>
OPLS_2005

> <r_lp_Energy>
25.892629

> <b_lp_Chiralities_Consistent>
1

> <s_lp_Variant>
312870-1

> <s_i_glide_gridfile>
glide-grid_2of2

> <i_i_glide_lignum>
500

> <i_i_glide_rotatable_bonds>
5

> <r_i_docking_score>
-7.23957552919333

> <r_i_glide_ligand_efficiency>
-0.278445212661282

> <r_i_glide_ligand_efficiency_sa>
-0.824892846880042

> <r_i_glide_ligand_efficiency_ln>
-1.7001905580462

> <r_i_glide_gscore>
-7.23957552919333

> <r_i_glide_lipo>
-2.662123816416

> <r_i_glide_hbond>
-0.206594492946437

> <r_i_glide_metal>
0

> <r_i_glide_rewards>
-2.40270961406901

> <r_i_glide_evdw>
-39.6391334533691

> <r_i_glide_ecoul>
-2.84215044975281

> <r_i_glide_erotb>
0.453116019749506

> <r_i_glide_esite>
-0.0129843853800182

> <r_i_glide_emodel>
-60.7310382698232

> <r_i_glide_energy>
-42.4812839031219

> <r_i_glide_einternal>
0.728670954704285

> <i_i_glide_confnum>
26

> <i_i_glide_posenum>
62

> <r_i_glide_eff_state_penalty>
0

> <i_f3d_flags>
0

> <s_user_duplicate_titles>
312870

> <s_m_subgroup_title>
dock_pv

> <s_m_subgroupid>
dock_pv1

> <b_m_subgroup_collapsed>
0

$$$$
312454
                    3D
 Schrodinger Suite 2021-1.
 48 52  0  0  1  0            999 V2000
   19.7402   38.6152   83.9058 C   0  0  0  0  0  0
   19.3740   37.7721   85.1194 C   0  0  0  0  0  0
   18.1517   38.0255   85.7481 C   0  0  0  0  0  0
   17.7420   37.2622   86.8346 C   0  0  0  0  0  0
   18.5427   36.2213   87.2871 C   0  0  0  0  0  0
   19.7628   35.9462   86.6707 C   0  0  0  0  0  0
   20.1969   36.7269   85.5862 C   0  0  0  0  0  0
   21.4272   36.4222   84.9806 N   0  0  0  0  0  0
   22.6107   37.1535   84.8717 C   0  0  0  0  0  0
   22.8237   38.3964   85.5057 C   0  0  0  0  0  0
   22.1558   39.3194   86.3539 C   0  0  0  0  0  0
   22.9159   40.3600   86.6145 N   0  0  0  0  0  0
   24.0594   40.1755   85.9857 C   0  0  0  0  0  0
   24.0782   38.9850   85.2922 N   0  0  0  0  0  0
   25.0590   38.4119   84.5608 C   0  0  0  0  0  0
   24.7796   37.1474   83.9805 C   0  0  0  0  0  0
   23.5695   36.5463   84.1273 N   0  0  0  0  0  0
   25.8089   36.5272   83.2415 C   0  0  0  0  0  0
   27.0484   37.1578   83.1370 C   0  0  0  0  0  0
   27.2529   38.3987   83.7567 C   0  0  0  0  0  0
   26.2646   39.0388   84.4402 N   0  0  0  0  0  0
   28.4934   39.0486   83.6880 N   0  0  0  0  0  0
   29.7681   38.4132   83.3398 C   0  0  0  0  0  0
   30.9162   39.3631   83.7135 C   0  0  1  0  0  0
   30.2398   40.7359   83.7629 C   0  0  2  0  0  0
   28.8252   40.3724   84.2203 C   0  0  0  0  0  0
   30.2729   41.4210   82.5189 O   0  0  0  0  0  0
   31.5235   39.0036   84.9426 O   0  0  0  0  0  0
   20.7035   34.6211   87.2794 Cl  0  0  0  0  0  0
   31.6675   39.3308   82.9224 H   0  0  0  0  0  0
   30.7149   41.3627   84.5196 H   0  0  0  0  0  0
   19.9128   37.9744   83.0394 H   0  0  0  0  0  0
   18.9478   39.3201   83.6599 H   0  0  0  0  0  0
   20.6494   39.1840   84.0836 H   0  0  0  0  0  0
   17.5057   38.8152   85.3911 H   0  0  0  0  0  0
   16.7950   37.4701   87.3141 H   0  0  0  0  0  0
   18.2108   35.6133   88.1166 H   0  0  0  0  0  0
   21.4773   35.5059   84.5603 H   0  0  0  0  0  0
   21.1579   39.2445   86.7601 H   0  0  0  0  0  0
   24.9069   40.8453   85.9963 H   0  0  0  0  0  0
   25.6291   35.5657   82.7826 H   0  0  0  0  0  0
   27.8439   36.6783   82.5848 H   0  0  0  0  0  0
   29.9041   37.4650   83.8642 H   0  0  0  0  0  0
   29.7928   38.2209   82.2709 H   0  0  0  0  0  0
   28.0942   41.1342   83.9447 H   0  0  0  0  0  0
   28.7733   40.3081   85.3091 H   0  0  0  0  0  0
   30.3479   42.3766   82.6885 H   0  0  0  0  0  0
   32.1006   39.7140   85.2311 H   0  0  0  0  0  0
  1  2  1  0  0  0
  1 32  1  0  0  0
  1 33  1  0  0  0
  1 34  1  0  0  0
  2  7  1  0  0  0
  2  3  2  0  0  0
  3  4  1  0  0  0
  3 35  1  0  0  0
  4  5  2  0  0  0
  4 36  1  0  0  0
  5  6  1  0  0  0
  5 37  1  0  0  0
  6  7  2  0  0  0
  6 29  1  0  0  0
  7  8  1  0  0  0
  8  9  1  0  0  0
  8 38  1  0  0  0
  9 17  2  0  0  0
  9 10  1  0  0  0
 10 14  1  0  0  0
 10 11  2  0  0  0
 11 12  1  0  0  0
 11 39  1  0  0  0
 12 13  2  0  0  0
 13 14  1  0  0  0
 13 40  1  0  0  0
 14 15  1  0  0  0
 15 21  1  0  0  0
 15 16  2  0  0  0
 16 17  1  0  0  0
 16 18  1  0  0  0
 18 19  2  0  0  0
 18 41  1  0  0  0
 19 20  1  0  0  0
 19 42  1  0  0  0
 20 21  2  0  0  0
 20 22  1  0  0  0
 22 26  1  0  0  0
 22 23  1  0  0  0
 23 24  1  0  0  0
 23 43  1  0  0  0
 23 44  1  0  0  0
 24 30  1  0  0  0
 24 25  1  0  0  0
 24 28  1  0  0  0
 25 31  1  0  0  0
 25 26  1  0  0  0
 25 27  1  0  0  0
 26 45  1  0  0  0
 26 46  1  0  0  0
 27 47  1  0  0  0
 28 48  1  0  0  0
M  END
> <s_m_entry_id>
5924

> <s_m_entry_name>
ligand_docking-pose.113

> <s_m_Source_Path>
/home/csk/Desktop/cluster/DUD-E-result/lck

> <s_m_Source_File>
ligand_docking-pose.sdf

> <i_m_Source_File_Index>
113

> <i_lp_mmshare_version>
53161

> <r_lp_tautomer_probability>
1

> <s_lp_Force_Field>
OPLS_2005

> <r_lp_Energy>
84.2103

> <b_lp_Chiralities_Consistent>
1

> <s_lp_Variant>
312454-1

> <s_i_glide_gridfile>
glide-grid_2of2

> <i_i_glide_lignum>
392

> <i_i_glide_rotatable_bonds>
5

> <r_i_docking_score>
-7.22238979724578

> <r_i_glide_ligand_efficiency>
-0.249047924042958

> <r_i_glide_ligand_efficiency_sa>
-0.765154126580477

> <r_i_glide_ligand_efficiency_ln>
-1.65374411956612

> <r_i_glide_gscore>
-7.22238979724578

> <r_i_glide_lipo>
-2.7467813115486

> <r_i_glide_hbond>
-0.508700819143352

> <r_i_glide_metal>
0

> <r_i_glide_rewards>
-1.43206900770881

> <r_i_glide_evdw>
-40.0749092102051

> <r_i_glide_ecoul>
-5.87519121170044

> <r_i_glide_erotb>
0.350185483420305

> <r_i_glide_esite>
0

> <r_i_glide_emodel>
-62.6367890917562

> <r_i_glide_energy>
-45.9501004219055

> <r_i_glide_einternal>
7.24241209030151

> <i_i_glide_confnum>
31

> <i_i_glide_posenum>
159

> <r_i_glide_eff_state_penalty>
0

> <i_f3d_flags>
0

> <s_user_duplicate_titles>
312454

> <s_m_subgroup_title>
dock_pv

> <s_m_subgroupid>
dock_pv1

> <b_m_subgroup_collapsed>
0

$$$$
312783
                    3D
 Schrodinger Suite 2021-1.
 51 55  0  0  1  0            999 V2000
   20.8675   35.1470   86.9228 C   0  0  0  0  0  0
   19.7501   36.0909   86.4870 C   0  0  0  0  0  0
   18.6081   36.2210   87.2870 C   0  0  0  0  0  0
   17.5447   37.0209   86.8753 C   0  0  0  0  0  0
   17.5938   37.6520   85.6352 C   0  0  0  0  0  0
   18.7149   37.5262   84.8174 C   0  0  0  0  0  0
   19.8127   36.7620   85.2491 C   0  0  0  0  0  0
   20.9636   36.6569   84.4502 N   0  0  0  0  0  0
   22.1657   37.3380   84.6465 C   0  0  0  0  0  0
   22.2234   38.5577   85.3574 C   0  0  0  0  0  0
   21.3732   39.4562   86.0575 C   0  0  0  0  0  0
   22.0460   40.4871   86.5206 N   0  0  0  0  0  0
   23.2993   40.3239   86.1529 C   0  0  0  0  0  0
   23.4797   39.1606   85.4361 N   0  0  0  0  0  0
   24.5938   38.6334   84.8872 C   0  0  0  0  0  0
   24.4714   37.3943   84.2083 C   0  0  0  0  0  0
   23.2685   36.7639   84.0912 N   0  0  0  0  0  0
   25.6496   36.8439   83.6528 C   0  0  0  0  0  0
   26.8604   37.5294   83.7958 C   0  0  0  0  0  0
   26.8958   38.7563   84.4774 C   0  0  0  0  0  0
   25.7710   39.3024   85.0166 N   0  0  0  0  0  0
   28.0808   39.4929   84.6747 N   0  0  0  0  0  0
   29.3985   38.8544   84.6176 C   0  0  0  0  0  0
   30.1576   38.9391   83.2870 C   0  0  0  0  0  0
   30.7251   40.3182   82.9108 C   0  0  0  0  0  0
   29.7755   41.4210   82.8871 N   0  0  1  0  0  0
   29.2122   41.7884   84.1817 C   0  0  0  0  0  0
   28.0060   40.9631   84.6589 C   0  0  0  0  0  0
   18.7049   38.3362   83.2868 Cl  0  0  0  0  0  0
   21.2113   34.5384   86.0871 H   0  0  0  0  0  0
   21.7257   35.7105   87.2885 H   0  0  0  0  0  0
   20.5327   34.4449   87.6870 H   0  0  0  0  0  0
   18.5325   35.6894   88.2233 H   0  0  0  0  0  0
   16.6656   37.1242   87.4956 H   0  0  0  0  0  0
   16.7456   38.2323   85.3028 H   0  0  0  0  0  0
   21.0687   35.7764   83.9691 H   0  0  0  0  0  0
   20.3096   39.3765   86.2270 H   0  0  0  0  0  0
   24.1152   40.9993   86.3635 H   0  0  0  0  0  0
   25.5978   35.9024   83.1257 H   0  0  0  0  0  0
   27.7568   37.1076   83.3677 H   0  0  0  0  0  0
   29.9930   39.2530   85.4415 H   0  0  0  0  0  0
   29.3002   37.8077   84.8870 H   0  0  0  0  0  0
   31.0078   38.2595   83.3509 H   0  0  0  0  0  0
   29.5492   38.5306   82.4870 H   0  0  0  0  0  0
   31.5442   40.5756   83.5845 H   0  0  0  0  0  0
   31.1659   40.2532   81.9155 H   0  0  0  0  0  0
   30.2556   42.2786   82.5925 H   0  0  0  0  0  0
   28.9278   42.8409   84.1443 H   0  0  0  0  0  0
   30.0200   41.7084   84.9116 H   0  0  0  0  0  0
   27.2222   41.1898   83.9333 H   0  0  0  0  0  0
   27.6344   41.3272   85.6173 H   0  0  0  0  0  0
  1  2  1  0  0  0
  1 30  1  0  0  0
  1 31  1  0  0  0
  1 32  1  0  0  0
  2  7  1  0  0  0
  2  3  2  0  0  0
  3  4  1  0  0  0
  3 33  1  0  0  0
  4  5  2  0  0  0
  4 34  1  0  0  0
  5  6  1  0  0  0
  5 35  1  0  0  0
  6  7  2  0  0  0
  6 29  1  0  0  0
  7  8  1  0  0  0
  8  9  1  0  0  0
  8 36  1  0  0  0
  9 17  2  0  0  0
  9 10  1  0  0  0
 10 14  1  0  0  0
 10 11  2  0  0  0
 11 12  1  0  0  0
 11 37  1  0  0  0
 12 13  2  0  0  0
 13 14  1  0  0  0
 13 38  1  0  0  0
 14 15  1  0  0  0
 15 21  1  0  0  0
 15 16  2  0  0  0
 16 17  1  0  0  0
 16 18  1  0  0  0
 18 19  2  0  0  0
 18 39  1  0  0  0
 19 20  1  0  0  0
 19 40  1  0  0  0
 20 21  2  0  0  0
 20 22  1  0  0  0
 22 28  1  0  0  0
 22 23  1  0  0  0
 23 24  1  0  0  0
 23 41  1  0  0  0
 23 42  1  0  0  0
 24 25  1  0  0  0
 24 43  1  0  0  0
 24 44  1  0  0  0
 25 26  1  0  0  0
 25 45  1  0  0  0
 25 46  1  0  0  0
 26 27  1  0  0  0
 26 47  1  0  0  0
 27 28  1  0  0  0
 27 48  1  0  0  0
 27 49  1  0  0  0
 28 50  1  0  0  0
 28 51  1  0  0  0
M  END
> <s_m_entry_id>
5933

> <s_m_entry_name>
ligand_docking-pose.122

> <s_m_Source_Path>
/home/csk/Desktop/cluster/DUD-E-result/lck

> <s_m_Source_File>
ligand_docking-pose.sdf

> <i_m_Source_File_Index>
122

> <i_lp_mmshare_version>
53161

> <r_lp_tautomer_probability>
1

> <s_lp_Force_Field>
OPLS_2005

> <r_lp_Energy>
81.760572

> <b_lp_Chiralities_Consistent>
1

> <s_lp_Variant>
312783-1

> <s_i_glide_gridfile>
glide-grid_2of2

> <i_i_glide_lignum>
391

> <i_i_glide_rotatable_bonds>
3

> <r_i_docking_score>
-7.16419270753412

> <r_i_glide_ligand_efficiency>
-0.247041127846004

> <r_i_glide_ligand_efficiency_sa>
-0.758988612865774

> <r_i_glide_ligand_efficiency_ln>
-1.64041846177302

> <r_i_glide_gscore>
-7.16419270753412

> <r_i_glide_lipo>
-2.71177214132444

> <r_i_glide_hbond>
-0.514454732069457

> <r_i_glide_metal>
0

> <r_i_glide_rewards>
-1.25925949241812

> <r_i_glide_evdw>
-38.8003349304199

> <r_i_glide_ecoul>
-7.28978776931763

> <r_i_glide_erotb>
0.354778570196532

> <r_i_glide_esite>
0

> <r_i_glide_emodel>
-60.9743426170481

> <r_i_glide_energy>
-46.0901226997375

> <r_i_glide_einternal>
8.46392345428467

> <i_i_glide_confnum>
172

> <i_i_glide_posenum>
180

> <r_i_glide_eff_state_penalty>
0

> <i_f3d_flags>
0

> <s_user_duplicate_titles>
312783

> <s_m_subgroup_title>
dock_pv

> <s_m_subgroupid>
dock_pv1

> <b_m_subgroup_collapsed>
0

$$$$
312750
                    3D
 Schrodinger Suite 2021-1.
 39 41  0  0  1  0            999 V2000
   31.5246   39.0561   83.7807 C   0  0  0  0  0  0
   30.2990   38.2208   83.4625 C   0  0  0  0  0  0
   30.4073   37.0210   82.7528 C   0  0  0  0  0  0
   29.2580   36.2733   82.4842 C   0  0  0  0  0  0
   28.0130   36.7655   82.8868 C   0  0  0  0  0  0
   27.9026   37.9343   83.5767 N   0  0  0  0  0  0
   29.0275   38.6370   83.8607 C   0  0  0  0  0  0
   26.8680   36.0487   82.4872 N   0  0  0  0  0  0
   25.5597   36.1126   82.9302 C   0  0  0  0  0  0
   24.5967   35.4210   82.3705 N   0  0  0  0  0  0
   23.4183   35.6521   82.9243 C   0  0  0  0  0  0
   23.3990   36.5359   84.0150 C   0  0  0  0  0  0
   25.0333   37.0724   84.2897 S   0  0  0  0  0  0
   22.3283   36.9637   84.8839 C   0  0  0  0  0  0
   22.5528   37.5705   85.9341 O   0  0  0  0  0  0
   21.0907   36.6214   84.4735 N   0  0  0  0  0  0
   19.9344   36.7499   85.2689 C   0  0  0  0  0  0
   19.7972   36.0455   86.4871 C   0  0  0  0  0  0
   18.6431   36.2212   87.2602 C   0  0  0  0  0  0
   17.6350   37.0834   86.8371 C   0  0  0  0  0  0
   17.7540   37.7488   85.6183 C   0  0  0  0  0  0
   18.8873   37.5750   84.8232 C   0  0  0  0  0  0
   18.9461   38.3791   83.2892 Cl  0  0  0  0  0  0
   20.8251   35.0094   86.9375 C   0  0  0  0  0  0
   32.3460   38.8370   83.0966 H   0  0  0  0  0  0
   31.3018   40.1190   83.6769 H   0  0  0  0  0  0
   31.8548   38.8748   84.8041 H   0  0  0  0  0  0
   31.3706   36.6601   82.4221 H   0  0  0  0  0  0
   29.3397   35.3492   81.9287 H   0  0  0  0  0  0
   28.8911   39.5549   84.4143 H   0  0  0  0  0  0
   27.1237   35.2888   81.8731 H   0  0  0  0  0  0
   22.5604   35.1292   82.5231 H   0  0  0  0  0  0
   20.9710   36.2017   83.5664 H   0  0  0  0  0  0
   18.5149   35.6712   88.1801 H   0  0  0  0  0  0
   16.7470   37.2210   87.4374 H   0  0  0  0  0  0
   16.9527   38.3935   85.2869 H   0  0  0  0  0  0
   21.2020   34.4412   86.0874 H   0  0  0  0  0  0
   21.6786   35.4811   87.4239 H   0  0  0  0  0  0
   20.3876   34.2744   87.6145 H   0  0  0  0  0  0
  1  2  1  0  0  0
  1 25  1  0  0  0
  1 26  1  0  0  0
  1 27  1  0  0  0
  2  7  1  0  0  0
  2  3  2  0  0  0
  3  4  1  0  0  0
  3 28  1  0  0  0
  4  5  2  0  0  0
  4 29  1  0  0  0
  5  6  1  0  0  0
  5  8  1  0  0  0
  6  7  2  0  0  0
  7 30  1  0  0  0
  8  9  1  0  0  0
  8 31  1  0  0  0
  9 13  1  0  0  0
  9 10  2  0  0  0
 10 11  1  0  0  0
 11 12  2  0  0  0
 11 32  1  0  0  0
 12 13  1  0  0  0
 12 14  1  0  0  0
 14 15  2  0  0  0
 14 16  1  0  0  0
 16 17  1  0  0  0
 16 33  1  0  0  0
 17 22  1  0  0  0
 17 18  2  0  0  0
 18 19  1  0  0  0
 18 24  1  0  0  0
 19 20  2  0  0  0
 19 34  1  0  0  0
 20 21  1  0  0  0
 20 35  1  0  0  0
 21 22  2  0  0  0
 21 36  1  0  0  0
 22 23  1  0  0  0
 24 37  1  0  0  0
 24 38  1  0  0  0
 24 39  1  0  0  0
M  END
> <s_m_entry_id>
5935

> <s_m_entry_name>
ligand_docking-pose.124

> <s_m_Source_Path>
/home/csk/Desktop/cluster/DUD-E-result/lck

> <s_m_Source_File>
ligand_docking-pose.sdf

> <i_m_Source_File_Index>
124

> <i_lp_mmshare_version>
53161

> <r_lp_tautomer_probability>
0.999999772200052

> <s_lp_Force_Field>
OPLS_2005

> <r_lp_Energy>
19.337318

> <b_lp_Chiralities_Consistent>
1

> <s_lp_Variant>
312750-1

> <s_i_glide_gridfile>
glide-grid_2of2

> <i_i_glide_lignum>
663

> <i_i_glide_rotatable_bonds>
5

> <r_i_docking_score>
-7.16020111814272

> <r_i_glide_ligand_efficiency>
-0.298341713255947

> <r_i_glide_ligand_efficiency_sa>
-0.860566414584688

> <r_i_glide_ligand_efficiency_ln>
-1.71376468779159

> <r_i_glide_gscore>
-7.16020111814272

> <r_i_glide_lipo>
-2.94499024023437

> <r_i_glide_hbond>
-0.0614166756274756

> <r_i_glide_metal>
0

> <r_i_glide_rewards>
-2.14201238442625

> <r_i_glide_evdw>
-40.306224822998

> <r_i_glide_ecoul>
-4.93633699417114

> <r_i_glide_erotb>
0.743979972420949

> <r_i_glide_esite>
0

> <r_i_glide_emodel>
-62.0648955332915

> <r_i_glide_energy>
-45.2425618171692

> <r_i_glide_einternal>
5.27110815048218

> <i_i_glide_confnum>
65

> <i_i_glide_posenum>
341

> <r_i_glide_eff_state_penalty>
0

> <i_f3d_flags>
0

> <s_user_duplicate_titles>
312750

> <s_m_subgroup_title>
dock_pv

> <s_m_subgroupid>
dock_pv1

> <b_m_subgroup_collapsed>
0

$$$$
413851
                    3D
 Schrodinger Suite 2021-1.
 44 47  0  0  1  0            999 V2000
   31.5642   38.4006   83.5916 C   0  0  0  0  0  0
   30.3148   39.2089   83.8939 C   0  0  0  0  0  0
   30.3971   40.6000   83.9815 C   0  0  0  0  0  0
   29.2205   41.2821   84.3052 C   0  0  0  0  0  0
   27.9817   40.6241   84.4876 C   0  0  0  0  0  0
   27.0716   41.6804   84.8123 C   0  0  0  0  0  0
   27.6629   42.8451   84.8123 N   0  0  0  0  0  0
   28.9498   42.6212   84.4873 N   0  0  0  0  0  0
   27.9070   39.2312   84.3098 C   0  0  0  0  0  0
   29.0996   38.5438   84.0609 C   0  0  0  0  0  0
   26.6528   38.6062   84.3937 N   0  0  0  0  0  0
   26.1046   37.4676   83.7929 C   0  0  0  0  0  0
   26.7916   36.6513   82.8858 C   0  0  0  0  0  0
   26.0908   35.5852   82.3309 C   0  0  0  0  0  0
   24.7782   35.3683   82.5818 N   0  0  0  0  0  0
   24.1803   36.2211   83.4517 C   0  0  0  0  0  0
   24.7992   37.2500   84.0889 N   0  0  0  0  0  0
   22.8002   36.0549   83.5981 N   0  0  0  0  0  0
   21.9145   36.6518   84.5030 C   0  0  0  0  0  0
   22.2267   36.7665   85.8580 C   0  0  0  0  0  0
   21.3125   37.3280   86.7472 C   0  0  0  0  0  0
   20.0682   37.7554   86.2846 C   0  0  0  0  0  0
   19.7308   37.6385   84.9264 C   0  0  0  0  0  0
   20.6767   37.1028   84.0438 C   0  0  0  0  0  0
   18.3821   38.0764   84.4141 C   0  0  0  0  0  0
   18.2383   38.6195   83.3195 O   0  0  0  0  0  0
   17.3500   37.8208   85.2143 N   0  0  0  0  0  0
   29.5872   43.3960   84.3200 H   0  0  0  0  0  0
   32.3627   39.0245   83.1833 H   0  0  0  0  0  0
   31.9240   37.9039   84.4958 H   0  0  0  0  0  0
   31.3504   37.6312   82.8482 H   0  0  0  0  0  0
   31.3318   41.1252   83.8361 H   0  0  0  0  0  0
   26.0156   41.6066   85.0257 H   0  0  0  0  0  0
   29.1032   37.4686   84.0164 H   0  0  0  0  0  0
   25.9483   39.1567   84.8603 H   0  0  0  0  0  0
   27.8102   36.8165   82.5814 H   0  0  0  0  0  0
   26.5722   34.9028   81.6494 H   0  0  0  0  0  0
   22.4049   35.3440   83.0028 H   0  0  0  0  0  0
   23.1784   36.4117   86.2169 H   0  0  0  0  0  0
   21.5673   37.4198   87.7927 H   0  0  0  0  0  0
   19.3701   38.1855   86.9883 H   0  0  0  0  0  0
   20.4474   37.0243   82.9915 H   0  0  0  0  0  0
   16.4257   38.1393   84.9587 H   0  0  0  0  0  0
   17.4923   37.3695   86.1043 H   0  0  0  0  0  0
  1  2  1  0  0  0
  1 29  1  0  0  0
  1 30  1  0  0  0
  1 31  1  0  0  0
  2 10  1  0  0  0
  2  3  2  0  0  0
  3  4  1  0  0  0
  3 32  1  0  0  0
  4  8  1  0  0  0
  4  5  2  0  0  0
  5  6  1  0  0  0
  5  9  1  0  0  0
  6  7  2  0  0  0
  6 33  1  0  0  0
  7  8  1  0  0  0
  8 28  1  0  0  0
  9 10  2  0  0  0
  9 11  1  0  0  0
 10 34  1  0  0  0
 11 12  1  0  0  0
 11 35  1  0  0  0
 12 17  1  0  0  0
 12 13  2  0  0  0
 13 14  1  0  0  0
 13 36  1  0  0  0
 14 15  2  0  0  0
 14 37  1  0  0  0
 15 16  1  0  0  0
 16 17  2  0  0  0
 16 18  1  0  0  0
 18 19  1  0  0  0
 18 38  1  0  0  0
 19 24  1  0  0  0
 19 20  2  0  0  0
 20 21  1  0  0  0
 20 39  1  0  0  0
 21 22  2  0  0  0
 21 40  1  0  0  0
 22 23  1  0  0  0
 22 41  1  0  0  0
 23 24  2  0  0  0
 23 25  1  0  0  0
 24 42  1  0  0  0
 25 26  2  0  0  0
 25 27  1  0  0  0
 27 43  1  0  0  0
 27 44  1  0  0  0
M  END
> <s_m_entry_id>
5937

> <s_m_entry_name>
ligand_docking-pose.126

> <s_m_Source_Path>
/home/csk/Desktop/cluster/DUD-E-result/lck

> <s_m_Source_File>
ligand_docking-pose.sdf

> <i_m_Source_File_Index>
126

> <i_lp_mmshare_version>
53161

> <r_lp_tautomer_probability>
0.999999624730965

> <s_lp_Force_Field>
OPLS_2005

> <r_lp_Energy>
15.958072

> <b_lp_Chiralities_Consistent>
1

> <s_lp_Variant>
413851-1

> <s_i_glide_gridfile>
glide-grid_2of2

> <i_i_glide_lignum>
176

> <i_i_glide_rotatable_bonds>
5

> <r_i_docking_score>
-7.15097209955231

> <r_i_glide_ligand_efficiency>
-0.264850818501938

> <r_i_glide_ligand_efficiency_sa>
-0.794552454632908

> <r_i_glide_ligand_efficiency_ln>
-1.66462841178688

> <r_i_glide_gscore>
-7.15097209955231

> <r_i_glide_lipo>
-2.50118998316017

> <r_i_glide_hbond>
-0.430038028710557

> <r_i_glide_metal>
0

> <r_i_glide_rewards>
-1.61931407113763

> <r_i_glide_evdw>
-42.1148834228516

> <r_i_glide_ecoul>
-6.78514575958252

> <r_i_glide_erotb>
0.59359498530182

> <r_i_glide_esite>
-0.0705089667658175

> <r_i_glide_emodel>
-67.9635640812436

> <r_i_glide_energy>
-48.9000291824341

> <r_i_glide_einternal>
4.58897113800049

> <i_i_glide_confnum>
18

> <i_i_glide_posenum>
256

> <r_i_glide_eff_state_penalty>
0

> <i_f3d_flags>
0

> <s_user_duplicate_titles>
413851

> <s_m_subgroup_title>
dock_pv

> <s_m_subgroupid>
dock_pv1

> <b_m_subgroup_collapsed>
0

$$$$
312594
                    3D
 Schrodinger Suite 2021-1.
 54 58  0  0  1  0            999 V2000
   20.9832   35.3441   86.8792 C   0  0  0  0  0  0
   19.9222   36.2942   86.3249 C   0  0  0  0  0  0
   18.7781   36.5396   87.0913 C   0  0  0  0  0  0
   17.7440   37.3262   86.5940 C   0  0  0  0  0  0
   17.8222   37.8387   85.3038 C   0  0  0  0  0  0
   18.9482   37.6001   84.5177 C   0  0  0  0  0  0
   20.0225   36.8514   85.0317 C   0  0  0  0  0  0
   21.1564   36.6213   84.2325 N   0  0  0  0  0  0
   22.4642   37.0841   84.4058 C   0  0  0  0  0  0
   23.5060   36.4683   83.6876 C   0  0  0  0  0  0
   23.7000   35.4210   82.7543 C   0  0  0  0  0  0
   24.9700   35.3009   82.4311 N   0  0  0  0  0  0
   25.6258   36.2377   83.0821 C   0  0  0  0  0  0
   24.7863   37.0067   83.8599 N   0  0  0  0  0  0
   25.0466   38.0820   84.6347 C   0  0  0  0  0  0
   26.3484   38.6359   84.8037 C   0  0  0  0  0  0
   26.5081   39.7703   85.6208 C   0  0  0  0  0  0
   25.4417   40.3361   86.2557 N   0  0  0  0  0  0
   24.2082   39.8035   86.0870 C   0  0  0  0  0  0
   23.9390   38.6708   85.2977 C   0  0  0  0  0  0
   22.6803   38.1645   85.2029 N   0  0  0  0  0  0
   27.7599   40.3446   85.8720 N   0  0  0  0  0  0
   27.9650   41.6900   86.4547 C   0  0  0  0  0  0
   28.5257   42.7109   85.4262 C   0  0  2  0  0  0
   29.7903   42.2208   84.8868 N   0  0  1  0  0  0
   29.5791   40.9334   84.2330 C   0  0  2  0  0  0
   29.0427   39.9180   85.2765 C   0  0  0  0  0  0
   30.8687   40.4263   83.5735 C   0  0  0  0  0  0
   28.6868   44.1021   86.0519 C   0  0  0  0  0  0
   18.9537   38.2210   82.9022 Cl  0  0  0  0  0  0
   27.8154   42.8234   84.6042 H   0  0  0  0  0  0
   28.8495   41.0516   83.4292 H   0  0  0  0  0  0
   21.3642   34.6994   86.0883 H   0  0  0  0  0  0
   21.8216   35.9023   87.2946 H   0  0  0  0  0  0
   20.5802   34.6595   87.6300 H   0  0  0  0  0  0
   18.6761   36.1064   88.0759 H   0  0  0  0  0  0
   16.8667   37.5183   87.1952 H   0  0  0  0  0  0
   17.0006   38.4251   84.9166 H   0  0  0  0  0  0
   21.0724   35.8264   83.6187 H   0  0  0  0  0  0
   22.9550   34.7592   82.3354 H   0  0  0  0  0  0
   26.6879   36.4159   83.0120 H   0  0  0  0  0  0
   27.1801   38.1767   84.2983 H   0  0  0  0  0  0
   23.3957   40.2861   86.6102 H   0  0  0  0  0  0
   27.0272   42.0875   86.8401 H   0  0  0  0  0  0
   28.6289   41.5954   87.3157 H   0  0  0  0  0  0
   30.1394   42.8933   84.2010 H   0  0  0  0  0  0
   29.7633   39.7871   86.0861 H   0  0  0  0  0  0
   28.9668   38.9411   84.8076 H   0  0  0  0  0  0
   30.7032   39.4825   83.0538 H   0  0  0  0  0  0
   31.2449   41.1434   82.8423 H   0  0  0  0  0  0
   31.6556   40.2646   84.3113 H   0  0  0  0  0  0
   27.7314   44.4861   86.4092 H   0  0  0  0  0  0
   29.3745   44.0807   86.8971 H   0  0  0  0  0  0
   29.0776   44.8155   85.3252 H   0  0  0  0  0  0
  1  2  1  0  0  0
  1 33  1  0  0  0
  1 34  1  0  0  0
  1 35  1  0  0  0
  2  7  1  0  0  0
  2  3  2  0  0  0
  3  4  1  0  0  0
  3 36  1  0  0  0
  4  5  2  0  0  0
  4 37  1  0  0  0
  5  6  1  0  0  0
  5 38  1  0  0  0
  6  7  2  0  0  0
  6 30  1  0  0  0
  7  8  1  0  0  0
  8  9  1  0  0  0
  8 39  1  0  0  0
  9 21  2  0  0  0
  9 10  1  0  0  0
 10 14  1  0  0  0
 10 11  2  0  0  0
 11 12  1  0  0  0
 11 40  1  0  0  0
 12 13  2  0  0  0
 13 14  1  0  0  0
 13 41  1  0  0  0
 14 15  1  0  0  0
 15 20  1  0  0  0
 15 16  2  0  0  0
 16 17  1  0  0  0
 16 42  1  0  0  0
 17 18  2  0  0  0
 17 22  1  0  0  0
 18 19  1  0  0  0
 19 20  2  0  0  0
 19 43  1  0  0  0
 20 21  1  0  0  0
 22 27  1  0  0  0
 22 23  1  0  0  0
 23 24  1  0  0  0
 23 44  1  0  0  0
 23 45  1  0  0  0
 24 31  1  0  0  0
 24 25  1  0  0  0
 24 29  1  0  0  0
 25 26  1  0  0  0
 25 46  1  0  0  0
 26 32  1  0  0  0
 26 27  1  0  0  0
 26 28  1  0  0  0
 27 47  1  0  0  0
 27 48  1  0  0  0
 28 49  1  0  0  0
 28 50  1  0  0  0
 28 51  1  0  0  0
 29 52  1  0  0  0
 29 53  1  0  0  0
 29 54  1  0  0  0
M  END
> <s_m_entry_id>
5938

> <s_m_entry_name>
ligand_docking-pose.127

> <s_m_Source_Path>
/home/csk/Desktop/cluster/DUD-E-result/lck

> <s_m_Source_File>
ligand_docking-pose.sdf

> <i_m_Source_File_Index>
127

> <i_lp_mmshare_version>
53161

> <r_lp_tautomer_probability>
1

> <s_lp_Force_Field>
OPLS_2005

> <r_lp_Energy>
77.994311

> <b_lp_Chiralities_Consistent>
1

> <s_lp_Variant>
312594-1

> <s_i_glide_gridfile>
glide-grid_2of2

> <i_i_glide_lignum>
380

> <i_i_glide_rotatable_bonds>
3

> <r_i_docking_score>
-7.1474064955933

> <r_i_glide_ligand_efficiency>
-0.238246883186443

> <r_i_glide_ligand_efficiency_sa>
-0.740288459039819

> <r_i_glide_ligand_efficiency_ln>
-1.62396863303004

> <r_i_glide_gscore>
-7.1474064955933

> <r_i_glide_lipo>
-2.51154600370873

> <r_i_glide_hbond>
-0.213768347275431

> <r_i_glide_metal>
0

> <r_i_glide_rewards>
-2.15191279868039

> <r_i_glide_evdw>
-40.1359672546387

> <r_i_glide_ecoul>
-3.98098421096802

> <r_i_glide_erotb>
0.333766648448382

> <r_i_glide_esite>
0

> <r_i_glide_emodel>
-61.3752457064447

> <r_i_glide_energy>
-44.1169514656067

> <r_i_glide_einternal>
2.57945895195007

> <i_i_glide_confnum>
3

> <i_i_glide_posenum>
214

> <r_i_glide_eff_state_penalty>
0

> <i_f3d_flags>
0

> <s_user_duplicate_titles>
312594

> <s_m_subgroup_title>
dock_pv

> <s_m_subgroupid>
dock_pv1

> <b_m_subgroup_collapsed>
0

$$$$
312766
                    3D
 Schrodinger Suite 2021-1.
 34 37  0  0  1  0            999 V2000
   20.9716   35.3678   86.8866 C   0  0  0  0  0  0
   19.9092   36.3098   86.3212 C   0  0  0  0  0  0
   18.7641   36.5614   87.0842 C   0  0  0  0  0  0
   17.7308   37.3448   86.5804 C   0  0  0  0  0  0
   17.8111   37.8486   85.2872 C   0  0  0  0  0  0
   18.9380   37.6049   84.5044 C   0  0  0  0  0  0
   20.0101   36.8560   85.0228 C   0  0  0  0  0  0
   21.1447   36.6210   84.2251 N   0  0  0  0  0  0
   22.4562   37.0672   84.4116 C   0  0  0  0  0  0
   23.4974   36.4553   83.6878 C   0  0  0  0  0  0
   23.6932   35.4210   82.7381 C   0  0  0  0  0  0
   24.9658   35.3015   82.4239 N   0  0  0  0  0  0
   25.6211   36.2213   83.0998 C   0  0  0  0  0  0
   24.7794   36.9786   83.8846 N   0  0  0  0  0  0
   25.0403   38.0311   84.6870 C   0  0  0  0  0  0
   26.3379   38.5733   84.8865 C   0  0  0  0  0  0
   26.4716   39.6720   85.7343 C   0  0  0  0  0  0
   25.3348   40.2005   86.3464 C   0  0  0  0  0  0
   24.0845   39.6990   86.1757 N   0  0  0  0  0  0
   23.9346   38.6210   85.3590 C   0  0  0  0  0  0
   22.6749   38.1261   85.2363 N   0  0  0  0  0  0
   18.9481   38.2210   82.8870 Cl  0  0  0  0  0  0
   21.8113   35.9325   87.2912 H   0  0  0  0  0  0
   20.5717   34.6934   87.6477 H   0  0  0  0  0  0
   21.3498   34.7138   86.1007 H   0  0  0  0  0  0
   18.6605   36.1367   88.0722 H   0  0  0  0  0  0
   16.8530   37.5420   87.1791 H   0  0  0  0  0  0
   16.9904   38.4335   84.8955 H   0  0  0  0  0  0
   21.0532   35.8393   83.5956 H   0  0  0  0  0  0
   22.9499   34.7704   82.3000 H   0  0  0  0  0  0
   26.6845   36.3965   83.0463 H   0  0  0  0  0  0
   27.2027   38.1502   84.3964 H   0  0  0  0  0  0
   27.4429   40.1125   85.9104 H   0  0  0  0  0  0
   25.4140   41.0568   87.0003 H   0  0  0  0  0  0
  1  2  1  0  0  0
  1 23  1  0  0  0
  1 24  1  0  0  0
  1 25  1  0  0  0
  2  7  1  0  0  0
  2  3  2  0  0  0
  3  4  1  0  0  0
  3 26  1  0  0  0
  4  5  2  0  0  0
  4 27  1  0  0  0
  5  6  1  0  0  0
  5 28  1  0  0  0
  6  7  2  0  0  0
  6 22  1  0  0  0
  7  8  1  0  0  0
  8  9  1  0  0  0
  8 29  1  0  0  0
  9 21  2  0  0  0
  9 10  1  0  0  0
 10 14  1  0  0  0
 10 11  2  0  0  0
 11 12  1  0  0  0
 11 30  1  0  0  0
 12 13  2  0  0  0
 13 14  1  0  0  0
 13 31  1  0  0  0
 14 15  1  0  0  0
 15 20  1  0  0  0
 15 16  2  0  0  0
 16 17  1  0  0  0
 16 32  1  0  0  0
 17 18  2  0  0  0
 17 33  1  0  0  0
 18 19  1  0  0  0
 18 34  1  0  0  0
 19 20  2  0  0  0
 20 21  1  0  0  0
M  END
> <s_m_entry_id>
5942

> <s_m_entry_name>
ligand_docking-pose.131

> <s_m_Source_Path>
/home/csk/Desktop/cluster/DUD-E-result/lck

> <s_m_Source_File>
ligand_docking-pose.sdf

> <i_m_Source_File_Index>
131

> <i_lp_mmshare_version>
53161

> <r_lp_tautomer_probability>
1

> <s_lp_Force_Field>
OPLS_2005

> <r_lp_Energy>
59.570621

> <b_lp_Chiralities_Consistent>
1

> <s_lp_Variant>
312766-1

> <s_i_glide_gridfile>
glide-grid_2of2

> <i_i_glide_lignum>
378

> <i_i_glide_rotatable_bonds>
2

> <r_i_docking_score>
-7.13396969640441

> <r_i_glide_ligand_efficiency>
-0.324271349836564

> <r_i_glide_ligand_efficiency_sa>
-0.90862107511057

> <r_i_glide_ligand_efficiency_ln>
-1.74380241166849

> <r_i_glide_gscore>
-7.13396969640441

> <r_i_glide_lipo>
-2.35937450804284

> <r_i_glide_hbond>
-0.0541288825927382

> <r_i_glide_metal>
0

> <r_i_glide_rewards>
-3.01432792173399

> <r_i_glide_evdw>
-34.2788009643555

> <r_i_glide_ecoul>
-2.52174830436707

> <r_i_glide_erotb>
0.386063909837992

> <r_i_glide_esite>
0

> <r_i_glide_emodel>
-51.7136484822744

> <r_i_glide_energy>
-36.8005492687225

> <r_i_glide_einternal>
1.06638097763062

> <i_i_glide_confnum>
2

> <i_i_glide_posenum>
41

> <r_i_glide_eff_state_penalty>
0

> <i_f3d_flags>
0

> <s_user_duplicate_titles>
312766

> <s_m_subgroup_title>
dock_pv

> <s_m_subgroupid>
dock_pv1

> <b_m_subgroup_collapsed>
0

$$$$
312547
                    3D
 Schrodinger Suite 2021-1.
 42 45  0  0  1  0            999 V2000
   20.9701   35.3959   86.8868 C   0  0  0  0  0  0
   19.8876   36.3130   86.3160 C   0  0  0  0  0  0
   18.7443   36.5556   87.0850 C   0  0  0  0  0  0
   17.6983   37.3232   86.5831 C   0  0  0  0  0  0
   17.7671   37.8265   85.2887 C   0  0  0  0  0  0
   18.8922   37.5930   84.5004 C   0  0  0  0  0  0
   19.9721   36.8511   85.0123 C   0  0  0  0  0  0
   21.1019   36.6210   84.2062 N   0  0  0  0  0  0
   22.4099   37.0755   84.3927 C   0  0  0  0  0  0
   23.4646   36.4600   83.6876 C   0  0  0  0  0  0
   23.6823   35.4210   82.7469 C   0  0  0  0  0  0
   24.9619   35.3008   82.4601 N   0  0  0  0  0  0
   25.6027   36.2213   83.1489 C   0  0  0  0  0  0
   24.7440   36.9807   83.9132 N   0  0  0  0  0  0
   24.9879   38.0308   84.7258 C   0  0  0  0  0  0
   23.8734   38.6304   85.3648 C   0  0  0  0  0  0
   22.6137   38.1436   85.2121 N   0  0  0  0  0  0
   24.1219   39.7460   86.1913 C   0  0  0  0  0  0
   25.4362   40.1799   86.3744 C   0  0  0  0  0  0
   26.4997   39.5205   85.7310 C   0  0  0  0  0  0
   26.2695   38.4614   84.9004 N   0  0  0  0  0  0
   27.8489   39.9186   85.9369 N   0  0  0  0  0  0
   28.1625   41.1172   86.7141 C   0  0  0  0  0  0
   28.9071   39.4236   85.0538 C   0  0  0  0  0  0
   18.8930   38.2210   82.8872 Cl  0  0  0  0  0  0
   21.8063   35.9824   87.2680 H   0  0  0  0  0  0
   20.5948   34.7412   87.6794 H   0  0  0  0  0  0
   21.3499   34.7280   86.1128 H   0  0  0  0  0  0
   18.6533   36.1372   88.0768 H   0  0  0  0  0  0
   16.8217   37.5134   87.1859 H   0  0  0  0  0  0
   16.9412   38.4063   84.9011 H   0  0  0  0  0  0
   21.0147   35.8303   83.5873 H   0  0  0  0  0  0
   22.9502   34.7673   82.2954 H   0  0  0  0  0  0
   26.6672   36.4043   83.1291 H   0  0  0  0  0  0
   23.2949   40.2344   86.6870 H   0  0  0  0  0  0
   25.6057   41.0254   87.0222 H   0  0  0  0  0  0
   27.6807   41.0915   87.6915 H   0  0  0  0  0  0
   29.2357   41.2215   86.8795 H   0  0  0  0  0  0
   27.8131   42.0088   86.1920 H   0  0  0  0  0  0
   28.8676   39.9418   84.0951 H   0  0  0  0  0  0
   29.8954   39.5776   85.4894 H   0  0  0  0  0  0
   28.8025   38.3574   84.8530 H   0  0  0  0  0  0
  1  2  1  0  0  0
  1 26  1  0  0  0
  1 27  1  0  0  0
  1 28  1  0  0  0
  2  7  1  0  0  0
  2  3  2  0  0  0
  3  4  1  0  0  0
  3 29  1  0  0  0
  4  5  2  0  0  0
  4 30  1  0  0  0
  5  6  1  0  0  0
  5 31  1  0  0  0
  6  7  2  0  0  0
  6 25  1  0  0  0
  7  8  1  0  0  0
  8  9  1  0  0  0
  8 32  1  0  0  0
  9 17  2  0  0  0
  9 10  1  0  0  0
 10 14  1  0  0  0
 10 11  2  0  0  0
 11 12  1  0  0  0
 11 33  1  0  0  0
 12 13  2  0  0  0
 13 14  1  0  0  0
 13 34  1  0  0  0
 14 15  1  0  0  0
 15 21  1  0  0  0
 15 16  2  0  0  0
 16 17  1  0  0  0
 16 18  1  0  0  0
 18 19  2  0  0  0
 18 35  1  0  0  0
 19 20  1  0  0  0
 19 36  1  0  0  0
 20 21  2  0  0  0
 20 22  1  0  0  0
 22 23  1  0  0  0
 22 24  1  0  0  0
 23 37  1  0  0  0
 23 38  1  0  0  0
 23 39  1  0  0  0
 24 40  1  0  0  0
 24 41  1  0  0  0
 24 42  1  0  0  0
M  END
> <s_m_entry_id>
5943

> <s_m_entry_name>
ligand_docking-pose.132

> <s_m_Source_Path>
/home/csk/Desktop/cluster/DUD-E-result/lck

> <s_m_Source_File>
ligand_docking-pose.sdf

> <i_m_Source_File_Index>
132

> <i_lp_mmshare_version>
53161

> <r_lp_tautomer_probability>
1

> <s_lp_Force_Field>
OPLS_2005

> <r_lp_Energy>
56.749185

> <b_lp_Chiralities_Consistent>
1

> <s_lp_Variant>
312547-1

> <s_i_glide_gridfile>
glide-grid_2of2

> <i_i_glide_lignum>
407

> <i_i_glide_rotatable_bonds>
3

> <r_i_docking_score>
-7.13238765168765

> <r_i_glide_ligand_efficiency>
-0.285295506067506

> <r_i_glide_ligand_efficiency_sa>
-0.834209119478732

> <r_i_glide_ligand_efficiency_ln>
-1.6905896138601

> <r_i_glide_gscore>
-7.13238765168765

> <r_i_glide_lipo>
-2.28077443314544

> <r_i_glide_hbond>
-0.0395621385667294

> <r_i_glide_metal>
0

> <r_i_glide_rewards>
-2.89488872456176

> <r_i_glide_evdw>
-37.2570648193359

> <r_i_glide_ecoul>
-2.40673899650574

> <r_i_glide_erotb>
0.306701735028935

> <r_i_glide_esite>
0

> <r_i_glide_emodel>
-55.3550539248648

> <r_i_glide_energy>
-39.6638038158417

> <r_i_glide_einternal>
1.37908208370209

> <i_i_glide_confnum>
3

> <i_i_glide_posenum>
332

> <r_i_glide_eff_state_penalty>
0

> <i_f3d_flags>
0

> <s_user_duplicate_titles>
312547

> <s_m_subgroup_title>
dock_pv

> <s_m_subgroupid>
dock_pv1

> <b_m_subgroup_collapsed>
0

$$$$
312607
                    3D
 Schrodinger Suite 2021-1.
 34 37  0  0  1  0            999 V2000
   20.9996   35.3736   86.8838 C   0  0  0  0  0  0
   19.9259   36.3045   86.3204 C   0  0  0  0  0  0
   18.7794   36.5470   87.0836 C   0  0  0  0  0  0
   17.7385   37.3207   86.5803 C   0  0  0  0  0  0
   17.8137   37.8245   85.2873 C   0  0  0  0  0  0
   18.9424   37.5936   84.5034 C   0  0  0  0  0  0
   20.0194   36.8510   85.0210 C   0  0  0  0  0  0
   21.1534   36.6211   84.2216 N   0  0  0  0  0  0
   22.4627   37.0745   84.4054 C   0  0  0  0  0  0
   23.5062   36.4598   83.6881 C   0  0  0  0  0  0
   23.7051   35.4210   82.7442 C   0  0  0  0  0  0
   24.9791   35.2961   82.4382 N   0  0  0  0  0  0
   25.6331   36.2204   83.1084 C   0  0  0  0  0  0
   24.7889   36.9833   83.8856 N   0  0  0  0  0  0
   25.0500   38.0418   84.6824 C   0  0  0  0  0  0
   26.3552   38.5774   84.8782 C   0  0  0  0  0  0
   26.4879   39.6774   85.7279 C   0  0  0  0  0  0
   25.4459   40.2706   86.3626 N   0  0  0  0  0  0
   24.2094   39.7528   86.1600 C   0  0  0  0  0  0
   23.9399   38.6333   85.3446 C   0  0  0  0  0  0
   22.6778   38.1412   85.2230 N   0  0  0  0  0  0
   18.9495   38.2209   82.8880 Cl  0  0  0  0  0  0
   21.8545   35.9457   87.2456 H   0  0  0  0  0  0
   20.6263   34.7285   87.6849 H   0  0  0  0  0  0
   21.3498   34.6977   86.1010 H   0  0  0  0  0  0
   18.6812   36.1224   88.0719 H   0  0  0  0  0  0
   16.8593   37.5118   87.1788 H   0  0  0  0  0  0
   16.9880   38.4056   84.8978 H   0  0  0  0  0  0
   21.0652   35.8375   83.5934 H   0  0  0  0  0  0
   22.9625   34.7684   82.3062 H   0  0  0  0  0  0
   26.6968   36.3953   83.0570 H   0  0  0  0  0  0
   27.2189   38.1489   84.3913 H   0  0  0  0  0  0
   27.4609   40.1117   85.9079 H   0  0  0  0  0  0
   23.3931   40.2354   86.6757 H   0  0  0  0  0  0
  1  2  1  0  0  0
  1 23  1  0  0  0
  1 24  1  0  0  0
  1 25  1  0  0  0
  2  7  1  0  0  0
  2  3  2  0  0  0
  3  4  1  0  0  0
  3 26  1  0  0  0
  4  5  2  0  0  0
  4 27  1  0  0  0
  5  6  1  0  0  0
  5 28  1  0  0  0
  6  7  2  0  0  0
  6 22  1  0  0  0
  7  8  1  0  0  0
  8  9  1  0  0  0
  8 29  1  0  0  0
  9 21  2  0  0  0
  9 10  1  0  0  0
 10 14  1  0  0  0
 10 11  2  0  0  0
 11 12  1  0  0  0
 11 30  1  0  0  0
 12 13  2  0  0  0
 13 14  1  0  0  0
 13 31  1  0  0  0
 14 15  1  0  0  0
 15 20  1  0  0  0
 15 16  2  0  0  0
 16 17  1  0  0  0
 16 32  1  0  0  0
 17 18  2  0  0  0
 17 33  1  0  0  0
 18 19  1  0  0  0
 19 20  2  0  0  0
 19 34  1  0  0  0
 20 21  1  0  0  0
M  END
> <s_m_entry_id>
5944

> <s_m_entry_name>
ligand_docking-pose.133

> <s_m_Source_Path>
/home/csk/Desktop/cluster/DUD-E-result/lck

> <s_m_Source_File>
ligand_docking-pose.sdf

> <i_m_Source_File_Index>
133

> <i_lp_mmshare_version>
53161

> <r_lp_tautomer_probability>
1

> <s_lp_Force_Field>
OPLS_2005

> <r_lp_Energy>
55.19738

> <b_lp_Chiralities_Consistent>
1

> <s_lp_Variant>
312607-1

> <s_i_glide_gridfile>
glide-grid_2of2

> <i_i_glide_lignum>
379

> <i_i_glide_rotatable_bonds>
2

> <r_i_docking_score>
-7.12661116133394

> <r_i_glide_ligand_efficiency>
-0.323936870969725

> <r_i_glide_ligand_efficiency_sa>
-0.907683852171378

> <r_i_glide_ligand_efficiency_ln>
-1.74200371728818

> <r_i_glide_gscore>
-7.12661116133394

> <r_i_glide_lipo>
-2.5156712359634

> <r_i_glide_hbond>
-0.0475915827714534

> <r_i_glide_metal>
0

> <r_i_glide_rewards>
-2.89406446410318

> <r_i_glide_evdw>
-34.1629104614258

> <r_i_glide_ecoul>
-2.31468176841736

> <r_i_glide_erotb>
0.386063909837992

> <r_i_glide_esite>
0

> <r_i_glide_emodel>
-50.8076026935831

> <r_i_glide_energy>
-36.4775922298431

> <r_i_glide_einternal>
1.50689280033112

> <i_i_glide_confnum>
2

> <i_i_glide_posenum>
94

> <r_i_glide_eff_state_penalty>
0

> <i_f3d_flags>
0

> <s_user_duplicate_titles>
312607

> <s_m_subgroup_title>
dock_pv

> <s_m_subgroupid>
dock_pv1

> <b_m_subgroup_collapsed>
0

$$$$
312674
                    3D
 Schrodinger Suite 2021-1.
 54 58  0  0  1  0            999 V2000
   20.9214   35.1889   86.9035 C   0  0  0  0  0  0
   19.8346   36.1560   86.4412 C   0  0  0  0  0  0
   18.6843   36.3053   87.2270 C   0  0  0  0  0  0
   17.6537   37.1455   86.8168 C   0  0  0  0  0  0
   17.7522   37.8211   85.6049 C   0  0  0  0  0  0
   18.8738   37.6631   84.7945 C   0  0  0  0  0  0
   19.9268   36.8290   85.2042 C   0  0  0  0  0  0
   21.0302   36.6211   84.3542 N   0  0  0  0  0  0
   22.3332   37.1027   84.4945 C   0  0  0  0  0  0
   23.3981   36.5115   83.7793 C   0  0  0  0  0  0
   23.6515   35.4283   82.8869 C   0  0  0  0  0  0
   24.9184   35.4125   82.5227 N   0  0  0  0  0  0
   25.5175   36.4178   83.1302 C   0  0  0  0  0  0
   24.6423   37.1493   83.9031 N   0  0  0  0  0  0
   24.8367   38.2772   84.6265 C   0  0  0  0  0  0
   23.7203   38.7883   85.3348 C   0  0  0  0  0  0
   22.5061   38.1922   85.2854 N   0  0  0  0  0  0
   23.8955   39.9648   86.0850 C   0  0  0  0  0  0
   25.1334   40.6028   86.0638 C   0  0  0  0  0  0
   26.1946   40.0698   85.3113 C   0  0  0  0  0  0
   26.0545   38.8979   84.6180 N   0  0  0  0  0  0
   27.3990   40.7663   85.1568 N   0  0  0  0  0  0
   27.6715   42.0626   85.8151 C   0  0  0  0  0  0
   28.7102   42.9472   85.0829 C   0  0  2  0  0  0
   29.9523   42.2171   84.8870 N   0  0  1  0  0  0
   29.6843   41.0333   84.0767 C   0  0  2  0  0  0
   28.6699   40.1025   84.7922 C   0  0  0  0  0  0
   30.9773   40.2877   83.7258 C   0  0  0  0  0  0
   28.9454   44.2717   85.8213 C   0  0  0  0  0  0
   18.9102   38.5100   83.2871 Cl  0  0  0  0  0  0
   28.3154   43.2138   84.0997 H   0  0  0  0  0  0
   29.2531   41.3591   83.1271 H   0  0  0  0  0  0
   21.2674   34.5571   86.0872 H   0  0  0  0  0  0
   21.7828   35.7385   87.2860 H   0  0  0  0  0  0
   20.5589   34.5108   87.6774 H   0  0  0  0  0  0
   18.5651   35.7559   88.1481 H   0  0  0  0  0  0
   16.7714   37.2643   87.4283 H   0  0  0  0  0  0
   16.9488   38.4690   85.2871 H   0  0  0  0  0  0
   20.9479   35.8038   83.7691 H   0  0  0  0  0  0
   22.9541   34.6956   82.5049 H   0  0  0  0  0  0
   26.5592   36.6858   83.0327 H   0  0  0  0  0  0
   23.0613   40.3739   86.6369 H   0  0  0  0  0  0
   25.2305   41.5172   86.6257 H   0  0  0  0  0  0
   26.7556   42.6491   85.8695 H   0  0  0  0  0  0
   28.0242   41.8610   86.8280 H   0  0  0  0  0  0
   30.5480   42.8328   84.3316 H   0  0  0  0  0  0
   29.1242   39.7284   85.7116 H   0  0  0  0  0  0
   28.4737   39.2438   84.1491 H   0  0  0  0  0  0
   30.7788   39.4342   83.0764 H   0  0  0  0  0  0
   31.6790   40.9396   83.2029 H   0  0  0  0  0  0
   31.4789   39.9140   84.6212 H   0  0  0  0  0  0
   28.0208   44.8443   85.9072 H   0  0  0  0  0  0
   29.3266   44.1042   86.8300 H   0  0  0  0  0  0
   29.6681   44.8941   85.2880 H   0  0  0  0  0  0
  1  2  1  0  0  0
  1 33  1  0  0  0
  1 34  1  0  0  0
  1 35  1  0  0  0
  2  7  1  0  0  0
  2  3  2  0  0  0
  3  4  1  0  0  0
  3 36  1  0  0  0
  4  5  2  0  0  0
  4 37  1  0  0  0
  5  6  1  0  0  0
  5 38  1  0  0  0
  6  7  2  0  0  0
  6 30  1  0  0  0
  7  8  1  0  0  0
  8  9  1  0  0  0
  8 39  1  0  0  0
  9 17  2  0  0  0
  9 10  1  0  0  0
 10 14  1  0  0  0
 10 11  2  0  0  0
 11 12  1  0  0  0
 11 40  1  0  0  0
 12 13  2  0  0  0
 13 14  1  0  0  0
 13 41  1  0  0  0
 14 15  1  0  0  0
 15 21  1  0  0  0
 15 16  2  0  0  0
 16 17  1  0  0  0
 16 18  1  0  0  0
 18 19  2  0  0  0
 18 42  1  0  0  0
 19 20  1  0  0  0
 19 43  1  0  0  0
 20 21  2  0  0  0
 20 22  1  0  0  0
 22 27  1  0  0  0
 22 23  1  0  0  0
 23 24  1  0  0  0
 23 44  1  0  0  0
 23 45  1  0  0  0
 24 31  1  0  0  0
 24 25  1  0  0  0
 24 29  1  0  0  0
 25 26  1  0  0  0
 25 46  1  0  0  0
 26 32  1  0  0  0
 26 27  1  0  0  0
 26 28  1  0  0  0
 27 47  1  0  0  0
 27 48  1  0  0  0
 28 49  1  0  0  0
 28 50  1  0  0  0
 28 51  1  0  0  0
 29 52  1  0  0  0
 29 53  1  0  0  0
 29 54  1  0  0  0
M  END
> <s_m_entry_id>
5950

> <s_m_entry_name>
ligand_docking-pose.139

> <s_m_Source_Path>
/home/csk/Desktop/cluster/DUD-E-result/lck

> <s_m_Source_File>
ligand_docking-pose.sdf

> <i_m_Source_File_Index>
139

> <i_lp_mmshare_version>
53161

> <r_lp_tautomer_probability>
1

> <s_lp_Force_Field>
OPLS_2005

> <r_lp_Energy>
81.882905

> <b_lp_Chiralities_Consistent>
1

> <s_lp_Variant>
312674-1

> <s_i_glide_gridfile>
glide-grid_2of2

> <i_i_glide_lignum>
394

> <i_i_glide_rotatable_bonds>
3

> <r_i_docking_score>
-7.10666106758656

> <r_i_glide_ligand_efficiency>
-0.236888702252885

> <r_i_glide_ligand_efficiency_sa>
-0.736068275098886

> <r_i_glide_ligand_efficiency_ln>
-1.61471082782992

> <r_i_glide_gscore>
-7.10666106758656

> <r_i_glide_lipo>
-2.15586672239763

> <r_i_glide_hbond>
-0.235881653498144

> <r_i_glide_metal>
0

> <r_i_glide_rewards>
-2.43511430050446

> <r_i_glide_evdw>
-38.8695411682129

> <r_i_glide_ecoul>
-4.4672532081604

> <r_i_glide_erotb>
0.333766648448382

> <r_i_glide_esite>
0

> <r_i_glide_emodel>
-60.4306399027659

> <r_i_glide_energy>
-43.3367943763733

> <r_i_glide_einternal>
2.94938325881958

> <i_i_glide_confnum>
11

> <i_i_glide_posenum>
102

> <r_i_glide_eff_state_penalty>
0

> <i_f3d_flags>
0

> <s_user_duplicate_titles>
312674

> <s_m_subgroup_title>
dock_pv

> <s_m_subgroupid>
dock_pv1

> <b_m_subgroup_collapsed>
0

$$$$
413849
                    3D
 Schrodinger Suite 2021-1.
 41 44  0  0  1  0            999 V2000
   21.3025   37.3381   86.7775 C   0  0  0  0  0  0
   20.0557   37.7851   86.3341 C   0  0  0  0  0  0
   19.6940   37.6571   84.9821 C   0  0  0  0  0  0
   20.6116   37.0999   84.0878 C   0  0  0  0  0  0
   21.8459   36.6257   84.5301 C   0  0  0  0  0  0
   22.1880   36.7464   85.8784 C   0  0  0  0  0  0
   22.6905   36.0016   83.6087 N   0  0  0  0  0  0
   24.0630   36.1454   83.4020 C   0  0  0  0  0  0
   24.5713   35.3536   82.4282 N   0  0  0  0  0  0
   25.8625   35.5755   82.0875 C   0  0  0  0  0  0
   26.6357   36.5622   82.6837 C   0  0  0  0  0  0
   26.0374   37.3071   83.7066 C   0  0  0  0  0  0
   24.7490   37.1024   84.0797 N   0  0  0  0  0  0
   26.6768   38.3721   84.3458 N   0  0  0  0  0  0
   27.9599   38.9123   84.1796 C   0  0  0  0  0  0
   29.0855   38.1345   83.8818 C   0  0  0  0  0  0
   30.3320   38.7102   83.6593 C   0  0  0  0  0  0
   30.5237   40.0902   83.7201 C   0  0  0  0  0  0
   29.4105   40.8628   84.0606 C   0  0  0  0  0  0
   28.1368   40.2989   84.3095 C   0  0  0  0  0  0
   27.3103   41.4234   84.6291 C   0  0  0  0  0  0
   27.9783   42.5424   84.5604 N   0  0  0  0  0  0
   29.2354   42.2203   84.2085 N   0  0  0  0  0  0
   18.3404   38.0869   84.4874 C   0  0  0  0  0  0
   18.1747   38.6207   83.3915 O   0  0  0  0  0  0
   17.3279   37.8211   85.3026 N   0  0  0  0  0  0
   29.9112   42.9549   84.0067 H   0  0  0  0  0  0
   21.5758   37.4384   87.8181 H   0  0  0  0  0  0
   19.3748   38.2323   87.0454 H   0  0  0  0  0  0
   20.3625   37.0205   83.0422 H   0  0  0  0  0  0
   23.1401   36.3748   86.2242 H   0  0  0  0  0  0
   22.2493   35.3448   82.9827 H   0  0  0  0  0  0
   26.2781   34.9826   81.2899 H   0  0  0  0  0  0
   27.6363   36.7349   82.3231 H   0  0  0  0  0  0
   26.0500   38.9306   84.9054 H   0  0  0  0  0  0
   29.0071   37.0584   83.8343 H   0  0  0  0  0  0
   31.1725   38.0695   83.4284 H   0  0  0  0  0  0
   31.4908   40.5354   83.5327 H   0  0  0  0  0  0
   26.2614   41.4272   84.8815 H   0  0  0  0  0  0
   16.3965   38.1297   85.0621 H   0  0  0  0  0  0
   17.4928   37.3747   86.1907 H   0  0  0  0  0  0
  1  6  1  0  0  0
  1  2  2  0  0  0
  1 28  1  0  0  0
  2  3  1  0  0  0
  2 29  1  0  0  0
  3  4  2  0  0  0
  3 24  1  0  0  0
  4  5  1  0  0  0
  4 30  1  0  0  0
  5  6  2  0  0  0
  5  7  1  0  0  0
  6 31  1  0  0  0
  7  8  1  0  0  0
  7 32  1  0  0  0
  8 13  1  0  0  0
  8  9  2  0  0  0
  9 10  1  0  0  0
 10 11  2  0  0  0
 10 33  1  0  0  0
 11 12  1  0  0  0
 11 34  1  0  0  0
 12 13  2  0  0  0
 12 14  1  0  0  0
 14 15  1  0  0  0
 14 35  1  0  0  0
 15 20  1  0  0  0
 15 16  2  0  0  0
 16 17  1  0  0  0
 16 36  1  0  0  0
 17 18  2  0  0  0
 17 37  1  0  0  0
 18 19  1  0  0  0
 18 38  1  0  0  0
 19 23  1  0  0  0
 19 20  2  0  0  0
 20 21  1  0  0  0
 21 22  2  0  0  0
 21 39  1  0  0  0
 22 23  1  0  0  0
 23 27  1  0  0  0
 24 25  2  0  0  0
 24 26  1  0  0  0
 26 40  1  0  0  0
 26 41  1  0  0  0
M  END
> <s_m_entry_id>
5952

> <s_m_entry_name>
ligand_docking-pose.141

> <s_m_Source_Path>
/home/csk/Desktop/cluster/DUD-E-result/lck

> <s_m_Source_File>
ligand_docking-pose.sdf

> <i_m_Source_File_Index>
141

> <i_lp_mmshare_version>
53161

> <r_lp_tautomer_probability>
0.999999624730965

> <s_lp_Force_Field>
OPLS_2005

> <r_lp_Energy>
13.011695

> <b_lp_Chiralities_Consistent>
1

> <s_lp_Variant>
413849-1

> <s_i_glide_gridfile>
glide-grid_2of2

> <i_i_glide_lignum>
76

> <i_i_glide_rotatable_bonds>
5

> <r_i_docking_score>
-7.09141108426902

> <r_i_glide_ligand_efficiency>
-0.272746580164193

> <r_i_glide_ligand_efficiency_sa>
-0.808010670530453

> <r_i_glide_ligand_efficiency_ln>
-1.66539462432292

> <r_i_glide_gscore>
-7.09141108426902

> <r_i_glide_lipo>
-2.49484530514365

> <r_i_glide_hbond>
-0.456

> <r_i_glide_metal>
0

> <r_i_glide_rewards>
-1.69004913580691

> <r_i_glide_evdw>
-39.8884315490723

> <r_i_glide_ecoul>
-6.6249623298645

> <r_i_glide_erotb>
0.637158229921291

> <r_i_glide_esite>
-0.0995089463064689

> <r_i_glide_emodel>
-63.4233798222538

> <r_i_glide_energy>
-46.5133938789368

> <r_i_glide_einternal>
8.00615882873535

> <i_i_glide_confnum>
7

> <i_i_glide_posenum>
277

> <r_i_glide_eff_state_penalty>
0

> <i_f3d_flags>
0

> <s_user_duplicate_titles>
413849

> <s_m_subgroup_title>
dock_pv

> <s_m_subgroupid>
dock_pv1

> <b_m_subgroup_collapsed>
0

$$$$
312456
                    3D
 Schrodinger Suite 2021-1.
 51 55  0  0  1  0            999 V2000
   20.9551   35.3672   86.8869 C   0  0  0  0  0  0
   19.9115   36.3303   86.3238 C   0  0  0  0  0  0
   18.7691   36.6015   87.0845 C   0  0  0  0  0  0
   17.7496   37.4021   86.5800 C   0  0  0  0  0  0
   17.8377   37.8978   85.2850 C   0  0  0  0  0  0
   18.9596   37.6295   84.5040 C   0  0  0  0  0  0
   20.0250   36.8735   85.0265 C   0  0  0  0  0  0
   21.1614   36.6217   84.2364 N   0  0  0  0  0  0
   22.4760   37.0676   84.4161 C   0  0  0  0  0  0
   23.5088   36.4470   83.6871 C   0  0  0  0  0  0
   23.6929   35.4210   82.7273 C   0  0  0  0  0  0
   24.9617   35.2855   82.4048 N   0  0  0  0  0  0
   25.6288   36.1951   83.0797 C   0  0  0  0  0  0
   24.7963   36.9571   83.8703 N   0  0  0  0  0  0
   25.0687   38.0080   84.6657 C   0  0  0  0  0  0
   23.9797   38.6209   85.3339 C   0  0  0  0  0  0
   22.7106   38.1374   85.2274 N   0  0  0  0  0  0
   24.2709   39.7445   86.1381 C   0  0  0  0  0  0
   25.5955   40.1765   86.2593 C   0  0  0  0  0  0
   26.6247   39.5095   85.5710 C   0  0  0  0  0  0
   26.3566   38.4297   84.7850 N   0  0  0  0  0  0
   27.9740   39.8520   85.7145 N   0  0  0  0  0  0
   28.4568   41.1557   86.2106 C   0  0  0  0  0  0
   28.9514   42.0668   85.0641 C   0  0  0  0  0  0
   30.0353   41.4232   84.3299 N   0  0  1  0  0  0
   29.5752   40.1538   83.7781 C   0  0  2  0  0  0
   29.0776   39.2432   84.9340 C   0  0  0  0  0  0
   30.6843   39.4677   82.9689 C   0  0  0  0  0  0
   18.9643   38.2210   82.8813 Cl  0  0  0  0  0  0
   28.7509   40.3423   83.0872 H   0  0  0  0  0  0
   21.3500   34.7256   86.0986 H   0  0  0  0  0  0
   21.7874   35.9156   87.3274 H   0  0  0  0  0  0
   20.5273   34.6819   87.6231 H   0  0  0  0  0  0
   18.6551   36.1785   88.0721 H   0  0  0  0  0  0
   16.8746   37.6148   87.1774 H   0  0  0  0  0  0
   17.0248   38.4915   84.8900 H   0  0  0  0  0  0
   21.0668   35.8341   83.6146 H   0  0  0  0  0  0
   22.9477   34.7769   82.2857 H   0  0  0  0  0  0
   26.6931   36.3708   83.0262 H   0  0  0  0  0  0
   23.4682   40.2398   86.6652 H   0  0  0  0  0  0
   25.7942   41.0147   86.9062 H   0  0  0  0  0  0
   27.6971   41.6984   86.7663 H   0  0  0  0  0  0
   29.2635   40.9850   86.9260 H   0  0  0  0  0  0
   28.1359   42.3172   84.3833 H   0  0  0  0  0  0
   29.3122   43.0193   85.4537 H   0  0  0  0  0  0
   30.3514   42.0586   83.6030 H   0  0  0  0  0  0
   29.8977   39.0206   85.6197 H   0  0  0  0  0  0
   28.7747   38.2844   84.5144 H   0  0  0  0  0  0
   30.3332   38.5369   82.5216 H   0  0  0  0  0  0
   31.0415   40.1107   82.1633 H   0  0  0  0  0  0
   31.5420   39.2258   83.5984 H   0  0  0  0  0  0
  1  2  1  0  0  0
  1 31  1  0  0  0
  1 32  1  0  0  0
  1 33  1  0  0  0
  2  7  1  0  0  0
  2  3  2  0  0  0
  3  4  1  0  0  0
  3 34  1  0  0  0
  4  5  2  0  0  0
  4 35  1  0  0  0
  5  6  1  0  0  0
  5 36  1  0  0  0
  6  7  2  0  0  0
  6 29  1  0  0  0
  7  8  1  0  0  0
  8  9  1  0  0  0
  8 37  1  0  0  0
  9 17  2  0  0  0
  9 10  1  0  0  0
 10 14  1  0  0  0
 10 11  2  0  0  0
 11 12  1  0  0  0
 11 38  1  0  0  0
 12 13  2  0  0  0
 13 14  1  0  0  0
 13 39  1  0  0  0
 14 15  1  0  0  0
 15 21  1  0  0  0
 15 16  2  0  0  0
 16 17  1  0  0  0
 16 18  1  0  0  0
 18 19  2  0  0  0
 18 40  1  0  0  0
 19 20  1  0  0  0
 19 41  1  0  0  0
 20 21  2  0  0  0
 20 22  1  0  0  0
 22 27  1  0  0  0
 22 23  1  0  0  0
 23 24  1  0  0  0
 23 42  1  0  0  0
 23 43  1  0  0  0
 24 25  1  0  0  0
 24 44  1  0  0  0
 24 45  1  0  0  0
 25 26  1  0  0  0
 25 46  1  0  0  0
 26 30  1  0  0  0
 26 27  1  0  0  0
 26 28  1  0  0  0
 27 47  1  0  0  0
 27 48  1  0  0  0
 28 49  1  0  0  0
 28 50  1  0  0  0
 28 51  1  0  0  0
M  END
> <s_m_entry_id>
5954

> <s_m_entry_name>
ligand_docking-pose.143

> <s_m_Source_Path>
/home/csk/Desktop/cluster/DUD-E-result/lck

> <s_m_Source_File>
ligand_docking-pose.sdf

> <i_m_Source_File_Index>
143

> <i_lp_mmshare_version>
53161

> <r_lp_tautomer_probability>
1

> <s_lp_Force_Field>
OPLS_2005

> <r_lp_Energy>
82.524493

> <b_lp_Chiralities_Consistent>
1

> <s_lp_Variant>
312456-1

> <s_i_glide_gridfile>
glide-grid_2of2

> <i_i_glide_lignum>
401

> <i_i_glide_rotatable_bonds>
3

> <r_i_docking_score>
-7.08428934520342

> <r_i_glide_ligand_efficiency>
-0.244285839489773

> <r_i_glide_ligand_efficiency_sa>
-0.75052349409881

> <r_i_glide_ligand_efficiency_ln>
-1.62212261797373

> <r_i_glide_gscore>
-7.08428934520342

> <r_i_glide_lipo>
-2.2930108111367

> <r_i_glide_hbond>
-0.135716884985982

> <r_i_glide_metal>
0

> <r_i_glide_rewards>
-2.52064679219139

> <r_i_glide_evdw>
-41.1260719299316

> <r_i_glide_ecoul>
-2.88926553726196

> <r_i_glide_erotb>
0.354778570196532

> <r_i_glide_esite>
0

> <r_i_glide_emodel>
-60.6662812662853

> <r_i_glide_energy>
-44.0153374671936

> <r_i_glide_einternal>
2.74205040931702

> <i_i_glide_confnum>
10

> <i_i_glide_posenum>
191

> <r_i_glide_eff_state_penalty>
0

> <i_f3d_flags>
0

> <s_user_duplicate_titles>
312456

> <s_m_subgroup_title>
dock_pv

> <s_m_subgroupid>
dock_pv1

> <b_m_subgroup_collapsed>
0

$$$$
312700
                    3D
 Schrodinger Suite 2021-1.
 34 37  0  0  1  0            999 V2000
   20.9416   35.3568   86.8866 C   0  0  0  0  0  0
   19.8946   36.3154   86.3229 C   0  0  0  0  0  0
   18.7512   36.5778   87.0849 C   0  0  0  0  0  0
   17.7259   37.3709   86.5802 C   0  0  0  0  0  0
   17.8113   37.8720   85.2864 C   0  0  0  0  0  0
   18.9370   37.6163   84.5061 C   0  0  0  0  0  0
   20.0040   36.8625   85.0261 C   0  0  0  0  0  0
   21.1391   36.6210   84.2308 N   0  0  0  0  0  0
   22.4497   37.0740   84.4094 C   0  0  0  0  0  0
   23.4924   36.4602   83.6873 C   0  0  0  0  0  0
   23.6913   35.4210   82.7437 C   0  0  0  0  0  0
   24.9642   35.3014   82.4288 N   0  0  0  0  0  0
   25.6176   36.2278   83.0972 C   0  0  0  0  0  0
   24.7737   36.9891   83.8769 N   0  0  0  0  0  0
   25.0304   38.0509   84.6687 C   0  0  0  0  0  0
   23.9253   38.6458   85.3354 C   0  0  0  0  0  0
   22.6660   38.1441   85.2222 N   0  0  0  0  0  0
   24.1808   39.7808   86.1401 C   0  0  0  0  0  0
   25.4905   40.2498   86.2601 C   0  0  0  0  0  0
   26.5132   39.5890   85.5776 C   0  0  0  0  0  0
   26.3121   38.5061   84.7842 N   0  0  0  0  0  0
   18.9500   38.2210   82.8870 Cl  0  0  0  0  0  0
   21.7628   35.9069   87.3450 H   0  0  0  0  0  0
   20.5100   34.6569   87.6059 H   0  0  0  0  0  0
   21.3501   34.7288   86.0947 H   0  0  0  0  0  0
   18.6427   36.1529   88.0724 H   0  0  0  0  0  0
   16.8492   37.5760   87.1778 H   0  0  0  0  0  0
   16.9955   38.4621   84.8924 H   0  0  0  0  0  0
   21.0493   35.8311   83.6116 H   0  0  0  0  0  0
   22.9502   34.7645   82.3106 H   0  0  0  0  0  0
   26.6801   36.4149   83.0485 H   0  0  0  0  0  0
   23.3619   40.2620   86.6547 H   0  0  0  0  0  0
   25.7093   41.1126   86.8724 H   0  0  0  0  0  0
   27.5344   39.9341   85.6578 H   0  0  0  0  0  0
  1  2  1  0  0  0
  1 23  1  0  0  0
  1 24  1  0  0  0
  1 25  1  0  0  0
  2  7  1  0  0  0
  2  3  2  0  0  0
  3  4  1  0  0  0
  3 26  1  0  0  0
  4  5  2  0  0  0
  4 27  1  0  0  0
  5  6  1  0  0  0
  5 28  1  0  0  0
  6  7  2  0  0  0
  6 22  1  0  0  0
  7  8  1  0  0  0
  8  9  1  0  0  0
  8 29  1  0  0  0
  9 17  2  0  0  0
  9 10  1  0  0  0
 10 14  1  0  0  0
 10 11  2  0  0  0
 11 12  1  0  0  0
 11 30  1  0  0  0
 12 13  2  0  0  0
 13 14  1  0  0  0
 13 31  1  0  0  0
 14 15  1  0  0  0
 15 21  1  0  0  0
 15 16  2  0  0  0
 16 17  1  0  0  0
 16 18  1  0  0  0
 18 19  2  0  0  0
 18 32  1  0  0  0
 19 20  1  0  0  0
 19 33  1  0  0  0
 20 21  2  0  0  0
 20 34  1  0  0  0
M  END
> <s_m_entry_id>
5958

> <s_m_entry_name>
ligand_docking-pose.147

> <s_m_Source_Path>
/home/csk/Desktop/cluster/DUD-E-result/lck

> <s_m_Source_File>
ligand_docking-pose.sdf

> <i_m_Source_File_Index>
147

> <i_lp_mmshare_version>
53161

> <r_lp_tautomer_probability>
1

> <s_lp_Force_Field>
OPLS_2005

> <r_lp_Energy>
56.030252

> <b_lp_Chiralities_Consistent>
1

> <s_lp_Variant>
312700-1

> <s_i_glide_gridfile>
glide-grid_2of2

> <i_i_glide_lignum>
384

> <i_i_glide_rotatable_bonds>
2

> <r_i_docking_score>
-7.06754588790322

> <r_i_glide_ligand_efficiency>
-0.321252085813783

> <r_i_glide_ligand_efficiency_sa>
-0.90016097857782

> <r_i_glide_ligand_efficiency_ln>
-1.72756601000352

> <r_i_glide_gscore>
-7.06754588790322

> <r_i_glide_lipo>
-2.16466090477163

> <r_i_glide_hbond>
-0.0560361218747758

> <r_i_glide_metal>
0

> <r_i_glide_rewards>
-3.10420515953398

> <r_i_glide_evdw>
-34.469913482666

> <r_i_glide_ecoul>
-2.70141291618347

> <r_i_glide_erotb>
0.386063909837992

> <r_i_glide_esite>
0

> <r_i_glide_emodel>
-51.6236445306964

> <r_i_glide_energy>
-37.1713263988495

> <r_i_glide_einternal>
1.39541018009186

> <i_i_glide_confnum>
2

> <i_i_glide_posenum>
387

> <r_i_glide_eff_state_penalty>
0

> <i_f3d_flags>
0

> <s_user_duplicate_titles>
312700

> <s_m_subgroup_title>
dock_pv

> <s_m_subgroupid>
dock_pv1

> <b_m_subgroup_collapsed>
0

$$$$
312714
                    3D
 Schrodinger Suite 2021-1.
 51 55  0  0  1  0            999 V2000
   20.8878   34.7130   86.9319 C   0  0  0  0  0  0
   20.1737   35.9818   86.4870 C   0  0  0  0  0  0
   18.9475   36.2730   87.0880 C   0  0  0  0  0  0
   18.2524   37.4281   86.7545 C   0  0  0  0  0  0
   18.7892   38.3089   85.8232 C   0  0  0  0  0  0
   20.0053   38.0281   85.1900 C   0  0  0  0  0  0
   20.7090   36.8449   85.5079 C   0  0  0  0  0  0
   21.8813   36.4559   84.8237 N   0  0  0  0  0  0
   23.1028   37.1101   84.6186 C   0  0  0  0  0  0
   24.0676   36.5294   83.7677 C   0  0  0  0  0  0
   24.2181   35.4226   82.8869 C   0  0  0  0  0  0
   25.4235   35.3994   82.3590 N   0  0  0  0  0  0
   26.0754   36.4429   82.8291 C   0  0  0  0  0  0
   25.2996   37.1926   83.6870 N   0  0  0  0  0  0
   25.5778   38.3358   84.3517 C   0  0  0  0  0  0
   24.5503   38.8766   85.1646 C   0  0  0  0  0  0
   23.3405   38.2702   85.2873 N   0  0  0  0  0  0
   24.8309   40.0648   85.8676 C   0  0  0  0  0  0
   26.0942   40.6447   85.7470 C   0  0  0  0  0  0
   27.0674   40.0610   84.9175 C   0  0  0  0  0  0
   26.8083   38.9138   84.2218 N   0  0  0  0  0  0
   28.3625   40.5829   84.8161 N   0  0  0  0  0  0
   28.8050   41.7709   85.5738 C   0  0  0  0  0  0
   30.3352   41.8893   85.7559 C   0  0  0  0  0  0
   31.0406   41.8208   84.4869 N   0  0  0  0  0  0
   30.6955   40.5999   83.7707 C   0  0  0  0  0  0
   29.1680   40.4309   83.5865 C   0  0  0  0  0  0
   20.4650   38.9923   84.1093 C   0  0  0  0  0  0
   21.6745   34.9426   87.6524 H   0  0  0  0  0  0
   20.1970   33.9872   87.3638 H   0  0  0  0  0  0
   21.3497   34.2216   86.0863 H   0  0  0  0  0  0
   18.5302   35.6019   87.8252 H   0  0  0  0  0  0
   17.3053   37.6538   87.2242 H   0  0  0  0  0  0
   18.2355   39.2058   85.5822 H   0  0  0  0  0  0
   21.8778   35.4930   84.5283 H   0  0  0  0  0  0
   23.4829   34.6723   82.6286 H   0  0  0  0  0  0
   27.0905   36.7172   82.5817 H   0  0  0  0  0  0
   24.0683   40.5011   86.4958 H   0  0  0  0  0  0
   26.2901   41.5524   86.2953 H   0  0  0  0  0  0
   28.4500   42.6646   85.0578 H   0  0  0  0  0  0
   28.3676   41.7699   86.5713 H   0  0  0  0  0  0
   30.6879   41.0933   86.4144 H   0  0  0  0  0  0
   30.5700   42.8403   86.2349 H   0  0  0  0  0  0
   30.9501   42.6777   83.9288 H   0  0  0  0  0  0
   31.0933   39.7399   84.3114 H   0  0  0  0  0  0
   31.1759   40.6228   82.7925 H   0  0  0  0  0  0
   28.9866   39.4659   83.1130 H   0  0  0  0  0  0
   28.8357   41.1966   82.8855 H   0  0  0  0  0  0
   21.1584   39.7299   84.5140 H   0  0  0  0  0  0
   20.9485   38.4659   83.2872 H   0  0  0  0  0  0
   19.6052   39.5099   83.6883 H   0  0  0  0  0  0
  1  2  1  0  0  0
  1 29  1  0  0  0
  1 30  1  0  0  0
  1 31  1  0  0  0
  2  7  1  0  0  0
  2  3  2  0  0  0
  3  4  1  0  0  0
  3 32  1  0  0  0
  4  5  2  0  0  0
  4 33  1  0  0  0
  5  6  1  0  0  0
  5 34  1  0  0  0
  6  7  2  0  0  0
  6 28  1  0  0  0
  7  8  1  0  0  0
  8  9  1  0  0  0
  8 35  1  0  0  0
  9 17  2  0  0  0
  9 10  1  0  0  0
 10 14  1  0  0  0
 10 11  2  0  0  0
 11 12  1  0  0  0
 11 36  1  0  0  0
 12 13  2  0  0  0
 13 14  1  0  0  0
 13 37  1  0  0  0
 14 15  1  0  0  0
 15 21  1  0  0  0
 15 16  2  0  0  0
 16 17  1  0  0  0
 16 18  1  0  0  0
 18 19  2  0  0  0
 18 38  1  0  0  0
 19 20  1  0  0  0
 19 39  1  0  0  0
 20 21  2  0  0  0
 20 22  1  0  0  0
 22 27  1  0  0  0
 22 23  1  0  0  0
 23 24  1  0  0  0
 23 40  1  0  0  0
 23 41  1  0  0  0
 24 25  1  0  0  0
 24 42  1  0  0  0
 24 43  1  0  0  0
 25 26  1  0  0  0
 25 44  1  0  0  0
 26 27  1  0  0  0
 26 45  1  0  0  0
 26 46  1  0  0  0
 27 47  1  0  0  0
 27 48  1  0  0  0
 28 49  1  0  0  0
 28 50  1  0  0  0
 28 51  1  0  0  0
M  END
> <s_m_entry_id>
5963

> <s_m_entry_name>
ligand_docking-pose.152

> <s_m_Source_Path>
/home/csk/Desktop/cluster/DUD-E-result/lck

> <s_m_Source_File>
ligand_docking-pose.sdf

> <i_m_Source_File_Index>
152

> <i_lp_mmshare_version>
53161

> <r_lp_tautomer_probability>
1

> <s_lp_Force_Field>
OPLS_2005

> <r_lp_Energy>
82.024324

> <b_lp_Chiralities_Consistent>
1

> <s_lp_Variant>
312714-1

> <s_i_glide_gridfile>
glide-grid_2of2

> <i_i_glide_lignum>
396

> <i_i_glide_rotatable_bonds>
3

> <r_i_docking_score>
-7.05855223009722

> <r_i_glide_ligand_efficiency>
-0.252091151074901

> <r_i_glide_ligand_efficiency_sa>
-0.765497208411221

> <r_i_glide_ligand_efficiency_ln>
-1.62932110280541

> <r_i_glide_gscore>
-7.05855223009722

> <r_i_glide_lipo>
-2.11238692182676

> <r_i_glide_hbond>
-0.224429996030462

> <r_i_glide_metal>
0

> <r_i_glide_rewards>
-2.73354624923386

> <r_i_glide_evdw>
-38.8140754699707

> <r_i_glide_ecoul>
-3.08785057067871

> <r_i_glide_erotb>
0.415692296094206

> <r_i_glide_esite>
0

> <r_i_glide_emodel>
-57.9218473165964

> <r_i_glide_energy>
-41.9019260406494

> <r_i_glide_einternal>
2.28601455688477

> <i_i_glide_confnum>
84

> <i_i_glide_posenum>
230

> <r_i_glide_eff_state_penalty>
0

> <i_f3d_flags>
0

> <s_user_duplicate_titles>
312714

> <s_m_subgroup_title>
dock_pv

> <s_m_subgroupid>
dock_pv1

> <b_m_subgroup_collapsed>
0

$$$$
413819
                    3D
 Schrodinger Suite 2021-1.
 39 41  0  0  1  0            999 V2000
   27.6140   39.7586   86.3804 C   0  0  0  0  0  0
   28.6399   40.4521   85.7430 C   0  0  0  0  0  0
   29.0061   40.1342   84.4258 C   0  0  0  0  0  0
   28.3107   39.1120   83.7630 C   0  0  0  0  0  0
   27.2679   38.4228   84.3861 C   0  0  0  0  0  0
   26.9357   38.7464   85.7067 C   0  0  0  0  0  0
   26.5993   37.4206   83.6621 N   0  0  0  0  0  0
   25.2685   36.9861   83.7170 C   0  0  0  0  0  0
   24.9490   35.9355   82.9146 N   0  0  0  0  0  0
   23.6385   35.5712   82.8869 C   0  0  0  0  0  0
   22.6683   36.2138   83.6622 C   0  0  0  0  0  0
   23.0961   37.2632   84.4785 C   0  0  0  0  0  0
   24.3872   37.6652   84.4984 N   0  0  0  0  0  0
   22.2140   37.9875   85.2780 N   0  0  0  0  0  0
   20.8639   37.7249   85.5264 C   0  0  0  0  0  0
   19.8973   38.4926   84.8735 C   0  0  0  0  0  0
   18.5470   38.3078   85.1599 C   0  0  0  0  0  0
   18.1613   37.3967   86.1391 C   0  0  0  0  0  0
   19.1205   36.5992   86.7653 C   0  0  0  0  0  0
   20.4727   36.7396   86.4449 C   0  0  0  0  0  0
   21.7499   35.5534   87.2340 Br  0  0  0  0  0  0
   17.5952   39.0210   84.4871 O   0  0  0  0  0  0
   30.0969   40.8899   83.7083 C   0  0  0  0  0  0
   30.0921   41.0206   82.4871 O   0  0  0  0  0  0
   31.0615   41.4211   84.4575 N   0  0  0  0  0  0
   27.3457   40.0043   87.3974 H   0  0  0  0  0  0
   29.1410   41.2398   86.2876 H   0  0  0  0  0  0
   28.5766   38.8583   82.7487 H   0  0  0  0  0  0
   26.1514   38.2188   86.2245 H   0  0  0  0  0  0
   27.1622   36.9230   82.9892 H   0  0  0  0  0  0
   23.3710   34.7485   82.2383 H   0  0  0  0  0  0
   21.6348   35.9007   83.6292 H   0  0  0  0  0  0
   22.6431   38.7018   85.8468 H   0  0  0  0  0  0
   20.1930   39.2330   84.1456 H   0  0  0  0  0  0
   17.1153   37.2658   86.3779 H   0  0  0  0  0  0
   18.8121   35.8504   87.4808 H   0  0  0  0  0  0
   16.8426   39.2080   85.0692 H   0  0  0  0  0  0
   31.7435   42.0158   84.0094 H   0  0  0  0  0  0
   31.0920   41.2609   85.4515 H   0  0  0  0  0  0
  1  6  1  0  0  0
  1  2  2  0  0  0
  1 26  1  0  0  0
  2  3  1  0  0  0
  2 27  1  0  0  0
  3  4  2  0  0  0
  3 23  1  0  0  0
  4  5  1  0  0  0
  4 28  1  0  0  0
  5  6  2  0  0  0
  5  7  1  0  0  0
  6 29  1  0  0  0
  7  8  1  0  0  0
  7 30  1  0  0  0
  8 13  1  0  0  0
  8  9  2  0  0  0
  9 10  1  0  0  0
 10 11  2  0  0  0
 10 31  1  0  0  0
 11 12  1  0  0  0
 11 32  1  0  0  0
 12 13  2  0  0  0
 12 14  1  0  0  0
 14 15  1  0  0  0
 14 33  1  0  0  0
 15 20  1  0  0  0
 15 16  2  0  0  0
 16 17  1  0  0  0
 16 34  1  0  0  0
 17 18  2  0  0  0
 17 22  1  0  0  0
 18 19  1  0  0  0
 18 35  1  0  0  0
 19 20  2  0  0  0
 19 36  1  0  0  0
 20 21  1  0  0  0
 22 37  1  0  0  0
 23 24  2  0  0  0
 23 25  1  0  0  0
 25 38  1  0  0  0
 25 39  1  0  0  0
M  END
> <s_m_entry_id>
5964

> <s_m_entry_name>
ligand_docking-pose.153

> <s_m_Source_Path>
/home/csk/Desktop/cluster/DUD-E-result/lck

> <s_m_Source_File>
ligand_docking-pose.sdf

> <i_m_Source_File_Index>
153

> <i_lp_mmshare_version>
53161

> <r_lp_tautomer_probability>
0.999999624730965

> <s_lp_Force_Field>
OPLS_2005

> <r_lp_Energy>
6.926149

> <b_lp_Chiralities_Consistent>
1

> <s_lp_Variant>
413819-1

> <s_i_glide_gridfile>
glide-grid_2of2

> <i_i_glide_lignum>
80

> <i_i_glide_rotatable_bonds>
6

> <r_i_docking_score>
-7.05207425056553

> <r_i_glide_ligand_efficiency>
-0.282082970022621

> <r_i_glide_ligand_efficiency_sa>
-0.824815607108919

> <r_i_glide_ligand_efficiency_ln>
-1.67155293099574

> <r_i_glide_gscore>
-7.05207425056553

> <r_i_glide_lipo>
-2.44482560538651

> <r_i_glide_hbond>
-0.703389300939879

> <r_i_glide_metal>
0

> <r_i_glide_rewards>
-1.08988639436867

> <r_i_glide_evdw>
-38.4358329772949

> <r_i_glide_ecoul>
-8.65599727630615

> <r_i_glide_erotb>
0.489494654025884

> <r_i_glide_esite>
-0.0832763635856805

> <r_i_glide_emodel>
-62.6626937747493

> <r_i_glide_energy>
-47.0918302536011

> <r_i_glide_einternal>
10.9012393951416

> <i_i_glide_confnum>
22

> <i_i_glide_posenum>
379

> <r_i_glide_eff_state_penalty>
0

> <i_f3d_flags>
0

> <s_user_duplicate_titles>
413819

> <s_m_subgroup_title>
dock_pv

> <s_m_subgroupid>
dock_pv1

> <b_m_subgroup_collapsed>
0

$$$$
312508
                    3D
 Schrodinger Suite 2021-1.
 48 52  0  0  1  0            999 V2000
   19.7380   38.5201   83.8227 C   0  0  0  0  0  0
   19.3749   37.7159   85.0650 C   0  0  0  0  0  0
   18.1493   37.9739   85.6822 C   0  0  0  0  0  0
   17.7442   37.2440   86.7970 C   0  0  0  0  0  0
   18.5500   36.2209   87.2868 C   0  0  0  0  0  0
   19.7713   35.9377   86.6723 C   0  0  0  0  0  0
   20.2091   36.7020   85.5773 C   0  0  0  0  0  0
   21.4849   36.4625   85.0401 N   0  0  0  0  0  0
   22.6116   37.2875   85.0328 C   0  0  0  0  0  0
   22.6671   38.5205   85.7225 C   0  0  0  0  0  0
   21.8612   39.3498   86.5494 C   0  0  0  0  0  0
   22.5033   40.4422   86.9017 N   0  0  0  0  0  0
   23.7015   40.3758   86.3608 C   0  0  0  0  0  0
   23.8749   39.2197   85.6314 N   0  0  0  0  0  0
   24.9519   38.7642   84.9556 C   0  0  0  0  0  0
   24.8312   37.5104   84.3030 C   0  0  0  0  0  0
   23.6752   36.7937   84.3449 N   0  0  0  0  0  0
   25.9663   37.0223   83.6177 C   0  0  0  0  0  0
   27.1458   37.7708   83.6320 C   0  0  0  0  0  0
   27.1843   38.9983   84.3068 C   0  0  0  0  0  0
   26.0995   39.4995   84.9574 N   0  0  0  0  0  0
   28.3566   39.7653   84.3790 N   0  0  0  0  0  0
   28.4738   41.1200   84.9296 C   0  0  0  0  0  0
   29.9423   41.5510   84.8845 C   0  0  2  0  0  0
   30.4665   40.7484   83.6945 C   0  0  1  0  0  0
   29.6540   39.4496   83.7764 C   0  0  0  0  0  0
   30.2872   41.4210   82.4594 O   0  0  0  0  0  0
   30.6454   41.2870   86.0871 O   0  0  0  0  0  0
   20.7160   34.6209   87.2866 Cl  0  0  0  0  0  0
   29.9990   42.6212   84.6784 H   0  0  0  0  0  0
   31.5256   40.5152   83.8202 H   0  0  0  0  0  0
   20.3216   37.9240   83.1200 H   0  0  0  0  0  0
   18.8408   38.8281   83.2854 H   0  0  0  0  0  0
   20.3114   39.4091   84.0873 H   0  0  0  0  0  0
   17.4961   38.7446   85.2964 H   0  0  0  0  0  0
   16.7934   37.4611   87.2629 H   0  0  0  0  0  0
   18.2187   35.6324   88.1299 H   0  0  0  0  0  0
   21.6131   35.5649   84.5972 H   0  0  0  0  0  0
   20.8485   39.1789   86.8835 H   0  0  0  0  0  0
   24.4834   41.1142   86.4579 H   0  0  0  0  0  0
   25.9128   36.0703   83.1099 H   0  0  0  0  0  0
   28.0193   37.3864   83.1276 H   0  0  0  0  0  0
   27.8843   41.7777   84.2885 H   0  0  0  0  0  0
   28.0561   41.2124   85.9333 H   0  0  0  0  0  0
   30.1684   38.7439   84.4307 H   0  0  0  0  0  0
   29.5760   39.0119   82.7815 H   0  0  0  0  0  0
   30.5500   42.3532   82.5713 H   0  0  0  0  0  0
   30.5475   40.3582   86.3229 H   0  0  0  0  0  0
  1  2  1  0  0  0
  1 32  1  0  0  0
  1 33  1  0  0  0
  1 34  1  0  0  0
  2  7  1  0  0  0
  2  3  2  0  0  0
  3  4  1  0  0  0
  3 35  1  0  0  0
  4  5  2  0  0  0
  4 36  1  0  0  0
  5  6  1  0  0  0
  5 37  1  0  0  0
  6  7  2  0  0  0
  6 29  1  0  0  0
  7  8  1  0  0  0
  8  9  1  0  0  0
  8 38  1  0  0  0
  9 17  2  0  0  0
  9 10  1  0  0  0
 10 14  1  0  0  0
 10 11  2  0  0  0
 11 12  1  0  0  0
 11 39  1  0  0  0
 12 13  2  0  0  0
 13 14  1  0  0  0
 13 40  1  0  0  0
 14 15  1  0  0  0
 15 21  1  0  0  0
 15 16  2  0  0  0
 16 17  1  0  0  0
 16 18  1  0  0  0
 18 19  2  0  0  0
 18 41  1  0  0  0
 19 20  1  0  0  0
 19 42  1  0  0  0
 20 21  2  0  0  0
 20 22  1  0  0  0
 22 26  1  0  0  0
 22 23  1  0  0  0
 23 24  1  0  0  0
 23 43  1  0  0  0
 23 44  1  0  0  0
 24 30  1  0  0  0
 24 25  1  0  0  0
 24 28  1  0  0  0
 25 31  1  0  0  0
 25 26  1  0  0  0
 25 27  1  0  0  0
 26 45  1  0  0  0
 26 46  1  0  0  0
 27 47  1  0  0  0
 28 48  1  0  0  0
M  END
> <s_m_entry_id>
5965

> <s_m_entry_name>
ligand_docking-pose.154

> <s_m_Source_Path>
/home/csk/Desktop/cluster/DUD-E-result/lck

> <s_m_Source_File>
ligand_docking-pose.sdf

> <i_m_Source_File_Index>
154

> <i_lp_mmshare_version>
53161

> <r_lp_tautomer_probability>
1

> <s_lp_Force_Field>
OPLS_2005

> <r_lp_Energy>
84.168002

> <b_lp_Chiralities_Consistent>
1

> <s_lp_Variant>
312508-1

> <s_i_glide_gridfile>
glide-grid_2of2

> <i_i_glide_lignum>
393

> <i_i_glide_rotatable_bonds>
5

> <r_i_docking_score>
-7.04839291435696

> <r_i_glide_ligand_efficiency>
-0.24304803152955

> <r_i_glide_ligand_efficiency_sa>
-0.746720555879919

> <r_i_glide_ligand_efficiency_ln>
-1.61390324556484

> <r_i_glide_gscore>
-7.04839291435696

> <r_i_glide_lipo>
-2.47289821229539

> <r_i_glide_hbond>
-0.583011428621149

> <r_i_glide_metal>
0

> <r_i_glide_rewards>
-1.19962254466438

> <r_i_glide_evdw>
-39.065357208252

> <r_i_glide_ecoul>
-7.93185567855835

> <r_i_glide_erotb>
0.350185483420305

> <r_i_glide_esite>
0

> <r_i_glide_emodel>
-65.0551600031009

> <r_i_glide_energy>
-46.9972128868103

> <r_i_glide_einternal>
6.39669799804688

> <i_i_glide_confnum>
21

> <i_i_glide_posenum>
254

> <r_i_glide_eff_state_penalty>
0

> <i_f3d_flags>
0

> <s_user_duplicate_titles>
312508

> <s_m_subgroup_title>
dock_pv

> <s_m_subgroupid>
dock_pv1

> <b_m_subgroup_collapsed>
0

$$$$
167574
                    3D
 Schrodinger Suite 2021-1.
 32 33  0  0  1  0            999 V2000
   24.6472   35.4210   82.8182 C   0  0  0  0  0  0
   25.9450   35.3790   82.3274 C   0  0  0  0  0  0
   26.8687   36.3633   82.6636 C   0  0  0  0  0  0
   26.4961   37.4253   83.5159 C   0  0  0  0  0  0
   25.1825   37.4336   84.0243 C   0  0  0  0  0  0
   24.2574   36.4364   83.6870 C   0  0  0  0  0  0
   22.8723   36.4351   84.1933 C   0  0  0  0  0  0
   22.1336   37.5215   84.4890 C   0  0  0  0  0  0
   20.7798   37.4705   85.0630 C   0  0  0  0  0  0
   20.4829   36.6235   86.1375 C   0  0  0  0  0  0
   19.2045   36.6125   86.6941 C   0  0  0  0  0  0
   18.1999   37.4210   86.1661 C   0  0  0  0  0  0
   18.4760   38.2445   85.0630 C   0  0  0  0  0  0
   19.7667   38.2742   84.5288 C   0  0  0  0  0  0
   17.4994   39.0209   84.4870 O   0  0  0  0  0  0
   16.9591   37.3858   86.7503 O   0  0  0  0  0  0
   27.4559   38.5422   83.8830 C   0  0  0  0  0  0
   28.5868   38.6531   83.4204 O   0  0  0  0  0  0
   26.9721   39.4470   84.7778 O   0  0  0  0  0  0
   28.1255   36.2209   82.1334 O   0  0  0  0  0  0
   23.9471   34.6517   82.5228 H   0  0  0  0  0  0
   26.2492   34.5674   81.6869 H   0  0  0  0  0  0
   24.8587   38.2225   84.6875 H   0  0  0  0  0  0
   22.4283   35.4613   84.3513 H   0  0  0  0  0  0
   22.5463   38.5080   84.3288 H   0  0  0  0  0  0
   21.2454   35.9834   86.5570 H   0  0  0  0  0  0
   18.9886   35.9629   87.5317 H   0  0  0  0  0  0
   19.9736   38.9154   83.6871 H   0  0  0  0  0  0
   16.8790   39.3824   85.1373 H   0  0  0  0  0  0
   16.4573   38.2006   86.6366 H   0  0  0  0  0  0
   27.6480   40.1031   84.9512 H   0  0  0  0  0  0
   28.1507   35.5897   81.4059 H   0  0  0  0  0  0
  1  6  1  0  0  0
  1  2  2  0  0  0
  1 21  1  0  0  0
  2  3  1  0  0  0
  2 22  1  0  0  0
  3  4  2  0  0  0
  3 20  1  0  0  0
  4  5  1  0  0  0
  4 17  1  0  0  0
  5  6  2  0  0  0
  5 23  1  0  0  0
  6  7  1  0  0  0
  7  8  2  0  0  0
  7 24  1  0  0  0
  8  9  1  0  0  0
  8 25  1  0  0  0
  9 14  1  0  0  0
  9 10  2  0  0  0
 10 11  1  0  0  0
 10 26  1  0  0  0
 11 12  2  0  0  0
 11 27  1  0  0  0
 12 13  1  0  0  0
 12 16  1  0  0  0
 13 14  2  0  0  0
 13 15  1  0  0  0
 14 28  1  0  0  0
 15 29  1  0  0  0
 16 30  1  0  0  0
 17 18  2  0  0  0
 17 19  1  0  0  0
 19 31  1  0  0  0
 20 32  1  0  0  0
M  END
> <s_m_entry_id>
5968

> <s_m_entry_name>
ligand_docking-pose.157

> <s_m_Source_Path>
/home/csk/Desktop/cluster/DUD-E-result/lck

> <s_m_Source_File>
ligand_docking-pose.sdf

> <i_m_Source_File_Index>
157

> <i_lp_mmshare_version>
53161

> <r_lp_tautomer_probability>
1

> <s_lp_Force_Field>
OPLS_2005

> <r_lp_Energy>
17.457681

> <b_lp_Chiralities_Consistent>
1

> <s_lp_Variant>
167574-1

> <s_i_glide_gridfile>
glide-grid_2of2

> <i_i_glide_lignum>
46

> <i_i_glide_rotatable_bonds>
7

> <r_i_docking_score>
-7.02948537531443

> <r_i_glide_ligand_efficiency>
-0.351474268765722

> <r_i_glide_ligand_efficiency_sa>
-0.954047945964797

> <r_i_glide_ligand_efficiency_ln>
-1.75924834149663

> <r_i_glide_gscore>
-7.02948537531443

> <r_i_glide_lipo>
-3.11868105763286

> <r_i_glide_hbond>
0

> <r_i_glide_metal>
0

> <r_i_glide_rewards>
-1.82208409917947

> <r_i_glide_evdw>
-32.0304794311523

> <r_i_glide_ecoul>
-8.08285617828369

> <r_i_glide_erotb>
0.725232179798066

> <r_i_glide_esite>
0

> <r_i_glide_emodel>
-52.053980912544

> <r_i_glide_energy>
-40.113335609436

> <r_i_glide_einternal>
13.6205043792725

> <i_i_glide_confnum>
7

> <i_i_glide_posenum>
306

> <r_i_glide_eff_state_penalty>
0

> <i_f3d_flags>
0

> <s_user_duplicate_titles>
167574

> <s_m_subgroup_title>
dock_pv

> <s_m_subgroupid>
dock_pv1

> <b_m_subgroup_collapsed>
0

$$$$
277022
                    3D
 Schrodinger Suite 2021-1.
 22 22  0  0  1  0            999 V2000
   25.7164   37.7345   84.1079 C   0  0  0  0  0  0
   25.0428   38.5864   84.9934 C   0  0  0  0  0  0
   23.6987   38.3263   85.2871 C   0  0  0  0  0  0
   23.0415   37.2264   84.7324 C   0  0  0  0  0  0
   23.7255   36.3850   83.8480 C   0  0  0  0  0  0
   25.0682   36.6398   83.5164 C   0  0  0  0  0  0
   25.7929   35.7695   82.5173 C   0  0  0  0  0  0
   25.3222   34.7205   82.0915 O   0  0  0  0  0  0
   26.9928   36.2506   82.0874 O   0  0  0  0  0  0
   21.3003   36.9723   85.1021 S   0  0  0  0  0  0
   20.9215   37.8622   86.2062 O   0  0  0  0  0  0
   20.5745   36.9637   83.8293 O   0  0  0  0  0  0
   21.3500   35.4210   85.6856 O   0  0  0  0  0  0
   25.7457   39.7515   85.6462 C   0  0  0  0  0  0
   25.2308   40.4134   86.5438 O   0  0  0  0  0  0
   26.9947   40.0149   85.1725 O   0  0  0  0  0  0
   26.7545   37.9307   83.8703 H   0  0  0  0  0  0
   23.1580   38.9802   85.9593 H   0  0  0  0  0  0
   23.1951   35.5605   83.3903 H   0  0  0  0  0  0
   27.3496   35.6978   81.3828 H   0  0  0  0  0  0
   20.7418   34.8469   85.1578 H   0  0  0  0  0  0
   27.3648   40.7645   85.6420 H   0  0  0  0  0  0
  1  6  1  0  0  0
  1  2  2  0  0  0
  1 17  1  0  0  0
  2  3  1  0  0  0
  2 14  1  0  0  0
  3  4  2  0  0  0
  3 18  1  0  0  0
  4  5  1  0  0  0
  4 10  1  0  0  0
  5  6  2  0  0  0
  5 19  1  0  0  0
  6  7  1  0  0  0
  7  8  2  0  0  0
  7  9  1  0  0  0
  9 20  1  0  0  0
 10 11  2  0  0  0
 10 12  2  0  0  0
 10 13  1  0  0  0
 13 21  1  0  0  0
 14 15  2  0  0  0
 14 16  1  0  0  0
 16 22  1  0  0  0
M  END
> <s_m_entry_id>
5972

> <s_m_entry_name>
ligand_docking-pose.161

> <s_m_Source_Path>
/home/csk/Desktop/cluster/DUD-E-result/lck

> <s_m_Source_File>
ligand_docking-pose.sdf

> <i_m_Source_File_Index>
161

> <i_lp_mmshare_version>
53161

> <r_lp_tautomer_probability>
1

> <s_lp_Force_Field>
OPLS_2005

> <r_lp_Energy>
9.165807

> <b_lp_Chiralities_Consistent>
1

> <s_lp_Variant>
277022-1

> <s_i_glide_gridfile>
glide-grid_2of2

> <i_i_glide_lignum>
67

> <i_i_glide_rotatable_bonds>
6

> <r_i_docking_score>
-7.01533815914962

> <r_i_glide_ligand_efficiency>
-0.438458634946851

> <r_i_glide_ligand_efficiency_sa>
-1.10484652633432

> <r_i_glide_ligand_efficiency_ln>
-1.85955551364333

> <r_i_glide_gscore>
-7.01533815914962

> <r_i_glide_lipo>
-1.24462229080675

> <r_i_glide_hbond>
-0.288

> <r_i_glide_metal>
0

> <r_i_glide_rewards>
-3.0610004881414

> <r_i_glide_evdw>
-22.8635654449463

> <r_i_glide_ecoul>
-14.2726287841797

> <r_i_glide_erotb>
0.862357209672795

> <r_i_glide_esite>
0

> <r_i_glide_emodel>
-52.3559621693425

> <r_i_glide_energy>
-37.136194229126

> <r_i_glide_einternal>
1.94885969161987

> <i_i_glide_confnum>
7

> <i_i_glide_posenum>
288

> <r_i_glide_eff_state_penalty>
0

> <i_f3d_flags>
0

> <s_user_duplicate_titles>
277022

> <s_m_subgroup_title>
dock_pv

> <s_m_subgroupid>
dock_pv1

> <b_m_subgroup_collapsed>
0

$$$$
68863
                    3D
 Schrodinger Suite 2021-1.
 49 53  0  0  1  0            999 V2000
   31.2433   35.8583   82.0994 C   0  0  0  0  0  0
   31.8897   36.9248   82.7201 C   0  0  0  0  0  0
   31.1377   37.9407   83.3072 C   0  0  0  0  0  0
   29.7420   37.9022   83.2803 C   0  0  0  0  0  0
   29.1060   36.8138   82.6578 C   0  0  0  0  0  0
   29.8537   35.7953   82.0744 C   0  0  0  0  0  0
   29.0919   39.0134   83.7958 O   0  0  0  0  0  0
   27.7533   39.0722   84.1371 C   0  0  0  0  0  0
   27.1274   40.3194   84.0928 C   0  0  0  0  0  0
   25.7961   40.4575   84.4874 C   0  0  0  0  0  0
   25.0725   39.3388   84.9089 C   0  0  0  0  0  0
   25.6925   38.0918   84.9484 C   0  0  0  0  0  0
   27.0308   37.9719   84.6014 C   0  0  0  0  0  0
   23.6583   39.4450   85.3603 C   0  0  0  0  0  0
   22.6146   38.6253   84.9677 C   0  0  0  0  0  0
   21.4135   39.0193   85.5234 N   0  0  0  0  0  0
   21.6811   40.0864   86.3735 C   0  0  0  0  0  0
   23.0771   40.3756   86.2942 C   0  0  0  0  0  0
   23.5142   41.4315   87.1200 C   0  0  0  0  0  0
   22.6518   42.1374   87.8881 N   0  0  0  0  0  0
   21.3484   41.7728   87.8422 C   0  0  0  0  0  0
   20.7999   40.7483   87.1407 N   0  0  0  0  0  0
   24.8529   41.7922   87.2084 N   0  0  0  0  0  0
   20.1079   38.3742   85.2947 C   0  0  2  0  0  0
   19.9908   37.5474   84.0132 C   0  0  0  0  0  0
   18.4926   37.5644   83.7248 C   0  0  0  0  0  0
   17.9984   38.8584   84.1665 N   0  0  2  0  0  0
   18.9623   39.3818   85.1283 C   0  0  0  0  0  0
   31.8203   35.0730   81.6314 H   0  0  0  0  0  0
   32.9689   36.9671   82.7385 H   0  0  0  0  0  0
   31.6394   38.7778   83.7702 H   0  0  0  0  0  0
   28.0332   36.7699   82.5595 H   0  0  0  0  0  0
   29.3602   34.9716   81.5776 H   0  0  0  0  0  0
   27.6835   41.1853   83.7650 H   0  0  0  0  0  0
   25.3234   41.4288   84.4472 H   0  0  0  0  0  0
   25.1513   37.2208   85.2873 H   0  0  0  0  0  0
   27.5131   37.0211   84.7063 H   0  0  0  0  0  0
   22.6374   37.7843   84.2900 H   0  0  0  0  0  0
   20.6652   42.3763   88.4234 H   0  0  0  0  0  0
   25.5382   41.2880   86.6649 H   0  0  0  0  0  0
   25.1051   42.5619   87.8091 H   0  0  0  0  0  0
   19.9228   37.7692   86.1840 H   0  0  0  0  0  0
   20.5109   38.0011   83.1673 H   0  0  0  0  0  0
   20.3666   36.5306   84.1337 H   0  0  0  0  0  0
   18.2878   37.4542   82.6593 H   0  0  0  0  0  0
   17.9803   36.7562   84.2453 H   0  0  0  0  0  0
   17.0991   38.7614   84.6298 H   0  0  0  0  0  0
   18.4940   39.6324   86.0820 H   0  0  0  0  0  0
   19.3499   40.3146   84.7170 H   0  0  0  0  0  0
  1  6  1  0  0  0
  1  2  2  0  0  0
  1 29  1  0  0  0
  2  3  1  0  0  0
  2 30  1  0  0  0
  3  4  2  0  0  0
  3 31  1  0  0  0
  4  5  1  0  0  0
  4  7  1  0  0  0
  5  6  2  0  0  0
  5 32  1  0  0  0
  6 33  1  0  0  0
  7  8  1  0  0  0
  8 13  1  0  0  0
  8  9  2  0  0  0
  9 10  1  0  0  0
  9 34  1  0  0  0
 10 11  2  0  0  0
 10 35  1  0  0  0
 11 12  1  0  0  0
 11 14  1  0  0  0
 12 13  2  0  0  0
 12 36  1  0  0  0
 13 37  1  0  0  0
 14 18  1  0  0  0
 14 15  2  0  0  0
 15 16  1  0  0  0
 15 38  1  0  0  0
 16 17  1  0  0  0
 16 24  1  0  0  0
 17 22  1  0  0  0
 17 18  2  0  0  0
 18 19  1  0  0  0
 19 20  2  0  0  0
 19 23  1  0  0  0
 20 21  1  0  0  0
 21 22  2  0  0  0
 21 39  1  0  0  0
 23 40  1  0  0  0
 23 41  1  0  0  0
 24 28  1  0  0  0
 24 25  1  0  0  0
 24 42  1  0  0  0
 25 26  1  0  0  0
 25 43  1  0  0  0
 25 44  1  0  0  0
 26 27  1  0  0  0
 26 45  1  0  0  0
 26 46  1  0  0  0
 27 28  1  0  0  0
 27 47  1  0  0  0
 28 48  1  0  0  0
 28 49  1  0  0  0
M  END
> <s_m_entry_id>
5974

> <s_m_entry_name>
ligand_docking-pose.163

> <s_m_Source_Path>
/home/csk/Desktop/cluster/DUD-E-result/lck

> <s_m_Source_File>
ligand_docking-pose.sdf

> <i_m_Source_File_Index>
163

> <i_lp_mmshare_version>
53161

> <r_lp_tautomer_probability>
1

> <s_lp_Force_Field>
OPLS_2005

> <r_lp_Energy>
42.309457

> <b_lp_Chiralities_Consistent>
1

> <s_lp_Variant>
68863-1

> <s_i_glide_gridfile>
glide-grid_2of2

> <i_i_glide_lignum>
123

> <i_i_glide_rotatable_bonds>
4

> <r_i_docking_score>
-7.01139423113732

> <r_i_glide_ligand_efficiency>
-0.250406936826333

> <r_i_glide_ligand_efficiency_sa>
-0.760382942003424

> <r_i_glide_ligand_efficiency_ln>
-1.61843565202645

> <r_i_glide_gscore>
-7.01139423113732

> <r_i_glide_lipo>
-2.74353953948239

> <r_i_glide_hbond>
-0.32

> <r_i_glide_metal>
0

> <r_i_glide_rewards>
-1.87654562987149

> <r_i_glide_evdw>
-35.5264930725098

> <r_i_glide_ecoul>
-5.31910419464111

> <r_i_glide_erotb>
0.559656233749462

> <r_i_glide_esite>
-0.0567750127112405

> <r_i_glide_emodel>
-52.555179111942

> <r_i_glide_energy>
-40.8455972671509

> <r_i_glide_einternal>
11.201150894165

> <i_i_glide_confnum>
70

> <i_i_glide_posenum>
90

> <r_i_glide_eff_state_penalty>
0

> <i_f3d_flags>
0

> <s_user_duplicate_titles>
68863

> <s_m_subgroup_title>
dock_pv

> <s_m_subgroupid>
dock_pv1

> <b_m_subgroup_collapsed>
0

$$$$
312767
                    3D
 Schrodinger Suite 2021-1.
 37 40  0  0  1  0            999 V2000
   20.9267   34.7243   86.9548 C   0  0  0  0  0  0
   20.1158   35.9255   86.4911 C   0  0  0  0  0  0
   18.9286   36.2209   87.1696 C   0  0  0  0  0  0
   18.1506   37.3100   86.7920 C   0  0  0  0  0  0
   18.5466   38.1004   85.7192 C   0  0  0  0  0  0
   19.7153   37.8028   85.0104 C   0  0  0  0  0  0
   20.5232   36.7192   85.4027 C   0  0  0  0  0  0
   21.6765   36.3666   84.6735 N   0  0  0  0  0  0
   22.9097   37.0200   84.5706 C   0  0  0  0  0  0
   23.9055   36.4794   83.7347 C   0  0  0  0  0  0
   24.0840   35.4211   82.8076 C   0  0  0  0  0  0
   25.3121   35.4075   82.3346 N   0  0  0  0  0  0
   25.9514   36.4168   82.8869 C   0  0  0  0  0  0
   25.1427   37.1311   83.7438 N   0  0  0  0  0  0
   25.4004   38.2342   84.4765 C   0  0  0  0  0  0
   26.6566   38.8966   84.4977 C   0  0  0  0  0  0
   26.7919   40.0318   85.2953 C   0  0  0  0  0  0
   25.6960   40.4769   86.0353 C   0  0  0  0  0  0
   24.4854   39.8621   86.0340 N   0  0  0  0  0  0
   24.3357   38.7502   85.2648 C   0  0  0  0  0  0
   23.1195   38.1448   85.3053 N   0  0  0  0  0  0
   20.0452   38.6355   83.7878 C   0  0  0  0  0  0
   21.7469   35.0300   87.6046 H   0  0  0  0  0  0
   20.3061   33.9914   87.4723 H   0  0  0  0  0  0
   21.3501   34.2158   86.0967 H   0  0  0  0  0  0
   18.6027   35.6060   87.9971 H   0  0  0  0  0  0
   17.2364   37.5404   87.3207 H   0  0  0  0  0  0
   17.9191   38.9317   85.4294 H   0  0  0  0  0  0
   21.6695   35.4211   84.3257 H   0  0  0  0  0  0
   23.3571   34.6872   82.4866 H   0  0  0  0  0  0
   26.9796   36.6825   82.6948 H   0  0  0  0  0  0
   27.4903   38.5336   83.9147 H   0  0  0  0  0  0
   27.7325   40.5622   85.3379 H   0  0  0  0  0  0
   25.7776   41.3570   86.6562 H   0  0  0  0  0  0
   21.0451   39.0602   83.8647 H   0  0  0  0  0  0
   20.0103   38.0222   82.8879 H   0  0  0  0  0  0
   19.3487   39.4663   83.6871 H   0  0  0  0  0  0
  1  2  1  0  0  0
  1 23  1  0  0  0
  1 24  1  0  0  0
  1 25  1  0  0  0
  2  7  1  0  0  0
  2  3  2  0  0  0
  3  4  1  0  0  0
  3 26  1  0  0  0
  4  5  2  0  0  0
  4 27  1  0  0  0
  5  6  1  0  0  0
  5 28  1  0  0  0
  6  7  2  0  0  0
  6 22  1  0  0  0
  7  8  1  0  0  0
  8  9  1  0  0  0
  8 29  1  0  0  0
  9 21  2  0  0  0
  9 10  1  0  0  0
 10 14  1  0  0  0
 10 11  2  0  0  0
 11 12  1  0  0  0
 11 30  1  0  0  0
 12 13  2  0  0  0
 13 14  1  0  0  0
 13 31  1  0  0  0
 14 15  1  0  0  0
 15 20  1  0  0  0
 15 16  2  0  0  0
 16 17  1  0  0  0
 16 32  1  0  0  0
 17 18  2  0  0  0
 17 33  1  0  0  0
 18 19  1  0  0  0
 18 34  1  0  0  0
 19 20  2  0  0  0
 20 21  1  0  0  0
 22 35  1  0  0  0
 22 36  1  0  0  0
 22 37  1  0  0  0
M  END
> <s_m_entry_id>
5981

> <s_m_entry_name>
ligand_docking-pose.170

> <s_m_Source_Path>
/home/csk/Desktop/cluster/DUD-E-result/lck

> <s_m_Source_File>
ligand_docking-pose.sdf

> <i_m_Source_File_Index>
170

> <i_lp_mmshare_version>
53161

> <r_lp_tautomer_probability>
1

> <s_lp_Force_Field>
OPLS_2005

> <r_lp_Energy>
60.013219

> <b_lp_Chiralities_Consistent>
1

> <s_lp_Variant>
312767-1

> <s_i_glide_gridfile>
glide-grid_2of2

> <i_i_glide_lignum>
377

> <i_i_glide_rotatable_bonds>
2

> <r_i_docking_score>
-6.98971578049182

> <r_i_glide_ligand_efficiency>
-0.317714353658719

> <r_i_glide_ligand_efficiency_sa>
-0.890248113948221

> <r_i_glide_ligand_efficiency_ln>
-1.70854149283002

> <r_i_glide_gscore>
-6.98971578049182

> <r_i_glide_lipo>
-2.22550677988332

> <r_i_glide_hbond>
-0.0999392007973154

> <r_i_glide_metal>
0

> <r_i_glide_rewards>
-3.15579374237789

> <r_i_glide_evdw>
-34.5144157409668

> <r_i_glide_ecoul>
-1.45159304141998

> <r_i_glide_erotb>
0.434983685828039

> <r_i_glide_esite>
0

> <r_i_glide_emodel>
-47.7852044097214

> <r_i_glide_energy>
-35.9660087823868

> <r_i_glide_einternal>
5.68637704849243

> <i_i_glide_confnum>
4

> <i_i_glide_posenum>
220

> <r_i_glide_eff_state_penalty>
0

> <i_f3d_flags>
0

> <s_user_duplicate_titles>
312767

> <s_m_subgroup_title>
dock_pv

> <s_m_subgroupid>
dock_pv1

> <b_m_subgroup_collapsed>
0

$$$$
312646
                    3D
 Schrodinger Suite 2021-1.
 37 40  0  0  1  0            999 V2000
   20.9908   35.3759   86.8866 C   0  0  0  0  0  0
   19.9165   36.3037   86.3193 C   0  0  0  0  0  0
   18.7693   36.5447   87.0822 C   0  0  0  0  0  0
   17.7283   37.3181   86.5786 C   0  0  0  0  0  0
   17.8040   37.8239   85.2858 C   0  0  0  0  0  0
   18.9338   37.5934   84.5027 C   0  0  0  0  0  0
   20.0102   36.8501   85.0202 C   0  0  0  0  0  0
   21.1429   36.6210   84.2189 N   0  0  0  0  0  0
   22.4529   37.0694   84.4069 C   0  0  0  0  0  0
   23.4973   36.4556   83.6872 C   0  0  0  0  0  0
   23.6995   35.4210   82.7389 C   0  0  0  0  0  0
   24.9752   35.3025   82.4343 N   0  0  0  0  0  0
   25.6269   36.2201   83.1183 C   0  0  0  0  0  0
   24.7781   36.9751   83.8951 N   0  0  0  0  0  0
   25.0278   38.0235   84.7013 C   0  0  0  0  0  0
   26.3024   38.5860   84.9474 C   0  0  0  0  0  0
   26.4820   39.6433   85.7734 N   0  0  0  0  0  0
   25.3627   40.1552   86.3468 C   0  0  0  0  0  0
   24.0854   39.6974   86.1825 N   0  0  0  0  0  0
   23.9248   38.6215   85.3634 C   0  0  0  0  0  0
   22.6662   38.1306   85.2312 N   0  0  0  0  0  0
   25.6003   41.2383   87.1718 O   0  0  0  0  0  0
   24.5005   41.9071   87.7878 C   0  0  0  0  0  0
   18.9464   38.2205   82.8882 Cl  0  0  0  0  0  0
   21.8398   35.9521   87.2544 H   0  0  0  0  0  0
   20.6138   34.7311   87.6866 H   0  0  0  0  0  0
   21.3498   34.6984   86.1104 H   0  0  0  0  0  0
   18.6703   36.1183   88.0697 H   0  0  0  0  0  0
   16.8465   37.5080   87.1754 H   0  0  0  0  0  0
   16.9784   38.4040   84.8971 H   0  0  0  0  0  0
   21.0544   35.8400   83.5877 H   0  0  0  0  0  0
   22.9593   34.7707   82.2935 H   0  0  0  0  0  0
   26.6914   36.3945   83.0777 H   0  0  0  0  0  0
   27.1914   38.1827   84.4849 H   0  0  0  0  0  0
   24.8736   42.7378   88.3866 H   0  0  0  0  0  0
   23.8137   42.3163   87.0446 H   0  0  0  0  0  0
   23.9486   41.2424   88.4540 H   0  0  0  0  0  0
  1  2  1  0  0  0
  1 25  1  0  0  0
  1 26  1  0  0  0
  1 27  1  0  0  0
  2  7  1  0  0  0
  2  3  2  0  0  0
  3  4  1  0  0  0
  3 28  1  0  0  0
  4  5  2  0  0  0
  4 29  1  0  0  0
  5  6  1  0  0  0
  5 30  1  0  0  0
  6  7  2  0  0  0
  6 24  1  0  0  0
  7  8  1  0  0  0
  8  9  1  0  0  0
  8 31  1  0  0  0
  9 21  2  0  0  0
  9 10  1  0  0  0
 10 14  1  0  0  0
 10 11  2  0  0  0
 11 12  1  0  0  0
 11 32  1  0  0  0
 12 13  2  0  0  0
 13 14  1  0  0  0
 13 33  1  0  0  0
 14 15  1  0  0  0
 15 20  1  0  0  0
 15 16  2  0  0  0
 16 17  1  0  0  0
 16 34  1  0  0  0
 17 18  2  0  0  0
 18 19  1  0  0  0
 18 22  1  0  0  0
 19 20  2  0  0  0
 20 21  1  0  0  0
 22 23  1  0  0  0
 23 35  1  0  0  0
 23 36  1  0  0  0
 23 37  1  0  0  0
M  END
> <s_m_entry_id>
5988

> <s_m_entry_name>
ligand_docking-pose.177

> <s_m_Source_Path>
/home/csk/Desktop/cluster/DUD-E-result/lck

> <s_m_Source_File>
ligand_docking-pose.sdf

> <i_m_Source_File_Index>
177

> <i_lp_mmshare_version>
53161

> <r_lp_tautomer_probability>
1

> <s_lp_Force_Field>
OPLS_2005

> <r_lp_Energy>
56.644964

> <b_lp_Chiralities_Consistent>
1

> <s_lp_Variant>
312646-1

> <s_i_glide_gridfile>
glide-grid_2of2

> <i_i_glide_lignum>
416

> <i_i_glide_rotatable_bonds>
3

> <r_i_docking_score>
-6.9623168169403

> <r_i_glide_ligand_efficiency>
-0.290096534039179

> <r_i_glide_ligand_efficiency_sa>
-0.836783202244901

> <r_i_glide_ligand_efficiency_ln>
-1.66640189419495

> <r_i_glide_gscore>
-6.9623168169403

> <r_i_glide_lipo>
-2.19097590159023

> <r_i_glide_hbond>
-0.0470197497685919

> <r_i_glide_metal>
0

> <r_i_glide_rewards>
-2.93992255558325

> <r_i_glide_evdw>
-35.4057884216309

> <r_i_glide_ecoul>
-2.26895904541016

> <r_i_glide_erotb>
0.326234667894845

> <r_i_glide_esite>
0

> <r_i_glide_emodel>
-53.0502020241923

> <r_i_glide_energy>
-37.674747467041

> <r_i_glide_einternal>
1.5566064119339

> <i_i_glide_confnum>
2

> <i_i_glide_posenum>
46

> <r_i_glide_eff_state_penalty>
0

> <i_f3d_flags>
0

> <s_user_duplicate_titles>
312646

> <s_m_subgroup_title>
dock_pv

> <s_m_subgroupid>
dock_pv1

> <b_m_subgroup_collapsed>
0

$$$$
137019
                    3D
 Schrodinger Suite 2021-1.
 42 45  0  0  1  0            999 V2000
   20.7697   39.3980   84.2473 C   0  0  0  0  0  0
   20.1654   38.3845   85.2055 C   0  0  0  0  0  0
   18.9519   38.7169   85.8185 C   0  0  0  0  0  0
   18.3187   37.8206   86.6705 C   0  0  0  0  0  0
   18.9268   36.6070   86.9677 C   0  0  0  0  0  0
   20.1504   36.2660   86.3926 C   0  0  0  0  0  0
   20.7535   37.1227   85.4512 C   0  0  0  0  0  0
   21.8769   36.6586   84.7367 N   0  0  0  0  0  0
   23.1846   37.1385   84.5875 C   0  0  0  0  0  0
   24.0385   36.4787   83.6875 C   0  0  0  0  0  0
   24.0024   35.4210   82.7435 C   0  0  0  0  0  0
   25.1768   35.2529   82.1759 N   0  0  0  0  0  0
   25.9865   36.1555   82.6862 C   0  0  0  0  0  0
   25.3519   36.9521   83.6160 N   0  0  0  0  0  0
   25.8184   37.9865   84.3479 C   0  0  0  0  0  0
   27.1623   38.4379   84.2749 C   0  0  0  0  0  0
   27.5713   39.4958   85.0825 C   0  0  0  0  0  0
   26.6827   40.1123   85.9639 C   0  0  0  0  0  0
   25.3443   39.6982   86.0230 C   0  0  0  0  0  0
   24.8956   38.6243   85.2208 C   0  0  0  0  0  0
   23.6031   38.2054   85.3173 N   0  0  0  0  0  0
   27.1823   41.1672   86.7410 N   0  0  0  0  0  0
   26.8956   41.4197   88.0328 C   0  0  0  0  0  0
   26.1498   40.7358   88.7328 O   0  0  0  0  0  0
   27.5866   42.6316   88.6465 C   0  0  0  0  0  0
   20.8821   34.7722   86.8868 Cl  0  0  0  0  0  0
   20.1112   40.2522   84.0873 H   0  0  0  0  0  0
   21.7120   39.7855   84.6290 H   0  0  0  0  0  0
   20.9606   38.9235   83.2873 H   0  0  0  0  0  0
   18.4763   39.6686   85.6272 H   0  0  0  0  0  0
   17.3719   38.0849   87.1220 H   0  0  0  0  0  0
   18.4527   35.9292   87.6629 H   0  0  0  0  0  0
   21.7148   35.7785   84.2717 H   0  0  0  0  0  0
   23.1622   34.7939   82.4774 H   0  0  0  0  0  0
   27.0234   36.2828   82.4157 H   0  0  0  0  0  0
   27.8727   37.9651   83.6125 H   0  0  0  0  0  0
   28.5997   39.8248   85.0314 H   0  0  0  0  0  0
   24.6401   40.1779   86.6870 H   0  0  0  0  0  0
   27.9009   41.7289   86.3104 H   0  0  0  0  0  0
   28.4264   42.3094   89.2634 H   0  0  0  0  0  0
   26.8867   43.1825   89.2767 H   0  0  0  0  0  0
   27.9603   43.3131   87.8806 H   0  0  0  0  0  0
  1  2  1  0  0  0
  1 27  1  0  0  0
  1 28  1  0  0  0
  1 29  1  0  0  0
  2  7  1  0  0  0
  2  3  2  0  0  0
  3  4  1  0  0  0
  3 30  1  0  0  0
  4  5  2  0  0  0
  4 31  1  0  0  0
  5  6  1  0  0  0
  5 32  1  0  0  0
  6  7  2  0  0  0
  6 26  1  0  0  0
  7  8  1  0  0  0
  8  9  1  0  0  0
  8 33  1  0  0  0
  9 21  2  0  0  0
  9 10  1  0  0  0
 10 14  1  0  0  0
 10 11  2  0  0  0
 11 12  1  0  0  0
 11 34  1  0  0  0
 12 13  2  0  0  0
 13 14  1  0  0  0
 13 35  1  0  0  0
 14 15  1  0  0  0
 15 20  1  0  0  0
 15 16  2  0  0  0
 16 17  1  0  0  0
 16 36  1  0  0  0
 17 18  2  0  0  0
 17 37  1  0  0  0
 18 19  1  0  0  0
 18 22  1  0  0  0
 19 20  2  0  0  0
 19 38  1  0  0  0
 20 21  1  0  0  0
 22 23  1  0  0  0
 22 39  1  0  0  0
 23 24  2  0  0  0
 23 25  1  0  0  0
 25 40  1  0  0  0
 25 41  1  0  0  0
 25 42  1  0  0  0
M  END
> <s_m_entry_id>
5989

> <s_m_entry_name>
ligand_docking-pose.178

> <s_m_Source_Path>
/home/csk/Desktop/cluster/DUD-E-result/lck

> <s_m_Source_File>
ligand_docking-pose.sdf

> <i_m_Source_File_Index>
178

> <i_lp_mmshare_version>
53161

> <r_lp_tautomer_probability>
1

> <s_lp_Force_Field>
OPLS_2005

> <r_lp_Energy>
64.445629

> <b_lp_Chiralities_Consistent>
1

> <s_lp_Variant>
137019-1

> <s_i_glide_gridfile>
glide-grid_2of2

> <i_i_glide_lignum>
349

> <i_i_glide_rotatable_bonds>
4

> <r_i_docking_score>
-6.95997660264429

> <r_i_glide_ligand_efficiency>
-0.267691407794011

> <r_i_glide_ligand_efficiency_sa>
-0.793034742274931

> <r_i_glide_ligand_efficiency_ln>
-1.63452766758507

> <r_i_glide_gscore>
-6.95997660264429

> <r_i_glide_lipo>
-2.49081869836633

> <r_i_glide_hbond>
-0.240655389175705

> <r_i_glide_metal>
0

> <r_i_glide_rewards>
-2.37478731481988

> <r_i_glide_evdw>
-38.9542274475098

> <r_i_glide_ecoul>
-2.2488968372345

> <r_i_glide_erotb>
0.431330697678282

> <r_i_glide_esite>
0

> <r_i_glide_emodel>
-58.5120068464372

> <r_i_glide_energy>
-41.2031242847443

> <r_i_glide_einternal>
0.974698066711426

> <i_i_glide_confnum>
5

> <i_i_glide_posenum>
12

> <r_i_glide_eff_state_penalty>
0

> <i_f3d_flags>
0

> <s_user_duplicate_titles>
137019

> <s_m_subgroup_title>
dock_pv

> <s_m_subgroupid>
dock_pv1

> <b_m_subgroup_collapsed>
0

$$$$
413820
                    3D
 Schrodinger Suite 2021-1.
 48 50  0  0  1  0            999 V2000
   21.5437   44.0408   89.5390 C   0  0  0  0  0  0
   21.6730   42.6300   88.9273 C   0  0  0  0  0  0
   22.5243   41.6991   89.8107 C   0  0  0  0  0  0
   22.1832   42.6273   87.4744 C   0  0  0  0  0  0
   23.2785   43.4344   87.1250 C   0  0  0  0  0  0
   23.7805   43.4443   85.8239 C   0  0  0  0  0  0
   23.2179   42.6181   84.8571 C   0  0  0  0  0  0
   22.1492   41.7973   85.1890 C   0  0  0  0  0  0
   21.6096   41.8045   86.4813 C   0  0  0  0  0  0
   20.4737   41.0213   86.7517 N   0  0  0  0  0  0
   20.2197   39.6930   86.3908 C   0  0  0  0  0  0
   18.9550   39.1407   86.5818 C   0  0  0  0  0  0
   18.7913   37.7924   86.2470 C   0  0  0  0  0  0
   19.8139   37.0309   85.7735 N   0  0  0  0  0  0
   21.0123   37.6542   85.6163 C   0  0  0  0  0  0
   21.2433   38.9566   85.8998 N   0  0  0  0  0  0
   22.0628   36.8837   85.1003 N   0  0  0  0  0  0
   23.3951   37.2127   84.7764 C   0  0  0  0  0  0
   24.0696   38.3364   85.2821 C   0  0  0  0  0  0
   25.3788   38.6142   84.9029 C   0  0  0  0  0  0
   26.0396   37.7696   84.0180 C   0  0  0  0  0  0
   25.3962   36.6349   83.4973 C   0  0  0  0  0  0
   24.0772   36.3687   83.8969 C   0  0  0  0  0  0
   26.0778   35.7179   82.5104 C   0  0  0  0  0  0
   25.5336   34.7019   82.0870 O   0  0  0  0  0  0
   27.2937   36.0644   82.0894 N   0  0  0  0  0  0
   23.6982   42.6210   83.5763 O   0  0  0  0  0  0
   20.9703   44.7008   88.8865 H   0  0  0  0  0  0
   21.0225   44.0060   90.4958 H   0  0  0  0  0  0
   22.5141   44.5044   89.7155 H   0  0  0  0  0  0
   20.6580   42.2321   88.9372 H   0  0  0  0  0  0
   22.5450   40.6846   89.4110 H   0  0  0  0  0  0
   23.5550   42.0480   89.8770 H   0  0  0  0  0  0
   22.1295   41.6420   90.8257 H   0  0  0  0  0  0
   23.7470   44.0700   87.8628 H   0  0  0  0  0  0
   24.6093   44.0921   85.5760 H   0  0  0  0  0  0
   21.7092   41.1797   84.4202 H   0  0  0  0  0  0
   19.6972   41.5371   87.1400 H   0  0  0  0  0  0
   18.1496   39.7373   86.9752 H   0  0  0  0  0  0
   17.8331   37.3081   86.3604 H   0  0  0  0  0  0
   21.7868   35.9369   84.8867 H   0  0  0  0  0  0
   23.6210   39.0119   85.9923 H   0  0  0  0  0  0
   25.8810   39.4858   85.2991 H   0  0  0  0  0  0
   27.0555   38.0263   83.7542 H   0  0  0  0  0  0
   23.5612   35.5067   83.5016 H   0  0  0  0  0  0
   27.7288   35.5091   81.3619 H   0  0  0  0  0  0
   27.7666   36.8670   82.4646 H   0  0  0  0  0  0
   24.0723   43.4838   83.3421 H   0  0  0  0  0  0
  1  2  1  0  0  0
  1 28  1  0  0  0
  1 29  1  0  0  0
  1 30  1  0  0  0
  2  3  1  0  0  0
  2  4  1  0  0  0
  2 31  1  0  0  0
  3 32  1  0  0  0
  3 33  1  0  0  0
  3 34  1  0  0  0
  4  9  1  0  0  0
  4  5  2  0  0  0
  5  6  1  0  0  0
  5 35  1  0  0  0
  6  7  2  0  0  0
  6 36  1  0  0  0
  7  8  1  0  0  0
  7 27  1  0  0  0
  8  9  2  0  0  0
  8 37  1  0  0  0
  9 10  1  0  0  0
 10 11  1  0  0  0
 10 38  1  0  0  0
 11 16  1  0  0  0
 11 12  2  0  0  0
 12 13  1  0  0  0
 12 39  1  0  0  0
 13 14  2  0  0  0
 13 40  1  0  0  0
 14 15  1  0  0  0
 15 16  2  0  0  0
 15 17  1  0  0  0
 17 18  1  0  0  0
 17 41  1  0  0  0
 18 23  1  0  0  0
 18 19  2  0  0  0
 19 20  1  0  0  0
 19 42  1  0  0  0
 20 21  2  0  0  0
 20 43  1  0  0  0
 21 22  1  0  0  0
 21 44  1  0  0  0
 22 23  2  0  0  0
 22 24  1  0  0  0
 23 45  1  0  0  0
 24 25  2  0  0  0
 24 26  1  0  0  0
 26 46  1  0  0  0
 26 47  1  0  0  0
 27 48  1  0  0  0
M  END
> <s_m_entry_id>
5992

> <s_m_entry_name>
ligand_docking-pose.181

> <s_m_Source_Path>
/home/csk/Desktop/cluster/DUD-E-result/lck

> <s_m_Source_File>
ligand_docking-pose.sdf

> <i_m_Source_File_Index>
181

> <i_lp_mmshare_version>
53161

> <r_lp_tautomer_probability>
0.999999624730965

> <s_lp_Force_Field>
OPLS_2005

> <r_lp_Energy>
18.036671

> <b_lp_Chiralities_Consistent>
1

> <s_lp_Variant>
413820-1

> <s_i_glide_gridfile>
glide-grid_2of2

> <i_i_glide_lignum>
751

> <i_i_glide_rotatable_bonds>
7

> <r_i_docking_score>
-6.9465184799776

> <r_i_glide_ligand_efficiency>
-0.257278462221393

> <r_i_glide_ligand_efficiency_sa>
-0.77183538581623

> <r_i_glide_ligand_efficiency_ln>
-1.61703497983124

> <r_i_glide_gscore>
-6.9465184799776

> <r_i_glide_lipo>
-1.56808631842021

> <r_i_glide_hbond>
-0.812961231905029

> <r_i_glide_metal>
0

> <r_i_glide_rewards>
-1.66263062733251

> <r_i_glide_evdw>
-36.4008255004883

> <r_i_glide_ecoul>
-10.6801624298096

> <r_i_glide_erotb>
0.581912007567209

> <r_i_glide_esite>
-0.0626866703912142

> <r_i_glide_emodel>
-65.5274782779009

> <r_i_glide_energy>
-47.0809879302979

> <r_i_glide_einternal>
3.68045020103455

> <i_i_glide_confnum>
13

> <i_i_glide_posenum>
320

> <r_i_glide_eff_state_penalty>
0

> <i_f3d_flags>
0

> <s_user_duplicate_titles>
413820

> <s_m_subgroup_title>
dock_pv

> <s_m_subgroupid>
dock_pv1

> <b_m_subgroup_collapsed>
0

$$$$
312400
                    3D
 Schrodinger Suite 2021-1.
 34 37  0  0  1  0            999 V2000
   20.9601   35.3620   86.8729 C   0  0  0  0  0  0
   19.8944   36.3031   86.3127 C   0  0  0  0  0  0
   18.7505   36.5508   87.0790 C   0  0  0  0  0  0
   17.7133   37.3315   86.5785 C   0  0  0  0  0  0
   17.7904   37.8384   85.2864 C   0  0  0  0  0  0
   18.9172   37.5996   84.5014 C   0  0  0  0  0  0
   19.9919   36.8524   85.0158 C   0  0  0  0  0  0
   21.1260   36.6211   84.2164 N   0  0  0  0  0  0
   22.4349   37.0746   84.4040 C   0  0  0  0  0  0
   23.4833   36.4583   83.6931 C   0  0  0  0  0  0
   23.6891   35.4210   82.7492 C   0  0  0  0  0  0
   24.9654   35.2964   82.4507 N   0  0  0  0  0  0
   25.6144   36.2169   83.1310 C   0  0  0  0  0  0
   24.7645   36.9786   83.9031 N   0  0  0  0  0  0
   25.0164   38.0337   84.7052 C   0  0  0  0  0  0
   23.9058   38.6368   85.3530 C   0  0  0  0  0  0
   22.6451   38.1446   85.2189 N   0  0  0  0  0  0
   24.1591   39.7664   86.1646 C   0  0  0  0  0  0
   25.4731   40.2160   86.3150 C   0  0  0  0  0  0
   26.5068   39.5455   85.6567 C   0  0  0  0  0  0
   26.2999   38.4715   84.8522 N   0  0  0  0  0  0
   28.1277   40.0946   85.8725 Cl  0  0  0  0  0  0
   18.9248   38.2209   82.8869 Cl  0  0  0  0  0  0
   21.7929   35.9276   87.2907 H   0  0  0  0  0  0
   20.5567   34.6773   87.6229 H   0  0  0  0  0  0
   21.3500   34.7160   86.0870 H   0  0  0  0  0  0
   18.6508   36.1250   88.0670 H   0  0  0  0  0  0
   16.8351   37.5235   87.1787 H   0  0  0  0  0  0
   16.9675   38.4216   84.8971 H   0  0  0  0  0  0
   21.0394   35.8315   83.5960 H   0  0  0  0  0  0
   22.9500   34.7690   82.3057 H   0  0  0  0  0  0
   26.6785   36.4006   83.0955 H   0  0  0  0  0  0
   23.3366   40.2557   86.6657 H   0  0  0  0  0  0
   25.6879   41.0715   86.9389 H   0  0  0  0  0  0
  1  2  1  0  0  0
  1 24  1  0  0  0
  1 25  1  0  0  0
  1 26  1  0  0  0
  2  7  1  0  0  0
  2  3  2  0  0  0
  3  4  1  0  0  0
  3 27  1  0  0  0
  4  5  2  0  0  0
  4 28  1  0  0  0
  5  6  1  0  0  0
  5 29  1  0  0  0
  6  7  2  0  0  0
  6 23  1  0  0  0
  7  8  1  0  0  0
  8  9  1  0  0  0
  8 30  1  0  0  0
  9 17  2  0  0  0
  9 10  1  0  0  0
 10 14  1  0  0  0
 10 11  2  0  0  0
 11 12  1  0  0  0
 11 31  1  0  0  0
 12 13  2  0  0  0
 13 14  1  0  0  0
 13 32  1  0  0  0
 14 15  1  0  0  0
 15 21  1  0  0  0
 15 16  2  0  0  0
 16 17  1  0  0  0
 16 18  1  0  0  0
 18 19  2  0  0  0
 18 33  1  0  0  0
 19 20  1  0  0  0
 19 34  1  0  0  0
 20 21  2  0  0  0
 20 22  1  0  0  0
M  END
> <s_m_entry_id>
5993

> <s_m_entry_name>
ligand_docking-pose.182

> <s_m_Source_Path>
/home/csk/Desktop/cluster/DUD-E-result/lck

> <s_m_Source_File>
ligand_docking-pose.sdf

> <i_m_Source_File_Index>
182

> <i_lp_mmshare_version>
53161

> <r_lp_tautomer_probability>
1

> <s_lp_Force_Field>
OPLS_2005

> <r_lp_Energy>
54.933813

> <b_lp_Chiralities_Consistent>
1

> <s_lp_Variant>
312400-1

> <s_i_glide_gridfile>
glide-grid_2of2

> <i_i_glide_lignum>
385

> <i_i_glide_rotatable_bonds>
2

> <r_i_docking_score>
-6.9400816622343

> <r_i_glide_ligand_efficiency>
-0.301742680966709

> <r_i_glide_ligand_efficiency_sa>
-0.858116045916236

> <r_i_glide_ligand_efficiency_ln>
-1.67817467510954

> <r_i_glide_gscore>
-6.9400816622343

> <r_i_glide_lipo>
-2.18664413814845

> <r_i_glide_hbond>
-0.0442579988762402

> <r_i_glide_metal>
0

> <r_i_glide_rewards>
-2.91382519923155

> <r_i_glide_evdw>
-35.4611587524414

> <r_i_glide_ecoul>
-2.28523230552673

> <r_i_glide_erotb>
0.32048845747302

> <r_i_glide_esite>
0

> <r_i_glide_emodel>
-52.2317922929354

> <r_i_glide_energy>
-37.7463910579681

> <r_i_glide_einternal>
1.50851953029633

> <i_i_glide_confnum>
2

> <i_i_glide_posenum>
291

> <r_i_glide_eff_state_penalty>
0

> <i_f3d_flags>
0

> <s_user_duplicate_titles>
312400

> <s_m_subgroup_title>
dock_pv

> <s_m_subgroupid>
dock_pv1

> <b_m_subgroup_collapsed>
0

$$$$
312956
                    3D
 Schrodinger Suite 2021-1.
 57 60  0  0  1  0            999 V2000
   19.6701   38.4511   83.7557 C   0  0  0  0  0  0
   19.3354   37.6656   85.0152 C   0  0  0  0  0  0
   18.1446   37.9677   85.6780 C   0  0  0  0  0  0
   17.7512   37.2554   86.8091 C   0  0  0  0  0  0
   18.5500   36.2213   87.2869 C   0  0  0  0  0  0
   19.7495   35.9070   86.6450 C   0  0  0  0  0  0
   20.1505   36.6230   85.5044 C   0  0  0  0  0  0
   21.3509   36.2514   84.8718 N   0  0  0  0  0  0
   22.4316   37.0446   84.7704 C   0  0  0  0  0  0
   22.5140   38.1694   85.2703 O   0  0  0  0  0  0
   23.5193   36.4817   84.0191 C   0  0  0  0  0  0
   23.5490   35.6412   82.8972 C   0  0  0  0  0  0
   24.7388   35.4201   82.3595 N   0  0  0  0  0  0
   25.6871   36.1055   82.9515 C   0  0  0  0  0  0
   25.1414   36.9863   84.3569 S   0  0  0  0  0  0
   26.9988   36.1228   82.5082 N   0  0  0  0  0  0
   28.0442   36.9854   82.8869 C   0  0  0  0  0  0
   29.3608   36.6249   82.5936 C   0  0  0  0  0  0
   30.3834   37.5335   82.8915 C   0  0  0  0  0  0
   30.0673   38.7709   83.4678 C   0  0  0  0  0  0
   28.7292   39.0747   83.7262 C   0  0  0  0  0  0
   27.7481   38.1896   83.4298 N   0  0  0  0  0  0
   28.3747   40.3025   84.3211 N   0  0  0  0  0  0
   26.9522   40.6472   84.4486 C   0  0  0  0  0  0
   26.5798   41.8628   85.3216 C   0  0  0  0  0  0
   26.8912   43.1816   84.7500 N   0  0  0  0  0  0
   25.9437   44.1800   85.2778 C   0  0  0  0  0  0
   26.2983   45.6320   84.8908 C   0  0  0  0  0  0
   27.6403   45.9153   85.2524 O   0  0  0  0  0  0
   28.5516   45.0622   84.5705 C   0  0  0  0  0  0
   28.2981   43.5794   84.9285 C   0  0  0  0  0  0
   20.7162   34.6209   87.2841 Cl  0  0  0  0  0  0
   20.1510   37.8216   83.0070 H   0  0  0  0  0  0
   18.7720   38.8501   83.2859 H   0  0  0  0  0  0
   20.3401   39.2749   84.0014 H   0  0  0  0  0  0
   17.5009   38.7546   85.3092 H   0  0  0  0  0  0
   16.8225   37.5057   87.3025 H   0  0  0  0  0  0
   18.2382   35.6585   88.1559 H   0  0  0  0  0  0
   21.3937   35.3055   84.5260 H   0  0  0  0  0  0
   22.6829   35.1869   82.4338 H   0  0  0  0  0  0
   27.3436   35.3419   81.9680 H   0  0  0  0  0  0
   29.5943   35.6738   82.1364 H   0  0  0  0  0  0
   31.4130   37.2794   82.6797 H   0  0  0  0  0  0
   30.8509   39.4747   83.7118 H   0  0  0  0  0  0
   29.0517   41.0535   84.3013 H   0  0  0  0  0  0
   26.5044   40.7442   83.4580 H   0  0  0  0  0  0
   26.4433   39.7875   84.8849 H   0  0  0  0  0  0
   25.5112   41.7776   85.5301 H   0  0  0  0  0  0
   27.0538   41.7644   86.2992 H   0  0  0  0  0  0
   24.9325   43.9356   84.9472 H   0  0  0  0  0  0
   25.9249   44.1157   86.3681 H   0  0  0  0  0  0
   25.6395   46.3184   85.4207 H   0  0  0  0  0  0
   26.1501   45.8193   83.8261 H   0  0  0  0  0  0
   29.5633   45.3434   84.8696 H   0  0  0  0  0  0
   28.4915   45.2199   83.4918 H   0  0  0  0  0  0
   28.5808   43.4379   85.9731 H   0  0  0  0  0  0
   28.9524   42.9285   84.3489 H   0  0  0  0  0  0
  1  2  1  0  0  0
  1 33  1  0  0  0
  1 34  1  0  0  0
  1 35  1  0  0  0
  2  7  1  0  0  0
  2  3  2  0  0  0
  3  4  1  0  0  0
  3 36  1  0  0  0
  4  5  2  0  0  0
  4 37  1  0  0  0
  5  6  1  0  0  0
  5 38  1  0  0  0
  6  7  2  0  0  0
  6 32  1  0  0  0
  7  8  1  0  0  0
  8  9  1  0  0  0
  8 39  1  0  0  0
  9 10  2  0  0  0
  9 11  1  0  0  0
 11 15  1  0  0  0
 11 12  2  0  0  0
 12 13  1  0  0  0
 12 40  1  0  0  0
 13 14  2  0  0  0
 14 15  1  0  0  0
 14 16  1  0  0  0
 16 17  1  0  0  0
 16 41  1  0  0  0
 17 22  1  0  0  0
 17 18  2  0  0  0
 18 19  1  0  0  0
 18 42  1  0  0  0
 19 20  2  0  0  0
 19 43  1  0  0  0
 20 21  1  0  0  0
 20 44  1  0  0  0
 21 22  2  0  0  0
 21 23  1  0  0  0
 23 24  1  0  0  0
 23 45  1  0  0  0
 24 25  1  0  0  0
 24 46  1  0  0  0
 24 47  1  0  0  0
 25 26  1  0  0  0
 25 48  1  0  0  0
 25 49  1  0  0  0
 26 31  1  0  0  0
 26 27  1  0  0  0
 27 28  1  0  0  0
 27 50  1  0  0  0
 27 51  1  0  0  0
 28 29  1  0  0  0
 28 52  1  0  0  0
 28 53  1  0  0  0
 29 30  1  0  0  0
 30 31  1  0  0  0
 30 54  1  0  0  0
 30 55  1  0  0  0
 31 56  1  0  0  0
 31 57  1  0  0  0
M  END
> <s_m_entry_id>
5998

> <s_m_entry_name>
ligand_docking-pose.187

> <s_m_Source_Path>
/home/csk/Desktop/cluster/DUD-E-result/lck

> <s_m_Source_File>
ligand_docking-pose.sdf

> <i_m_Source_File_Index>
187

> <i_lp_mmshare_version>
53161

> <r_lp_tautomer_probability>
1

> <s_lp_Force_Field>
OPLS_2005

> <r_lp_Energy>
36.316104

> <b_lp_Chiralities_Consistent>
1

> <s_lp_Variant>
312956-1

> <s_i_glide_gridfile>
glide-grid_2of2

> <i_i_glide_lignum>
609

> <i_i_glide_rotatable_bonds>
9

> <r_i_docking_score>
-6.92972091299145

> <r_i_glide_ligand_efficiency>
-0.216553778530983

> <r_i_glide_ligand_efficiency_sa>
-0.687515390901293

> <r_i_glide_ligand_efficiency_ln>
-1.55175340947658

> <r_i_glide_gscore>
-6.92972091299145

> <r_i_glide_lipo>
-3.01781763516847

> <r_i_glide_hbond>
-0.183464863299371

> <r_i_glide_metal>
0

> <r_i_glide_rewards>
-1.34430910709036

> <r_i_glide_evdw>
-46.3435974121094

> <r_i_glide_ecoul>
-5.26761817932129

> <r_i_glide_erotb>
0.723193290070418

> <r_i_glide_esite>
0

> <r_i_glide_emodel>
-70.0730063862246

> <r_i_glide_energy>
-51.6112155914307

> <r_i_glide_einternal>
6.13264036178589

> <i_i_glide_confnum>
55

> <i_i_glide_posenum>
264

> <r_i_glide_eff_state_penalty>
0

> <i_f3d_flags>
0

> <s_user_duplicate_titles>
312956

> <s_m_subgroup_title>
dock_pv

> <s_m_subgroupid>
dock_pv1

> <b_m_subgroup_collapsed>
0

$$$$
37694
                    3D
 Schrodinger Suite 2021-1.
 60 63  0  0  1  0            999 V2000
   33.0204   38.9685   80.5608 C   0  0  0  0  0  0
   32.8313   38.4038   81.9785 C   0  0  0  0  0  0
   32.8113   36.9353   82.0152 N   0  0  0  0  0  0
   32.9773   36.4310   83.3862 C   0  0  0  0  0  0
   33.0923   34.9010   83.4716 C   0  0  0  0  0  0
   31.7416   36.2992   81.2227 C   0  0  0  0  0  0
   30.2758   36.3865   81.6445 C   0  0  0  0  0  0
   29.7503   37.0687   82.6832 C   0  0  0  0  0  0
   28.3195   37.1468   83.0636 C   0  0  0  0  0  0
   27.8207   38.1441   83.9155 C   0  0  0  0  0  0
   26.4361   38.0991   84.2910 C   0  0  0  0  0  0
   25.8836   39.0393   85.2070 C   0  0  0  0  0  0
   24.5457   39.0384   85.5705 C   0  0  0  0  0  0
   23.6959   38.0956   85.0014 C   0  0  0  0  0  0
   24.1797   37.1284   84.0861 C   0  0  0  0  0  0
   25.5833   37.0808   83.7385 C   0  0  0  0  0  0
   26.2219   36.1114   82.8868 C   0  0  0  0  0  0
   27.5223   36.1885   82.5465 N   0  0  0  0  0  0
   25.5149   35.0209   82.4864 O   0  0  0  0  0  0
   23.0134   36.4854   83.6471 N   0  0  0  0  0  0
   21.9771   37.0430   84.3773 C   0  0  0  0  0  0
   22.3546   37.9742   85.2104 N   0  0  0  0  0  0
   20.6836   36.6211   84.1934 N   0  0  0  0  0  0
   19.5999   36.9204   85.0236 C   0  0  0  0  0  0
   18.5039   37.6357   84.5197 C   0  0  0  0  0  0
   17.3803   37.8210   85.3199 C   0  0  0  0  0  0
   17.3500   37.3333   86.6250 C   0  0  0  0  0  0
   18.4296   36.6091   87.1218 C   0  0  0  0  0  0
   19.5441   36.3744   86.3170 C   0  0  0  0  0  0
   20.7880   35.3095   86.8870 Cl  0  0  0  0  0  0
   18.4713   38.2406   82.8960 Cl  0  0  0  0  0  0
   22.8038   35.5197   82.5604 C   0  0  0  0  0  0
   28.7018   39.2845   84.4465 C   0  0  0  0  0  0
   33.1744   40.0469   80.5957 H   0  0  0  0  0  0
   32.1500   38.7911   79.9324 H   0  0  0  0  0  0
   33.8870   38.5262   80.0686 H   0  0  0  0  0  0
   33.6696   38.7548   82.5831 H   0  0  0  0  0  0
   31.9341   38.8267   82.4278 H   0  0  0  0  0  0
   33.9024   36.8484   83.7872 H   0  0  0  0  0  0
   32.1828   36.7759   84.0455 H   0  0  0  0  0  0
   33.3494   34.6032   84.4868 H   0  0  0  0  0  0
   32.1547   34.4047   83.2195 H   0  0  0  0  0  0
   33.8696   34.5196   82.8084 H   0  0  0  0  0  0
   31.8042   36.6212   80.1836 H   0  0  0  0  0  0
   31.9695   35.2389   81.1123 H   0  0  0  0  0  0
   29.6093   35.8241   81.0051 H   0  0  0  0  0  0
   30.4287   37.6113   83.3121 H   0  0  0  0  0  0
   26.5119   39.7897   85.6597 H   0  0  0  0  0  0
   24.1689   39.7717   86.2685 H   0  0  0  0  0  0
   24.6449   35.0392   82.8859 H   0  0  0  0  0  0
   20.5147   35.7613   83.6909 H   0  0  0  0  0  0
   16.5289   38.3625   84.9327 H   0  0  0  0  0  0
   16.4766   37.4968   87.2392 H   0  0  0  0  0  0
   18.3802   36.1855   88.1137 H   0  0  0  0  0  0
   21.7608   35.4841   82.2485 H   0  0  0  0  0  0
   23.3585   35.8206   81.6735 H   0  0  0  0  0  0
   23.0745   34.5240   82.8868 H   0  0  0  0  0  0
   28.9415   39.1254   85.4981 H   0  0  0  0  0  0
   29.6313   39.4231   83.9004 H   0  0  0  0  0  0
   28.1905   40.2423   84.3531 H   0  0  0  0  0  0
  1  2  1  0  0  0
  1 34  1  0  0  0
  1 35  1  0  0  0
  1 36  1  0  0  0
  2  3  1  0  0  0
  2 37  1  0  0  0
  2 38  1  0  0  0
  3  4  1  0  0  0
  3  6  1  0  0  0
  4  5  1  0  0  0
  4 39  1  0  0  0
  4 40  1  0  0  0
  5 41  1  0  0  0
  5 42  1  0  0  0
  5 43  1  0  0  0
  6  7  1  0  0  0
  6 44  1  0  0  0
  6 45  1  0  0  0
  7  8  2  0  0  0
  7 46  1  0  0  0
  8  9  1  0  0  0
  8 47  1  0  0  0
  9 18  1  0  0  0
  9 10  2  0  0  0
 10 11  1  0  0  0
 10 33  1  0  0  0
 11 16  2  0  0  0
 11 12  1  0  0  0
 12 13  2  0  0  0
 12 48  1  0  0  0
 13 14  1  0  0  0
 13 49  1  0  0  0
 14 22  1  0  0  0
 14 15  2  0  0  0
 15 16  1  0  0  0
 15 20  1  0  0  0
 16 17  1  0  0  0
 17 18  2  0  0  0
 17 19  1  0  0  0
 19 50  1  0  0  0
 20 21  1  0  0  0
 20 32  1  0  0  0
 21 22  2  0  0  0
 21 23  1  0  0  0
 23 24  1  0  0  0
 23 51  1  0  0  0
 24 29  1  0  0  0
 24 25  2  0  0  0
 25 26  1  0  0  0
 25 31  1  0  0  0
 26 27  2  0  0  0
 26 52  1  0  0  0
 27 28  1  0  0  0
 27 53  1  0  0  0
 28 29  2  0  0  0
 28 54  1  0  0  0
 29 30  1  0  0  0
 32 55  1  0  0  0
 32 56  1  0  0  0
 32 57  1  0  0  0
 33 58  1  0  0  0
 33 59  1  0  0  0
 33 60  1  0  0  0
M  END
> <s_m_entry_id>
5999

> <s_m_entry_name>
ligand_docking-pose.188

> <s_m_Source_Path>
/home/csk/Desktop/cluster/DUD-E-result/lck

> <s_m_Source_File>
ligand_docking-pose.sdf

> <i_m_Source_File_Index>
188

> <i_lp_mmshare_version>
53161

> <r_lp_tautomer_probability>
1

> <s_lp_Force_Field>
OPLS_2005

> <r_lp_Energy>
39.962379

> <b_lp_Chiralities_Consistent>
1

> <s_lp_Variant>
37694-1

> <s_i_glide_gridfile>
glide-grid_2of2

> <i_i_glide_lignum>
832

> <i_i_glide_rotatable_bonds>
8

> <r_i_docking_score>
-6.92805302039335

> <r_i_glide_ligand_efficiency>
-0.20994100061798

> <r_i_glide_ligand_efficiency_sa>
-0.673392965971005

> <r_i_glide_ligand_efficiency_ln>
-1.54076312019674

> <r_i_glide_gscore>
-6.92805302039335

> <r_i_glide_lipo>
-3.54929569897049

> <r_i_glide_hbond>
-0.35340696244894

> <r_i_glide_metal>
0

> <r_i_glide_rewards>
-0.578254194021819

> <r_i_glide_evdw>
-47.0238838195801

> <r_i_glide_ecoul>
-3.50361752510071

> <r_i_glide_erotb>
0.432701756635025

> <r_i_glide_esite>
-0.0030611018430117

> <r_i_glide_emodel>
-68.9086767394

> <r_i_glide_energy>
-50.5275013446808

> <r_i_glide_einternal>
2.09923148155212

> <i_i_glide_confnum>
4

> <i_i_glide_posenum>
233

> <r_i_glide_eff_state_penalty>
0

> <i_f3d_flags>
0

> <s_user_duplicate_titles>
37694

> <s_m_subgroup_title>
dock_pv

> <s_m_subgroupid>
dock_pv1

> <b_m_subgroup_collapsed>
0

$$$$
312406
                    3D
 Schrodinger Suite 2021-1.
 53 56  0  0  1  0            999 V2000
   20.9658   35.3354   86.8865 C   0  0  0  0  0  0
   19.9382   36.3189   86.3313 C   0  0  0  0  0  0
   18.7901   36.5884   87.0841 C   0  0  0  0  0  0
   17.7785   37.3980   86.5761 C   0  0  0  0  0  0
   17.8821   37.9042   85.2860 C   0  0  0  0  0  0
   19.0102   37.6356   84.5127 C   0  0  0  0  0  0
   20.0691   36.8756   85.0423 C   0  0  0  0  0  0
   21.2130   36.6213   84.2639 N   0  0  0  0  0  0
   22.5259   37.0772   84.4333 C   0  0  0  0  0  0
   23.5472   36.4610   83.6878 C   0  0  0  0  0  0
   23.7179   35.4210   82.7401 C   0  0  0  0  0  0
   24.9797   35.3029   82.3855 N   0  0  0  0  0  0
   25.6499   36.2379   83.0239 C   0  0  0  0  0  0
   24.8278   36.9995   83.8257 N   0  0  0  0  0  0
   25.1009   38.0748   84.5888 C   0  0  0  0  0  0
   26.3773   38.6600   84.7011 C   0  0  0  0  0  0
   26.6184   39.7649   85.4367 N   0  0  0  0  0  0
   25.5979   40.3514   86.1282 C   0  0  0  0  0  0
   24.2945   39.8188   86.0866 C   0  0  0  0  0  0
   24.0280   38.6669   85.3009 C   0  0  0  0  0  0
   22.7683   38.1504   85.2380 N   0  0  0  0  0  0
   25.8941   41.5468   86.8429 N   0  0  0  0  0  0
   27.2129   42.1700   86.6839 C   0  0  0  0  0  0
   25.1555   41.9262   88.0544 C   0  0  0  0  0  0
   25.7434   41.2985   89.3392 C   0  0  0  0  0  0
   25.1945   41.8712   90.5739 N   0  0  0  0  0  0
   23.7514   41.6753   90.7087 C   0  0  0  0  0  0
   25.8775   41.3049   91.7347 C   0  0  0  0  0  0
   19.0259   38.2211   82.8864 Cl  0  0  0  0  0  0
   20.5252   34.6481   87.6126 H   0  0  0  0  0  0
   21.3512   34.6966   86.0916 H   0  0  0  0  0  0
   21.8047   35.8662   87.3351 H   0  0  0  0  0  0
   18.6665   36.1559   88.0664 H   0  0  0  0  0  0
   16.8986   37.6102   87.1662 H   0  0  0  0  0  0
   17.0733   38.5013   84.8879 H   0  0  0  0  0  0
   21.1174   35.8489   83.6242 H   0  0  0  0  0  0
   22.9656   34.7607   82.3328 H   0  0  0  0  0  0
   26.7091   36.4218   82.9280 H   0  0  0  0  0  0
   27.2274   38.2494   84.1758 H   0  0  0  0  0  0
   23.4648   40.2750   86.6002 H   0  0  0  0  0  0
   27.4918   42.2361   85.6307 H   0  0  0  0  0  0
   27.2355   43.1791   87.0972 H   0  0  0  0  0  0
   27.9780   41.5751   87.1850 H   0  0  0  0  0  0
   24.1037   41.6670   87.9638 H   0  0  0  0  0  0
   25.1801   43.0144   88.1335 H   0  0  0  0  0  0
   26.8213   41.4682   89.3463 H   0  0  0  0  0  0
   25.5945   40.2210   89.3276 H   0  0  0  0  0  0
   23.2077   42.1950   89.9194 H   0  0  0  0  0  0
   23.3942   42.0840   91.6548 H   0  0  0  0  0  0
   23.4776   40.6213   90.6739 H   0  0  0  0  0  0
   26.9474   41.5135   91.6893 H   0  0  0  0  0  0
   25.5051   41.7458   92.6607 H   0  0  0  0  0  0
   25.7466   40.2235   91.7979 H   0  0  0  0  0  0
  1  2  1  0  0  0
  1 30  1  0  0  0
  1 31  1  0  0  0
  1 32  1  0  0  0
  2  7  1  0  0  0
  2  3  2  0  0  0
  3  4  1  0  0  0
  3 33  1  0  0  0
  4  5  2  0  0  0
  4 34  1  0  0  0
  5  6  1  0  0  0
  5 35  1  0  0  0
  6  7  2  0  0  0
  6 29  1  0  0  0
  7  8  1  0  0  0
  8  9  1  0  0  0
  8 36  1  0  0  0
  9 21  2  0  0  0
  9 10  1  0  0  0
 10 14  1  0  0  0
 10 11  2  0  0  0
 11 12  1  0  0  0
 11 37  1  0  0  0
 12 13  2  0  0  0
 13 14  1  0  0  0
 13 38  1  0  0  0
 14 15  1  0  0  0
 15 20  1  0  0  0
 15 16  2  0  0  0
 16 17  1  0  0  0
 16 39  1  0  0  0
 17 18  2  0  0  0
 18 19  1  0  0  0
 18 22  1  0  0  0
 19 20  2  0  0  0
 19 40  1  0  0  0
 20 21  1  0  0  0
 22 23  1  0  0  0
 22 24  1  0  0  0
 23 41  1  0  0  0
 23 42  1  0  0  0
 23 43  1  0  0  0
 24 25  1  0  0  0
 24 44  1  0  0  0
 24 45  1  0  0  0
 25 26  1  0  0  0
 25 46  1  0  0  0
 25 47  1  0  0  0
 26 27  1  0  0  0
 26 28  1  0  0  0
 27 48  1  0  0  0
 27 49  1  0  0  0
 27 50  1  0  0  0
 28 51  1  0  0  0
 28 52  1  0  0  0
 28 53  1  0  0  0
M  END
> <s_m_entry_id>
6000

> <s_m_entry_name>
ligand_docking-pose.189

> <s_m_Source_Path>
/home/csk/Desktop/cluster/DUD-E-result/lck

> <s_m_Source_File>
ligand_docking-pose.sdf

> <i_m_Source_File_Index>
189

> <i_lp_mmshare_version>
53161

> <r_lp_tautomer_probability>
1

> <s_lp_Force_Field>
OPLS_2005

> <r_lp_Energy>
66.501912

> <b_lp_Chiralities_Consistent>
1

> <s_lp_Variant>
312406-1

> <s_i_glide_gridfile>
glide-grid_2of2

> <i_i_glide_lignum>
415

> <i_i_glide_rotatable_bonds>
6

> <r_i_docking_score>
-6.92387197165684

> <r_i_glide_ligand_efficiency>
-0.238754205919201

> <r_i_glide_ligand_efficiency_sa>
-0.73352856322549

> <r_i_glide_ligand_efficiency_ln>
-1.58539110726517

> <r_i_glide_gscore>
-6.92387197165684

> <r_i_glide_lipo>
-2.93474825645746

> <r_i_glide_hbond>
-0.0685892487372477

> <r_i_glide_metal>
0

> <r_i_glide_rewards>
-2.17351659530046

> <r_i_glide_evdw>
-41.258602142334

> <r_i_glide_ecoul>
-1.80100917816162

> <r_i_glide_erotb>
0.58606361267927

> <r_i_glide_esite>
0

> <r_i_glide_emodel>
-57.3214588266396

> <r_i_glide_energy>
-43.0596113204956

> <r_i_glide_einternal>
6.78009510040283

> <i_i_glide_confnum>
65

> <i_i_glide_posenum>
268

> <r_i_glide_eff_state_penalty>
0

> <i_f3d_flags>
0

> <s_user_duplicate_titles>
312406

> <s_m_subgroup_title>
dock_pv

> <s_m_subgroupid>
dock_pv1

> <b_m_subgroup_collapsed>
0

$$$$
312490
                    3D
 Schrodinger Suite 2021-1.
 48 51  0  0  1  0            999 V2000
   27.9518   42.5734   85.5993 C   0  0  0  0  0  0
   28.2449   41.2819   86.3816 C   0  0  0  0  0  0
   27.8981   40.0535   85.6561 N   0  0  0  0  0  0
   28.9656   39.4120   84.8749 C   0  0  0  0  0  0
   29.0468   39.8909   83.4169 C   0  0  0  0  0  0
   26.5496   39.6074   85.5475 C   0  0  0  0  0  0
   25.4992   40.2613   86.2179 C   0  0  0  0  0  0
   24.1880   39.7932   86.1073 C   0  0  0  0  0  0
   23.9256   38.6537   85.3186 C   0  0  0  0  0  0
   25.0278   38.0542   84.6595 C   0  0  0  0  0  0
   26.3064   38.5105   84.7726 N   0  0  0  0  0  0
   24.7733   36.9875   83.8746 N   0  0  0  0  0  0
   25.6185   36.2240   83.0987 C   0  0  0  0  0  0
   24.9649   35.2975   82.4312 N   0  0  0  0  0  0
   23.6917   35.4210   82.7434 C   0  0  0  0  0  0
   23.4923   36.4586   83.6872 C   0  0  0  0  0  0
   22.4485   37.0755   84.4039 C   0  0  0  0  0  0
   22.6650   38.1521   85.2098 N   0  0  0  0  0  0
   21.1385   36.6210   84.2214 N   0  0  0  0  0  0
   20.0045   36.8733   85.0140 C   0  0  0  0  0  0
   19.8961   36.3356   86.3140 C   0  0  0  0  0  0
   18.7601   36.6158   87.0801 C   0  0  0  0  0  0
   17.7423   37.4189   86.5767 C   0  0  0  0  0  0
   17.8255   37.9094   85.2792 C   0  0  0  0  0  0
   18.9422   37.6329   84.4934 C   0  0  0  0  0  0
   18.9500   38.2210   82.8688 Cl  0  0  0  0  0  0
   20.9376   35.3704   86.8769 C   0  0  0  0  0  0
   28.1752   43.4486   86.2092 H   0  0  0  0  0  0
   26.9062   42.6416   85.2990 H   0  0  0  0  0  0
   28.5637   42.6484   84.7008 H   0  0  0  0  0  0
   29.3003   41.2537   86.6585 H   0  0  0  0  0  0
   27.7214   41.3056   87.3371 H   0  0  0  0  0  0
   29.9254   39.5611   85.3721 H   0  0  0  0  0  0
   28.8213   38.3311   84.8797 H   0  0  0  0  0  0
   29.8247   39.3434   82.8860 H   0  0  0  0  0  0
   28.1075   39.7294   82.8872 H   0  0  0  0  0  0
   29.2966   40.9490   83.3532 H   0  0  0  0  0  0
   25.6729   41.1337   86.8271 H   0  0  0  0  0  0
   23.3720   40.2835   86.6186 H   0  0  0  0  0  0
   26.6808   36.4130   83.0504 H   0  0  0  0  0  0
   22.9500   34.7665   82.3088 H   0  0  0  0  0  0
   21.0487   35.8253   83.6094 H   0  0  0  0  0  0
   18.6523   36.1981   88.0707 H   0  0  0  0  0  0
   16.8722   37.6393   87.1785 H   0  0  0  0  0  0
   17.0137   38.5067   84.8874 H   0  0  0  0  0  0
   20.4986   34.6699   87.5911 H   0  0  0  0  0  0
   21.3504   34.7429   86.0870 H   0  0  0  0  0  0
   21.7572   35.9159   87.3440 H   0  0  0  0  0  0
  1  2  1  0  0  0
  1 28  1  0  0  0
  1 29  1  0  0  0
  1 30  1  0  0  0
  2  3  1  0  0  0
  2 31  1  0  0  0
  2 32  1  0  0  0
  3  4  1  0  0  0
  3  6  1  0  0  0
  4  5  1  0  0  0
  4 33  1  0  0  0
  4 34  1  0  0  0
  5 35  1  0  0  0
  5 36  1  0  0  0
  5 37  1  0  0  0
  6 11  1  0  0  0
  6  7  2  0  0  0
  7  8  1  0  0  0
  7 38  1  0  0  0
  8  9  2  0  0  0
  8 39  1  0  0  0
  9 18  1  0  0  0
  9 10  1  0  0  0
 10 11  2  0  0  0
 10 12  1  0  0  0
 12 16  1  0  0  0
 12 13  1  0  0  0
 13 14  2  0  0  0
 13 40  1  0  0  0
 14 15  1  0  0  0
 15 16  2  0  0  0
 15 41  1  0  0  0
 16 17  1  0  0  0
 17 18  2  0  0  0
 17 19  1  0  0  0
 19 20  1  0  0  0
 19 42  1  0  0  0
 20 25  1  0  0  0
 20 21  2  0  0  0
 21 22  1  0  0  0
 21 27  1  0  0  0
 22 23  2  0  0  0
 22 43  1  0  0  0
 23 24  1  0  0  0
 23 44  1  0  0  0
 24 25  2  0  0  0
 24 45  1  0  0  0
 25 26  1  0  0  0
 27 46  1  0  0  0
 27 47  1  0  0  0
 27 48  1  0  0  0
M  END
> <s_m_entry_id>
6001

> <s_m_entry_name>
ligand_docking-pose.190

> <s_m_Source_Path>
/home/csk/Desktop/cluster/DUD-E-result/lck

> <s_m_Source_File>
ligand_docking-pose.sdf

> <i_m_Source_File_Index>
190

> <i_lp_mmshare_version>
53161

> <r_lp_tautomer_probability>
1

> <s_lp_Force_Field>
OPLS_2005

> <r_lp_Energy>
63.469506

> <b_lp_Chiralities_Consistent>
1

> <s_lp_Variant>
312490-1

> <s_i_glide_gridfile>
glide-grid_2of2

> <i_i_glide_lignum>
827

> <i_i_glide_rotatable_bonds>
5

> <r_i_docking_score>
-6.91985016723569

> <r_i_glide_ligand_efficiency>
-0.256290746934655

> <r_i_glide_ligand_efficiency_sa>
-0.768872239959273

> <r_i_glide_ligand_efficiency_ln>
-1.61082703628642

> <r_i_glide_gscore>
-6.91985016723569

> <r_i_glide_lipo>
-2.22735107839249

> <r_i_glide_hbond>
-0.0583928277663095

> <r_i_glide_metal>
0

> <r_i_glide_rewards>
-2.66560739458338

> <r_i_glide_evdw>
-39.7120819091797

> <r_i_glide_ecoul>
-2.56133723258972

> <r_i_glide_erotb>
0.401305813853929

> <r_i_glide_esite>
0

> <r_i_glide_emodel>
-56.3512609729436

> <r_i_glide_energy>
-42.2734191417694

> <r_i_glide_einternal>
5.29114580154419

> <i_i_glide_confnum>
1

> <i_i_glide_posenum>
82

> <r_i_glide_eff_state_penalty>
0

> <i_f3d_flags>
0

> <s_user_duplicate_titles>
312490

> <s_m_subgroup_title>
dock_pv

> <s_m_subgroupid>
dock_pv1

> <b_m_subgroup_collapsed>
0

$$$$
413817
                    3D
 Schrodinger Suite 2021-1.
 42 44  0  0  1  0            999 V2000
   26.5343   38.7034   85.1722 C   0  0  0  0  0  0
   25.6231   37.6882   84.5086 C   0  0  0  0  0  0
   24.2808   37.6018   84.8804 C   0  0  0  0  0  0
   23.4157   36.6839   84.2656 C   0  0  0  0  0  0
   23.9331   35.8210   83.2950 C   0  0  0  0  0  0
   25.2798   35.8896   82.9413 C   0  0  0  0  0  0
   26.1179   36.8369   83.5226 C   0  0  0  0  0  0
   25.7852   35.0208   82.0231 O   0  0  0  0  0  0
   22.0528   36.5794   84.6064 N   0  0  0  0  0  0
   21.1603   37.5299   85.1297 C   0  0  0  0  0  0
   19.8504   37.1534   85.4380 C   0  0  0  0  0  0
   19.0061   38.1435   85.9529 C   0  0  0  0  0  0
   19.4221   39.4222   86.1545 N   0  0  0  0  0  0
   20.7050   39.7050   85.8142 C   0  0  0  0  0  0
   21.5817   38.8053   85.3120 N   0  0  0  0  0  0
   21.1276   41.0211   86.0382 N   0  0  0  0  0  0
   22.2894   41.7399   85.6906 C   0  0  0  0  0  0
   23.2599   41.2837   84.7878 C   0  0  0  0  0  0
   24.3726   42.0684   84.4874 C   0  0  0  0  0  0
   24.5151   43.3298   85.0595 C   0  0  0  0  0  0
   23.5438   43.8265   85.9369 C   0  0  0  0  0  0
   22.4539   43.0043   86.2612 C   0  0  0  0  0  0
   23.6732   45.2225   86.5000 C   0  0  0  0  0  0
   24.7626   45.7827   86.6011 O   0  0  0  0  0  0
   22.5501   45.8282   86.8887 N   0  0  0  0  0  0
   27.3115   39.0400   84.4847 H   0  0  0  0  0  0
   25.9758   39.5912   85.4733 H   0  0  0  0  0  0
   27.0075   38.2717   86.0557 H   0  0  0  0  0  0
   23.9307   38.2491   85.6685 H   0  0  0  0  0  0
   23.2964   35.0900   82.8179 H   0  0  0  0  0  0
   27.1579   36.8911   83.2351 H   0  0  0  0  0  0
   26.6989   35.2180   81.7928 H   0  0  0  0  0  0
   21.6089   35.7128   84.3401 H   0  0  0  0  0  0
   19.5020   36.1420   85.2886 H   0  0  0  0  0  0
   17.9788   37.9278   86.2135 H   0  0  0  0  0  0
   20.4112   41.5935   86.4597 H   0  0  0  0  0  0
   23.1712   40.3329   84.2899 H   0  0  0  0  0  0
   25.1158   41.7089   83.7916 H   0  0  0  0  0  0
   25.3689   43.9350   84.7858 H   0  0  0  0  0  0
   21.7093   43.3610   86.9558 H   0  0  0  0  0  0
   22.5982   46.7565   87.2728 H   0  0  0  0  0  0
   21.6417   45.4216   86.6721 H   0  0  0  0  0  0
  1  2  1  0  0  0
  1 26  1  0  0  0
  1 27  1  0  0  0
  1 28  1  0  0  0
  2  7  1  0  0  0
  2  3  2  0  0  0
  3  4  1  0  0  0
  3 29  1  0  0  0
  4  5  2  0  0  0
  4  9  1  0  0  0
  5  6  1  0  0  0
  5 30  1  0  0  0
  6  7  2  0  0  0
  6  8  1  0  0  0
  7 31  1  0  0  0
  8 32  1  0  0  0
  9 10  1  0  0  0
  9 33  1  0  0  0
 10 15  1  0  0  0
 10 11  2  0  0  0
 11 12  1  0  0  0
 11 34  1  0  0  0
 12 13  2  0  0  0
 12 35  1  0  0  0
 13 14  1  0  0  0
 14 15  2  0  0  0
 14 16  1  0  0  0
 16 17  1  0  0  0
 16 36  1  0  0  0
 17 22  1  0  0  0
 17 18  2  0  0  0
 18 19  1  0  0  0
 18 37  1  0  0  0
 19 20  2  0  0  0
 19 38  1  0  0  0
 20 21  1  0  0  0
 20 39  1  0  0  0
 21 22  2  0  0  0
 21 23  1  0  0  0
 22 40  1  0  0  0
 23 24  2  0  0  0
 23 25  1  0  0  0
 25 41  1  0  0  0
 25 42  1  0  0  0
M  END
> <s_m_entry_id>
6005

> <s_m_entry_name>
ligand_docking-pose.194

> <s_m_Source_Path>
/home/csk/Desktop/cluster/DUD-E-result/lck

> <s_m_Source_File>
ligand_docking-pose.sdf

> <i_m_Source_File_Index>
194

> <i_lp_mmshare_version>
53161

> <r_lp_tautomer_probability>
0.999999624730965

> <s_lp_Force_Field>
OPLS_2005

> <r_lp_Energy>
8.497508

> <b_lp_Chiralities_Consistent>
1

> <s_lp_Variant>
413817-1

> <s_i_glide_gridfile>
glide-grid_2of2

> <i_i_glide_lignum>
657

> <i_i_glide_rotatable_bonds>
6

> <r_i_docking_score>
-6.899512043154

> <r_i_glide_ligand_efficiency>
-0.27598048172616

> <r_i_glide_ligand_efficiency_sa>
-0.806971823101976

> <r_i_glide_ligand_efficiency_ln>
-1.63539111591879

> <r_i_glide_gscore>
-6.899512043154

> <r_i_glide_lipo>
-1.98755049606868

> <r_i_glide_hbond>
-0.466438406320766

> <r_i_glide_metal>
0

> <r_i_glide_rewards>
-1.82765042718948

> <r_i_glide_evdw>
-34.8348922729492

> <r_i_glide_ecoul>
-9.27516651153564

> <r_i_glide_erotb>
0.671222591772614

> <r_i_glide_esite>
-0.156075714969869

> <r_i_glide_emodel>
-63.7071729358673

> <r_i_glide_energy>
-44.1100587844849

> <r_i_glide_einternal>
2.33750319480896

> <i_i_glide_confnum>
7

> <i_i_glide_posenum>
317

> <r_i_glide_eff_state_penalty>
0

> <i_f3d_flags>
0

> <s_user_duplicate_titles>
413817

> <s_m_subgroup_title>
dock_pv

> <s_m_subgroupid>
dock_pv1

> <b_m_subgroup_collapsed>
0

$$$$
176106
                    3D
 Schrodinger Suite 2021-1.
 55 59  0  0  1  0            999 V2000
   20.9741   34.8214   86.9122 C   0  0  0  0  0  0
   20.3285   36.0973   86.3851 C   0  0  0  0  0  0
   19.0784   36.4716   86.8873 C   0  0  0  0  0  0
   18.4525   37.6353   86.4535 C   0  0  0  0  0  0
   19.0649   38.4234   85.4874 C   0  0  0  0  0  0
   20.2925   38.0416   84.9447 C   0  0  0  0  0  0
   20.9486   36.8789   85.3931 C   0  0  0  0  0  0
   22.1360   36.4220   84.7822 N   0  0  0  0  0  0
   23.3623   37.0742   84.6065 C   0  0  0  0  0  0
   24.3307   36.5277   83.7450 C   0  0  0  0  0  0
   24.5062   35.4220   82.8755 C   0  0  0  0  0  0
   25.6962   35.4400   82.3169 N   0  0  0  0  0  0
   26.3043   36.5286   82.7430 C   0  0  0  0  0  0
   25.5210   37.2533   83.6158 N   0  0  0  0  0  0
   25.7573   38.4301   84.2404 C   0  0  0  0  0  0
   26.9516   39.1837   84.0676 C   0  0  0  0  0  0
   27.1141   40.4114   84.7259 C   0  0  0  0  0  0
   26.0898   40.8684   85.5665 C   0  0  0  0  0  0
   24.9151   40.1465   85.7536 C   0  0  0  0  0  0
   24.7311   38.9199   85.0890 C   0  0  0  0  0  0
   23.5729   38.2384   85.2728 N   0  0  0  0  0  0
   28.2717   41.1659   84.5676 N   0  0  0  0  0  0
   28.3382   42.6314   84.6864 C   0  0  0  0  0  0
   29.3986   43.0962   85.7126 C   0  0  2  0  0  0
   30.7090   42.6209   85.2871 N   0  0  1  0  0  0
   30.7542   41.1675   85.1097 C   0  0  1  0  0  0
   29.6002   40.6460   84.2015 C   0  0  0  0  0  0
   32.1192   40.6777   84.6106 C   0  0  0  0  0  0
   29.0314   42.7588   87.1708 C   0  0  0  0  0  0
   20.9452   39.0212   83.6870 Cl  0  0  0  0  0  0
   21.3486   34.2160   86.0870 H   0  0  0  0  0  0
   21.8240   35.0607   87.5512 H   0  0  0  0  0  0
   20.2690   34.2053   87.4727 H   0  0  0  0  0  0
   18.5888   35.8624   87.6329 H   0  0  0  0  0  0
   17.4921   37.9264   86.8566 H   0  0  0  0  0  0
   18.5711   39.3231   85.1466 H   0  0  0  0  0  0
   22.0532   35.5292   84.3224 H   0  0  0  0  0  0
   23.7997   34.6378   82.6431 H   0  0  0  0  0  0
   27.2947   36.8403   82.4519 H   0  0  0  0  0  0
   27.7207   38.8175   83.4059 H   0  0  0  0  0  0
   26.1997   41.7967   86.1069 H   0  0  0  0  0  0
   24.1369   40.5158   86.4035 H   0  0  0  0  0  0
   28.5721   43.0240   83.6951 H   0  0  0  0  0  0
   27.3777   43.0960   84.9028 H   0  0  0  0  0  0
   29.4578   44.1822   85.6345 H   0  0  0  0  0  0
   30.9672   43.1079   84.4258 H   0  0  0  0  0  0
   30.6076   40.7366   86.1020 H   0  0  0  0  0  0
   29.5802   39.5575   84.2777 H   0  0  0  0  0  0
   29.7875   40.8959   83.1562 H   0  0  0  0  0  0
   32.1645   39.5884   84.5902 H   0  0  0  0  0  0
   32.3284   41.0415   83.6026 H   0  0  0  0  0  0
   32.9229   41.0278   85.2599 H   0  0  0  0  0  0
   28.1106   43.2593   87.4655 H   0  0  0  0  0  0
   28.8822   41.6876   87.3148 H   0  0  0  0  0  0
   29.8182   43.0793   87.8543 H   0  0  0  0  0  0
  1  2  1  0  0  0
  1 31  1  0  0  0
  1 32  1  0  0  0
  1 33  1  0  0  0
  2  7  1  0  0  0
  2  3  2  0  0  0
  3  4  1  0  0  0
  3 34  1  0  0  0
  4  5  2  0  0  0
  4 35  1  0  0  0
  5  6  1  0  0  0
  5 36  1  0  0  0
  6  7  2  0  0  0
  6 30  1  0  0  0
  7  8  1  0  0  0
  8  9  1  0  0  0
  8 37  1  0  0  0
  9 21  2  0  0  0
  9 10  1  0  0  0
 10 14  1  0  0  0
 10 11  2  0  0  0
 11 12  1  0  0  0
 11 38  1  0  0  0
 12 13  2  0  0  0
 13 14  1  0  0  0
 13 39  1  0  0  0
 14 15  1  0  0  0
 15 20  1  0  0  0
 15 16  2  0  0  0
 16 17  1  0  0  0
 16 40  1  0  0  0
 17 18  2  0  0  0
 17 22  1  0  0  0
 18 19  1  0  0  0
 18 41  1  0  0  0
 19 20  2  0  0  0
 19 42  1  0  0  0
 20 21  1  0  0  0
 22 27  1  0  0  0
 22 23  1  0  0  0
 23 24  1  0  0  0
 23 43  1  0  0  0
 23 44  1  0  0  0
 24 25  1  0  0  0
 24 29  1  0  0  0
 24 45  1  0  0  0
 25 26  1  0  0  0
 25 46  1  0  0  0
 26 27  1  0  0  0
 26 28  1  0  0  0
 26 47  1  0  0  0
 27 48  1  0  0  0
 27 49  1  0  0  0
 28 50  1  0  0  0
 28 51  1  0  0  0
 28 52  1  0  0  0
 29 53  1  0  0  0
 29 54  1  0  0  0
 29 55  1  0  0  0
M  END
> <s_m_entry_id>
6006

> <s_m_entry_name>
ligand_docking-pose.195

> <s_m_Source_Path>
/home/csk/Desktop/cluster/DUD-E-result/lck

> <s_m_Source_File>
ligand_docking-pose.sdf

> <i_m_Source_File_Index>
195

> <i_lp_mmshare_version>
53161

> <r_lp_tautomer_probability>
1

> <s_lp_Force_Field>
OPLS_2005

> <r_lp_Energy>
92.180104

> <b_lp_Chiralities_Consistent>
1

> <s_lp_Variant>
176106-2

> <s_i_glide_gridfile>
glide-grid_2of2

> <i_i_glide_lignum>
320

> <i_i_glide_rotatable_bonds>
3

> <r_i_docking_score>
-6.89868497393641

> <r_i_glide_ligand_efficiency>
-0.22995616579788

> <r_i_glide_ligand_efficiency_sa>
-0.714527272501606

> <r_i_glide_ligand_efficiency_ln>
-1.56745639327156

> <r_i_glide_gscore>
-6.89868497393641

> <r_i_glide_lipo>
-2.44665350605207

> <r_i_glide_hbond>
-0.217752652803901

> <r_i_glide_metal>
0

> <r_i_glide_rewards>
-2.10701094700879

> <r_i_glide_evdw>
-39.3367385864258

> <r_i_glide_ecoul>
-3.28619456291199

> <r_i_glide_erotb>
0.335184633451929

> <r_i_glide_esite>
-0.00268638776548884

> <r_i_glide_emodel>
-58.6689594487069

> <r_i_glide_energy>
-42.6229331493378

> <r_i_glide_einternal>
3.15650963783264

> <i_i_glide_confnum>
65

> <i_i_glide_posenum>
271

> <r_i_glide_eff_state_penalty>
0

> <i_f3d_flags>
0

> <s_user_duplicate_titles>
176106

> <s_m_subgroup_title>
dock_pv

> <s_m_subgroupid>
dock_pv1

> <b_m_subgroup_collapsed>
0

$$$$
75278
                    3D
 Schrodinger Suite 2021-1.
 68 69  0  0  1  0            999 V2000
   16.7090   37.0210   86.7990 C   0  0  0  0  0  0
   17.8800   37.4538   85.9244 C   0  0  0  0  0  0
   17.6825   37.8210   84.7671 O   0  0  0  0  0  0
   19.0965   37.3722   86.4870 N   0  0  0  0  0  0
   20.3855   37.6617   85.8489 C   0  0  1  0  0  0
   20.6101   36.8119   84.5685 C   0  0  0  0  0  0
   22.0507   36.5600   84.1193 C   0  0  0  0  0  0
   22.2283   35.7917   82.9666 C   0  0  0  0  0  0
   23.5030   35.4210   82.5510 C   0  0  0  0  0  0
   24.6124   35.8241   83.2881 C   0  0  0  0  0  0
   24.4470   36.6211   84.4238 C   0  0  0  0  0  0
   23.1721   37.0001   84.8337 C   0  0  0  0  0  0
   25.8538   35.3943   82.9093 O   0  0  0  0  0  0
   27.0466   36.4273   82.5227 P   0  0  0  0  0  0
   27.4016   37.4352   83.5563 O   0  0  0  0  0  0
   28.2599   35.4482   82.0870 O   0  0  0  0  0  0
   26.5500   37.0210   81.1104 O   0  0  0  0  0  0
   20.5787   39.1742   85.6301 C   0  0  0  0  0  0
   20.4758   39.6660   84.5062 O   0  0  0  0  0  0
   20.8627   39.8710   86.7399 N   0  0  0  0  0  0
   21.2307   41.2846   86.7689 C   0  0  1  0  0  0
   20.9860   41.8206   88.1983 C   0  0  0  0  0  0
   21.6474   43.1723   88.5437 C   0  0  0  0  0  0
   20.9348   43.8619   89.7027 C   0  0  0  0  0  0
   21.2428   43.6981   90.8811 O   0  0  0  0  0  0
   19.8919   44.6373   89.2870 O   0  0  0  0  0  0
   22.6709   41.5021   86.2738 C   0  0  0  0  0  0
   23.5562   40.7187   86.6210 O   0  0  0  0  0  0
   22.8646   42.5885   85.5108 N   0  0  0  0  0  0
   24.1616   43.0573   85.0236 C   0  0  0  0  0  0
   24.6510   44.3452   85.6870 C   0  0  0  0  0  0
   23.7500   45.3377   86.0869 C   0  0  0  0  0  0
   24.2119   46.5130   86.6699 C   0  0  0  0  0  0
   25.5869   46.7118   86.8639 C   0  0  0  0  0  0
   26.4805   45.7154   86.4718 C   0  0  0  0  0  0
   26.0194   44.5374   85.8900 C   0  0  0  0  0  0
   26.1374   47.8479   87.4250 O   0  0  0  0  0  0
   25.2759   48.8992   87.8470 C   0  0  0  0  0  0
   21.1066   37.3381   86.5995 H   0  0  0  0  0  0
   20.5606   41.8210   86.0959 H   0  0  0  0  0  0
   16.5500   35.9484   86.7068 H   0  0  0  0  0  0
   16.8837   37.2635   87.8474 H   0  0  0  0  0  0
   15.7940   37.5219   86.4870 H   0  0  0  0  0  0
   19.1559   37.0294   87.4331 H   0  0  0  0  0  0
   20.2090   35.8245   84.7856 H   0  0  0  0  0  0
   20.0260   37.1976   83.7303 H   0  0  0  0  0  0
   21.3725   35.4337   82.4129 H   0  0  0  0  0  0
   23.6224   34.8006   81.6761 H   0  0  0  0  0  0
   25.3065   36.9344   84.9977 H   0  0  0  0  0  0
   23.0819   37.6104   85.7187 H   0  0  0  0  0  0
   28.1501   35.0211   81.2082 H   0  0  0  0  0  0
   26.7515   36.4210   80.3600 H   0  0  0  0  0  0
   20.9572   39.3758   87.6116 H   0  0  0  0  0  0
   19.9069   41.8954   88.3457 H   0  0  0  0  0  0
   21.3500   41.0892   88.9202 H   0  0  0  0  0  0
   22.6939   43.0204   88.8112 H   0  0  0  0  0  0
   21.6561   43.8441   87.6870 H   0  0  0  0  0  0
   19.7500   44.6210   88.3166 H   0  0  0  0  0  0
   22.0689   43.1706   85.2836 H   0  0  0  0  0  0
   24.0720   43.2384   83.9526 H   0  0  0  0  0  0
   24.9268   42.2846   85.1334 H   0  0  0  0  0  0
   22.6874   45.2125   85.9343 H   0  0  0  0  0  0
   23.4860   47.2575   86.9577 H   0  0  0  0  0  0
   27.5410   45.8602   86.6159 H   0  0  0  0  0  0
   26.7312   43.7835   85.5858 H   0  0  0  0  0  0
   25.8744   49.7090   88.2637 H   0  0  0  0  0  0
   24.5869   48.5648   88.6243 H   0  0  0  0  0  0
   24.7041   49.3074   87.0121 H   0  0  0  0  0  0
  1  2  1  0  0  0
  1 41  1  0  0  0
  1 42  1  0  0  0
  1 43  1  0  0  0
  2  3  2  0  0  0
  2  4  1  0  0  0
  4  5  1  0  0  0
  4 44  1  0  0  0
  5 39  1  0  0  0
  5  6  1  0  0  0
  5 18  1  0  0  0
  6  7  1  0  0  0
  6 45  1  0  0  0
  6 46  1  0  0  0
  7 12  1  0  0  0
  7  8  2  0  0  0
  8  9  1  0  0  0
  8 47  1  0  0  0
  9 10  2  0  0  0
  9 48  1  0  0  0
 10 11  1  0  0  0
 10 13  1  0  0  0
 11 12  2  0  0  0
 11 49  1  0  0  0
 12 50  1  0  0  0
 13 14  1  0  0  0
 14 15  2  0  0  0
 14 16  1  0  0  0
 14 17  1  0  0  0
 16 51  1  0  0  0
 17 52  1  0  0  0
 18 19  2  0  0  0
 18 20  1  0  0  0
 20 21  1  0  0  0
 20 53  1  0  0  0
 21 40  1  0  0  0
 21 22  1  0  0  0
 21 27  1  0  0  0
 22 23  1  0  0  0
 22 54  1  0  0  0
 22 55  1  0  0  0
 23 24  1  0  0  0
 23 56  1  0  0  0
 23 57  1  0  0  0
 24 25  2  0  0  0
 24 26  1  0  0  0
 26 58  1  0  0  0
 27 28  2  0  0  0
 27 29  1  0  0  0
 29 30  1  0  0  0
 29 59  1  0  0  0
 30 31  1  0  0  0
 30 60  1  0  0  0
 30 61  1  0  0  0
 31 36  1  0  0  0
 31 32  2  0  0  0
 32 33  1  0  0  0
 32 62  1  0  0  0
 33 34  2  0  0  0
 33 63  1  0  0  0
 34 35  1  0  0  0
 34 37  1  0  0  0
 35 36  2  0  0  0
 35 64  1  0  0  0
 36 65  1  0  0  0
 37 38  1  0  0  0
 38 66  1  0  0  0
 38 67  1  0  0  0
 38 68  1  0  0  0
M  END
> <s_m_entry_id>
6008

> <s_m_entry_name>
ligand_docking-pose.197

> <s_m_Source_Path>
/home/csk/Desktop/cluster/DUD-E-result/lck

> <s_m_Source_File>
ligand_docking-pose.sdf

> <i_m_Source_File_Index>
197

> <i_lp_mmshare_version>
53161

> <r_lp_tautomer_probability>
1

> <s_lp_Force_Field>
OPLS_2005

> <r_lp_Energy>
12.171143

> <b_lp_Chiralities_Consistent>
1

> <s_lp_Variant>
75278-1

> <s_i_glide_gridfile>
glide-grid_2of2

> <i_i_glide_lignum>
862

> <i_i_glide_rotatable_bonds>
20

> <r_i_docking_score>
-6.89029059313406

> <r_i_glide_ligand_efficiency>
-0.181323436661423

> <r_i_glide_ligand_efficiency_sa>
-0.609604933992809

> <r_i_glide_ligand_efficiency_ln>
-1.48574934369318

> <r_i_glide_gscore>
-6.89029059313406

> <r_i_glide_lipo>
-1.74556929310909

> <r_i_glide_hbond>
0

> <r_i_glide_metal>
0

> <r_i_glide_rewards>
-0.406682920106266

> <r_i_glide_evdw>
-42.6611862182617

> <r_i_glide_ecoul>
-22.8542175292969

> <r_i_glide_erotb>
0.952660445699896

> <r_i_glide_esite>
-0.12950688531098

> <r_i_glide_emodel>
-86.3069380098925

> <r_i_glide_energy>
-65.5154037475586

> <r_i_glide_einternal>
19.1092300415039

> <i_i_glide_confnum>
103

> <i_i_glide_posenum>
212

> <r_i_glide_eff_state_penalty>
0

> <i_f3d_flags>
0

> <s_user_duplicate_titles>
75278

> <s_m_subgroup_title>
dock_pv

> <s_m_subgroupid>
dock_pv1

> <b_m_subgroup_collapsed>
0

$$$$
413818
                    3D
 Schrodinger Suite 2021-1.
 42 44  0  0  1  0            999 V2000
   27.5223   37.0049   83.1475 C   0  0  0  0  0  0
   26.0653   36.8629   83.5581 C   0  0  0  0  0  0
   25.5379   37.7160   84.5251 C   0  0  0  0  0  0
   24.1977   37.6158   84.8862 C   0  0  0  0  0  0
   23.3460   36.6895   84.2651 C   0  0  0  0  0  0
   23.8864   35.8211   83.3120 C   0  0  0  0  0  0
   25.2393   35.8930   82.9795 C   0  0  0  0  0  0
   25.7499   35.0056   82.0789 O   0  0  0  0  0  0
   21.9760   36.5897   84.5833 N   0  0  0  0  0  0
   21.0839   37.5465   85.0980 C   0  0  0  0  0  0
   19.7692   37.1829   85.4031 C   0  0  0  0  0  0
   18.9367   38.1785   85.9261 C   0  0  0  0  0  0
   19.3668   39.4509   86.1385 N   0  0  0  0  0  0
   20.6514   39.7226   85.7961 C   0  0  0  0  0  0
   21.5146   38.8180   85.2819 N   0  0  0  0  0  0
   21.0943   41.0292   86.0345 N   0  0  0  0  0  0
   22.2617   41.7411   85.6886 C   0  0  0  0  0  0
   23.2266   41.2820   84.7813 C   0  0  0  0  0  0
   24.3458   42.0592   84.4838 C   0  0  0  0  0  0
   24.4994   43.3172   85.0621 C   0  0  0  0  0  0
   23.5312   43.8188   85.9402 C   0  0  0  0  0  0
   22.4336   43.0042   86.2614 C   0  0  0  0  0  0
   23.6709   45.2130   86.5069 C   0  0  0  0  0  0
   24.7657   45.7635   86.6163 O   0  0  0  0  0  0
   22.5498   45.8282   86.8864 N   0  0  0  0  0  0
   27.5572   37.2282   82.0871 H   0  0  0  0  0  0
   28.0392   37.7980   83.6900 H   0  0  0  0  0  0
   28.0721   36.0752   83.2869 H   0  0  0  0  0  0
   26.1618   38.4568   85.0040 H   0  0  0  0  0  0
   23.8447   38.2702   85.6662 H   0  0  0  0  0  0
   23.2610   35.0830   82.8301 H   0  0  0  0  0  0
   26.6654   35.2065   81.8622 H   0  0  0  0  0  0
   21.5326   35.7238   84.3121 H   0  0  0  0  0  0
   19.4104   36.1759   85.2526 H   0  0  0  0  0  0
   17.9071   37.9732   86.1847 H   0  0  0  0  0  0
   20.3883   41.6031   86.4704 H   0  0  0  0  0  0
   23.1289   40.3346   84.2778 H   0  0  0  0  0  0
   25.0857   41.6978   83.7845 H   0  0  0  0  0  0
   25.3580   43.9162   84.7906 H   0  0  0  0  0  0
   21.6879   43.3664   86.9543 H   0  0  0  0  0  0
   22.6049   46.7559   87.2721 H   0  0  0  0  0  0
   21.6388   45.4230   86.6776 H   0  0  0  0  0  0
  1  2  1  0  0  0
  1 26  1  0  0  0
  1 27  1  0  0  0
  1 28  1  0  0  0
  2  7  1  0  0  0
  2  3  2  0  0  0
  3  4  1  0  0  0
  3 29  1  0  0  0
  4  5  2  0  0  0
  4 30  1  0  0  0
  5  6  1  0  0  0
  5  9  1  0  0  0
  6  7  2  0  0  0
  6 31  1  0  0  0
  7  8  1  0  0  0
  8 32  1  0  0  0
  9 10  1  0  0  0
  9 33  1  0  0  0
 10 15  1  0  0  0
 10 11  2  0  0  0
 11 12  1  0  0  0
 11 34  1  0  0  0
 12 13  2  0  0  0
 12 35  1  0  0  0
 13 14  1  0  0  0
 14 15  2  0  0  0
 14 16  1  0  0  0
 16 17  1  0  0  0
 16 36  1  0  0  0
 17 22  1  0  0  0
 17 18  2  0  0  0
 18 19  1  0  0  0
 18 37  1  0  0  0
 19 20  2  0  0  0
 19 38  1  0  0  0
 20 21  1  0  0  0
 20 39  1  0  0  0
 21 22  2  0  0  0
 21 23  1  0  0  0
 22 40  1  0  0  0
 23 24  2  0  0  0
 23 25  1  0  0  0
 25 41  1  0  0  0
 25 42  1  0  0  0
M  END
> <s_m_entry_id>
6015

> <s_m_entry_name>
ligand_docking-pose.204

> <s_m_Source_Path>
/home/csk/Desktop/cluster/DUD-E-result/lck

> <s_m_Source_File>
ligand_docking-pose.sdf

> <i_m_Source_File_Index>
204

> <i_lp_mmshare_version>
53161

> <r_lp_tautomer_probability>
0.999999624730965

> <s_lp_Force_Field>
OPLS_2005

> <r_lp_Energy>
12.695784

> <b_lp_Chiralities_Consistent>
1

> <s_lp_Variant>
413818-1

> <s_i_glide_gridfile>
glide-grid_2of2

> <i_i_glide_lignum>
658

> <i_i_glide_rotatable_bonds>
6

> <r_i_docking_score>
-6.86030223581073

> <r_i_glide_ligand_efficiency>
-0.274412089432429

> <r_i_glide_ligand_efficiency_sa>
-0.802385816219551

> <r_i_glide_ligand_efficiency_ln>
-1.62609721655532

> <r_i_glide_gscore>
-6.86030223581073

> <r_i_glide_lipo>
-2.0095861221555

> <r_i_glide_hbond>
-0.440090678286075

> <r_i_glide_metal>
0

> <r_i_glide_rewards>
-1.83518116423577

> <r_i_glide_evdw>
-34.6109313964844

> <r_i_glide_ecoul>
-9.06848049163818

> <r_i_glide_erotb>
0.671222591772614

> <r_i_glide_esite>
-0.155848219336048

> <r_i_glide_emodel>
-62.1258726867535

> <r_i_glide_energy>
-43.6794118881226

> <r_i_glide_einternal>
2.47450971603394

> <i_i_glide_confnum>
8

> <i_i_glide_posenum>
381

> <r_i_glide_eff_state_penalty>
0

> <i_f3d_flags>
0

> <s_user_duplicate_titles>
413818

> <s_m_subgroup_title>
dock_pv

> <s_m_subgroupid>
dock_pv1

> <b_m_subgroup_collapsed>
0

$$$$
312890
                    3D
 Schrodinger Suite 2021-1.
 55 58  0  0  1  0            999 V2000
   20.7608   35.0174   86.9352 C   0  0  0  0  0  0
   19.7517   36.0727   86.4872 C   0  0  0  0  0  0
   18.5964   36.2581   87.2564 C   0  0  0  0  0  0
   17.6062   37.1423   86.8363 C   0  0  0  0  0  0
   17.7468   37.8205   85.6269 C   0  0  0  0  0  0
   18.8799   37.6387   84.8389 C   0  0  0  0  0  0
   19.9088   36.7904   85.2804 C   0  0  0  0  0  0
   21.0611   36.6414   84.4889 N   0  0  0  0  0  0
   22.3056   36.9547   84.8994 C   0  0  0  0  0  0
   22.5498   37.5763   85.9367 O   0  0  0  0  0  0
   23.3599   36.4703   84.0447 C   0  0  0  0  0  0
   23.3318   35.6795   82.8870 C   0  0  0  0  0  0
   24.4985   35.4209   82.3227 N   0  0  0  0  0  0
   25.4963   35.9954   82.9461 C   0  0  0  0  0  0
   25.0253   36.8133   84.4104 S   0  0  0  0  0  0
   26.7949   35.9071   82.4870 N   0  0  0  0  0  0
   27.9617   36.6205   82.8022 C   0  0  0  0  0  0
   27.9816   37.8305   83.5058 C   0  0  0  0  0  0
   29.2157   38.4649   83.6871 C   0  0  0  0  0  0
   30.3604   37.9496   83.1699 N   0  0  0  0  0  0
   30.2476   36.7818   82.4868 C   0  0  0  0  0  0
   29.0993   36.0888   82.2890 N   0  0  0  0  0  0
   29.3362   39.6859   84.3677 N   0  0  0  0  0  0
   28.2124   40.3098   85.0677 C   0  0  0  0  0  0
   27.3738   41.2346   84.1601 C   0  0  0  0  0  0
   26.0973   41.6174   84.7710 N   0  0  0  0  0  0
   25.1452   40.5234   84.9366 C   0  0  0  0  0  0
   23.7780   41.1821   85.1420 C   0  0  0  0  0  0
   23.9429   42.5866   84.5562 C   0  0  0  0  0  0
   25.3513   42.5764   83.9640 C   0  0  0  0  0  0
   18.9505   38.4637   83.3194 Cl  0  0  0  0  0  0
   21.1119   34.4314   86.0870 H   0  0  0  0  0  0
   21.6341   35.4764   87.3982 H   0  0  0  0  0  0
   20.3189   34.3019   87.6301 H   0  0  0  0  0  0
   18.4535   35.6999   88.1694 H   0  0  0  0  0  0
   16.7146   37.2862   87.4300 H   0  0  0  0  0  0
   16.9587   38.4782   85.2871 H   0  0  0  0  0  0
   20.9355   36.2002   83.5928 H   0  0  0  0  0  0
   22.4448   35.2703   82.4238 H   0  0  0  0  0  0
   27.0065   35.2497   81.7494 H   0  0  0  0  0  0
   27.0831   38.3030   83.8494 H   0  0  0  0  0  0
   31.1520   36.3597   82.0708 H   0  0  0  0  0  0
   30.2264   40.1634   84.3459 H   0  0  0  0  0  0
   27.6026   39.5425   85.5437 H   0  0  0  0  0  0
   28.6415   40.8916   85.8845 H   0  0  0  0  0  0
   27.9507   42.1444   83.9845 H   0  0  0  0  0  0
   27.2016   40.7689   83.1879 H   0  0  0  0  0  0
   25.1473   39.8402   84.0864 H   0  0  0  0  0  0
   25.4311   39.9187   85.7979 H   0  0  0  0  0  0
   22.9953   40.6214   84.6294 H   0  0  0  0  0  0
   23.5159   41.2243   86.1998 H   0  0  0  0  0  0
   23.8530   43.3581   85.3223 H   0  0  0  0  0  0
   23.1953   42.8065   83.7929 H   0  0  0  0  0  0
   25.8383   43.5509   84.0285 H   0  0  0  0  0  0
   25.3497   42.3231   82.9017 H   0  0  0  0  0  0
  1  2  1  0  0  0
  1 32  1  0  0  0
  1 33  1  0  0  0
  1 34  1  0  0  0
  2  7  1  0  0  0
  2  3  2  0  0  0
  3  4  1  0  0  0
  3 35  1  0  0  0
  4  5  2  0  0  0
  4 36  1  0  0  0
  5  6  1  0  0  0
  5 37  1  0  0  0
  6  7  2  0  0  0
  6 31  1  0  0  0
  7  8  1  0  0  0
  8  9  1  0  0  0
  8 38  1  0  0  0
  9 10  2  0  0  0
  9 11  1  0  0  0
 11 15  1  0  0  0
 11 12  2  0  0  0
 12 13  1  0  0  0
 12 39  1  0  0  0
 13 14  2  0  0  0
 14 15  1  0  0  0
 14 16  1  0  0  0
 16 17  1  0  0  0
 16 40  1  0  0  0
 17 22  1  0  0  0
 17 18  2  0  0  0
 18 19  1  0  0  0
 18 41  1  0  0  0
 19 20  2  0  0  0
 19 23  1  0  0  0
 20 21  1  0  0  0
 21 22  2  0  0  0
 21 42  1  0  0  0
 23 24  1  0  0  0
 23 43  1  0  0  0
 24 25  1  0  0  0
 24 44  1  0  0  0
 24 45  1  0  0  0
 25 26  1  0  0  0
 25 46  1  0  0  0
 25 47  1  0  0  0
 26 30  1  0  0  0
 26 27  1  0  0  0
 27 28  1  0  0  0
 27 48  1  0  0  0
 27 49  1  0  0  0
 28 29  1  0  0  0
 28 50  1  0  0  0
 28 51  1  0  0  0
 29 30  1  0  0  0
 29 52  1  0  0  0
 29 53  1  0  0  0
 30 54  1  0  0  0
 30 55  1  0  0  0
M  END
> <s_m_entry_id>
6016

> <s_m_entry_name>
ligand_docking-pose.205

> <s_m_Source_Path>
/home/csk/Desktop/cluster/DUD-E-result/lck

> <s_m_Source_File>
ligand_docking-pose.sdf

> <i_m_Source_File_Index>
205

> <i_lp_mmshare_version>
53161

> <r_lp_tautomer_probability>
0.999999968245435

> <s_lp_Force_Field>
OPLS_2005

> <r_lp_Energy>
37.405311

> <b_lp_Chiralities_Consistent>
1

> <s_lp_Variant>
312890-1

> <s_i_glide_gridfile>
glide-grid_2of2

> <i_i_glide_lignum>
622

> <i_i_glide_rotatable_bonds>
9

> <r_i_docking_score>
-6.85770694624259

> <r_i_glide_ligand_efficiency>
-0.2212163531046

> <r_i_glide_ligand_efficiency_sa>
-0.694924770839918

> <r_i_glide_ligand_efficiency_ln>
-1.54662307985593

> <r_i_glide_gscore>
-6.85770694624259

> <r_i_glide_lipo>
-2.89990781732008

> <r_i_glide_hbond>
-0.136422434187236

> <r_i_glide_metal>
0

> <r_i_glide_rewards>
-1.59268402465199

> <r_i_glide_evdw>
-48.6337966918945

> <r_i_glide_ecoul>
-3.75996136665344

> <r_i_glide_erotb>
0.766991369509463

> <r_i_glide_esite>
0

> <r_i_glide_emodel>
-63.6992006987551

> <r_i_glide_energy>
-52.393758058548

> <r_i_glide_einternal>
18.5146255493164

> <i_i_glide_confnum>
20

> <i_i_glide_posenum>
314

> <r_i_glide_eff_state_penalty>
0

> <i_f3d_flags>
0

> <s_user_duplicate_titles>
312890

> <s_m_subgroup_title>
dock_pv

> <s_m_subgroupid>
dock_pv1

> <b_m_subgroup_collapsed>
0

$$$$
88232
                    3D
 Schrodinger Suite 2021-1.
 55 58  0  0  1  0            999 V2000
   30.0975   36.1075   81.9881 C   0  0  0  0  0  0
   29.5371   37.0653   82.8865 O   0  0  0  0  0  0
   28.1742   37.0611   83.1352 C   0  0  0  0  0  0
   27.2867   36.1945   82.4872 C   0  0  0  0  0  0
   25.9153   36.1911   82.8053 C   0  0  0  0  0  0
   25.4191   37.0834   83.8047 C   0  0  0  0  0  0
   26.3280   37.9832   84.4246 C   0  0  0  0  0  0
   27.6911   37.9743   84.0843 C   0  0  0  0  0  0
   28.6317   38.8124   84.6586 O   0  0  0  0  0  0
   28.2599   39.8114   85.6029 C   0  0  0  0  0  0
   27.7083   41.0582   84.8912 C   0  0  0  0  0  0
   27.3016   42.1755   85.8741 C   0  0  0  0  0  0
   27.0732   43.4563   85.2003 N   0  0  0  0  0  0
   26.2529   44.3477   86.0347 C   0  0  0  0  0  0
   26.0705   45.7379   85.3874 C   0  0  0  0  0  0
   27.3382   46.3141   85.0842 O   0  0  0  0  0  0
   28.0899   45.5044   84.1848 C   0  0  0  0  0  0
   28.3330   44.1079   84.7991 C   0  0  0  0  0  0
   24.0191   36.9801   84.0879 C   0  0  0  0  0  0
   23.2192   36.1097   83.4238 N   0  0  0  0  0  0
   23.7991   35.3347   82.4869 C   0  0  0  0  0  0
   25.1063   35.3185   82.1451 N   0  0  0  0  0  0
   23.3981   37.8039   85.0474 N   0  0  0  0  0  0
   22.0816   37.7943   85.5461 C   0  0  0  0  0  0
   21.3356   36.6132   85.6750 C   0  0  0  0  0  0
   20.0189   36.6491   86.1250 C   0  0  0  0  0  0
   19.4353   37.8646   86.4752 C   0  0  0  0  0  0
   20.1822   39.0447   86.3991 C   0  0  0  0  0  0
   21.5003   39.0054   85.9362 C   0  0  0  0  0  0
   19.4835   40.5536   86.8746 Cl  0  0  0  0  0  0
   18.1485   37.8829   86.8894 F   0  0  0  0  0  0
   31.1780   36.2483   81.9409 H   0  0  0  0  0  0
   29.9143   35.0855   82.3266 H   0  0  0  0  0  0
   29.7105   36.2210   80.9748 H   0  0  0  0  0  0
   27.6296   35.4979   81.7353 H   0  0  0  0  0  0
   25.9472   38.6652   85.1683 H   0  0  0  0  0  0
   29.1718   40.0885   86.1340 H   0  0  0  0  0  0
   27.5784   39.4249   86.3642 H   0  0  0  0  0  0
   26.8100   40.7601   84.3488 H   0  0  0  0  0  0
   28.4061   41.4053   84.1287 H   0  0  0  0  0  0
   28.0273   42.2757   86.6834 H   0  0  0  0  0  0
   26.3754   41.8565   86.3569 H   0  0  0  0  0  0
   26.7141   44.4613   87.0160 H   0  0  0  0  0  0
   25.2791   43.8878   86.2088 H   0  0  0  0  0  0
   25.4599   45.6615   84.4878 H   0  0  0  0  0  0
   25.5385   46.3998   86.0698 H   0  0  0  0  0  0
   27.5774   45.4223   83.2247 H   0  0  0  0  0  0
   29.0428   45.9959   83.9850 H   0  0  0  0  0  0
   28.8753   43.4879   84.0884 H   0  0  0  0  0  0
   28.9905   44.2060   85.6644 H   0  0  0  0  0  0
   23.1594   34.6265   81.9801 H   0  0  0  0  0  0
   23.9835   38.5371   85.4125 H   0  0  0  0  0  0
   21.7565   35.6516   85.4188 H   0  0  0  0  0  0
   19.4497   35.7335   86.1924 H   0  0  0  0  0  0
   22.0605   39.9266   85.8624 H   0  0  0  0  0  0
  1  2  1  0  0  0
  1 32  1  0  0  0
  1 33  1  0  0  0
  1 34  1  0  0  0
  2  3  1  0  0  0
  3  8  1  0  0  0
  3  4  2  0  0  0
  4  5  1  0  0  0
  4 35  1  0  0  0
  5 22  2  0  0  0
  5  6  1  0  0  0
  6  7  1  0  0  0
  6 19  2  0  0  0
  7  8  2  0  0  0
  7 36  1  0  0  0
  8  9  1  0  0  0
  9 10  1  0  0  0
 10 11  1  0  0  0
 10 37  1  0  0  0
 10 38  1  0  0  0
 11 12  1  0  0  0
 11 39  1  0  0  0
 11 40  1  0  0  0
 12 13  1  0  0  0
 12 41  1  0  0  0
 12 42  1  0  0  0
 13 18  1  0  0  0
 13 14  1  0  0  0
 14 15  1  0  0  0
 14 43  1  0  0  0
 14 44  1  0  0  0
 15 16  1  0  0  0
 15 45  1  0  0  0
 15 46  1  0  0  0
 16 17  1  0  0  0
 17 18  1  0  0  0
 17 47  1  0  0  0
 17 48  1  0  0  0
 18 49  1  0  0  0
 18 50  1  0  0  0
 19 20  1  0  0  0
 19 23  1  0  0  0
 20 21  2  0  0  0
 21 22  1  0  0  0
 21 51  1  0  0  0
 23 24  1  0  0  0
 23 52  1  0  0  0
 24 29  1  0  0  0
 24 25  2  0  0  0
 25 26  1  0  0  0
 25 53  1  0  0  0
 26 27  2  0  0  0
 26 54  1  0  0  0
 27 28  1  0  0  0
 27 31  1  0  0  0
 28 29  2  0  0  0
 28 30  1  0  0  0
 29 55  1  0  0  0
M  END
> <s_m_entry_id>
6018

> <s_m_entry_name>
ligand_docking-pose.207

> <s_m_Source_Path>
/home/csk/Desktop/cluster/DUD-E-result/lck

> <s_m_Source_File>
ligand_docking-pose.sdf

> <i_m_Source_File_Index>
207

> <i_lp_mmshare_version>
53161

> <r_lp_tautomer_probability>
0.999978000241998

> <s_lp_Force_Field>
OPLS_2005

> <r_lp_Energy>
39.381718

> <b_lp_Chiralities_Consistent>
1

> <s_lp_Variant>
88232-1

> <s_i_glide_gridfile>
glide-grid_2of2

> <i_i_glide_lignum>
1010

> <i_i_glide_rotatable_bonds>
8

> <r_i_docking_score>
-6.8434770821366

> <r_i_glide_ligand_efficiency>
-0.220757325230213

> <r_i_glide_ligand_efficiency_sa>
-0.693482789558061

> <r_i_glide_ligand_efficiency_ln>
-1.54341380940706

> <r_i_glide_gscore>
-6.8434770821366

> <r_i_glide_lipo>
-2.72062398664765

> <r_i_glide_hbond>
-0.218998501308131

> <r_i_glide_metal>
0

> <r_i_glide_rewards>
-1.56203138863636

> <r_i_glide_evdw>
-40.8793296813965

> <r_i_glide_ecoul>
-5.97676944732666

> <r_i_glide_erotb>
0.601444300453987

> <r_i_glide_esite>
-0.00278560482961913

> <r_i_glide_emodel>
-64.9785602226184

> <r_i_glide_energy>
-46.8560991287231

> <r_i_glide_einternal>
3.10423564910889

> <i_i_glide_confnum>
19

> <i_i_glide_posenum>
22

> <r_i_glide_eff_state_penalty>
0

> <i_f3d_flags>
0

> <s_user_duplicate_titles>
88232

> <s_m_subgroup_title>
dock_pv

> <s_m_subgroupid>
dock_pv1

> <b_m_subgroup_collapsed>
0

$$$$
312622
                    3D
 Schrodinger Suite 2021-1.
 51 55  0  0  1  0            999 V2000
   20.0911   38.6211   83.7371 C   0  0  0  0  0  0
   19.7387   37.8203   84.9759 C   0  0  0  0  0  0
   18.5530   38.1320   85.6504 C   0  0  0  0  0  0
   18.1300   37.3608   86.7282 C   0  0  0  0  0  0
   18.8939   36.2734   87.1434 C   0  0  0  0  0  0
   20.0922   35.9668   86.4951 C   0  0  0  0  0  0
   20.5247   36.7350   85.4032 C   0  0  0  0  0  0
   21.6938   36.3609   84.7211 N   0  0  0  0  0  0
   22.9339   36.9901   84.5846 C   0  0  0  0  0  0
   23.8417   36.4260   83.6754 C   0  0  0  0  0  0
   23.8840   35.4207   82.6779 C   0  0  0  0  0  0
   25.0713   35.3520   82.1129 N   0  0  0  0  0  0
   25.8217   36.2627   82.6951 C   0  0  0  0  0  0
   25.1171   36.9847   83.6368 N   0  0  0  0  0  0
   25.4815   38.0391   84.3889 C   0  0  0  0  0  0
   24.4971   38.6211   85.2287 C   0  0  0  0  0  0
   23.2409   38.0934   85.3252 N   0  0  0  0  0  0
   24.8841   39.7601   85.9719 C   0  0  0  0  0  0
   26.1943   40.2400   85.8599 C   0  0  0  0  0  0
   27.1180   39.5851   85.0252 C   0  0  0  0  0  0
   26.7539   38.5033   84.2860 N   0  0  0  0  0  0
   28.4297   40.0291   84.8375 N   0  0  0  0  0  0
   28.9847   41.2154   85.5179 C   0  0  0  0  0  0
   30.1770   41.8479   84.7653 C   0  0  0  0  0  0
   31.2512   40.8733   84.5853 N   0  0  0  0  0  0
   30.7260   39.7925   83.7542 C   0  0  0  0  0  0
   29.5238   39.1079   84.4440 C   0  0  0  0  0  0
   32.3898   41.5074   83.9257 C   0  0  0  0  0  0
   21.0122   34.6210   87.0791 Cl  0  0  0  0  0  0
   20.7718   39.4344   83.9899 H   0  0  0  0  0  0
   20.5529   37.9976   82.9728 H   0  0  0  0  0  0
   19.1844   39.0208   83.2874 H   0  0  0  0  0  0
   17.9375   38.9618   85.3305 H   0  0  0  0  0  0
   17.2053   37.6052   87.2324 H   0  0  0  0  0  0
   18.5551   35.6708   87.9747 H   0  0  0  0  0  0
   21.6073   35.4930   84.2154 H   0  0  0  0  0  0
   23.0806   34.7662   82.3663 H   0  0  0  0  0  0
   26.8515   36.4811   82.4522 H   0  0  0  0  0  0
   24.1640   40.2394   86.6189 H   0  0  0  0  0  0
   26.4756   41.1059   86.4381 H   0  0  0  0  0  0
   28.2242   41.9859   85.6356 H   0  0  0  0  0  0
   29.3161   40.9241   86.5162 H   0  0  0  0  0  0
   29.8354   42.2213   83.7977 H   0  0  0  0  0  0
   30.5464   42.7108   85.3226 H   0  0  0  0  0  0
   31.5104   39.0524   83.5885 H   0  0  0  0  0  0
   30.4327   40.1627   82.7698 H   0  0  0  0  0  0
   29.8938   38.6223   85.3481 H   0  0  0  0  0  0
   29.1653   38.3131   83.7904 H   0  0  0  0  0  0
   33.2019   40.7923   83.7869 H   0  0  0  0  0  0
   32.1225   41.9131   82.9479 H   0  0  0  0  0  0
   32.7771   42.3265   84.5327 H   0  0  0  0  0  0
  1  2  1  0  0  0
  1 30  1  0  0  0
  1 31  1  0  0  0
  1 32  1  0  0  0
  2  7  1  0  0  0
  2  3  2  0  0  0
  3  4  1  0  0  0
  3 33  1  0  0  0
  4  5  2  0  0  0
  4 34  1  0  0  0
  5  6  1  0  0  0
  5 35  1  0  0  0
  6  7  2  0  0  0
  6 29  1  0  0  0
  7  8  1  0  0  0
  8  9  1  0  0  0
  8 36  1  0  0  0
  9 17  2  0  0  0
  9 10  1  0  0  0
 10 14  1  0  0  0
 10 11  2  0  0  0
 11 12  1  0  0  0
 11 37  1  0  0  0
 12 13  2  0  0  0
 13 14  1  0  0  0
 13 38  1  0  0  0
 14 15  1  0  0  0
 15 21  1  0  0  0
 15 16  2  0  0  0
 16 17  1  0  0  0
 16 18  1  0  0  0
 18 19  2  0  0  0
 18 39  1  0  0  0
 19 20  1  0  0  0
 19 40  1  0  0  0
 20 21  2  0  0  0
 20 22  1  0  0  0
 22 27  1  0  0  0
 22 23  1  0  0  0
 23 24  1  0  0  0
 23 41  1  0  0  0
 23 42  1  0  0  0
 24 25  1  0  0  0
 24 43  1  0  0  0
 24 44  1  0  0  0
 25 26  1  0  0  0
 25 28  1  0  0  0
 26 27  1  0  0  0
 26 45  1  0  0  0
 26 46  1  0  0  0
 27 47  1  0  0  0
 27 48  1  0  0  0
 28 49  1  0  0  0
 28 50  1  0  0  0
 28 51  1  0  0  0
M  END
> <s_m_entry_id>
6021

> <s_m_entry_name>
ligand_docking-pose.210

> <s_m_Source_Path>
/home/csk/Desktop/cluster/DUD-E-result/lck

> <s_m_Source_File>
ligand_docking-pose.sdf

> <i_m_Source_File_Index>
210

> <i_lp_mmshare_version>
53161

> <r_lp_tautomer_probability>
1

> <s_lp_Force_Field>
OPLS_2005

> <r_lp_Energy>
81.61745

> <b_lp_Chiralities_Consistent>
1

> <s_lp_Variant>
312622-1

> <s_i_glide_gridfile>
glide-grid_2of2

> <i_i_glide_lignum>
397

> <i_i_glide_rotatable_bonds>
3

> <r_i_docking_score>
-6.83570079668113

> <r_i_glide_ligand_efficiency>
-0.235713820575211

> <r_i_glide_ligand_efficiency_sa>
-0.724187536187066

> <r_i_glide_ligand_efficiency_ln>
-1.56520214402382

> <r_i_glide_gscore>
-6.83570079668113

> <r_i_glide_lipo>
-2.20111919590146

> <r_i_glide_hbond>
-0.239046927581366

> <r_i_glide_metal>
0

> <r_i_glide_rewards>
-2.53718241763685

> <r_i_glide_evdw>
-40.0090560913086

> <r_i_glide_ecoul>
-1.417853474617

> <r_i_glide_erotb>
0.354778570196532

> <r_i_glide_esite>
0

> <r_i_glide_emodel>
-56.8340583417161

> <r_i_glide_energy>
-41.4269095659256

> <r_i_glide_einternal>
3.19203305244446

> <i_i_glide_confnum>
33

> <i_i_glide_posenum>
296

> <r_i_glide_eff_state_penalty>
0

> <i_f3d_flags>
0

> <s_user_duplicate_titles>
312622

> <s_m_subgroup_title>
dock_pv

> <s_m_subgroupid>
dock_pv1

> <b_m_subgroup_collapsed>
0

$$$$
176853
                    3D
 Schrodinger Suite 2021-1.
 58 61  0  0  1  0            999 V2000
   20.7732   34.6817   86.9120 C   0  0  0  0  0  0
   20.0071   35.9478   86.5181 C   0  0  0  0  0  0
   18.8059   36.2212   87.1839 C   0  0  0  0  0  0
   18.0740   37.3670   86.8869 C   0  0  0  0  0  0
   18.5508   38.2633   85.9378 C   0  0  0  0  0  0
   19.7443   38.0111   85.2641 C   0  0  0  0  0  0
   20.4798   36.8424   85.5384 C   0  0  0  0  0  0
   21.5988   36.4837   84.7687 N   0  0  0  0  0  0
   22.8486   37.0927   84.6416 C   0  0  0  0  0  0
   23.7981   36.4975   83.8020 C   0  0  0  0  0  0
   23.8694   35.4212   82.8869 C   0  0  0  0  0  0
   25.0758   35.3100   82.3939 N   0  0  0  0  0  0
   25.8071   36.2782   82.9050 C   0  0  0  0  0  0
   25.0812   37.0698   83.7948 N   0  0  0  0  0  0
   25.4027   38.1716   84.5364 C   0  0  0  0  0  0
   26.6993   38.7558   84.6088 C   0  0  0  0  0  0
   26.9374   39.8979   85.3917 C   0  0  0  0  0  0
   25.8797   40.4890   86.1027 C   0  0  0  0  0  0
   24.6045   39.9167   86.0599 C   0  0  0  0  0  0
   24.3556   38.7578   85.2970 C   0  0  0  0  0  0
   23.1160   38.2121   85.3539 N   0  0  0  0  0  0
   26.1513   41.6518   86.8530 N   0  0  0  0  0  0
   25.1591   42.4000   87.6251 C   0  0  0  0  0  0
   25.0251   41.9743   89.1070 C   0  0  0  0  0  0
   26.2856   41.9655   89.8650 N   0  0  0  0  0  0
   26.0613   41.4142   91.1989 C   0  0  0  0  0  0
   26.8624   43.3040   89.9837 C   0  0  0  0  0  0
   28.1871   40.4925   85.4954 O   0  0  0  0  0  0
   29.3234   39.8897   84.8854 C   0  0  0  0  0  0
   27.2404   36.4808   82.4813 C   0  0  0  0  0  0
   20.2544   39.1677   84.0872 Cl  0  0  0  0  0  0
   20.1001   33.9080   87.2830 H   0  0  0  0  0  0
   21.3203   34.2327   86.0869 H   0  0  0  0  0  0
   21.5043   34.9085   87.6869 H   0  0  0  0  0  0
   18.4347   35.5374   87.9343 H   0  0  0  0  0  0
   17.1428   37.5712   87.3965 H   0  0  0  0  0  0
   17.9815   39.1545   85.7153 H   0  0  0  0  0  0
   21.5017   35.6051   84.2839 H   0  0  0  0  0  0
   23.0833   34.7394   82.5917 H   0  0  0  0  0  0
   27.5205   38.3213   84.0765 H   0  0  0  0  0  0
   23.7820   40.3284   86.6232 H   0  0  0  0  0  0
   27.1251   41.8351   87.0539 H   0  0  0  0  0  0
   24.1829   42.3316   87.1457 H   0  0  0  0  0  0
   25.3855   43.4642   87.5568 H   0  0  0  0  0  0
   24.5811   40.9804   89.1346 H   0  0  0  0  0  0
   24.3110   42.6357   89.6021 H   0  0  0  0  0  0
   26.9758   41.4343   91.7907 H   0  0  0  0  0  0
   25.7497   40.3718   91.1345 H   0  0  0  0  0  0
   25.2973   41.9694   91.7460 H   0  0  0  0  0  0
   27.7868   43.2766   90.5631 H   0  0  0  0  0  0
   27.1161   43.7112   89.0044 H   0  0  0  0  0  0
   26.1768   43.9978   90.4734 H   0  0  0  0  0  0
   30.2092   40.4818   85.1154 H   0  0  0  0  0  0
   29.4962   38.8823   85.2650 H   0  0  0  0  0  0
   29.2246   39.8552   83.7995 H   0  0  0  0  0  0
   27.5412   35.7981   81.6874 H   0  0  0  0  0  0
   27.3500   37.4850   82.0870 H   0  0  0  0  0  0
   27.9577   36.3384   83.2870 H   0  0  0  0  0  0
  1  2  1  0  0  0
  1 32  1  0  0  0
  1 33  1  0  0  0
  1 34  1  0  0  0
  2  7  1  0  0  0
  2  3  2  0  0  0
  3  4  1  0  0  0
  3 35  1  0  0  0
  4  5  2  0  0  0
  4 36  1  0  0  0
  5  6  1  0  0  0
  5 37  1  0  0  0
  6  7  2  0  0  0
  6 31  1  0  0  0
  7  8  1  0  0  0
  8  9  1  0  0  0
  8 38  1  0  0  0
  9 21  2  0  0  0
  9 10  1  0  0  0
 10 14  1  0  0  0
 10 11  2  0  0  0
 11 12  1  0  0  0
 11 39  1  0  0  0
 12 13  2  0  0  0
 13 14  1  0  0  0
 13 30  1  0  0  0
 14 15  1  0  0  0
 15 20  1  0  0  0
 15 16  2  0  0  0
 16 17  1  0  0  0
 16 40  1  0  0  0
 17 18  2  0  0  0
 17 28  1  0  0  0
 18 19  1  0  0  0
 18 22  1  0  0  0
 19 20  2  0  0  0
 19 41  1  0  0  0
 20 21  1  0  0  0
 22 23  1  0  0  0
 22 42  1  0  0  0
 23 24  1  0  0  0
 23 43  1  0  0  0
 23 44  1  0  0  0
 24 25  1  0  0  0
 24 45  1  0  0  0
 24 46  1  0  0  0
 25 26  1  0  0  0
 25 27  1  0  0  0
 26 47  1  0  0  0
 26 48  1  0  0  0
 26 49  1  0  0  0
 27 50  1  0  0  0
 27 51  1  0  0  0
 27 52  1  0  0  0
 28 29  1  0  0  0
 29 53  1  0  0  0
 29 54  1  0  0  0
 29 55  1  0  0  0
 30 56  1  0  0  0
 30 57  1  0  0  0
 30 58  1  0  0  0
M  END
> <s_m_entry_id>
6023

> <s_m_entry_name>
ligand_docking-pose.212

> <s_m_Source_Path>
/home/csk/Desktop/cluster/DUD-E-result/lck

> <s_m_Source_File>
ligand_docking-pose.sdf

> <i_m_Source_File_Index>
212

> <i_lp_mmshare_version>
53161

> <r_lp_tautomer_probability>
1

> <s_lp_Force_Field>
OPLS_2005

> <r_lp_Energy>
70.957202

> <b_lp_Chiralities_Consistent>
1

> <s_lp_Variant>
176853-1

> <s_i_glide_gridfile>
glide-grid_2of2

> <i_i_glide_lignum>
343

> <i_i_glide_rotatable_bonds>
7

> <r_i_docking_score>
-6.82935739046892

> <r_i_glide_ligand_efficiency>
-0.220301851305449

> <r_i_glide_ligand_efficiency_sa>
-0.692051972584777

> <r_i_glide_ligand_efficiency_ln>
-1.54022938621942

> <r_i_glide_gscore>
-6.82935739046892

> <r_i_glide_lipo>
-2.76521835879838

> <r_i_glide_hbond>
-0.0957783494236588

> <r_i_glide_metal>
0

> <r_i_glide_rewards>
-1.96244095807639

> <r_i_glide_evdw>
-41.1037712097168

> <r_i_glide_ecoul>
-3.12358498573303

> <r_i_glide_erotb>
0.517806584175304

> <r_i_glide_esite>
0

> <r_i_glide_emodel>
-60.0481212651327

> <r_i_glide_energy>
-44.2273561954498

> <r_i_glide_einternal>
2.93496465682983

> <i_i_glide_confnum>
146

> <i_i_glide_posenum>
164

> <r_i_glide_eff_state_penalty>
0

> <i_f3d_flags>
0

> <s_user_duplicate_titles>
176853

> <s_m_subgroup_title>
dock_pv

> <s_m_subgroupid>
dock_pv1

> <b_m_subgroup_collapsed>
0

$$$$
313290
                    3D
 Schrodinger Suite 2021-1.
 56 59  0  0  1  0            999 V2000
   20.7195   34.9552   86.9440 C   0  0  0  0  0  0
   19.7299   36.0358   86.5095 C   0  0  0  0  0  0
   18.5755   36.2215   87.2815 C   0  0  0  0  0  0
   17.5951   37.1231   86.8760 C   0  0  0  0  0  0
   17.7443   37.8204   85.6784 C   0  0  0  0  0  0
   18.8744   37.6403   84.8876 C   0  0  0  0  0  0
   19.8935   36.7723   85.3130 C   0  0  0  0  0  0
   21.0425   36.6328   84.5155 N   0  0  0  0  0  0
   22.2933   36.8751   84.9485 C   0  0  0  0  0  0
   22.5498   37.4164   86.0273 O   0  0  0  0  0  0
   23.3369   36.4152   84.0689 C   0  0  0  0  0  0
   23.3063   35.6602   82.8872 C   0  0  0  0  0  0
   24.4733   35.4209   82.3113 N   0  0  0  0  0  0
   25.4707   35.9789   82.9511 C   0  0  0  0  0  0
   25.0011   36.7232   84.4551 S   0  0  0  0  0  0
   26.7719   35.9357   82.4869 N   0  0  0  0  0  0
   27.9030   36.6953   82.8295 C   0  0  0  0  0  0
   27.8424   37.9108   83.5230 C   0  0  0  0  0  0
   29.0321   38.5909   83.7624 C   0  0  0  0  0  0
   30.2251   38.1422   83.2879 N   0  0  0  0  0  0
   30.1886   36.9789   82.5868 C   0  0  0  0  0  0
   29.0840   36.2208   82.3554 N   0  0  0  0  0  0
   28.9467   39.7421   84.5529 N   0  0  0  0  0  0
   30.0595   40.6491   84.8041 C   0  0  0  0  0  0
   29.7428   41.6704   85.9232 C   0  0  0  0  0  0
   28.4681   42.3798   85.7258 N   0  0  0  0  0  0
   27.9891   42.9850   86.9756 C   0  0  0  0  0  0
   26.6808   43.7791   86.7560 C   0  0  0  0  0  0
   26.8612   44.7552   85.7339 O   0  0  0  0  0  0
   27.2316   44.1682   84.4891 C   0  0  0  0  0  0
   28.5498   43.3791   84.6498 C   0  0  0  0  0  0
   18.9509   38.4922   83.3829 Cl  0  0  0  0  0  0
   21.5842   35.3844   87.4494 H   0  0  0  0  0  0
   20.2509   34.2215   87.6008 H   0  0  0  0  0  0
   21.0876   34.3940   86.0872 H   0  0  0  0  0  0
   18.4250   35.6499   88.1851 H   0  0  0  0  0  0
   16.7042   37.2657   87.4708 H   0  0  0  0  0  0
   16.9627   38.4877   85.3435 H   0  0  0  0  0  0
   20.9057   36.2720   83.5856 H   0  0  0  0  0  0
   22.4175   35.2670   82.4135 H   0  0  0  0  0  0
   27.0106   35.2978   81.7404 H   0  0  0  0  0  0
   26.9219   38.3521   83.8571 H   0  0  0  0  0  0
   31.1275   36.6032   82.2037 H   0  0  0  0  0  0
   28.0301   40.1047   84.7741 H   0  0  0  0  0  0
   30.9353   40.0639   85.0890 H   0  0  0  0  0  0
   30.3586   41.1554   83.8852 H   0  0  0  0  0  0
   29.7256   41.1307   86.8722 H   0  0  0  0  0  0
   30.5538   42.3971   85.9988 H   0  0  0  0  0  0
   27.8315   42.2037   87.7203 H   0  0  0  0  0  0
   28.7577   43.6431   87.3850 H   0  0  0  0  0  0
   26.3954   44.2879   87.6766 H   0  0  0  0  0  0
   25.8562   43.1096   86.5035 H   0  0  0  0  0  0
   27.3612   44.9601   83.7507 H   0  0  0  0  0  0
   26.4321   43.5255   84.1157 H   0  0  0  0  0  0
   29.3590   44.0756   84.8785 H   0  0  0  0  0  0
   28.8158   42.8978   83.7082 H   0  0  0  0  0  0
  1  2  1  0  0  0
  1 33  1  0  0  0
  1 34  1  0  0  0
  1 35  1  0  0  0
  2  7  1  0  0  0
  2  3  2  0  0  0
  3  4  1  0  0  0
  3 36  1  0  0  0
  4  5  2  0  0  0
  4 37  1  0  0  0
  5  6  1  0  0  0
  5 38  1  0  0  0
  6  7  2  0  0  0
  6 32  1  0  0  0
  7  8  1  0  0  0
  8  9  1  0  0  0
  8 39  1  0  0  0
  9 10  2  0  0  0
  9 11  1  0  0  0
 11 15  1  0  0  0
 11 12  2  0  0  0
 12 13  1  0  0  0
 12 40  1  0  0  0
 13 14  2  0  0  0
 14 15  1  0  0  0
 14 16  1  0  0  0
 16 17  1  0  0  0
 16 41  1  0  0  0
 17 22  1  0  0  0
 17 18  2  0  0  0
 18 19  1  0  0  0
 18 42  1  0  0  0
 19 20  2  0  0  0
 19 23  1  0  0  0
 20 21  1  0  0  0
 21 22  2  0  0  0
 21 43  1  0  0  0
 23 24  1  0  0  0
 23 44  1  0  0  0
 24 25  1  0  0  0
 24 45  1  0  0  0
 24 46  1  0  0  0
 25 26  1  0  0  0
 25 47  1  0  0  0
 25 48  1  0  0  0
 26 31  1  0  0  0
 26 27  1  0  0  0
 27 28  1  0  0  0
 27 49  1  0  0  0
 27 50  1  0  0  0
 28 29  1  0  0  0
 28 51  1  0  0  0
 28 52  1  0  0  0
 29 30  1  0  0  0
 30 31  1  0  0  0
 30 53  1  0  0  0
 30 54  1  0  0  0
 31 55  1  0  0  0
 31 56  1  0  0  0
M  END
> <s_m_entry_id>
6024

> <s_m_entry_name>
ligand_docking-pose.213

> <s_m_Source_Path>
/home/csk/Desktop/cluster/DUD-E-result/lck

> <s_m_Source_File>
ligand_docking-pose.sdf

> <i_m_Source_File_Index>
213

> <i_lp_mmshare_version>
53161

> <r_lp_tautomer_probability>
0.999999968245435

> <s_lp_Force_Field>
OPLS_2005

> <r_lp_Energy>
36.807975

> <b_lp_Chiralities_Consistent>
1

> <s_lp_Variant>
313290-1

> <s_i_glide_gridfile>
glide-grid_2of2

> <i_i_glide_lignum>
623

> <i_i_glide_rotatable_bonds>
9

> <r_i_docking_score>
-6.82924156581606

> <r_i_glide_ligand_efficiency>
-0.213413798931752

> <r_i_glide_ligand_efficiency_sa>
-0.677546577074854

> <r_i_glide_ligand_efficiency_ln>
-1.52925334468045

> <r_i_glide_gscore>
-6.82924156581606

> <r_i_glide_lipo>
-2.77053927799336

> <r_i_glide_hbond>
-0.151505775284425

> <r_i_glide_metal>
0

> <r_i_glide_rewards>
-1.60413417128035

> <r_i_glide_evdw>
-46.671501159668

> <r_i_glide_ecoul>
-4.59953784942627

> <r_i_glide_erotb>
0.720443394139405

> <r_i_glide_esite>
0

> <r_i_glide_emodel>
-66.1819455941624

> <r_i_glide_energy>
-51.2710390090942

> <r_i_glide_einternal>
12.9615659713745

> <i_i_glide_confnum>
17

> <i_i_glide_posenum>
19

> <r_i_glide_eff_state_penalty>
0

> <i_f3d_flags>
0

> <s_user_duplicate_titles>
313290

> <s_m_subgroup_title>
dock_pv

> <s_m_subgroupid>
dock_pv1

> <b_m_subgroup_collapsed>
0

$$$$
312526
                    3D
 Schrodinger Suite 2021-1.
 48 52  0  0  1  0            999 V2000
   20.8736   35.0728   86.9128 C   0  0  0  0  0  0
   19.8061   36.0730   86.4870 C   0  0  0  0  0  0
   18.6596   36.2215   87.2790 C   0  0  0  0  0  0
   17.6409   37.0847   86.8865 C   0  0  0  0  0  0
   17.7501   37.7860   85.6864 C   0  0  0  0  0  0
   18.8752   37.6412   84.8811 C   0  0  0  0  0  0
   19.9192   36.7917   85.2803 C   0  0  0  0  0  0
   21.0462   36.6214   84.4613 N   0  0  0  0  0  0
   22.3139   37.1774   84.6204 C   0  0  0  0  0  0
   22.5461   38.3387   85.3888 C   0  0  0  0  0  0
   21.8454   39.2622   86.2097 C   0  0  0  0  0  0
   22.6507   40.1995   86.6634 N   0  0  0  0  0  0
   23.8492   39.9482   86.1771 C   0  0  0  0  0  0
   23.8589   38.8206   85.3867 N   0  0  0  0  0  0
   24.8711   38.2299   84.7119 C   0  0  0  0  0  0
   24.5659   37.0546   83.9766 C   0  0  0  0  0  0
   23.3051   36.5435   83.9428 N   0  0  0  0  0  0
   25.6152   36.4499   83.2490 C   0  0  0  0  0  0
   26.8861   37.0217   83.2850 C   0  0  0  0  0  0
   27.1128   38.1693   84.0562 C   0  0  0  0  0  0
   26.1178   38.7780   84.7603 N   0  0  0  0  0  0
   28.3842   38.7552   84.1365 N   0  0  0  0  0  0
   29.6229   38.2293   83.5552 C   0  0  0  0  0  0
   30.7899   38.9030   84.2744 C   0  0  0  0  0  0
   30.2095   40.2518   84.6397 C   0  0  1  0  0  0
   28.7603   39.9047   84.9656 C   0  0  0  0  0  0
   30.9048   40.9382   85.7089 N   0  0  0  0  0  0
   18.9307   38.5251   83.3909 Cl  0  0  0  0  0  0
   30.2496   40.9032   83.7638 H   0  0  0  0  0  0
   21.7497   35.5976   87.2905 H   0  0  0  0  0  0
   20.5101   34.3860   87.6808 H   0  0  0  0  0  0
   21.2032   34.4530   86.0815 H   0  0  0  0  0  0
   18.5493   35.6532   88.1891 H   0  0  0  0  0  0
   16.7603   37.2038   87.4977 H   0  0  0  0  0  0
   16.9505   38.4399   85.3700 H   0  0  0  0  0  0
   21.0468   35.7721   83.9132 H   0  0  0  0  0  0
   20.7952   39.2650   86.4645 H   0  0  0  0  0  0
   24.7401   40.5312   86.3534 H   0  0  0  0  0  0
   25.4150   35.5643   82.6641 H   0  0  0  0  0  0
   27.6863   36.5629   82.7246 H   0  0  0  0  0  0
   29.6871   37.1559   83.7323 H   0  0  0  0  0  0
   29.6701   38.4274   82.4860 H   0  0  0  0  0  0
   31.0866   38.3220   85.1510 H   0  0  0  0  0  0
   31.6585   38.9949   83.6207 H   0  0  0  0  0  0
   28.1104   40.7450   84.7148 H   0  0  0  0  0  0
   28.6239   39.6728   86.0240 H   0  0  0  0  0  0
   30.4211   41.7964   85.9341 H   0  0  0  0  0  0
   30.8810   40.3669   86.5484 H   0  0  0  0  0  0
  1  2  1  0  0  0
  1 30  1  0  0  0
  1 31  1  0  0  0
  1 32  1  0  0  0
  2  7  1  0  0  0
  2  3  2  0  0  0
  3  4  1  0  0  0
  3 33  1  0  0  0
  4  5  2  0  0  0
  4 34  1  0  0  0
  5  6  1  0  0  0
  5 35  1  0  0  0
  6  7  2  0  0  0
  6 28  1  0  0  0
  7  8  1  0  0  0
  8  9  1  0  0  0
  8 36  1  0  0  0
  9 17  2  0  0  0
  9 10  1  0  0  0
 10 14  1  0  0  0
 10 11  2  0  0  0
 11 12  1  0  0  0
 11 37  1  0  0  0
 12 13  2  0  0  0
 13 14  1  0  0  0
 13 38  1  0  0  0
 14 15  1  0  0  0
 15 21  1  0  0  0
 15 16  2  0  0  0
 16 17  1  0  0  0
 16 18  1  0  0  0
 18 19  2  0  0  0
 18 39  1  0  0  0
 19 20  1  0  0  0
 19 40  1  0  0  0
 20 21  2  0  0  0
 20 22  1  0  0  0
 22 26  1  0  0  0
 22 23  1  0  0  0
 23 24  1  0  0  0
 23 41  1  0  0  0
 23 42  1  0  0  0
 24 25  1  0  0  0
 24 43  1  0  0  0
 24 44  1  0  0  0
 25 29  1  0  0  0
 25 26  1  0  0  0
 25 27  1  0  0  0
 26 45  1  0  0  0
 26 46  1  0  0  0
 27 47  1  0  0  0
 27 48  1  0  0  0
M  END
> <s_m_entry_id>
6025

> <s_m_entry_name>
ligand_docking-pose.214

> <s_m_Source_Path>
/home/csk/Desktop/cluster/DUD-E-result/lck

> <s_m_Source_File>
ligand_docking-pose.sdf

> <i_m_Source_File_Index>
214

> <i_lp_mmshare_version>
53161

> <r_lp_tautomer_probability>
1

> <s_lp_Force_Field>
OPLS_2005

> <r_lp_Energy>
78.76041

> <b_lp_Chiralities_Consistent>
1

> <s_lp_Variant>
312526-1

> <s_i_glide_gridfile>
glide-grid_2of2

> <i_i_glide_lignum>
387

> <i_i_glide_rotatable_bonds>
3

> <r_i_docking_score>
-6.82605500782467

> <r_i_glide_ligand_efficiency>
-0.243787678850881

> <r_i_glide_ligand_efficiency_sa>
-0.740282976255493

> <r_i_glide_ligand_efficiency_ln>
-1.57565391748983

> <r_i_glide_gscore>
-6.82605500782467

> <r_i_glide_lipo>
-2.74811735480094

> <r_i_glide_hbond>
-0.357489962074835

> <r_i_glide_metal>
0

> <r_i_glide_rewards>
-1.6014781869036

> <r_i_glide_evdw>
-39.2466011047363

> <r_i_glide_ecoul>
-3.56324911117554

> <r_i_glide_erotb>
0.377847917867851

> <r_i_glide_esite>
0

> <r_i_glide_emodel>
-58.1733132288009

> <r_i_glide_energy>
-42.8098502159119

> <r_i_glide_einternal>
3.20637083053589

> <i_i_glide_confnum>
9

> <i_i_glide_posenum>
45

> <r_i_glide_eff_state_penalty>
0

> <i_f3d_flags>
0

> <s_user_duplicate_titles>
312526

> <s_m_subgroup_title>
dock_pv

> <s_m_subgroupid>
dock_pv1

> <b_m_subgroup_collapsed>
0

$$$$
107683
                    3D
 Schrodinger Suite 2021-1.
 52 56  0  0  1  0            999 V2000
   17.7287   37.7874   83.8605 C   0  0  0  0  0  0
   18.9109   38.2210   83.2864 C   0  0  0  0  0  0
   19.9159   38.7177   84.0994 C   0  0  0  0  0  0
   19.7392   38.7851   85.4887 C   0  0  0  0  0  0
   18.5498   38.3334   86.0554 C   0  0  0  0  0  0
   17.5435   37.8210   85.2406 C   0  0  0  0  0  0
   20.7166   39.2933   86.3187 O   0  0  0  0  0  0
   22.0233   39.1138   85.9387 C   0  0  0  0  0  0
   22.5189   37.8199   85.7895 C   0  0  0  0  0  0
   23.7945   37.6282   85.2870 C   0  0  0  0  0  0
   24.6023   38.7200   84.9661 C   0  0  0  0  0  0
   24.1041   40.0178   85.1292 C   0  0  0  0  0  0
   22.8147   40.2156   85.6189 C   0  0  0  0  0  0
   25.9983   38.4981   84.4929 C   0  0  0  0  0  0
   27.0831   39.2903   84.8268 C   0  0  0  0  0  0
   28.2723   38.7889   84.3357 N   0  0  0  0  0  0
   27.9644   37.6265   83.6445 C   0  0  0  0  0  0
   26.5498   37.4163   83.7112 C   0  0  0  0  0  0
   26.0966   36.2463   83.0555 C   0  0  0  0  0  0
   26.9588   35.3826   82.4854 N   0  0  0  0  0  0
   28.2701   35.7147   82.4869 C   0  0  0  0  0  0
   28.8381   36.8114   83.0365 N   0  0  0  0  0  0
   24.7603   35.8804   82.9535 N   0  0  0  0  0  0
   29.6256   39.3022   84.6338 C   0  0  2  0  0  0
   29.6751   40.7308   85.2153 C   0  0  0  0  0  0
   30.9424   41.3802   84.6551 C   0  0  2  0  0  0
   31.0967   40.7382   83.2609 C   0  0  1  0  0  0
   30.5913   39.3058   83.4228 C   0  0  0  0  0  0
   30.2638   41.4210   82.3484 O   0  0  0  0  0  0
   32.0788   41.0911   85.4505 O   0  0  0  0  0  0
   16.9501   37.4215   83.2147 H   0  0  0  0  0  0
   19.0410   38.1940   82.2146 H   0  0  0  0  0  0
   20.8351   39.0618   83.6511 H   0  0  0  0  0  0
   18.3973   38.3921   87.1221 H   0  0  0  0  0  0
   16.6113   37.4892   85.6756 H   0  0  0  0  0  0
   21.9046   36.9690   86.0463 H   0  0  0  0  0  0
   24.1795   36.6223   85.2457 H   0  0  0  0  0  0
   24.7124   40.8744   84.8773 H   0  0  0  0  0  0
   22.4189   41.2155   85.7254 H   0  0  0  0  0  0
   27.0919   40.1706   85.4518 H   0  0  0  0  0  0
   28.9381   35.0244   81.9891 H   0  0  0  0  0  0
   24.0516   36.5095   83.3010 H   0  0  0  0  0  0
   24.5208   35.0288   82.4712 H   0  0  0  0  0  0
   30.0223   38.6054   85.3712 H   0  0  0  0  0  0
   28.8485   41.3305   84.8317 H   0  0  0  0  0  0
   29.6263   40.7593   86.3050 H   0  0  0  0  0  0
   30.8151   42.4639   84.6086 H   0  0  0  0  0  0
   32.1336   40.7836   82.9201 H   0  0  0  0  0  0
   31.4403   38.6642   83.6639 H   0  0  0  0  0  0
   30.1863   38.9156   82.4876 H   0  0  0  0  0  0
   30.5504   42.3498   82.3229 H   0  0  0  0  0  0
   32.0376   41.6221   86.2492 H   0  0  0  0  0  0
  1  6  1  0  0  0
  1  2  2  0  0  0
  1 31  1  0  0  0
  2  3  1  0  0  0
  2 32  1  0  0  0
  3  4  2  0  0  0
  3 33  1  0  0  0
  4  5  1  0  0  0
  4  7  1  0  0  0
  5  6  2  0  0  0
  5 34  1  0  0  0
  6 35  1  0  0  0
  7  8  1  0  0  0
  8 13  1  0  0  0
  8  9  2  0  0  0
  9 10  1  0  0  0
  9 36  1  0  0  0
 10 11  2  0  0  0
 10 37  1  0  0  0
 11 12  1  0  0  0
 11 14  1  0  0  0
 12 13  2  0  0  0
 12 38  1  0  0  0
 13 39  1  0  0  0
 14 18  1  0  0  0
 14 15  2  0  0  0
 15 16  1  0  0  0
 15 40  1  0  0  0
 16 17  1  0  0  0
 16 24  1  0  0  0
 17 22  1  0  0  0
 17 18  2  0  0  0
 18 19  1  0  0  0
 19 20  2  0  0  0
 19 23  1  0  0  0
 20 21  1  0  0  0
 21 22  2  0  0  0
 21 41  1  0  0  0
 23 42  1  0  0  0
 23 43  1  0  0  0
 24 28  1  0  0  0
 24 25  1  0  0  0
 24 44  1  0  0  0
 25 26  1  0  0  0
 25 45  1  0  0  0
 25 46  1  0  0  0
 26 27  1  0  0  0
 26 30  1  0  0  0
 26 47  1  0  0  0
 27 28  1  0  0  0
 27 29  1  0  0  0
 27 48  1  0  0  0
 28 49  1  0  0  0
 28 50  1  0  0  0
 29 51  1  0  0  0
 30 52  1  0  0  0
M  END
> <s_m_entry_id>
6026

> <s_m_entry_name>
ligand_docking-pose.215

> <s_m_Source_Path>
/home/csk/Desktop/cluster/DUD-E-result/lck

> <s_m_Source_File>
ligand_docking-pose.sdf

> <i_m_Source_File_Index>
215

> <i_lp_mmshare_version>
53161

> <r_lp_tautomer_probability>
1

> <s_lp_Force_Field>
OPLS_2005

> <r_lp_Energy>
47.365379

> <b_lp_Chiralities_Consistent>
1

> <s_lp_Variant>
107683-2

> <s_i_glide_gridfile>
glide-grid_2of2

> <i_i_glide_lignum>
118

> <i_i_glide_rotatable_bonds>
6

> <r_i_docking_score>
-6.82523350326126

> <r_i_glide_ligand_efficiency>
-0.227507783442042

> <r_i_glide_ligand_efficiency_sa>
-0.706919579267166

> <r_i_glide_ligand_efficiency_ln>
-1.5507674188163

> <r_i_glide_gscore>
-6.82523350326126

> <r_i_glide_lipo>
-2.6183113198592

> <r_i_glide_hbond>
-0.456

> <r_i_glide_metal>
0

> <r_i_glide_rewards>
-1.1419291438843

> <r_i_glide_evdw>
-37.8558006286621

> <r_i_glide_ecoul>
-7.83063411712646

> <r_i_glide_erotb>
0.484651426022713

> <r_i_glide_esite>
-0.0262593165384008

> <r_i_glide_emodel>
-62.6642135344903

> <r_i_glide_energy>
-45.6864347457886

> <r_i_glide_einternal>
5.16293144226074

> <i_i_glide_confnum>
54

> <i_i_glide_posenum>
2

> <r_i_glide_eff_state_penalty>
0

> <i_f3d_flags>
0

> <s_user_duplicate_titles>
107683

> <s_m_subgroup_title>
dock_pv

> <s_m_subgroupid>
dock_pv1

> <b_m_subgroup_collapsed>
0

$$$$
312575
                    3D
 Schrodinger Suite 2021-1.
 47 51  0  0  1  0            999 V2000
   21.0194   35.2900   86.8870 C   0  0  0  0  0  0
   19.9595   36.2538   86.3571 C   0  0  0  0  0  0
   18.8071   36.4752   87.1191 C   0  0  0  0  0  0
   17.7754   37.2752   86.6356 C   0  0  0  0  0  0
   17.8647   37.8213   85.3599 C   0  0  0  0  0  0
   18.9944   37.5961   84.5741 C   0  0  0  0  0  0
   20.0701   36.8433   85.0804 C   0  0  0  0  0  0
   21.2072   36.6210   84.2832 N   0  0  0  0  0  0
   22.5209   37.0738   84.4462 C   0  0  0  0  0  0
   23.5370   36.4624   83.6870 C   0  0  0  0  0  0
   23.7018   35.4210   82.7406 C   0  0  0  0  0  0
   24.9583   35.3090   82.3642 N   0  0  0  0  0  0
   25.6315   36.2532   82.9844 C   0  0  0  0  0  0
   24.8169   37.0111   83.7986 N   0  0  0  0  0  0
   25.0937   38.0924   84.5522 C   0  0  0  0  0  0
   24.0263   38.6671   85.2867 C   0  0  0  0  0  0
   22.7675   38.1447   85.2518 N   0  0  0  0  0  0
   24.3213   39.8135   86.0568 C   0  0  0  0  0  0
   25.6224   40.3262   86.0537 C   0  0  0  0  0  0
   26.6323   39.7007   85.2993 C   0  0  0  0  0  0
   26.3593   38.5937   84.5508 N   0  0  0  0  0  0
   27.9266   40.2290   85.1860 N   0  0  0  0  0  0
   28.4685   41.1687   86.1915 C   0  0  0  0  0  0
   29.7348   41.9311   85.7403 C   0  0  0  0  0  0
   30.7261   41.0192   85.2975 O   0  0  0  0  0  0
   30.2677   40.2668   84.1882 C   0  0  0  0  0  0
   29.0309   39.4376   84.5930 C   0  0  0  0  0  0
   18.9927   38.2210   82.9601 Cl  0  0  0  0  0  0
   21.8889   35.8380   87.2506 H   0  0  0  0  0  0
   20.6406   34.6395   87.6810 H   0  0  0  0  0  0
   21.3498   34.6218   86.0915 H   0  0  0  0  0  0
   18.6948   36.0111   88.0872 H   0  0  0  0  0  0
   16.8917   37.4493   87.2331 H   0  0  0  0  0  0
   17.0430   38.4120   84.9788 H   0  0  0  0  0  0
   21.1146   35.8396   83.6535 H   0  0  0  0  0  0
   22.9496   34.7513   82.3498 H   0  0  0  0  0  0
   26.6867   36.4557   82.8754 H   0  0  0  0  0  0
   23.5330   40.2864   86.6240 H   0  0  0  0  0  0
   25.8142   41.2169   86.6295 H   0  0  0  0  0  0
   27.7309   41.9336   86.4256 H   0  0  0  0  0  0
   28.6626   40.6248   87.1177 H   0  0  0  0  0  0
   30.1406   42.5042   86.5742 H   0  0  0  0  0  0
   29.4999   42.6545   84.9562 H   0  0  0  0  0  0
   31.0698   39.6035   83.8633 H   0  0  0  0  0  0
   30.0449   40.9205   83.3421 H   0  0  0  0  0  0
   29.3197   38.6478   85.2867 H   0  0  0  0  0  0
   28.6804   38.9389   83.6887 H   0  0  0  0  0  0
  1  2  1  0  0  0
  1 29  1  0  0  0
  1 30  1  0  0  0
  1 31  1  0  0  0
  2  7  1  0  0  0
  2  3  2  0  0  0
  3  4  1  0  0  0
  3 32  1  0  0  0
  4  5  2  0  0  0
  4 33  1  0  0  0
  5  6  1  0  0  0
  5 34  1  0  0  0
  6  7  2  0  0  0
  6 28  1  0  0  0
  7  8  1  0  0  0
  8  9  1  0  0  0
  8 35  1  0  0  0
  9 17  2  0  0  0
  9 10  1  0  0  0
 10 14  1  0  0  0
 10 11  2  0  0  0
 11 12  1  0  0  0
 11 36  1  0  0  0
 12 13  2  0  0  0
 13 14  1  0  0  0
 13 37  1  0  0  0
 14 15  1  0  0  0
 15 21  1  0  0  0
 15 16  2  0  0  0
 16 17  1  0  0  0
 16 18  1  0  0  0
 18 19  2  0  0  0
 18 38  1  0  0  0
 19 20  1  0  0  0
 19 39  1  0  0  0
 20 21  2  0  0  0
 20 22  1  0  0  0
 22 27  1  0  0  0
 22 23  1  0  0  0
 23 24  1  0  0  0
 23 40  1  0  0  0
 23 41  1  0  0  0
 24 25  1  0  0  0
 24 42  1  0  0  0
 24 43  1  0  0  0
 25 26  1  0  0  0
 26 27  1  0  0  0
 26 44  1  0  0  0
 26 45  1  0  0  0
 27 46  1  0  0  0
 27 47  1  0  0  0
M  END
> <s_m_entry_id>
6028

> <s_m_entry_name>
ligand_docking-pose.217

> <s_m_Source_Path>
/home/csk/Desktop/cluster/DUD-E-result/lck

> <s_m_Source_File>
ligand_docking-pose.sdf

> <i_m_Source_File_Index>
217

> <i_lp_mmshare_version>
53161

> <r_lp_tautomer_probability>
1

> <s_lp_Force_Field>
OPLS_2005

> <r_lp_Energy>
69.633491

> <b_lp_Chiralities_Consistent>
1

> <s_lp_Variant>
312575-1

> <s_i_glide_gridfile>
glide-grid_2of2

> <i_i_glide_lignum>
404

> <i_i_glide_rotatable_bonds>
3

> <r_i_docking_score>
-6.81367522167848

> <r_i_glide_ligand_efficiency>
-0.243345543631374

> <r_i_glide_ligand_efficiency_sa>
-0.738940393325352

> <r_i_glide_ligand_efficiency_ln>
-1.57279629936097

> <r_i_glide_gscore>
-6.81367522167848

> <r_i_glide_lipo>
-2.2600302805235

> <r_i_glide_hbond>
-0.0819705226733573

> <r_i_glide_metal>
0

> <r_i_glide_rewards>
-2.60318429796846

> <r_i_glide_evdw>
-39.3996887207031

> <r_i_glide_ecoul>
-1.83107483386993

> <r_i_glide_erotb>
0.376155540602491

> <r_i_glide_esite>
0

> <r_i_glide_emodel>
-56.3973394823105

> <r_i_glide_energy>
-41.2307635545731

> <r_i_glide_einternal>
2.73180723190308

> <i_i_glide_confnum>
38

> <i_i_glide_posenum>
391

> <r_i_glide_eff_state_penalty>
0

> <i_f3d_flags>
0

> <s_user_duplicate_titles>
312575

> <s_m_subgroup_title>
dock_pv

> <s_m_subgroupid>
dock_pv1

> <b_m_subgroup_collapsed>
0

$$$$
137349
                    3D
 Schrodinger Suite 2021-1.
 35 38  0  0  1  0            999 V2000
   20.9807   35.3921   86.8869 C   0  0  0  0  0  0
   19.9029   36.3152   86.3182 C   0  0  0  0  0  0
   18.7599   36.5620   87.0860 C   0  0  0  0  0  0
   17.7182   37.3355   86.5839 C   0  0  0  0  0  0
   17.7895   37.8376   85.2893 C   0  0  0  0  0  0
   18.9144   37.5989   84.5020 C   0  0  0  0  0  0
   19.9917   36.8544   85.0160 C   0  0  0  0  0  0
   21.1231   36.6210   84.2134 N   0  0  0  0  0  0
   22.4332   37.0702   84.4026 C   0  0  0  0  0  0
   23.4810   36.4605   83.6919 C   0  0  0  0  0  0
   23.6888   35.4211   82.7508 C   0  0  0  0  0  0
   24.9647   35.3040   82.4522 N   0  0  0  0  0  0
   25.6085   36.2312   83.1289 C   0  0  0  0  0  0
   24.7570   36.9917   83.9021 N   0  0  0  0  0  0
   25.0101   38.0501   84.7046 C   0  0  0  0  0  0
   26.3163   38.5763   84.8934 C   0  0  0  0  0  0
   26.4951   39.6749   85.7298 C   0  0  0  0  0  0
   25.4103   40.2636   86.3746 C   0  0  0  0  0  0
   24.1177   39.7669   86.2095 C   0  0  0  0  0  0
   23.8977   38.6398   85.3697 C   0  0  0  0  0  0
   22.6436   38.1299   85.2251 N   0  0  0  0  0  0
   22.6801   40.6091   87.1419 Br  0  0  0  0  0  0
   18.9169   38.2210   82.8870 Cl  0  0  0  0  0  0
   21.8236   35.9737   87.2606 H   0  0  0  0  0  0
   20.6047   34.7445   87.6850 H   0  0  0  0  0  0
   21.3501   34.7172   86.1149 H   0  0  0  0  0  0
   18.6657   36.1427   88.0771 H   0  0  0  0  0  0
   16.8422   37.5294   87.1862 H   0  0  0  0  0  0
   16.9644   38.4188   84.9013 H   0  0  0  0  0  0
   21.0331   35.8357   83.5880 H   0  0  0  0  0  0
   22.9520   34.7649   82.3095 H   0  0  0  0  0  0
   26.6718   36.4077   83.0854 H   0  0  0  0  0  0
   27.1703   38.1373   84.3986 H   0  0  0  0  0  0
   27.4863   40.0793   85.8784 H   0  0  0  0  0  0
   25.5739   41.1176   87.0155 H   0  0  0  0  0  0
  1  2  1  0  0  0
  1 24  1  0  0  0
  1 25  1  0  0  0
  1 26  1  0  0  0
  2  7  1  0  0  0
  2  3  2  0  0  0
  3  4  1  0  0  0
  3 27  1  0  0  0
  4  5  2  0  0  0
  4 28  1  0  0  0
  5  6  1  0  0  0
  5 29  1  0  0  0
  6  7  2  0  0  0
  6 23  1  0  0  0
  7  8  1  0  0  0
  8  9  1  0  0  0
  8 30  1  0  0  0
  9 21  2  0  0  0
  9 10  1  0  0  0
 10 14  1  0  0  0
 10 11  2  0  0  0
 11 12  1  0  0  0
 11 31  1  0  0  0
 12 13  2  0  0  0
 13 14  1  0  0  0
 13 32  1  0  0  0
 14 15  1  0  0  0
 15 20  1  0  0  0
 15 16  2  0  0  0
 16 17  1  0  0  0
 16 33  1  0  0  0
 17 18  2  0  0  0
 17 34  1  0  0  0
 18 19  1  0  0  0
 18 35  1  0  0  0
 19 20  2  0  0  0
 19 22  1  0  0  0
 20 21  1  0  0  0
M  END
> <s_m_entry_id>
6029

> <s_m_entry_name>
ligand_docking-pose.218

> <s_m_Source_Path>
/home/csk/Desktop/cluster/DUD-E-result/lck

> <s_m_Source_File>
ligand_docking-pose.sdf

> <i_m_Source_File_Index>
218

> <i_lp_mmshare_version>
53161

> <r_lp_tautomer_probability>
1

> <s_lp_Force_Field>
OPLS_2005

> <r_lp_Energy>
58.754072

> <b_lp_Chiralities_Consistent>
1

> <s_lp_Variant>
137349-1

> <s_i_glide_gridfile>
glide-grid_2of2

> <i_i_glide_lignum>
308

> <i_i_glide_rotatable_bonds>
2

> <r_i_docking_score>
-6.81319400837856

> <r_i_glide_ligand_efficiency>
-0.296225826451242

> <r_i_glide_ligand_efficiency_sa>
-0.842426845543452

> <r_i_glide_ligand_efficiency_ln>
-1.64749208985359

> <r_i_glide_gscore>
-6.81319400837856

> <r_i_glide_lipo>
-2.57972939346324

> <r_i_glide_hbond>
-0.0385858335175753

> <r_i_glide_metal>
0

> <r_i_glide_rewards>
-2.3549404253787

> <r_i_glide_evdw>
-34.9694747924805

> <r_i_glide_ecoul>
-2.33773064613342

> <r_i_glide_erotb>
0.259194980525001

> <r_i_glide_esite>
0

> <r_i_glide_emodel>
-52.8783027547383

> <r_i_glide_energy>
-37.3072054386139

> <r_i_glide_einternal>
1.116659283638

> <i_i_glide_confnum>
2

> <i_i_glide_posenum>
247

> <r_i_glide_eff_state_penalty>
0

> <i_f3d_flags>
0

> <s_user_duplicate_titles>
137349

> <s_m_subgroup_title>
dock_pv

> <s_m_subgroupid>
dock_pv1

> <b_m_subgroup_collapsed>
0

$$$$
490309
                    3D
 Schrodinger Suite 2021-1.
 52 56  0  0  1  0            999 V2000
   21.9215   35.8201   85.6253 C   0  0  0  0  0  0
   21.8988   37.3217   85.4363 C   0  0  0  0  0  0
   20.6853   38.0151   85.5099 C   0  0  0  0  0  0
   19.3262   37.6033   85.7048 C   0  0  0  0  0  0
   18.5503   38.7304   85.6293 C   0  0  0  0  0  0
   19.3630   39.8212   85.4651 N   0  0  0  0  0  0
   20.6778   39.4282   85.3505 C   0  0  0  0  0  0
   21.8438   40.1582   85.1130 C   0  0  0  0  0  0
   23.0257   39.4269   84.9849 C   0  0  0  0  0  0
   23.0711   38.0357   85.1310 C   0  0  0  0  0  0
   24.2458   37.3016   84.8769 N   0  0  0  0  0  0
   25.5546   37.6872   84.5145 C   0  0  0  0  0  0
   26.2701   38.6921   85.2231 C   0  0  0  0  0  0
   25.9536   39.4479   86.3945 C   0  0  0  0  0  0
   26.9694   40.2966   86.8014 C   0  0  0  0  0  0
   28.3272   40.2930   85.6971 S   0  0  0  0  0  0
   27.5760   39.0223   84.7551 C   0  0  0  0  0  0
   28.2005   38.4345   83.7377 N   0  0  0  0  0  0
   27.5289   37.4248   83.1396 C   0  0  0  0  0  0
   26.2372   37.0180   83.4709 C   0  0  0  0  0  0
   25.6726   35.9026   82.7053 C   0  0  0  0  0  0
   25.2327   35.0230   82.0930 N   0  0  0  0  0  0
   27.0148   41.0944   88.0167 C   0  0  0  0  0  0
   25.9909   41.3777   88.8522 C   0  0  0  0  0  0
   26.1682   42.1419   90.0777 C   0  0  0  0  0  0
   27.2570   42.6480   90.3631 O   0  0  0  0  0  0
   25.0988   42.2510   90.9103 N   0  0  0  0  0  0
   25.2048   42.9526   92.1982 C   0  0  0  0  0  0
   23.7639   42.9917   92.6993 C   0  0  0  0  0  0
   23.1435   41.7436   92.1058 C   0  0  0  0  0  0
   23.7642   41.6609   90.7121 C   0  0  0  0  0  0
   19.0020   40.7634   85.4182 H   0  0  0  0  0  0
   20.9691   35.4239   85.9770 H   0  0  0  0  0  0
   22.1451   35.3684   84.6607 H   0  0  0  0  0  0
   22.6751   35.5445   86.3642 H   0  0  0  0  0  0
   18.9521   36.5998   85.8459 H   0  0  0  0  0  0
   17.4778   38.8505   85.6871 H   0  0  0  0  0  0
   21.8298   41.2313   84.9831 H   0  0  0  0  0  0
   23.9190   39.9703   84.7182 H   0  0  0  0  0  0
   24.0308   36.3419   84.6453 H   0  0  0  0  0  0
   25.0274   39.3281   86.9340 H   0  0  0  0  0  0
   28.0793   36.9191   82.3599 H   0  0  0  0  0  0
   28.0050   41.4695   88.2418 H   0  0  0  0  0  0
   25.0019   41.0212   88.6171 H   0  0  0  0  0  0
   25.6091   43.9592   92.0904 H   0  0  0  0  0  0
   25.8170   42.3660   92.8849 H   0  0  0  0  0  0
   23.2614   43.8770   92.3069 H   0  0  0  0  0  0
   23.7012   43.0394   93.7856 H   0  0  0  0  0  0
   23.4308   40.8698   92.6964 H   0  0  0  0  0  0
   22.0537   41.7678   92.0760 H   0  0  0  0  0  0
   23.7948   40.6216   90.3899 H   0  0  0  0  0  0
   23.1858   42.2756   90.0205 H   0  0  0  0  0  0
  1  2  1  0  0  0
  1 33  1  0  0  0
  1 34  1  0  0  0
  1 35  1  0  0  0
  2 10  1  0  0  0
  2  3  2  0  0  0
  3  7  1  0  0  0
  3  4  1  0  0  0
  4  5  2  0  0  0
  4 36  1  0  0  0
  5  6  1  0  0  0
  5 37  1  0  0  0
  6 32  1  0  0  0
  6  7  1  0  0  0
  7  8  2  0  0  0
  8  9  1  0  0  0
  8 38  1  0  0  0
  9 10  2  0  0  0
  9 39  1  0  0  0
 10 11  1  0  0  0
 11 12  1  0  0  0
 11 40  1  0  0  0
 12 20  1  0  0  0
 12 13  2  0  0  0
 13 17  1  0  0  0
 13 14  1  0  0  0
 14 15  2  0  0  0
 14 41  1  0  0  0
 15 16  1  0  0  0
 15 23  1  0  0  0
 16 17  1  0  0  0
 17 18  2  0  0  0
 18 19  1  0  0  0
 19 20  2  0  0  0
 19 42  1  0  0  0
 20 21  1  0  0  0
 21 22  3  0  0  0
 23 24  2  0  0  0
 23 43  1  0  0  0
 24 25  1  0  0  0
 24 44  1  0  0  0
 25 26  2  0  0  0
 25 27  1  0  0  0
 27 31  1  0  0  0
 27 28  1  0  0  0
 28 29  1  0  0  0
 28 45  1  0  0  0
 28 46  1  0  0  0
 29 30  1  0  0  0
 29 47  1  0  0  0
 29 48  1  0  0  0
 30 31  1  0  0  0
 30 49  1  0  0  0
 30 50  1  0  0  0
 31 51  1  0  0  0
 31 52  1  0  0  0
M  END
> <s_m_entry_id>
6031

> <s_m_entry_name>
ligand_docking-pose.220

> <s_m_Source_Path>
/home/csk/Desktop/cluster/DUD-E-result/lck

> <s_m_Source_File>
ligand_docking-pose.sdf

> <i_m_Source_File_Index>
220

> <i_lp_mmshare_version>
53161

> <r_lp_tautomer_probability>
1

> <s_lp_Force_Field>
OPLS_2005

> <r_lp_Energy>
48.729265

> <b_lp_Chiralities_Consistent>
1

> <s_lp_Variant>
490309-1

> <s_i_glide_gridfile>
glide-grid_2of2

> <i_i_glide_lignum>
162

> <i_i_glide_rotatable_bonds>
5

> <r_i_docking_score>
-6.80894752568615

> <r_i_glide_ligand_efficiency>
-0.219643468570521

> <r_i_glide_ligand_efficiency_sa>
-0.689983741801774

> <r_i_glide_ligand_efficiency_ln>
-1.53562633622367

> <r_i_glide_gscore>
-6.80894752568615

> <r_i_glide_lipo>
-3.10208204151078

> <r_i_glide_hbond>
-0.32

> <r_i_glide_metal>
0

> <r_i_glide_rewards>
-1.2440015816619

> <r_i_glide_evdw>
-41.8025398254395

> <r_i_glide_ecoul>
-3.24848914146423

> <r_i_glide_erotb>
0.434536459978129

> <r_i_glide_esite>
0

> <r_i_glide_emodel>
-58.1626626815939

> <r_i_glide_energy>
-45.0510289669037

> <r_i_glide_einternal>
8.04074478149414

> <i_i_glide_confnum>
11

> <i_i_glide_posenum>
268

> <r_i_glide_eff_state_penalty>
0

> <i_f3d_flags>
0

> <s_user_duplicate_titles>
490309

> <s_m_subgroup_title>
dock_pv

> <s_m_subgroupid>
dock_pv1

> <b_m_subgroup_collapsed>
0

$$$$
413827
                    3D
 Schrodinger Suite 2021-1.
 43 45  0  0  1  0            999 V2000
   21.5494   42.7774   88.9366 C   0  0  0  0  0  0
   22.1497   42.6916   87.5390 C   0  0  0  0  0  0
   23.2327   43.5160   87.2146 C   0  0  0  0  0  0
   23.7847   43.4886   85.9349 C   0  0  0  0  0  0
   23.2642   42.6290   84.9722 C   0  0  0  0  0  0
   22.1940   41.7971   85.2878 C   0  0  0  0  0  0
   21.6225   41.8211   86.5672 C   0  0  0  0  0  0
   20.4961   41.0222   86.8476 N   0  0  0  0  0  0
   20.2539   39.6965   86.4679 C   0  0  0  0  0  0
   18.9839   39.1373   86.5998 C   0  0  0  0  0  0
   18.8385   37.7956   86.2319 C   0  0  0  0  0  0
   19.8781   37.0501   85.7664 N   0  0  0  0  0  0
   21.0769   37.6796   85.6632 C   0  0  0  0  0  0
   21.2925   38.9705   85.9986 N   0  0  0  0  0  0
   22.1399   36.9365   85.1325 N   0  0  0  0  0  0
   23.4649   37.2879   84.8008 C   0  0  0  0  0  0
   24.1227   38.4299   85.2855 C   0  0  0  0  0  0
   25.4236   38.7247   84.8912 C   0  0  0  0  0  0
   26.0916   37.8836   84.0086 C   0  0  0  0  0  0
   25.4642   36.7310   83.5081 C   0  0  0  0  0  0
   24.1540   36.4459   83.9257 C   0  0  0  0  0  0
   26.1465   35.8209   82.5144 C   0  0  0  0  0  0
   25.5990   34.8078   82.0870 O   0  0  0  0  0  0
   27.3575   36.1723   82.0878 N   0  0  0  0  0  0
   23.7956   42.6210   83.6866 N   0  0  0  0  0  0
   22.1136   43.4441   89.5904 H   0  0  0  0  0  0
   20.5220   43.1395   88.8778 H   0  0  0  0  0  0
   21.5275   41.7903   89.3983 H   0  0  0  0  0  0
   23.6386   44.1977   87.9471 H   0  0  0  0  0  0
   24.6084   44.1440   85.6926 H   0  0  0  0  0  0
   21.7810   41.1519   84.5267 H   0  0  0  0  0  0
   19.7058   41.5345   87.2105 H   0  0  0  0  0  0
   18.1500   39.7151   86.9644 H   0  0  0  0  0  0
   17.8797   37.3024   86.3059 H   0  0  0  0  0  0
   21.8673   35.9992   84.8772 H   0  0  0  0  0  0
   23.6666   39.1054   85.9884 H   0  0  0  0  0  0
   25.9136   39.6089   85.2731 H   0  0  0  0  0  0
   27.0976   38.1536   83.7237 H   0  0  0  0  0  0
   23.6486   35.5696   83.5425 H   0  0  0  0  0  0
   27.7730   35.6256   81.3423 H   0  0  0  0  0  0
   27.8512   36.9523   82.4871 H   0  0  0  0  0  0
   24.1488   43.5271   83.3848 H   0  0  0  0  0  0
   23.2725   42.0801   83.0162 H   0  0  0  0  0  0
  1  2  1  0  0  0
  1 26  1  0  0  0
  1 27  1  0  0  0
  1 28  1  0  0  0
  2  7  1  0  0  0
  2  3  2  0  0  0
  3  4  1  0  0  0
  3 29  1  0  0  0
  4  5  2  0  0  0
  4 30  1  0  0  0
  5  6  1  0  0  0
  5 25  1  0  0  0
  6  7  2  0  0  0
  6 31  1  0  0  0
  7  8  1  0  0  0
  8  9  1  0  0  0
  8 32  1  0  0  0
  9 14  1  0  0  0
  9 10  2  0  0  0
 10 11  1  0  0  0
 10 33  1  0  0  0
 11 12  2  0  0  0
 11 34  1  0  0  0
 12 13  1  0  0  0
 13 14  2  0  0  0
 13 15  1  0  0  0
 15 16  1  0  0  0
 15 35  1  0  0  0
 16 21  1  0  0  0
 16 17  2  0  0  0
 17 18  1  0  0  0
 17 36  1  0  0  0
 18 19  2  0  0  0
 18 37  1  0  0  0
 19 20  1  0  0  0
 19 38  1  0  0  0
 20 21  2  0  0  0
 20 22  1  0  0  0
 21 39  1  0  0  0
 22 23  2  0  0  0
 22 24  1  0  0  0
 24 40  1  0  0  0
 24 41  1  0  0  0
 25 42  1  0  0  0
 25 43  1  0  0  0
M  END
> <s_m_entry_id>
6032

> <s_m_entry_name>
ligand_docking-pose.221

> <s_m_Source_Path>
/home/csk/Desktop/cluster/DUD-E-result/lck

> <s_m_Source_File>
ligand_docking-pose.sdf

> <i_m_Source_File_Index>
221

> <i_lp_mmshare_version>
53161

> <r_lp_tautomer_probability>
0.999999624730965

> <s_lp_Force_Field>
OPLS_2005

> <r_lp_Energy>
11.817383

> <b_lp_Chiralities_Consistent>
1

> <s_lp_Variant>
413827-1

> <s_i_glide_gridfile>
glide-grid_2of2

> <i_i_glide_lignum>
445

> <i_i_glide_rotatable_bonds>
5

> <r_i_docking_score>
-6.80240862655197

> <r_i_glide_ligand_efficiency>
-0.272096345062079

> <r_i_glide_ligand_efficiency_sa>
-0.795614538610745

> <r_i_glide_ligand_efficiency_ln>
-1.61237469622953

> <r_i_glide_gscore>
-6.80240862655197

> <r_i_glide_lipo>
-1.56090814316123

> <r_i_glide_hbond>
-0.827226975384353

> <r_i_glide_metal>
0

> <r_i_glide_rewards>
-1.85423403871021

> <r_i_glide_evdw>
-35.3984603881836

> <r_i_glide_ecoul>
-9.01005268096924

> <r_i_glide_erotb>
0.674725585038071

> <r_i_glide_esite>
-0.113334132779676

> <r_i_glide_emodel>
-62.8336696348159

> <r_i_glide_energy>
-44.4085130691528

> <r_i_glide_einternal>
1.74756813049316

> <i_i_glide_confnum>
12

> <i_i_glide_posenum>
246

> <r_i_glide_eff_state_penalty>
0

> <i_f3d_flags>
0

> <s_user_duplicate_titles>
413827

> <s_m_subgroup_title>
dock_pv

> <s_m_subgroupid>
dock_pv1

> <b_m_subgroup_collapsed>
0

$$$$
