CHEMBL3587_lig17
                    3D
 Schrodinger Suite 2021-1.
 42 43  0  0  1  0            999 V2000
   -2.3003   57.3682   34.2491 C   0  0  0  0  0  0
   -3.0182   57.8940   35.3593 C   0  0  0  0  0  0
   -3.5260   58.3480   36.2910 N   0  0  0  0  0  0
   -2.9444   56.6882   33.2680 C   0  0  0  0  0  0
   -2.3286   56.1681   32.1631 N   0  0  0  0  0  0
   -4.7212   56.3735   33.2715 S   0  0  0  0  0  0
   -4.9869   55.0765   32.0615 C   0  0  0  0  0  0
   -5.4105   53.7871   32.4372 C   0  0  0  0  0  0
   -5.5888   52.7993   31.4666 C   0  0  0  0  0  0
   -5.3281   53.0737   30.1264 C   0  0  0  0  0  0
   -4.9168   54.3487   29.7496 C   0  0  0  0  0  0
   -4.7768   55.3539   30.7053 C   0  0  0  0  0  0
   -5.6586   53.4398   33.7628 N   0  0  0  0  0  0
   -0.8442   57.5383   34.2485 C   0  0  0  0  0  0
   -0.0640   56.3743   33.9678 C   0  0  0  0  0  0
    0.4800   55.3745   33.7631 N   0  0  0  0  0  0
   -0.2381   58.7115   34.5568 C   0  0  0  0  0  0
   -0.8519   59.8911   34.8996 N   0  0  0  0  0  0
    1.5393   58.9017   34.5628 S   0  0  0  0  0  0
    1.8010   60.5639   33.9860 C   0  0  0  0  0  0
    1.4053   60.9812   32.7064 C   0  0  0  0  0  0
    1.6117   62.3064   32.3208 C   0  0  0  0  0  0
    2.3043   63.1869   33.1446 C   0  0  0  0  0  0
    2.7597   62.7480   34.3824 C   0  0  0  0  0  0
    2.4740   61.4566   34.8226 C   0  0  0  0  0  0
    0.8741   60.0944   31.7717 N   0  0  0  0  0  0
   -1.3511   56.3438   31.9739 H   0  0  0  0  0  0
   -2.8670   55.6899   31.4555 H   0  0  0  0  0  0
   -5.9260   51.8125   31.7489 H   0  0  0  0  0  0
   -5.4561   52.3025   29.3807 H   0  0  0  0  0  0
   -4.7260   54.5694   28.7093 H   0  0  0  0  0  0
   -4.4894   56.3475   30.3884 H   0  0  0  0  0  0
   -5.5304   54.1353   34.4873 H   0  0  0  0  0  0
   -5.9755   52.5096   33.9891 H   0  0  0  0  0  0
   -1.8344   60.0545   34.7089 H   0  0  0  0  0  0
   -0.2952   60.7052   35.1133 H   0  0  0  0  0  0
    1.2741   62.6559   31.3628 H   0  0  0  0  0  0
    2.5034   64.1982   32.8184 H   0  0  0  0  0  0
    3.3260   63.4251   34.9977 H   0  0  0  0  0  0
    2.8186   61.1352   35.7948 H   0  0  0  0  0  0
    1.1726   60.2731   30.8223 H   0  0  0  0  0  0
    0.8665   59.1219   32.0563 H   0  0  0  0  0  0
  1  2  1  0  0  0
  1  4  2  0  0  0
  1 14  1  0  0  0
  2  3  3  0  0  0
  4  5  1  0  0  0
  4  6  1  0  0  0
  5 27  1  0  0  0
  5 28  1  0  0  0
  6  7  1  0  0  0
  7  8  2  0  0  0
  7 12  1  0  0  0
  8  9  1  0  0  0
  8 13  1  0  0  0
  9 10  2  0  0  0
  9 29  1  0  0  0
 10 11  1  0  0  0
 10 30  1  0  0  0
 11 12  2  0  0  0
 11 31  1  0  0  0
 12 32  1  0  0  0
 13 33  1  0  0  0
 13 34  1  0  0  0
 14 15  1  0  0  0
 14 17  2  0  0  0
 15 16  3  0  0  0
 17 18  1  0  0  0
 17 19  1  0  0  0
 18 35  1  0  0  0
 18 36  1  0  0  0
 19 20  1  0  0  0
 20 21  2  0  0  0
 20 25  1  0  0  0
 21 22  1  0  0  0
 21 26  1  0  0  0
 22 23  2  0  0  0
 22 37  1  0  0  0
 23 24  1  0  0  0
 23 38  1  0  0  0
 24 25  2  0  0  0
 24 39  1  0  0  0
 25 40  1  0  0  0
 26 41  1  0  0  0
 26 42  1  0  0  0
M  END
> <s_m_entry_id>
65921

> <s_m_entry_name>
dock_pv.2

> <s_m_Source_Path>
/home/csk/Desktop/cluster/DUD-E-result/mp2k1

> <s_m_Source_File>
dock_pv.maegz

> <i_m_Source_File_Index>
2

> <chembl_id>
CHEMBL34704

> <chembl_pref_name>
None

> <i_lp_mmshare_version>
53161

> <i_f3d_flags>
0

> <r_lp_tautomer_probability>
1

> <s_lp_Force_Field>
OPLS_2005

> <r_lp_Energy>
35.07043

> <b_lp_Chiralities_Consistent>
1

> <s_lp_Variant>
CHEMBL3587_lig17-1

> <s_i_glide_gridfile>
glide-grid_3eqh

> <i_i_glide_lignum>
17

> <i_i_glide_rotatable_bonds>
5

> <r_i_docking_score>
-9.76012044200308

> <r_i_glide_ligand_efficiency>
-0.375389247769349

> <r_i_glide_ligand_efficiency_sa>
-1.11208916943133

> <r_i_glide_ligand_efficiency_ln>
-2.29213226023713

> <r_i_glide_gscore>
-9.76012044200308

> <r_i_glide_lipo>
-4.03958226289576

> <r_i_glide_hbond>
-0.689761144154089

> <r_i_glide_metal>
0

> <r_i_glide_rewards>
-1.89313482149431

> <r_i_glide_evdw>
-41.5564765930176

> <r_i_glide_ecoul>
-11.3094205856323

> <r_i_glide_erotb>
0.670046163252068

> <r_i_glide_esite>
-0.033451459215266

> <r_i_glide_emodel>
-74.2202605176621

> <r_i_glide_energy>
-52.8658971786499

> <r_i_glide_einternal>
13.8560829162598

> <i_i_glide_confnum>
86

> <i_i_glide_posenum>
147

> <r_i_glide_eff_state_penalty>
0

> <s_user_duplicate_titles>
CHEMBL3587_lig17,157660

> <s_m_subgroup_title>
dock_pv

> <s_m_subgroupid>
dock_pv

> <b_m_subgroup_collapsed>
1

$$$$
CHEMBL3587_lig2
                    3D
 Schrodinger Suite 2021-1.
 44 46  0  0  1  0            999 V2000
   -1.8650   55.6728   34.1628 C   0  0  0  0  0  0
   -2.2369   56.8865   34.6428 C   0  0  0  0  0  0
   -0.4516   55.4155   33.7630 C   0  0  0  0  0  0
   -1.2445   57.9767   34.7496 C   0  0  0  0  0  0
    0.0342   57.7341   34.2336 C   0  0  0  0  0  0
    0.4109   56.4906   33.7631 O   0  0  0  0  0  0
    1.5581   61.7644   33.2810 C   0  0  0  0  0  0
    0.6629   60.0328   34.6252 C   0  0  0  0  0  0
    0.9824   58.7524   34.1638 C   0  0  0  0  0  0
    1.5674   61.0577   34.4607 O   0  0  0  0  0  0
   -1.5220   59.2317   35.2997 C   0  0  0  0  0  0
   -0.5796   60.2567   35.2378 C   0  0  0  0  0  0
    2.4095   62.8743   33.3375 N   0  0  0  0  0  0
   -2.8218   54.4834   34.0087 C   0  0  0  0  0  0
    0.0728   54.3484   33.4501 O   0  0  0  0  0  0
    0.8739   61.4609   32.2973 O   0  0  0  0  0  0
   -1.0046   61.8042   35.8809 Cl  0  0  0  0  0  0
   -3.6584   57.2062   35.1012 C   0  0  0  0  0  0
   -3.8158   54.5831   32.8496 C   0  0  0  0  0  0
    3.2864   63.1481   34.4757 C   0  0  0  0  0  0
    2.5398   63.7616   32.1830 C   0  0  0  0  0  0
   -5.0515   53.9392   32.9647 C   0  0  0  0  0  0
   -3.5163   55.3029   31.6855 C   0  0  0  0  0  0
   -4.4488   55.3872   30.6552 C   0  0  0  0  0  0
   -5.9842   54.0221   31.9336 C   0  0  0  0  0  0
   -5.6795   54.7490   30.7851 C   0  0  0  0  0  0
    1.9478   58.5630   33.7173 H   0  0  0  0  0  0
   -2.4857   59.4563   35.7281 H   0  0  0  0  0  0
   -2.2807   53.5479   33.9095 H   0  0  0  0  0  0
   -3.3697   54.3704   34.9460 H   0  0  0  0  0  0
   -4.3565   56.3836   34.9604 H   0  0  0  0  0  0
   -3.6620   57.4594   36.1613 H   0  0  0  0  0  0
   -4.0508   58.0507   34.5339 H   0  0  0  0  0  0
    4.0726   62.4005   34.5596 H   0  0  0  0  0  0
    2.7280   63.1453   35.4075 H   0  0  0  0  0  0
    3.7610   64.1264   34.3810 H   0  0  0  0  0  0
    1.7147   63.6601   31.4751 H   0  0  0  0  0  0
    2.5611   64.8012   32.5120 H   0  0  0  0  0  0
    3.4672   63.5481   31.6503 H   0  0  0  0  0  0
   -5.2956   53.3808   33.8575 H   0  0  0  0  0  0
   -2.5696   55.8111   31.5707 H   0  0  0  0  0  0
   -4.2224   55.9578   29.7657 H   0  0  0  0  0  0
   -6.9428   53.5334   32.0278 H   0  0  0  0  0  0
   -6.4083   54.8284   29.9909 H   0  0  0  0  0  0
  1  2  2  0  0  0
  1  3  1  0  0  0
  1 14  1  0  0  0
  2  4  1  0  0  0
  2 18  1  0  0  0
  3  6  1  0  0  0
  3 15  2  0  0  0
  4 11  2  0  0  0
  4  5  1  0  0  0
  5  6  1  0  0  0
  5  9  2  0  0  0
  7 10  1  0  0  0
  7 13  1  0  0  0
  7 16  2  0  0  0
  8  9  1  0  0  0
  8 10  1  0  0  0
  8 12  2  0  0  0
  9 27  1  0  0  0
 11 12  1  0  0  0
 11 28  1  0  0  0
 12 17  1  0  0  0
 13 20  1  0  0  0
 13 21  1  0  0  0
 14 19  1  0  0  0
 14 29  1  0  0  0
 14 30  1  0  0  0
 18 31  1  0  0  0
 18 32  1  0  0  0
 18 33  1  0  0  0
 19 22  2  0  0  0
 19 23  1  0  0  0
 20 34  1  0  0  0
 20 35  1  0  0  0
 20 36  1  0  0  0
 21 37  1  0  0  0
 21 38  1  0  0  0
 21 39  1  0  0  0
 22 25  1  0  0  0
 22 40  1  0  0  0
 23 24  2  0  0  0
 23 41  1  0  0  0
 24 26  1  0  0  0
 24 42  1  0  0  0
 25 26  2  0  0  0
 25 43  1  0  0  0
 26 44  1  0  0  0
M  END
> <s_m_entry_id>
65922

> <s_m_entry_name>
dock_pv.3

> <s_m_Source_Path>
/home/csk/Desktop/cluster/DUD-E-result/mp2k1

> <s_m_Source_File>
dock_pv.maegz

> <i_m_Source_File_Index>
3

> <chembl_id>
CHEMBL80837

> <chembl_pref_name>
None

> <i_lp_mmshare_version>
53161

> <i_f3d_flags>
0

> <r_lp_tautomer_probability>
1

> <s_lp_Force_Field>
OPLS_2005

> <r_lp_Energy>
25.245821

> <b_lp_Chiralities_Consistent>
1

> <s_lp_Variant>
CHEMBL3587_lig2-1

> <s_i_glide_gridfile>
glide-grid_3eqh

> <i_i_glide_lignum>
2

> <i_i_glide_rotatable_bonds>
5

> <r_i_docking_score>
-8.94662228201043

> <r_i_glide_ligand_efficiency>
-0.344100857000401

> <r_i_glide_ligand_efficiency_sa>
-1.0193974348922

> <r_i_glide_ligand_efficiency_ln>
-2.10108488666804

> <r_i_glide_gscore>
-8.94662228201043

> <r_i_glide_lipo>
-3.81586252679266

> <r_i_glide_hbond>
-0.541072673154807

> <r_i_glide_metal>
0

> <r_i_glide_rewards>
-1.92144451273597

> <r_i_glide_evdw>
-50.5219116210938

> <r_i_glide_ecoul>
-4.67189311981201

> <r_i_glide_erotb>
0.558636979699496

> <r_i_glide_esite>
0

> <r_i_glide_emodel>
-78.1700323052262

> <r_i_glide_energy>
-55.1938047409058

> <r_i_glide_einternal>
3.51209497451782

> <i_i_glide_confnum>
5

> <i_i_glide_posenum>
293

> <r_i_glide_eff_state_penalty>
0

> <s_user_duplicate_titles>
CHEMBL3587_lig2,126856

> <s_m_subgroup_title>
dock_pv

> <s_m_subgroupid>
dock_pv

> <b_m_subgroup_collapsed>
1

$$$$
CHEMBL3587_lig10
                    3D
 Schrodinger Suite 2021-1.
 45 47  0  0  1  0            999 V2000
   -0.6940   58.0116   34.0260 C   0  0  0  0  0  0
    0.0241   56.8753   33.9663 C   0  0  0  0  0  0
   -0.5876   55.5853   33.7630 C   0  0  0  0  0  0
   -2.0746   55.6454   33.6276 C   0  0  0  0  0  0
   -2.8242   54.4867   33.4262 C   0  0  0  0  0  0
   -4.2050   54.5252   33.2817 C   0  0  0  0  0  0
   -4.8679   55.7352   33.3929 C   0  0  0  0  0  0
   -4.1612   56.9196   33.6352 C   0  0  0  0  0  0
   -2.7532   56.8706   33.7169 C   0  0  0  0  0  0
   -2.0527   58.0546   33.8940 O   0  0  0  0  0  0
    0.0596   54.5397   33.7423 O   0  0  0  0  0  0
   -4.8364   58.1440   33.7630 N   0  0  0  0  0  0
   -6.2910   58.2517   33.6902 C   0  0  0  0  0  0
   -6.8611   58.2164   32.2541 C   0  0  0  0  0  0
   -8.1891   58.9694   32.1253 C   0  0  0  0  0  0
   -7.9260   60.3480   32.2316 O   0  0  0  0  0  0
   -5.1072   53.0900   32.9630 Cl  0  0  0  0  0  0
   -0.1029   59.3650   34.1630 C   0  0  0  0  0  0
    1.0532   59.8055   33.4763 C   0  0  0  0  0  0
    1.5596   61.1024   33.6665 C   0  0  0  0  0  0
    0.9024   61.9480   34.5630 C   0  0  0  0  0  0
   -0.2454   61.5354   35.2316 C   0  0  0  0  0  0
   -0.7260   60.2476   35.0480 C   0  0  0  0  0  0
    2.6782   61.4921   32.9427 O   0  0  0  0  0  0
    3.1907   62.8157   33.0764 C   0  0  0  0  0  0
    1.7235   58.9908   32.5630 N   0  0  0  0  0  0
    1.0945   56.9277   34.0809 H   0  0  0  0  0  0
   -2.3259   53.5480   33.3699 H   0  0  0  0  0  0
   -5.9419   55.7242   33.3001 H   0  0  0  0  0  0
   -4.2926   58.9714   33.5463 H   0  0  0  0  0  0
   -6.5450   59.1981   34.1632 H   0  0  0  0  0  0
   -6.7800   57.4932   34.3035 H   0  0  0  0  0  0
   -7.0112   57.1810   31.9491 H   0  0  0  0  0  0
   -6.1565   58.6124   31.5227 H   0  0  0  0  0  0
   -8.8627   58.6905   32.9372 H   0  0  0  0  0  0
   -8.7173   58.7480   31.1983 H   0  0  0  0  0  0
   -8.7794   60.8119   32.2806 H   0  0  0  0  0  0
    1.2738   62.9437   34.7426 H   0  0  0  0  0  0
   -0.7515   62.2081   35.9088 H   0  0  0  0  0  0
   -1.6139   59.9446   35.5844 H   0  0  0  0  0  0
    4.0532   62.9364   32.4207 H   0  0  0  0  0  0
    2.4522   63.5648   32.7862 H   0  0  0  0  0  0
    3.5241   63.0153   34.0960 H   0  0  0  0  0  0
    2.4569   59.4536   32.0427 H   0  0  0  0  0  0
    1.1919   58.2538   32.1037 H   0  0  0  0  0  0
  1  2  2  0  0  0
  1 10  1  0  0  0
  1 18  1  0  0  0
  2  3  1  0  0  0
  2 27  1  0  0  0
  3  4  1  0  0  0
  3 11  2  0  0  0
  4  5  1  0  0  0
  4  9  2  0  0  0
  5  6  2  0  0  0
  5 28  1  0  0  0
  6  7  1  0  0  0
  6 17  1  0  0  0
  7  8  2  0  0  0
  7 29  1  0  0  0
  8  9  1  0  0  0
  8 12  1  0  0  0
  9 10  1  0  0  0
 12 13  1  0  0  0
 12 30  1  0  0  0
 13 14  1  0  0  0
 13 31  1  0  0  0
 13 32  1  0  0  0
 14 15  1  0  0  0
 14 33  1  0  0  0
 14 34  1  0  0  0
 15 16  1  0  0  0
 15 35  1  0  0  0
 15 36  1  0  0  0
 16 37  1  0  0  0
 18 19  1  0  0  0
 18 23  2  0  0  0
 19 20  2  0  0  0
 19 26  1  0  0  0
 20 21  1  0  0  0
 20 24  1  0  0  0
 21 22  2  0  0  0
 21 38  1  0  0  0
 22 23  1  0  0  0
 22 39  1  0  0  0
 23 40  1  0  0  0
 24 25  1  0  0  0
 25 41  1  0  0  0
 25 42  1  0  0  0
 25 43  1  0  0  0
 26 44  1  0  0  0
 26 45  1  0  0  0
M  END
> <s_m_entry_id>
65923

> <s_m_entry_name>
dock_pv.4

> <s_m_Source_Path>
/home/csk/Desktop/cluster/DUD-E-result/mp2k1

> <s_m_Source_File>
dock_pv.maegz

> <i_m_Source_File_Index>
4

> <chembl_id>
CHEMBL3326325

> <chembl_pref_name>
None

> <i_lp_mmshare_version>
53161

> <i_f3d_flags>
0

> <r_lp_tautomer_probability>
1

> <s_lp_Force_Field>
OPLS_2005

> <r_lp_Energy>
26.930431

> <b_lp_Chiralities_Consistent>
1

> <s_lp_Variant>
CHEMBL3587_lig10-1

> <s_i_glide_gridfile>
glide-grid_3eqh

> <i_i_glide_lignum>
10

> <i_i_glide_rotatable_bonds>
7

> <r_i_docking_score>
-8.93576476452987

> <r_i_glide_ligand_efficiency>
-0.343683260174226

> <r_i_glide_ligand_efficiency_sa>
-1.01816030593782

> <r_i_glide_ligand_efficiency_ln>
-2.09853503431415

> <r_i_glide_gscore>
-8.93576476452987

> <r_i_glide_lipo>
-4.05826088036714

> <r_i_glide_hbond>
-0.591995562488717

> <r_i_glide_metal>
0

> <r_i_glide_rewards>
-1.27127971185358

> <r_i_glide_evdw>
-41.1672706604004

> <r_i_glide_ecoul>
-10.7666320800781

> <r_i_glide_erotb>
0.688317427541883

> <r_i_glide_esite>
-0.0291876923305809

> <r_i_glide_emodel>
-77.5672064717326

> <r_i_glide_energy>
-51.9339027404785

> <r_i_glide_einternal>
5.40596628189087

> <i_i_glide_confnum>
8

> <i_i_glide_posenum>
162

> <r_i_glide_eff_state_penalty>
0

> <s_user_duplicate_titles>
CHEMBL3587_lig10

> <s_m_subgroup_title>
dock_pv

> <s_m_subgroupid>
dock_pv

> <b_m_subgroup_collapsed>
1

$$$$
CHEMBL3587_lig13
                    3D
 Schrodinger Suite 2021-1.
 51 54  0  0  1  0            999 V2000
    1.1251   58.5787   34.3959 C   0  0  0  0  0  0
   -4.8554   54.3132   29.8319 N   0  0  0  0  0  0
   -0.3257   60.2450   35.3620 C   0  0  0  0  0  0
    1.1423   62.0878   33.2618 N   0  0  0  0  0  0
    2.0107   60.7139   34.9972 O   0  0  0  0  0  0
    1.2996   63.2243   32.5376 C   0  0  0  0  0  0
   -0.2255   54.3474   33.5542 O   0  0  0  0  0  0
   -4.8540   53.8238   32.1986 C   0  0  0  0  0  0
    3.2622   63.7872   33.7630 C   0  0  0  0  0  0
   -2.3490   57.1449   34.4496 C   0  0  0  0  0  0
   -7.7460   53.5474   28.3449 N   0  0  1  0  0  0
    0.9391   59.8567   34.9151 C   0  0  0  0  0  0
    3.1280   62.6719   34.5230 N   0  0  0  0  0  0
   -5.3766   53.6604   30.9050 C   0  0  0  0  0  0
    0.0402   57.7102   34.2871 C   0  0  0  0  0  0
    2.0748   61.8633   34.2336 C   0  0  0  0  0  0
   -3.1268   54.7773   33.8002 C   0  0  0  0  0  0
   -5.3959   53.1480   33.2427 F   0  0  0  0  0  0
   -7.0017   52.1717   29.1409 S   0  0  0  0  0  0
    0.2919   56.4577   33.7635 O   0  0  0  0  0  0
   -1.2446   58.1075   34.6784 C   0  0  0  0  0  0
   -1.4064   59.3717   35.2566 C   0  0  0  0  0  0
   -8.0524   51.1891   29.4243 O   0  0  0  0  0  0
    2.3555   64.1073   32.7547 C   0  0  0  0  0  0
   -3.8106   55.1491   30.0379 C   0  0  0  0  0  0
   -2.0758   55.8820   34.0263 C   0  0  0  0  0  0
   -3.7612   57.6476   34.7399 C   0  0  0  0  0  0
   -8.9216   54.1932   28.9582 C   0  0  0  0  0  0
   -3.2351   55.3553   31.2930 C   0  0  0  0  0  0
   -0.6669   55.4713   33.7630 C   0  0  0  0  0  0
   -6.4601   52.7878   30.7165 N   0  0  0  0  0  0
   -5.8144   51.8025   28.3610 O   0  0  0  0  0  0
   -3.7520   54.6710   32.4006 C   0  0  0  0  0  0
    2.1079   58.2727   34.0702 H   0  0  0  0  0  0
   -0.4741   61.2357   35.7643 H   0  0  0  0  0  0
    0.5686   63.4190   31.7701 H   0  0  0  0  0  0
    4.0958   64.4386   33.9815 H   0  0  0  0  0  0
   -7.0992   54.1804   27.8663 H   0  0  0  0  0  0
   -3.9260   54.8866   34.5320 H   0  0  0  0  0  0
   -2.7048   53.8006   34.0467 H   0  0  0  0  0  0
   -2.3706   59.7208   35.5894 H   0  0  0  0  0  0
    2.4738   65.0033   32.1665 H   0  0  0  0  0  0
   -3.4341   55.6742   29.1696 H   0  0  0  0  0  0
   -3.9514   58.5571   34.1675 H   0  0  0  0  0  0
   -4.5432   56.9434   34.4636 H   0  0  0  0  0  0
   -3.8723   57.8658   35.8022 H   0  0  0  0  0  0
   -9.3977   54.8486   28.2276 H   0  0  0  0  0  0
   -8.5992   54.8139   29.7963 H   0  0  0  0  0  0
   -9.6385   53.4451   29.2995 H   0  0  0  0  0  0
   -2.4009   56.0361   31.3832 H   0  0  0  0  0  0
   -6.8436   52.3405   31.5354 H   0  0  0  0  0  0
  1 12  2  0  0  0
  1 15  1  0  0  0
  1 34  1  0  0  0
  2 25  1  0  0  0
  2 14  2  0  0  0
  3 22  2  0  0  0
  3 12  1  0  0  0
  3 35  1  0  0  0
  4  6  1  0  0  0
  4 16  2  0  0  0
  5 12  1  0  0  0
  5 16  1  0  0  0
  6 24  2  0  0  0
  6 36  1  0  0  0
  7 30  2  0  0  0
  8 33  2  0  0  0
  8 14  1  0  0  0
  8 18  1  0  0  0
  9 13  2  0  0  0
  9 24  1  0  0  0
  9 37  1  0  0  0
 10 27  1  0  0  0
 10 26  2  0  0  0
 10 21  1  0  0  0
 11 19  1  0  0  0
 11 28  1  0  0  0
 11 38  1  0  0  0
 13 16  1  0  0  0
 14 31  1  0  0  0
 15 21  2  0  0  0
 15 20  1  0  0  0
 17 26  1  0  0  0
 17 33  1  0  0  0
 17 39  1  0  0  0
 17 40  1  0  0  0
 19 31  1  0  0  0
 19 32  2  0  0  0
 19 23  2  0  0  0
 20 30  1  0  0  0
 21 22  1  0  0  0
 22 41  1  0  0  0
 24 42  1  0  0  0
 25 29  2  0  0  0
 25 43  1  0  0  0
 26 30  1  0  0  0
 27 44  1  0  0  0
 27 45  1  0  0  0
 27 46  1  0  0  0
 28 47  1  0  0  0
 28 48  1  0  0  0
 28 49  1  0  0  0
 29 33  1  0  0  0
 29 50  1  0  0  0
 31 51  1  0  0  0
M  END
> <s_m_entry_id>
65924

> <s_m_entry_name>
dock_pv.5

> <s_m_Source_Path>
/home/csk/Desktop/cluster/DUD-E-result/mp2k1

> <s_m_Source_File>
dock_pv.maegz

> <i_m_Source_File_Index>
5

> <chembl_id>
CHEMBL3264002

> <chembl_pref_name>
None

> <i_lp_mmshare_version>
53161

> <i_f3d_flags>
0

> <r_lp_tautomer_probability>
1

> <s_lp_Force_Field>
OPLS_2005

> <r_lp_Energy>
21.325596

> <b_lp_Chiralities_Consistent>
1

> <s_lp_Variant>
CHEMBL3587_lig13-1

> <s_i_glide_gridfile>
glide-grid_3eqh

> <i_i_glide_lignum>
13

> <i_i_glide_rotatable_bonds>
7

> <r_i_docking_score>
-8.62708473691777

> <r_i_glide_ligand_efficiency>
-0.261426810209629

> <r_i_glide_ligand_efficiency_sa>
-0.838535467551375

> <r_i_glide_ligand_efficiency_ln>
-1.91861897683636

> <r_i_glide_gscore>
-8.62708473691777

> <r_i_glide_lipo>
-4.12721000655268

> <r_i_glide_hbond>
-0.0406455587494941

> <r_i_glide_metal>
0

> <r_i_glide_rewards>
-1.27837626684736

> <r_i_glide_evdw>
-60.5124435424805

> <r_i_glide_ecoul>
-3.71710419654846

> <r_i_glide_erotb>
0.545610104273379

> <r_i_glide_esite>
-0.14327520243532

> <r_i_glide_emodel>
-95.5800042895939

> <r_i_glide_energy>
-64.2295477390289

> <r_i_glide_einternal>
4.05202913284302

> <i_i_glide_confnum>
15

> <i_i_glide_posenum>
285

> <r_i_glide_eff_state_penalty>
0

> <s_user_duplicate_titles>
CHEMBL3587_lig13

> <s_m_subgroup_title>
dock_pv

> <s_m_subgroupid>
dock_pv

> <b_m_subgroup_collapsed>
1

$$$$
CHEMBL3587_lig1
                    3D
 Schrodinger Suite 2021-1.
 44 46  0  0  1  0            999 V2000
   -1.8221   55.7385   34.1630 C   0  0  0  0  0  0
   -0.4193   55.4405   33.7631 C   0  0  0  0  0  0
   -2.1561   56.9701   34.6318 C   0  0  0  0  0  0
    0.4738   56.4926   33.7566 O   0  0  0  0  0  0
    0.1211   57.7683   34.1570 C   0  0  0  0  0  0
   -1.1384   58.0449   34.7002 C   0  0  0  0  0  0
    1.2445   62.1218   33.2489 C   0  0  0  0  0  0
    1.0688   58.7814   33.9910 C   0  0  0  0  0  0
    1.6509   61.1086   34.0951 O   0  0  0  0  0  0
   -1.3754   59.3211   35.2232 C   0  0  0  0  0  0
    2.3154   62.9198   32.8243 N   0  0  0  0  0  0
   -2.7858   54.5430   34.0947 C   0  0  0  0  0  0
    0.7729   60.0860   34.3961 C   0  0  0  0  0  0
    0.0727   54.3526   33.4646 O   0  0  0  0  0  0
    0.0750   62.2910   32.8879 O   0  0  0  0  0  0
   -0.4240   60.3293   35.0801 C   0  0  0  0  0  0
   -3.7060   54.4692   32.8769 C   0  0  0  0  0  0
   -5.3618   54.1450   30.6609 C   0  0  0  0  0  0
   -3.5613   57.3323   35.1093 C   0  0  0  0  0  0
   -6.1461   53.9486   29.5781 F   0  0  0  0  0  0
   -3.4170   55.1384   31.6796 C   0  0  0  0  0  0
   -4.8487   53.6678   32.9632 C   0  0  0  0  0  0
   -5.6728   53.5017   31.8550 C   0  0  0  0  0  0
   -4.2462   54.9750   30.5722 C   0  0  0  0  0  0
    3.6894   62.7605   33.2827 C   0  0  0  0  0  0
    2.1239   63.9480   31.8097 C   0  0  0  0  0  0
    2.0100   58.5659   33.5073 H   0  0  0  0  0  0
   -2.3205   59.5780   35.6755 H   0  0  0  0  0  0
   -2.2526   53.5934   34.1695 H   0  0  0  0  0  0
   -3.4106   54.5499   34.9859 H   0  0  0  0  0  0
   -0.6581   61.3278   35.4212 H   0  0  0  0  0  0
   -4.2939   56.5414   34.9619 H   0  0  0  0  0  0
   -3.5428   57.5722   36.1723 H   0  0  0  0  0  0
   -3.9271   58.1988   34.5578 H   0  0  0  0  0  0
   -2.5471   55.7729   31.5886 H   0  0  0  0  0  0
   -5.0883   53.1520   33.8829 H   0  0  0  0  0  0
   -6.5447   52.8678   31.9152 H   0  0  0  0  0  0
   -4.0215   55.4839   29.6459 H   0  0  0  0  0  0
    3.7341   62.3482   34.2903 H   0  0  0  0  0  0
    4.1922   63.7286   33.3132 H   0  0  0  0  0  0
    4.2329   62.1232   32.5813 H   0  0  0  0  0  0
    1.1157   63.9650   31.3970 H   0  0  0  0  0  0
    2.3264   64.9232   32.2521 H   0  0  0  0  0  0
    2.8252   63.8105   30.9855 H   0  0  0  0  0  0
  1  2  1  0  0  0
  1  3  2  0  0  0
  1 12  1  0  0  0
  2  4  1  0  0  0
  2 14  2  0  0  0
  3  6  1  0  0  0
  3 19  1  0  0  0
  4  5  1  0  0  0
  5  6  1  0  0  0
  5  8  2  0  0  0
  6 10  2  0  0  0
  7  9  1  0  0  0
  7 11  1  0  0  0
  7 15  2  0  0  0
  8 13  1  0  0  0
  8 27  1  0  0  0
  9 13  1  0  0  0
 10 16  1  0  0  0
 10 28  1  0  0  0
 11 25  1  0  0  0
 11 26  1  0  0  0
 12 17  1  0  0  0
 12 29  1  0  0  0
 12 30  1  0  0  0
 13 16  2  0  0  0
 16 31  1  0  0  0
 17 21  2  0  0  0
 17 22  1  0  0  0
 18 23  1  0  0  0
 18 20  1  0  0  0
 18 24  2  0  0  0
 19 32  1  0  0  0
 19 33  1  0  0  0
 19 34  1  0  0  0
 21 24  1  0  0  0
 21 35  1  0  0  0
 22 23  2  0  0  0
 22 36  1  0  0  0
 23 37  1  0  0  0
 24 38  1  0  0  0
 25 39  1  0  0  0
 25 40  1  0  0  0
 25 41  1  0  0  0
 26 42  1  0  0  0
 26 43  1  0  0  0
 26 44  1  0  0  0
M  END
> <s_m_entry_id>
65925

> <s_m_entry_name>
dock_pv.6

> <s_m_Source_Path>
/home/csk/Desktop/cluster/DUD-E-result/mp2k1

> <s_m_Source_File>
dock_pv.maegz

> <i_m_Source_File_Index>
6

> <chembl_id>
CHEMBL78779

> <chembl_pref_name>
None

> <i_lp_mmshare_version>
53161

> <i_f3d_flags>
0

> <r_lp_tautomer_probability>
1

> <s_lp_Force_Field>
OPLS_2005

> <r_lp_Energy>
26.801827

> <b_lp_Chiralities_Consistent>
1

> <s_lp_Variant>
CHEMBL3587_lig1-1

> <s_i_glide_gridfile>
glide-grid_3eqh

> <i_i_glide_lignum>
1

> <i_i_glide_rotatable_bonds>
5

> <r_i_docking_score>
-8.18691540770274

> <r_i_glide_ligand_efficiency>
-0.314881361834721

> <r_i_glide_ligand_efficiency_sa>
-0.93283479543703

> <r_i_glide_ligand_efficiency_ln>
-1.92267022003845

> <r_i_glide_gscore>
-8.18691540770274

> <r_i_glide_lipo>
-4.15619005526687

> <r_i_glide_hbond>
-0.571922992325646

> <r_i_glide_metal>
0

> <r_i_glide_rewards>
-0.656416672275289

> <r_i_glide_evdw>
-49.1281394958496

> <r_i_glide_ecoul>
-6.34402179718018

> <r_i_glide_erotb>
0.605624556534576

> <r_i_glide_esite>
0

> <r_i_glide_emodel>
-73.8874730144243

> <r_i_glide_energy>
-55.4721612930298

> <r_i_glide_einternal>
3.69490599632263

> <i_i_glide_confnum>
4

> <i_i_glide_posenum>
15

> <r_i_glide_eff_state_penalty>
0

> <s_user_duplicate_titles>
CHEMBL3587_lig1,127465

> <s_m_subgroup_title>
dock_pv

> <s_m_subgroupid>
dock_pv

> <b_m_subgroup_collapsed>
1

$$$$
CHEMBL3587_lig30
                    3D
 Schrodinger Suite 2021-1.
 38 39  0  0  1  0            999 V2000
    3.6740   63.3123   33.7445 I   0  0  0  0  0  0
   -0.7681   61.1834   35.9328 F   0  0  0  0  0  0
   -3.6757   58.3285   35.0638 O   0  0  0  0  0  0
   -7.4935   58.7480   34.5055 O   0  0  0  0  0  0
   -7.5260   60.3480   32.1630 O   0  0  0  0  0  0
   -0.9426   59.0632   34.1631 N   0  0  0  0  0  0
   -4.4483   57.0367   33.3632 N   0  0  0  0  0  0
    0.4420   55.6613   33.8222 N   0  0  0  0  0  0
   -2.0983   56.8950   33.9837 C   0  0  0  0  0  0
   -0.9136   57.6669   34.0305 C   0  0  0  0  0  0
    0.0797   60.0106   34.0311 C   0  0  0  0  0  0
   -3.4738   57.5013   34.1717 C   0  0  0  0  0  0
    0.1665   61.0453   34.9626 C   0  0  0  0  0  0
   -1.9725   55.5031   33.8343 C   0  0  0  0  0  0
    0.3169   56.9996   33.9629 C   0  0  0  0  0  0
    1.0344   59.9241   33.0094 C   0  0  0  0  0  0
    1.2237   61.9480   34.8936 C   0  0  0  0  0  0
    2.1635   61.8719   33.8741 C   0  0  0  0  0  0
   -6.4738   58.6221   33.5211 C   0  0  1  0  0  0
   -0.6982   54.9407   33.7630 C   0  0  0  0  0  0
    2.0740   60.8485   32.9375 C   0  0  0  0  0  0
   -5.8895   57.1836   33.6123 C   0  0  0  0  0  0
   -7.0690   59.0018   32.1481 C   0  0  0  0  0  0
   -8.1906   58.1123   34.3207 H   0  0  0  0  0  0
   -8.3531   60.3481   32.6671 H   0  0  0  0  0  0
   -1.8418   59.4474   34.4361 H   0  0  0  0  0  0
   -4.1777   56.5025   32.5498 H   0  0  0  0  0  0
   -2.8397   54.8571   33.8218 H   0  0  0  0  0  0
    1.2463   57.5411   34.0460 H   0  0  0  0  0  0
    0.9740   59.1480   32.2638 H   0  0  0  0  0  0
    1.3026   62.7430   35.6155 H   0  0  0  0  0  0
   -5.7041   59.3518   33.7630 H   0  0  0  0  0  0
   -0.5594   53.8803   33.7049 H   0  0  0  0  0  0
    2.8166   60.7685   32.1630 H   0  0  0  0  0  0
   -6.0622   56.7737   34.6113 H   0  0  0  0  0  0
   -6.4421   56.5119   32.9534 H   0  0  0  0  0  0
   -7.9054   58.3502   31.8891 H   0  0  0  0  0  0
   -6.3260   58.8830   31.3613 H   0  0  0  0  0  0
  1 18  1  0  0  0
  2 13  1  0  0  0
  3 12  2  0  0  0
  4 19  1  0  0  0
  4 24  1  0  0  0
  5 23  1  0  0  0
  5 25  1  0  0  0
  6 10  1  0  0  0
  6 11  1  0  0  0
  6 26  1  0  0  0
  7 12  1  0  0  0
  7 22  1  0  0  0
  7 27  1  0  0  0
  8 15  1  0  0  0
  8 20  2  0  0  0
  9 10  1  0  0  0
  9 12  1  0  0  0
  9 14  2  0  0  0
 10 15  2  0  0  0
 11 13  2  0  0  0
 11 16  1  0  0  0
 13 17  1  0  0  0
 14 20  1  0  0  0
 14 28  1  0  0  0
 15 29  1  0  0  0
 16 21  2  0  0  0
 16 30  1  0  0  0
 17 18  2  0  0  0
 17 31  1  0  0  0
 18 21  1  0  0  0
 19 22  1  0  0  0
 19 23  1  0  0  0
 19 32  1  0  0  0
 20 33  1  0  0  0
 21 34  1  0  0  0
 22 35  1  0  0  0
 22 36  1  0  0  0
 23 37  1  0  0  0
 23 38  1  0  0  0
M  END
> <s_m_entry_id>
65926

> <s_m_entry_name>
dock_pv.7

> <s_m_Source_Path>
/home/csk/Desktop/cluster/DUD-E-result/mp2k1

> <s_m_Source_File>
dock_pv.maegz

> <i_m_Source_File_Index>
7

> <chembl_id>
CHEMBL2107832

> <chembl_pref_name>
PIMASERTIB

> <i_lp_mmshare_version>
53161

> <i_f3d_flags>
0

> <r_lp_tautomer_probability>
0.999999999999999

> <s_lp_Force_Field>
OPLS_2005

> <r_lp_Energy>
27.206812

> <b_lp_Chiralities_Consistent>
1

> <s_lp_Variant>
CHEMBL3587_lig30-1

> <s_i_glide_gridfile>
glide-grid_3eqh

> <i_i_glide_lignum>
30

> <i_i_glide_rotatable_bonds>
9

> <r_i_docking_score>
-8.04418125055001

> <r_i_glide_ligand_efficiency>
-0.349747010893479

> <r_i_glide_ligand_efficiency_sa>
-0.994633974542194

> <r_i_glide_ligand_efficiency_ln>
-1.94515596698584

> <r_i_glide_gscore>
-8.04418125055001

> <r_i_glide_lipo>
-3.56268838453104

> <r_i_glide_hbond>
-0.190440173269183

> <r_i_glide_metal>
0

> <r_i_glide_rewards>
-0.96597272970115

> <r_i_glide_evdw>
-42.1243705749512

> <r_i_glide_ecoul>
-13.117283821106

> <r_i_glide_erotb>
0.748731138864812

> <r_i_glide_esite>
0

> <r_i_glide_emodel>
-82.0856335567273

> <r_i_glide_energy>
-55.2416543960571

> <r_i_glide_einternal>
8.34268474578857

> <i_i_glide_confnum>
20

> <i_i_glide_posenum>
27

> <r_i_glide_eff_state_penalty>
0

> <s_user_duplicate_titles>
CHEMBL3587_lig30

> <s_m_subgroup_title>
dock_pv

> <s_m_subgroupid>
dock_pv

> <b_m_subgroup_collapsed>
1

$$$$
CHEMBL3587_lig33
                    3D
 Schrodinger Suite 2021-1.
 55 60  0  0  1  0            999 V2000
   -5.9413   53.5535   29.6842 N   0  0  0  0  0  0
   -7.2760   53.7073   29.8676 C   0  0  0  0  0  0
   -7.8088   54.4878   30.8912 C   0  0  0  0  0  0
   -5.0925   54.1872   30.5221 C   0  0  0  0  0  0
   -5.5364   54.9589   31.6113 C   0  0  0  0  0  0
   -6.9282   55.1048   31.7487 N   0  0  0  0  0  0
   -7.1220   55.9401   32.8317 C   0  0  0  0  0  0
   -5.9746   56.2626   33.3873 N   0  0  0  0  0  0
   -5.0012   55.7041   32.7049 C   0  0  0  0  0  0
   -3.7382   54.0704   30.2385 N   0  0  0  0  0  0
   -8.4963   56.3868   33.3392 C   0  0  2  0  0  0
   -8.9633   57.7876   32.8889 C   0  0  0  0  0  0
   -8.4014   58.3656   34.2021 C   0  0  1  0  0  0
   -8.5975   56.9511   34.7795 C   0  0  0  0  0  0
   -7.0634   58.8064   34.1490 O   0  0  0  0  0  0
   -9.2521   59.4668   34.8433 C   0  0  0  0  0  0
   -3.5870   55.8620   33.1258 C   0  0  0  0  0  0
   -3.0135   57.1270   33.2767 C   0  0  0  0  0  0
   -1.4935   54.8150   33.7510 C   0  0  0  0  0  0
   -2.8351   54.7222   33.3848 C   0  0  0  0  0  0
   -0.8767   56.0807   33.8364 C   0  0  0  0  0  0
   -1.6486   57.2572   33.6332 C   0  0  0  0  0  0
   -1.1002   58.4983   33.7641 N   0  0  0  0  0  0
    0.2211   58.6314   34.0828 C   0  0  0  0  0  0
    1.0110   57.5112   34.3101 C   0  0  0  0  0  0
    0.4832   56.2348   34.1641 C   0  0  0  0  0  0
    0.8318   59.9937   34.1059 C   0  0  0  0  0  0
    1.8568   60.3078   35.0073 C   0  0  0  0  0  0
    2.4738   61.5549   34.9724 C   0  0  0  0  0  0
    2.0905   62.5046   34.0322 C   0  0  0  0  0  0
    1.0696   62.2199   33.1372 C   0  0  0  0  0  0
    0.4581   60.9782   33.1909 C   0  0  0  0  0  0
   -7.9247   53.2069   29.1630 H   0  0  0  0  0  0
   -8.8643   54.6419   31.0383 H   0  0  0  0  0  0
   -3.0884   54.6549   30.7459 H   0  0  0  0  0  0
   -3.4823   53.5922   29.3966 H   0  0  0  0  0  0
   -9.2323   55.5956   33.1570 H   0  0  0  0  0  0
   -8.5367   58.1406   31.9493 H   0  0  0  0  0  0
  -10.0470   57.8265   32.8037 H   0  0  0  0  0  0
   -9.5876   56.7628   35.2003 H   0  0  0  0  0  0
   -7.8564   56.5710   35.4852 H   0  0  0  0  0  0
   -6.5523   58.0938   33.7403 H   0  0  0  0  0  0
  -10.2783   59.1499   34.9856 H   0  0  0  0  0  0
   -8.8568   59.7711   35.8134 H   0  0  0  0  0  0
   -9.2764   60.3475   34.2046 H   0  0  0  0  0  0
   -3.6105   58.0129   33.1143 H   0  0  0  0  0  0
   -0.9145   53.9253   33.9480 H   0  0  0  0  0  0
   -3.2917   53.7473   33.3054 H   0  0  0  0  0  0
    2.0511   57.6270   34.5624 H   0  0  0  0  0  0
    1.0931   55.3668   34.3385 H   0  0  0  0  0  0
    2.1774   59.5888   35.7403 H   0  0  0  0  0  0
    3.2575   61.7752   35.6794 H   0  0  0  0  0  0
    2.5799   63.4646   34.0125 H   0  0  0  0  0  0
    0.7601   62.9607   32.4153 H   0  0  0  0  0  0
   -0.3235   60.7510   32.5119 H   0  0  0  0  0  0
  1  4  2  0  0  0
  1  2  1  0  0  0
  2  3  2  0  0  0
  2 33  1  0  0  0
  3  6  1  0  0  0
  3 34  1  0  0  0
  4  5  1  0  0  0
  4 10  1  0  0  0
  5  9  2  0  0  0
  5  6  1  0  0  0
  6  7  1  0  0  0
  7  8  2  0  0  0
  7 11  1  0  0  0
  8  9  1  0  0  0
  9 17  1  0  0  0
 10 35  1  0  0  0
 10 36  1  0  0  0
 11 12  1  0  0  0
 11 14  1  0  0  0
 11 37  1  0  0  0
 12 13  1  0  0  0
 12 38  1  0  0  0
 12 39  1  0  0  0
 13 15  1  0  0  0
 13 16  1  0  0  0
 13 14  1  0  0  0
 14 40  1  0  0  0
 14 41  1  0  0  0
 15 42  1  0  0  0
 16 43  1  0  0  0
 16 44  1  0  0  0
 16 45  1  0  0  0
 17 18  2  0  0  0
 17 20  1  0  0  0
 18 22  1  0  0  0
 18 46  1  0  0  0
 19 21  1  0  0  0
 19 20  2  0  0  0
 19 47  1  0  0  0
 20 48  1  0  0  0
 21 22  1  0  0  0
 21 26  2  0  0  0
 22 23  2  0  0  0
 23 24  1  0  0  0
 24 25  2  0  0  0
 24 27  1  0  0  0
 25 26  1  0  0  0
 25 49  1  0  0  0
 26 50  1  0  0  0
 27 28  2  0  0  0
 27 32  1  0  0  0
 28 29  1  0  0  0
 28 51  1  0  0  0
 29 30  2  0  0  0
 29 52  1  0  0  0
 30 31  1  0  0  0
 30 53  1  0  0  0
 31 32  2  0  0  0
 31 54  1  0  0  0
 32 55  1  0  0  0
M  END
> <s_m_entry_id>
65927

> <s_m_entry_name>
dock_pv.8

> <s_m_Source_Path>
/home/csk/Desktop/cluster/DUD-E-result/mp2k1

> <s_m_Source_File>
dock_pv.maegz

> <i_m_Source_File_Index>
8

> <chembl_id>
CHEMBL1091644

> <chembl_pref_name>
LINSITINIB

> <i_lp_mmshare_version>
53161

> <i_f3d_flags>
0

> <r_lp_tautomer_probability>
1

> <s_lp_Force_Field>
OPLS_2005

> <r_lp_Energy>
38.76637

> <b_lp_Chiralities_Consistent>
1

> <s_lp_Variant>
CHEMBL3587_lig33-1

> <s_i_glide_gridfile>
glide-grid_3eqh

> <i_i_glide_lignum>
33

> <i_i_glide_rotatable_bonds>
4

> <r_i_docking_score>
-8.0421934075531

> <r_i_glide_ligand_efficiency>
-0.251318543986034

> <r_i_glide_ligand_efficiency_sa>
-0.79788664128334

> <r_i_glide_ligand_efficiency_ln>
-1.80086632586382

> <r_i_glide_gscore>
-8.0421934075531

> <r_i_glide_lipo>
-4.71972498433492

> <r_i_glide_hbond>
-0.0314404396758429

> <r_i_glide_metal>
0

> <r_i_glide_rewards>
-1.21860342424242

> <r_i_glide_evdw>
-50.7800369262695

> <r_i_glide_ecoul>
1.05255961418152

> <r_i_glide_erotb>
0.334385277571207

> <r_i_glide_esite>
-0.0256919326848709

> <r_i_glide_emodel>
-67.713175506381

> <r_i_glide_energy>
-49.727477312088

> <r_i_glide_einternal>
3.23271346092224

> <i_i_glide_confnum>
5

> <i_i_glide_posenum>
173

> <r_i_glide_eff_state_penalty>
0

> <s_user_duplicate_titles>
CHEMBL3587_lig33

> <s_m_subgroup_title>
dock_pv

> <s_m_subgroupid>
dock_pv

> <b_m_subgroup_collapsed>
1

$$$$
CHEMBL3587_lig12
                    3D
 Schrodinger Suite 2021-1.
 40 41  0  0  1  0            999 V2000
   -7.5260   60.3480   31.8796 O   0  0  0  0  0  0
   -7.2304   59.7091   33.1051 C   0  0  0  0  0  0
   -7.4314   58.1746   33.0622 C   0  0  1  0  0  0
   -6.5223   57.5654   32.1630 O   0  0  0  0  0  0
   -7.2586   57.5152   34.4559 C   0  0  0  0  0  0
   -6.1030   57.9480   35.1727 O   0  0  0  0  0  0
   -4.9374   57.5206   34.5391 N   0  0  0  0  0  0
   -3.7429   57.6732   35.1418 C   0  0  0  0  0  0
   -3.5574   58.3480   36.1590 O   0  0  0  0  0  0
   -2.6070   56.8799   34.5487 C   0  0  0  0  0  0
   -2.8646   55.5579   34.1632 C   0  0  0  0  0  0
   -1.8348   54.7263   33.7630 C   0  0  0  0  0  0
   -0.5264   55.1870   33.7630 C   0  0  0  0  0  0
    0.4740   54.3480   33.4239 F   0  0  0  0  0  0
   -0.2445   56.5005   34.1270 C   0  0  0  0  0  0
    1.0529   56.8778   34.2058 F   0  0  0  0  0  0
   -1.2861   57.3859   34.4605 C   0  0  0  0  0  0
   -1.0091   58.7218   34.8137 N   0  0  0  0  0  0
   -0.1154   59.6723   34.2902 C   0  0  0  0  0  0
    0.6282   59.4537   33.1230 C   0  0  0  0  0  0
    1.5328   60.4080   32.6602 C   0  0  0  0  0  0
    1.7042   61.5978   33.3635 C   0  0  0  0  0  0
    3.0712   63.0342   32.6977 I   0  0  0  0  0  0
    0.9543   61.8323   34.5135 C   0  0  0  0  0  0
    0.0297   60.8899   34.9630 C   0  0  0  0  0  0
   -0.7260   61.1670   36.0562 F   0  0  0  0  0  0
   -8.4728   60.2551   31.7178 H   0  0  0  0  0  0
   -6.2001   59.9477   33.3630 H   0  0  0  0  0  0
   -7.8660   60.1454   33.8777 H   0  0  0  0  0  0
   -8.4354   57.9515   32.6965 H   0  0  0  0  0  0
   -6.8149   57.7209   31.2496 H   0  0  0  0  0  0
   -8.1130   57.7883   35.0761 H   0  0  0  0  0  0
   -7.2811   56.4249   34.3862 H   0  0  0  0  0  0
   -5.1186   57.0940   33.6380 H   0  0  0  0  0  0
   -3.8602   55.1377   34.2220 H   0  0  0  0  0  0
   -2.0645   53.7074   33.5076 H   0  0  0  0  0  0
   -1.6853   59.1172   35.4552 H   0  0  0  0  0  0
    0.5096   58.5419   32.5630 H   0  0  0  0  0  0
    2.1030   60.2179   31.7630 H   0  0  0  0  0  0
    1.0861   62.7480   35.0629 H   0  0  0  0  0  0
  1  2  1  0  0  0
  1 27  1  0  0  0
  2  3  1  0  0  0
  2 28  1  0  0  0
  2 29  1  0  0  0
  3  4  1  0  0  0
  3  5  1  0  0  0
  3 30  1  0  0  0
  4 31  1  0  0  0
  5  6  1  0  0  0
  5 32  1  0  0  0
  5 33  1  0  0  0
  6  7  1  0  0  0
  7  8  1  0  0  0
  7 34  1  0  0  0
  8  9  2  0  0  0
  8 10  1  0  0  0
 10 11  2  0  0  0
 10 17  1  0  0  0
 11 12  1  0  0  0
 11 35  1  0  0  0
 12 13  2  0  0  0
 12 36  1  0  0  0
 13 14  1  0  0  0
 13 15  1  0  0  0
 15 16  1  0  0  0
 15 17  2  0  0  0
 17 18  1  0  0  0
 18 19  1  0  0  0
 18 37  1  0  0  0
 19 20  2  0  0  0
 19 25  1  0  0  0
 20 21  1  0  0  0
 20 38  1  0  0  0
 21 22  2  0  0  0
 21 39  1  0  0  0
 22 23  1  0  0  0
 22 24  1  0  0  0
 24 25  2  0  0  0
 24 40  1  0  0  0
 25 26  1  0  0  0
M  END
> <s_m_entry_id>
65928

> <s_m_entry_name>
dock_pv.9

> <s_m_Source_Path>
/home/csk/Desktop/cluster/DUD-E-result/mp2k1

> <s_m_Source_File>
dock_pv.maegz

> <i_m_Source_File_Index>
9

> <chembl_id>
CHEMBL507361

> <chembl_pref_name>
MIRDAMETINIB

> <i_lp_mmshare_version>
53161

> <i_f3d_flags>
0

> <r_lp_tautomer_probability>
1

> <s_lp_Force_Field>
OPLS_2005

> <r_lp_Energy>
32.759489

> <b_lp_Chiralities_Consistent>
1

> <s_lp_Variant>
CHEMBL3587_lig12-1

> <s_i_glide_gridfile>
glide-grid_3eqh

> <i_i_glide_lignum>
12

> <i_i_glide_rotatable_bonds>
10

> <r_i_docking_score>
-7.84545319807565

> <r_i_glide_ligand_efficiency>
-0.301748199925987

> <r_i_glide_ligand_efficiency_sa>
-0.893927854958902

> <r_i_glide_ligand_efficiency_ln>
-1.84247894053643

> <r_i_glide_gscore>
-7.84545319807565

> <r_i_glide_lipo>
-3.66494018832736

> <r_i_glide_hbond>
-0.170821380578199

> <r_i_glide_metal>
0

> <r_i_glide_rewards>
-0.49170895600301

> <r_i_glide_evdw>
-42.4463539123535

> <r_i_glide_ecoul>
-13.4427194595337

> <r_i_glide_erotb>
0.698181161374294

> <r_i_glide_esite>
-0.0774382199936453

> <r_i_glide_emodel>
-81.8808629291139

> <r_i_glide_energy>
-55.8890733718872

> <r_i_glide_einternal>
10.7416820526123

> <i_i_glide_confnum>
79

> <i_i_glide_posenum>
101

> <r_i_glide_eff_state_penalty>
0

> <s_user_duplicate_titles>
CHEMBL3587_lig12

> <s_m_subgroup_title>
dock_pv

> <s_m_subgroupid>
dock_pv

> <b_m_subgroup_collapsed>
1

$$$$
CHEMBL3587_lig25
                    3D
 Schrodinger Suite 2021-1.
 59 64  0  0  1  0            999 V2000
   -6.3293   58.3529   33.7625 N   0  0  0  0  0  0
   -7.4441   57.6500   33.4527 C   0  0  0  0  0  0
   -7.5314   56.3298   33.1467 N   0  0  0  0  0  0
   -5.1611   57.6638   33.7677 C   0  0  0  0  0  0
   -5.0877   56.3105   33.3855 C   0  0  0  0  0  0
   -6.3459   55.7021   33.1039 C   0  0  0  0  0  0
   -6.1111   54.3672   32.8090 N   0  0  0  0  0  0
   -4.7503   54.1535   32.8880 C   0  0  0  0  0  0
   -4.0595   55.3106   33.2166 C   0  0  0  0  0  0
   -2.5784   55.4641   33.3593 C   0  0  0  0  0  0
   -1.9159   56.6616   33.0664 C   0  0  0  0  0  0
   -0.6001   56.8830   33.4720 C   0  0  0  0  0  0
    0.1320   55.7999   33.9784 C   0  0  0  0  0  0
   -0.4836   54.5636   34.1625 C   0  0  0  0  0  0
   -1.8426   54.4148   33.9084 C   0  0  0  0  0  0
   -0.1188   58.1735   33.3637 O   0  0  0  0  0  0
    1.0883   58.5113   34.0507 C   0  0  0  0  0  0
    1.4226   59.9884   33.8941 C   0  0  0  0  0  0
    2.0592   60.6626   34.9408 C   0  0  0  0  0  0
    2.3945   62.0056   34.8031 C   0  0  0  0  0  0
    2.1042   62.6716   33.6164 C   0  0  0  0  0  0
    1.4811   62.0057   32.5639 C   0  0  0  0  0  0
    1.1462   60.6608   32.6993 C   0  0  0  0  0  0
   -4.0334   58.3480   34.1994 N   0  0  0  0  0  0
   -7.1038   53.3140   32.5407 C   0  0  2  0  0  0
   -6.8218   52.3051   31.4016 C   0  0  0  0  0  0
   -7.5560   53.2992   30.4837 C   0  0  2  0  0  0
   -8.3886   53.6164   31.7300 C   0  0  0  0  0  0
   -8.2676   52.7681   29.3361 N   0  0  0  0  0  0
   -7.5126   52.3501   28.1620 C   0  0  0  0  0  0
   -8.6499   52.8431   27.2765 C   0  0  0  0  0  0
   -9.0293   53.6817   28.4844 C   0  0  0  0  0  0
   -8.3766   58.1956   33.4665 H   0  0  0  0  0  0
   -4.3656   53.1621   32.7005 H   0  0  0  0  0  0
   -2.4336   57.4616   32.5634 H   0  0  0  0  0  0
    1.1637   55.9090   34.2710 H   0  0  0  0  0  0
    0.0740   53.7321   34.5622 H   0  0  0  0  0  0
   -2.3315   53.4868   34.1640 H   0  0  0  0  0  0
    1.9360   57.9485   33.6631 H   0  0  0  0  0  0
    0.9789   58.2690   35.1118 H   0  0  0  0  0  0
    2.2875   60.1496   35.8633 H   0  0  0  0  0  0
    2.8730   62.5295   35.6175 H   0  0  0  0  0  0
    2.3642   63.7126   33.5105 H   0  0  0  0  0  0
    1.2745   62.5304   31.6436 H   0  0  0  0  0  0
    0.6773   60.1362   31.8803 H   0  0  0  0  0  0
   -3.1601   57.8385   34.2031 H   0  0  0  0  0  0
   -4.0251   59.3589   34.1646 H   0  0  0  0  0  0
   -7.2762   52.8713   33.5239 H   0  0  0  0  0  0
   -5.7846   52.0813   31.1525 H   0  0  0  0  0  0
   -7.3378   51.3500   31.5358 H   0  0  0  0  0  0
   -6.9261   54.1352   30.1652 H   0  0  0  0  0  0
   -9.1924   52.8992   31.9256 H   0  0  0  0  0  0
   -8.8348   54.6092   31.7816 H   0  0  0  0  0  0
   -6.5884   52.9153   28.0149 H   0  0  0  0  0  0
   -7.2937   51.2839   28.1566 H   0  0  0  0  0  0
   -9.3839   52.0843   27.0050 H   0  0  0  0  0  0
   -8.3449   53.4151   26.3979 H   0  0  0  0  0  0
  -10.0883   53.7459   28.7383 H   0  0  0  0  0  0
   -8.6145   54.6920   28.4476 H   0  0  0  0  0  0
  1  4  1  0  0  0
  1  2  2  0  0  0
  2  3  1  0  0  0
  2 33  1  0  0  0
  3  6  2  0  0  0
  4  5  2  0  0  0
  4 24  1  0  0  0
  5  9  1  0  0  0
  5  6  1  0  0  0
  6  7  1  0  0  0
  7  8  1  0  0  0
  7 25  1  0  0  0
  8  9  2  0  0  0
  8 34  1  0  0  0
  9 10  1  0  0  0
 10 15  1  0  0  0
 10 11  2  0  0  0
 11 12  1  0  0  0
 11 35  1  0  0  0
 12 16  1  0  0  0
 12 13  2  0  0  0
 13 14  1  0  0  0
 13 36  1  0  0  0
 14 15  2  0  0  0
 14 37  1  0  0  0
 15 38  1  0  0  0
 16 17  1  0  0  0
 17 18  1  0  0  0
 17 39  1  0  0  0
 17 40  1  0  0  0
 18 19  2  0  0  0
 18 23  1  0  0  0
 19 20  1  0  0  0
 19 41  1  0  0  0
 20 21  2  0  0  0
 20 42  1  0  0  0
 21 22  1  0  0  0
 21 43  1  0  0  0
 22 23  2  0  0  0
 22 44  1  0  0  0
 23 45  1  0  0  0
 24 46  1  0  0  0
 24 47  1  0  0  0
 25 26  1  0  0  0
 25 28  1  0  0  0
 25 48  1  0  0  0
 26 27  1  0  0  0
 26 49  1  0  0  0
 26 50  1  0  0  0
 27 28  1  0  0  0
 27 29  1  0  0  0
 27 51  1  0  0  0
 28 52  1  0  0  0
 28 53  1  0  0  0
 29 30  1  0  0  0
 29 32  1  0  0  0
 30 31  1  0  0  0
 30 54  1  0  0  0
 30 55  1  0  0  0
 31 32  1  0  0  0
 31 56  1  0  0  0
 31 57  1  0  0  0
 32 58  1  0  0  0
 32 59  1  0  0  0
M  END
> <s_m_entry_id>
65929

> <s_m_entry_name>
dock_pv.10

> <s_m_Source_Path>
/home/csk/Desktop/cluster/DUD-E-result/mp2k1

> <s_m_Source_File>
dock_pv.maegz

> <i_m_Source_File_Index>
10

> <chembl_id>
CHEMBL551064

> <chembl_pref_name>
AEW-541

> <i_lp_mmshare_version>
53161

> <i_f3d_flags>
0

> <r_lp_tautomer_probability>
1

> <s_lp_Force_Field>
OPLS_2005

> <r_lp_Energy>
50.407015

> <b_lp_Chiralities_Consistent>
1

> <s_lp_Variant>
CHEMBL3587_lig25-1

> <s_i_glide_gridfile>
glide-grid_3eqh

> <i_i_glide_lignum>
25

> <i_i_glide_rotatable_bonds>
6

> <r_i_docking_score>
-7.78956911069437

> <r_i_glide_ligand_efficiency>
-0.243424034709199

> <r_i_glide_ligand_efficiency_sa>
-0.772823136650652

> <r_i_glide_ligand_efficiency_ln>
-1.7442968595189

> <r_i_glide_gscore>
-7.78956911069437

> <r_i_glide_lipo>
-4.64518923388789

> <r_i_glide_hbond>
-0.159896510838657

> <r_i_glide_metal>
0

> <r_i_glide_rewards>
-1.00494015037686

> <r_i_glide_evdw>
-51.9764366149902

> <r_i_glide_ecoul>
-0.187941431999207

> <r_i_glide_erotb>
0.657351997421508

> <r_i_glide_esite>
-0.00988216746307974

> <r_i_glide_emodel>
-70.4808294160516

> <r_i_glide_energy>
-52.1643780469894

> <r_i_glide_einternal>
7.11597394943237

> <i_i_glide_confnum>
24

> <i_i_glide_posenum>
213

> <r_i_glide_eff_state_penalty>
0

> <s_user_duplicate_titles>
CHEMBL3587_lig25

> <s_m_subgroup_title>
dock_pv

> <s_m_subgroupid>
dock_pv

> <b_m_subgroup_collapsed>
1

$$$$
CHEMBL3587_lig4
                    3D
 Schrodinger Suite 2021-1.
 31 33  0  0  1  0            999 V2000
   -0.1397   54.2333   33.8419 C   0  0  0  0  0  0
   -0.9558   55.4340   33.7630 N   0  0  0  0  0  0
   -0.1924   56.6579   33.9340 N   0  0  0  0  0  0
   -0.8695   57.7683   34.0126 C   0  0  0  0  0  0
   -2.2752   57.8560   33.9847 N   0  0  0  0  0  0
   -2.9729   56.7899   33.7710 C   0  0  0  0  0  0
   -4.4423   56.8958   33.6993 C   0  0  0  0  0  0
   -5.0467   57.9480   33.9449 O   0  0  0  0  0  0
   -5.0839   55.7102   33.3630 N   0  0  0  0  0  0
   -6.5513   55.7956   33.1604 C   0  0  0  0  0  0
   -4.4878   54.4593   33.1668 C   0  0  0  0  0  0
   -5.1992   53.5056   32.8454 O   0  0  0  0  0  0
   -3.0930   54.3627   33.3637 N   0  0  0  0  0  0
   -2.3855   55.4040   33.6023 C   0  0  0  0  0  0
   -0.1154   59.0312   34.1165 C   0  0  0  0  0  0
   -0.5876   60.0682   34.9326 C   0  0  0  0  0  0
    0.0743   61.2913   34.9630 C   0  0  0  0  0  0
    1.2168   61.4822   34.1913 C   0  0  0  0  0  0
    1.7044   60.4567   33.3870 C   0  0  0  0  0  0
    1.0461   59.2308   33.3543 C   0  0  0  0  0  0
   -0.5767   53.5473   34.5630 H   0  0  0  0  0  0
   -0.0840   53.7006   32.8974 H   0  0  0  0  0  0
    0.8740   54.4607   34.1630 H   0  0  0  0  0  0
   -6.8628   55.2331   32.2777 H   0  0  0  0  0  0
   -7.0757   55.3814   34.0234 H   0  0  0  0  0  0
   -6.9152   56.8121   32.9974 H   0  0  0  0  0  0
   -1.4876   59.9503   35.5200 H   0  0  0  0  0  0
   -0.3062   62.0926   35.5788 H   0  0  0  0  0  0
    1.7243   62.4358   34.2148 H   0  0  0  0  0  0
    2.5874   60.6130   32.7839 H   0  0  0  0  0  0
    1.4252   58.4537   32.7043 H   0  0  0  0  0  0
  1  2  1  0  0  0
  1 21  1  0  0  0
  1 22  1  0  0  0
  1 23  1  0  0  0
  2  3  1  0  0  0
  2 14  1  0  0  0
  3  4  2  0  0  0
  4  5  1  0  0  0
  4 15  1  0  0  0
  5  6  2  0  0  0
  6  7  1  0  0  0
  6 14  1  0  0  0
  7  8  2  0  0  0
  7  9  1  0  0  0
  9 10  1  0  0  0
  9 11  1  0  0  0
 10 24  1  0  0  0
 10 25  1  0  0  0
 10 26  1  0  0  0
 11 12  2  0  0  0
 11 13  1  0  0  0
 13 14  2  0  0  0
 15 16  2  0  0  0
 15 20  1  0  0  0
 16 17  1  0  0  0
 16 27  1  0  0  0
 17 18  2  0  0  0
 17 28  1  0  0  0
 18 19  1  0  0  0
 18 29  1  0  0  0
 19 20  2  0  0  0
 19 30  1  0  0  0
 20 31  1  0  0  0
M  END
> <s_m_entry_id>
65930

> <s_m_entry_name>
dock_pv.11

> <s_m_Source_Path>
/home/csk/Desktop/cluster/DUD-E-result/mp2k1

> <s_m_Source_File>
dock_pv.maegz

> <i_m_Source_File_Index>
11

> <chembl_id>
CHEMBL1527391

> <chembl_pref_name>
None

> <i_lp_mmshare_version>
53161

> <i_f3d_flags>
0

> <r_lp_tautomer_probability>
1

> <s_lp_Force_Field>
OPLS_2005

> <r_lp_Energy>
31.010117

> <b_lp_Chiralities_Consistent>
1

> <s_lp_Variant>
CHEMBL3587_lig4-1

> <s_i_glide_gridfile>
glide-grid_3eqh

> <i_i_glide_lignum>
4

> <i_i_glide_rotatable_bonds>
1

> <r_i_docking_score>
-7.6136072234062

> <r_i_glide_ligand_efficiency>
-0.38068036117031

> <r_i_glide_ligand_efficiency_sa>
-1.03332547762055

> <r_i_glide_ligand_efficiency_ln>
-1.90543477444606

> <r_i_glide_gscore>
-7.6136072234062

> <r_i_glide_lipo>
-1.95381178792375

> <r_i_glide_hbond>
0

> <r_i_glide_metal>
0

> <r_i_glide_rewards>
-3.5681778977694

> <r_i_glide_evdw>
-40.790210723877

> <r_i_glide_ecoul>
-1.99014043807983

> <r_i_glide_erotb>
0.246414064192766

> <r_i_glide_esite>
0

> <r_i_glide_emodel>
-60.7950832248059

> <r_i_glide_energy>
-42.7803511619568

> <r_i_glide_einternal>
1.40337204933167

> <i_i_glide_confnum>
1

> <i_i_glide_posenum>
133

> <r_i_glide_eff_state_penalty>
0

> <s_user_duplicate_titles>
CHEMBL3587_lig4

> <s_m_subgroup_title>
dock_pv

> <s_m_subgroupid>
dock_pv

> <b_m_subgroup_collapsed>
1

$$$$
51273
                    3D
 Schrodinger Suite 2021-1.
 52 55  0  0  1  0            999 V2000
   -8.1099   52.4562   33.3633 C   0  0  0  0  0  0
   -6.7503   52.1820   33.2255 C   0  0  0  0  0  0
   -5.9436   53.0227   32.4590 C   0  0  0  0  0  0
   -6.4915   54.1397   31.8166 C   0  0  0  0  0  0
   -7.8636   54.4199   31.9619 C   0  0  0  0  0  0
   -8.6607   53.5746   32.7385 C   0  0  0  0  0  0
   -8.4711   55.5263   31.3629 N   0  0  0  0  0  0
   -5.4382   55.1478   30.7951 S   0  0  0  0  0  0
   -4.2727   55.7584   31.9948 C   0  0  0  0  0  0
   -4.5189   56.8256   32.7909 C   0  0  0  0  0  0
   -5.7547   57.5480   32.7039 C   0  0  0  0  0  0
   -6.7262   58.1803   32.6884 N   0  0  0  0  0  0
   -3.5584   57.3646   33.7856 C   0  0  0  0  0  0
   -4.0309   57.7065   35.0548 C   0  0  0  0  0  0
   -3.1715   58.2053   36.0270 C   0  0  0  0  0  0
   -1.8197   58.3488   35.7570 C   0  0  0  0  0  0
   -1.3104   57.9940   34.5072 C   0  0  0  0  0  0
   -2.1900   57.5223   33.5187 C   0  0  0  0  0  0
    0.2037   58.0014   34.3178 C   0  0  2  0  0  0
    0.8586   59.3822   34.1890 C   0  0  0  0  0  0
    1.6687   59.8512   35.2290 C   0  0  0  0  0  0
    2.2994   61.0912   35.1547 C   0  0  0  0  0  0
    2.0791   61.9067   34.0538 C   0  0  0  0  0  0
    1.2666   61.4595   33.0023 C   0  0  0  0  0  0
    0.6807   60.1906   33.0565 C   0  0  0  0  0  0
    0.9501   62.2816   31.9414 O   0  0  0  0  0  0
    1.8619   63.3781   31.7638 C   0  0  0  0  0  0
    2.1869   64.0596   33.1038 C   0  0  0  0  0  0
    2.7489   63.1124   34.0158 O   0  0  0  0  0  0
    0.6491   57.0675   33.3631 O   0  0  0  0  0  0
   -3.1410   54.9871   31.9844 N   0  0  0  0  0  0
   -8.7331   51.8078   33.9621 H   0  0  0  0  0  0
   -6.3255   51.3166   33.7145 H   0  0  0  0  0  0
   -4.8945   52.7944   32.3521 H   0  0  0  0  0  0
   -9.7147   53.7776   32.8591 H   0  0  0  0  0  0
   -7.9246   56.1534   30.7741 H   0  0  0  0  0  0
   -9.4541   55.6927   31.5018 H   0  0  0  0  0  0
   -5.0743   57.5731   35.2995 H   0  0  0  0  0  0
   -3.5586   58.4592   36.9958 H   0  0  0  0  0  0
   -1.1578   58.7057   36.5303 H   0  0  0  0  0  0
   -1.8063   57.2537   32.5450 H   0  0  0  0  0  0
    0.5875   57.5655   35.2431 H   0  0  0  0  0  0
    1.8033   59.2535   36.1169 H   0  0  0  0  0  0
    2.9346   61.4303   35.9600 H   0  0  0  0  0  0
    0.0741   59.8459   32.2354 H   0  0  0  0  0  0
    1.4432   64.0769   31.0467 H   0  0  0  0  0  0
    2.8068   63.0103   31.3631 H   0  0  0  0  0  0
    1.2729   64.4763   33.5201 H   0  0  0  0  0  0
    2.8840   64.8849   32.9629 H   0  0  0  0  0  0
    0.4741   57.3909   32.4651 H   0  0  0  0  0  0
   -2.4024   55.1346   32.6580 H   0  0  0  0  0  0
   -3.0364   54.2366   31.3185 H   0  0  0  0  0  0
  1  6  1  0  0  0
  1  2  2  0  0  0
  1 32  1  0  0  0
  2  3  1  0  0  0
  2 33  1  0  0  0
  3  4  2  0  0  0
  3 34  1  0  0  0
  4  5  1  0  0  0
  4  8  1  0  0  0
  5  6  2  0  0  0
  5  7  1  0  0  0
  6 35  1  0  0  0
  7 36  1  0  0  0
  7 37  1  0  0  0
  8  9  1  0  0  0
  9 10  2  0  0  0
  9 31  1  0  0  0
 10 11  1  0  0  0
 10 13  1  0  0  0
 11 12  3  0  0  0
 13 18  1  0  0  0
 13 14  2  0  0  0
 14 15  1  0  0  0
 14 38  1  0  0  0
 15 16  2  0  0  0
 15 39  1  0  0  0
 16 17  1  0  0  0
 16 40  1  0  0  0
 17 18  2  0  0  0
 17 19  1  0  0  0
 18 41  1  0  0  0
 19 20  1  0  0  0
 19 30  1  0  0  0
 19 42  1  0  0  0
 20 25  1  0  0  0
 20 21  2  0  0  0
 21 22  1  0  0  0
 21 43  1  0  0  0
 22 23  2  0  0  0
 22 44  1  0  0  0
 23 29  1  0  0  0
 23 24  1  0  0  0
 24 25  2  0  0  0
 24 26  1  0  0  0
 25 45  1  0  0  0
 26 27  1  0  0  0
 27 28  1  0  0  0
 27 46  1  0  0  0
 27 47  1  0  0  0
 28 29  1  0  0  0
 28 48  1  0  0  0
 28 49  1  0  0  0
 30 50  1  0  0  0
 31 51  1  0  0  0
 31 52  1  0  0  0
M  END
> <s_m_entry_id>
65945

> <s_m_entry_name>
ligand_docking-pose.1

> <s_m_Source_Path>
/home/csk/Desktop/cluster/DUD-E-result/mp2k1

> <s_m_Source_File>
ligand_docking-pose.sdf

> <i_m_Source_File_Index>
1

> <i_lp_mmshare_version>
53161

> <r_lp_tautomer_probability>
0.499999974950001

> <s_lp_Force_Field>
OPLS_2005

> <r_lp_Energy>
34.029692

> <b_lp_Chiralities_Consistent>
1

> <s_lp_Variant>
51273-1

> <s_i_glide_gridfile>
glide-grid_3eqh

> <i_i_glide_lignum>
65

> <i_i_glide_rotatable_bonds>
6

> <r_i_docking_score>
-10.4552426694156

> <r_i_glide_ligand_efficiency>
-0.337265892561793

> <r_i_glide_ligand_efficiency_sa>
-1.05948054839238

> <r_i_glide_ligand_efficiency_ln>
-2.35797763666068

> <r_i_glide_gscore>
-10.4552426694156

> <r_i_glide_lipo>
-4.8573397367738

> <r_i_glide_hbond>
-0.715706098934159

> <r_i_glide_metal>
0

> <r_i_glide_rewards>
-1.70032533333333

> <r_i_glide_evdw>
-46.4909515380859

> <r_i_glide_ecoul>
-8.78110694885254

> <r_i_glide_erotb>
0.534118625827882

> <r_i_glide_esite>
-0.0742765069700099

> <r_i_glide_emodel>
-82.674127127498

> <r_i_glide_energy>
-55.2720584869385

> <r_i_glide_einternal>
5.62995719909668

> <i_i_glide_confnum>
36

> <i_i_glide_posenum>
151

> <r_i_glide_eff_state_penalty>
0

> <i_f3d_flags>
0

> <s_user_duplicate_titles>
51273

> <s_m_subgroup_title>
dock_pv

> <s_m_subgroupid>
dock_pv1

> <b_m_subgroup_collapsed>
0

$$$$
51223
                    3D
 Schrodinger Suite 2021-1.
 49 51  0  0  1  0            999 V2000
   -5.0829   53.1212   28.9285 C   0  0  0  0  0  0
   -5.6217   53.0405   30.3476 C   0  0  0  0  0  0
   -6.3258   51.8741   30.6732 C   0  0  0  0  0  0
   -6.7868   51.6517   31.9650 C   0  0  0  0  0  0
   -6.5313   52.5862   32.9554 C   0  0  0  0  0  0
   -5.8643   53.7637   32.6373 C   0  0  0  0  0  0
   -5.4254   54.0504   31.3272 C   0  0  0  0  0  0
   -4.8441   55.4686   31.0212 C   0  0  1  0  0  0
   -4.3494   56.2491   32.2507 C   0  0  0  0  0  0
   -5.2734   56.9053   33.0695 C   0  0  0  0  0  0
   -4.8529   57.5504   34.2283 C   0  0  0  0  0  0
   -3.4957   57.6169   34.5384 C   0  0  0  0  0  0
   -2.5401   57.0432   33.6899 C   0  0  0  0  0  0
   -2.9847   56.3387   32.5634 C   0  0  0  0  0  0
   -1.0826   57.2023   33.9342 C   0  0  0  0  0  0
   -0.4946   58.3606   34.3160 C   0  0  0  0  0  0
   -1.1260   59.5481   34.5664 N   0  0  0  0  0  0
    1.2727   58.5153   34.5576 S   0  0  0  0  0  0
    1.6372   60.1933   34.0889 C   0  0  0  0  0  0
    2.2204   61.0086   35.0539 C   0  0  0  0  0  0
    2.4764   62.3479   34.7871 C   0  0  0  0  0  0
    2.1789   62.8853   33.5403 C   0  0  0  0  0  0
    1.6238   62.0704   32.5595 C   0  0  0  0  0  0
    1.3660   60.7226   32.8132 C   0  0  0  0  0  0
    0.8750   59.9480   31.7649 N   0  0  0  0  0  0
   -0.2931   56.0194   33.7974 C   0  0  0  0  0  0
    0.3830   55.0809   33.7630 N   0  0  0  0  0  0
   -3.9026   55.5479   29.9616 O   0  0  0  0  0  0
   -5.2685   52.2136   28.3547 H   0  0  0  0  0  0
   -5.5269   53.9479   28.3863 H   0  0  0  0  0  0
   -4.0029   53.2586   28.9634 H   0  0  0  0  0  0
   -6.5020   51.1136   29.9275 H   0  0  0  0  0  0
   -7.3242   50.7480   32.2023 H   0  0  0  0  0  0
   -6.8682   52.4107   33.9665 H   0  0  0  0  0  0
   -5.7277   54.4568   33.4506 H   0  0  0  0  0  0
   -5.7065   56.0168   30.6400 H   0  0  0  0  0  0
   -6.3281   56.8622   32.8396 H   0  0  0  0  0  0
   -5.5858   57.9942   34.8834 H   0  0  0  0  0  0
   -3.1868   58.1266   35.4377 H   0  0  0  0  0  0
   -2.2633   55.8730   31.9083 H   0  0  0  0  0  0
   -2.0759   59.7306   34.2606 H   0  0  0  0  0  0
   -0.5868   60.3521   34.8544 H   0  0  0  0  0  0
    2.4731   60.6051   36.0237 H   0  0  0  0  0  0
    2.9081   62.9658   35.5548 H   0  0  0  0  0  0
    2.3796   63.9270   33.3345 H   0  0  0  0  0  0
    1.4085   62.4953   31.5919 H   0  0  0  0  0  0
    0.8222   58.9503   31.9375 H   0  0  0  0  0  0
    1.2037   60.2385   30.8517 H   0  0  0  0  0  0
   -3.7399   56.4839   29.7802 H   0  0  0  0  0  0
  1  2  1  0  0  0
  1 29  1  0  0  0
  1 30  1  0  0  0
  1 31  1  0  0  0
  2  7  1  0  0  0
  2  3  2  0  0  0
  3  4  1  0  0  0
  3 32  1  0  0  0
  4  5  2  0  0  0
  4 33  1  0  0  0
  5  6  1  0  0  0
  5 34  1  0  0  0
  6  7  2  0  0  0
  6 35  1  0  0  0
  7  8  1  0  0  0
  8  9  1  0  0  0
  8 28  1  0  0  0
  8 36  1  0  0  0
  9 14  1  0  0  0
  9 10  2  0  0  0
 10 11  1  0  0  0
 10 37  1  0  0  0
 11 12  2  0  0  0
 11 38  1  0  0  0
 12 13  1  0  0  0
 12 39  1  0  0  0
 13 14  2  0  0  0
 13 15  1  0  0  0
 14 40  1  0  0  0
 15 16  2  0  0  0
 15 26  1  0  0  0
 16 17  1  0  0  0
 16 18  1  0  0  0
 17 41  1  0  0  0
 17 42  1  0  0  0
 18 19  1  0  0  0
 19 24  1  0  0  0
 19 20  2  0  0  0
 20 21  1  0  0  0
 20 43  1  0  0  0
 21 22  2  0  0  0
 21 44  1  0  0  0
 22 23  1  0  0  0
 22 45  1  0  0  0
 23 24  2  0  0  0
 23 46  1  0  0  0
 24 25  1  0  0  0
 25 47  1  0  0  0
 25 48  1  0  0  0
 26 27  3  0  0  0
 28 49  1  0  0  0
M  END
> <s_m_entry_id>
65946

> <s_m_entry_name>
ligand_docking-pose.2

> <s_m_Source_Path>
/home/csk/Desktop/cluster/DUD-E-result/mp2k1

> <s_m_Source_File>
ligand_docking-pose.sdf

> <i_m_Source_File_Index>
2

> <i_lp_mmshare_version>
53161

> <r_lp_tautomer_probability>
0.499999974950001

> <s_lp_Force_Field>
OPLS_2005

> <r_lp_Energy>
30.722592

> <b_lp_Chiralities_Consistent>
1

> <s_lp_Variant>
51223-2

> <s_i_glide_gridfile>
glide-grid_3eqh

> <i_i_glide_lignum>
147

> <i_i_glide_rotatable_bonds>
6

> <r_i_docking_score>
-10.124324639666

> <r_i_glide_ligand_efficiency>
-0.361583022845216

> <r_i_glide_ligand_efficiency_sa>
-1.09797901836968

> <r_i_glide_ligand_efficiency_ln>
-2.33699138992323

> <r_i_glide_gscore>
-10.124324639666

> <r_i_glide_lipo>
-4.58698441462286

> <r_i_glide_hbond>
-0.846909266565542

> <r_i_glide_metal>
0

> <r_i_glide_rewards>
-1.53081910421942

> <r_i_glide_evdw>
-47.2152824401855

> <r_i_glide_ecoul>
-9.56500911712646

> <r_i_glide_erotb>
0.648474795872842

> <r_i_glide_esite>
-0.012571160552809

> <r_i_glide_emodel>
-82.9011116782312

> <r_i_glide_energy>
-56.780291557312

> <r_i_glide_einternal>
8.39167881011963

> <i_i_glide_confnum>
93

> <i_i_glide_posenum>
251

> <r_i_glide_eff_state_penalty>
0

> <i_f3d_flags>
0

> <s_user_duplicate_titles>
51223

> <s_m_subgroup_title>
dock_pv

> <s_m_subgroupid>
dock_pv1

> <b_m_subgroup_collapsed>
0

$$$$
51579
                    3D
 Schrodinger Suite 2021-1.
 47 49  0  0  1  0            999 V2000
    2.4194   63.4579   32.9424 C   0  0  0  0  0  0
    2.9381   63.0505   34.1627 C   0  0  0  0  0  0
    2.6369   61.7861   34.6761 C   0  0  0  0  0  0
    1.9223   60.8655   33.9048 C   0  0  0  0  0  0
    1.4663   61.2556   32.6360 C   0  0  0  0  0  0
    1.6628   62.5641   32.1945 C   0  0  0  0  0  0
    0.8740   60.3479   31.7637 N   0  0  0  0  0  0
    1.6739   59.2057   34.5407 S   0  0  0  0  0  0
   -0.0994   58.9760   34.4631 C   0  0  0  0  0  0
   -0.7162   57.8019   34.1644 C   0  0  0  0  0  0
   -0.0130   56.5884   33.9073 C   0  0  0  0  0  0
    0.4745   55.5479   33.7629 N   0  0  0  0  0  0
   -2.1874   57.6417   34.1699 C   0  0  0  0  0  0
   -2.8749   58.0083   35.3243 C   0  0  0  0  0  0
   -4.2560   57.9480   35.3629 C   0  0  0  0  0  0
   -4.9766   57.4908   34.2744 C   0  0  0  0  0  0
   -4.3184   57.0812   33.1128 C   0  0  0  0  0  0
   -2.9135   57.1491   33.0676 C   0  0  0  0  0  0
   -5.1616   56.6921   31.8911 C   0  0  1  0  0  0
   -5.5524   55.2130   31.8557 C   0  0  0  0  0  0
   -6.1963   54.6155   32.9472 C   0  0  0  0  0  0
   -6.5547   53.2690   32.9128 C   0  0  0  0  0  0
   -6.2861   52.5043   31.7796 C   0  0  0  0  0  0
   -5.6450   53.0839   30.6791 C   0  0  0  0  0  0
   -5.2797   54.4356   30.7207 C   0  0  0  0  0  0
   -5.3674   52.2790   29.4982 C   0  0  0  0  0  0
   -5.1481   51.6329   28.5626 N   0  0  0  0  0  0
   -6.3003   57.5403   31.7631 O   0  0  0  0  0  0
   -0.7260   60.1580   34.7656 N   0  0  0  0  0  0
    2.6227   64.4515   32.5671 H   0  0  0  0  0  0
    3.5629   63.7272   34.7273 H   0  0  0  0  0  0
    3.0219   61.4949   35.6429 H   0  0  0  0  0  0
    1.2740   62.8900   31.2474 H   0  0  0  0  0  0
    0.8754   59.3872   32.0794 H   0  0  0  0  0  0
    1.1094   60.5043   30.7920 H   0  0  0  0  0  0
   -2.3402   58.3819   36.1876 H   0  0  0  0  0  0
   -4.7727   58.3239   36.2321 H   0  0  0  0  0  0
   -6.0550   57.4823   34.3254 H   0  0  0  0  0  0
   -2.3901   56.8681   32.1622 H   0  0  0  0  0  0
   -4.5557   56.8856   31.0066 H   0  0  0  0  0  0
   -6.4250   55.1921   33.8314 H   0  0  0  0  0  0
   -7.0459   52.8208   33.7641 H   0  0  0  0  0  0
   -6.5780   51.4628   31.7689 H   0  0  0  0  0  0
   -4.7885   54.8906   29.8707 H   0  0  0  0  0  0
   -6.6542   57.4920   30.8527 H   0  0  0  0  0  0
   -1.7109   60.3013   34.5596 H   0  0  0  0  0  0
   -0.1809   60.9868   34.9631 H   0  0  0  0  0  0
  1  6  1  0  0  0
  1  2  2  0  0  0
  1 30  1  0  0  0
  2  3  1  0  0  0
  2 31  1  0  0  0
  3  4  2  0  0  0
  3 32  1  0  0  0
  4  5  1  0  0  0
  4  8  1  0  0  0
  5  6  2  0  0  0
  5  7  1  0  0  0
  6 33  1  0  0  0
  7 34  1  0  0  0
  7 35  1  0  0  0
  8  9  1  0  0  0
  9 10  2  0  0  0
  9 29  1  0  0  0
 10 11  1  0  0  0
 10 13  1  0  0  0
 11 12  3  0  0  0
 13 18  1  0  0  0
 13 14  2  0  0  0
 14 15  1  0  0  0
 14 36  1  0  0  0
 15 16  2  0  0  0
 15 37  1  0  0  0
 16 17  1  0  0  0
 16 38  1  0  0  0
 17 18  2  0  0  0
 17 19  1  0  0  0
 18 39  1  0  0  0
 19 20  1  0  0  0
 19 28  1  0  0  0
 19 40  1  0  0  0
 20 25  1  0  0  0
 20 21  2  0  0  0
 21 22  1  0  0  0
 21 41  1  0  0  0
 22 23  2  0  0  0
 22 42  1  0  0  0
 23 24  1  0  0  0
 23 43  1  0  0  0
 24 25  2  0  0  0
 24 26  1  0  0  0
 25 44  1  0  0  0
 26 27  3  0  0  0
 28 45  1  0  0  0
 29 46  1  0  0  0
 29 47  1  0  0  0
M  END
> <s_m_entry_id>
65948

> <s_m_entry_name>
ligand_docking-pose.4

> <s_m_Source_Path>
/home/csk/Desktop/cluster/DUD-E-result/mp2k1

> <s_m_Source_File>
ligand_docking-pose.sdf

> <i_m_Source_File_Index>
4

> <i_lp_mmshare_version>
53161

> <r_lp_tautomer_probability>
0.499999974950001

> <s_lp_Force_Field>
OPLS_2005

> <r_lp_Energy>
27.250608

> <b_lp_Chiralities_Consistent>
1

> <s_lp_Variant>
51579-2

> <s_i_glide_gridfile>
glide-grid_3eqh

> <i_i_glide_lignum>
78

> <i_i_glide_rotatable_bonds>
6

> <r_i_docking_score>
-9.91611815487448

> <r_i_glide_ligand_efficiency>
-0.341935108788775

> <r_i_glide_ligand_efficiency_sa>
-1.05053298684532

> <r_i_glide_ligand_efficiency_ln>
-2.27053960640564

> <r_i_glide_gscore>
-9.91611815487448

> <r_i_glide_lipo>
-4.30273927140191

> <r_i_glide_hbond>
-0.450797851520653

> <r_i_glide_metal>
0

> <r_i_glide_rewards>
-1.79136741838856

> <r_i_glide_evdw>
-43.9441757202148

> <r_i_glide_ecoul>
-11.7249794006348

> <r_i_glide_erotb>
0.616707782731489

> <r_i_glide_esite>
-0.0319657001888912

> <r_i_glide_emodel>
-86.0694814397996

> <r_i_glide_energy>
-55.6691551208496

> <r_i_glide_einternal>
5.39652633666992

> <i_i_glide_confnum>
58

> <i_i_glide_posenum>
257

> <r_i_glide_eff_state_penalty>
0

> <i_f3d_flags>
0

> <s_user_duplicate_titles>
51579

> <s_m_subgroup_title>
dock_pv

> <s_m_subgroupid>
dock_pv1

> <b_m_subgroup_collapsed>
0

$$$$
157230
                    3D
 Schrodinger Suite 2021-1.
 40 41  0  0  1  0            999 V2000
   -5.7418   52.6920   31.1287 C   0  0  0  0  0  0
   -5.2283   53.7360   30.3635 C   0  0  0  0  0  0
   -4.9031   54.9531   30.9627 C   0  0  0  0  0  0
   -5.0720   55.1256   32.3470 C   0  0  0  0  0  0
   -5.5867   54.0691   33.1022 C   0  0  0  0  0  0
   -5.9206   52.8562   32.5008 C   0  0  0  0  0  0
   -4.7254   56.6702   33.1745 S   0  0  0  0  0  0
   -2.9327   56.8000   33.2536 C   0  0  0  0  0  0
   -2.2733   57.4103   34.2684 C   0  0  0  0  0  0
   -0.8104   57.5302   34.2910 C   0  0  0  0  0  0
   -0.1836   58.6886   34.6156 C   0  0  0  0  0  0
    1.6005   58.8661   34.6263 S   0  0  0  0  0  0
    1.8375   60.5213   34.0173 C   0  0  0  0  0  0
    1.4128   60.9039   32.7383 C   0  0  0  0  0  0
    1.5715   62.2273   32.3280 C   0  0  0  0  0  0
    2.2445   63.1448   33.1270 C   0  0  0  0  0  0
    2.7186   62.7471   34.3715 C   0  0  0  0  0  0
    2.4741   61.4551   34.8378 C   0  0  0  0  0  0
    0.8740   60.0035   31.8562 O   0  0  0  0  0  0
   -0.7899   59.8733   34.9632 N   0  0  0  0  0  0
   -0.0553   56.3542   33.9946 C   0  0  0  0  0  0
    0.4741   55.3520   33.7629 N   0  0  0  0  0  0
   -2.9954   57.9252   35.3821 C   0  0  0  0  0  0
   -3.5256   58.3480   36.3156 N   0  0  0  0  0  0
   -2.3283   56.2430   32.1618 N   0  0  0  0  0  0
   -4.4269   55.9480   30.1553 O   0  0  0  0  0  0
   -5.9983   51.7544   30.6584 H   0  0  0  0  0  0
   -5.0943   53.6095   29.2989 H   0  0  0  0  0  0
   -5.7417   54.1897   34.1616 H   0  0  0  0  0  0
   -6.3203   52.0473   33.0964 H   0  0  0  0  0  0
    1.2219   62.5388   31.3630 H   0  0  0  0  0  0
    2.4145   64.1531   32.7755 H   0  0  0  0  0  0
    3.2741   63.4505   34.9695 H   0  0  0  0  0  0
    2.8320   61.1649   35.8154 H   0  0  0  0  0  0
    0.9274   59.0880   32.1485 H   0  0  0  0  0  0
   -1.7740   60.0374   34.7942 H   0  0  0  0  0  0
   -0.2317   60.6787   35.2057 H   0  0  0  0  0  0
   -1.3339   56.3399   32.0114 H   0  0  0  0  0  0
   -2.8766   55.8481   31.4076 H   0  0  0  0  0  0
   -4.3830   56.8224   30.5598 H   0  0  0  0  0  0
  1  6  1  0  0  0
  1  2  2  0  0  0
  1 27  1  0  0  0
  2  3  1  0  0  0
  2 28  1  0  0  0
  3  4  2  0  0  0
  3 26  1  0  0  0
  4  5  1  0  0  0
  4  7  1  0  0  0
  5  6  2  0  0  0
  5 29  1  0  0  0
  6 30  1  0  0  0
  7  8  1  0  0  0
  8  9  2  0  0  0
  8 25  1  0  0  0
  9 10  1  0  0  0
  9 23  1  0  0  0
 10 11  2  0  0  0
 10 21  1  0  0  0
 11 12  1  0  0  0
 11 20  1  0  0  0
 12 13  1  0  0  0
 13 18  1  0  0  0
 13 14  2  0  0  0
 14 15  1  0  0  0
 14 19  1  0  0  0
 15 16  2  0  0  0
 15 31  1  0  0  0
 16 17  1  0  0  0
 16 32  1  0  0  0
 17 18  2  0  0  0
 17 33  1  0  0  0
 18 34  1  0  0  0
 19 35  1  0  0  0
 20 36  1  0  0  0
 20 37  1  0  0  0
 21 22  3  0  0  0
 23 24  3  0  0  0
 25 38  1  0  0  0
 25 39  1  0  0  0
 26 40  1  0  0  0
M  END
> <s_m_entry_id>
65949

> <s_m_entry_name>
ligand_docking-pose.5

> <s_m_Source_Path>
/home/csk/Desktop/cluster/DUD-E-result/mp2k1

> <s_m_Source_File>
ligand_docking-pose.sdf

> <i_m_Source_File_Index>
5

> <i_lp_mmshare_version>
53161

> <r_lp_tautomer_probability>
0.99999999999473

> <s_lp_Force_Field>
OPLS_2005

> <r_lp_Energy>
30.249371

> <b_lp_Chiralities_Consistent>
1

> <s_lp_Variant>
157230-1

> <s_i_glide_gridfile>
glide-grid_3eqh

> <i_i_glide_lignum>
119

> <i_i_glide_rotatable_bonds>
7

> <r_i_docking_score>
-9.89293260219401

> <r_i_glide_ligand_efficiency>
-0.380497407776693

> <r_i_glide_ligand_efficiency_sa>
-1.12722207335345

> <r_i_glide_ligand_efficiency_ln>
-2.32332276026573

> <r_i_glide_gscore>
-9.89293260219401

> <r_i_glide_lipo>
-4.09483987758473

> <r_i_glide_hbond>
-0.774722642833603

> <r_i_glide_metal>
0

> <r_i_glide_rewards>
-1.86165336919325

> <r_i_glide_evdw>
-41.5709838867188

> <r_i_glide_ecoul>
-11.4909000396729

> <r_i_glide_erotb>
0.663874499425088

> <r_i_glide_esite>
-0.0234070117206496

> <r_i_glide_emodel>
-75.7909306541467

> <r_i_glide_energy>
-53.0618839263916

> <r_i_glide_einternal>
15.8245754241943

> <i_i_glide_confnum>
159

> <i_i_glide_posenum>
11

> <r_i_glide_eff_state_penalty>
0

> <i_f3d_flags>
0

> <s_user_duplicate_titles>
157230

> <s_m_subgroup_title>
dock_pv

> <s_m_subgroupid>
dock_pv1

> <b_m_subgroup_collapsed>
0

$$$$
396357
                    3D
 Schrodinger Suite 2021-1.
 35 36  0  0  1  0            999 V2000
   -5.3237   55.7053   32.8991 C   0  0  0  0  0  0
   -4.0577   56.2941   33.3535 N   0  0  0  0  0  0
   -2.8844   55.5833   33.3392 C   0  0  0  0  0  0
   -1.6774   56.0352   33.7681 C   0  0  0  0  0  0
   -1.6217   57.4251   34.2389 C   0  0  0  0  0  0
   -2.7938   58.1078   34.2691 C   0  0  0  0  0  0
   -4.0971   57.5480   33.9183 C   0  0  0  0  0  0
   -5.1248   58.1837   34.1630 O   0  0  0  0  0  0
   -0.4227   58.0078   34.6054 N   0  0  0  0  0  0
    0.0493   59.2439   34.1519 C   0  0  0  0  0  0
    0.9464   59.2673   33.0788 C   0  0  0  0  0  0
    1.4348   60.4792   32.5929 C   0  0  0  0  0  0
    1.0275   61.6754   33.1804 C   0  0  0  0  0  0
    0.1509   61.6534   34.2621 C   0  0  0  0  0  0
   -0.3220   60.4450   34.7668 C   0  0  0  0  0  0
   -1.1338   60.4551   35.8491 F   0  0  0  0  0  0
    1.6128   63.2181   32.5630 S   0  0  0  0  0  0
    3.3010   63.3639   33.2013 C   0  0  0  0  0  0
   -0.5090   55.1844   33.7630 C   0  0  0  0  0  0
    0.6158   55.5480   33.4446 O   0  0  0  0  0  0
   -0.7260   53.9480   34.1630 N   0  0  0  0  0  0
   -5.6289   54.9051   33.5745 H   0  0  0  0  0  0
   -5.1998   55.2795   31.9028 H   0  0  0  0  0  0
   -6.1443   56.4228   32.8373 H   0  0  0  0  0  0
   -3.0502   54.5777   32.9740 H   0  0  0  0  0  0
   -2.7936   59.1407   34.5799 H   0  0  0  0  0  0
    0.3408   57.3474   34.6517 H   0  0  0  0  0  0
    1.2582   58.3480   32.6038 H   0  0  0  0  0  0
    2.1235   60.4834   31.7630 H   0  0  0  0  0  0
   -0.1705   62.5739   34.7168 H   0  0  0  0  0  0
    3.7043   64.3480   32.9671 H   0  0  0  0  0  0
    3.3136   63.2335   34.2833 H   0  0  0  0  0  0
    3.9447   62.6099   32.7487 H   0  0  0  0  0  0
   -1.6466   53.6728   34.4671 H   0  0  0  0  0  0
    0.0273   53.2713   34.1795 H   0  0  0  0  0  0
  1  2  1  0  0  0
  1 22  1  0  0  0
  1 23  1  0  0  0
  1 24  1  0  0  0
  2  7  1  0  0  0
  2  3  1  0  0  0
  3  4  2  0  0  0
  3 25  1  0  0  0
  4  5  1  0  0  0
  4 19  1  0  0  0
  5  6  2  0  0  0
  5  9  1  0  0  0
  6  7  1  0  0  0
  6 26  1  0  0  0
  7  8  2  0  0  0
  9 10  1  0  0  0
  9 27  1  0  0  0
 10 15  1  0  0  0
 10 11  2  0  0  0
 11 12  1  0  0  0
 11 28  1  0  0  0
 12 13  2  0  0  0
 12 29  1  0  0  0
 13 14  1  0  0  0
 13 17  1  0  0  0
 14 15  2  0  0  0
 14 30  1  0  0  0
 15 16  1  0  0  0
 17 18  1  0  0  0
 18 31  1  0  0  0
 18 32  1  0  0  0
 18 33  1  0  0  0
 19 20  2  0  0  0
 19 21  1  0  0  0
 21 34  1  0  0  0
 21 35  1  0  0  0
M  END
> <s_m_entry_id>
65950

> <s_m_entry_name>
ligand_docking-pose.6

> <s_m_Source_Path>
/home/csk/Desktop/cluster/DUD-E-result/mp2k1

> <s_m_Source_File>
ligand_docking-pose.sdf

> <i_m_Source_File_Index>
6

> <i_lp_mmshare_version>
53161

> <r_lp_tautomer_probability>
0.999999999982488

> <s_lp_Force_Field>
OPLS_2005

> <r_lp_Energy>
32.245159

> <b_lp_Chiralities_Consistent>
1

> <s_lp_Variant>
396357-1

> <s_i_glide_gridfile>
glide-grid_3eqh

> <i_i_glide_lignum>
344

> <i_i_glide_rotatable_bonds>
4

> <r_i_docking_score>
-9.86271113245627

> <r_i_glide_ligand_efficiency>
-0.469652911069346

> <r_i_glide_ligand_efficiency_sa>
-1.29573676954202

> <r_i_glide_ligand_efficiency_ln>
-2.43853539801544

> <r_i_glide_gscore>
-9.86271113245627

> <r_i_glide_lipo>
-3.52797269446728

> <r_i_glide_hbond>
-0.776663914886111

> <r_i_glide_metal>
0

> <r_i_glide_rewards>
-2.35138651981975

> <r_i_glide_evdw>
-40.0737075805664

> <r_i_glide_ecoul>
-10.6292819976807

> <r_i_glide_erotb>
0.391389675397292

> <r_i_glide_esite>
0

> <r_i_glide_emodel>
-76.8446682030412

> <r_i_glide_energy>
-50.7029895782471

> <r_i_glide_einternal>
6.18149137496948

> <i_i_glide_confnum>
2

> <i_i_glide_posenum>
338

> <r_i_glide_eff_state_penalty>
0

> <i_f3d_flags>
0

> <s_user_duplicate_titles>
396357

> <s_m_subgroup_title>
dock_pv

> <s_m_subgroupid>
dock_pv1

> <b_m_subgroup_collapsed>
0

$$$$
51183
                    3D
 Schrodinger Suite 2021-1.
 49 51  0  0  1  0            999 V2000
   -5.0609   53.1216   28.9272 C   0  0  0  0  0  0
   -5.6077   53.0412   30.3425 C   0  0  0  0  0  0
   -6.3183   51.8761   30.6611 C   0  0  0  0  0  0
   -6.7907   51.6552   31.9482 C   0  0  0  0  0  0
   -6.5443   52.5909   32.9401 C   0  0  0  0  0  0
   -5.8722   53.7681   32.6294 C   0  0  0  0  0  0
   -5.4162   54.0523   31.3236 C   0  0  0  0  0  0
   -4.8245   55.4674   31.0272 C   0  0  1  0  0  0
   -4.3287   56.2447   32.2606 C   0  0  0  0  0  0
   -5.2540   56.8969   33.0819 C   0  0  0  0  0  0
   -4.8344   57.5425   34.2404 C   0  0  0  0  0  0
   -3.4767   57.6075   34.5507 C   0  0  0  0  0  0
   -2.5187   57.0404   33.6995 C   0  0  0  0  0  0
   -2.9626   56.3383   32.5693 C   0  0  0  0  0  0
   -1.0609   57.2142   33.9407 C   0  0  0  0  0  0
   -0.4880   58.3738   34.3341 C   0  0  0  0  0  0
   -1.1260   59.5482   34.6149 N   0  0  0  0  0  0
    1.2738   58.5535   34.5629 S   0  0  0  0  0  0
    1.6133   60.2198   34.0737 C   0  0  0  0  0  0
    2.3171   61.0440   34.9473 C   0  0  0  0  0  0
    2.6036   62.3509   34.5723 C   0  0  0  0  0  0
    2.1725   62.8326   33.3394 C   0  0  0  0  0  0
    1.4539   62.0114   32.4741 C   0  0  0  0  0  0
    1.1833   60.6934   32.8329 C   0  0  0  0  0  0
    2.4737   64.1372   32.9631 N   0  0  0  0  0  0
   -0.2449   56.0508   33.7900 C   0  0  0  0  0  0
    0.4730   55.1441   33.7601 N   0  0  0  0  0  0
   -3.8839   55.5473   29.9681 O   0  0  0  0  0  0
   -5.2442   52.2124   28.3537 H   0  0  0  0  0  0
   -5.5025   53.9480   28.3802 H   0  0  0  0  0  0
   -3.9814   53.2586   28.9632 H   0  0  0  0  0  0
   -6.4908   51.1162   29.9131 H   0  0  0  0  0  0
   -7.3300   50.7498   32.1807 H   0  0  0  0  0  0
   -6.8906   52.4136   33.9477 H   0  0  0  0  0  0
   -5.7430   54.4645   33.4413 H   0  0  0  0  0  0
   -5.6824   56.0235   30.6433 H   0  0  0  0  0  0
   -6.3084   56.8531   32.8500 H   0  0  0  0  0  0
   -5.5669   57.9777   34.9011 H   0  0  0  0  0  0
   -3.1700   58.1125   35.4551 H   0  0  0  0  0  0
   -2.2388   55.8798   31.9107 H   0  0  0  0  0  0
   -2.0843   59.7249   34.3339 H   0  0  0  0  0  0
   -0.5933   60.3492   34.9244 H   0  0  0  0  0  0
    2.6593   60.6699   35.9017 H   0  0  0  0  0  0
    3.1670   62.9875   35.2375 H   0  0  0  0  0  0
    1.1281   62.3828   31.5153 H   0  0  0  0  0  0
    0.6489   60.0431   32.1547 H   0  0  0  0  0  0
    2.3779   64.3926   31.9904 H   0  0  0  0  0  0
    3.1144   64.6674   33.5369 H   0  0  0  0  0  0
   -3.7208   56.4838   29.7889 H   0  0  0  0  0  0
  1  2  1  0  0  0
  1 29  1  0  0  0
  1 30  1  0  0  0
  1 31  1  0  0  0
  2  7  1  0  0  0
  2  3  2  0  0  0
  3  4  1  0  0  0
  3 32  1  0  0  0
  4  5  2  0  0  0
  4 33  1  0  0  0
  5  6  1  0  0  0
  5 34  1  0  0  0
  6  7  2  0  0  0
  6 35  1  0  0  0
  7  8  1  0  0  0
  8  9  1  0  0  0
  8 28  1  0  0  0
  8 36  1  0  0  0
  9 14  1  0  0  0
  9 10  2  0  0  0
 10 11  1  0  0  0
 10 37  1  0  0  0
 11 12  2  0  0  0
 11 38  1  0  0  0
 12 13  1  0  0  0
 12 39  1  0  0  0
 13 14  2  0  0  0
 13 15  1  0  0  0
 14 40  1  0  0  0
 15 16  2  0  0  0
 15 26  1  0  0  0
 16 17  1  0  0  0
 16 18  1  0  0  0
 17 41  1  0  0  0
 17 42  1  0  0  0
 18 19  1  0  0  0
 19 24  1  0  0  0
 19 20  2  0  0  0
 20 21  1  0  0  0
 20 43  1  0  0  0
 21 22  2  0  0  0
 21 44  1  0  0  0
 22 23  1  0  0  0
 22 25  1  0  0  0
 23 24  2  0  0  0
 23 45  1  0  0  0
 24 46  1  0  0  0
 25 47  1  0  0  0
 25 48  1  0  0  0
 26 27  3  0  0  0
 28 49  1  0  0  0
M  END
> <s_m_entry_id>
65951

> <s_m_entry_name>
ligand_docking-pose.7

> <s_m_Source_Path>
/home/csk/Desktop/cluster/DUD-E-result/mp2k1

> <s_m_Source_File>
ligand_docking-pose.sdf

> <i_m_Source_File_Index>
7

> <i_lp_mmshare_version>
53161

> <r_lp_tautomer_probability>
0.499999974950001

> <s_lp_Force_Field>
OPLS_2005

> <r_lp_Energy>
27.800756

> <b_lp_Chiralities_Consistent>
1

> <s_lp_Variant>
51183-2

> <s_i_glide_gridfile>
glide-grid_3eqh

> <i_i_glide_lignum>
145

> <i_i_glide_rotatable_bonds>
6

> <r_i_docking_score>
-9.82728625057387

> <r_i_glide_ligand_efficiency>
-0.350974508949067

> <r_i_glide_ligand_efficiency_sa>
-1.06576532210043

> <r_i_glide_ligand_efficiency_ln>
-2.26842620829469

> <r_i_glide_gscore>
-9.82728625057387

> <r_i_glide_lipo>
-4.57610147138785

> <r_i_glide_hbond>
-0.735120644352989

> <r_i_glide_metal>
0

> <r_i_glide_rewards>
-1.56393754939467

> <r_i_glide_evdw>
-50.8089942932129

> <r_i_glide_ecoul>
-6.98575162887573

> <r_i_glide_erotb>
0.648474795872842

> <r_i_glide_esite>
-0.0122889223192024

> <r_i_glide_emodel>
-84.8834010251509

> <r_i_glide_energy>
-57.7947459220886

> <r_i_glide_einternal>
8.28077411651611

> <i_i_glide_confnum>
151

> <i_i_glide_posenum>
398

> <r_i_glide_eff_state_penalty>
0

> <i_f3d_flags>
0

> <s_user_duplicate_titles>
51183

> <s_m_subgroup_title>
dock_pv

> <s_m_subgroupid>
dock_pv1

> <b_m_subgroup_collapsed>
0

$$$$
51712
                    3D
 Schrodinger Suite 2021-1.
 49 51  0  0  1  0            999 V2000
   -3.5277   54.7206   30.6552 C   0  0  0  0  0  0
   -4.6373   55.4285   31.4735 C   0  0  1  0  0  0
   -5.7070   54.3778   31.8595 C   0  0  0  0  0  0
   -6.9896   54.3867   31.2860 C   0  0  0  0  0  0
   -7.9299   53.4200   31.6345 C   0  0  0  0  0  0
   -7.5929   52.4299   32.5529 C   0  0  0  0  0  0
   -6.3260   52.4010   33.1256 C   0  0  0  0  0  0
   -5.3889   53.3740   32.7855 C   0  0  0  0  0  0
   -4.1233   56.2015   32.7033 C   0  0  0  0  0  0
   -5.0381   56.7814   33.5920 C   0  0  0  0  0  0
   -4.5980   57.5372   34.6767 C   0  0  0  0  0  0
   -3.2335   57.7200   34.8941 C   0  0  0  0  0  0
   -2.2989   57.1752   34.0062 C   0  0  0  0  0  0
   -2.7584   56.4248   32.9198 C   0  0  0  0  0  0
   -0.8402   57.3786   34.1466 C   0  0  0  0  0  0
   -0.2561   58.5539   34.4772 C   0  0  0  0  0  0
   -0.8951   59.7300   34.7741 N   0  0  0  0  0  0
    1.5166   58.7489   34.5630 S   0  0  0  0  0  0
    1.8036   60.4109   33.9965 C   0  0  0  0  0  0
    2.4736   61.2966   34.8453 C   0  0  0  0  0  0
    2.7330   62.6011   34.4307 C   0  0  0  0  0  0
    2.2950   63.0443   33.1850 C   0  0  0  0  0  0
    1.6320   62.1620   32.3355 C   0  0  0  0  0  0
    1.4230   60.8344   32.7132 C   0  0  0  0  0  0
    0.8976   59.9513   31.7706 N   0  0  0  0  0  0
   -0.0715   56.1900   33.9298 C   0  0  0  0  0  0
    0.4740   55.1820   33.7630 N   0  0  0  0  0  0
   -5.1260   56.3779   30.5628 O   0  0  0  0  0  0
   -2.9757   54.0029   31.2601 H   0  0  0  0  0  0
   -3.9489   54.1697   29.8117 H   0  0  0  0  0  0
   -2.8032   55.4220   30.2366 H   0  0  0  0  0  0
   -7.2693   55.1449   30.5675 H   0  0  0  0  0  0
   -8.9137   53.4390   31.1904 H   0  0  0  0  0  0
   -8.3194   51.6775   32.8228 H   0  0  0  0  0  0
   -6.0702   51.6233   33.8303 H   0  0  0  0  0  0
   -4.4099   53.3459   33.2418 H   0  0  0  0  0  0
   -6.0992   56.6462   33.4366 H   0  0  0  0  0  0
   -5.3222   57.9479   35.3620 H   0  0  0  0  0  0
   -2.9055   58.2812   35.7566 H   0  0  0  0  0  0
   -2.0301   56.0318   32.2280 H   0  0  0  0  0  0
   -1.8763   59.8670   34.5614 H   0  0  0  0  0  0
   -0.3575   60.5624   34.9699 H   0  0  0  0  0  0
    2.8075   60.9698   35.8188 H   0  0  0  0  0  0
    3.2739   63.2724   35.0751 H   0  0  0  0  0  0
    2.4871   64.0610   32.8696 H   0  0  0  0  0  0
    1.3191   62.5080   31.3631 H   0  0  0  0  0  0
    0.8735   58.9741   32.0400 H   0  0  0  0  0  0
    1.1833   60.1437   30.8201 H   0  0  0  0  0  0
   -4.4153   56.9878   30.3284 H   0  0  0  0  0  0
  1  2  1  0  0  0
  1 29  1  0  0  0
  1 30  1  0  0  0
  1 31  1  0  0  0
  2  3  1  0  0  0
  2  9  1  0  0  0
  2 28  1  0  0  0
  3  8  1  0  0  0
  3  4  2  0  0  0
  4  5  1  0  0  0
  4 32  1  0  0  0
  5  6  2  0  0  0
  5 33  1  0  0  0
  6  7  1  0  0  0
  6 34  1  0  0  0
  7  8  2  0  0  0
  7 35  1  0  0  0
  8 36  1  0  0  0
  9 14  1  0  0  0
  9 10  2  0  0  0
 10 11  1  0  0  0
 10 37  1  0  0  0
 11 12  2  0  0  0
 11 38  1  0  0  0
 12 13  1  0  0  0
 12 39  1  0  0  0
 13 14  2  0  0  0
 13 15  1  0  0  0
 14 40  1  0  0  0
 15 16  2  0  0  0
 15 26  1  0  0  0
 16 17  1  0  0  0
 16 18  1  0  0  0
 17 41  1  0  0  0
 17 42  1  0  0  0
 18 19  1  0  0  0
 19 24  1  0  0  0
 19 20  2  0  0  0
 20 21  1  0  0  0
 20 43  1  0  0  0
 21 22  2  0  0  0
 21 44  1  0  0  0
 22 23  1  0  0  0
 22 45  1  0  0  0
 23 24  2  0  0  0
 23 46  1  0  0  0
 24 25  1  0  0  0
 25 47  1  0  0  0
 25 48  1  0  0  0
 26 27  3  0  0  0
 28 49  1  0  0  0
M  END
> <s_m_entry_id>
65952

> <s_m_entry_name>
ligand_docking-pose.8

> <s_m_Source_Path>
/home/csk/Desktop/cluster/DUD-E-result/mp2k1

> <s_m_Source_File>
ligand_docking-pose.sdf

> <i_m_Source_File_Index>
8

> <i_lp_mmshare_version>
53161

> <r_lp_tautomer_probability>
0.499999974950001

> <s_lp_Force_Field>
OPLS_2005

> <r_lp_Energy>
32.539457

> <b_lp_Chiralities_Consistent>
1

> <s_lp_Variant>
51712-1

> <s_i_glide_gridfile>
glide-grid_3eqh

> <i_i_glide_lignum>
197

> <i_i_glide_rotatable_bonds>
6

> <r_i_docking_score>
-9.81488288007018

> <r_i_glide_ligand_efficiency>
-0.350531531431078

> <r_i_glide_ligand_efficiency_sa>
-1.06442018145601

> <r_i_glide_ligand_efficiency_ln>
-2.26556314620365

> <r_i_glide_gscore>
-9.81488288007018

> <r_i_glide_lipo>
-4.52826255093591

> <r_i_glide_hbond>
-0.81012382822039

> <r_i_glide_metal>
0

> <r_i_glide_rewards>
-1.50221708261898

> <r_i_glide_evdw>
-46.3791656494141

> <r_i_glide_ecoul>
-8.55308723449707

> <r_i_glide_erotb>
0.648474795872842

> <r_i_glide_esite>
-0.020832846522474

> <r_i_glide_emodel>
-80.0690941275165

> <r_i_glide_energy>
-54.9322528839111

> <r_i_glide_einternal>
6.42790651321411

> <i_i_glide_confnum>
103

> <i_i_glide_posenum>
300

> <r_i_glide_eff_state_penalty>
0

> <i_f3d_flags>
0

> <s_user_duplicate_titles>
51712

> <s_m_subgroup_title>
dock_pv

> <s_m_subgroupid>
dock_pv1

> <b_m_subgroup_collapsed>
0

$$$$
51640
                    3D
 Schrodinger Suite 2021-1.
 47 49  0  0  1  0            999 V2000
    1.2741   61.5883   32.4605 C   0  0  0  0  0  0
    1.4989   60.2326   32.2242 C   0  0  0  0  0  0
    1.0007   59.2786   33.1069 C   0  0  0  0  0  0
    0.2694   59.6760   34.2269 C   0  0  0  0  0  0
    0.0269   61.0403   34.4585 C   0  0  0  0  0  0
    0.5319   61.9885   33.5690 C   0  0  0  0  0  0
   -0.7256   61.4857   35.5468 N   0  0  0  0  0  0
   -0.2823   58.4343   35.3566 S   0  0  0  0  0  0
   -1.5575   57.6128   34.4261 C   0  0  0  0  0  0
   -1.3978   56.4008   33.8549 C   0  0  0  0  0  0
   -0.1408   55.7332   33.7973 C   0  0  0  0  0  0
    0.8583   55.1533   33.7629 N   0  0  0  0  0  0
   -2.5284   55.6370   33.3128 C   0  0  0  0  0  0
   -2.9918   54.5920   34.1016 C   0  0  0  0  0  0
   -4.1393   53.9007   33.7633 C   0  0  0  0  0  0
   -4.7745   54.1637   32.5639 C   0  0  0  0  0  0
   -4.2692   55.1367   31.6895 C   0  0  0  0  0  0
   -3.1612   55.9057   32.0959 C   0  0  0  0  0  0
   -4.9063   55.3362   30.3117 C   0  0  2  0  0  0
   -5.8972   54.2280   29.9138 C   0  0  0  0  0  0
   -5.4562   53.0467   29.3065 C   0  0  0  0  0  0
   -6.3707   52.0520   28.9648 C   0  0  0  0  0  0
   -7.7328   52.2451   29.2129 C   0  0  0  0  0  0
   -8.1788   53.4242   29.8101 C   0  0  0  0  0  0
   -7.2615   54.4067   30.1640 C   0  0  0  0  0  0
   -8.7000   51.2199   28.8513 C   0  0  0  0  0  0
   -9.4700   50.4054   28.5627 N   0  0  0  0  0  0
   -3.9261   55.5475   29.3140 O   0  0  0  0  0  0
   -2.7135   58.3481   34.4274 N   0  0  0  0  0  0
    1.6735   62.3274   31.7812 H   0  0  0  0  0  0
    2.0691   59.9166   31.3621 H   0  0  0  0  0  0
    1.1959   58.2312   32.9259 H   0  0  0  0  0  0
    0.3577   63.0408   33.7401 H   0  0  0  0  0  0
   -1.1585   60.7967   36.1426 H   0  0  0  0  0  0
   -1.0028   62.4568   35.5844 H   0  0  0  0  0  0
   -2.4643   54.3254   34.9927 H   0  0  0  0  0  0
   -4.5266   53.1482   34.4311 H   0  0  0  0  0  0
   -5.6470   53.5752   32.3248 H   0  0  0  0  0  0
   -2.7754   56.6925   31.4653 H   0  0  0  0  0  0
   -5.4630   56.2745   30.3671 H   0  0  0  0  0  0
   -4.4037   52.9013   29.1101 H   0  0  0  0  0  0
   -6.0099   51.1385   28.5153 H   0  0  0  0  0  0
   -9.2297   53.5930   30.0034 H   0  0  0  0  0  0
   -7.6151   55.3215   30.6194 H   0  0  0  0  0  0
   -3.6093   56.4563   29.3945 H   0  0  0  0  0  0
   -3.5336   57.9837   33.9646 H   0  0  0  0  0  0
   -2.6760   59.3518   34.5644 H   0  0  0  0  0  0
  1  6  1  0  0  0
  1  2  2  0  0  0
  1 30  1  0  0  0
  2  3  1  0  0  0
  2 31  1  0  0  0
  3  4  2  0  0  0
  3 32  1  0  0  0
  4  5  1  0  0  0
  4  8  1  0  0  0
  5  6  2  0  0  0
  5  7  1  0  0  0
  6 33  1  0  0  0
  7 34  1  0  0  0
  7 35  1  0  0  0
  8  9  1  0  0  0
  9 10  2  0  0  0
  9 29  1  0  0  0
 10 11  1  0  0  0
 10 13  1  0  0  0
 11 12  3  0  0  0
 13 18  1  0  0  0
 13 14  2  0  0  0
 14 15  1  0  0  0
 14 36  1  0  0  0
 15 16  2  0  0  0
 15 37  1  0  0  0
 16 17  1  0  0  0
 16 38  1  0  0  0
 17 18  2  0  0  0
 17 19  1  0  0  0
 18 39  1  0  0  0
 19 20  1  0  0  0
 19 28  1  0  0  0
 19 40  1  0  0  0
 20 25  1  0  0  0
 20 21  2  0  0  0
 21 22  1  0  0  0
 21 41  1  0  0  0
 22 23  2  0  0  0
 22 42  1  0  0  0
 23 24  1  0  0  0
 23 26  1  0  0  0
 24 25  2  0  0  0
 24 43  1  0  0  0
 25 44  1  0  0  0
 26 27  3  0  0  0
 28 45  1  0  0  0
 29 46  1  0  0  0
 29 47  1  0  0  0
M  END
> <s_m_entry_id>
65953

> <s_m_entry_name>
ligand_docking-pose.9

> <s_m_Source_Path>
/home/csk/Desktop/cluster/DUD-E-result/mp2k1

> <s_m_Source_File>
ligand_docking-pose.sdf

> <i_m_Source_File_Index>
9

> <i_lp_mmshare_version>
53161

> <r_lp_tautomer_probability>
0.499999974950001

> <s_lp_Force_Field>
OPLS_2005

> <r_lp_Energy>
29.232475

> <b_lp_Chiralities_Consistent>
1

> <s_lp_Variant>
51640-1

> <s_i_glide_gridfile>
glide-grid_3eqh

> <i_i_glide_lignum>
75

> <i_i_glide_rotatable_bonds>
6

> <r_i_docking_score>
-9.78174702360344

> <r_i_glide_ligand_efficiency>
-0.337301621503567

> <r_i_glide_ligand_efficiency_sa>
-1.03629744591335

> <r_i_glide_ligand_efficiency_ln>
-2.23977202470246

> <r_i_glide_gscore>
-9.78174702360344

> <r_i_glide_lipo>
-4.01336911612318

> <r_i_glide_hbond>
-0.843041741059844

> <r_i_glide_metal>
0

> <r_i_glide_rewards>
-1.42820793225034

> <r_i_glide_evdw>
-45.7910308837891

> <r_i_glide_ecoul>
-11.9448671340942

> <r_i_glide_erotb>
0.616707782731489

> <r_i_glide_esite>
-0.0325544025979815

> <r_i_glide_emodel>
-84.3940297964735

> <r_i_glide_energy>
-57.7358980178833

> <r_i_glide_einternal>
8.7088680267334

> <i_i_glide_confnum>
37

> <i_i_glide_posenum>
383

> <r_i_glide_eff_state_penalty>
0

> <i_f3d_flags>
0

> <s_user_duplicate_titles>
51640

> <s_m_subgroup_title>
dock_pv

> <s_m_subgroupid>
dock_pv1

> <b_m_subgroup_collapsed>
0

$$$$
157227
                    3D
 Schrodinger Suite 2021-1.
 40 41  0  0  1  0            999 V2000
   -5.5089   54.1873   30.1803 C   0  0  0  0  0  0
   -5.7511   52.9578   30.7884 C   0  0  0  0  0  0
   -5.7303   52.8355   32.1776 C   0  0  0  0  0  0
   -5.4507   53.9512   32.9629 C   0  0  0  0  0  0
   -5.2097   55.1831   32.3544 C   0  0  0  0  0  0
   -5.2526   55.3097   30.9640 C   0  0  0  0  0  0
   -4.8318   56.5935   33.3620 S   0  0  0  0  0  0
   -3.0387   56.7311   33.2880 C   0  0  0  0  0  0
   -2.3085   57.3619   34.2372 C   0  0  0  0  0  0
   -0.8485   57.4603   34.1488 C   0  0  0  0  0  0
   -0.1913   58.6321   34.3222 C   0  0  0  0  0  0
    1.5864   58.7481   34.1633 S   0  0  0  0  0  0
    1.8877   60.4632   33.8547 C   0  0  0  0  0  0
    1.5645   61.0316   32.6208 C   0  0  0  0  0  0
    1.8647   62.3739   32.3878 C   0  0  0  0  0  0
    2.5033   63.1179   33.3746 C   0  0  0  0  0  0
    2.7930   62.5510   34.6063 C   0  0  0  0  0  0
    2.4740   61.2249   34.8602 C   0  0  0  0  0  0
    2.8718   64.4141   33.1593 O   0  0  0  0  0  0
   -0.7495   59.8500   34.6229 N   0  0  0  0  0  0
   -0.1064   56.2595   33.9088 C   0  0  0  0  0  0
    0.4739   55.2678   33.7629 N   0  0  0  0  0  0
   -2.9626   57.9169   35.3751 C   0  0  0  0  0  0
   -3.4968   58.3480   36.3039 N   0  0  0  0  0  0
   -2.5181   56.1518   32.1627 N   0  0  0  0  0  0
   -6.0124   51.8615   30.0114 O   0  0  0  0  0  0
   -5.5260   54.2713   29.1045 H   0  0  0  0  0  0
   -5.9208   51.8843   32.6528 H   0  0  0  0  0  0
   -5.4192   53.8577   34.0389 H   0  0  0  0  0  0
   -5.0789   56.2680   30.4928 H   0  0  0  0  0  0
    1.1084   60.4325   31.8457 H   0  0  0  0  0  0
    1.6308   62.8252   31.4360 H   0  0  0  0  0  0
    3.2740   63.1473   35.3626 H   0  0  0  0  0  0
    2.7205   60.7822   35.8141 H   0  0  0  0  0  0
    3.1104   64.6330   32.2513 H   0  0  0  0  0  0
   -1.7479   60.0179   34.5630 H   0  0  0  0  0  0
   -0.1612   60.6624   34.7392 H   0  0  0  0  0  0
   -1.5425   56.2606   31.9254 H   0  0  0  0  0  0
   -3.1266   55.7402   31.4699 H   0  0  0  0  0  0
   -6.2024   51.0815   30.5373 H   0  0  0  0  0  0
  1  6  1  0  0  0
  1  2  2  0  0  0
  1 27  1  0  0  0
  2  3  1  0  0  0
  2 26  1  0  0  0
  3  4  2  0  0  0
  3 28  1  0  0  0
  4  5  1  0  0  0
  4 29  1  0  0  0
  5  6  2  0  0  0
  5  7  1  0  0  0
  6 30  1  0  0  0
  7  8  1  0  0  0
  8  9  2  0  0  0
  8 25  1  0  0  0
  9 10  1  0  0  0
  9 23  1  0  0  0
 10 11  2  0  0  0
 10 21  1  0  0  0
 11 12  1  0  0  0
 11 20  1  0  0  0
 12 13  1  0  0  0
 13 18  1  0  0  0
 13 14  2  0  0  0
 14 15  1  0  0  0
 14 31  1  0  0  0
 15 16  2  0  0  0
 15 32  1  0  0  0
 16 17  1  0  0  0
 16 19  1  0  0  0
 17 18  2  0  0  0
 17 33  1  0  0  0
 18 34  1  0  0  0
 19 35  1  0  0  0
 20 36  1  0  0  0
 20 37  1  0  0  0
 21 22  3  0  0  0
 23 24  3  0  0  0
 25 38  1  0  0  0
 25 39  1  0  0  0
 26 40  1  0  0  0
M  END
> <s_m_entry_id>
65954

> <s_m_entry_name>
ligand_docking-pose.10

> <s_m_Source_Path>
/home/csk/Desktop/cluster/DUD-E-result/mp2k1

> <s_m_Source_File>
ligand_docking-pose.sdf

> <i_m_Source_File_Index>
10

> <i_lp_mmshare_version>
53161

> <r_lp_tautomer_probability>
0.99999999999473

> <s_lp_Force_Field>
OPLS_2005

> <r_lp_Energy>
21.921368

> <b_lp_Chiralities_Consistent>
1

> <s_lp_Variant>
157227-1

> <s_i_glide_gridfile>
glide-grid_3eqh

> <i_i_glide_lignum>
118

> <i_i_glide_rotatable_bonds>
7

> <r_i_docking_score>
-9.73552556527217

> <r_i_glide_ligand_efficiency>
-0.374443290972007

> <r_i_glide_ligand_efficiency_sa>
-1.10928677614137

> <r_i_glide_ligand_efficiency_ln>
-2.28635623413925

> <r_i_glide_gscore>
-9.73552556527217

> <r_i_glide_lipo>
-3.88662456666658

> <r_i_glide_hbond>
-0.785506989226088

> <r_i_glide_metal>
0

> <r_i_glide_rewards>
-2.02890167491093

> <r_i_glide_evdw>
-43.2146377563477

> <r_i_glide_ecoul>
-10.127833366394

> <r_i_glide_erotb>
0.663874499425088

> <r_i_glide_esite>
-0.0184599411171646

> <r_i_glide_emodel>
-78.0853423866709

> <r_i_glide_energy>
-53.3424711227417

> <r_i_glide_einternal>
13.4095392227173

> <i_i_glide_confnum>
178

> <i_i_glide_posenum>
89

> <r_i_glide_eff_state_penalty>
0

> <i_f3d_flags>
0

> <s_user_duplicate_titles>
157227

> <s_m_subgroup_title>
dock_pv

> <s_m_subgroupid>
dock_pv1

> <b_m_subgroup_collapsed>
0

$$$$
51086
                    3D
 Schrodinger Suite 2021-1.
 49 51  0  0  1  0            999 V2000
    2.3437   62.9829   33.3100 C   0  0  0  0  0  0
    2.7080   62.5017   34.5631 C   0  0  0  0  0  0
    2.3563   61.2039   34.9453 C   0  0  0  0  0  0
    1.6737   60.3646   34.0569 C   0  0  0  0  0  0
    1.3777   60.8294   32.7656 C   0  0  0  0  0  0
    1.6722   62.1492   32.4212 C   0  0  0  0  0  0
    0.8747   59.9873   31.7752 N   0  0  0  0  0  0
    1.3304   58.6887   34.5640 S   0  0  0  0  0  0
   -0.4315   58.4666   34.3653 C   0  0  0  0  0  0
   -0.9849   57.2874   33.9945 C   0  0  0  0  0  0
   -0.1802   56.1168   33.8223 C   0  0  0  0  0  0
    0.4728   55.1635   33.7629 N   0  0  0  0  0  0
   -2.4406   57.0893   33.7989 C   0  0  0  0  0  0
   -3.3615   57.5037   34.7669 C   0  0  0  0  0  0
   -4.7296   57.3605   34.5485 C   0  0  0  0  0  0
   -5.1918   56.8013   33.3600 C   0  0  0  0  0  0
   -4.2926   56.3563   32.3859 C   0  0  0  0  0  0
   -2.9159   56.4994   32.6209 C   0  0  0  0  0  0
   -4.8454   55.7512   31.0853 C   0  0  2  0  0  0
   -5.7112   54.5040   31.2997 C   0  0  0  0  0  0
   -5.3603   53.5280   32.2432 C   0  0  0  0  0  0
   -6.1946   52.4339   32.4711 C   0  0  0  0  0  0
   -7.3804   52.2973   31.7520 C   0  0  0  0  0  0
   -7.7482   53.2563   30.7987 C   0  0  0  0  0  0
   -6.9054   54.3539   30.5835 C   0  0  0  0  0  0
   -9.0493   53.1340   30.0059 C   0  0  0  0  0  0
   -9.7979   52.1074   30.4135 F   0  0  0  0  0  0
   -9.7699   54.2476   30.1345 F   0  0  0  0  0  0
   -8.7681   52.9471   28.7172 F   0  0  0  0  0  0
   -3.8635   55.5482   30.0832 O   0  0  0  0  0  0
   -1.1056   59.6222   34.6482 N   0  0  0  0  0  0
    2.6032   63.9903   33.0143 H   0  0  0  0  0  0
    3.2727   63.1453   35.2254 H   0  0  0  0  0  0
    2.6444   60.8365   35.9188 H   0  0  0  0  0  0
    1.4252   62.5256   31.4407 H   0  0  0  0  0  0
    0.8226   59.0065   32.0224 H   0  0  0  0  0  0
    1.2203   60.1888   30.8470 H   0  0  0  0  0  0
   -3.0156   57.9314   35.6976 H   0  0  0  0  0  0
   -5.4353   57.6654   35.3071 H   0  0  0  0  0  0
   -6.2557   56.6965   33.2038 H   0  0  0  0  0  0
   -2.2074   56.1805   31.8698 H   0  0  0  0  0  0
   -5.5000   56.5208   30.6710 H   0  0  0  0  0  0
   -4.4458   53.6252   32.8110 H   0  0  0  0  0  0
   -5.9272   51.6920   33.2100 H   0  0  0  0  0  0
   -8.0133   51.4441   31.9488 H   0  0  0  0  0  0
   -7.1917   55.1067   29.8617 H   0  0  0  0  0  0
   -3.5263   56.4198   29.8328 H   0  0  0  0  0  0
   -2.0701   59.7666   34.3696 H   0  0  0  0  0  0
   -0.5963   60.4485   34.9234 H   0  0  0  0  0  0
  1  6  1  0  0  0
  1  2  2  0  0  0
  1 32  1  0  0  0
  2  3  1  0  0  0
  2 33  1  0  0  0
  3  4  2  0  0  0
  3 34  1  0  0  0
  4  5  1  0  0  0
  4  8  1  0  0  0
  5  6  2  0  0  0
  5  7  1  0  0  0
  6 35  1  0  0  0
  7 36  1  0  0  0
  7 37  1  0  0  0
  8  9  1  0  0  0
  9 10  2  0  0  0
  9 31  1  0  0  0
 10 11  1  0  0  0
 10 13  1  0  0  0
 11 12  3  0  0  0
 13 18  1  0  0  0
 13 14  2  0  0  0
 14 15  1  0  0  0
 14 38  1  0  0  0
 15 16  2  0  0  0
 15 39  1  0  0  0
 16 17  1  0  0  0
 16 40  1  0  0  0
 17 18  2  0  0  0
 17 19  1  0  0  0
 18 41  1  0  0  0
 19 20  1  0  0  0
 19 30  1  0  0  0
 19 42  1  0  0  0
 20 25  1  0  0  0
 20 21  2  0  0  0
 21 22  1  0  0  0
 21 43  1  0  0  0
 22 23  2  0  0  0
 22 44  1  0  0  0
 23 24  1  0  0  0
 23 45  1  0  0  0
 24 25  2  0  0  0
 24 26  1  0  0  0
 25 46  1  0  0  0
 26 27  1  0  0  0
 26 28  1  0  0  0
 26 29  1  0  0  0
 30 47  1  0  0  0
 31 48  1  0  0  0
 31 49  1  0  0  0
M  END
> <s_m_entry_id>
65955

> <s_m_entry_name>
ligand_docking-pose.11

> <s_m_Source_Path>
/home/csk/Desktop/cluster/DUD-E-result/mp2k1

> <s_m_Source_File>
ligand_docking-pose.sdf

> <i_m_Source_File_Index>
11

> <i_lp_mmshare_version>
53161

> <r_lp_tautomer_probability>
0.499999974950001

> <s_lp_Force_Field>
OPLS_2005

> <r_lp_Energy>
31.173463

> <b_lp_Chiralities_Consistent>
1

> <s_lp_Variant>
51086-1

> <s_i_glide_gridfile>
glide-grid_3eqh

> <i_i_glide_lignum>
73

> <i_i_glide_rotatable_bonds>
7

> <r_i_docking_score>
-9.71954342321575

> <r_i_glide_ligand_efficiency>
-0.313533658813411

> <r_i_glide_ligand_efficiency_sa>
-0.984928568542524

> <r_i_glide_ligand_efficiency_ln>
-2.19205491016845

> <r_i_glide_gscore>
-9.71954342321575

> <r_i_glide_lipo>
-4.03826184634534

> <r_i_glide_hbond>
-0.829049438337788

> <r_i_glide_metal>
0

> <r_i_glide_rewards>
-1.30877499555304

> <r_i_glide_evdw>
-49.0450057983398

> <r_i_glide_ecoul>
-10.3733701705933

> <r_i_glide_erotb>
0.512461184963255

> <r_i_glide_esite>
-0.0476625124368643

> <r_i_glide_emodel>
-88.7747582233625

> <r_i_glide_energy>
-59.4183759689331

> <r_i_glide_einternal>
8.12254810333252

> <i_i_glide_confnum>
99

> <i_i_glide_posenum>
250

> <r_i_glide_eff_state_penalty>
0

> <i_f3d_flags>
0

> <s_user_duplicate_titles>
51086

> <s_m_subgroup_title>
dock_pv

> <s_m_subgroupid>
dock_pv1

> <b_m_subgroup_collapsed>
0

$$$$
51823
                    3D
 Schrodinger Suite 2021-1.
 43 45  0  0  1  0            999 V2000
   -4.8841   54.0565   29.4072 C   0  0  0  0  0  0
   -3.9023   54.9811   29.7578 C   0  0  0  0  0  0
   -3.5251   55.1272   31.0921 C   0  0  0  0  0  0
   -4.1322   54.3515   32.0873 C   0  0  0  0  0  0
   -5.1603   53.4578   31.7346 C   0  0  0  0  0  0
   -5.5251   53.3116   30.3954 C   0  0  0  0  0  0
   -5.8408   52.6997   32.6903 N   0  0  0  0  0  0
   -3.5251   54.4152   33.7624 S   0  0  0  0  0  0
   -2.9926   56.1018   34.0077 C   0  0  0  0  0  0
   -1.6917   56.4596   34.1157 C   0  0  0  0  0  0
   -0.6516   55.4991   33.9320 C   0  0  0  0  0  0
    0.2229   54.7626   33.7630 N   0  0  0  0  0  0
   -1.2204   57.8229   34.4665 C   0  0  0  0  0  0
   -1.8157   58.5729   35.4872 C   0  0  0  0  0  0
   -1.3726   59.8662   35.7630 C   0  0  0  0  0  0
   -0.3354   60.4350   35.0276 C   0  0  0  0  0  0
    0.2755   59.7006   34.0100 C   0  0  0  0  0  0
   -0.1554   58.3906   33.7626 C   0  0  0  0  0  0
    1.3394   60.2908   33.0924 C   0  0  2  0  0  0
    1.8432   61.7029   33.3998 C   0  0  0  0  0  0
    2.8274   62.0890   34.3078 C   0  0  0  0  0  0
    3.2736   63.4036   34.1625 C   0  0  0  0  0  0
    2.5238   64.1121   33.2502 C   0  0  0  0  0  0
    1.2834   63.1357   32.5574 S   0  0  0  0  0  0
    0.8802   60.2483   31.7628 O   0  0  0  0  0  0
   -4.0769   56.9363   34.0793 N   0  0  0  0  0  0
   -5.1670   53.9390   28.3712 H   0  0  0  0  0  0
   -3.4242   55.5791   28.9951 H   0  0  0  0  0  0
   -2.7361   55.8235   31.3356 H   0  0  0  0  0  0
   -6.3063   52.6202   30.1146 H   0  0  0  0  0  0
   -5.6198   52.8441   33.6653 H   0  0  0  0  0  0
   -6.6124   52.1133   32.4120 H   0  0  0  0  0  0
   -2.6225   58.1557   36.0716 H   0  0  0  0  0  0
   -1.8475   60.4425   36.5412 H   0  0  0  0  0  0
   -0.0398   61.4523   35.2387 H   0  0  0  0  0  0
    0.3100   57.8323   32.9633 H   0  0  0  0  0  0
    2.1887   59.6070   33.1338 H   0  0  0  0  0  0
    3.2739   61.3934   35.0016 H   0  0  0  0  0  0
    4.0752   63.8460   34.7312 H   0  0  0  0  0  0
    2.6375   65.1465   32.9637 H   0  0  0  0  0  0
    1.4771   59.6958   31.2492 H   0  0  0  0  0  0
   -3.9526   57.9377   34.0909 H   0  0  0  0  0  0
   -5.0124   56.5725   33.9714 H   0  0  0  0  0  0
  1  6  1  0  0  0
  1  2  2  0  0  0
  1 27  1  0  0  0
  2  3  1  0  0  0
  2 28  1  0  0  0
  3  4  2  0  0  0
  3 29  1  0  0  0
  4  5  1  0  0  0
  4  8  1  0  0  0
  5  6  2  0  0  0
  5  7  1  0  0  0
  6 30  1  0  0  0
  7 31  1  0  0  0
  7 32  1  0  0  0
  8  9  1  0  0  0
  9 10  2  0  0  0
  9 26  1  0  0  0
 10 11  1  0  0  0
 10 13  1  0  0  0
 11 12  3  0  0  0
 13 18  1  0  0  0
 13 14  2  0  0  0
 14 15  1  0  0  0
 14 33  1  0  0  0
 15 16  2  0  0  0
 15 34  1  0  0  0
 16 17  1  0  0  0
 16 35  1  0  0  0
 17 18  2  0  0  0
 17 19  1  0  0  0
 18 36  1  0  0  0
 19 20  1  0  0  0
 19 25  1  0  0  0
 19 37  1  0  0  0
 20 24  1  0  0  0
 20 21  2  0  0  0
 21 22  1  0  0  0
 21 38  1  0  0  0
 22 23  2  0  0  0
 22 39  1  0  0  0
 23 24  1  0  0  0
 23 40  1  0  0  0
 25 41  1  0  0  0
 26 42  1  0  0  0
 26 43  1  0  0  0
M  END
> <s_m_entry_id>
65956

> <s_m_entry_name>
ligand_docking-pose.12

> <s_m_Source_Path>
/home/csk/Desktop/cluster/DUD-E-result/mp2k1

> <s_m_Source_File>
ligand_docking-pose.sdf

> <i_m_Source_File_Index>
12

> <i_lp_mmshare_version>
53161

> <r_lp_tautomer_probability>
0.499999974950001

> <s_lp_Force_Field>
OPLS_2005

> <r_lp_Energy>
24.491436

> <b_lp_Chiralities_Consistent>
1

> <s_lp_Variant>
51823-1

> <s_i_glide_gridfile>
glide-grid_3eqh

> <i_i_glide_lignum>
95

> <i_i_glide_rotatable_bonds>
6

> <r_i_docking_score>
-9.71906346286411

> <r_i_glide_ligand_efficiency>
-0.373810133187081

> <r_i_glide_ligand_efficiency_sa>
-1.10741104869488

> <r_i_glide_ligand_efficiency_ln>
-2.28249016340528

> <r_i_glide_gscore>
-9.71906346286411

> <r_i_glide_lipo>
-4.56238534541266

> <r_i_glide_hbond>
-0.301204050414727

> <r_i_glide_metal>
0

> <r_i_glide_rewards>
-1.9132543030303

> <r_i_glide_evdw>
-50.3904838562012

> <r_i_glide_ecoul>
-7.30587339401245

> <r_i_glide_erotb>
0.67318543790551

> <r_i_glide_esite>
0

> <r_i_glide_emodel>
-83.1608792706106

> <r_i_glide_energy>
-57.6963572502136

> <r_i_glide_einternal>
8.26520442962646

> <i_i_glide_confnum>
37

> <i_i_glide_posenum>
113

> <r_i_glide_eff_state_penalty>
0

> <i_f3d_flags>
0

> <s_user_duplicate_titles>
51823

> <s_m_subgroup_title>
dock_pv

> <s_m_subgroupid>
dock_pv1

> <b_m_subgroup_collapsed>
0

$$$$
396358
                    3D
 Schrodinger Suite 2021-1.
 37 38  0  0  1  0            999 V2000
    3.0251   63.3193   33.2671 C   0  0  0  0  0  0
    1.6323   63.0097   32.6982 C   0  0  0  0  0  0
    1.0790   61.6809   33.1927 C   0  0  0  0  0  0
    1.4593   60.4797   32.5899 C   0  0  0  0  0  0
    0.9519   59.2686   33.0594 C   0  0  0  0  0  0
    0.0546   59.2450   34.1316 C   0  0  0  0  0  0
   -0.3044   60.4432   34.7565 C   0  0  0  0  0  0
    0.1942   61.6492   34.2722 C   0  0  0  0  0  0
   -1.1260   60.4533   35.8321 F   0  0  0  0  0  0
   -0.4206   58.0100   34.5839 N   0  0  0  0  0  0
   -1.6220   57.4277   34.2256 C   0  0  0  0  0  0
   -2.7937   58.1108   34.2574 C   0  0  0  0  0  0
   -4.0988   57.5480   33.9179 C   0  0  0  0  0  0
   -5.1253   58.1857   34.1630 O   0  0  0  0  0  0
   -4.0625   56.2897   33.3628 N   0  0  0  0  0  0
   -2.8894   55.5787   33.3480 C   0  0  0  0  0  0
   -1.6802   56.0340   33.7668 C   0  0  0  0  0  0
   -0.5109   55.1843   33.7630 C   0  0  0  0  0  0
    0.6129   55.5480   33.4415 O   0  0  0  0  0  0
   -0.7260   53.9480   34.1630 N   0  0  0  0  0  0
   -5.3310   55.6973   32.9201 C   0  0  0  0  0  0
    3.3598   64.3116   32.9630 H   0  0  0  0  0  0
    3.0249   63.2931   34.3570 H   0  0  0  0  0  0
    3.7645   62.5986   32.9166 H   0  0  0  0  0  0
    1.6652   63.0074   31.6087 H   0  0  0  0  0  0
    0.9407   63.8115   32.9631 H   0  0  0  0  0  0
    2.1526   60.4783   31.7630 H   0  0  0  0  0  0
    1.2534   58.3481   32.5783 H   0  0  0  0  0  0
   -0.1117   62.5628   34.7504 H   0  0  0  0  0  0
    0.3423   57.3493   34.6322 H   0  0  0  0  0  0
   -2.7909   59.1455   34.5630 H   0  0  0  0  0  0
   -3.0572   54.5701   32.9921 H   0  0  0  0  0  0
   -1.6456   53.6723   34.4696 H   0  0  0  0  0  0
    0.0279   53.2719   34.1788 H   0  0  0  0  0  0
   -5.6331   54.9035   33.6042 H   0  0  0  0  0  0
   -5.2122   55.2624   31.9272 H   0  0  0  0  0  0
   -6.1515   56.4146   32.8558 H   0  0  0  0  0  0
  1  2  1  0  0  0
  1 22  1  0  0  0
  1 23  1  0  0  0
  1 24  1  0  0  0
  2  3  1  0  0  0
  2 25  1  0  0  0
  2 26  1  0  0  0
  3  8  1  0  0  0
  3  4  2  0  0  0
  4  5  1  0  0  0
  4 27  1  0  0  0
  5  6  2  0  0  0
  5 28  1  0  0  0
  6  7  1  0  0  0
  6 10  1  0  0  0
  7  8  2  0  0  0
  7  9  1  0  0  0
  8 29  1  0  0  0
 10 11  1  0  0  0
 10 30  1  0  0  0
 11 17  1  0  0  0
 11 12  2  0  0  0
 12 13  1  0  0  0
 12 31  1  0  0  0
 13 14  2  0  0  0
 13 15  1  0  0  0
 15 16  1  0  0  0
 15 21  1  0  0  0
 16 17  2  0  0  0
 16 32  1  0  0  0
 17 18  1  0  0  0
 18 19  2  0  0  0
 18 20  1  0  0  0
 20 33  1  0  0  0
 20 34  1  0  0  0
 21 35  1  0  0  0
 21 36  1  0  0  0
 21 37  1  0  0  0
M  END
> <s_m_entry_id>
65957

> <s_m_entry_name>
ligand_docking-pose.13

> <s_m_Source_Path>
/home/csk/Desktop/cluster/DUD-E-result/mp2k1

> <s_m_Source_File>
ligand_docking-pose.sdf

> <i_m_Source_File_Index>
13

> <i_lp_mmshare_version>
53161

> <r_lp_tautomer_probability>
0.999999999982488

> <s_lp_Force_Field>
OPLS_2005

> <r_lp_Energy>
32.487796

> <b_lp_Chiralities_Consistent>
1

> <s_lp_Variant>
396358-1

> <s_i_glide_gridfile>
glide-grid_3eqh

> <i_i_glide_lignum>
201

> <i_i_glide_rotatable_bonds>
4

> <r_i_docking_score>
-9.66063115279841

> <r_i_glide_ligand_efficiency>
-0.460030054895162

> <r_i_glide_ligand_efficiency_sa>
-1.26918803902417

> <r_i_glide_ligand_efficiency_ln>
-2.38857153138608

> <r_i_glide_gscore>
-9.66063115279841

> <r_i_glide_lipo>
-3.58250035961217

> <r_i_glide_hbond>
-0.775653182299023

> <r_i_glide_metal>
0

> <r_i_glide_rewards>
-2.47223379461591

> <r_i_glide_evdw>
-36.3382415771484

> <r_i_glide_ecoul>
-9.65595436096191

> <r_i_glide_erotb>
0.435061416730403

> <r_i_glide_esite>
0

> <r_i_glide_emodel>
-70.2641290928669

> <r_i_glide_energy>
-45.9941959381104

> <r_i_glide_einternal>
3.88974809646606

> <i_i_glide_confnum>
5

> <i_i_glide_posenum>
382

> <r_i_glide_eff_state_penalty>
0

> <i_f3d_flags>
0

> <s_user_duplicate_titles>
396358

> <s_m_subgroup_title>
dock_pv

> <s_m_subgroupid>
dock_pv1

> <b_m_subgroup_collapsed>
0

$$$$
157053
                    3D
 Schrodinger Suite 2021-1.
 38 39  0  0  1  0            999 V2000
    0.9248   63.2634   32.5629 C   0  0  0  0  0  0
    0.1491   62.3480   33.2754 C   0  0  0  0  0  0
    0.7332   61.5460   34.2522 C   0  0  0  0  0  0
    2.1023   61.6807   34.5321 C   0  0  0  0  0  0
    2.8691   62.6112   33.8228 C   0  0  0  0  0  0
    2.2833   63.3967   32.8340 C   0  0  0  0  0  0
    2.8738   60.7479   35.7636 Cl  0  0  0  0  0  0
   -0.3246   60.4970   35.2156 S   0  0  0  0  0  0
   -0.4708   58.9175   34.3588 C   0  0  0  0  0  0
   -1.4424   58.0426   34.7273 C   0  0  0  0  0  0
   -1.6074   56.6733   34.2151 C   0  0  0  0  0  0
   -2.8295   56.0888   34.1021 C   0  0  0  0  0  0
   -3.0609   54.3482   33.7623 S   0  0  0  0  0  0
   -4.1708   54.3694   32.3808 C   0  0  0  0  0  0
   -5.3933   53.6755   32.4075 C   0  0  0  0  0  0
   -6.2451   53.7315   31.3081 C   0  0  0  0  0  0
   -5.8898   54.4704   30.1870 C   0  0  0  0  0  0
   -4.6762   55.1567   30.1541 C   0  0  0  0  0  0
   -3.8190   55.1091   31.2487 C   0  0  0  0  0  0
   -5.9159   52.7479   33.7632 Cl  0  0  0  0  0  0
   -4.0511   56.6968   34.2559 N   0  0  0  0  0  0
   -0.4476   55.8907   33.9336 C   0  0  0  0  0  0
    0.4750   55.2158   33.7630 N   0  0  0  0  0  0
   -2.3500   58.4417   35.7536 C   0  0  0  0  0  0
   -3.1258   58.7185   36.5620 N   0  0  0  0  0  0
    0.4735   58.7464   33.3746 N   0  0  0  0  0  0
    0.4784   63.8988   31.8158 H   0  0  0  0  0  0
   -0.9172   62.2914   33.1083 H   0  0  0  0  0  0
    3.9174   62.7441   34.0464 H   0  0  0  0  0  0
    2.8745   64.1218   32.2920 H   0  0  0  0  0  0
   -7.1914   53.2117   31.3283 H   0  0  0  0  0  0
   -6.5804   54.5203   29.3631 H   0  0  0  0  0  0
   -4.3994   55.7431   29.2901 H   0  0  0  0  0  0
   -2.8877   55.6564   31.2148 H   0  0  0  0  0  0
   -4.1253   57.6823   34.4583 H   0  0  0  0  0  0
   -4.9032   56.1542   34.2249 H   0  0  0  0  0  0
    0.4571   57.9506   32.7482 H   0  0  0  0  0  0
    1.1765   59.4511   33.2072 H   0  0  0  0  0  0
  1  6  1  0  0  0
  1  2  2  0  0  0
  1 27  1  0  0  0
  2  3  1  0  0  0
  2 28  1  0  0  0
  3  4  2  0  0  0
  3  8  1  0  0  0
  4  5  1  0  0  0
  4  7  1  0  0  0
  5  6  2  0  0  0
  5 29  1  0  0  0
  6 30  1  0  0  0
  8  9  1  0  0  0
  9 10  2  0  0  0
  9 26  1  0  0  0
 10 11  1  0  0  0
 10 24  1  0  0  0
 11 12  2  0  0  0
 11 22  1  0  0  0
 12 13  1  0  0  0
 12 21  1  0  0  0
 13 14  1  0  0  0
 14 19  1  0  0  0
 14 15  2  0  0  0
 15 16  1  0  0  0
 15 20  1  0  0  0
 16 17  2  0  0  0
 16 31  1  0  0  0
 17 18  1  0  0  0
 17 32  1  0  0  0
 18 19  2  0  0  0
 18 33  1  0  0  0
 19 34  1  0  0  0
 21 35  1  0  0  0
 21 36  1  0  0  0
 22 23  3  0  0  0
 24 25  3  0  0  0
 26 37  1  0  0  0
 26 38  1  0  0  0
M  END
> <s_m_entry_id>
65958

> <s_m_entry_name>
ligand_docking-pose.14

> <s_m_Source_Path>
/home/csk/Desktop/cluster/DUD-E-result/mp2k1

> <s_m_Source_File>
ligand_docking-pose.sdf

> <i_m_Source_File_Index>
14

> <i_lp_mmshare_version>
53161

> <r_lp_tautomer_probability>
1

> <s_lp_Force_Field>
OPLS_2005

> <r_lp_Energy>
27.651351

> <b_lp_Chiralities_Consistent>
1

> <s_lp_Variant>
157053-1

> <s_i_glide_gridfile>
glide-grid_3eqh

> <i_i_glide_lignum>
37

> <i_i_glide_rotatable_bonds>
5

> <r_i_docking_score>
-9.61241631409729

> <r_i_glide_ligand_efficiency>
-0.369708319772973

> <r_i_glide_ligand_efficiency_sa>
-1.09525944259544

> <r_i_glide_ligand_efficiency_ln>
-2.25744443045523

> <r_i_glide_gscore>
-9.61241631409729

> <r_i_glide_lipo>
-3.96911360925777

> <r_i_glide_hbond>
-0.730948896119702

> <r_i_glide_metal>
0

> <r_i_glide_rewards>
-1.9104851607141

> <r_i_glide_evdw>
-47.3473320007324

> <r_i_glide_ecoul>
-6.4798731803894

> <r_i_glide_erotb>
0.337478929089317

> <r_i_glide_esite>
0

> <r_i_glide_emodel>
-80.5773715319562

> <r_i_glide_energy>
-53.8272051811218

> <r_i_glide_einternal>
7.28283786773682

> <i_i_glide_confnum>
8

> <i_i_glide_posenum>
176

> <r_i_glide_eff_state_penalty>
0

> <i_f3d_flags>
0

> <s_user_duplicate_titles>
157053

> <s_m_subgroup_title>
dock_pv

> <s_m_subgroupid>
dock_pv1

> <b_m_subgroup_collapsed>
0

$$$$
157185
                    3D
 Schrodinger Suite 2021-1.
 38 39  0  0  1  0            999 V2000
   -7.1863   54.0159   31.6860 C   0  0  0  0  0  0
   -6.4272   54.3476   30.5624 C   0  0  0  0  0  0
   -5.0598   54.5984   30.6867 C   0  0  0  0  0  0
   -4.4548   54.5256   31.9462 C   0  0  0  0  0  0
   -5.2122   54.1855   33.0692 C   0  0  0  0  0  0
   -6.5774   53.9304   32.9388 C   0  0  0  0  0  0
   -2.7264   54.8632   32.1240 S   0  0  0  0  0  0
   -2.6320   56.4115   33.0359 C   0  0  0  0  0  0
   -1.5083   56.7766   33.6974 C   0  0  0  0  0  0
   -1.4052   58.0179   34.4618 C   0  0  0  0  0  0
   -0.3832   58.8944   34.2968 C   0  0  0  0  0  0
   -0.2078   60.3591   35.3286 S   0  0  0  0  0  0
    0.7696   61.4962   34.3725 C   0  0  0  0  0  0
    2.1318   61.6718   34.6428 C   0  0  0  0  0  0
    2.8739   62.5973   33.9072 C   0  0  0  0  0  0
    2.2758   63.3281   32.8844 C   0  0  0  0  0  0
    0.9224   63.1479   32.6090 C   0  0  0  0  0  0
    0.1639   62.2465   33.3628 C   0  0  0  0  0  0
    2.7472   60.9566   35.6133 F   0  0  0  0  0  0
    0.6221   58.7803   33.3649 N   0  0  0  0  0  0
   -2.4114   58.2418   35.4467 C   0  0  0  0  0  0
   -3.2662   58.3480   36.2168 N   0  0  0  0  0  0
   -0.3913   55.8934   33.7235 C   0  0  0  0  0  0
    0.4884   55.1480   33.7630 N   0  0  0  0  0  0
   -3.7892   57.1470   32.9621 N   0  0  0  0  0  0
   -4.3315   54.9065   29.5867 F   0  0  0  0  0  0
   -8.2451   53.8269   31.5852 H   0  0  0  0  0  0
   -6.9007   54.4169   29.5941 H   0  0  0  0  0  0
   -4.7458   54.1236   34.0428 H   0  0  0  0  0  0
   -7.1623   53.6731   33.8103 H   0  0  0  0  0  0
    3.9207   62.7481   34.1258 H   0  0  0  0  0  0
    2.8585   64.0387   32.3140 H   0  0  0  0  0  0
    0.4743   63.7370   31.8268 H   0  0  0  0  0  0
   -0.8976   62.1408   33.1892 H   0  0  0  0  0  0
    0.6042   58.0573   32.6554 H   0  0  0  0  0  0
    1.3624   59.4649   33.3153 H   0  0  0  0  0  0
   -3.8600   58.0564   33.3941 H   0  0  0  0  0  0
   -4.5611   56.8347   32.3900 H   0  0  0  0  0  0
  1  6  1  0  0  0
  1  2  2  0  0  0
  1 27  1  0  0  0
  2  3  1  0  0  0
  2 28  1  0  0  0
  3  4  2  0  0  0
  3 26  1  0  0  0
  4  5  1  0  0  0
  4  7  1  0  0  0
  5  6  2  0  0  0
  5 29  1  0  0  0
  6 30  1  0  0  0
  7  8  1  0  0  0
  8  9  2  0  0  0
  8 25  1  0  0  0
  9 10  1  0  0  0
  9 23  1  0  0  0
 10 11  2  0  0  0
 10 21  1  0  0  0
 11 12  1  0  0  0
 11 20  1  0  0  0
 12 13  1  0  0  0
 13 18  1  0  0  0
 13 14  2  0  0  0
 14 15  1  0  0  0
 14 19  1  0  0  0
 15 16  2  0  0  0
 15 31  1  0  0  0
 16 17  1  0  0  0
 16 32  1  0  0  0
 17 18  2  0  0  0
 17 33  1  0  0  0
 18 34  1  0  0  0
 20 35  1  0  0  0
 20 36  1  0  0  0
 21 22  3  0  0  0
 23 24  3  0  0  0
 25 37  1  0  0  0
 25 38  1  0  0  0
M  END
> <s_m_entry_id>
65959

> <s_m_entry_name>
ligand_docking-pose.15

> <s_m_Source_Path>
/home/csk/Desktop/cluster/DUD-E-result/mp2k1

> <s_m_Source_File>
ligand_docking-pose.sdf

> <i_m_Source_File_Index>
15

> <i_lp_mmshare_version>
53161

> <r_lp_tautomer_probability>
1

> <s_lp_Force_Field>
OPLS_2005

> <r_lp_Energy>
28.037377

> <b_lp_Chiralities_Consistent>
1

> <s_lp_Variant>
157185-1

> <s_i_glide_gridfile>
glide-grid_3eqh

> <i_i_glide_lignum>
115

> <i_i_glide_rotatable_bonds>
5

> <r_i_docking_score>
-9.60864215010895

> <r_i_glide_ligand_efficiency>
-0.369563159619575

> <r_i_glide_ligand_efficiency_sa>
-1.09482940621218

> <r_i_glide_ligand_efficiency_ln>
-2.25655808042661

> <r_i_glide_gscore>
-9.60864215010895

> <r_i_glide_lipo>
-3.51372174206126

> <r_i_glide_hbond>
-0.777406405439668

> <r_i_glide_metal>
0

> <r_i_glide_rewards>
-2.53588231934382

> <r_i_glide_evdw>
-44.1490669250488

> <r_i_glide_ecoul>
-6.43447542190552

> <r_i_glide_erotb>
0.390992976274061

> <r_i_glide_esite>
0

> <r_i_glide_emodel>
-72.2706689855432

> <r_i_glide_energy>
-50.5835423469543

> <r_i_glide_einternal>
13.6422777175903

> <i_i_glide_confnum>
12

> <i_i_glide_posenum>
292

> <r_i_glide_eff_state_penalty>
0

> <i_f3d_flags>
0

> <s_user_duplicate_titles>
157185

> <s_m_subgroup_title>
dock_pv

> <s_m_subgroupid>
dock_pv1

> <b_m_subgroup_collapsed>
0

$$$$
51793
                    3D
 Schrodinger Suite 2021-1.
 43 45  0  0  1  0            999 V2000
    2.1961   62.8895   33.5567 C   0  0  0  0  0  0
    2.4747   62.3480   34.8076 C   0  0  0  0  0  0
    2.2181   61.0079   35.0677 C   0  0  0  0  0  0
    1.6446   60.1987   34.0931 C   0  0  0  0  0  0
    1.3950   60.7290   32.8158 C   0  0  0  0  0  0
    1.6604   62.0763   32.5630 C   0  0  0  0  0  0
    0.9280   59.9480   31.7635 N   0  0  0  0  0  0
    1.2739   58.5212   34.5454 S   0  0  0  0  0  0
   -0.4876   58.3640   34.3221 C   0  0  0  0  0  0
   -1.0578   57.1950   33.9562 C   0  0  0  0  0  0
   -0.2531   56.0234   33.8091 C   0  0  0  0  0  0
    0.4415   55.0992   33.7630 N   0  0  0  0  0  0
   -2.5085   57.0088   33.7385 C   0  0  0  0  0  0
   -3.4560   57.4567   34.6658 C   0  0  0  0  0  0
   -4.8180   57.3120   34.4067 C   0  0  0  0  0  0
   -5.2450   56.7217   33.2189 C   0  0  0  0  0  0
   -4.3167   56.2564   32.2807 C   0  0  0  0  0  0
   -2.9502   56.3938   32.5629 C   0  0  0  0  0  0
   -4.8109   55.6414   30.9643 C   0  0  2  0  0  0
   -5.4742   54.2830   31.1529 C   0  0  0  0  0  0
   -5.2348   53.0018   30.6660 C   0  0  0  0  0  0
   -6.2073   52.1614   31.2122 C   0  0  0  0  0  0
   -6.9886   52.9572   32.0292 C   0  0  0  0  0  0
   -6.5471   54.2391   31.9900 O   0  0  0  0  0  0
   -3.8016   55.5480   29.9706 O   0  0  0  0  0  0
   -1.1260   59.5481   34.5682 N   0  0  0  0  0  0
    2.3993   63.9319   33.3564 H   0  0  0  0  0  0
    2.8889   62.9629   35.5866 H   0  0  0  0  0  0
    2.4634   60.6008   36.0387 H   0  0  0  0  0  0
    1.4627   62.5015   31.5912 H   0  0  0  0  0  0
    0.8664   58.9516   31.9417 H   0  0  0  0  0  0
    1.2735   60.2296   30.8557 H   0  0  0  0  0  0
   -3.1362   57.9130   35.5911 H   0  0  0  0  0  0
   -5.5479   57.6459   35.1284 H   0  0  0  0  0  0
   -6.3041   56.6255   33.0278 H   0  0  0  0  0  0
   -2.2199   56.0517   31.8442 H   0  0  0  0  0  0
   -5.5542   56.3277   30.5548 H   0  0  0  0  0  0
   -4.4443   52.7220   29.9855 H   0  0  0  0  0  0
   -6.3261   51.1017   31.0424 H   0  0  0  0  0  0
   -7.8443   52.7666   32.6603 H   0  0  0  0  0  0
   -3.5303   56.4540   29.7634 H   0  0  0  0  0  0
   -2.0831   59.7183   34.2770 H   0  0  0  0  0  0
   -0.5913   60.3605   34.8392 H   0  0  0  0  0  0
  1  6  1  0  0  0
  1  2  2  0  0  0
  1 27  1  0  0  0
  2  3  1  0  0  0
  2 28  1  0  0  0
  3  4  2  0  0  0
  3 29  1  0  0  0
  4  5  1  0  0  0
  4  8  1  0  0  0
  5  6  2  0  0  0
  5  7  1  0  0  0
  6 30  1  0  0  0
  7 31  1  0  0  0
  7 32  1  0  0  0
  8  9  1  0  0  0
  9 10  2  0  0  0
  9 26  1  0  0  0
 10 11  1  0  0  0
 10 13  1  0  0  0
 11 12  3  0  0  0
 13 18  1  0  0  0
 13 14  2  0  0  0
 14 15  1  0  0  0
 14 33  1  0  0  0
 15 16  2  0  0  0
 15 34  1  0  0  0
 16 17  1  0  0  0
 16 35  1  0  0  0
 17 18  2  0  0  0
 17 19  1  0  0  0
 18 36  1  0  0  0
 19 20  1  0  0  0
 19 25  1  0  0  0
 19 37  1  0  0  0
 20 24  1  0  0  0
 20 21  2  0  0  0
 21 22  1  0  0  0
 21 38  1  0  0  0
 22 23  2  0  0  0
 22 39  1  0  0  0
 23 24  1  0  0  0
 23 40  1  0  0  0
 25 41  1  0  0  0
 26 42  1  0  0  0
 26 43  1  0  0  0
M  END
> <s_m_entry_id>
65960

> <s_m_entry_name>
ligand_docking-pose.16

> <s_m_Source_Path>
/home/csk/Desktop/cluster/DUD-E-result/mp2k1

> <s_m_Source_File>
ligand_docking-pose.sdf

> <i_m_Source_File_Index>
16

> <i_lp_mmshare_version>
53161

> <r_lp_tautomer_probability>
0.499999974950001

> <s_lp_Force_Field>
OPLS_2005

> <r_lp_Energy>
22.473637

> <b_lp_Chiralities_Consistent>
1

> <s_lp_Variant>
51793-1

> <s_i_glide_gridfile>
glide-grid_3eqh

> <i_i_glide_lignum>
93

> <i_i_glide_rotatable_bonds>
6

> <r_i_docking_score>
-9.57229454384617

> <r_i_glide_ligand_efficiency>
-0.368165174763314

> <r_i_glide_ligand_efficiency_sa>
-1.09068788157631

> <r_i_glide_ligand_efficiency_ln>
-2.24802196436202

> <r_i_glide_gscore>
-9.57229454384617

> <r_i_glide_lipo>
-3.91275031720186

> <r_i_glide_hbond>
-1.0013519386175

> <r_i_glide_metal>
0

> <r_i_glide_rewards>
-1.70728235312334

> <r_i_glide_evdw>
-42.325855255127

> <r_i_glide_ecoul>
-10.3291597366333

> <r_i_glide_erotb>
0.727315591634751

> <r_i_glide_esite>
-0.0125588032868739

> <r_i_glide_emodel>
-78.3853601593726

> <r_i_glide_energy>
-52.6550149917603

> <r_i_glide_einternal>
5.41338777542114

> <i_i_glide_confnum>
270

> <i_i_glide_posenum>
252

> <r_i_glide_eff_state_penalty>
0

> <i_f3d_flags>
0

> <s_user_duplicate_titles>
51793

> <s_m_subgroup_title>
dock_pv

> <s_m_subgroupid>
dock_pv1

> <b_m_subgroup_collapsed>
0

$$$$
51226
                    3D
 Schrodinger Suite 2021-1.
 46 48  0  0  1  0            999 V2000
   -7.7969   52.5177   32.3672 C   0  0  0  0  0  0
   -6.5233   52.2909   32.8824 C   0  0  0  0  0  0
   -5.4857   53.1594   32.5538 C   0  0  0  0  0  0
   -5.7161   54.2590   31.7189 C   0  0  0  0  0  0
   -7.0015   54.4735   31.2034 C   0  0  0  0  0  0
   -8.0404   53.6040   31.5272 C   0  0  0  0  0  0
   -4.5527   55.2100   31.3983 C   0  0  2  0  0  0
   -4.1811   56.1292   32.5599 C   0  0  0  0  0  0
   -5.1601   56.7212   33.3641 C   0  0  0  0  0  0
   -4.7930   57.4967   34.4611 C   0  0  0  0  0  0
   -3.4451   57.6921   34.7566 C   0  0  0  0  0  0
   -2.4448   57.1433   33.9421 C   0  0  0  0  0  0
   -2.8336   56.3632   32.8467 C   0  0  0  0  0  0
   -0.9983   57.3664   34.2016 C   0  0  0  0  0  0
   -0.4661   58.5179   34.6745 C   0  0  0  0  0  0
   -1.1261   59.6740   34.9925 N   0  0  0  0  0  0
    1.2740   58.7480   34.9619 S   0  0  0  0  0  0
    1.5968   60.2986   34.1748 C   0  0  0  0  0  0
    1.0551   60.5694   32.9186 C   0  0  0  0  0  0
    1.2790   61.8049   32.3270 C   0  0  0  0  0  0
    2.0866   62.7384   32.9663 C   0  0  0  0  0  0
    2.6430   62.4654   34.2117 C   0  0  0  0  0  0
    2.3915   61.2424   34.8256 C   0  0  0  0  0  0
    2.3564   63.9471   32.3407 N   0  0  0  0  0  0
   -0.1625   56.2315   33.9516 C   0  0  0  0  0  0
    0.4741   55.2830   33.7625 N   0  0  0  0  0  0
   -4.7260   55.9474   30.2058 O   0  0  0  0  0  0
   -8.6052   51.8474   32.6220 H   0  0  0  0  0  0
   -6.3436   51.4477   33.5358 H   0  0  0  0  0  0
   -4.5001   52.9900   32.9632 H   0  0  0  0  0  0
   -7.1981   55.3208   30.5604 H   0  0  0  0  0  0
   -9.0313   53.7762   31.1323 H   0  0  0  0  0  0
   -3.6920   54.5670   31.2010 H   0  0  0  0  0  0
   -6.2075   56.5568   33.1570 H   0  0  0  0  0  0
   -5.5599   57.9176   35.0940 H   0  0  0  0  0  0
   -3.1830   58.2634   35.6328 H   0  0  0  0  0  0
   -2.0804   55.9286   32.2054 H   0  0  0  0  0  0
   -2.0585   59.8638   34.6388 H   0  0  0  0  0  0
   -0.6048   60.4739   35.3191 H   0  0  0  0  0  0
    0.4657   59.8253   32.4017 H   0  0  0  0  0  0
    0.8733   62.0157   31.3534 H   0  0  0  0  0  0
    3.2741   63.1916   34.7002 H   0  0  0  0  0  0
    2.8208   61.0268   35.7929 H   0  0  0  0  0  0
    3.1015   64.5247   32.7085 H   0  0  0  0  0  0
    2.1156   64.0409   31.3664 H   0  0  0  0  0  0
   -4.0489   56.6332   30.1610 H   0  0  0  0  0  0
  1  6  1  0  0  0
  1  2  2  0  0  0
  1 28  1  0  0  0
  2  3  1  0  0  0
  2 29  1  0  0  0
  3  4  2  0  0  0
  3 30  1  0  0  0
  4  5  1  0  0  0
  4  7  1  0  0  0
  5  6  2  0  0  0
  5 31  1  0  0  0
  6 32  1  0  0  0
  7  8  1  0  0  0
  7 27  1  0  0  0
  7 33  1  0  0  0
  8 13  1  0  0  0
  8  9  2  0  0  0
  9 10  1  0  0  0
  9 34  1  0  0  0
 10 11  2  0  0  0
 10 35  1  0  0  0
 11 12  1  0  0  0
 11 36  1  0  0  0
 12 13  2  0  0  0
 12 14  1  0  0  0
 13 37  1  0  0  0
 14 15  2  0  0  0
 14 25  1  0  0  0
 15 16  1  0  0  0
 15 17  1  0  0  0
 16 38  1  0  0  0
 16 39  1  0  0  0
 17 18  1  0  0  0
 18 23  1  0  0  0
 18 19  2  0  0  0
 19 20  1  0  0  0
 19 40  1  0  0  0
 20 21  2  0  0  0
 20 41  1  0  0  0
 21 22  1  0  0  0
 21 24  1  0  0  0
 22 23  2  0  0  0
 22 42  1  0  0  0
 23 43  1  0  0  0
 24 44  1  0  0  0
 24 45  1  0  0  0
 25 26  3  0  0  0
 27 46  1  0  0  0
M  END
> <s_m_entry_id>
65961

> <s_m_entry_name>
ligand_docking-pose.17

> <s_m_Source_Path>
/home/csk/Desktop/cluster/DUD-E-result/mp2k1

> <s_m_Source_File>
ligand_docking-pose.sdf

> <i_m_Source_File_Index>
17

> <i_lp_mmshare_version>
53161

> <r_lp_tautomer_probability>
0.499999974950001

> <s_lp_Force_Field>
OPLS_2005

> <r_lp_Energy>
27.201444

> <b_lp_Chiralities_Consistent>
1

> <s_lp_Variant>
51226-1

> <s_i_glide_gridfile>
glide-grid_3eqh

> <i_i_glide_lignum>
18

> <i_i_glide_rotatable_bonds>
6

> <r_i_docking_score>
-9.54773565689923

> <r_i_glide_ligand_efficiency>
-0.353619839144416

> <r_i_glide_ligand_efficiency_sa>
-1.06085951626777

> <r_i_glide_ligand_efficiency_ln>
-2.22255545420183

> <r_i_glide_gscore>
-9.54773565689923

> <r_i_glide_lipo>
-4.37716156347935

> <r_i_glide_hbond>
-0.740600617358476

> <r_i_glide_metal>
0

> <r_i_glide_rewards>
-1.7000151430558

> <r_i_glide_evdw>
-47.6323204040527

> <r_i_glide_ecoul>
-6.79857587814331

> <r_i_glide_erotb>
0.692762290684614

> <r_i_glide_esite>
-0.0213182217660889

> <r_i_glide_emodel>
-81.998827869365

> <r_i_glide_energy>
-54.430896282196

> <r_i_glide_einternal>
5.00301837921143

> <i_i_glide_confnum>
98

> <i_i_glide_posenum>
370

> <r_i_glide_eff_state_penalty>
0

> <i_f3d_flags>
0

> <s_user_duplicate_titles>
51226

> <s_m_subgroup_title>
dock_pv

> <s_m_subgroupid>
dock_pv1

> <b_m_subgroup_collapsed>
0

$$$$
51805
                    3D
 Schrodinger Suite 2021-1.
 49 51  0  0  1  0            999 V2000
   -9.0387   53.3485   30.2375 C   0  0  0  0  0  0
   -7.7684   53.2751   31.0649 C   0  0  0  0  0  0
   -7.6605   52.3554   32.1135 C   0  0  0  0  0  0
   -6.4972   52.3003   32.8809 C   0  0  0  0  0  0
   -5.4333   53.1522   32.5900 C   0  0  0  0  0  0
   -5.5159   54.0675   31.5351 C   0  0  0  0  0  0
   -6.6937   54.1212   30.7764 C   0  0  0  0  0  0
   -4.3219   54.9907   31.2559 C   0  0  2  0  0  0
   -4.0483   56.0009   32.3695 C   0  0  0  0  0  0
   -5.0845   56.6157   33.0815 C   0  0  0  0  0  0
   -4.7959   57.4509   34.1588 C   0  0  0  0  0  0
   -3.4727   57.6870   34.5271 C   0  0  0  0  0  0
   -2.4151   57.1145   33.8061 C   0  0  0  0  0  0
   -2.7280   56.2803   32.7254 C   0  0  0  0  0  0
   -0.9815   57.3555   34.1342 C   0  0  0  0  0  0
   -0.4621   58.5044   34.6298 C   0  0  0  0  0  0
   -1.1274   59.6513   34.9630 N   0  0  0  0  0  0
    1.2738   58.7482   34.9236 S   0  0  0  0  0  0
    1.5810   60.2751   34.0786 C   0  0  0  0  0  0
    1.0952   60.4656   32.7852 C   0  0  0  0  0  0
    1.2706   61.6956   32.1634 C   0  0  0  0  0  0
    1.9524   62.7169   32.8167 C   0  0  0  0  0  0
    2.4737   62.5127   34.0905 C   0  0  0  0  0  0
    2.2817   61.2905   34.7294 C   0  0  0  0  0  0
    2.1156   63.9458   32.1866 N   0  0  0  0  0  0
   -0.1411   56.2186   33.9224 C   0  0  0  0  0  0
    0.4741   55.2528   33.7627 N   0  0  0  0  0  0
   -4.3498   55.6130   29.9852 O   0  0  0  0  0  0
   -9.5742   52.3971   30.2405 H   0  0  0  0  0  0
   -9.6993   54.1271   30.6195 H   0  0  0  0  0  0
   -8.8087   53.5764   29.1957 H   0  0  0  0  0  0
   -8.4818   51.6923   32.3440 H   0  0  0  0  0  0
   -6.4229   51.6016   33.7022 H   0  0  0  0  0  0
   -4.5453   53.1389   33.2061 H   0  0  0  0  0  0
   -6.7836   54.8337   29.9688 H   0  0  0  0  0  0
   -3.4549   54.3298   31.2074 H   0  0  0  0  0  0
   -6.1140   56.4210   32.8179 H   0  0  0  0  0  0
   -5.6063   57.8927   34.7192 H   0  0  0  0  0  0
   -3.2750   58.3063   35.3877 H   0  0  0  0  0  0
   -1.9334   55.8232   32.1578 H   0  0  0  0  0  0
   -2.0617   59.8417   34.6096 H   0  0  0  0  0  0
   -0.6148   60.4440   35.3232 H   0  0  0  0  0  0
    0.5670   59.6734   32.2725 H   0  0  0  0  0  0
    0.8739   61.8470   31.1757 H   0  0  0  0  0  0
    3.0215   63.3009   34.5819 H   0  0  0  0  0  0
    2.6691   61.1361   35.7263 H   0  0  0  0  0  0
    2.7897   64.5902   32.5770 H   0  0  0  0  0  0
    1.9108   63.9994   31.2024 H   0  0  0  0  0  0
   -3.8237   56.4239   30.0241 H   0  0  0  0  0  0
  1  2  1  0  0  0
  1 29  1  0  0  0
  1 30  1  0  0  0
  1 31  1  0  0  0
  2  7  1  0  0  0
  2  3  2  0  0  0
  3  4  1  0  0  0
  3 32  1  0  0  0
  4  5  2  0  0  0
  4 33  1  0  0  0
  5  6  1  0  0  0
  5 34  1  0  0  0
  6  7  2  0  0  0
  6  8  1  0  0  0
  7 35  1  0  0  0
  8  9  1  0  0  0
  8 28  1  0  0  0
  8 36  1  0  0  0
  9 14  1  0  0  0
  9 10  2  0  0  0
 10 11  1  0  0  0
 10 37  1  0  0  0
 11 12  2  0  0  0
 11 38  1  0  0  0
 12 13  1  0  0  0
 12 39  1  0  0  0
 13 14  2  0  0  0
 13 15  1  0  0  0
 14 40  1  0  0  0
 15 16  2  0  0  0
 15 26  1  0  0  0
 16 17  1  0  0  0
 16 18  1  0  0  0
 17 41  1  0  0  0
 17 42  1  0  0  0
 18 19  1  0  0  0
 19 24  1  0  0  0
 19 20  2  0  0  0
 20 21  1  0  0  0
 20 43  1  0  0  0
 21 22  2  0  0  0
 21 44  1  0  0  0
 22 23  1  0  0  0
 22 25  1  0  0  0
 23 24  2  0  0  0
 23 45  1  0  0  0
 24 46  1  0  0  0
 25 47  1  0  0  0
 25 48  1  0  0  0
 26 27  3  0  0  0
 28 49  1  0  0  0
M  END
> <s_m_entry_id>
65962

> <s_m_entry_name>
ligand_docking-pose.18

> <s_m_Source_Path>
/home/csk/Desktop/cluster/DUD-E-result/mp2k1

> <s_m_Source_File>
ligand_docking-pose.sdf

> <i_m_Source_File_Index>
18

> <i_lp_mmshare_version>
53161

> <r_lp_tautomer_probability>
0.499999974950001

> <s_lp_Force_Field>
OPLS_2005

> <r_lp_Energy>
25.164446

> <b_lp_Chiralities_Consistent>
1

> <s_lp_Variant>
51805-1

> <s_i_glide_gridfile>
glide-grid_3eqh

> <i_i_glide_lignum>
140

> <i_i_glide_rotatable_bonds>
6

> <r_i_docking_score>
-9.53373192731679

> <r_i_glide_ligand_efficiency>
-0.3404904259756

> <r_i_glide_ligand_efficiency_sa>
-1.03392947139833

> <r_i_glide_ligand_efficiency_ln>
-2.2006652513575

> <r_i_glide_gscore>
-9.53373192731679

> <r_i_glide_lipo>
-4.46651309968534

> <r_i_glide_hbond>
-0.730405066044943

> <r_i_glide_metal>
0

> <r_i_glide_rewards>
-1.59409932522698

> <r_i_glide_evdw>
-48.8943099975586

> <r_i_glide_ecoul>
-6.16980123519897

> <r_i_glide_erotb>
0.648474795872842

> <r_i_glide_esite>
-0.0210035470746003

> <r_i_glide_emodel>
-79.5641506233698

> <r_i_glide_energy>
-55.0641112327576

> <r_i_glide_einternal>
8.74172306060791

> <i_i_glide_confnum>
64

> <i_i_glide_posenum>
46

> <r_i_glide_eff_state_penalty>
0

> <i_f3d_flags>
0

> <s_user_duplicate_titles>
51805

> <s_m_subgroup_title>
dock_pv

> <s_m_subgroupid>
dock_pv1

> <b_m_subgroup_collapsed>
0

$$$$
396353
                    3D
 Schrodinger Suite 2021-1.
 36 37  0  0  1  0            999 V2000
    1.9512   60.3212   32.9031 C   0  0  0  0  0  0
    0.8955   59.4574   33.1868 C   0  0  0  0  0  0
   -0.0399   59.7570   34.1871 C   0  0  0  0  0  0
    0.0953   60.9699   34.8742 C   0  0  0  0  0  0
    1.1539   61.8331   34.5831 C   0  0  0  0  0  0
    2.0738   61.5224   33.5904 C   0  0  0  0  0  0
    3.4684   62.7481   33.1657 Br  0  0  0  0  0  0
   -0.8053   61.3281   35.8183 F   0  0  0  0  0  0
   -1.1259   58.9136   34.5093 N   0  0  0  0  0  0
   -1.3378   57.5624   34.2685 C   0  0  0  0  0  0
   -0.3060   56.6973   34.0786 C   0  0  0  0  0  0
   -0.4641   55.2875   33.7630 C   0  0  0  0  0  0
    0.4740   54.5481   33.5096 O   0  0  0  0  0  0
   -1.7430   54.8439   33.7365 N   0  0  0  0  0  0
   -2.8085   55.6606   33.9728 C   0  0  0  0  0  0
   -2.7032   56.9836   34.2428 C   0  0  0  0  0  0
   -3.8755   57.7289   34.6367 C   0  0  0  0  0  0
   -3.8836   58.3478   35.7021 O   0  0  0  0  0  0
   -4.9175   57.6898   33.7790 N   0  0  0  0  0  0
   -6.1053   58.3404   34.1332 O   0  0  0  0  0  0
   -7.1696   58.0374   33.2346 C   0  0  0  0  0  0
   -7.2573   59.0239   32.0498 C   0  0  0  0  0  0
   -7.5260   60.3480   32.4819 O   0  0  0  0  0  0
   -1.8435   53.8561   33.5641 H   0  0  0  0  0  0
    2.6784   60.0538   32.1565 H   0  0  0  0  0  0
    0.8136   58.5613   32.6043 H   0  0  0  0  0  0
    1.2740   62.7480   35.1322 H   0  0  0  0  0  0
   -1.9069   59.4373   34.8854 H   0  0  0  0  0  0
    0.7135   57.0366   34.1511 H   0  0  0  0  0  0
   -3.7360   55.1004   33.9850 H   0  0  0  0  0  0
   -4.9288   57.2950   32.8500 H   0  0  0  0  0  0
   -8.1025   58.0777   33.7982 H   0  0  0  0  0  0
   -7.1053   57.0108   32.8657 H   0  0  0  0  0  0
   -8.0445   58.7136   31.3630 H   0  0  0  0  0  0
   -6.3260   59.0318   31.4854 H   0  0  0  0  0  0
   -8.4022   60.3480   32.8935 H   0  0  0  0  0  0
  1  6  1  0  0  0
  1  2  2  0  0  0
  1 25  1  0  0  0
  2  3  1  0  0  0
  2 26  1  0  0  0
  3  4  2  0  0  0
  3  9  1  0  0  0
  4  5  1  0  0  0
  4  8  1  0  0  0
  5  6  2  0  0  0
  5 27  1  0  0  0
  6  7  1  0  0  0
  9 10  1  0  0  0
  9 28  1  0  0  0
 10 16  1  0  0  0
 10 11  2  0  0  0
 11 12  1  0  0  0
 11 29  1  0  0  0
 12 13  2  0  0  0
 12 14  1  0  0  0
 14 24  1  0  0  0
 14 15  1  0  0  0
 15 16  2  0  0  0
 15 30  1  0  0  0
 16 17  1  0  0  0
 17 18  2  0  0  0
 17 19  1  0  0  0
 19 20  1  0  0  0
 19 31  1  0  0  0
 20 21  1  0  0  0
 21 22  1  0  0  0
 21 32  1  0  0  0
 21 33  1  0  0  0
 22 23  1  0  0  0
 22 34  1  0  0  0
 22 35  1  0  0  0
 23 36  1  0  0  0
M  END
> <s_m_entry_id>
65963

> <s_m_entry_name>
ligand_docking-pose.19

> <s_m_Source_Path>
/home/csk/Desktop/cluster/DUD-E-result/mp2k1

> <s_m_Source_File>
ligand_docking-pose.sdf

> <i_m_Source_File_Index>
19

> <i_lp_mmshare_version>
53161

> <r_lp_tautomer_probability>
0.999206294981429

> <s_lp_Force_Field>
OPLS_2005

> <r_lp_Energy>
36.572332

> <b_lp_Chiralities_Consistent>
1

> <s_lp_Variant>
396353-1

> <s_i_glide_gridfile>
glide-grid_3eqh

> <i_i_glide_lignum>
13

> <i_i_glide_rotatable_bonds>
8

> <r_i_docking_score>
-9.49047824796945

> <r_i_glide_ligand_efficiency>
-0.41262948904215

> <r_i_glide_ligand_efficiency_sa>
-1.17346337757353

> <r_i_glide_ligand_efficiency_ln>
-2.29488369525797

> <r_i_glide_gscore>
-9.49047824796945

> <r_i_glide_lipo>
-3.51054822166724

> <r_i_glide_hbond>
-0.553405274093157

> <r_i_glide_metal>
0

> <r_i_glide_rewards>
-1.69249162282416

> <r_i_glide_evdw>
-38.4007797241211

> <r_i_glide_ecoul>
-18.0857677459717

> <r_i_glide_erotb>
0.913463363922532

> <r_i_glide_esite>
-0.01459234520562

> <r_i_glide_emodel>
-89.1447784673791

> <r_i_glide_energy>
-56.4865474700928

> <r_i_glide_einternal>
8.04403209686279

> <i_i_glide_confnum>
126

> <i_i_glide_posenum>
327

> <r_i_glide_eff_state_penalty>
0

> <i_f3d_flags>
0

> <s_user_duplicate_titles>
396353

> <s_m_subgroup_title>
dock_pv

> <s_m_subgroupid>
dock_pv1

> <b_m_subgroup_collapsed>
0

$$$$
52460
                    3D
 Schrodinger Suite 2021-1.
 39 40  0  0  1  0            999 V2000
   -5.1583   54.0667   31.1500 C   0  0  0  0  0  0
   -4.7369   55.5255   30.9229 C   0  0  1  0  0  0
   -4.2758   56.1989   32.2172 C   0  0  0  0  0  0
   -5.2281   56.6897   33.1143 C   0  0  0  0  0  0
   -4.8293   57.3243   34.2889 C   0  0  0  0  0  0
   -3.4723   57.4831   34.5740 C   0  0  0  0  0  0
   -2.5003   57.0046   33.6875 C   0  0  0  0  0  0
   -2.9156   56.3476   32.5241 C   0  0  0  0  0  0
   -1.0524   57.1981   33.9307 C   0  0  0  0  0  0
   -0.4870   58.3649   34.3134 C   0  0  0  0  0  0
   -1.1260   59.5481   34.5633 N   0  0  0  0  0  0
    1.2741   58.5224   34.5543 S   0  0  0  0  0  0
    1.6528   60.1971   34.0968 C   0  0  0  0  0  0
    2.2176   61.0086   35.0743 C   0  0  0  0  0  0
    2.4756   62.3480   34.8151 C   0  0  0  0  0  0
    2.2091   62.8874   33.5601 C   0  0  0  0  0  0
    1.6810   62.0729   32.5629 C   0  0  0  0  0  0
    1.4113   60.7265   32.8168 C   0  0  0  0  0  0
    0.9447   59.9480   31.7632 N   0  0  0  0  0  0
   -0.2403   56.0302   33.7935 C   0  0  0  0  0  0
    0.4639   55.1121   33.7629 N   0  0  0  0  0  0
   -3.7631   55.5479   29.8976 O   0  0  0  0  0  0
   -5.9650   53.9977   31.8799 H   0  0  0  0  0  0
   -5.5142   53.6100   30.2253 H   0  0  0  0  0  0
   -4.3262   53.4682   31.5187 H   0  0  0  0  0  0
   -5.5936   56.0821   30.5369 H   0  0  0  0  0  0
   -6.2810   56.5784   32.8989 H   0  0  0  0  0  0
   -5.5763   57.6821   34.9806 H   0  0  0  0  0  0
   -3.1776   57.9710   35.4911 H   0  0  0  0  0  0
   -2.1743   55.9765   31.8315 H   0  0  0  0  0  0
   -2.0820   59.7203   34.2683 H   0  0  0  0  0  0
   -0.5927   60.3582   34.8440 H   0  0  0  0  0  0
    2.4516   60.6046   36.0491 H   0  0  0  0  0  0
    2.8781   62.9650   35.5980 H   0  0  0  0  0  0
    2.4144   63.9302   33.3611 H   0  0  0  0  0  0
    1.4916   62.4967   31.5880 H   0  0  0  0  0  0
    1.2736   60.2242   30.8472 H   0  0  0  0  0  0
    0.8730   58.9524   31.9387 H   0  0  0  0  0  0
   -3.5263   56.4767   29.7613 H   0  0  0  0  0  0
  1  2  1  0  0  0
  1 23  1  0  0  0
  1 24  1  0  0  0
  1 25  1  0  0  0
  2  3  1  0  0  0
  2 22  1  0  0  0
  2 26  1  0  0  0
  3  8  1  0  0  0
  3  4  2  0  0  0
  4  5  1  0  0  0
  4 27  1  0  0  0
  5  6  2  0  0  0
  5 28  1  0  0  0
  6  7  1  0  0  0
  6 29  1  0  0  0
  7  8  2  0  0  0
  7  9  1  0  0  0
  8 30  1  0  0  0
  9 10  2  0  0  0
  9 20  1  0  0  0
 10 11  1  0  0  0
 10 12  1  0  0  0
 11 31  1  0  0  0
 11 32  1  0  0  0
 12 13  1  0  0  0
 13 18  1  0  0  0
 13 14  2  0  0  0
 14 15  1  0  0  0
 14 33  1  0  0  0
 15 16  2  0  0  0
 15 34  1  0  0  0
 16 17  1  0  0  0
 16 35  1  0  0  0
 17 18  2  0  0  0
 17 36  1  0  0  0
 18 19  1  0  0  0
 19 37  1  0  0  0
 19 38  1  0  0  0
 20 21  3  0  0  0
 22 39  1  0  0  0
M  END
> <s_m_entry_id>
65964

> <s_m_entry_name>
ligand_docking-pose.20

> <s_m_Source_Path>
/home/csk/Desktop/cluster/DUD-E-result/mp2k1

> <s_m_Source_File>
ligand_docking-pose.sdf

> <i_m_Source_File_Index>
20

> <i_lp_mmshare_version>
53161

> <r_lp_tautomer_probability>
0.499999974950001

> <s_lp_Force_Field>
OPLS_2005

> <r_lp_Energy>
20.378929

> <b_lp_Chiralities_Consistent>
1

> <s_lp_Variant>
52460-2

> <s_i_glide_gridfile>
glide-grid_3eqh

> <i_i_glide_lignum>
200

> <i_i_glide_rotatable_bonds>
5

> <r_i_docking_score>
-9.48573118705392

> <r_i_glide_ligand_efficiency>
-0.431169599411542

> <r_i_glide_ligand_efficiency_sa>
-1.20815417448925

> <r_i_glide_ligand_efficiency_ln>
-2.31865870256788

> <r_i_glide_gscore>
-9.48573118705392

> <r_i_glide_lipo>
-3.63498134665202

> <r_i_glide_hbond>
-1.02013513426396

> <r_i_glide_metal>
0

> <r_i_glide_rewards>
-2.04999669144672

> <r_i_glide_evdw>
-39.0461769104004

> <r_i_glide_ecoul>
-10.5378608703613

> <r_i_glide_erotb>
0.764957572906062

> <r_i_glide_esite>
-0.0125876115230461

> <r_i_glide_emodel>
-73.4408448516995

> <r_i_glide_energy>
-49.5840377807617

> <r_i_glide_einternal>
5.57602405548096

> <i_i_glide_confnum>
29

> <i_i_glide_posenum>
129

> <r_i_glide_eff_state_penalty>
0

> <i_f3d_flags>
0

> <s_user_duplicate_titles>
52460

> <s_m_subgroup_title>
dock_pv

> <s_m_subgroupid>
dock_pv1

> <b_m_subgroup_collapsed>
0

$$$$
51792
                    3D
 Schrodinger Suite 2021-1.
 43 45  0  0  1  0            999 V2000
    2.3300   62.9165   33.3580 C   0  0  0  0  0  0
    2.6737   62.4121   34.6078 C   0  0  0  0  0  0
    2.3209   61.1131   34.9630 C   0  0  0  0  0  0
    1.6600   60.2860   34.0553 C   0  0  0  0  0  0
    1.3773   60.7695   32.7682 C   0  0  0  0  0  0
    1.6741   62.0955   32.4458 C   0  0  0  0  0  0
    0.8744   59.9481   31.7638 N   0  0  0  0  0  0
    1.2959   58.6189   34.5629 S   0  0  0  0  0  0
   -0.4631   58.4211   34.3468 C   0  0  0  0  0  0
   -1.0177   57.2485   33.9684 C   0  0  0  0  0  0
   -0.2076   56.0823   33.8084 C   0  0  0  0  0  0
    0.4739   55.1478   33.7628 N   0  0  0  0  0  0
   -2.4681   57.0508   33.7606 C   0  0  0  0  0  0
   -3.4018   57.4335   34.7303 C   0  0  0  0  0  0
   -4.7659   57.2689   34.4991 C   0  0  0  0  0  0
   -5.2098   56.7166   33.2997 C   0  0  0  0  0  0
   -4.2951   56.3173   32.3192 C   0  0  0  0  0  0
   -2.9246   56.4852   32.5651 C   0  0  0  0  0  0
   -4.8181   55.7271   31.0031 C   0  0  2  0  0  0
   -5.5761   54.4221   31.1890 C   0  0  0  0  0  0
   -5.3568   53.4055   32.1338 C   0  0  0  0  0  0
   -6.3254   52.4336   31.9534 C   0  0  0  0  0  0
   -7.1444   52.7891   30.9363 O   0  0  0  0  0  0
   -6.6964   53.9887   30.4854 C   0  0  0  0  0  0
   -3.8220   55.5478   30.0128 O   0  0  0  0  0  0
   -1.1260   59.5834   34.6217 N   0  0  0  0  0  0
    2.5924   63.9300   33.0882 H   0  0  0  0  0  0
    3.2175   63.0319   35.3033 H   0  0  0  0  0  0
    2.5897   60.7378   35.9396 H   0  0  0  0  0  0
    1.4397   62.4864   31.4674 H   0  0  0  0  0  0
    0.8077   58.9622   31.9915 H   0  0  0  0  0  0
    1.2243   60.1771   30.8433 H   0  0  0  0  0  0
   -3.0685   57.8514   35.6693 H   0  0  0  0  0  0
   -5.4838   57.5513   35.2544 H   0  0  0  0  0  0
   -6.2703   56.5918   33.1322 H   0  0  0  0  0  0
   -2.2045   56.1937   31.8144 H   0  0  0  0  0  0
   -5.5089   56.4703   30.5991 H   0  0  0  0  0  0
   -4.5748   53.3939   32.8794 H   0  0  0  0  0  0
   -6.5430   51.4963   32.4455 H   0  0  0  0  0  0
   -7.2623   54.4280   29.6759 H   0  0  0  0  0  0
   -3.5289   56.4343   29.7599 H   0  0  0  0  0  0
   -2.0858   59.7376   34.3322 H   0  0  0  0  0  0
   -0.6080   60.4037   34.9012 H   0  0  0  0  0  0
  1  6  1  0  0  0
  1  2  2  0  0  0
  1 27  1  0  0  0
  2  3  1  0  0  0
  2 28  1  0  0  0
  3  4  2  0  0  0
  3 29  1  0  0  0
  4  5  1  0  0  0
  4  8  1  0  0  0
  5  6  2  0  0  0
  5  7  1  0  0  0
  6 30  1  0  0  0
  7 31  1  0  0  0
  7 32  1  0  0  0
  8  9  1  0  0  0
  9 10  2  0  0  0
  9 26  1  0  0  0
 10 11  1  0  0  0
 10 13  1  0  0  0
 11 12  3  0  0  0
 13 18  1  0  0  0
 13 14  2  0  0  0
 14 15  1  0  0  0
 14 33  1  0  0  0
 15 16  2  0  0  0
 15 34  1  0  0  0
 16 17  1  0  0  0
 16 35  1  0  0  0
 17 18  2  0  0  0
 17 19  1  0  0  0
 18 36  1  0  0  0
 19 20  1  0  0  0
 19 25  1  0  0  0
 19 37  1  0  0  0
 20 24  2  0  0  0
 20 21  1  0  0  0
 21 22  2  0  0  0
 21 38  1  0  0  0
 22 23  1  0  0  0
 22 39  1  0  0  0
 23 24  1  0  0  0
 24 40  1  0  0  0
 25 41  1  0  0  0
 26 42  1  0  0  0
 26 43  1  0  0  0
M  END
> <s_m_entry_id>
65965

> <s_m_entry_name>
ligand_docking-pose.21

> <s_m_Source_Path>
/home/csk/Desktop/cluster/DUD-E-result/mp2k1

> <s_m_Source_File>
ligand_docking-pose.sdf

> <i_m_Source_File_Index>
21

> <i_lp_mmshare_version>
53161

> <r_lp_tautomer_probability>
0.499999974950001

> <s_lp_Force_Field>
OPLS_2005

> <r_lp_Energy>
23.972457

> <b_lp_Chiralities_Consistent>
1

> <s_lp_Variant>
51792-1

> <s_i_glide_gridfile>
glide-grid_3eqh

> <i_i_glide_lignum>
99

> <i_i_glide_rotatable_bonds>
6

> <r_i_docking_score>
-9.470653804775

> <r_i_glide_ligand_efficiency>
-0.364255915568269

> <r_i_glide_ligand_efficiency_sa>
-1.07910671659318

> <r_i_glide_ligand_efficiency_ln>
-2.22415197030162

> <r_i_glide_gscore>
-9.470653804775

> <r_i_glide_lipo>
-3.82765027109545

> <r_i_glide_hbond>
-0.858354586125727

> <r_i_glide_metal>
0

> <r_i_glide_rewards>
-1.7781524271955

> <r_i_glide_evdw>
-42.6023597717285

> <r_i_glide_ecoul>
-10.587682723999

> <r_i_glide_erotb>
0.727315591634751

> <r_i_glide_esite>
-0.0155417148068024

> <r_i_glide_emodel>
-79.0190184654682

> <r_i_glide_energy>
-53.1900424957275

> <r_i_glide_einternal>
5.42340660095215

> <i_i_glide_confnum>
127

> <i_i_glide_posenum>
243

> <r_i_glide_eff_state_penalty>
0

> <i_f3d_flags>
0

> <s_user_duplicate_titles>
51792

> <s_m_subgroup_title>
dock_pv

> <s_m_subgroupid>
dock_pv1

> <b_m_subgroup_collapsed>
0

$$$$
51552
                    3D
 Schrodinger Suite 2021-1.
 52 55  0  0  1  0            999 V2000
    2.8844   63.5385   33.1489 C   0  0  0  0  0  0
    3.2741   63.1480   34.4178 C   0  0  0  0  0  0
    2.8213   61.9593   34.9876 C   0  0  0  0  0  0
    1.9978   61.0885   34.2475 C   0  0  0  0  0  0
    1.5188   59.8540   34.7755 C   0  0  0  0  0  0
    0.7302   59.0139   33.9838 C   0  0  0  0  0  0
    0.4740   59.3817   32.6757 C   0  0  0  0  0  0
    0.8929   60.5826   32.1434 C   0  0  0  0  0  0
    1.6471   61.4686   32.9175 C   0  0  0  0  0  0
    2.0664   62.7148   32.3963 C   0  0  0  0  0  0
    0.1210   57.7102   34.4987 C   0  0  1  0  0  0
   -1.4040   57.7517   34.5955 C   0  0  0  0  0  0
   -1.9755   58.1868   35.7860 C   0  0  0  0  0  0
   -3.3401   58.0619   36.0055 C   0  0  0  0  0  0
   -4.1583   57.5485   35.0029 C   0  0  0  0  0  0
   -3.6265   57.1653   33.7684 C   0  0  0  0  0  0
   -2.2400   57.2676   33.5756 C   0  0  0  0  0  0
   -4.5489   56.6406   32.7313 C   0  0  0  0  0  0
   -4.2878   55.5696   31.9456 C   0  0  0  0  0  0
   -3.1669   54.7822   31.9765 N   0  0  0  0  0  0
   -5.4196   54.9694   30.7092 S   0  0  0  0  0  0
   -6.4929   53.9346   31.6860 C   0  0  0  0  0  0
   -5.9399   52.8947   32.4435 C   0  0  0  0  0  0
   -6.7597   52.0463   33.1870 C   0  0  0  0  0  0
   -8.1401   52.2352   33.1869 C   0  0  0  0  0  0
   -8.7009   53.2704   32.4389 C   0  0  0  0  0  0
   -7.8878   54.1220   31.6859 C   0  0  0  0  0  0
   -8.5009   55.1480   30.9630 N   0  0  0  0  0  0
   -5.7664   57.3858   32.5989 C   0  0  0  0  0  0
   -6.7259   58.0347   32.5631 N   0  0  0  0  0  0
    0.5517   56.5837   33.7630 O   0  0  0  0  0  0
    3.2293   64.4781   32.7461 H   0  0  0  0  0  0
    3.9249   63.8125   34.9630 H   0  0  0  0  0  0
    3.1131   61.6803   35.9891 H   0  0  0  0  0  0
    1.7618   59.5820   35.7918 H   0  0  0  0  0  0
   -0.1598   58.7480   32.0828 H   0  0  0  0  0  0
    0.6404   60.8390   31.1270 H   0  0  0  0  0  0
    1.7753   63.0112   31.3996 H   0  0  0  0  0  0
    0.5021   57.5480   35.5085 H   0  0  0  0  0  0
   -1.3406   58.5754   36.5631 H   0  0  0  0  0  0
   -3.7562   58.3480   36.9613 H   0  0  0  0  0  0
   -5.2171   57.4449   35.1956 H   0  0  0  0  0  0
   -1.8078   56.9593   32.6352 H   0  0  0  0  0  0
   -2.4583   54.9145   32.6837 H   0  0  0  0  0  0
   -3.0506   54.0271   31.3173 H   0  0  0  0  0  0
   -4.8735   52.7291   32.4503 H   0  0  0  0  0  0
   -6.3261   51.2410   33.7628 H   0  0  0  0  0  0
   -8.7744   51.5806   33.7676 H   0  0  0  0  0  0
   -9.7724   53.4077   32.4498 H   0  0  0  0  0  0
   -7.9274   55.8374   30.4825 H   0  0  0  0  0  0
   -9.5001   55.2676   31.0103 H   0  0  0  0  0  0
    0.4336   56.7888   32.8285 H   0  0  0  0  0  0
  1 10  1  0  0  0
  1  2  2  0  0  0
  1 32  1  0  0  0
  2  3  1  0  0  0
  2 33  1  0  0  0
  3  4  2  0  0  0
  3 34  1  0  0  0
  4  9  1  0  0  0
  4  5  1  0  0  0
  5  6  2  0  0  0
  5 35  1  0  0  0
  6  7  1  0  0  0
  6 11  1  0  0  0
  7  8  2  0  0  0
  7 36  1  0  0  0
  8  9  1  0  0  0
  8 37  1  0  0  0
  9 10  2  0  0  0
 10 38  1  0  0  0
 11 12  1  0  0  0
 11 31  1  0  0  0
 11 39  1  0  0  0
 12 17  1  0  0  0
 12 13  2  0  0  0
 13 14  1  0  0  0
 13 40  1  0  0  0
 14 15  2  0  0  0
 14 41  1  0  0  0
 15 16  1  0  0  0
 15 42  1  0  0  0
 16 17  2  0  0  0
 16 18  1  0  0  0
 17 43  1  0  0  0
 18 19  2  0  0  0
 18 29  1  0  0  0
 19 20  1  0  0  0
 19 21  1  0  0  0
 20 44  1  0  0  0
 20 45  1  0  0  0
 21 22  1  0  0  0
 22 27  1  0  0  0
 22 23  2  0  0  0
 23 24  1  0  0  0
 23 46  1  0  0  0
 24 25  2  0  0  0
 24 47  1  0  0  0
 25 26  1  0  0  0
 25 48  1  0  0  0
 26 27  2  0  0  0
 26 49  1  0  0  0
 27 28  1  0  0  0
 28 50  1  0  0  0
 28 51  1  0  0  0
 29 30  3  0  0  0
 31 52  1  0  0  0
M  END
> <s_m_entry_id>
65966

> <s_m_entry_name>
ligand_docking-pose.22

> <s_m_Source_Path>
/home/csk/Desktop/cluster/DUD-E-result/mp2k1

> <s_m_Source_File>
ligand_docking-pose.sdf

> <i_m_Source_File_Index>
22

> <i_lp_mmshare_version>
53161

> <r_lp_tautomer_probability>
0.499999974950001

> <s_lp_Force_Field>
OPLS_2005

> <r_lp_Energy>
33.367642

> <b_lp_Chiralities_Consistent>
1

> <s_lp_Variant>
51552-2

> <s_i_glide_gridfile>
glide-grid_3eqh

> <i_i_glide_lignum>
12

> <i_i_glide_rotatable_bonds>
6

> <r_i_docking_score>
-9.41552022658108

> <r_i_glide_ligand_efficiency>
-0.30372645892197

> <r_i_glide_ligand_efficiency_sa>
-0.954120420584681

> <r_i_glide_ligand_efficiency_ln>
-2.12348836213531

> <r_i_glide_gscore>
-9.41552022658108

> <r_i_glide_lipo>
-5.44496772992858

> <r_i_glide_hbond>
-0.411426014799183

> <r_i_glide_metal>
0

> <r_i_glide_rewards>
-1.18474530325164

> <r_i_glide_evdw>
-47.1474456787109

> <r_i_glide_ecoul>
-3.32493829727173

> <r_i_glide_erotb>
0.552471044304153

> <r_i_glide_esite>
-0.0707391943795277

> <r_i_glide_emodel>
-71.5661270622677

> <r_i_glide_energy>
-50.4723839759827

> <r_i_glide_einternal>
4.55168867111206

> <i_i_glide_confnum>
67

> <i_i_glide_posenum>
26

> <r_i_glide_eff_state_penalty>
0

> <i_f3d_flags>
0

> <s_user_duplicate_titles>
51552

> <s_m_subgroup_title>
dock_pv

> <s_m_subgroupid>
dock_pv1

> <b_m_subgroup_collapsed>
0

$$$$
51085
                    3D
 Schrodinger Suite 2021-1.
 49 51  0  0  1  0            999 V2000
   -8.1454   52.3527   33.2830 C   0  0  0  0  0  0
   -6.8028   52.0539   33.0528 C   0  0  0  0  0  0
   -6.0304   52.8960   32.2528 C   0  0  0  0  0  0
   -6.5950   54.0391   31.6734 C   0  0  0  0  0  0
   -7.9504   54.3376   31.9044 C   0  0  0  0  0  0
   -8.7155   53.4909   32.7112 C   0  0  0  0  0  0
   -8.5628   55.4712   31.3630 N   0  0  0  0  0  0
   -5.5734   55.0811   30.6552 S   0  0  0  0  0  0
   -4.4261   55.6807   31.8695 C   0  0  0  0  0  0
   -4.6655   56.7526   32.6622 C   0  0  0  0  0  0
   -5.8659   57.5269   32.5628 C   0  0  0  0  0  0
   -6.8032   58.2083   32.5629 N   0  0  0  0  0  0
   -3.7152   57.2380   33.6883 C   0  0  0  0  0  0
   -4.1946   57.5481   34.9639 C   0  0  0  0  0  0
   -3.3232   57.9480   35.9739 C   0  0  0  0  0  0
   -1.9596   58.0240   35.7240 C   0  0  0  0  0  0
   -1.4553   57.7361   34.4534 C   0  0  0  0  0  0
   -2.3424   57.3610   33.4361 C   0  0  0  0  0  0
    0.0558   57.7608   34.2220 C   0  0  2  0  0  0
    0.6191   59.1497   33.8665 C   0  0  0  0  0  0
    0.1584   60.2850   34.5463 C   0  0  0  0  0  0
    0.6476   61.5485   34.2346 C   0  0  0  0  0  0
    1.6085   61.7104   33.2357 C   0  0  0  0  0  0
    2.0744   60.5779   32.5628 C   0  0  0  0  0  0
    1.5912   59.3109   32.8741 C   0  0  0  0  0  0
    2.1230   63.1129   32.8931 C   0  0  0  0  0  0
    1.0996   63.9549   32.7537 F   0  0  0  0  0  0
    2.9156   63.5471   33.8715 F   0  0  0  0  0  0
    2.8256   63.1480   31.7632 F   0  0  0  0  0  0
    0.4739   56.7101   33.3630 O   0  0  0  0  0  0
   -3.3114   54.8844   31.8854 N   0  0  0  0  0  0
   -8.7426   51.7034   33.9060 H   0  0  0  0  0  0
   -6.3617   51.1717   33.4964 H   0  0  0  0  0  0
   -4.9928   52.6538   32.0824 H   0  0  0  0  0  0
   -9.7549   53.7134   32.9028 H   0  0  0  0  0  0
   -8.0251   56.1073   30.7760 H   0  0  0  0  0  0
   -9.5312   55.6606   31.5607 H   0  0  0  0  0  0
   -5.2475   57.4483   35.1861 H   0  0  0  0  0  0
   -3.6937   58.1681   36.9623 H   0  0  0  0  0  0
   -1.2923   58.2990   36.5275 H   0  0  0  0  0  0
   -1.9606   57.1446   32.4480 H   0  0  0  0  0  0
    0.5213   57.5156   35.1785 H   0  0  0  0  0  0
   -0.5894   60.2122   35.3211 H   0  0  0  0  0  0
    0.2655   62.3988   34.7753 H   0  0  0  0  0  0
    2.7983   60.6652   31.7647 H   0  0  0  0  0  0
    1.9790   58.4644   32.3263 H   0  0  0  0  0  0
    0.3353   56.9961   32.4458 H   0  0  0  0  0  0
   -2.5825   55.0252   32.5718 H   0  0  0  0  0  0
   -3.2009   54.1356   31.2176 H   0  0  0  0  0  0
  1  6  1  0  0  0
  1  2  2  0  0  0
  1 32  1  0  0  0
  2  3  1  0  0  0
  2 33  1  0  0  0
  3  4  2  0  0  0
  3 34  1  0  0  0
  4  5  1  0  0  0
  4  8  1  0  0  0
  5  6  2  0  0  0
  5  7  1  0  0  0
  6 35  1  0  0  0
  7 36  1  0  0  0
  7 37  1  0  0  0
  8  9  1  0  0  0
  9 10  2  0  0  0
  9 31  1  0  0  0
 10 11  1  0  0  0
 10 13  1  0  0  0
 11 12  3  0  0  0
 13 18  1  0  0  0
 13 14  2  0  0  0
 14 15  1  0  0  0
 14 38  1  0  0  0
 15 16  2  0  0  0
 15 39  1  0  0  0
 16 17  1  0  0  0
 16 40  1  0  0  0
 17 18  2  0  0  0
 17 19  1  0  0  0
 18 41  1  0  0  0
 19 20  1  0  0  0
 19 30  1  0  0  0
 19 42  1  0  0  0
 20 25  1  0  0  0
 20 21  2  0  0  0
 21 22  1  0  0  0
 21 43  1  0  0  0
 22 23  2  0  0  0
 22 44  1  0  0  0
 23 24  1  0  0  0
 23 26  1  0  0  0
 24 25  2  0  0  0
 24 45  1  0  0  0
 25 46  1  0  0  0
 26 27  1  0  0  0
 26 28  1  0  0  0
 26 29  1  0  0  0
 30 47  1  0  0  0
 31 48  1  0  0  0
 31 49  1  0  0  0
M  END
> <s_m_entry_id>
65967

> <s_m_entry_name>
ligand_docking-pose.23

> <s_m_Source_Path>
/home/csk/Desktop/cluster/DUD-E-result/mp2k1

> <s_m_Source_File>
ligand_docking-pose.sdf

> <i_m_Source_File_Index>
23

> <i_lp_mmshare_version>
53161

> <r_lp_tautomer_probability>
0.499999974950001

> <s_lp_Force_Field>
OPLS_2005

> <r_lp_Energy>
28.894823

> <b_lp_Chiralities_Consistent>
1

> <s_lp_Variant>
51085-1

> <s_i_glide_gridfile>
glide-grid_3eqh

> <i_i_glide_lignum>
71

> <i_i_glide_rotatable_bonds>
7

> <r_i_docking_score>
-9.39613614318473

> <r_i_glide_ligand_efficiency>
-0.303101165909185

> <r_i_glide_ligand_efficiency_sa>
-0.952156137214489

> <r_i_glide_ligand_efficiency_ln>
-2.11911665727862

> <r_i_glide_gscore>
-9.39613614318473

> <r_i_glide_lipo>
-4.62003639508438

> <r_i_glide_hbond>
-0.433594825631701

> <r_i_glide_metal>
0

> <r_i_glide_rewards>
-1.07788196662143

> <r_i_glide_evdw>
-49.6236991882324

> <r_i_glide_ecoul>
-8.11247825622559

> <r_i_glide_erotb>
0.512461184963255

> <r_i_glide_esite>
-0.0790274429650124

> <r_i_glide_emodel>
-83.9984535122606

> <r_i_glide_energy>
-57.736177444458

> <r_i_glide_einternal>
8.57417583465576

> <i_i_glide_confnum>
44

> <i_i_glide_posenum>
390

> <r_i_glide_eff_state_penalty>
0

> <i_f3d_flags>
0

> <s_user_duplicate_titles>
51085

> <s_m_subgroup_title>
dock_pv

> <s_m_subgroupid>
dock_pv1

> <b_m_subgroup_collapsed>
0

$$$$
51791
                    3D
 Schrodinger Suite 2021-1.
 43 45  0  0  1  0            999 V2000
    2.3480   62.9370   33.3111 C   0  0  0  0  0  0
    2.7050   62.4490   34.5640 C   0  0  0  0  0  0
    2.3437   61.1554   34.9440 C   0  0  0  0  0  0
    1.6711   60.3185   34.0482 C   0  0  0  0  0  0
    1.3805   60.7859   32.7563 C   0  0  0  0  0  0
    1.6761   62.1079   32.4167 C   0  0  0  0  0  0
    0.8742   59.9487   31.7632 N   0  0  0  0  0  0
    1.3113   58.6509   34.5630 S   0  0  0  0  0  0
   -0.4496   58.4394   34.3528 C   0  0  0  0  0  0
   -0.9998   57.2624   33.9789 C   0  0  0  0  0  0
   -0.1913   56.0957   33.8131 C   0  0  0  0  0  0
    0.4736   55.1490   33.7627 N   0  0  0  0  0  0
   -2.4518   57.0614   33.7862 C   0  0  0  0  0  0
   -3.3698   57.4285   34.7768 C   0  0  0  0  0  0
   -4.7375   57.2751   34.5629 C   0  0  0  0  0  0
   -5.2003   56.7478   33.3596 C   0  0  0  0  0  0
   -4.3022   56.3575   32.3600 C   0  0  0  0  0  0
   -2.9270   56.5162   32.5885 C   0  0  0  0  0  0
   -4.8517   55.8056   31.0374 C   0  0  2  0  0  0
   -5.7277   54.5707   31.2167 C   0  0  0  0  0  0
   -6.9378   54.3470   30.5367 C   0  0  0  0  0  0
   -7.5872   53.1757   30.9043 C   0  0  0  0  0  0
   -6.7245   52.3121   32.1280 S   0  0  0  0  0  0
   -5.4883   53.5275   32.1140 C   0  0  0  0  0  0
   -3.8618   55.5480   30.0568 O   0  0  0  0  0  0
   -1.1255   59.5953   34.6298 N   0  0  0  0  0  0
    2.6150   63.9440   33.0239 H   0  0  0  0  0  0
    3.2669   63.0835   35.2348 H   0  0  0  0  0  0
    2.6228   60.7891   35.9216 H   0  0  0  0  0  0
    1.4334   62.4874   31.4362 H   0  0  0  0  0  0
    0.8027   58.9666   32.0076 H   0  0  0  0  0  0
    1.2369   60.1569   30.8440 H   0  0  0  0  0  0
   -3.0227   57.8305   35.7167 H   0  0  0  0  0  0
   -5.4432   57.5460   35.3327 H   0  0  0  0  0  0
   -6.2639   56.6341   33.2056 H   0  0  0  0  0  0
   -2.2186   56.2383   31.8215 H   0  0  0  0  0  0
   -5.4690   56.6084   30.6289 H   0  0  0  0  0  0
   -7.3317   55.0345   29.8013 H   0  0  0  0  0  0
   -8.5258   52.7964   30.5282 H   0  0  0  0  0  0
   -4.6441   53.4355   32.7819 H   0  0  0  0  0  0
   -3.5344   56.4094   29.7618 H   0  0  0  0  0  0
   -2.0860   59.7401   34.3411 H   0  0  0  0  0  0
   -0.6130   60.4208   34.9051 H   0  0  0  0  0  0
  1  6  1  0  0  0
  1  2  2  0  0  0
  1 27  1  0  0  0
  2  3  1  0  0  0
  2 28  1  0  0  0
  3  4  2  0  0  0
  3 29  1  0  0  0
  4  5  1  0  0  0
  4  8  1  0  0  0
  5  6  2  0  0  0
  5  7  1  0  0  0
  6 30  1  0  0  0
  7 31  1  0  0  0
  7 32  1  0  0  0
  8  9  1  0  0  0
  9 10  2  0  0  0
  9 26  1  0  0  0
 10 11  1  0  0  0
 10 13  1  0  0  0
 11 12  3  0  0  0
 13 18  1  0  0  0
 13 14  2  0  0  0
 14 15  1  0  0  0
 14 33  1  0  0  0
 15 16  2  0  0  0
 15 34  1  0  0  0
 16 17  1  0  0  0
 16 35  1  0  0  0
 17 18  2  0  0  0
 17 19  1  0  0  0
 18 36  1  0  0  0
 19 20  1  0  0  0
 19 25  1  0  0  0
 19 37  1  0  0  0
 20 24  2  0  0  0
 20 21  1  0  0  0
 21 22  2  0  0  0
 21 38  1  0  0  0
 22 23  1  0  0  0
 22 39  1  0  0  0
 23 24  1  0  0  0
 24 40  1  0  0  0
 25 41  1  0  0  0
 26 42  1  0  0  0
 26 43  1  0  0  0
M  END
> <s_m_entry_id>
65968

> <s_m_entry_name>
ligand_docking-pose.24

> <s_m_Source_Path>
/home/csk/Desktop/cluster/DUD-E-result/mp2k1

> <s_m_Source_File>
ligand_docking-pose.sdf

> <i_m_Source_File_Index>
24

> <i_lp_mmshare_version>
53161

> <r_lp_tautomer_probability>
0.499999974950001

> <s_lp_Force_Field>
OPLS_2005

> <r_lp_Energy>
24.30287

> <b_lp_Chiralities_Consistent>
1

> <s_lp_Variant>
51791-1

> <s_i_glide_gridfile>
glide-grid_3eqh

> <i_i_glide_lignum>
101

> <i_i_glide_rotatable_bonds>
6

> <r_i_docking_score>
-9.33849507866967

> <r_i_glide_ligand_efficiency>
-0.359172887641141

> <r_i_glide_ligand_efficiency_sa>
-1.06404826635981

> <r_i_glide_ligand_efficiency_ln>
-2.19311492712394

> <r_i_glide_gscore>
-9.33849507866967

> <r_i_glide_lipo>
-3.83303578371927

> <r_i_glide_hbond>
-0.848064997358452

> <r_i_glide_metal>
0

> <r_i_glide_rewards>
-1.47517121030675

> <r_i_glide_evdw>
-45.0615310668945

> <r_i_glide_ecoul>
-10.5715160369873

> <r_i_glide_erotb>
0.67318543790551

> <r_i_glide_esite>
-0.0166045662978882

> <r_i_glide_emodel>
-83.1969409945791

> <r_i_glide_energy>
-55.6330471038818

> <r_i_glide_einternal>
4.28542327880859

> <i_i_glide_confnum>
138

> <i_i_glide_posenum>
230

> <r_i_glide_eff_state_penalty>
0

> <i_f3d_flags>
0

> <s_user_duplicate_titles>
51791

> <s_m_subgroup_title>
dock_pv

> <s_m_subgroupid>
dock_pv1

> <b_m_subgroup_collapsed>
0

$$$$
389552
                    3D
 Schrodinger Suite 2021-1.
 33 34  0  0  1  0            999 V2000
   -5.4588   55.6908   32.9769 C   0  0  0  0  0  0
   -4.1863   56.2787   33.4146 N   0  0  0  0  0  0
   -3.0158   55.5623   33.3940 C   0  0  0  0  0  0
   -1.8037   56.0169   33.8025 C   0  0  0  0  0  0
   -1.7418   57.4035   34.2709 C   0  0  0  0  0  0
   -2.9052   58.0982   34.3016 C   0  0  0  0  0  0
   -4.2117   57.5480   33.9474 C   0  0  0  0  0  0
   -5.2307   58.2076   34.1630 O   0  0  0  0  0  0
   -0.5383   57.9533   34.6588 N   0  0  0  0  0  0
   -0.0280   59.1895   34.2649 C   0  0  0  0  0  0
    0.8761   59.2435   33.1988 C   0  0  0  0  0  0
    1.4736   60.4526   32.8409 C   0  0  0  0  0  0
    1.1806   61.6108   33.5642 C   0  0  0  0  0  0
    0.2749   61.5480   34.6235 C   0  0  0  0  0  0
   -0.3260   60.3496   34.9798 C   0  0  0  0  0  0
   -1.1754   60.3292   36.0340 F   0  0  0  0  0  0
    1.8340   62.8714   33.2542 C   0  0  0  0  0  0
    2.3872   63.9440   33.0718 C   0  0  0  0  0  0
   -0.6233   55.1856   33.7630 C   0  0  0  0  0  0
    0.4807   55.5689   33.3981 O   0  0  0  0  0  0
   -0.8028   53.9480   34.1630 N   0  0  0  0  0  0
   -5.3493   55.2691   31.9772 H   0  0  0  0  0  0
   -5.7522   54.8873   33.6533 H   0  0  0  0  0  0
   -6.2821   56.4062   32.9312 H   0  0  0  0  0  0
   -3.1828   54.5599   33.0207 H   0  0  0  0  0  0
   -2.8924   59.1287   34.6210 H   0  0  0  0  0  0
    0.2109   57.2756   34.6881 H   0  0  0  0  0  0
    1.1255   58.3480   32.6472 H   0  0  0  0  0  0
    2.1754   60.4749   32.0186 H   0  0  0  0  0  0
    0.0359   62.4113   35.2136 H   0  0  0  0  0  0
    2.8740   64.8852   32.9630 H   0  0  0  0  0  0
   -1.7075   53.6563   34.4980 H   0  0  0  0  0  0
   -0.0356   53.2875   34.1630 H   0  0  0  0  0  0
  1  2  1  0  0  0
  1 22  1  0  0  0
  1 23  1  0  0  0
  1 24  1  0  0  0
  2  7  1  0  0  0
  2  3  1  0  0  0
  3  4  2  0  0  0
  3 25  1  0  0  0
  4  5  1  0  0  0
  4 19  1  0  0  0
  5  6  2  0  0  0
  5  9  1  0  0  0
  6  7  1  0  0  0
  6 26  1  0  0  0
  7  8  2  0  0  0
  9 10  1  0  0  0
  9 27  1  0  0  0
 10 15  1  0  0  0
 10 11  2  0  0  0
 11 12  1  0  0  0
 11 28  1  0  0  0
 12 13  2  0  0  0
 12 29  1  0  0  0
 13 14  1  0  0  0
 13 17  1  0  0  0
 14 15  2  0  0  0
 14 30  1  0  0  0
 15 16  1  0  0  0
 17 18  3  0  0  0
 18 31  1  0  0  0
 19 20  2  0  0  0
 19 21  1  0  0  0
 21 32  1  0  0  0
 21 33  1  0  0  0
M  END
> <s_m_entry_id>
65969

> <s_m_entry_name>
ligand_docking-pose.25

> <s_m_Source_Path>
/home/csk/Desktop/cluster/DUD-E-result/mp2k1

> <s_m_Source_File>
ligand_docking-pose.sdf

> <i_m_Source_File_Index>
25

> <i_lp_mmshare_version>
53161

> <r_lp_tautomer_probability>
0.999999999982488

> <s_lp_Force_Field>
OPLS_2005

> <r_lp_Energy>
31.587463

> <b_lp_Chiralities_Consistent>
1

> <s_lp_Variant>
389552-1

> <s_i_glide_gridfile>
glide-grid_3eqh

> <i_i_glide_lignum>
337

> <i_i_glide_rotatable_bonds>
4

> <r_i_docking_score>
-9.29401102231308

> <r_i_glide_ligand_efficiency>
-0.44257195344348

> <r_i_glide_ligand_efficiency_sa>
-1.22102246090429

> <r_i_glide_ligand_efficiency_ln>
-2.29792544494931

> <r_i_glide_gscore>
-9.29401102231308

> <r_i_glide_lipo>
-3.52184042769042

> <r_i_glide_hbond>
-0.700791451020758

> <r_i_glide_metal>
0

> <r_i_glide_rewards>
-2.4468058095214

> <r_i_glide_evdw>
-36.8162384033203

> <r_i_glide_ecoul>
-9.68334865570068

> <r_i_glide_erotb>
0.668740884440614

> <r_i_glide_esite>
0

> <r_i_glide_emodel>
-69.4123862862827

> <r_i_glide_energy>
-46.499587059021

> <r_i_glide_einternal>
5.27222633361816

> <i_i_glide_confnum>
7

> <i_i_glide_posenum>
376

> <r_i_glide_eff_state_penalty>
0

> <i_f3d_flags>
0

> <s_user_duplicate_titles>
389552

> <s_m_subgroup_title>
dock_pv

> <s_m_subgroupid>
dock_pv1

> <b_m_subgroup_collapsed>
0

$$$$
157409
                    3D
 Schrodinger Suite 2021-1.
 32 33  0  0  1  0            999 V2000
   -5.5259   52.9787   32.1852 C   0  0  0  0  0  0
   -5.4899   53.4079   30.8664 C   0  0  0  0  0  0
   -5.1276   55.0979   30.7448 S   0  0  0  0  0  0
   -5.0219   55.2342   32.4765 C   0  0  0  0  0  0
   -5.2466   54.0075   33.0902 C   0  0  0  0  0  0
   -4.7041   56.7763   33.2719 S   0  0  0  0  0  0
   -2.9108   56.8937   33.2894 C   0  0  0  0  0  0
   -2.2285   57.4853   34.3003 C   0  0  0  0  0  0
   -0.7665   57.6027   34.2933 C   0  0  0  0  0  0
   -0.1276   58.7620   34.5960 C   0  0  0  0  0  0
    1.6588   58.9384   34.5636 S   0  0  0  0  0  0
    1.8628   60.5851   33.9555 C   0  0  0  0  0  0
    2.4738   61.8657   34.9628 S   0  0  0  0  0  0
    2.3558   62.9988   33.6587 C   0  0  0  0  0  0
    1.8358   62.4141   32.5188 C   0  0  0  0  0  0
    1.5791   61.0472   32.6762 C   0  0  0  0  0  0
   -0.7273   59.9479   34.9454 N   0  0  0  0  0  0
   -0.0289   56.4180   33.9900 C   0  0  0  0  0  0
    0.4741   55.4018   33.7629 N   0  0  0  0  0  0
   -2.9424   57.9754   35.4325 C   0  0  0  0  0  0
   -3.5223   58.3480   36.3594 N   0  0  0  0  0  0
   -2.3508   56.3482   32.1630 N   0  0  0  0  0  0
   -5.7395   51.9624   32.4840 H   0  0  0  0  0  0
   -5.6643   52.8257   29.9738 H   0  0  0  0  0  0
   -5.2258   53.8674   34.1610 H   0  0  0  0  0  0
    2.6568   64.0284   33.7891 H   0  0  0  0  0  0
    1.6719   62.9546   31.5988 H   0  0  0  0  0  0
    1.1952   60.4148   31.8889 H   0  0  0  0  0  0
   -1.7180   60.1062   34.8004 H   0  0  0  0  0  0
   -0.1639   60.7577   35.1602 H   0  0  0  0  0  0
   -1.3583   56.4172   31.9849 H   0  0  0  0  0  0
   -2.9419   56.0455   31.4010 H   0  0  0  0  0  0
  1  5  1  0  0  0
  1  2  2  0  0  0
  1 23  1  0  0  0
  2  3  1  0  0  0
  2 24  1  0  0  0
  3  4  1  0  0  0
  4  5  2  0  0  0
  4  6  1  0  0  0
  5 25  1  0  0  0
  6  7  1  0  0  0
  7  8  2  0  0  0
  7 22  1  0  0  0
  8  9  1  0  0  0
  8 20  1  0  0  0
  9 10  2  0  0  0
  9 18  1  0  0  0
 10 11  1  0  0  0
 10 17  1  0  0  0
 11 12  1  0  0  0
 12 16  2  0  0  0
 12 13  1  0  0  0
 13 14  1  0  0  0
 14 15  2  0  0  0
 14 26  1  0  0  0
 15 16  1  0  0  0
 15 27  1  0  0  0
 16 28  1  0  0  0
 17 29  1  0  0  0
 17 30  1  0  0  0
 18 19  3  0  0  0
 20 21  3  0  0  0
 22 31  1  0  0  0
 22 32  1  0  0  0
M  END
> <s_m_entry_id>
65970

> <s_m_entry_name>
ligand_docking-pose.26

> <s_m_Source_Path>
/home/csk/Desktop/cluster/DUD-E-result/mp2k1

> <s_m_Source_File>
ligand_docking-pose.sdf

> <i_m_Source_File_Index>
26

> <i_lp_mmshare_version>
53161

> <r_lp_tautomer_probability>
1

> <s_lp_Force_Field>
OPLS_2005

> <r_lp_Energy>
18.091419

> <b_lp_Chiralities_Consistent>
1

> <s_lp_Variant>
157409-1

> <s_i_glide_gridfile>
glide-grid_3eqh

> <i_i_glide_lignum>
124

> <i_i_glide_rotatable_bonds>
5

> <r_i_docking_score>
-9.28359113223055

> <r_i_glide_ligand_efficiency>
-0.421981415101388

> <r_i_glide_ligand_efficiency_sa>
-1.18240852070142

> <r_i_glide_ligand_efficiency_ln>
-2.2692482999314

> <r_i_glide_gscore>
-9.28359113223055

> <r_i_glide_lipo>
-3.74219587804469

> <r_i_glide_hbond>
-0.595040968987149

> <r_i_glide_metal>
0

> <r_i_glide_rewards>
-2.20135325407723

> <r_i_glide_evdw>
-39.803108215332

> <r_i_glide_ecoul>
-7.79732751846313

> <r_i_glide_erotb>
0.438353875776824

> <r_i_glide_esite>
-0.0236003683622367

> <r_i_glide_emodel>
-69.6191571405775

> <r_i_glide_energy>
-47.6004357337952

> <r_i_glide_einternal>
12.4685916900635

> <i_i_glide_confnum>
8

> <i_i_glide_posenum>
378

> <r_i_glide_eff_state_penalty>
0

> <i_f3d_flags>
0

> <s_user_duplicate_titles>
157409

> <s_m_subgroup_title>
dock_pv

> <s_m_subgroupid>
dock_pv1

> <b_m_subgroup_collapsed>
0

$$$$
157348
                    3D
 Schrodinger Suite 2021-1.
 42 43  0  0  1  0            999 V2000
   -5.5744   52.9100   32.1889 C   0  0  0  0  0  0
   -5.6627   53.0294   30.8026 C   0  0  0  0  0  0
   -5.4973   54.2659   30.1841 C   0  0  0  0  0  0
   -5.2671   55.4008   30.9574 C   0  0  0  0  0  0
   -5.1715   55.2804   32.3443 C   0  0  0  0  0  0
   -5.3204   54.0396   32.9628 C   0  0  0  0  0  0
   -4.8442   56.7154   33.3289 S   0  0  0  0  0  0
   -3.0525   56.8425   33.3170 C   0  0  0  0  0  0
   -2.3558   57.4003   34.3331 C   0  0  0  0  0  0
   -0.8978   57.5095   34.3041 C   0  0  0  0  0  0
   -0.2739   58.6680   34.6180 C   0  0  0  0  0  0
    1.4993   58.8412   34.5631 S   0  0  0  0  0  0
    1.7158   60.4820   33.9598 C   0  0  0  0  0  0
    1.1334   60.8571   32.7511 C   0  0  0  0  0  0
    1.2961   62.1592   32.2977 C   0  0  0  0  0  0
    2.0613   63.0565   33.0328 C   0  0  0  0  0  0
    2.6657   62.6746   34.2245 C   0  0  0  0  0  0
    2.4739   61.3844   34.7041 C   0  0  0  0  0  0
    2.2269   64.3480   32.5632 N   0  0  0  0  0  0
   -0.8723   59.8453   35.0015 N   0  0  0  0  0  0
   -0.1280   56.3472   33.9788 C   0  0  0  0  0  0
    0.4740   55.3820   33.7630 N   0  0  0  0  0  0
   -3.0336   57.8954   35.4858 C   0  0  0  0  0  0
   -3.5260   58.3480   36.4276 N   0  0  0  0  0  0
   -2.5012   56.3478   32.1630 N   0  0  0  0  0  0
   -5.9264   51.9074   30.0232 N   0  0  0  0  0  0
   -5.6987   51.9505   32.6694 H   0  0  0  0  0  0
   -5.5523   54.3479   29.1099 H   0  0  0  0  0  0
   -5.1601   56.3651   30.4799 H   0  0  0  0  0  0
   -5.2438   53.9505   34.0367 H   0  0  0  0  0  0
    0.5596   60.1466   32.1734 H   0  0  0  0  0  0
    0.8609   62.4605   31.3629 H   0  0  0  0  0  0
    3.2739   63.3704   34.7816 H   0  0  0  0  0  0
    2.9280   61.0826   35.6369 H   0  0  0  0  0  0
    1.9361   64.5303   31.6156 H   0  0  0  0  0  0
    3.0039   64.8785   32.9339 H   0  0  0  0  0  0
   -1.8611   60.0114   34.8556 H   0  0  0  0  0  0
   -0.3060   60.6521   35.2204 H   0  0  0  0  0  0
   -1.5096   56.4198   31.9812 H   0  0  0  0  0  0
   -3.0944   56.0393   31.4056 H   0  0  0  0  0  0
   -6.1224   52.0447   29.0440 H   0  0  0  0  0  0
   -6.1674   51.0433   30.4865 H   0  0  0  0  0  0
  1  6  1  0  0  0
  1  2  2  0  0  0
  1 27  1  0  0  0
  2  3  1  0  0  0
  2 26  1  0  0  0
  3  4  2  0  0  0
  3 28  1  0  0  0
  4  5  1  0  0  0
  4 29  1  0  0  0
  5  6  2  0  0  0
  5  7  1  0  0  0
  6 30  1  0  0  0
  7  8  1  0  0  0
  8  9  2  0  0  0
  8 25  1  0  0  0
  9 10  1  0  0  0
  9 23  1  0  0  0
 10 11  2  0  0  0
 10 21  1  0  0  0
 11 12  1  0  0  0
 11 20  1  0  0  0
 12 13  1  0  0  0
 13 18  1  0  0  0
 13 14  2  0  0  0
 14 15  1  0  0  0
 14 31  1  0  0  0
 15 16  2  0  0  0
 15 32  1  0  0  0
 16 17  1  0  0  0
 16 19  1  0  0  0
 17 18  2  0  0  0
 17 33  1  0  0  0
 18 34  1  0  0  0
 19 35  1  0  0  0
 19 36  1  0  0  0
 20 37  1  0  0  0
 20 38  1  0  0  0
 21 22  3  0  0  0
 23 24  3  0  0  0
 25 39  1  0  0  0
 25 40  1  0  0  0
 26 41  1  0  0  0
 26 42  1  0  0  0
M  END
> <s_m_entry_id>
65971

> <s_m_entry_name>
ligand_docking-pose.27

> <s_m_Source_Path>
/home/csk/Desktop/cluster/DUD-E-result/mp2k1

> <s_m_Source_File>
ligand_docking-pose.sdf

> <i_m_Source_File_Index>
27

> <i_lp_mmshare_version>
53161

> <r_lp_tautomer_probability>
1

> <s_lp_Force_Field>
OPLS_2005

> <r_lp_Energy>
35.369501

> <b_lp_Chiralities_Consistent>
1

> <s_lp_Variant>
157348-1

> <s_i_glide_gridfile>
glide-grid_3eqh

> <i_i_glide_lignum>
117

> <i_i_glide_rotatable_bonds>
5

> <r_i_docking_score>
-9.2733658260156

> <r_i_glide_ligand_efficiency>
-0.356667916385215

> <r_i_glide_ligand_efficiency_sa>
-1.05662729887072

> <r_i_glide_ligand_efficiency_ln>
-2.17781953584464

> <r_i_glide_gscore>
-9.2733658260156

> <r_i_glide_lipo>
-3.97322771188696

> <r_i_glide_hbond>
-0.538035817700902

> <r_i_glide_metal>
0

> <r_i_glide_rewards>
-2.03900757759782

> <r_i_glide_evdw>
-44.7198944091797

> <r_i_glide_ecoul>
-7.53625583648682

> <r_i_glide_erotb>
0.670046163252068

> <r_i_glide_esite>
-0.026707786149988

> <r_i_glide_emodel>
-73.3751244256747

> <r_i_glide_energy>
-52.2561502456665

> <r_i_glide_einternal>
13.1826734542847

> <i_i_glide_confnum>
57

> <i_i_glide_posenum>
356

> <r_i_glide_eff_state_penalty>
0

> <i_f3d_flags>
0

> <s_user_duplicate_titles>
157348

> <s_m_subgroup_title>
dock_pv

> <s_m_subgroupid>
dock_pv1

> <b_m_subgroup_collapsed>
0

$$$$
51957
                    3D
 Schrodinger Suite 2021-1.
 49 51  0  0  1  0            999 V2000
    2.1108   63.0197   32.8512 C   0  0  0  0  0  0
    1.5795   61.6423   33.2075 C   0  0  0  0  0  0
    2.0748   60.5106   32.5632 C   0  0  0  0  0  0
    1.5965   59.2471   32.8880 C   0  0  0  0  0  0
    0.6076   59.0947   33.8648 C   0  0  0  0  0  0
    0.1300   60.2364   34.5222 C   0  0  0  0  0  0
    0.6094   61.4998   34.1954 C   0  0  0  0  0  0
    0.0480   57.7083   34.2254 C   0  0  1  0  0  0
   -1.4647   57.6857   34.4543 C   0  0  0  0  0  0
   -1.9705   57.9966   35.7193 C   0  0  0  0  0  0
   -3.3361   57.9479   35.9654 C   0  0  0  0  0  0
   -4.2081   57.5482   34.9565 C   0  0  0  0  0  0
   -3.7283   57.2049   33.6861 C   0  0  0  0  0  0
   -2.3523   57.3073   33.4392 C   0  0  0  0  0  0
   -4.6733   56.7128   32.6523 C   0  0  0  0  0  0
   -4.4142   55.6626   31.8320 C   0  0  0  0  0  0
   -3.2824   54.8896   31.8245 N   0  0  0  0  0  0
   -5.5451   55.0708   30.5899 S   0  0  0  0  0  0
   -6.5557   53.9569   31.5505 C   0  0  0  0  0  0
   -5.9502   52.8949   32.2355 C   0  0  0  0  0  0
   -6.7238   51.9932   32.9675 C   0  0  0  0  0  0
   -8.1069   52.1445   33.0248 C   0  0  0  0  0  0
   -8.7189   53.1979   32.3477 C   0  0  0  0  0  0
   -7.9543   54.1058   31.6100 C   0  0  0  0  0  0
   -8.6179   55.1474   30.9608 N   0  0  0  0  0  0
   -5.8920   57.4594   32.5639 C   0  0  0  0  0  0
   -6.8488   58.1140   32.5631 N   0  0  0  0  0  0
    0.4740   56.6617   33.3630 O   0  0  0  0  0  0
    1.4646   63.5058   32.1189 H   0  0  0  0  0  0
    2.1606   63.6547   33.7381 H   0  0  0  0  0  0
    3.1237   62.9645   32.4495 H   0  0  0  0  0  0
    2.8253   60.5998   31.7922 H   0  0  0  0  0  0
    2.0053   58.3952   32.3636 H   0  0  0  0  0  0
   -0.6276   60.1720   35.2840 H   0  0  0  0  0  0
    0.2154   62.3565   34.7153 H   0  0  0  0  0  0
    0.5084   57.4685   35.1859 H   0  0  0  0  0  0
   -1.3028   58.2784   36.5189 H   0  0  0  0  0  0
   -3.7067   58.1918   36.9493 H   0  0  0  0  0  0
   -5.2625   57.4703   35.1769 H   0  0  0  0  0  0
   -1.9648   57.0775   32.4561 H   0  0  0  0  0  0
   -2.5610   55.0213   32.5177 H   0  0  0  0  0  0
   -3.1561   54.1671   31.1308 H   0  0  0  0  0  0
   -4.8813   52.7546   32.1951 H   0  0  0  0  0  0
   -6.2512   51.1758   33.4936 H   0  0  0  0  0  0
   -8.7028   51.4485   33.5966 H   0  0  0  0  0  0
   -9.7919   53.3078   32.4029 H   0  0  0  0  0  0
   -8.0794   55.8536   30.4639 H   0  0  0  0  0  0
   -9.6200   55.2229   31.0200 H   0  0  0  0  0  0
    0.3470   56.9557   32.4467 H   0  0  0  0  0  0
  1  2  1  0  0  0
  1 29  1  0  0  0
  1 30  1  0  0  0
  1 31  1  0  0  0
  2  7  1  0  0  0
  2  3  2  0  0  0
  3  4  1  0  0  0
  3 32  1  0  0  0
  4  5  2  0  0  0
  4 33  1  0  0  0
  5  6  1  0  0  0
  5  8  1  0  0  0
  6  7  2  0  0  0
  6 34  1  0  0  0
  7 35  1  0  0  0
  8  9  1  0  0  0
  8 28  1  0  0  0
  8 36  1  0  0  0
  9 14  1  0  0  0
  9 10  2  0  0  0
 10 11  1  0  0  0
 10 37  1  0  0  0
 11 12  2  0  0  0
 11 38  1  0  0  0
 12 13  1  0  0  0
 12 39  1  0  0  0
 13 14  2  0  0  0
 13 15  1  0  0  0
 14 40  1  0  0  0
 15 16  2  0  0  0
 15 26  1  0  0  0
 16 17  1  0  0  0
 16 18  1  0  0  0
 17 41  1  0  0  0
 17 42  1  0  0  0
 18 19  1  0  0  0
 19 24  1  0  0  0
 19 20  2  0  0  0
 20 21  1  0  0  0
 20 43  1  0  0  0
 21 22  2  0  0  0
 21 44  1  0  0  0
 22 23  1  0  0  0
 22 45  1  0  0  0
 23 24  2  0  0  0
 23 46  1  0  0  0
 24 25  1  0  0  0
 25 47  1  0  0  0
 25 48  1  0  0  0
 26 27  3  0  0  0
 28 49  1  0  0  0
M  END
> <s_m_entry_id>
65972

> <s_m_entry_name>
ligand_docking-pose.28

> <s_m_Source_Path>
/home/csk/Desktop/cluster/DUD-E-result/mp2k1

> <s_m_Source_File>
ligand_docking-pose.sdf

> <i_m_Source_File_Index>
28

> <i_lp_mmshare_version>
53161

> <r_lp_tautomer_probability>
0.499999974950001

> <s_lp_Force_Field>
OPLS_2005

> <r_lp_Energy>
29.798869

> <b_lp_Chiralities_Consistent>
1

> <s_lp_Variant>
51957-2

> <s_i_glide_gridfile>
glide-grid_3eqh

> <i_i_glide_lignum>
139

> <i_i_glide_rotatable_bonds>
6

> <r_i_docking_score>
-9.26979411473256

> <r_i_glide_ligand_efficiency>
-0.331064075526163

> <r_i_glide_ligand_efficiency_sa>
-1.00530551961033

> <r_i_glide_ligand_efficiency_ln>
-2.13974065466214

> <r_i_glide_gscore>
-9.26979411473256

> <r_i_glide_lipo>
-4.62581709502206

> <r_i_glide_hbond>
-0.427967907785289

> <r_i_glide_metal>
0

> <r_i_glide_rewards>
-1.26372344592397

> <r_i_glide_evdw>
-46.8382225036621

> <r_i_glide_ecoul>
-7.86272764205933

> <r_i_glide_erotb>
0.648474795872842

> <r_i_glide_esite>
-0.0794401903820738

> <r_i_glide_emodel>
-78.9481721959872

> <r_i_glide_energy>
-54.7009501457214

> <r_i_glide_einternal>
8.22666454315186

> <i_i_glide_confnum>
84

> <i_i_glide_posenum>
205

> <r_i_glide_eff_state_penalty>
0

> <i_f3d_flags>
0

> <s_user_duplicate_titles>
51957

> <s_m_subgroup_title>
dock_pv

> <s_m_subgroupid>
dock_pv1

> <b_m_subgroup_collapsed>
0

$$$$
51785
                    3D
 Schrodinger Suite 2021-1.
 49 51  0  0  1  0            999 V2000
   -8.5453   51.5480   32.7401 C   0  0  0  0  0  0
   -7.6396   52.6284   32.3014 N   0  3  0  0  0  0
   -6.3260   52.5602   32.6286 C   0  0  0  0  0  0
   -5.4548   53.5779   32.2298 C   0  0  0  0  0  0
   -5.9432   54.6652   31.4908 C   0  0  0  0  0  0
   -7.2982   54.6810   31.1346 C   0  0  0  0  0  0
   -8.1359   53.6417   31.5489 C   0  0  0  0  0  0
   -5.0390   55.8549   31.1555 C   0  0  1  0  0  0
   -4.4440   56.4764   32.4238 C   0  0  0  0  0  0
   -5.3140   57.0040   33.3838 C   0  0  0  0  0  0
   -4.8181   57.5480   34.5637 C   0  0  0  0  0  0
   -3.4441   57.5965   34.7863 C   0  0  0  0  0  0
   -2.5507   57.1176   33.8209 C   0  0  0  0  0  0
   -3.0615   56.5366   32.6545 C   0  0  0  0  0  0
   -1.0874   57.2736   33.9773 C   0  0  0  0  0  0
   -0.4953   58.4398   34.3161 C   0  0  0  0  0  0
   -1.1260   59.6068   34.6458 N   0  0  0  0  0  0
    1.2740   58.6387   34.3856 S   0  0  0  0  0  0
    1.5463   60.3093   33.8132 C   0  0  0  0  0  0
    1.0264   60.7286   32.5901 C   0  0  0  0  0  0
    1.2425   62.0385   32.1630 C   0  0  0  0  0  0
    1.9874   62.9344   32.9219 C   0  0  0  0  0  0
    2.5241   62.5128   34.1308 C   0  0  0  0  0  0
    2.3016   61.2106   34.5707 C   0  0  0  0  0  0
    2.8740   60.8139   35.7630 N   0  0  0  0  0  0
   -0.3030   56.0924   33.8016 C   0  0  0  0  0  0
    0.3650   55.1480   33.7630 N   0  0  0  0  0  0
   -4.0781   55.5480   30.1584 O   0  0  0  0  0  0
   -8.5288   50.7751   31.9705 H   0  0  0  0  0  0
   -8.1927   51.1534   33.6957 H   0  0  0  0  0  0
   -9.5513   51.9529   32.8667 H   0  0  0  0  0  0
   -6.0096   51.7072   33.2147 H   0  0  0  0  0  0
   -4.4133   53.5480   32.5186 H   0  0  0  0  0  0
   -7.7027   55.5076   30.5630 H   0  0  0  0  0  0
   -9.1911   53.6078   31.3136 H   0  0  0  0  0  0
   -5.6637   56.6329   30.7128 H   0  0  0  0  0  0
   -6.3830   56.9706   33.2272 H   0  0  0  0  0  0
   -5.5045   57.9166   35.3105 H   0  0  0  0  0  0
   -3.0715   58.0210   35.7072 H   0  0  0  0  0  0
   -2.3729   56.1619   31.9102 H   0  0  0  0  0  0
   -2.0964   59.7808   34.4072 H   0  0  0  0  0  0
   -0.5796   60.4170   34.9007 H   0  0  0  0  0  0
    0.4740   60.0381   31.9691 H   0  0  0  0  0  0
    0.8740   62.3480   31.2029 H   0  0  0  0  0  0
    2.1690   63.9386   32.5653 H   0  0  0  0  0  0
    3.1279   63.1923   34.7118 H   0  0  0  0  0  0
    2.7816   59.8456   36.0337 H   0  0  0  0  0  0
    3.5258   61.4245   36.2306 H   0  0  0  0  0  0
   -3.7099   56.3897   29.8541 H   0  0  0  0  0  0
  1  2  1  0  0  0
  1 29  1  0  0  0
  1 30  1  0  0  0
  1 31  1  0  0  0
  2  7  1  0  0  0
  2  3  2  0  0  0
  3  4  1  0  0  0
  3 32  1  0  0  0
  4  5  2  0  0  0
  4 33  1  0  0  0
  5  6  1  0  0  0
  5  8  1  0  0  0
  6  7  2  0  0  0
  6 34  1  0  0  0
  7 35  1  0  0  0
  8  9  1  0  0  0
  8 28  1  0  0  0
  8 36  1  0  0  0
  9 14  1  0  0  0
  9 10  2  0  0  0
 10 11  1  0  0  0
 10 37  1  0  0  0
 11 12  2  0  0  0
 11 38  1  0  0  0
 12 13  1  0  0  0
 12 39  1  0  0  0
 13 14  2  0  0  0
 13 15  1  0  0  0
 14 40  1  0  0  0
 15 16  2  0  0  0
 15 26  1  0  0  0
 16 17  1  0  0  0
 16 18  1  0  0  0
 17 41  1  0  0  0
 17 42  1  0  0  0
 18 19  1  0  0  0
 19 24  1  0  0  0
 19 20  2  0  0  0
 20 21  1  0  0  0
 20 43  1  0  0  0
 21 22  2  0  0  0
 21 44  1  0  0  0
 22 23  1  0  0  0
 22 45  1  0  0  0
 23 24  2  0  0  0
 23 46  1  0  0  0
 24 25  1  0  0  0
 25 47  1  0  0  0
 25 48  1  0  0  0
 26 27  3  0  0  0
 28 49  1  0  0  0
M  CHG  1   2   1
M  END
> <s_m_entry_id>
65973

> <s_m_entry_name>
ligand_docking-pose.29

> <s_m_Source_Path>
/home/csk/Desktop/cluster/DUD-E-result/mp2k1

> <s_m_Source_File>
ligand_docking-pose.sdf

> <i_m_Source_File_Index>
29

> <i_lp_mmshare_version>
53161

> <r_lp_tautomer_probability>
0.499999974950001

> <s_lp_Force_Field>
OPLS_2005

> <r_lp_Energy>
32.120816

> <b_lp_Chiralities_Consistent>
1

> <s_lp_Variant>
51785-2

> <s_i_glide_gridfile>
glide-grid_3eqh

> <i_i_glide_lignum>
325

> <i_i_glide_rotatable_bonds>
6

> <r_i_docking_score>
-9.2440292719403

> <r_i_glide_ligand_efficiency>
-0.330143902569297

> <r_i_glide_ligand_efficiency_sa>
-1.00251133256039

> <r_i_glide_ligand_efficiency_ln>
-2.13379337245703

> <r_i_glide_gscore>
-9.2440292719403

> <r_i_glide_lipo>
-4.18548660898414

> <r_i_glide_hbond>
-0.650051204954773

> <r_i_glide_metal>
0

> <r_i_glide_rewards>
-1.62499635630656

> <r_i_glide_evdw>
-45.9716758728027

> <r_i_glide_ecoul>
-7.39866542816162

> <r_i_glide_erotb>
0.642520906223913

> <r_i_glide_esite>
-0.0176324000543708

> <r_i_glide_emodel>
-80.1295749206558

> <r_i_glide_energy>
-53.3703413009644

> <r_i_glide_einternal>
4.42384481430054

> <i_i_glide_confnum>
54

> <i_i_glide_posenum>
308

> <r_i_glide_eff_state_penalty>
0

> <i_f3d_flags>
0

> <s_user_duplicate_titles>
51785

> <s_m_subgroup_title>
dock_pv

> <s_m_subgroupid>
dock_pv1

> <b_m_subgroup_collapsed>
0

$$$$
51843
                    3D
 Schrodinger Suite 2021-1.
 45 47  0  0  1  0            999 V2000
    2.5349   64.0031   33.1544 C   0  0  0  0  0  0
    2.9701   63.1480   34.1629 C   0  0  0  0  0  0
    2.5148   61.8355   34.2000 C   0  0  0  0  0  0
    1.7009   61.3564   33.1764 C   0  0  0  0  0  0
    1.2737   62.2150   32.1645 C   0  0  0  0  0  0
    1.6738   63.5466   32.1631 C   0  0  0  0  0  0
    1.3722   59.8743   33.1126 C   0  0  0  0  0  0
    0.2353   59.3750   33.9934 C   0  0  0  0  0  0
   -0.3454   60.1422   35.0099 C   0  0  0  0  0  0
   -1.3996   59.6230   35.7629 C   0  0  0  0  0  0
   -1.8862   58.3432   35.4983 C   0  0  0  0  0  0
   -1.3136   57.5634   34.4851 C   0  0  0  0  0  0
   -0.2497   58.0916   33.7544 C   0  0  0  0  0  0
   -1.7860   56.1989   34.1698 C   0  0  0  0  0  0
   -3.0793   55.8255   34.0890 C   0  0  0  0  0  0
   -4.1711   56.6505   34.1950 N   0  0  0  0  0  0
   -3.5301   54.1180   33.8025 S   0  0  0  0  0  0
   -4.9012   54.2055   32.6804 C   0  0  0  0  0  0
   -6.0753   53.5354   33.0355 C   0  0  0  0  0  0
   -7.2021   53.6068   32.2170 C   0  0  0  0  0  0
   -7.1568   54.3477   31.0375 C   0  0  0  0  0  0
   -5.9780   54.9940   30.6694 C   0  0  0  0  0  0
   -4.8413   54.9168   31.4689 C   0  0  0  0  0  0
   -3.6771   55.5478   31.0255 N   0  0  0  0  0  0
   -0.7534   55.2361   33.9661 C   0  0  0  0  0  0
    0.0740   54.4580   33.7630 N   0  0  0  0  0  0
    2.8770   65.0281   33.1364 H   0  0  0  0  0  0
    3.6538   63.5133   34.9160 H   0  0  0  0  0  0
    2.8573   61.1735   34.9823 H   0  0  0  0  0  0
    0.6634   61.8375   31.3611 H   0  0  0  0  0  0
    1.3504   64.2079   31.3749 H   0  0  0  0  0  0
    2.2671   59.3071   33.3708 H   0  0  0  0  0  0
    1.1531   59.6056   32.0769 H   0  0  0  0  0  0
   -0.0015   61.1447   35.2176 H   0  0  0  0  0  0
   -1.8472   60.2226   36.5407 H   0  0  0  0  0  0
   -2.6971   57.9538   36.0957 H   0  0  0  0  0  0
    0.1993   57.5041   32.9672 H   0  0  0  0  0  0
   -4.0576   57.6526   34.2303 H   0  0  0  0  0  0
   -5.1061   56.2781   34.1077 H   0  0  0  0  0  0
   -6.1234   52.9785   33.9609 H   0  0  0  0  0  0
   -8.1119   53.1007   32.5042 H   0  0  0  0  0  0
   -8.0309   54.4258   30.4075 H   0  0  0  0  0  0
   -5.9505   55.5724   29.7630 H   0  0  0  0  0  0
   -2.9075   55.5984   31.6766 H   0  0  0  0  0  0
   -3.7597   56.2484   30.2979 H   0  0  0  0  0  0
  1  6  1  0  0  0
  1  2  2  0  0  0
  1 27  1  0  0  0
  2  3  1  0  0  0
  2 28  1  0  0  0
  3  4  2  0  0  0
  3 29  1  0  0  0
  4  5  1  0  0  0
  4  7  1  0  0  0
  5  6  2  0  0  0
  5 30  1  0  0  0
  6 31  1  0  0  0
  7  8  1  0  0  0
  7 32  1  0  0  0
  7 33  1  0  0  0
  8 13  1  0  0  0
  8  9  2  0  0  0
  9 10  1  0  0  0
  9 34  1  0  0  0
 10 11  2  0  0  0
 10 35  1  0  0  0
 11 12  1  0  0  0
 11 36  1  0  0  0
 12 13  2  0  0  0
 12 14  1  0  0  0
 13 37  1  0  0  0
 14 15  2  0  0  0
 14 25  1  0  0  0
 15 16  1  0  0  0
 15 17  1  0  0  0
 16 38  1  0  0  0
 16 39  1  0  0  0
 17 18  1  0  0  0
 18 23  1  0  0  0
 18 19  2  0  0  0
 19 20  1  0  0  0
 19 40  1  0  0  0
 20 21  2  0  0  0
 20 41  1  0  0  0
 21 22  1  0  0  0
 21 42  1  0  0  0
 22 23  2  0  0  0
 22 43  1  0  0  0
 23 24  1  0  0  0
 24 44  1  0  0  0
 24 45  1  0  0  0
 25 26  3  0  0  0
M  END
> <s_m_entry_id>
65974

> <s_m_entry_name>
ligand_docking-pose.30

> <s_m_Source_Path>
/home/csk/Desktop/cluster/DUD-E-result/mp2k1

> <s_m_Source_File>
ligand_docking-pose.sdf

> <i_m_Source_File_Index>
30

> <i_lp_mmshare_version>
53161

> <r_lp_tautomer_probability>
0.499999974950001

> <s_lp_Force_Field>
OPLS_2005

> <r_lp_Energy>
27.306812

> <b_lp_Chiralities_Consistent>
1

> <s_lp_Variant>
51843-1

> <s_i_glide_gridfile>
glide-grid_3eqh

> <i_i_glide_lignum>
17

> <i_i_glide_rotatable_bonds>
5

> <r_i_docking_score>
-9.22006386493113

> <r_i_glide_ligand_efficiency>
-0.354617840958889

> <r_i_glide_ligand_efficiency_sa>
-1.05055395848688

> <r_i_glide_ligand_efficiency_ln>
-2.16530174518195

> <r_i_glide_gscore>
-9.22006386493113

> <r_i_glide_lipo>
-4.711075729235

> <r_i_glide_hbond>
-0.408245440245189

> <r_i_glide_metal>
0

> <r_i_glide_rewards>
-2.14084773060585

> <r_i_glide_evdw>
-45.7260932922363

> <r_i_glide_ecoul>
-2.72554230690002

> <r_i_glide_erotb>
0.749080965569973

> <r_i_glide_esite>
-0.0138399197682355

> <r_i_glide_emodel>
-72.5278195298672

> <r_i_glide_energy>
-48.4516355991364

> <r_i_glide_einternal>
4.36596059799194

> <i_i_glide_confnum>
44

> <i_i_glide_posenum>
128

> <r_i_glide_eff_state_penalty>
0

> <i_f3d_flags>
0

> <s_user_duplicate_titles>
51843

> <s_m_subgroup_title>
dock_pv

> <s_m_subgroupid>
dock_pv1

> <b_m_subgroup_collapsed>
0

$$$$
51919
                    3D
 Schrodinger Suite 2021-1.
 49 51  0  0  1  0            999 V2000
    2.5893   63.0324   33.1314 C   0  0  0  0  0  0
    1.9783   61.6767   33.4196 C   0  0  0  0  0  0
    1.3139   60.9751   32.4123 C   0  0  0  0  0  0
    0.7639   59.7247   32.6726 C   0  0  0  0  0  0
    0.8265   59.1828   33.9599 C   0  0  0  0  0  0
    1.5108   59.8814   34.9624 C   0  0  0  0  0  0
    2.0734   61.1283   34.6946 C   0  0  0  0  0  0
    0.1690   57.8354   34.2768 C   0  0  1  0  0  0
   -1.3279   57.9117   34.5378 C   0  0  0  0  0  0
   -1.7813   58.2544   35.8102 C   0  0  0  0  0  0
   -3.1279   58.1294   36.1382 C   0  0  0  0  0  0
   -4.0336   57.6894   35.1770 C   0  0  0  0  0  0
   -3.6125   57.4022   33.8823 C   0  0  0  0  0  0
   -2.2566   57.5221   33.5667 C   0  0  0  0  0  0
   -4.6014   56.9731   32.8764 C   0  0  0  0  0  0
   -4.3818   55.9780   31.9875 C   0  0  0  0  0  0
   -3.3069   55.1305   31.9381 N   0  0  0  0  0  0
   -5.5258   55.6769   30.6703 S   0  0  0  0  0  0
   -5.5711   53.9492   30.3943 C   0  0  0  0  0  0
   -6.4510   53.1502   31.1198 C   0  0  0  0  0  0
   -6.5894   51.8118   30.7780 C   0  0  0  0  0  0
   -5.8461   51.3012   29.7148 C   0  0  0  0  0  0
   -4.9551   52.0993   29.0047 C   0  0  0  0  0  0
   -4.8151   53.4343   29.3503 C   0  0  0  0  0  0
   -5.9887   49.9703   29.3626 N   0  0  0  0  0  0
   -5.8087   57.7515   32.8728 C   0  0  0  0  0  0
   -6.7347   58.4442   32.9145 N   0  0  0  0  0  0
    0.4807   56.8033   33.3631 O   0  0  0  0  0  0
    2.7240   63.6167   34.0460 H   0  0  0  0  0  0
    3.5548   62.9269   32.6342 H   0  0  0  0  0  0
    1.9434   63.6145   32.4749 H   0  0  0  0  0  0
    1.2392   61.3862   31.4180 H   0  0  0  0  0  0
    0.2621   59.1896   31.8798 H   0  0  0  0  0  0
    1.5990   59.4699   35.9572 H   0  0  0  0  0  0
    2.5898   61.6632   35.4795 H   0  0  0  0  0  0
    0.6094   57.4820   35.2139 H   0  0  0  0  0  0
   -1.0723   58.5515   36.5631 H   0  0  0  0  0  0
   -3.4755   58.3516   37.1303 H   0  0  0  0  0  0
   -5.0747   57.5759   35.4345 H   0  0  0  0  0  0
   -1.9115   57.2919   32.5662 H   0  0  0  0  0  0
   -2.5862   55.1667   32.6432 H   0  0  0  0  0  0
   -3.2470   54.4153   31.2287 H   0  0  0  0  0  0
   -7.0561   53.5771   31.9079 H   0  0  0  0  0  0
   -7.2678   51.1840   31.3391 H   0  0  0  0  0  0
   -4.3879   51.6958   28.1738 H   0  0  0  0  0  0
   -4.1608   54.0843   28.7961 H   0  0  0  0  0  0
   -5.2127   49.5681   28.8628 H   0  0  0  0  0  0
   -6.5085   49.4160   30.0270 H   0  0  0  0  0  0
    0.4189   57.1483   32.4547 H   0  0  0  0  0  0
  1  2  1  0  0  0
  1 29  1  0  0  0
  1 30  1  0  0  0
  1 31  1  0  0  0
  2  7  1  0  0  0
  2  3  2  0  0  0
  3  4  1  0  0  0
  3 32  1  0  0  0
  4  5  2  0  0  0
  4 33  1  0  0  0
  5  6  1  0  0  0
  5  8  1  0  0  0
  6  7  2  0  0  0
  6 34  1  0  0  0
  7 35  1  0  0  0
  8  9  1  0  0  0
  8 28  1  0  0  0
  8 36  1  0  0  0
  9 14  1  0  0  0
  9 10  2  0  0  0
 10 11  1  0  0  0
 10 37  1  0  0  0
 11 12  2  0  0  0
 11 38  1  0  0  0
 12 13  1  0  0  0
 12 39  1  0  0  0
 13 14  2  0  0  0
 13 15  1  0  0  0
 14 40  1  0  0  0
 15 16  2  0  0  0
 15 26  1  0  0  0
 16 17  1  0  0  0
 16 18  1  0  0  0
 17 41  1  0  0  0
 17 42  1  0  0  0
 18 19  1  0  0  0
 19 24  1  0  0  0
 19 20  2  0  0  0
 20 21  1  0  0  0
 20 43  1  0  0  0
 21 22  2  0  0  0
 21 44  1  0  0  0
 22 23  1  0  0  0
 22 25  1  0  0  0
 23 24  2  0  0  0
 23 45  1  0  0  0
 24 46  1  0  0  0
 25 47  1  0  0  0
 25 48  1  0  0  0
 26 27  3  0  0  0
 28 49  1  0  0  0
M  END
> <s_m_entry_id>
65975

> <s_m_entry_name>
ligand_docking-pose.31

> <s_m_Source_Path>
/home/csk/Desktop/cluster/DUD-E-result/mp2k1

> <s_m_Source_File>
ligand_docking-pose.sdf

> <i_m_Source_File_Index>
31

> <i_lp_mmshare_version>
53161

> <r_lp_tautomer_probability>
0.499999974950001

> <s_lp_Force_Field>
OPLS_2005

> <r_lp_Energy>
27.380918

> <b_lp_Chiralities_Consistent>
1

> <s_lp_Variant>
51919-2

> <s_i_glide_gridfile>
glide-grid_3eqh

> <i_i_glide_lignum>
137

> <i_i_glide_rotatable_bonds>
6

> <r_i_docking_score>
-9.19332933503589

> <r_i_glide_ligand_efficiency>
-0.328333190536996

> <r_i_glide_ligand_efficiency_sa>
-0.997012944377976

> <r_i_glide_ligand_efficiency_ln>
-2.12209033840466

> <r_i_glide_gscore>
-9.19332933503589

> <r_i_glide_lipo>
-4.36175543144987

> <r_i_glide_hbond>
-0.32

> <r_i_glide_metal>
0

> <r_i_glide_rewards>
-1.19509672608836

> <r_i_glide_evdw>
-41.466682434082

> <r_i_glide_ecoul>
-12.2564535140991

> <r_i_glide_erotb>
0.648474795872842

> <r_i_glide_esite>
-0.0531498245515268

> <r_i_glide_emodel>
-77.3887848533359

> <r_i_glide_energy>
-53.7231359481812

> <r_i_glide_einternal>
7.11151266098022

> <i_i_glide_confnum>
26

> <i_i_glide_posenum>
126

> <r_i_glide_eff_state_penalty>
0

> <i_f3d_flags>
0

> <s_user_duplicate_titles>
51919

> <s_m_subgroup_title>
dock_pv

> <s_m_subgroupid>
dock_pv1

> <b_m_subgroup_collapsed>
0

$$$$
51755
                    3D
 Schrodinger Suite 2021-1.
 48 50  0  0  1  0            999 V2000
    0.9929   61.9468   32.4676 C   0  0  0  0  0  0
    1.5064   60.6759   32.2314 C   0  0  0  0  0  0
    1.2956   59.6417   33.1228 C   0  0  0  0  0  0
    0.5673   59.8789   34.2783 C   0  0  0  0  0  0
    0.0243   61.1487   34.5339 C   0  0  0  0  0  0
    0.2288   62.1718   33.6072 C   0  0  0  0  0  0
   -0.7260   61.4239   35.6787 N   0  0  0  0  0  0
    0.3592   58.5250   35.3630 S   0  0  0  0  0  0
   -1.1479   57.8405   34.7510 C   0  0  0  0  0  0
   -1.1857   56.6282   34.1675 C   0  0  0  0  0  0
   -0.0190   55.8524   33.9423 C   0  0  0  0  0  0
    0.8739   55.1499   33.7630 N   0  0  0  0  0  0
   -2.4066   55.9801   33.7033 C   0  0  0  0  0  0
   -2.6823   54.6921   34.1629 C   0  0  0  0  0  0
   -3.8708   54.0750   33.8127 C   0  0  0  0  0  0
   -4.7819   54.7127   32.9914 C   0  0  0  0  0  0
   -4.5281   56.0166   32.5573 C   0  0  0  0  0  0
   -3.3221   56.6362   32.8804 C   0  0  0  0  0  0
   -5.6156   56.7921   31.8431 C   0  0  2  0  0  0
   -6.5478   57.5349   32.8201 C   0  0  0  0  0  0
   -7.2859   58.6364   32.3780 C   0  0  0  0  0  0
   -8.1702   59.2892   33.2315 C   0  0  0  0  0  0
   -8.2914   58.8706   34.5599 C   0  0  0  0  0  0
   -7.5204   57.8067   35.0256 C   0  0  0  0  0  0
   -6.6650   57.1429   34.1611 C   0  0  0  0  0  0
   -9.2564   59.5171   35.4586 N   0  3  0  0  0  0
  -10.2873   59.9468   34.9626 O   0  5  0  0  0  0
   -9.0032   59.5480   36.6582 O   0  0  0  0  0  0
   -6.3261   55.9480   30.9631 O   0  0  0  0  0  0
   -2.2074   58.6800   34.9777 N   0  0  0  0  0  0
    1.1739   62.7454   31.7629 H   0  0  0  0  0  0
    2.0798   60.4580   31.3629 H   0  0  0  0  0  0
    1.7027   58.6622   32.9124 H   0  0  0  0  0  0
   -0.1986   63.1480   33.7630 H   0  0  0  0  0  0
   -0.7088   60.7566   36.4365 H   0  0  0  0  0  0
   -1.0375   62.3730   35.8312 H   0  0  0  0  0  0
   -2.0018   54.1825   34.8308 H   0  0  0  0  0  0
   -4.1328   53.1480   34.2653 H   0  0  0  0  0  0
   -5.7257   54.2321   32.7768 H   0  0  0  0  0  0
   -3.1253   57.6440   32.5434 H   0  0  0  0  0  0
   -5.1299   57.5410   31.2132 H   0  0  0  0  0  0
   -7.2055   58.9607   31.3562 H   0  0  0  0  0  0
   -8.7778   60.1066   32.8645 H   0  0  0  0  0  0
   -7.6048   57.4647   36.0477 H   0  0  0  0  0  0
   -6.1097   56.3087   34.5580 H   0  0  0  0  0  0
   -6.8361   56.5223   30.3586 H   0  0  0  0  0  0
   -3.1262   58.4276   34.6474 H   0  0  0  0  0  0
   -2.0383   59.6656   35.1444 H   0  0  0  0  0  0
  1  6  1  0  0  0
  1  2  2  0  0  0
  1 31  1  0  0  0
  2  3  1  0  0  0
  2 32  1  0  0  0
  3  4  2  0  0  0
  3 33  1  0  0  0
  4  5  1  0  0  0
  4  8  1  0  0  0
  5  6  2  0  0  0
  5  7  1  0  0  0
  6 34  1  0  0  0
  7 35  1  0  0  0
  7 36  1  0  0  0
  8  9  1  0  0  0
  9 10  2  0  0  0
  9 30  1  0  0  0
 10 11  1  0  0  0
 10 13  1  0  0  0
 11 12  3  0  0  0
 13 18  1  0  0  0
 13 14  2  0  0  0
 14 15  1  0  0  0
 14 37  1  0  0  0
 15 16  2  0  0  0
 15 38  1  0  0  0
 16 17  1  0  0  0
 16 39  1  0  0  0
 17 18  2  0  0  0
 17 19  1  0  0  0
 18 40  1  0  0  0
 19 20  1  0  0  0
 19 29  1  0  0  0
 19 41  1  0  0  0
 20 25  1  0  0  0
 20 21  2  0  0  0
 21 22  1  0  0  0
 21 42  1  0  0  0
 22 23  2  0  0  0
 22 43  1  0  0  0
 23 24  1  0  0  0
 23 26  1  0  0  0
 24 25  2  0  0  0
 24 44  1  0  0  0
 25 45  1  0  0  0
 26 27  1  0  0  0
 26 28  2  0  0  0
 29 46  1  0  0  0
 30 47  1  0  0  0
 30 48  1  0  0  0
M  CHG  2  26   1  27  -1
M  END
> <s_m_entry_id>
65976

> <s_m_entry_name>
ligand_docking-pose.32

> <s_m_Source_Path>
/home/csk/Desktop/cluster/DUD-E-result/mp2k1

> <s_m_Source_File>
ligand_docking-pose.sdf

> <i_m_Source_File_Index>
32

> <i_lp_mmshare_version>
53161

> <r_lp_tautomer_probability>
0.499999974950001

> <s_lp_Force_Field>
OPLS_2005

> <r_lp_Energy>
31.344976

> <b_lp_Chiralities_Consistent>
1

> <s_lp_Variant>
51755-1

> <s_i_glide_gridfile>
glide-grid_3eqh

> <i_i_glide_lignum>
83

> <i_i_glide_rotatable_bonds>
7

> <r_i_docking_score>
-9.11601706434004

> <r_i_glide_ligand_efficiency>
-0.303867235478001

> <r_i_glide_ligand_efficiency_sa>
-0.944186150501127

> <r_i_glide_ligand_efficiency_ln>
-2.07125840397944

> <r_i_glide_gscore>
-9.11601706434004

> <r_i_glide_lipo>
-3.75406850754638

> <r_i_glide_hbond>
-0.597481614108848

> <r_i_glide_metal>
0

> <r_i_glide_rewards>
-0.971435835246632

> <r_i_glide_evdw>
-43.7732925415039

> <r_i_glide_ecoul>
-13.7468070983887

> <r_i_glide_erotb>
0.564611088340008

> <r_i_glide_esite>
-0.106956503944689

> <r_i_glide_emodel>
-84.6126202594039

> <r_i_glide_energy>
-57.5200996398926

> <r_i_glide_einternal>
4.7278881072998

> <i_i_glide_confnum>
15

> <i_i_glide_posenum>
286

> <r_i_glide_eff_state_penalty>
0

> <i_f3d_flags>
0

> <s_user_duplicate_titles>
51755

> <s_m_subgroup_title>
dock_pv

> <s_m_subgroupid>
dock_pv1

> <b_m_subgroup_collapsed>
0

$$$$
336102
                    3D
 Schrodinger Suite 2021-1.
 31 32  0  0  1  0            999 V2000
   -5.2955   56.0166   32.4872 C   0  0  0  0  0  0
   -4.1121   56.4481   33.2428 N   0  0  0  0  0  0
   -2.9171   55.7841   33.1424 C   0  0  0  0  0  0
   -1.7645   56.1334   33.7629 C   0  0  0  0  0  0
   -1.8034   57.3689   34.5630 C   0  0  0  0  0  0
   -3.0193   57.9480   34.7697 C   0  0  0  0  0  0
   -4.2650   57.4615   34.1633 C   0  0  0  0  0  0
   -5.3548   57.9480   34.4776 O   0  0  0  0  0  0
   -3.1260   59.0445   35.5575 F   0  0  0  0  0  0
   -0.6772   57.9481   35.1160 N   0  0  0  0  0  0
    0.0102   59.0188   34.5229 C   0  0  0  0  0  0
    0.7990   58.8262   33.3854 C   0  0  0  0  0  0
    1.4713   59.8929   32.7890 C   0  0  0  0  0  0
    1.3687   61.1687   33.3387 C   0  0  0  0  0  0
    0.5881   61.3691   34.4741 C   0  0  0  0  0  0
   -0.0951   60.3064   35.0612 C   0  0  0  0  0  0
   -0.8456   60.5381   36.1630 F   0  0  0  0  0  0
    2.2959   62.6342   32.5563 Br  0  0  0  0  0  0
   -0.6319   55.2333   33.7630 C   0  0  0  0  0  0
    0.5061   55.5480   33.4476 O   0  0  0  0  0  0
   -0.9042   53.9973   34.1630 N   0  0  0  0  0  0
   -5.0428   55.9091   31.4314 H   0  0  0  0  0  0
   -6.1307   56.7177   32.5401 H   0  0  0  0  0  0
   -5.6451   55.0502   32.8519 H   0  0  0  0  0  0
   -3.0372   54.8523   32.6033 H   0  0  0  0  0  0
   -0.7894   58.1606   36.0966 H   0  0  0  0  0  0
    0.9040   57.8458   32.9630 H   0  0  0  0  0  0
    2.0740   59.7229   31.9088 H   0  0  0  0  0  0
    0.5132   62.3480   34.9104 H   0  0  0  0  0  0
   -1.8374   53.7571   34.4585 H   0  0  0  0  0  0
   -0.1742   53.2969   34.1850 H   0  0  0  0  0  0
  1  2  1  0  0  0
  1 22  1  0  0  0
  1 23  1  0  0  0
  1 24  1  0  0  0
  2  7  1  0  0  0
  2  3  1  0  0  0
  3  4  2  0  0  0
  3 25  1  0  0  0
  4  5  1  0  0  0
  4 19  1  0  0  0
  5  6  2  0  0  0
  5 10  1  0  0  0
  6  7  1  0  0  0
  6  9  1  0  0  0
  7  8  2  0  0  0
 10 11  1  0  0  0
 10 26  1  0  0  0
 11 16  1  0  0  0
 11 12  2  0  0  0
 12 13  1  0  0  0
 12 27  1  0  0  0
 13 14  2  0  0  0
 13 28  1  0  0  0
 14 15  1  0  0  0
 14 18  1  0  0  0
 15 16  2  0  0  0
 15 29  1  0  0  0
 16 17  1  0  0  0
 19 20  2  0  0  0
 19 21  1  0  0  0
 21 30  1  0  0  0
 21 31  1  0  0  0
M  END
> <s_m_entry_id>
65977

> <s_m_entry_name>
ligand_docking-pose.33

> <s_m_Source_Path>
/home/csk/Desktop/cluster/DUD-E-result/mp2k1

> <s_m_Source_File>
ligand_docking-pose.sdf

> <i_m_Source_File_Index>
33

> <i_lp_mmshare_version>
53161

> <r_lp_tautomer_probability>
0.999999999982488

> <s_lp_Force_Field>
OPLS_2005

> <r_lp_Energy>
32.69934

> <b_lp_Chiralities_Consistent>
1

> <s_lp_Variant>
336102-1

> <s_i_glide_gridfile>
glide-grid_3eqh

> <i_i_glide_lignum>
328

> <i_i_glide_rotatable_bonds>
3

> <r_i_docking_score>
-9.1044528723494

> <r_i_glide_ligand_efficiency>
-0.433545374873781

> <r_i_glide_ligand_efficiency_sa>
-1.19611881508362

> <r_i_glide_ligand_efficiency_ln>
-2.2510575754091

> <r_i_glide_gscore>
-9.1044528723494

> <r_i_glide_lipo>
-3.17382092505891

> <r_i_glide_hbond>
-0.706325403528269

> <r_i_glide_metal>
0

> <r_i_glide_rewards>
-2.26191457206251

> <r_i_glide_evdw>
-36.994815826416

> <r_i_glide_ecoul>
-8.89386463165283

> <r_i_glide_erotb>
0.298640645322199

> <r_i_glide_esite>
-0.0772121309531829

> <r_i_glide_emodel>
-66.5167181781069

> <r_i_glide_energy>
-45.8886804580688

> <r_i_glide_einternal>
6.42585277557373

> <i_i_glide_confnum>
5

> <i_i_glide_posenum>
383

> <r_i_glide_eff_state_penalty>
0

> <i_f3d_flags>
0

> <s_user_duplicate_titles>
336102

> <s_m_subgroup_title>
dock_pv

> <s_m_subgroupid>
dock_pv1

> <b_m_subgroup_collapsed>
0

$$$$
396343
                    3D
 Schrodinger Suite 2021-1.
 37 38  0  0  1  0            999 V2000
   -5.4802   53.6563   33.3664 C   0  0  0  0  0  0
   -6.0685   55.0289   32.9976 C   0  0  0  0  0  0
   -5.0824   55.9686   32.2702 C   0  0  0  0  0  0
   -3.9198   56.3788   33.0777 N   0  0  0  0  0  0
   -2.7290   55.6893   33.0513 C   0  0  0  0  0  0
   -1.6020   56.0411   33.7185 C   0  0  0  0  0  0
   -1.6379   57.3071   34.4512 C   0  0  0  0  0  0
   -2.8303   57.9485   34.5148 C   0  0  0  0  0  0
   -4.0682   57.4692   33.9086 C   0  0  0  0  0  0
   -5.1370   58.0286   34.1626 O   0  0  0  0  0  0
   -0.4905   57.8740   34.9647 N   0  0  0  0  0  0
    0.0551   59.0405   34.4273 C   0  0  0  0  0  0
    0.9572   58.9471   33.3635 C   0  0  0  0  0  0
    1.4138   60.0974   32.7234 C   0  0  0  0  0  0
    0.9815   61.3492   33.1565 C   0  0  0  0  0  0
    0.1224   61.4372   34.2482 C   0  0  0  0  0  0
   -0.3279   60.2964   34.9003 C   0  0  0  0  0  0
   -1.1655   60.4218   35.9572 F   0  0  0  0  0  0
    1.5866   63.0922   32.1695 I   0  0  0  0  0  0
   -0.4497   55.1783   33.7646 C   0  0  0  0  0  0
    0.7015   55.5384   33.5559 O   0  0  0  0  0  0
   -0.7249   53.9499   34.1580 N   0  0  0  0  0  0
   -6.2402   53.0183   33.8183 H   0  0  0  0  0  0
   -4.6683   53.7473   34.0883 H   0  0  0  0  0  0
   -5.0950   53.1384   32.4871 H   0  0  0  0  0  0
   -6.9265   54.8652   32.3442 H   0  0  0  0  0  0
   -6.4693   55.5196   33.8863 H   0  0  0  0  0  0
   -4.7116   55.4641   31.3766 H   0  0  0  0  0  0
   -5.6199   56.8465   31.9039 H   0  0  0  0  0  0
   -2.8330   54.7515   32.5205 H   0  0  0  0  0  0
   -2.8810   58.9009   35.0131 H   0  0  0  0  0  0
    0.2487   57.2017   35.1119 H   0  0  0  0  0  0
    1.2706   57.9846   32.9902 H   0  0  0  0  0  0
    2.0763   60.0085   31.8774 H   0  0  0  0  0  0
   -0.2362   62.3859   34.5789 H   0  0  0  0  0  0
   -1.6758   53.6977   34.3757 H   0  0  0  0  0  0
    0.0091   53.2566   34.2366 H   0  0  0  0  0  0
  1  2  1  0  0  0
  1 23  1  0  0  0
  1 24  1  0  0  0
  1 25  1  0  0  0
  2  3  1  0  0  0
  2 26  1  0  0  0
  2 27  1  0  0  0
  3  4  1  0  0  0
  3 28  1  0  0  0
  3 29  1  0  0  0
  4  9  1  0  0  0
  4  5  1  0  0  0
  5  6  2  0  0  0
  5 30  1  0  0  0
  6  7  1  0  0  0
  6 20  1  0  0  0
  7  8  2  0  0  0
  7 11  1  0  0  0
  8  9  1  0  0  0
  8 31  1  0  0  0
  9 10  2  0  0  0
 11 12  1  0  0  0
 11 32  1  0  0  0
 12 17  1  0  0  0
 12 13  2  0  0  0
 13 14  1  0  0  0
 13 33  1  0  0  0
 14 15  2  0  0  0
 14 34  1  0  0  0
 15 16  1  0  0  0
 15 19  1  0  0  0
 16 17  2  0  0  0
 16 35  1  0  0  0
 17 18  1  0  0  0
 20 21  2  0  0  0
 20 22  1  0  0  0
 22 36  1  0  0  0
 22 37  1  0  0  0
M  END
> <s_m_entry_id>
65978

> <s_m_entry_name>
ligand_docking-pose.34

> <s_m_Source_Path>
/home/csk/Desktop/cluster/DUD-E-result/mp2k1

> <s_m_Source_File>
ligand_docking-pose.sdf

> <i_m_Source_File_Index>
34

> <i_lp_mmshare_version>
53161

> <r_lp_tautomer_probability>
0.999999999982488

> <s_lp_Force_Field>
OPLS_2005

> <r_lp_Energy>
32.449132

> <b_lp_Chiralities_Consistent>
1

> <s_lp_Variant>
396343-1

> <s_i_glide_gridfile>
glide-grid_3eqh

> <i_i_glide_lignum>
209

> <i_i_glide_rotatable_bonds>
5

> <r_i_docking_score>
-9.09343426603281

> <r_i_glide_ligand_efficiency>
-0.41333792118331

> <r_i_glide_ligand_efficiency_sa>
-1.15818911081363

> <r_i_glide_ligand_efficiency_ln>
-2.22276702569245

> <r_i_glide_gscore>
-9.09343426603281

> <r_i_glide_lipo>
-3.5031232121817

> <r_i_glide_hbond>
-0.789370973959018

> <r_i_glide_metal>
0

> <r_i_glide_rewards>
-1.75108287254344

> <r_i_glide_evdw>
-40.886116027832

> <r_i_glide_ecoul>
-8.99433422088623

> <r_i_glide_erotb>
0.343598727175881

> <r_i_glide_esite>
0

> <r_i_glide_emodel>
-73.0837915047297

> <r_i_glide_energy>
-49.8804502487183

> <r_i_glide_einternal>
9.35262298583984

> <i_i_glide_confnum>
24

> <i_i_glide_posenum>
288

> <r_i_glide_eff_state_penalty>
0

> <i_f3d_flags>
0

> <s_user_duplicate_titles>
396343

> <s_m_subgroup_title>
dock_pv

> <s_m_subgroupid>
dock_pv1

> <b_m_subgroup_collapsed>
0

$$$$
51882
                    3D
 Schrodinger Suite 2021-1.
 46 48  0  0  1  0            999 V2000
   -8.1891   52.4269   33.2287 C   0  0  0  0  0  0
   -6.8575   52.1091   32.9658 C   0  0  0  0  0  0
   -6.0910   52.9414   32.1483 C   0  0  0  0  0  0
   -6.6502   54.0970   31.5868 C   0  0  0  0  0  0
   -7.9911   54.4162   31.8560 C   0  0  0  0  0  0
   -8.7532   53.5771   32.6735 C   0  0  0  0  0  0
   -8.5851   55.5480   31.3567 O   0  0  0  0  0  0
   -5.6408   55.1479   30.5681 S   0  0  0  0  0  0
   -4.4814   55.7085   31.7999 C   0  0  0  0  0  0
   -4.7071   56.7565   32.6337 C   0  0  0  0  0  0
   -5.8999   57.5461   32.5556 C   0  0  0  0  0  0
   -6.8338   58.2330   32.5632 N   0  0  0  0  0  0
   -3.7510   57.2024   33.6792 C   0  0  0  0  0  0
   -4.2281   57.5470   34.9515 C   0  0  0  0  0  0
   -3.3521   57.9417   35.9594 C   0  0  0  0  0  0
   -1.9850   57.9499   35.7207 C   0  0  0  0  0  0
   -1.4802   57.6303   34.4571 C   0  0  0  0  0  0
   -2.3725   57.2715   33.4386 C   0  0  0  0  0  0
    0.0314   57.6614   34.2247 C   0  0  2  0  0  0
    0.5704   59.0546   33.8581 C   0  0  0  0  0  0
    0.0149   60.2042   34.4395 C   0  0  0  0  0  0
    0.4760   61.4697   34.1013 C   0  0  0  0  0  0
    1.5073   61.5990   33.1785 C   0  0  0  0  0  0
    2.0736   60.4683   32.5924 C   0  0  0  0  0  0
    1.6135   59.2039   32.9362 C   0  0  0  0  0  0
    1.9948   62.9202   32.8348 C   0  0  0  0  0  0
    2.3784   63.9725   32.5630 N   0  0  0  0  0  0
    0.4706   56.6167   33.3631 O   0  0  0  0  0  0
   -3.3749   54.8991   31.7837 N   0  0  0  0  0  0
   -8.7831   51.7878   33.8662 H   0  0  0  0  0  0
   -6.4184   51.2211   33.3991 H   0  0  0  0  0  0
   -5.0608   52.6854   31.9572 H   0  0  0  0  0  0
   -9.7826   53.8253   32.8874 H   0  0  0  0  0  0
   -8.0126   56.0921   30.7982 H   0  0  0  0  0  0
   -5.2861   57.4957   35.1650 H   0  0  0  0  0  0
   -3.7217   58.1989   36.9410 H   0  0  0  0  0  0
   -1.3141   58.2258   36.5212 H   0  0  0  0  0  0
   -1.9869   57.0459   32.4548 H   0  0  0  0  0  0
    0.4970   57.4315   35.1848 H   0  0  0  0  0  0
   -0.7913   60.1461   35.1528 H   0  0  0  0  0  0
    0.0195   62.3371   34.5628 H   0  0  0  0  0  0
    2.8753   60.5507   31.8783 H   0  0  0  0  0  0
    2.0732   58.3485   32.4652 H   0  0  0  0  0  0
    0.3296   56.9037   32.4467 H   0  0  0  0  0  0
   -2.6443   55.0065   32.4713 H   0  0  0  0  0  0
   -3.2737   54.1777   31.0864 H   0  0  0  0  0  0
  1  6  1  0  0  0
  1  2  2  0  0  0
  1 30  1  0  0  0
  2  3  1  0  0  0
  2 31  1  0  0  0
  3  4  2  0  0  0
  3 32  1  0  0  0
  4  5  1  0  0  0
  4  8  1  0  0  0
  5  6  2  0  0  0
  5  7  1  0  0  0
  6 33  1  0  0  0
  7 34  1  0  0  0
  8  9  1  0  0  0
  9 10  2  0  0  0
  9 29  1  0  0  0
 10 11  1  0  0  0
 10 13  1  0  0  0
 11 12  3  0  0  0
 13 18  1  0  0  0
 13 14  2  0  0  0
 14 15  1  0  0  0
 14 35  1  0  0  0
 15 16  2  0  0  0
 15 36  1  0  0  0
 16 17  1  0  0  0
 16 37  1  0  0  0
 17 18  2  0  0  0
 17 19  1  0  0  0
 18 38  1  0  0  0
 19 20  1  0  0  0
 19 28  1  0  0  0
 19 39  1  0  0  0
 20 25  1  0  0  0
 20 21  2  0  0  0
 21 22  1  0  0  0
 21 40  1  0  0  0
 22 23  2  0  0  0
 22 41  1  0  0  0
 23 24  1  0  0  0
 23 26  1  0  0  0
 24 25  2  0  0  0
 24 42  1  0  0  0
 25 43  1  0  0  0
 26 27  3  0  0  0
 28 44  1  0  0  0
 29 45  1  0  0  0
 29 46  1  0  0  0
M  END
> <s_m_entry_id>
65979

> <s_m_entry_name>
ligand_docking-pose.35

> <s_m_Source_Path>
/home/csk/Desktop/cluster/DUD-E-result/mp2k1

> <s_m_Source_File>
ligand_docking-pose.sdf

> <i_m_Source_File_Index>
35

> <i_lp_mmshare_version>
53161

> <r_lp_tautomer_probability>
0.499999974948684

> <s_lp_Force_Field>
OPLS_2005

> <r_lp_Energy>
23.806021

> <b_lp_Chiralities_Consistent>
1

> <s_lp_Variant>
51882-1

> <s_i_glide_gridfile>
glide-grid_3eqh

> <i_i_glide_lignum>
110

> <i_i_glide_rotatable_bonds>
7

> <r_i_docking_score>
-9.08541596443447

> <r_i_glide_ligand_efficiency>
-0.313290205670154

> <r_i_glide_ligand_efficiency_sa>
-0.962526769122623

> <r_i_glide_ligand_efficiency_ln>
-2.08032986958491

> <r_i_glide_gscore>
-9.08541596443447

> <r_i_glide_lipo>
-4.22353660357673

> <r_i_glide_hbond>
-0.443874727852082

> <r_i_glide_metal>
0

> <r_i_glide_rewards>
-1.23715652952654

> <r_i_glide_evdw>
-51.1852264404297

> <r_i_glide_ecoul>
-8.03754806518555

> <r_i_glide_erotb>
0.613974560668774

> <r_i_glide_esite>
-0.0299291323485722

> <r_i_glide_emodel>
-86.0707073332898

> <r_i_glide_energy>
-59.2227745056152

> <r_i_glide_einternal>
7.67086362838745

> <i_i_glide_confnum>
52

> <i_i_glide_posenum>
359

> <r_i_glide_eff_state_penalty>
0

> <i_f3d_flags>
0

> <s_user_duplicate_titles>
51882

> <s_m_subgroup_title>
dock_pv

> <s_m_subgroupid>
dock_pv1

> <b_m_subgroup_collapsed>
0

$$$$
51230
                    3D
 Schrodinger Suite 2021-1.
 51 54  0  0  1  0            999 V2000
   -8.3222   52.2444   33.1970 C   0  0  0  0  0  0
   -6.9405   52.0646   33.1890 C   0  0  0  0  0  0
   -6.1311   52.9169   32.4386 C   0  0  0  0  0  0
   -6.6954   53.9539   31.6844 C   0  0  0  0  0  0
   -8.0914   54.1294   31.6895 C   0  0  0  0  0  0
   -8.8944   53.2733   32.4484 C   0  0  0  0  0  0
   -8.7128   55.1479   30.9630 N   0  0  0  0  0  0
   -5.6394   54.9994   30.6993 S   0  0  0  0  0  0
   -4.4675   55.5706   31.9081 C   0  0  0  0  0  0
   -4.6738   56.6524   32.6971 C   0  0  0  0  0  0
   -5.8610   57.4480   32.5868 C   0  0  0  0  0  0
   -6.7902   58.1399   32.5635 N   0  0  0  0  0  0
   -3.7058   57.1305   33.7154 C   0  0  0  0  0  0
   -4.1796   57.5479   34.9634 C   0  0  0  0  0  0
   -3.2987   57.9623   35.9589 C   0  0  0  0  0  0
   -1.9300   57.9480   35.7257 C   0  0  0  0  0  0
   -1.4269   57.5064   34.4999 C   0  0  0  0  0  0
   -2.3223   57.1335   33.4888 C   0  0  0  0  0  0
    0.0844   57.3867   34.3243 C   0  0  2  0  0  0
    0.7386   58.7448   34.1126 C   0  0  0  0  0  0
    1.4576   59.3529   35.1403 C   0  0  0  0  0  0
    2.0113   60.6139   34.9578 C   0  0  0  0  0  0
    1.8384   61.2784   33.7416 C   0  0  0  0  0  0
    1.1438   60.6606   32.7025 C   0  0  0  0  0  0
    0.5972   59.4022   32.8958 C   0  0  0  0  0  0
    2.3601   62.6537   33.5606 C   0  0  0  0  0  0
    1.7440   63.5483   32.8079 N   0  0  0  0  0  0
    2.4738   64.6992   32.9630 N   0  0  0  0  0  0
    3.4770   64.3500   33.7626 N   0  0  3  0  0  0
    3.4449   63.0869   34.1630 N   0  0  0  0  0  0
    0.4739   56.4189   33.3632 O   0  0  0  0  0  0
   -3.3719   54.7482   31.9117 N   0  0  0  0  0  0
    4.1934   65.0072   34.0412 H   0  0  0  0  0  0
   -8.9490   51.5867   33.7824 H   0  0  0  0  0  0
   -6.4964   51.2638   33.7632 H   0  0  0  0  0  0
   -5.0645   52.7546   32.4388 H   0  0  0  0  0  0
   -9.9665   53.4022   32.4641 H   0  0  0  0  0  0
   -8.1437   55.8313   30.4697 H   0  0  0  0  0  0
   -9.7158   55.2377   30.9780 H   0  0  0  0  0  0
   -5.2392   57.5335   35.1760 H   0  0  0  0  0  0
   -3.6704   58.2789   36.9221 H   0  0  0  0  0  0
   -1.2569   58.2514   36.5144 H   0  0  0  0  0  0
   -1.9377   56.8282   32.5271 H   0  0  0  0  0  0
    0.4739   56.9889   35.2628 H   0  0  0  0  0  0
    1.5804   58.8573   36.0896 H   0  0  0  0  0  0
    2.5535   61.0806   35.7670 H   0  0  0  0  0  0
    1.0154   61.1568   31.7523 H   0  0  0  0  0  0
    0.0371   58.9437   32.1027 H   0  0  0  0  0  0
    0.3700   56.8012   32.4779 H   0  0  0  0  0  0
   -2.6405   54.8591   32.5990 H   0  0  0  0  0  0
   -3.2931   53.9917   31.2486 H   0  0  0  0  0  0
  1  6  1  0  0  0
  1  2  2  0  0  0
  1 34  1  0  0  0
  2  3  1  0  0  0
  2 35  1  0  0  0
  3  4  2  0  0  0
  3 36  1  0  0  0
  4  5  1  0  0  0
  4  8  1  0  0  0
  5  6  2  0  0  0
  5  7  1  0  0  0
  6 37  1  0  0  0
  7 38  1  0  0  0
  7 39  1  0  0  0
  8  9  1  0  0  0
  9 10  2  0  0  0
  9 32  1  0  0  0
 10 11  1  0  0  0
 10 13  1  0  0  0
 11 12  3  0  0  0
 13 18  1  0  0  0
 13 14  2  0  0  0
 14 15  1  0  0  0
 14 40  1  0  0  0
 15 16  2  0  0  0
 15 41  1  0  0  0
 16 17  1  0  0  0
 16 42  1  0  0  0
 17 18  2  0  0  0
 17 19  1  0  0  0
 18 43  1  0  0  0
 19 20  1  0  0  0
 19 31  1  0  0  0
 19 44  1  0  0  0
 20 25  1  0  0  0
 20 21  2  0  0  0
 21 22  1  0  0  0
 21 45  1  0  0  0
 22 23  2  0  0  0
 22 46  1  0  0  0
 23 24  1  0  0  0
 23 26  1  0  0  0
 24 25  2  0  0  0
 24 47  1  0  0  0
 25 48  1  0  0  0
 26 27  1  0  0  0
 26 30  2  0  0  0
 27 28  2  0  0  0
 28 29  1  0  0  0
 29 33  1  0  0  0
 29 30  1  0  0  0
 31 49  1  0  0  0
 32 50  1  0  0  0
 32 51  1  0  0  0
M  END
> <s_m_entry_id>
65980

> <s_m_entry_name>
ligand_docking-pose.36

> <s_m_Source_Path>
/home/csk/Desktop/cluster/DUD-E-result/mp2k1

> <s_m_Source_File>
ligand_docking-pose.sdf

> <i_m_Source_File_Index>
36

> <i_lp_mmshare_version>
53161

> <r_lp_tautomer_probability>
0.0999999949900003

> <s_lp_Force_Field>
OPLS_2005

> <r_lp_Energy>
34.689165

> <b_lp_Chiralities_Consistent>
1

> <s_lp_Variant>
51230-3

> <s_i_glide_gridfile>
glide-grid_3eqh

> <i_i_glide_lignum>
69

> <i_i_glide_rotatable_bonds>
7

> <r_i_docking_score>
-9.08195494795229

> <r_i_glide_ligand_efficiency>
-0.283811092123509

> <r_i_glide_ligand_efficiency_sa>
-0.901044051353277

> <r_i_glide_ligand_efficiency_ln>
-2.03369727758834

> <r_i_glide_gscore>
-9.08195494795229

> <r_i_glide_lipo>
-4.26373458928678

> <r_i_glide_hbond>
-0.722949692885825

> <r_i_glide_metal>
0

> <r_i_glide_rewards>
-0.825363932369472

> <r_i_glide_evdw>
-53.5110549926758

> <r_i_glide_ecoul>
-7.56096458435059

> <r_i_glide_erotb>
0.614853472932773

> <r_i_glide_esite>
-0.0750627690566134

> <r_i_glide_emodel>
-87.7660422909014

> <r_i_glide_energy>
-61.0720195770264

> <r_i_glide_einternal>
7.28993320465088

> <i_i_glide_confnum>
45

> <i_i_glide_posenum>
247

> <r_i_glide_eff_state_penalty>
0

> <i_f3d_flags>
0

> <s_user_duplicate_titles>
51230

> <s_m_subgroup_title>
dock_pv

> <s_m_subgroupid>
dock_pv1

> <b_m_subgroup_collapsed>
0

$$$$
430060
                    3D
 Schrodinger Suite 2021-1.
 28 30  0  0  1  0            999 V2000
   -0.8496   55.3742   33.7620 C   0  0  0  0  0  0
   -2.0532   55.5739   34.4174 C   0  0  0  0  0  0
   -2.3260   56.8203   34.9630 C   0  0  0  0  0  0
   -1.4121   57.8863   34.8485 C   0  0  0  0  0  0
   -0.2425   57.7256   34.0795 C   0  0  0  0  0  0
    0.0178   56.4470   33.5629 C   0  0  0  0  0  0
    0.7069   58.8749   33.7989 C   0  0  0  0  0  0
    1.6876   58.7480   33.0636 O   0  0  0  0  0  0
    0.3437   60.1465   34.4939 C   0  0  0  0  0  0
   -0.7395   60.2484   35.3252 C   0  0  0  0  0  0
   -1.7052   59.1480   35.5810 C   0  0  0  0  0  0
   -2.6887   59.2017   36.3201 O   0  0  0  0  0  0
   -1.1260   61.7664   36.1630 Cl  0  0  0  0  0  0
    1.1916   61.2387   34.2870 N   0  0  0  0  0  0
    0.9860   62.2159   33.3608 C   0  0  0  0  0  0
    0.0740   62.3238   32.5630 O   0  0  0  0  0  0
    2.1071   63.2259   33.4178 C   0  0  0  0  0  0
    3.0535   62.6490   34.4080 C   0  0  0  0  0  0
    2.3804   61.3901   34.9229 C   0  0  0  0  0  0
    2.8740   60.6480   35.7630 O   0  0  0  0  0  0
   -0.6149   54.3988   33.3630 H   0  0  0  0  0  0
   -2.7511   54.7584   34.5433 H   0  0  0  0  0  0
   -3.2475   56.9272   35.5190 H   0  0  0  0  0  0
    0.8890   56.2786   32.9630 H   0  0  0  0  0  0
    2.5434   63.3281   32.4223 H   0  0  0  0  0  0
    1.6840   64.1751   33.7498 H   0  0  0  0  0  0
    3.9823   62.3766   33.9170 H   0  0  0  0  0  0
    3.2740   63.3038   35.2436 H   0  0  0  0  0  0
  1  6  1  0  0  0
  1  2  2  0  0  0
  1 21  1  0  0  0
  2  3  1  0  0  0
  2 22  1  0  0  0
  3  4  2  0  0  0
  3 23  1  0  0  0
  4 11  1  0  0  0
  4  5  1  0  0  0
  5  6  2  0  0  0
  5  7  1  0  0  0
  6 24  1  0  0  0
  7  8  2  0  0  0
  7  9  1  0  0  0
  9 10  2  0  0  0
  9 14  1  0  0  0
 10 11  1  0  0  0
 10 13  1  0  0  0
 11 12  2  0  0  0
 14 19  1  0  0  0
 14 15  1  0  0  0
 15 16  2  0  0  0
 15 17  1  0  0  0
 17 18  1  0  0  0
 17 25  1  0  0  0
 17 26  1  0  0  0
 18 19  1  0  0  0
 18 27  1  0  0  0
 18 28  1  0  0  0
 19 20  2  0  0  0
M  END
> <s_m_entry_id>
65981

> <s_m_entry_name>
ligand_docking-pose.37

> <s_m_Source_Path>
/home/csk/Desktop/cluster/DUD-E-result/mp2k1

> <s_m_Source_File>
ligand_docking-pose.sdf

> <i_m_Source_File_Index>
37

> <i_lp_mmshare_version>
53161

> <r_lp_tautomer_probability>
0.99990000499975

> <s_lp_Force_Field>
OPLS_2005

> <r_lp_Energy>
63.749418

> <b_lp_Chiralities_Consistent>
1

> <s_lp_Variant>
430060-1

> <s_i_glide_gridfile>
glide-grid_3eqh

> <i_i_glide_lignum>
10

> <i_i_glide_rotatable_bonds>
1

> <r_i_docking_score>
-9.07263710529178

> <r_i_glide_ligand_efficiency>
-0.453631855264589

> <r_i_glide_ligand_efficiency_sa>
-1.23134629814924

> <r_i_glide_ligand_efficiency_ln>
-2.27058183185586

> <r_i_glide_gscore>
-9.07263710529178

> <r_i_glide_lipo>
-2.42159664703253

> <r_i_glide_hbond>
-0.387723639695016

> <r_i_glide_metal>
0

> <r_i_glide_rewards>
-4.05557043084031

> <r_i_glide_evdw>
-30.7322235107422

> <r_i_glide_ecoul>
-5.92125129699707

> <r_i_glide_erotb>
0.21705248236274

> <r_i_glide_esite>
0

> <r_i_glide_emodel>
-55.7132396547499

> <r_i_glide_energy>
-36.6534748077393

> <r_i_glide_einternal>
1.67904877662659

> <i_i_glide_confnum>
1

> <i_i_glide_posenum>
394

> <r_i_glide_eff_state_penalty>
0

> <i_f3d_flags>
0

> <s_user_duplicate_titles>
430060

> <s_m_subgroup_title>
dock_pv

> <s_m_subgroupid>
dock_pv1

> <b_m_subgroup_collapsed>
0

$$$$
396336
                    3D
 Schrodinger Suite 2021-1.
 31 32  0  0  1  0            999 V2000
   -5.1527   55.9475   32.4455 C   0  0  0  0  0  0
   -3.9552   56.4095   33.1584 N   0  0  0  0  0  0
   -2.7843   55.6891   33.1457 C   0  0  0  0  0  0
   -1.6290   56.0498   33.7579 C   0  0  0  0  0  0
   -1.6279   57.3468   34.4440 C   0  0  0  0  0  0
   -2.8046   58.0184   34.4955 C   0  0  0  0  0  0
   -4.0628   57.5469   33.9278 C   0  0  0  0  0  0
   -5.1107   58.1509   34.1639 O   0  0  0  0  0  0
   -0.4697   57.9115   34.9378 N   0  0  0  0  0  0
    0.0622   59.0866   34.4023 C   0  0  0  0  0  0
    0.9617   58.9985   33.3369 C   0  0  0  0  0  0
    1.4158   60.1518   32.6982 C   0  0  0  0  0  0
    0.9836   61.4021   33.1370 C   0  0  0  0  0  0
    0.1187   61.4850   34.2249 C   0  0  0  0  0  0
   -0.3255   60.3416   34.8774 C   0  0  0  0  0  0
   -1.1489   60.4669   35.9445 F   0  0  0  0  0  0
    1.6055   63.1515   32.1737 I   0  0  0  0  0  0
   -0.4739   55.1832   33.7632 C   0  0  0  0  0  0
    0.6717   55.5482   33.5278 O   0  0  0  0  0  0
   -0.7275   53.9481   34.1630 N   0  0  0  0  0  0
   -4.9169   55.7819   31.3937 H   0  0  0  0  0  0
   -5.9853   56.6541   32.4746 H   0  0  0  0  0  0
   -5.5000   55.0037   32.8667 H   0  0  0  0  0  0
   -2.9154   54.7457   32.6335 H   0  0  0  0  0  0
   -2.8294   58.9882   34.9628 H   0  0  0  0  0  0
    0.2729   57.2437   35.0865 H   0  0  0  0  0  0
    1.2733   58.0342   32.9640 H   0  0  0  0  0  0
    2.0765   60.0673   31.8494 H   0  0  0  0  0  0
   -0.2457   62.4299   34.5617 H   0  0  0  0  0  0
   -1.6695   53.6814   34.4008 H   0  0  0  0  0  0
    0.0159   53.2629   34.2238 H   0  0  0  0  0  0
  1  2  1  0  0  0
  1 21  1  0  0  0
  1 22  1  0  0  0
  1 23  1  0  0  0
  2  7  1  0  0  0
  2  3  1  0  0  0
  3  4  2  0  0  0
  3 24  1  0  0  0
  4  5  1  0  0  0
  4 18  1  0  0  0
  5  6  2  0  0  0
  5  9  1  0  0  0
  6  7  1  0  0  0
  6 25  1  0  0  0
  7  8  2  0  0  0
  9 10  1  0  0  0
  9 26  1  0  0  0
 10 15  1  0  0  0
 10 11  2  0  0  0
 11 12  1  0  0  0
 11 27  1  0  0  0
 12 13  2  0  0  0
 12 28  1  0  0  0
 13 14  1  0  0  0
 13 17  1  0  0  0
 14 15  2  0  0  0
 14 29  1  0  0  0
 15 16  1  0  0  0
 18 19  2  0  0  0
 18 20  1  0  0  0
 20 30  1  0  0  0
 20 31  1  0  0  0
M  END
> <s_m_entry_id>
65982

> <s_m_entry_name>
ligand_docking-pose.38

> <s_m_Source_Path>
/home/csk/Desktop/cluster/DUD-E-result/mp2k1

> <s_m_Source_File>
ligand_docking-pose.sdf

> <i_m_Source_File_Index>
38

> <i_lp_mmshare_version>
53161

> <r_lp_tautomer_probability>
0.999999999982488

> <s_lp_Force_Field>
OPLS_2005

> <r_lp_Energy>
31.42509

> <b_lp_Chiralities_Consistent>
1

> <s_lp_Variant>
396336-1

> <s_i_glide_gridfile>
glide-grid_3eqh

> <i_i_glide_lignum>
338

> <i_i_glide_rotatable_bonds>
3

> <r_i_docking_score>
-8.94802553657979

> <r_i_glide_ligand_efficiency>
-0.447401276828989

> <r_i_glide_ligand_efficiency_sa>
-1.21443390629896

> <r_i_glide_ligand_efficiency_ln>
-2.23939566617185

> <r_i_glide_gscore>
-8.94802553657979

> <r_i_glide_lipo>
-3.19022478713169

> <r_i_glide_hbond>
-0.788138022882025

> <r_i_glide_metal>
0

> <r_i_glide_rewards>
-2.00959081715846

> <r_i_glide_evdw>
-37.0790138244629

> <r_i_glide_ecoul>
-9.10621547698975

> <r_i_glide_erotb>
0.259811103363992

> <r_i_glide_esite>
0

> <r_i_glide_emodel>
-67.8664472113363

> <r_i_glide_energy>
-46.1852293014526

> <r_i_glide_einternal>
5.30663776397705

> <i_i_glide_confnum>
6

> <i_i_glide_posenum>
112

> <r_i_glide_eff_state_penalty>
0

> <i_f3d_flags>
0

> <s_user_duplicate_titles>
396336

> <s_m_subgroup_title>
dock_pv

> <s_m_subgroupid>
dock_pv1

> <b_m_subgroup_collapsed>
0

$$$$
396349
                    3D
 Schrodinger Suite 2021-1.
 35 36  0  0  1  0            999 V2000
   -4.8323   55.9181   30.8414 C   0  0  0  0  0  0
   -5.5535   55.5111   31.8992 C   0  0  0  0  0  0
   -5.1363   55.5798   33.3630 C   0  0  0  0  0  0
   -3.8371   56.2230   33.6394 N   0  0  0  0  0  0
   -2.6544   55.5378   33.5536 C   0  0  0  0  0  0
   -1.4147   56.0435   33.7934 C   0  0  0  0  0  0
   -1.3298   57.4782   34.1218 C   0  0  0  0  0  0
   -2.5164   58.1324   34.2164 C   0  0  0  0  0  0
   -3.8377   57.5480   34.0035 C   0  0  0  0  0  0
   -4.8476   58.2370   34.1630 O   0  0  0  0  0  0
   -0.0991   58.1007   34.3206 N   0  0  0  0  0  0
    0.2945   59.4138   33.9972 C   0  0  0  0  0  0
   -0.3260   60.5291   34.5688 C   0  0  0  0  0  0
    0.0085   61.8180   34.1556 C   0  0  0  0  0  0
    1.0049   62.0163   33.2043 C   0  0  0  0  0  0
    1.6801   60.9183   32.6822 C   0  0  0  0  0  0
    1.3344   59.6271   33.0767 C   0  0  0  0  0  0
    2.0392   58.5965   32.5630 F   0  0  0  0  0  0
    1.4884   63.9480   32.5630 I   0  0  0  0  0  0
   -0.2469   55.1889   33.7630 C   0  0  0  0  0  0
    0.8740   55.5480   33.4308 O   0  0  0  0  0  0
   -0.4555   53.9480   34.1630 N   0  0  0  0  0  0
   -3.8474   56.3480   30.9511 H   0  0  0  0  0  0
   -5.2240   55.8320   29.8383 H   0  0  0  0  0  0
   -6.5334   55.0926   31.7171 H   0  0  0  0  0  0
   -5.9455   56.0718   33.9066 H   0  0  0  0  0  0
   -5.1329   54.5651   33.7630 H   0  0  0  0  0  0
   -2.8425   54.5022   33.3005 H   0  0  0  0  0  0
   -2.5371   59.1705   34.4595 H   0  0  0  0  0  0
    0.6831   57.4701   34.1953 H   0  0  0  0  0  0
   -1.0946   60.4129   35.3170 H   0  0  0  0  0  0
   -0.5271   62.6612   34.5630 H   0  0  0  0  0  0
    2.4740   61.0618   31.9659 H   0  0  0  0  0  0
   -1.3698   53.6756   34.4860 H   0  0  0  0  0  0
    0.2874   53.2602   34.1632 H   0  0  0  0  0  0
  1  2  2  0  0  0
  1 23  1  0  0  0
  1 24  1  0  0  0
  2  3  1  0  0  0
  2 25  1  0  0  0
  3  4  1  0  0  0
  3 26  1  0  0  0
  3 27  1  0  0  0
  4  9  1  0  0  0
  4  5  1  0  0  0
  5  6  2  0  0  0
  5 28  1  0  0  0
  6  7  1  0  0  0
  6 20  1  0  0  0
  7  8  2  0  0  0
  7 11  1  0  0  0
  8  9  1  0  0  0
  8 29  1  0  0  0
  9 10  2  0  0  0
 11 12  1  0  0  0
 11 30  1  0  0  0
 12 17  1  0  0  0
 12 13  2  0  0  0
 13 14  1  0  0  0
 13 31  1  0  0  0
 14 15  2  0  0  0
 14 32  1  0  0  0
 15 16  1  0  0  0
 15 19  1  0  0  0
 16 17  2  0  0  0
 16 33  1  0  0  0
 17 18  1  0  0  0
 20 21  2  0  0  0
 20 22  1  0  0  0
 22 34  1  0  0  0
 22 35  1  0  0  0
M  END
> <s_m_entry_id>
65983

> <s_m_entry_name>
ligand_docking-pose.39

> <s_m_Source_Path>
/home/csk/Desktop/cluster/DUD-E-result/mp2k1

> <s_m_Source_File>
ligand_docking-pose.sdf

> <i_m_Source_File_Index>
39

> <i_lp_mmshare_version>
53161

> <r_lp_tautomer_probability>
0.999999999982488

> <s_lp_Force_Field>
OPLS_2005

> <r_lp_Energy>
31.724494

> <b_lp_Chiralities_Consistent>
1

> <s_lp_Variant>
396349-1

> <s_i_glide_gridfile>
glide-grid_3eqh

> <i_i_glide_lignum>
208

> <i_i_glide_rotatable_bonds>
5

> <r_i_docking_score>
-8.94597261761177

> <r_i_glide_ligand_efficiency>
-0.406635118982353

> <r_i_glide_ligand_efficiency_sa>
-1.1394075954403

> <r_i_glide_ligand_efficiency_ln>
-2.18672202002403

> <r_i_glide_gscore>
-8.94597261761177

> <r_i_glide_lipo>
-3.29837166337673

> <r_i_glide_hbond>
-0.862935037212482

> <r_i_glide_metal>
0

> <r_i_glide_rewards>
-1.87022087404244

> <r_i_glide_evdw>
-36.9170761108398

> <r_i_glide_ecoul>
-10.2051095962524

> <r_i_glide_erotb>
0.462175201999738

> <r_i_glide_esite>
0

> <r_i_glide_emodel>
-72.7668568646125

> <r_i_glide_energy>
-47.1221857070923

> <r_i_glide_einternal>
1.86201226711273

> <i_i_glide_confnum>
58

> <i_i_glide_posenum>
360

> <r_i_glide_eff_state_penalty>
0

> <i_f3d_flags>
0

> <s_user_duplicate_titles>
396349

> <s_m_subgroup_title>
dock_pv

> <s_m_subgroupid>
dock_pv1

> <b_m_subgroup_collapsed>
0

$$$$
51916
                    3D
 Schrodinger Suite 2021-1.
 52 54  0  0  1  0            999 V2000
    2.2816   62.7501   33.7281 C   0  0  0  0  0  0
    2.4770   62.1418   34.9646 C   0  0  0  0  0  0
    2.1775   60.7926   35.1422 C   0  0  0  0  0  0
    1.6526   60.0470   34.0906 C   0  0  0  0  0  0
    1.4557   60.6594   32.8458 C   0  0  0  0  0  0
    1.7705   62.0072   32.6686 C   0  0  0  0  0  0
    0.9624   59.9483   31.7623 N   0  0  0  0  0  0
    1.2259   58.3439   34.3859 S   0  0  0  0  0  0
   -0.5653   58.3140   34.2801 C   0  0  0  0  0  0
   -1.2687   57.1918   33.9817 C   0  0  0  0  0  0
   -0.5983   55.9421   33.7984 C   0  0  0  0  0  0
   -0.0207   54.9380   33.7635 N   0  0  0  0  0  0
   -2.7536   57.1436   33.9541 C   0  0  0  0  0  0
   -3.4480   57.6962   35.0334 C   0  0  0  0  0  0
   -4.8317   57.7178   35.0440 C   0  0  0  0  0  0
   -5.5525   57.1474   34.0178 C   0  0  0  0  0  0
   -4.9013   56.5594   32.9307 C   0  0  0  0  0  0
   -3.4914   56.5717   32.8981 C   0  0  0  0  0  0
   -5.7614   55.9223   31.8277 C   0  0  1  0  0  0
   -5.9538   54.3804   32.0234 C   0  0  0  0  0  0
   -7.1958   53.7247   31.3481 C   0  0  0  0  0  0
   -7.0928   53.7236   29.8087 C   0  0  0  0  0  0
   -5.8016   53.0265   29.3256 C   0  0  0  0  0  0
   -4.5400   53.5463   30.0478 C   0  0  0  0  0  0
   -4.7259   53.5562   31.5843 C   0  0  0  0  0  0
   -7.0370   56.5366   31.7630 O   0  0  0  0  0  0
   -1.0986   59.5476   34.5629 N   0  0  0  0  0  0
    2.5227   63.7947   33.5921 H   0  0  0  0  0  0
    2.8719   62.7157   35.7886 H   0  0  0  0  0  0
    2.3484   60.3302   36.1034 H   0  0  0  0  0  0
    1.6230   62.4883   31.7148 H   0  0  0  0  0  0
    0.8740   58.9437   31.8740 H   0  0  0  0  0  0
    1.2733   60.2801   30.8595 H   0  0  0  0  0  0
   -2.9146   58.1153   35.8749 H   0  0  0  0  0  0
   -5.3678   58.1514   35.8699 H   0  0  0  0  0  0
   -6.6307   57.1507   34.0880 H   0  0  0  0  0  0
   -2.9725   56.1453   32.0514 H   0  0  0  0  0  0
   -5.2964   56.1410   30.8659 H   0  0  0  0  0  0
   -6.0930   54.2046   33.0921 H   0  0  0  0  0  0
   -7.3058   52.6969   31.7000 H   0  0  0  0  0  0
   -8.1127   54.2362   31.6447 H   0  0  0  0  0  0
   -7.9637   53.2271   29.3800 H   0  0  0  0  0  0
   -7.1265   54.7481   29.4396 H   0  0  0  0  0  0
   -5.8915   51.9533   29.5002 H   0  0  0  0  0  0
   -5.6906   53.1517   28.2472 H   0  0  0  0  0  0
   -3.6846   52.9233   29.7824 H   0  0  0  0  0  0
   -4.2959   54.5454   29.6862 H   0  0  0  0  0  0
   -3.8255   53.9494   32.0556 H   0  0  0  0  0  0
   -4.8257   52.5300   31.9427 H   0  0  0  0  0  0
   -7.1561   56.9023   30.8647 H   0  0  0  0  0  0
   -2.0626   59.7771   34.3435 H   0  0  0  0  0  0
   -0.4894   60.3250   34.7715 H   0  0  0  0  0  0
  1  6  1  0  0  0
  1  2  2  0  0  0
  1 28  1  0  0  0
  2  3  1  0  0  0
  2 29  1  0  0  0
  3  4  2  0  0  0
  3 30  1  0  0  0
  4  5  1  0  0  0
  4  8  1  0  0  0
  5  6  2  0  0  0
  5  7  1  0  0  0
  6 31  1  0  0  0
  7 32  1  0  0  0
  7 33  1  0  0  0
  8  9  1  0  0  0
  9 10  2  0  0  0
  9 27  1  0  0  0
 10 11  1  0  0  0
 10 13  1  0  0  0
 11 12  3  0  0  0
 13 18  1  0  0  0
 13 14  2  0  0  0
 14 15  1  0  0  0
 14 34  1  0  0  0
 15 16  2  0  0  0
 15 35  1  0  0  0
 16 17  1  0  0  0
 16 36  1  0  0  0
 17 18  2  0  0  0
 17 19  1  0  0  0
 18 37  1  0  0  0
 19 20  1  0  0  0
 19 26  1  0  0  0
 19 38  1  0  0  0
 20 25  1  0  0  0
 20 21  1  0  0  0
 20 39  1  0  0  0
 21 22  1  0  0  0
 21 40  1  0  0  0
 21 41  1  0  0  0
 22 23  1  0  0  0
 22 42  1  0  0  0
 22 43  1  0  0  0
 23 24  1  0  0  0
 23 44  1  0  0  0
 23 45  1  0  0  0
 24 25  1  0  0  0
 24 46  1  0  0  0
 24 47  1  0  0  0
 25 48  1  0  0  0
 25 49  1  0  0  0
 26 50  1  0  0  0
 27 51  1  0  0  0
 27 52  1  0  0  0
M  END
> <s_m_entry_id>
65985

> <s_m_entry_name>
ligand_docking-pose.41

> <s_m_Source_Path>
/home/csk/Desktop/cluster/DUD-E-result/mp2k1

> <s_m_Source_File>
ligand_docking-pose.sdf

> <i_m_Source_File_Index>
41

> <i_lp_mmshare_version>
53161

> <r_lp_tautomer_probability>
0.499999974950001

> <s_lp_Force_Field>
OPLS_2005

> <r_lp_Energy>
31.936411

> <b_lp_Chiralities_Consistent>
1

> <s_lp_Variant>
51916-2

> <s_i_glide_gridfile>
glide-grid_3eqh

> <i_i_glide_lignum>
88

> <i_i_glide_rotatable_bonds>
6

> <r_i_docking_score>
-8.9023085900301

> <r_i_glide_ligand_efficiency>
-0.329715132964078

> <r_i_glide_ligand_efficiency_sa>
-0.989145397805546

> <r_i_glide_ligand_efficiency_ln>
-2.07231067373151

> <r_i_glide_gscore>
-8.9023085900301

> <r_i_glide_lipo>
-3.96520109037565

> <r_i_glide_hbond>
-0.547613080480757

> <r_i_glide_metal>
0

> <r_i_glide_rewards>
-1.61850899322644

> <r_i_glide_evdw>
-39.9612197875977

> <r_i_glide_ecoul>
-9.56320953369141

> <r_i_glide_erotb>
0.67312531791592

> <r_i_glide_esite>
-0.0115683244295759

> <r_i_glide_emodel>
-73.0986381394666

> <r_i_glide_energy>
-49.5244293212891

> <r_i_glide_einternal>
8.69258308410645

> <i_i_glide_confnum>
175

> <i_i_glide_posenum>
100

> <r_i_glide_eff_state_penalty>
0

> <i_f3d_flags>
0

> <s_user_duplicate_titles>
51916

> <s_m_subgroup_title>
dock_pv

> <s_m_subgroupid>
dock_pv1

> <b_m_subgroup_collapsed>
0

$$$$
51713
                    3D
 Schrodinger Suite 2021-1.
 49 51  0  0  1  0            999 V2000
    2.3965   63.1483   33.7056 C   0  0  0  0  0  0
    1.8132   62.7478   32.5095 C   0  0  0  0  0  0
    1.3154   61.4538   32.3855 C   0  0  0  0  0  0
    1.4065   60.5583   33.4525 C   0  0  0  0  0  0
    1.9955   60.9707   34.6527 C   0  0  0  0  0  0
    2.4704   62.2710   34.7839 C   0  0  0  0  0  0
    0.8562   59.1431   33.2731 C   0  0  0  0  0  0
    0.2779   58.4541   34.5343 C   0  0  2  0  0  0
   -0.4751   57.1794   34.1629 C   0  0  0  0  0  0
    0.1709   55.9396   34.1576 C   0  0  0  0  0  0
   -0.5410   54.7819   33.8385 C   0  0  0  0  0  0
   -1.8992   54.8591   33.5252 C   0  0  0  0  0  0
   -2.5535   56.0967   33.4869 C   0  0  0  0  0  0
   -1.8246   57.2470   33.8017 C   0  0  0  0  0  0
   -3.9852   56.2290   33.1241 C   0  0  0  0  0  0
   -4.5930   55.5470   32.1269 C   0  0  0  0  0  0
   -4.0100   54.6742   31.2450 N   0  0  0  0  0  0
   -6.3263   55.7380   31.7632 S   0  0  0  0  0  0
   -7.0823   54.1548   32.1032 C   0  0  0  0  0  0
   -6.4504   53.2180   32.9340 C   0  0  0  0  0  0
   -7.0597   51.9939   33.2100 C   0  0  0  0  0  0
   -8.3128   51.7010   32.6758 C   0  0  0  0  0  0
   -8.9551   52.6290   31.8573 C   0  0  0  0  0  0
   -8.3495   53.8538   31.5662 C   0  0  0  0  0  0
   -9.0321   54.7478   30.7343 N   0  0  0  0  0  0
   -4.7310   57.1451   33.9331 C   0  0  0  0  0  0
   -5.3165   57.9208   34.5629 N   0  0  0  0  0  0
   -0.5375   59.3565   35.2666 O   0  0  0  0  0  0
    2.7767   64.1559   33.7957 H   0  0  0  0  0  0
    1.7559   63.4384   31.6809 H   0  0  0  0  0  0
    0.8771   61.1414   31.4490 H   0  0  0  0  0  0
    2.0798   60.2973   35.4929 H   0  0  0  0  0  0
    2.8740   62.5990   35.7278 H   0  0  0  0  0  0
    1.6464   58.5231   32.8476 H   0  0  0  0  0  0
    0.0745   59.1784   32.5136 H   0  0  0  0  0  0
    1.0958   58.1852   35.2046 H   0  0  0  0  0  0
    1.2138   55.8705   34.4286 H   0  0  0  0  0  0
   -0.0492   53.8203   33.8624 H   0  0  0  0  0  0
   -2.4414   53.9491   33.3178 H   0  0  0  0  0  0
   -2.3116   58.2124   33.7767 H   0  0  0  0  0  0
   -3.0086   54.5515   31.2274 H   0  0  0  0  0  0
   -4.5524   54.2690   30.4959 H   0  0  0  0  0  0
   -5.4913   53.4288   33.3829 H   0  0  0  0  0  0
   -6.5653   51.2744   33.8471 H   0  0  0  0  0  0
   -8.7882   50.7573   32.9011 H   0  0  0  0  0  0
   -9.9286   52.3923   31.4532 H   0  0  0  0  0  0
   -8.5669   55.6084   30.4613 H   0  0  0  0  0  0
   -9.8853   54.4610   30.2792 H   0  0  0  0  0  0
   -0.2615   60.2526   35.0520 H   0  0  0  0  0  0
  1  6  1  0  0  0
  1  2  2  0  0  0
  1 29  1  0  0  0
  2  3  1  0  0  0
  2 30  1  0  0  0
  3  4  2  0  0  0
  3 31  1  0  0  0
  4  5  1  0  0  0
  4  7  1  0  0  0
  5  6  2  0  0  0
  5 32  1  0  0  0
  6 33  1  0  0  0
  7  8  1  0  0  0
  7 34  1  0  0  0
  7 35  1  0  0  0
  8  9  1  0  0  0
  8 28  1  0  0  0
  8 36  1  0  0  0
  9 14  1  0  0  0
  9 10  2  0  0  0
 10 11  1  0  0  0
 10 37  1  0  0  0
 11 12  2  0  0  0
 11 38  1  0  0  0
 12 13  1  0  0  0
 12 39  1  0  0  0
 13 14  2  0  0  0
 13 15  1  0  0  0
 14 40  1  0  0  0
 15 16  2  0  0  0
 15 26  1  0  0  0
 16 17  1  0  0  0
 16 18  1  0  0  0
 17 41  1  0  0  0
 17 42  1  0  0  0
 18 19  1  0  0  0
 19 24  1  0  0  0
 19 20  2  0  0  0
 20 21  1  0  0  0
 20 43  1  0  0  0
 21 22  2  0  0  0
 21 44  1  0  0  0
 22 23  1  0  0  0
 22 45  1  0  0  0
 23 24  2  0  0  0
 23 46  1  0  0  0
 24 25  1  0  0  0
 25 47  1  0  0  0
 25 48  1  0  0  0
 26 27  3  0  0  0
 28 49  1  0  0  0
M  END
> <s_m_entry_id>
65986

> <s_m_entry_name>
ligand_docking-pose.42

> <s_m_Source_Path>
/home/csk/Desktop/cluster/DUD-E-result/mp2k1

> <s_m_Source_File>
ligand_docking-pose.sdf

> <i_m_Source_File_Index>
42

> <i_lp_mmshare_version>
53161

> <r_lp_tautomer_probability>
0.499999974950001

> <s_lp_Force_Field>
OPLS_2005

> <r_lp_Energy>
30.289773

> <b_lp_Chiralities_Consistent>
1

> <s_lp_Variant>
51713-1

> <s_i_glide_gridfile>
glide-grid_3eqh

> <i_i_glide_lignum>
23

> <i_i_glide_rotatable_bonds>
7

> <r_i_docking_score>
-8.8871016275487

> <r_i_glide_ligand_efficiency>
-0.317396486698168

> <r_i_glide_ligand_efficiency_sa>
-0.963802670149208

> <r_i_glide_ligand_efficiency_ln>
-2.05140399228043

> <r_i_glide_gscore>
-8.8871016275487

> <r_i_glide_lipo>
-5.42394350593865

> <r_i_glide_hbond>
-0.0197577038284576

> <r_i_glide_metal>
0

> <r_i_glide_rewards>
-1.40119485712817

> <r_i_glide_evdw>
-49.7825698852539

> <r_i_glide_ecoul>
-2.0123393535614

> <r_i_glide_erotb>
0.77816975504741

> <r_i_glide_esite>
-0.029395918403928

> <r_i_glide_emodel>
-76.6998078838539

> <r_i_glide_energy>
-51.7949092388153

> <r_i_glide_einternal>
6.40860462188721

> <i_i_glide_confnum>
8

> <i_i_glide_posenum>
123

> <r_i_glide_eff_state_penalty>
0

> <i_f3d_flags>
0

> <s_user_duplicate_titles>
51713

> <s_m_subgroup_title>
dock_pv

> <s_m_subgroupid>
dock_pv1

> <b_m_subgroup_collapsed>
0

$$$$
51883
                    3D
 Schrodinger Suite 2021-1.
 45 47  0  0  1  0            999 V2000
   -8.3406   52.3833   33.3620 C   0  0  0  0  0  0
   -8.8540   53.5138   32.7268 C   0  0  0  0  0  0
   -8.0234   54.2906   31.9215 C   0  0  0  0  0  0
   -6.6853   53.9311   31.7601 C   0  0  0  0  0  0
   -6.1720   52.7994   32.3989 C   0  0  0  0  0  0
   -7.0035   52.0231   33.2026 C   0  0  0  0  0  0
   -5.6446   54.9241   30.7302 S   0  0  0  0  0  0
   -4.4990   55.5553   31.9341 C   0  0  0  0  0  0
   -4.7268   56.6513   32.6971 C   0  0  0  0  0  0
   -5.9250   57.4272   32.5768 C   0  0  0  0  0  0
   -6.8678   58.1006   32.5630 N   0  0  0  0  0  0
   -3.7681   57.1604   33.7070 C   0  0  0  0  0  0
   -4.2471   57.5475   34.9629 C   0  0  0  0  0  0
   -3.3707   57.9480   35.9671 C   0  0  0  0  0  0
   -2.0044   57.9637   35.7265 C   0  0  0  0  0  0
   -1.4991   57.6298   34.4662 C   0  0  0  0  0  0
   -2.3895   57.2328   33.4599 C   0  0  0  0  0  0
    0.0127   57.6941   34.2279 C   0  0  2  0  0  0
    0.5221   59.1014   33.8675 C   0  0  0  0  0  0
    1.5763   59.2886   32.9635 C   0  0  0  0  0  0
    2.0007   60.5730   32.6335 C   0  0  0  0  0  0
    1.3703   61.6823   33.1984 C   0  0  0  0  0  0
    0.3343   61.5089   34.1094 C   0  0  0  0  0  0
   -0.0783   60.2299   34.4441 C   0  0  0  0  0  0
    1.7714   63.0314   32.8425 C   0  0  0  0  0  0
    2.0799   64.1076   32.5630 N   0  0  0  0  0  0
    0.4726   56.6647   33.3632 O   0  0  0  0  0  0
   -3.3920   54.7485   31.9735 N   0  0  0  0  0  0
   -8.9837   51.7825   33.9890 H   0  0  0  0  0  0
   -9.8902   53.7875   32.8600 H   0  0  0  0  0  0
   -8.4129   55.1702   31.4276 H   0  0  0  0  0  0
   -5.1364   52.5207   32.2755 H   0  0  0  0  0  0
   -6.6135   51.1485   33.7040 H   0  0  0  0  0  0
   -5.3048   57.4970   35.1811 H   0  0  0  0  0  0
   -3.7418   58.2234   36.9430 H   0  0  0  0  0  0
   -1.3350   58.2597   36.5215 H   0  0  0  0  0  0
   -2.0079   56.9787   32.4815 H   0  0  0  0  0  0
    0.4872   57.4679   35.1845 H   0  0  0  0  0  0
    2.0729   58.4457   32.5050 H   0  0  0  0  0  0
    2.8172   60.6904   31.9386 H   0  0  0  0  0  0
   -0.1715   62.3491   34.5625 H   0  0  0  0  0  0
   -0.8926   60.1508   35.1449 H   0  0  0  0  0  0
    0.3345   56.9540   32.4466 H   0  0  0  0  0  0
   -2.6680   54.8934   32.6625 H   0  0  0  0  0  0
   -3.2969   53.9731   31.3353 H   0  0  0  0  0  0
  1  6  1  0  0  0
  1  2  2  0  0  0
  1 29  1  0  0  0
  2  3  1  0  0  0
  2 30  1  0  0  0
  3  4  2  0  0  0
  3 31  1  0  0  0
  4  5  1  0  0  0
  4  7  1  0  0  0
  5  6  2  0  0  0
  5 32  1  0  0  0
  6 33  1  0  0  0
  7  8  1  0  0  0
  8  9  2  0  0  0
  8 28  1  0  0  0
  9 10  1  0  0  0
  9 12  1  0  0  0
 10 11  3  0  0  0
 12 17  1  0  0  0
 12 13  2  0  0  0
 13 14  1  0  0  0
 13 34  1  0  0  0
 14 15  2  0  0  0
 14 35  1  0  0  0
 15 16  1  0  0  0
 15 36  1  0  0  0
 16 17  2  0  0  0
 16 18  1  0  0  0
 17 37  1  0  0  0
 18 19  1  0  0  0
 18 27  1  0  0  0
 18 38  1  0  0  0
 19 24  1  0  0  0
 19 20  2  0  0  0
 20 21  1  0  0  0
 20 39  1  0  0  0
 21 22  2  0  0  0
 21 40  1  0  0  0
 22 23  1  0  0  0
 22 25  1  0  0  0
 23 24  2  0  0  0
 23 41  1  0  0  0
 24 42  1  0  0  0
 25 26  3  0  0  0
 27 43  1  0  0  0
 28 44  1  0  0  0
 28 45  1  0  0  0
M  END
> <s_m_entry_id>
65987

> <s_m_entry_name>
ligand_docking-pose.43

> <s_m_Source_Path>
/home/csk/Desktop/cluster/DUD-E-result/mp2k1

> <s_m_Source_File>
ligand_docking-pose.sdf

> <i_m_Source_File_Index>
43

> <i_lp_mmshare_version>
53161

> <r_lp_tautomer_probability>
0.499999974950001

> <s_lp_Force_Field>
OPLS_2005

> <r_lp_Energy>
24.651677

> <b_lp_Chiralities_Consistent>
1

> <s_lp_Variant>
51883-1

> <s_i_glide_gridfile>
glide-grid_3eqh

> <i_i_glide_lignum>
120

> <i_i_glide_rotatable_bonds>
6

> <r_i_docking_score>
-8.8842781737549

> <r_i_glide_ligand_efficiency>
-0.317295649062675

> <r_i_glide_ligand_efficiency_sa>
-0.963496467697661

> <r_i_glide_ligand_efficiency_ln>
-2.05075225624462

> <r_i_glide_gscore>
-8.8842781737549

> <r_i_glide_lipo>
-4.2598233893178

> <r_i_glide_hbond>
-0.32

> <r_i_glide_metal>
0

> <r_i_glide_rewards>
-1.33077934810781

> <r_i_glide_evdw>
-50.7880401611328

> <r_i_glide_ecoul>
-6.25161838531494

> <r_i_glide_erotb>
0.528606010566492

> <r_i_glide_esite>
-0.0251366810419056

> <r_i_glide_emodel>
-83.3783872410637

> <r_i_glide_energy>
-57.0396585464478

> <r_i_glide_einternal>
5.83520174026489

> <i_i_glide_confnum>
4

> <i_i_glide_posenum>
319

> <r_i_glide_eff_state_penalty>
0

> <i_f3d_flags>
0

> <s_user_duplicate_titles>
51883

> <s_m_subgroup_title>
dock_pv

> <s_m_subgroupid>
dock_pv1

> <b_m_subgroup_collapsed>
0

$$$$
51830
                    3D
 Schrodinger Suite 2021-1.
 43 45  0  0  1  0            999 V2000
    2.8047   63.7186   33.4962 C   0  0  0  0  0  0
    2.8489   62.7482   34.4963 C   0  0  0  0  0  0
    2.2463   61.5210   34.3117 C   0  0  0  0  0  0
    1.5321   61.2874   33.1407 C   0  0  0  0  0  0
    1.4375   62.2710   32.1630 C   0  0  0  0  0  0
    2.0931   63.4865   32.3255 C   0  0  0  0  0  0
    0.9083   60.0894   32.9302 O   0  0  0  0  0  0
    0.0723   59.5628   33.8871 C   0  0  0  0  0  0
   -0.5385   60.3104   34.9052 C   0  0  0  0  0  0
   -1.4523   59.7085   35.7630 C   0  0  0  0  0  0
   -1.7758   58.3647   35.6098 C   0  0  0  0  0  0
   -1.1937   57.6138   34.5821 C   0  0  0  0  0  0
   -0.2495   58.2204   33.7555 C   0  0  0  0  0  0
   -1.5760   56.2168   34.3086 C   0  0  0  0  0  0
   -2.8495   55.7718   34.3399 C   0  0  0  0  0  0
   -3.9615   56.5411   34.5628 N   0  0  0  0  0  0
   -3.2892   54.0702   34.0520 S   0  0  0  0  0  0
   -4.5407   54.1848   32.7867 C   0  0  0  0  0  0
   -5.7484   53.5167   33.0063 C   0  0  0  0  0  0
   -6.7823   53.6000   32.0742 C   0  0  0  0  0  0
   -6.6121   54.3480   30.9103 C   0  0  0  0  0  0
   -5.4008   54.9947   30.6700 C   0  0  0  0  0  0
   -4.3573   54.9093   31.5921 C   0  0  0  0  0  0
   -3.1574   55.5480   31.2791 N   0  0  0  0  0  0
   -0.4751   55.3570   34.0174 C   0  0  0  0  0  0
    0.4724   54.7480   33.7630 N   0  0  0  0  0  0
    3.2855   64.6753   33.6474 H   0  0  0  0  0  0
    3.2740   62.9786   35.4481 H   0  0  0  0  0  0
    2.2976   60.7699   35.0862 H   0  0  0  0  0  0
    0.8740   62.0709   31.2677 H   0  0  0  0  0  0
    2.0477   64.2451   31.5595 H   0  0  0  0  0  0
   -0.3482   61.3678   35.0133 H   0  0  0  0  0  0
   -1.9232   60.2941   36.5373 H   0  0  0  0  0  0
   -2.4885   57.9172   36.2866 H   0  0  0  0  0  0
    0.2173   57.6587   32.9630 H   0  0  0  0  0  0
   -3.8946   57.5468   34.6059 H   0  0  0  0  0  0
   -4.8782   56.1180   34.6098 H   0  0  0  0  0  0
   -5.8954   52.9480   33.9136 H   0  0  0  0  0  0
   -7.7187   53.0944   32.2600 H   0  0  0  0  0  0
   -7.4157   54.4306   30.1925 H   0  0  0  0  0  0
   -5.2797   55.5684   29.7631 H   0  0  0  0  0  0
   -2.4677   55.6067   32.0125 H   0  0  0  0  0  0
   -3.1746   56.2650   30.5629 H   0  0  0  0  0  0
  1  6  1  0  0  0
  1  2  2  0  0  0
  1 27  1  0  0  0
  2  3  1  0  0  0
  2 28  1  0  0  0
  3  4  2  0  0  0
  3 29  1  0  0  0
  4  5  1  0  0  0
  4  7  1  0  0  0
  5  6  2  0  0  0
  5 30  1  0  0  0
  6 31  1  0  0  0
  7  8  1  0  0  0
  8 13  1  0  0  0
  8  9  2  0  0  0
  9 10  1  0  0  0
  9 32  1  0  0  0
 10 11  2  0  0  0
 10 33  1  0  0  0
 11 12  1  0  0  0
 11 34  1  0  0  0
 12 13  2  0  0  0
 12 14  1  0  0  0
 13 35  1  0  0  0
 14 15  2  0  0  0
 14 25  1  0  0  0
 15 16  1  0  0  0
 15 17  1  0  0  0
 16 36  1  0  0  0
 16 37  1  0  0  0
 17 18  1  0  0  0
 18 23  1  0  0  0
 18 19  2  0  0  0
 19 20  1  0  0  0
 19 38  1  0  0  0
 20 21  2  0  0  0
 20 39  1  0  0  0
 21 22  1  0  0  0
 21 40  1  0  0  0
 22 23  2  0  0  0
 22 41  1  0  0  0
 23 24  1  0  0  0
 24 42  1  0  0  0
 24 43  1  0  0  0
 25 26  3  0  0  0
M  END
> <s_m_entry_id>
65988

> <s_m_entry_name>
ligand_docking-pose.44

> <s_m_Source_Path>
/home/csk/Desktop/cluster/DUD-E-result/mp2k1

> <s_m_Source_File>
ligand_docking-pose.sdf

> <i_m_Source_File_Index>
44

> <i_lp_mmshare_version>
53161

> <r_lp_tautomer_probability>
0.499999974950001

> <s_lp_Force_Field>
OPLS_2005

> <r_lp_Energy>
30.613866

> <b_lp_Chiralities_Consistent>
1

> <s_lp_Variant>
51830-1

> <s_i_glide_gridfile>
glide-grid_3eqh

> <i_i_glide_lignum>
105

> <i_i_glide_rotatable_bonds>
5

> <r_i_docking_score>
-8.86692340514498

> <r_i_glide_ligand_efficiency>
-0.341035515582499

> <r_i_glide_ligand_efficiency_sa>
-1.0103163730032

> <r_i_glide_ligand_efficiency_ln>
-2.08236786694953

> <r_i_glide_gscore>
-8.86692340514498

> <r_i_glide_lipo>
-4.23701619698818

> <r_i_glide_hbond>
-0.597277123972017

> <r_i_glide_metal>
0

> <r_i_glide_rewards>
-1.92499498484848

> <r_i_glide_evdw>
-41.9075813293457

> <r_i_glide_ecoul>
-5.02684545516968

> <r_i_glide_erotb>
0.741770785406438

> <r_i_glide_esite>
0

> <r_i_glide_emodel>
-68.9081593792561

> <r_i_glide_energy>
-46.9344267845154

> <r_i_glide_einternal>
4.41195249557495

> <i_i_glide_confnum>
94

> <i_i_glide_posenum>
313

> <r_i_glide_eff_state_penalty>
0

> <i_f3d_flags>
0

> <s_user_duplicate_titles>
51830

> <s_m_subgroup_title>
dock_pv

> <s_m_subgroupid>
dock_pv1

> <b_m_subgroup_collapsed>
0

$$$$
396341
                    3D
 Schrodinger Suite 2021-1.
 28 29  0  0  1  0            999 V2000
    1.9839   60.2144   32.8989 C   0  0  0  0  0  0
    0.9618   59.3339   33.2441 C   0  0  0  0  0  0
    0.0087   59.6682   34.2171 C   0  0  0  0  0  0
    0.1187   60.9203   34.8418 C   0  0  0  0  0  0
    1.1575   61.7946   34.5052 C   0  0  0  0  0  0
    2.0740   61.4547   33.5185 C   0  0  0  0  0  0
    3.5637   62.8150   32.9630 I   0  0  0  0  0  0
   -0.7875   61.3052   35.7695 F   0  0  0  0  0  0
   -1.0689   58.8203   34.5662 N   0  0  0  0  0  0
   -1.2884   57.4705   34.3142 C   0  0  0  0  0  0
   -0.2612   56.5948   34.1387 C   0  0  0  0  0  0
   -0.4304   55.1996   33.7630 C   0  0  0  0  0  0
    0.4740   54.4852   33.3637 O   0  0  0  0  0  0
   -1.7035   54.7480   33.7861 N   0  0  0  0  0  0
   -2.7615   55.5647   34.0348 C   0  0  0  0  0  0
   -2.6548   56.8926   34.2820 C   0  0  0  0  0  0
   -3.8396   57.6441   34.6116 C   0  0  0  0  0  0
   -3.9126   58.3480   35.6121 O   0  0  0  0  0  0
   -4.8613   57.5224   33.7630 N   0  0  0  0  0  0
   -1.8121   53.7758   33.5440 H   0  0  0  0  0  0
    2.7096   59.9286   32.1559 H   0  0  0  0  0  0
    0.9239   58.3958   32.7265 H   0  0  0  0  0  0
    1.2689   62.7480   34.9942 H   0  0  0  0  0  0
   -1.8491   59.3454   34.9412 H   0  0  0  0  0  0
    0.7609   56.9187   34.2378 H   0  0  0  0  0  0
   -3.6927   55.0108   34.0195 H   0  0  0  0  0  0
   -5.7292   57.9993   33.9446 H   0  0  0  0  0  0
   -4.7601   56.9694   32.9253 H   0  0  0  0  0  0
  1  6  1  0  0  0
  1  2  2  0  0  0
  1 21  1  0  0  0
  2  3  1  0  0  0
  2 22  1  0  0  0
  3  4  2  0  0  0
  3  9  1  0  0  0
  4  5  1  0  0  0
  4  8  1  0  0  0
  5  6  2  0  0  0
  5 23  1  0  0  0
  6  7  1  0  0  0
  9 10  1  0  0  0
  9 24  1  0  0  0
 10 16  1  0  0  0
 10 11  2  0  0  0
 11 12  1  0  0  0
 11 25  1  0  0  0
 12 13  2  0  0  0
 12 14  1  0  0  0
 14 20  1  0  0  0
 14 15  1  0  0  0
 15 16  2  0  0  0
 15 26  1  0  0  0
 16 17  1  0  0  0
 17 18  2  0  0  0
 17 19  1  0  0  0
 19 27  1  0  0  0
 19 28  1  0  0  0
M  END
> <s_m_entry_id>
65989

> <s_m_entry_name>
ligand_docking-pose.45

> <s_m_Source_Path>
/home/csk/Desktop/cluster/DUD-E-result/mp2k1

> <s_m_Source_File>
ligand_docking-pose.sdf

> <i_m_Source_File_Index>
45

> <i_lp_mmshare_version>
53161

> <r_lp_tautomer_probability>
0.999206294981429

> <s_lp_Force_Field>
OPLS_2005

> <r_lp_Energy>
29.251497

> <b_lp_Chiralities_Consistent>
1

> <s_lp_Variant>
396341-1

> <s_i_glide_gridfile>
glide-grid_3eqh

> <i_i_glide_lignum>
44

> <i_i_glide_rotatable_bonds>
3

> <r_i_docking_score>
-8.8591598992765

> <r_i_glide_ligand_efficiency>
-0.466271573646132

> <r_i_glide_ligand_efficiency_sa>
-1.24419983464836

> <r_i_glide_ligand_efficiency_ln>
-2.24598731177448

> <r_i_glide_gscore>
-8.8591598992765

> <r_i_glide_lipo>
-3.52257677520901

> <r_i_glide_hbond>
-0.572583289629009

> <r_i_glide_metal>
0

> <r_i_glide_rewards>
-1.70630483101531

> <r_i_glide_evdw>
-34.3255310058594

> <r_i_glide_ecoul>
-10.7932577133179

> <r_i_glide_erotb>
0.277570203867471

> <r_i_glide_esite>
0

> <r_i_glide_emodel>
-72.243402077689

> <r_i_glide_energy>
-45.1187887191772

> <r_i_glide_einternal>
0.831509053707123

> <i_i_glide_confnum>
1

> <i_i_glide_posenum>
37

> <r_i_glide_eff_state_penalty>
0

> <i_f3d_flags>
0

> <s_user_duplicate_titles>
396341

> <s_m_subgroup_title>
dock_pv

> <s_m_subgroupid>
dock_pv1

> <b_m_subgroup_collapsed>
0

$$$$
50972
                    3D
 Schrodinger Suite 2021-1.
 52 54  0  0  1  0            999 V2000
    3.6800   64.5973   33.9934 C   0  0  0  0  0  0
    3.1659   63.2876   34.0854 O   0  0  0  0  0  0
    2.3006   62.8331   33.1609 C   0  0  0  0  0  0
    1.9548   63.4745   32.1627 O   0  0  0  0  0  0
    1.8164   61.4556   33.4646 C   0  0  0  0  0  0
    1.0905   60.7762   32.4864 C   0  0  0  0  0  0
    0.5669   59.5236   32.7508 C   0  0  0  0  0  0
    0.7486   58.9164   33.9925 C   0  0  0  0  0  0
    1.5044   59.5763   34.9632 C   0  0  0  0  0  0
    2.0328   60.8382   34.7055 C   0  0  0  0  0  0
    0.1123   57.5585   34.2883 C   0  0  1  0  0  0
   -1.3954   57.6395   34.4957 C   0  0  0  0  0  0
   -1.8942   58.0338   35.7381 C   0  0  0  0  0  0
   -3.2593   57.9839   35.9910 C   0  0  0  0  0  0
   -4.1381   57.5481   35.0015 C   0  0  0  0  0  0
   -3.6654   57.1676   33.7435 C   0  0  0  0  0  0
   -2.2909   57.2371   33.4957 C   0  0  0  0  0  0
   -4.6191   56.6704   32.7248 C   0  0  0  0  0  0
   -4.3924   55.5856   31.9445 C   0  0  0  0  0  0
   -3.2920   54.7680   31.9705 N   0  0  0  0  0  0
   -5.5409   55.0068   30.7170 S   0  0  0  0  0  0
   -6.6009   53.9498   31.6850 C   0  0  0  0  0  0
   -6.0389   52.9085   32.4354 C   0  0  0  0  0  0
   -6.8522   52.0444   33.1675 C   0  0  0  0  0  0
   -8.2345   52.2159   33.1600 C   0  0  0  0  0  0
   -8.8045   53.2504   32.4182 C   0  0  0  0  0  0
   -7.9976   54.1190   31.6790 C   0  0  0  0  0  0
   -8.6153   55.1474   30.9610 N   0  0  0  0  0  0
   -5.8084   57.4587   32.6018 C   0  0  0  0  0  0
   -6.7334   58.1534   32.5634 N   0  0  0  0  0  0
    0.4740   56.5501   33.3630 O   0  0  0  0  0  0
    4.0740   64.8853   34.9632 H   0  0  0  0  0  0
    4.5026   64.6339   33.2819 H   0  0  0  0  0  0
    2.9213   65.3275   33.7104 H   0  0  0  0  0  0
    0.9135   61.2160   31.5157 H   0  0  0  0  0  0
   -0.0051   59.0369   31.9822 H   0  0  0  0  0  0
    1.6694   59.1271   35.9295 H   0  0  0  0  0  0
    2.5926   61.3288   35.4892 H   0  0  0  0  0  0
    0.5295   57.2060   35.2336 H   0  0  0  0  0  0
   -1.2191   58.3479   36.5219 H   0  0  0  0  0  0
   -3.6303   58.2662   36.9624 H   0  0  0  0  0  0
   -5.1921   57.4907   35.2269 H   0  0  0  0  0  0
   -1.9134   56.9569   32.5244 H   0  0  0  0  0  0
   -2.5637   54.8910   32.6608 H   0  0  0  0  0  0
   -3.1886   54.0238   31.2954 H   0  0  0  0  0  0
   -4.9712   52.7519   32.4441 H   0  0  0  0  0  0
   -6.4091   51.2426   33.7416 H   0  0  0  0  0  0
   -8.8630   51.5482   33.7316 H   0  0  0  0  0  0
   -9.8780   53.3740   32.4241 H   0  0  0  0  0  0
   -8.0431   55.8269   30.4653 H   0  0  0  0  0  0
   -9.6210   55.2199   30.9448 H   0  0  0  0  0  0
    0.3851   56.9075   32.4657 H   0  0  0  0  0  0
  1  2  1  0  0  0
  1 32  1  0  0  0
  1 33  1  0  0  0
  1 34  1  0  0  0
  2  3  1  0  0  0
  3  4  2  0  0  0
  3  5  1  0  0  0
  5 10  1  0  0  0
  5  6  2  0  0  0
  6  7  1  0  0  0
  6 35  1  0  0  0
  7  8  2  0  0  0
  7 36  1  0  0  0
  8  9  1  0  0  0
  8 11  1  0  0  0
  9 10  2  0  0  0
  9 37  1  0  0  0
 10 38  1  0  0  0
 11 12  1  0  0  0
 11 31  1  0  0  0
 11 39  1  0  0  0
 12 17  1  0  0  0
 12 13  2  0  0  0
 13 14  1  0  0  0
 13 40  1  0  0  0
 14 15  2  0  0  0
 14 41  1  0  0  0
 15 16  1  0  0  0
 15 42  1  0  0  0
 16 17  2  0  0  0
 16 18  1  0  0  0
 17 43  1  0  0  0
 18 19  2  0  0  0
 18 29  1  0  0  0
 19 20  1  0  0  0
 19 21  1  0  0  0
 20 44  1  0  0  0
 20 45  1  0  0  0
 21 22  1  0  0  0
 22 27  1  0  0  0
 22 23  2  0  0  0
 23 24  1  0  0  0
 23 46  1  0  0  0
 24 25  2  0  0  0
 24 47  1  0  0  0
 25 26  1  0  0  0
 25 48  1  0  0  0
 26 27  2  0  0  0
 26 49  1  0  0  0
 27 28  1  0  0  0
 28 50  1  0  0  0
 28 51  1  0  0  0
 29 30  3  0  0  0
 31 52  1  0  0  0
M  END
> <s_m_entry_id>
65990

> <s_m_entry_name>
ligand_docking-pose.46

> <s_m_Source_Path>
/home/csk/Desktop/cluster/DUD-E-result/mp2k1

> <s_m_Source_File>
ligand_docking-pose.sdf

> <i_m_Source_File_Index>
46

> <i_lp_mmshare_version>
53161

> <r_lp_tautomer_probability>
0.499999974950001

> <s_lp_Force_Field>
OPLS_2005

> <r_lp_Energy>
30.21203

> <b_lp_Chiralities_Consistent>
1

> <s_lp_Variant>
50972-2

> <s_i_glide_gridfile>
glide-grid_3eqh

> <i_i_glide_lignum>
406

> <i_i_glide_rotatable_bonds>
8

> <r_i_docking_score>
-8.82745755964728

> <r_i_glide_ligand_efficiency>
-0.284756695472493

> <r_i_glide_ligand_efficiency_sa>
-0.894529172772263

> <r_i_glide_ligand_efficiency_ln>
-1.99086220878535

> <r_i_glide_gscore>
-8.82745755964728

> <r_i_glide_lipo>
-4.38240673823627

> <r_i_glide_hbond>
-0.466630333471144

> <r_i_glide_metal>
0

> <r_i_glide_rewards>
-0.834665797879606

> <r_i_glide_evdw>
-52.4867630004883

> <r_i_glide_ecoul>
-7.24276399612427

> <r_i_glide_erotb>
0.640942350993458

> <r_i_glide_esite>
-0.073944291610666

> <r_i_glide_emodel>
-86.2309289157285

> <r_i_glide_energy>
-59.7295269966125

> <r_i_glide_einternal>
4.70256757736206

> <i_i_glide_confnum>
9

> <i_i_glide_posenum>
135

> <r_i_glide_eff_state_penalty>
0

> <i_f3d_flags>
0

> <s_user_duplicate_titles>
50972

> <s_m_subgroup_title>
dock_pv

> <s_m_subgroupid>
dock_pv1

> <b_m_subgroup_collapsed>
0

$$$$
51507
                    3D
 Schrodinger Suite 2021-1.
 52 55  0  0  1  0            999 V2000
   -8.2857   58.2970   33.5725 C   0  0  0  0  0  0
   -7.1038   58.5718   32.8989 C   0  0  0  0  0  0
   -6.2334   57.5454   32.5441 C   0  0  0  0  0  0
   -6.5162   56.1903   32.8646 C   0  0  0  0  0  0
   -7.7519   55.9173   33.5422 C   0  0  0  0  0  0
   -8.6166   56.9863   33.8933 C   0  0  0  0  0  0
   -8.1021   54.5818   33.8485 C   0  0  0  0  0  0
   -7.2542   53.5372   33.5078 C   0  0  0  0  0  0
   -6.0442   53.7903   32.8779 C   0  0  0  0  0  0
   -5.6418   55.0910   32.5458 C   0  0  0  0  0  0
   -4.2920   55.2589   31.8164 C   0  0  2  0  0  0
   -3.0838   55.6087   32.6917 C   0  0  0  0  0  0
   -2.2483   54.5816   33.1322 C   0  0  0  0  0  0
   -1.0373   54.8460   33.7645 C   0  0  0  0  0  0
   -0.6917   56.1598   34.0607 C   0  0  0  0  0  0
   -1.5775   57.1936   33.7603 C   0  0  0  0  0  0
   -2.7434   56.9246   33.0304 C   0  0  0  0  0  0
   -1.3967   58.5021   34.3938 C   0  0  0  0  0  0
   -0.4404   59.4020   34.0802 C   0  0  0  0  0  0
    0.5062   59.2365   33.0978 N   0  0  0  0  0  0
   -0.3251   60.9654   34.9631 S   0  0  0  0  0  0
    0.8304   61.9449   34.0268 C   0  0  0  0  0  0
    0.3522   62.7224   32.9723 C   0  0  0  0  0  0
    1.2350   63.4645   32.1895 C   0  0  0  0  0  0
    2.5926   63.4430   32.4704 C   0  0  0  0  0  0
    3.0728   62.7242   33.5577 C   0  0  0  0  0  0
    2.2006   61.9528   34.3256 C   0  0  0  0  0  0
    2.7201   61.1844   35.3631 N   0  0  0  0  0  0
   -2.3311   58.6986   35.4519 C   0  0  0  0  0  0
   -3.1259   58.7479   36.2898 N   0  0  0  0  0  0
   -4.3330   55.9480   30.5814 O   0  0  0  0  0  0
   -8.9575   59.1027   33.8322 H   0  0  0  0  0  0
   -6.8616   59.5871   32.6339 H   0  0  0  0  0  0
   -5.3499   57.7924   31.9865 H   0  0  0  0  0  0
   -9.5444   56.7744   34.4072 H   0  0  0  0  0  0
   -9.0364   54.3766   34.3532 H   0  0  0  0  0  0
   -7.5279   52.5216   33.7511 H   0  0  0  0  0  0
   -5.4055   52.9516   32.6442 H   0  0  0  0  0  0
   -4.0672   54.2621   31.4309 H   0  0  0  0  0  0
   -2.5300   53.5598   32.9631 H   0  0  0  0  0  0
   -0.3920   54.0319   34.0634 H   0  0  0  0  0  0
    0.2181   56.3608   34.6068 H   0  0  0  0  0  0
   -3.3968   57.7434   32.7778 H   0  0  0  0  0  0
    0.4775   58.4425   32.4674 H   0  0  0  0  0  0
    1.2266   59.9288   32.9495 H   0  0  0  0  0  0
   -0.7093   62.7483   32.7818 H   0  0  0  0  0  0
    0.8745   64.0581   31.3633 H   0  0  0  0  0  0
    3.2742   63.9690   31.8301 H   0  0  0  0  0  0
    4.1299   62.7479   33.7687 H   0  0  0  0  0  0
    2.0876   60.6028   35.8937 H   0  0  0  0  0  0
    3.7188   61.1461   35.5065 H   0  0  0  0  0  0
   -4.0735   56.8721   30.6920 H   0  0  0  0  0  0
  1  6  1  0  0  0
  1  2  2  0  0  0
  1 32  1  0  0  0
  2  3  1  0  0  0
  2 33  1  0  0  0
  3  4  2  0  0  0
  3 34  1  0  0  0
  4 10  1  0  0  0
  4  5  1  0  0  0
  5  6  2  0  0  0
  5  7  1  0  0  0
  6 35  1  0  0  0
  7  8  2  0  0  0
  7 36  1  0  0  0
  8  9  1  0  0  0
  8 37  1  0  0  0
  9 10  2  0  0  0
  9 38  1  0  0  0
 10 11  1  0  0  0
 11 12  1  0  0  0
 11 31  1  0  0  0
 11 39  1  0  0  0
 12 17  1  0  0  0
 12 13  2  0  0  0
 13 14  1  0  0  0
 13 40  1  0  0  0
 14 15  2  0  0  0
 14 41  1  0  0  0
 15 16  1  0  0  0
 15 42  1  0  0  0
 16 17  2  0  0  0
 16 18  1  0  0  0
 17 43  1  0  0  0
 18 19  2  0  0  0
 18 29  1  0  0  0
 19 20  1  0  0  0
 19 21  1  0  0  0
 20 44  1  0  0  0
 20 45  1  0  0  0
 21 22  1  0  0  0
 22 27  1  0  0  0
 22 23  2  0  0  0
 23 24  1  0  0  0
 23 46  1  0  0  0
 24 25  2  0  0  0
 24 47  1  0  0  0
 25 26  1  0  0  0
 25 48  1  0  0  0
 26 27  2  0  0  0
 26 49  1  0  0  0
 27 28  1  0  0  0
 28 50  1  0  0  0
 28 51  1  0  0  0
 29 30  3  0  0  0
 31 52  1  0  0  0
M  END
> <s_m_entry_id>
65991

> <s_m_entry_name>
ligand_docking-pose.47

> <s_m_Source_Path>
/home/csk/Desktop/cluster/DUD-E-result/mp2k1

> <s_m_Source_File>
ligand_docking-pose.sdf

> <i_m_Source_File_Index>
47

> <i_lp_mmshare_version>
53161

> <r_lp_tautomer_probability>
0.499999974950001

> <s_lp_Force_Field>
OPLS_2005

> <r_lp_Energy>
37.328812

> <b_lp_Chiralities_Consistent>
1

> <s_lp_Variant>
51507-1

> <s_i_glide_gridfile>
glide-grid_3eqh

> <i_i_glide_lignum>
7

> <i_i_glide_rotatable_bonds>
6

> <r_i_docking_score>
-8.8203033378118

> <r_i_glide_ligand_efficiency>
-0.284525914122961

> <r_i_glide_ligand_efficiency_sa>
-0.893804200706742

> <r_i_glide_ligand_efficiency_ln>
-1.98924871251088

> <r_i_glide_gscore>
-8.8203033378118

> <r_i_glide_lipo>
-4.69141935025275

> <r_i_glide_hbond>
-0.733172090230557

> <r_i_glide_metal>
0

> <r_i_glide_rewards>
-0.981545640187638

> <r_i_glide_evdw>
-45.8070068359375

> <r_i_glide_ecoul>
-4.50857973098755

> <r_i_glide_erotb>
0.552471044304153

> <r_i_glide_esite>
0

> <r_i_glide_emodel>
-70.5809866717793

> <r_i_glide_energy>
-50.315586566925

> <r_i_glide_einternal>
7.00716781616211

> <i_i_glide_confnum>
56

> <i_i_glide_posenum>
355

> <r_i_glide_eff_state_penalty>
0

> <i_f3d_flags>
0

> <s_user_duplicate_titles>
51507

> <s_m_subgroup_title>
dock_pv

> <s_m_subgroupid>
dock_pv1

> <b_m_subgroup_collapsed>
0

$$$$
51281
                    3D
 Schrodinger Suite 2021-1.
 45 47  0  0  1  0            999 V2000
   -9.9135   51.6702   32.1794 C   0  0  0  0  0  0
   -9.7099   52.0691   33.4986 C   0  0  0  0  0  0
   -9.2790   53.3687   33.7698 C   0  0  0  0  0  0
   -9.0398   54.2683   32.7229 C   0  0  0  0  0  0
   -9.2806   53.8757   31.3934 C   0  0  0  0  0  0
   -9.7178   52.5743   31.1333 C   0  0  0  0  0  0
   -9.0807   54.7443   30.3147 N   0  0  0  0  0  0
   -8.3914   55.8809   33.1168 S   0  0  0  0  0  0
   -6.6069   55.6332   33.2816 C   0  0  0  0  0  0
   -5.7400   56.6798   33.3398 C   0  0  0  0  0  0
   -6.2734   58.0095   33.2623 C   0  0  0  0  0  0
   -6.7259   59.0790   33.2573 N   0  0  0  0  0  0
   -4.2437   56.5802   33.4846 C   0  0  0  0  0  0
   -3.5194   55.4439   33.0853 C   0  0  0  0  0  0
   -2.1631   55.3157   33.3626 C   0  0  0  0  0  0
   -1.4810   56.3505   33.9934 C   0  0  0  0  0  0
   -2.1390   57.5331   34.3465 C   0  0  0  0  0  0
   -3.5200   57.6231   34.0918 C   0  0  0  0  0  0
   -1.3595   58.6380   35.0911 C   0  0  1  0  0  0
   -0.2509   59.3606   34.2910 C   0  0  0  0  0  0
   -0.1985   60.7617   34.1654 C   0  0  0  0  0  0
    0.8212   61.3432   33.4126 C   0  0  0  0  0  0
    1.7668   60.5273   32.7928 C   0  0  0  0  0  0
    1.6681   59.1463   32.9680 C   0  0  0  0  0  0
    0.6909   58.5656   33.7113 N   0  0  0  0  0  0
   -2.2165   59.5431   35.7631 O   0  0  0  0  0  0
   -6.2801   54.3031   33.3629 N   0  0  0  0  0  0
  -10.2240   50.6584   31.9666 H   0  0  0  0  0  0
   -9.8687   51.3685   34.3083 H   0  0  0  0  0  0
   -9.1071   53.6703   34.7937 H   0  0  0  0  0  0
   -9.8956   52.2574   30.1167 H   0  0  0  0  0  0
   -8.7046   55.6711   30.4809 H   0  0  0  0  0  0
   -9.2885   54.4461   29.3726 H   0  0  0  0  0  0
   -3.9891   54.6299   32.5580 H   0  0  0  0  0  0
   -1.6363   54.4176   33.0711 H   0  0  0  0  0  0
   -0.4304   56.2298   34.2065 H   0  0  0  0  0  0
   -4.0480   58.5111   34.3992 H   0  0  0  0  0  0
   -0.8345   58.1133   35.8962 H   0  0  0  0  0  0
   -0.9337   61.4039   34.6290 H   0  0  0  0  0  0
    0.8741   62.4164   33.3136 H   0  0  0  0  0  0
    2.5554   60.9563   32.1909 H   0  0  0  0  0  0
    2.3715   58.4792   32.4943 H   0  0  0  0  0  0
   -2.5406   60.1686   35.0940 H   0  0  0  0  0  0
   -5.3458   54.0096   33.6143 H   0  0  0  0  0  0
   -6.9962   53.5945   33.3018 H   0  0  0  0  0  0
  1  6  1  0  0  0
  1  2  2  0  0  0
  1 28  1  0  0  0
  2  3  1  0  0  0
  2 29  1  0  0  0
  3  4  2  0  0  0
  3 30  1  0  0  0
  4  5  1  0  0  0
  4  8  1  0  0  0
  5  6  2  0  0  0
  5  7  1  0  0  0
  6 31  1  0  0  0
  7 32  1  0  0  0
  7 33  1  0  0  0
  8  9  1  0  0  0
  9 10  2  0  0  0
  9 27  1  0  0  0
 10 11  1  0  0  0
 10 13  1  0  0  0
 11 12  3  0  0  0
 13 18  1  0  0  0
 13 14  2  0  0  0
 14 15  1  0  0  0
 14 34  1  0  0  0
 15 16  2  0  0  0
 15 35  1  0  0  0
 16 17  1  0  0  0
 16 36  1  0  0  0
 17 18  2  0  0  0
 17 19  1  0  0  0
 18 37  1  0  0  0
 19 20  1  0  0  0
 19 26  1  0  0  0
 19 38  1  0  0  0
 20 25  1  0  0  0
 20 21  2  0  0  0
 21 22  1  0  0  0
 21 39  1  0  0  0
 22 23  2  0  0  0
 22 40  1  0  0  0
 23 24  1  0  0  0
 23 41  1  0  0  0
 24 25  2  0  0  0
 24 42  1  0  0  0
 26 43  1  0  0  0
 27 44  1  0  0  0
 27 45  1  0  0  0
M  END
> <s_m_entry_id>
65992

> <s_m_entry_name>
ligand_docking-pose.48

> <s_m_Source_Path>
/home/csk/Desktop/cluster/DUD-E-result/mp2k1

> <s_m_Source_File>
ligand_docking-pose.sdf

> <i_m_Source_File_Index>
48

> <i_lp_mmshare_version>
53161

> <r_lp_tautomer_probability>
0.499999974950001

> <s_lp_Force_Field>
OPLS_2005

> <r_lp_Energy>
28.820799

> <b_lp_Chiralities_Consistent>
1

> <s_lp_Variant>
51281-2

> <s_i_glide_gridfile>
glide-grid_3eqh

> <i_i_glide_lignum>
90

> <i_i_glide_rotatable_bonds>
6

> <r_i_docking_score>
-8.81841700847386

> <r_i_glide_ligand_efficiency>
-0.326608037350884

> <r_i_glide_ligand_efficiency_sa>
-0.979824110976205

> <r_i_glide_ligand_efficiency_ln>
-2.05278209660603

> <r_i_glide_gscore>
-8.81841700847386

> <r_i_glide_lipo>
-4.45207319653397

> <r_i_glide_hbond>
-0.16

> <r_i_glide_metal>
0

> <r_i_glide_rewards>
-1.21360924434025

> <r_i_glide_evdw>
-46.8293991088867

> <r_i_glide_ecoul>
-7.07933330535889

> <r_i_glide_erotb>
0.482646837387604

> <r_i_glide_esite>
-0.0720114537390718

> <r_i_glide_emodel>
-78.6972896580023

> <r_i_glide_energy>
-53.9087324142456

> <r_i_glide_einternal>
7.5750036239624

> <i_i_glide_confnum>
67

> <i_i_glide_posenum>
384

> <r_i_glide_eff_state_penalty>
0

> <i_f3d_flags>
0

> <s_user_duplicate_titles>
51281

> <s_m_subgroup_title>
dock_pv

> <s_m_subgroupid>
dock_pv1

> <b_m_subgroup_collapsed>
0

$$$$
396352
                    3D
 Schrodinger Suite 2021-1.
 31 32  0  0  1  0            999 V2000
   -5.3395   55.8385   32.4215 C   0  0  0  0  0  0
   -4.1569   56.3338   33.1366 N   0  0  0  0  0  0
   -2.9639   55.6499   33.1234 C   0  0  0  0  0  0
   -1.8203   56.0413   33.7414 C   0  0  0  0  0  0
   -1.8683   57.3294   34.4450 C   0  0  0  0  0  0
   -3.0671   57.9546   34.5113 C   0  0  0  0  0  0
   -4.3044   57.4561   33.9222 C   0  0  0  0  0  0
   -5.3694   58.0278   34.1630 O   0  0  0  0  0  0
   -0.7754   57.9293   35.0292 N   0  0  0  0  0  0
   -0.0968   59.0132   34.4605 C   0  0  0  0  0  0
    0.7605   58.8348   33.3700 C   0  0  0  0  0  0
    1.4201   59.9209   32.7958 C   0  0  0  0  0  0
    1.2349   61.1974   33.3209 C   0  0  0  0  0  0
    0.3843   61.3759   34.4093 C   0  0  0  0  0  0
   -0.2894   60.2981   34.9742 C   0  0  0  0  0  0
   -1.1260   60.5129   36.0184 F   0  0  0  0  0  0
    2.1367   62.6913   32.5623 Br  0  0  0  0  0  0
   -0.6543   55.1890   33.7630 C   0  0  0  0  0  0
    0.4741   55.5480   33.4574 O   0  0  0  0  0  0
   -0.8842   53.9480   34.1630 N   0  0  0  0  0  0
   -5.0868   55.6416   31.3789 H   0  0  0  0  0  0
   -6.1767   56.5394   32.4167 H   0  0  0  0  0  0
   -5.6865   54.9063   32.8682 H   0  0  0  0  0  0
   -3.0668   54.7016   32.6117 H   0  0  0  0  0  0
   -3.1260   58.9050   35.0140 H   0  0  0  0  0  0
   -0.8945   58.1051   36.0154 H   0  0  0  0  0  0
    0.9256   57.8548   32.9630 H   0  0  0  0  0  0
    2.0740   59.7663   31.9502 H   0  0  0  0  0  0
    0.2353   62.3480   34.8291 H   0  0  0  0  0  0
   -1.8116   53.6761   34.4490 H   0  0  0  0  0  0
   -0.1301   53.2739   34.1978 H   0  0  0  0  0  0
  1  2  1  0  0  0
  1 21  1  0  0  0
  1 22  1  0  0  0
  1 23  1  0  0  0
  2  7  1  0  0  0
  2  3  1  0  0  0
  3  4  2  0  0  0
  3 24  1  0  0  0
  4  5  1  0  0  0
  4 18  1  0  0  0
  5  6  2  0  0  0
  5  9  1  0  0  0
  6  7  1  0  0  0
  6 25  1  0  0  0
  7  8  2  0  0  0
  9 10  1  0  0  0
  9 26  1  0  0  0
 10 15  1  0  0  0
 10 11  2  0  0  0
 11 12  1  0  0  0
 11 27  1  0  0  0
 12 13  2  0  0  0
 12 28  1  0  0  0
 13 14  1  0  0  0
 13 17  1  0  0  0
 14 15  2  0  0  0
 14 29  1  0  0  0
 15 16  1  0  0  0
 18 19  2  0  0  0
 18 20  1  0  0  0
 20 30  1  0  0  0
 20 31  1  0  0  0
M  END
> <s_m_entry_id>
65993

> <s_m_entry_name>
ligand_docking-pose.49

> <s_m_Source_Path>
/home/csk/Desktop/cluster/DUD-E-result/mp2k1

> <s_m_Source_File>
ligand_docking-pose.sdf

> <i_m_Source_File_Index>
49

> <i_lp_mmshare_version>
53161

> <r_lp_tautomer_probability>
0.999999999982488

> <s_lp_Force_Field>
OPLS_2005

> <r_lp_Energy>
31.202394

> <b_lp_Chiralities_Consistent>
1

> <s_lp_Variant>
396352-1

> <s_i_glide_gridfile>
glide-grid_3eqh

> <i_i_glide_lignum>
334

> <i_i_glide_rotatable_bonds>
3

> <r_i_docking_score>
-8.80618237065608

> <r_i_glide_ligand_efficiency>
-0.440309118532804

> <r_i_glide_ligand_efficiency_sa>
-1.19518282689934

> <r_i_glide_ligand_efficiency_ln>
-2.20389700004186

> <r_i_glide_gscore>
-8.80618237065608

> <r_i_glide_lipo>
-3.14176623179088

> <r_i_glide_hbond>
-0.662854473127055

> <r_i_glide_metal>
0

> <r_i_glide_rewards>
-2.29826217444478

> <r_i_glide_evdw>
-36.5585594177246

> <r_i_glide_ecoul>
-8.01772975921631

> <r_i_glide_erotb>
0.327287943475314

> <r_i_glide_esite>
0

> <r_i_glide_emodel>
-63.8544146007323

> <r_i_glide_energy>
-44.5762891769409

> <r_i_glide_einternal>
8.13804340362549

> <i_i_glide_confnum>
15

> <i_i_glide_posenum>
159

> <r_i_glide_eff_state_penalty>
0

> <i_f3d_flags>
0

> <s_user_duplicate_titles>
396352

> <s_m_subgroup_title>
dock_pv

> <s_m_subgroupid>
dock_pv1

> <b_m_subgroup_collapsed>
0

$$$$
51034
                    3D
 Schrodinger Suite 2021-1.
 45 47  0  0  1  0            999 V2000
   -7.7541   52.3500   32.4900 C   0  0  0  0  0  0
   -6.4433   52.2836   32.9580 C   0  0  0  0  0  0
   -5.5263   53.2651   32.5829 C   0  0  0  0  0  0
   -5.9267   54.3160   31.7503 C   0  0  0  0  0  0
   -7.2440   54.3736   31.2787 C   0  0  0  0  0  0
   -8.1571   53.3892   31.6509 C   0  0  0  0  0  0
   -4.9337   55.4092   31.3678 C   0  0  0  0  0  0
   -4.4124   56.2069   32.5596 C   0  0  0  0  0  0
   -5.3115   56.8035   33.4486 C   0  0  0  0  0  0
   -4.8402   57.4939   34.5623 C   0  0  0  0  0  0
   -3.4689   57.6034   34.7898 C   0  0  0  0  0  0
   -2.5469   57.0542   33.8872 C   0  0  0  0  0  0
   -3.0359   56.3485   32.7765 C   0  0  0  0  0  0
   -1.0831   57.2320   34.0582 C   0  0  0  0  0  0
   -0.4984   58.3887   34.4395 C   0  0  0  0  0  0
   -1.1262   59.5568   34.7755 N   0  0  0  0  0  0
    1.2736   58.5773   34.5633 S   0  0  0  0  0  0
    1.5516   60.2224   33.9849 C   0  0  0  0  0  0
    2.2526   61.1127   34.7969 C   0  0  0  0  0  0
    2.4762   62.4093   34.3518 C   0  0  0  0  0  0
    1.9871   62.8117   33.1117 C   0  0  0  0  0  0
    1.2711   61.9265   32.3128 C   0  0  0  0  0  0
    1.0654   60.6190   32.7398 C   0  0  0  0  0  0
    2.2215   64.1080   32.6649 N   0  0  0  0  0  0
   -0.2760   56.0711   33.8455 C   0  0  0  0  0  0
    0.4186   55.1479   33.7627 N   0  0  0  0  0  0
   -8.4657   51.5918   32.7830 H   0  0  0  0  0  0
   -6.1400   51.4730   33.6068 H   0  0  0  0  0  0
   -4.5100   53.2127   32.9500 H   0  0  0  0  0  0
   -7.5598   55.1837   30.6342 H   0  0  0  0  0  0
   -9.1755   53.4367   31.2931 H   0  0  0  0  0  0
   -5.3852   56.1115   30.6617 H   0  0  0  0  0  0
   -4.1030   54.9462   30.8324 H   0  0  0  0  0  0
   -6.3765   56.7110   33.2852 H   0  0  0  0  0  0
   -5.5477   57.9157   35.2604 H   0  0  0  0  0  0
   -3.1257   58.1231   35.6736 H   0  0  0  0  0  0
   -2.3437   55.9140   32.0686 H   0  0  0  0  0  0
   -2.0984   59.7312   34.5405 H   0  0  0  0  0  0
   -0.5783   60.3649   35.0320 H   0  0  0  0  0  0
    2.6267   60.7981   35.7588 H   0  0  0  0  0  0
    3.0375   63.1004   34.9634 H   0  0  0  0  0  0
    0.8798   62.2463   31.3634 H   0  0  0  0  0  0
    0.5287   59.9202   32.1121 H   0  0  0  0  0  0
    2.0376   64.3133   31.6943 H   0  0  0  0  0  0
    2.9100   64.6653   33.1558 H   0  0  0  0  0  0
  1  6  1  0  0  0
  1  2  2  0  0  0
  1 27  1  0  0  0
  2  3  1  0  0  0
  2 28  1  0  0  0
  3  4  2  0  0  0
  3 29  1  0  0  0
  4  5  1  0  0  0
  4  7  1  0  0  0
  5  6  2  0  0  0
  5 30  1  0  0  0
  6 31  1  0  0  0
  7  8  1  0  0  0
  7 32  1  0  0  0
  7 33  1  0  0  0
  8 13  1  0  0  0
  8  9  2  0  0  0
  9 10  1  0  0  0
  9 34  1  0  0  0
 10 11  2  0  0  0
 10 35  1  0  0  0
 11 12  1  0  0  0
 11 36  1  0  0  0
 12 13  2  0  0  0
 12 14  1  0  0  0
 13 37  1  0  0  0
 14 15  2  0  0  0
 14 25  1  0  0  0
 15 16  1  0  0  0
 15 17  1  0  0  0
 16 38  1  0  0  0
 16 39  1  0  0  0
 17 18  1  0  0  0
 18 23  1  0  0  0
 18 19  2  0  0  0
 19 20  1  0  0  0
 19 40  1  0  0  0
 20 21  2  0  0  0
 20 41  1  0  0  0
 21 22  1  0  0  0
 21 24  1  0  0  0
 22 23  2  0  0  0
 22 42  1  0  0  0
 23 43  1  0  0  0
 24 44  1  0  0  0
 24 45  1  0  0  0
 25 26  3  0  0  0
M  END
> <s_m_entry_id>
65994

> <s_m_entry_name>
ligand_docking-pose.50

> <s_m_Source_Path>
/home/csk/Desktop/cluster/DUD-E-result/mp2k1

> <s_m_Source_File>
ligand_docking-pose.sdf

> <i_m_Source_File_Index>
50

> <i_lp_mmshare_version>
53161

> <r_lp_tautomer_probability>
0.499999974950001

> <s_lp_Force_Field>
OPLS_2005

> <r_lp_Energy>
27.327242

> <b_lp_Chiralities_Consistent>
1

> <s_lp_Variant>
51034-1

> <s_i_glide_gridfile>
glide-grid_3eqh

> <i_i_glide_lignum>
16

> <i_i_glide_rotatable_bonds>
5

> <r_i_docking_score>
-8.75431809375988

> <r_i_glide_ligand_efficiency>
-0.336704542067688

> <r_i_glide_ligand_efficiency_sa>
-0.997485881007127

> <r_i_glide_ligand_efficiency_ln>
-2.0559228790589

> <r_i_glide_gscore>
-8.75431809375988

> <r_i_glide_lipo>
-4.39862555581232

> <r_i_glide_hbond>
-0.412458543616621

> <r_i_glide_metal>
0

> <r_i_glide_rewards>
-1.74380346988421

> <r_i_glide_evdw>
-47.7147674560547

> <r_i_glide_ecoul>
-3.6706805229187

> <r_i_glide_erotb>
0.749080965569973

> <r_i_glide_esite>
-0.0121710387761553

> <r_i_glide_emodel>
-74.876339275327

> <r_i_glide_energy>
-51.3854479789734

> <r_i_glide_einternal>
6.2457070350647

> <i_i_glide_confnum>
91

> <i_i_glide_posenum>
338

> <r_i_glide_eff_state_penalty>
0

> <i_f3d_flags>
0

> <s_user_duplicate_titles>
51034

> <s_m_subgroup_title>
dock_pv

> <s_m_subgroupid>
dock_pv1

> <b_m_subgroup_collapsed>
0

$$$$
51609
                    3D
 Schrodinger Suite 2021-1.
 49 51  0  0  1  0            999 V2000
   -3.3776   57.9478   35.9775 C   0  0  0  0  0  0
   -2.0152   58.0482   35.7310 C   0  0  0  0  0  0
   -1.5066   57.7778   34.4584 C   0  0  0  0  0  0
   -2.3836   57.3772   33.4423 C   0  0  0  0  0  0
   -3.7565   57.2392   33.6889 C   0  0  0  0  0  0
   -4.2429   57.5476   34.9629 C   0  0  0  0  0  0
   -4.6935   56.7575   32.6485 C   0  0  0  0  0  0
   -4.4261   55.7138   31.8260 C   0  0  0  0  0  0
   -3.2980   54.9353   31.8291 N   0  0  0  0  0  0
   -5.5380   55.1478   30.5631 S   0  0  0  0  0  0
   -6.6256   54.0622   31.4647 C   0  0  0  0  0  0
   -6.0806   53.0595   32.2774 C   0  0  0  0  0  0
   -6.9110   52.1406   32.9193 C   0  0  0  0  0  0
   -8.2915   52.2197   32.7493 C   0  0  0  0  0  0
   -8.8471   53.2244   31.9626 C   0  0  0  0  0  0
   -8.0232   54.1483   31.3207 C   0  0  0  0  0  0
   -8.6378   55.1448   30.5633 N   0  0  0  0  0  0
   -9.1239   51.2937   33.3629 N   0  0  0  0  0  0
   -5.9127   57.5051   32.5582 C   0  0  0  0  0  0
   -6.8685   58.1610   32.5630 N   0  0  0  0  0  0
   -0.0023   57.8985   34.2097 C   0  0  2  0  0  0
    0.4738   59.3070   33.8150 C   0  0  0  0  0  0
   -0.2599   60.4336   34.2131 C   0  0  0  0  0  0
    0.1467   61.7119   33.8613 C   0  0  0  0  0  0
    1.3175   61.8852   33.1294 C   0  0  0  0  0  0
    2.0681   60.7794   32.7280 C   0  0  0  0  0  0
    1.6427   59.4948   33.0627 C   0  0  0  0  0  0
    1.7440   63.2341   32.8100 C   0  0  0  0  0  0
    2.0740   64.3126   32.5631 N   0  0  0  0  0  0
    0.4739   56.8679   33.3632 O   0  0  0  0  0  0
   -3.7581   58.1664   36.9627 H   0  0  0  0  0  0
   -1.3549   58.3516   36.5289 H   0  0  0  0  0  0
   -1.9968   57.1749   32.4541 H   0  0  0  0  0  0
   -5.2957   57.4416   35.1827 H   0  0  0  0  0  0
   -2.5756   55.0711   32.5210 H   0  0  0  0  0  0
   -3.1793   54.1985   31.1486 H   0  0  0  0  0  0
   -5.0128   52.9658   32.3984 H   0  0  0  0  0  0
   -6.4768   51.3617   33.5300 H   0  0  0  0  0  0
   -9.9195   53.2864   31.8521 H   0  0  0  0  0  0
   -8.0719   55.8918   30.1631 H   0  0  0  0  0  0
   -9.6365   55.1399   30.4347 H   0  0  0  0  0  0
   -8.7293   50.6781   34.0593 H   0  0  0  0  0  0
  -10.1223   51.4236   33.3058 H   0  0  0  0  0  0
    0.4901   57.7049   35.1641 H   0  0  0  0  0  0
   -1.1676   60.3443   34.7879 H   0  0  0  0  0  0
   -0.4566   62.5554   34.1716 H   0  0  0  0  0  0
    2.9813   60.9029   32.1629 H   0  0  0  0  0  0
    2.2347   58.6499   32.7434 H   0  0  0  0  0  0
    0.3684   57.1478   32.4401 H   0  0  0  0  0  0
  1  6  1  0  0  0
  1  2  2  0  0  0
  1 31  1  0  0  0
  2  3  1  0  0  0
  2 32  1  0  0  0
  3  4  2  0  0  0
  3 21  1  0  0  0
  4  5  1  0  0  0
  4 33  1  0  0  0
  5  6  2  0  0  0
  5  7  1  0  0  0
  6 34  1  0  0  0
  7  8  2  0  0  0
  7 19  1  0  0  0
  8  9  1  0  0  0
  8 10  1  0  0  0
  9 35  1  0  0  0
  9 36  1  0  0  0
 10 11  1  0  0  0
 11 16  1  0  0  0
 11 12  2  0  0  0
 12 13  1  0  0  0
 12 37  1  0  0  0
 13 14  2  0  0  0
 13 38  1  0  0  0
 14 15  1  0  0  0
 14 18  1  0  0  0
 15 16  2  0  0  0
 15 39  1  0  0  0
 16 17  1  0  0  0
 17 40  1  0  0  0
 17 41  1  0  0  0
 18 42  1  0  0  0
 18 43  1  0  0  0
 19 20  3  0  0  0
 21 22  1  0  0  0
 21 30  1  0  0  0
 21 44  1  0  0  0
 22 27  1  0  0  0
 22 23  2  0  0  0
 23 24  1  0  0  0
 23 45  1  0  0  0
 24 25  2  0  0  0
 24 46  1  0  0  0
 25 26  1  0  0  0
 25 28  1  0  0  0
 26 27  2  0  0  0
 26 47  1  0  0  0
 27 48  1  0  0  0
 28 29  3  0  0  0
 30 49  1  0  0  0
M  END
> <s_m_entry_id>
65995

> <s_m_entry_name>
ligand_docking-pose.51

> <s_m_Source_Path>
/home/csk/Desktop/cluster/DUD-E-result/mp2k1

> <s_m_Source_File>
ligand_docking-pose.sdf

> <i_m_Source_File_Index>
51

> <i_lp_mmshare_version>
53161

> <r_lp_tautomer_probability>
0.499999974950001

> <s_lp_Force_Field>
OPLS_2005

> <r_lp_Energy>
29.446496

> <b_lp_Chiralities_Consistent>
1

> <s_lp_Variant>
51609-1

> <s_i_glide_gridfile>
glide-grid_3eqh

> <i_i_glide_lignum>
29

> <i_i_glide_rotatable_bonds>
6

> <r_i_docking_score>
-8.73748267819107

> <r_i_glide_ligand_efficiency>
-0.291249422606369

> <r_i_glide_ligand_efficiency_sa>
-0.904979672236798

> <r_i_glide_ligand_efficiency_ln>
-1.98525126698391

> <r_i_glide_gscore>
-8.73748267819107

> <r_i_glide_lipo>
-3.94961263804222

> <r_i_glide_hbond>
-0.456

> <r_i_glide_metal>
0

> <r_i_glide_rewards>
-1.11767951456236

> <r_i_glide_evdw>
-51.0791664123535

> <r_i_glide_ecoul>
-7.66863012313843

> <r_i_glide_erotb>
0.57693644816213

> <r_i_glide_esite>
-0.0868741346601778

> <r_i_glide_emodel>
-84.149855971022

> <r_i_glide_energy>
-58.7477965354919

> <r_i_glide_einternal>
6.12211799621582

> <i_i_glide_confnum>
6

> <i_i_glide_posenum>
103

> <r_i_glide_eff_state_penalty>
0

> <i_f3d_flags>
0

> <s_user_duplicate_titles>
51609

> <s_m_subgroup_title>
dock_pv

> <s_m_subgroupid>
dock_pv1

> <b_m_subgroup_collapsed>
0

$$$$
51807
                    3D
 Schrodinger Suite 2021-1.
 49 51  0  0  1  0            999 V2000
    2.8458   61.9635   35.4167 C   0  0  0  0  0  0
    2.0073   61.1794   34.4371 C   0  0  0  0  0  0
    1.8020   61.6957   33.1595 C   0  0  0  0  0  0
    1.0870   60.9550   32.2274 C   0  0  0  0  0  0
    0.5907   59.7016   32.5630 C   0  0  0  0  0  0
    0.7316   59.1939   33.8560 C   0  0  0  0  0  0
    1.4682   59.9366   34.7880 C   0  0  0  0  0  0
    0.1129   57.8472   34.2355 C   0  0  1  0  0  0
   -1.3940   57.8889   34.4585 C   0  0  0  0  0  0
   -1.8879   58.2398   35.7157 C   0  0  0  0  0  0
   -3.2442   58.1189   35.9885 C   0  0  0  0  0  0
   -4.1201   57.6545   35.0119 C   0  0  0  0  0  0
   -3.6559   57.3194   33.7391 C   0  0  0  0  0  0
   -2.2891   57.4559   33.4678 C   0  0  0  0  0  0
   -4.6111   56.7938   32.7354 C   0  0  0  0  0  0
   -4.3708   55.7082   31.9632 C   0  0  0  0  0  0
   -3.2498   54.9184   31.9829 N   0  0  0  0  0  0
   -5.5260   55.0893   30.7630 S   0  0  0  0  0  0
   -6.5560   54.0624   31.7875 C   0  0  0  0  0  0
   -5.9894   52.9512   32.4215 C   0  0  0  0  0  0
   -6.7739   52.1052   33.2042 C   0  0  0  0  0  0
   -8.1335   52.3681   33.3623 C   0  0  0  0  0  0
   -8.7054   53.4794   32.7422 C   0  0  0  0  0  0
   -7.9268   54.3315   31.9537 C   0  0  0  0  0  0
   -8.5454   55.4362   31.3630 N   0  0  0  0  0  0
   -5.8216   57.5474   32.6186 C   0  0  0  0  0  0
   -6.7654   58.2165   32.5750 N   0  0  0  0  0  0
    0.4795   56.8010   33.3631 O   0  0  0  0  0  0
    3.6740   62.4367   34.8906 H   0  0  0  0  0  0
    2.2524   62.7469   35.8864 H   0  0  0  0  0  0
    3.2736   61.3082   36.1746 H   0  0  0  0  0  0
    2.2025   62.6601   32.8839 H   0  0  0  0  0  0
    0.9060   61.3503   31.2412 H   0  0  0  0  0  0
    0.0704   59.1482   31.8025 H   0  0  0  0  0  0
    1.6235   59.5486   35.7825 H   0  0  0  0  0  0
    0.5531   57.5552   35.1925 H   0  0  0  0  0  0
   -1.2153   58.5632   36.4964 H   0  0  0  0  0  0
   -3.6168   58.3624   36.9677 H   0  0  0  0  0  0
   -5.1659   57.5395   35.2566 H   0  0  0  0  0  0
   -1.9145   57.1913   32.4896 H   0  0  0  0  0  0
   -2.5158   55.0751   32.6565 H   0  0  0  0  0  0
   -3.1476   54.1551   31.3288 H   0  0  0  0  0  0
   -4.9399   52.7329   32.3017 H   0  0  0  0  0  0
   -6.3290   51.2484   33.6904 H   0  0  0  0  0  0
   -8.7399   51.7178   33.9749 H   0  0  0  0  0  0
   -9.7581   53.6758   32.8818 H   0  0  0  0  0  0
   -7.9984   56.0771   30.7929 H   0  0  0  0  0  0
   -9.5280   55.5987   31.5091 H   0  0  0  0  0  0
    0.4449   57.1420   32.4531 H   0  0  0  0  0  0
  1  2  1  0  0  0
  1 29  1  0  0  0
  1 30  1  0  0  0
  1 31  1  0  0  0
  2  7  1  0  0  0
  2  3  2  0  0  0
  3  4  1  0  0  0
  3 32  1  0  0  0
  4  5  2  0  0  0
  4 33  1  0  0  0
  5  6  1  0  0  0
  5 34  1  0  0  0
  6  7  2  0  0  0
  6  8  1  0  0  0
  7 35  1  0  0  0
  8  9  1  0  0  0
  8 28  1  0  0  0
  8 36  1  0  0  0
  9 14  1  0  0  0
  9 10  2  0  0  0
 10 11  1  0  0  0
 10 37  1  0  0  0
 11 12  2  0  0  0
 11 38  1  0  0  0
 12 13  1  0  0  0
 12 39  1  0  0  0
 13 14  2  0  0  0
 13 15  1  0  0  0
 14 40  1  0  0  0
 15 16  2  0  0  0
 15 26  1  0  0  0
 16 17  1  0  0  0
 16 18  1  0  0  0
 17 41  1  0  0  0
 17 42  1  0  0  0
 18 19  1  0  0  0
 19 24  1  0  0  0
 19 20  2  0  0  0
 20 21  1  0  0  0
 20 43  1  0  0  0
 21 22  2  0  0  0
 21 44  1  0  0  0
 22 23  1  0  0  0
 22 45  1  0  0  0
 23 24  2  0  0  0
 23 46  1  0  0  0
 24 25  1  0  0  0
 25 47  1  0  0  0
 25 48  1  0  0  0
 26 27  3  0  0  0
 28 49  1  0  0  0
M  END
> <s_m_entry_id>
65996

> <s_m_entry_name>
ligand_docking-pose.52

> <s_m_Source_Path>
/home/csk/Desktop/cluster/DUD-E-result/mp2k1

> <s_m_Source_File>
ligand_docking-pose.sdf

> <i_m_Source_File_Index>
52

> <i_lp_mmshare_version>
53161

> <r_lp_tautomer_probability>
0.499999974950001

> <s_lp_Force_Field>
OPLS_2005

> <r_lp_Energy>
28.163579

> <b_lp_Chiralities_Consistent>
1

> <s_lp_Variant>
51807-2

> <s_i_glide_gridfile>
glide-grid_3eqh

> <i_i_glide_lignum>
143

> <i_i_glide_rotatable_bonds>
6

> <r_i_docking_score>
-8.72492744736586

> <r_i_glide_ligand_efficiency>
-0.311604551691638

> <r_i_glide_ligand_efficiency_sa>
-0.946214944202094

> <r_i_glide_ligand_efficiency_ln>
-2.01396942985339

> <r_i_glide_gscore>
-8.72492744736586

> <r_i_glide_lipo>
-4.48983986311183

> <r_i_glide_hbond>
-0.424531722781157

> <r_i_glide_metal>
0

> <r_i_glide_rewards>
-1.19894218240634

> <r_i_glide_evdw>
-43.6636772155762

> <r_i_glide_ecoul>
-6.68579769134521

> <r_i_glide_erotb>
0.648474795872842

> <r_i_glide_esite>
-0.0740349604587824

> <r_i_glide_emodel>
-70.4455919687216

> <r_i_glide_energy>
-50.3494749069214

> <r_i_glide_einternal>
7.69490480422974

> <i_i_glide_confnum>
91

> <i_i_glide_posenum>
81

> <r_i_glide_eff_state_penalty>
0

> <i_f3d_flags>
0

> <s_user_duplicate_titles>
51807

> <s_m_subgroup_title>
dock_pv

> <s_m_subgroupid>
dock_pv1

> <b_m_subgroup_collapsed>
0

$$$$
647774
                    3D
 Schrodinger Suite 2021-1.
 30 31  0  0  1  0            999 V2000
   -4.8917   55.0946   31.6613 C   0  0  0  0  0  0
   -4.6982   56.3717   32.4820 C   0  0  0  0  0  0
   -5.6371   57.1443   32.6775 O   0  0  0  0  0  0
   -3.3994   56.6375   33.0081 N   0  0  0  0  0  0
   -2.2844   55.8328   32.9640 C   0  0  0  0  0  0
   -1.2176   56.4583   33.6056 C   0  0  0  0  0  0
   -1.6797   57.7341   34.0269 C   0  0  0  0  0  0
   -3.0191   57.7739   33.6821 C   0  0  0  0  0  0
   -1.0285   58.7472   34.6954 N   0  0  0  0  0  0
   -0.0660   59.6264   34.1621 C   0  0  0  0  0  0
    0.7447   59.3027   33.0648 C   0  0  0  0  0  0
    1.7032   60.2024   32.5974 C   0  0  0  0  0  0
    1.8559   61.4416   33.2158 C   0  0  0  0  0  0
    1.0342   61.7852   34.2845 C   0  0  0  0  0  0
    0.0732   60.8898   34.7492 C   0  0  0  0  0  0
   -0.7260   61.2614   35.7745 F   0  0  0  0  0  0
    3.3124   62.7924   32.5635 I   0  0  0  0  0  0
    0.0839   55.8704   33.7969 C   0  0  0  0  0  0
    0.4396   54.7779   33.3631 O   0  0  0  0  0  0
    0.8747   56.6593   34.5630 O   0  0  0  0  0  0
   -4.1992   55.0756   30.8184 H   0  0  0  0  0  0
   -5.9069   55.0444   31.2653 H   0  0  0  0  0  0
   -4.7139   54.2132   32.2783 H   0  0  0  0  0  0
   -2.3285   54.8557   32.5047 H   0  0  0  0  0  0
   -3.7362   58.5676   33.8304 H   0  0  0  0  0  0
   -1.5905   59.2842   35.3430 H   0  0  0  0  0  0
    0.6486   58.3533   32.5630 H   0  0  0  0  0  0
    2.3340   59.9322   31.7636 H   0  0  0  0  0  0
    1.1432   62.7480   34.7588 H   0  0  0  0  0  0
    0.3884   57.4572   34.8034 H   0  0  0  0  0  0
  1  2  1  0  0  0
  1 21  1  0  0  0
  1 22  1  0  0  0
  1 23  1  0  0  0
  2  3  2  0  0  0
  2  4  1  0  0  0
  4  8  1  0  0  0
  4  5  1  0  0  0
  5  6  2  0  0  0
  5 24  1  0  0  0
  6  7  1  0  0  0
  6 18  1  0  0  0
  7  8  2  0  0  0
  7  9  1  0  0  0
  8 25  1  0  0  0
  9 10  1  0  0  0
  9 26  1  0  0  0
 10 15  1  0  0  0
 10 11  2  0  0  0
 11 12  1  0  0  0
 11 27  1  0  0  0
 12 13  2  0  0  0
 12 28  1  0  0  0
 13 14  1  0  0  0
 13 17  1  0  0  0
 14 15  2  0  0  0
 14 29  1  0  0  0
 15 16  1  0  0  0
 18 19  2  0  0  0
 18 20  1  0  0  0
 20 30  1  0  0  0
M  END
> <s_m_entry_id>
65997

> <s_m_entry_name>
ligand_docking-pose.53

> <s_m_Source_Path>
/home/csk/Desktop/cluster/DUD-E-result/mp2k1

> <s_m_Source_File>
ligand_docking-pose.sdf

> <i_m_Source_File_Index>
53

> <i_lp_mmshare_version>
53161

> <r_lp_tautomer_probability>
1

> <s_lp_Force_Field>
OPLS_2005

> <r_lp_Energy>
12.142921

> <b_lp_Chiralities_Consistent>
1

> <s_lp_Variant>
647774-1

> <s_i_glide_gridfile>
glide-grid_3eqh

> <i_i_glide_lignum>
321

> <i_i_glide_rotatable_bonds>
5

> <r_i_docking_score>
-8.68610272157583

> <r_i_glide_ligand_efficiency>
-0.434305136078791

> <r_i_glide_ligand_efficiency_sa>
-1.17888551117271

> <r_i_glide_ligand_efficiency_ln>
-2.17384502436896

> <r_i_glide_gscore>
-8.68610272157583

> <r_i_glide_lipo>
-3.07493336452763

> <r_i_glide_hbond>
-0.476124991255322

> <r_i_glide_metal>
0

> <r_i_glide_rewards>
-2.5693449629858

> <r_i_glide_evdw>
-39.2971115112305

> <r_i_glide_ecoul>
-6.59191656112671

> <r_i_glide_erotb>
0.387943656923447

> <r_i_glide_esite>
0

> <r_i_glide_emodel>
-67.0032116433559

> <r_i_glide_energy>
-45.8890280723572

> <r_i_glide_einternal>
4.88942861557007

> <i_i_glide_confnum>
21

> <i_i_glide_posenum>
152

> <r_i_glide_eff_state_penalty>
0

> <i_f3d_flags>
0

> <s_user_duplicate_titles>
647774

> <s_m_subgroup_title>
dock_pv

> <s_m_subgroupid>
dock_pv1

> <b_m_subgroup_collapsed>
0

$$$$
52353
                    3D
 Schrodinger Suite 2021-1.
 46 48  0  0  1  0            999 V2000
    1.9667   61.4735   33.5975 C   0  0  0  0  0  0
    1.2744   60.8517   32.5633 C   0  0  0  0  0  0
    0.6781   59.6120   32.7757 C   0  0  0  0  0  0
    0.7632   58.9904   34.0243 C   0  0  0  0  0  0
    1.4817   59.6158   35.0484 C   0  0  0  0  0  0
    2.0739   60.8586   34.8412 C   0  0  0  0  0  0
    0.0928   57.6370   34.2778 C   0  0  1  0  0  0
   -1.4177   57.7154   34.4698 C   0  0  0  0  0  0
   -1.9193   58.0611   35.7255 C   0  0  0  0  0  0
   -3.2820   57.9825   35.9808 C   0  0  0  0  0  0
   -4.1574   57.5615   34.9830 C   0  0  0  0  0  0
   -3.6846   57.2367   33.7102 C   0  0  0  0  0  0
   -2.3099   57.3343   33.4576 C   0  0  0  0  0  0
   -4.6442   56.7537   32.6913 C   0  0  0  0  0  0
   -4.4204   55.6738   31.9052 C   0  0  0  0  0  0
   -3.3113   54.8680   31.9163 N   0  0  0  0  0  0
   -5.5829   55.0809   30.6989 S   0  0  0  0  0  0
   -6.6125   54.0081   31.6839 C   0  0  0  0  0  0
   -6.0228   52.9869   32.4400 C   0  0  0  0  0  0
   -6.8102   52.1117   33.1873 C   0  0  0  0  0  0
   -8.1963   52.2520   33.1902 C   0  0  0  0  0  0
   -8.7946   53.2660   32.4417 C   0  0  0  0  0  0
   -8.0131   54.1453   31.6870 C   0  0  0  0  0  0
   -8.6619   55.1479   30.9629 N   0  0  0  0  0  0
   -5.8364   57.5432   32.5824 C   0  0  0  0  0  0
   -6.7708   58.2280   32.5632 N   0  0  0  0  0  0
    0.4740   56.6288   33.3630 O   0  0  0  0  0  0
    2.4291   62.4358   33.4322 H   0  0  0  0  0  0
    1.2044   61.3287   31.5983 H   0  0  0  0  0  0
    0.1314   59.1482   31.9695 H   0  0  0  0  0  0
    1.5777   59.1474   36.0152 H   0  0  0  0  0  0
    2.6202   61.3404   35.6391 H   0  0  0  0  0  0
    0.4855   57.2649   35.2261 H   0  0  0  0  0  0
   -1.2476   58.3501   36.5209 H   0  0  0  0  0  0
   -3.6536   58.2275   36.9630 H   0  0  0  0  0  0
   -5.2102   57.4721   35.2117 H   0  0  0  0  0  0
   -1.9302   57.0817   32.4782 H   0  0  0  0  0  0
   -2.5747   55.0081   32.5930 H   0  0  0  0  0  0
   -3.2178   54.1102   31.2566 H   0  0  0  0  0  0
   -4.9523   52.8533   32.4445 H   0  0  0  0  0  0
   -6.3464   51.3228   33.7629 H   0  0  0  0  0  0
   -8.8061   51.5760   33.7719 H   0  0  0  0  0  0
   -9.8706   53.3653   32.4539 H   0  0  0  0  0  0
   -8.1109   55.8439   30.4661 H   0  0  0  0  0  0
   -9.6670   55.2151   30.9842 H   0  0  0  0  0  0
    0.4059   56.9846   32.4621 H   0  0  0  0  0  0
  1  6  1  0  0  0
  1  2  2  0  0  0
  1 28  1  0  0  0
  2  3  1  0  0  0
  2 29  1  0  0  0
  3  4  2  0  0  0
  3 30  1  0  0  0
  4  5  1  0  0  0
  4  7  1  0  0  0
  5  6  2  0  0  0
  5 31  1  0  0  0
  6 32  1  0  0  0
  7  8  1  0  0  0
  7 27  1  0  0  0
  7 33  1  0  0  0
  8 13  1  0  0  0
  8  9  2  0  0  0
  9 10  1  0  0  0
  9 34  1  0  0  0
 10 11  2  0  0  0
 10 35  1  0  0  0
 11 12  1  0  0  0
 11 36  1  0  0  0
 12 13  2  0  0  0
 12 14  1  0  0  0
 13 37  1  0  0  0
 14 15  2  0  0  0
 14 25  1  0  0  0
 15 16  1  0  0  0
 15 17  1  0  0  0
 16 38  1  0  0  0
 16 39  1  0  0  0
 17 18  1  0  0  0
 18 23  1  0  0  0
 18 19  2  0  0  0
 19 20  1  0  0  0
 19 40  1  0  0  0
 20 21  2  0  0  0
 20 41  1  0  0  0
 21 22  1  0  0  0
 21 42  1  0  0  0
 22 23  2  0  0  0
 22 43  1  0  0  0
 23 24  1  0  0  0
 24 44  1  0  0  0
 24 45  1  0  0  0
 25 26  3  0  0  0
 27 46  1  0  0  0
M  END
> <s_m_entry_id>
65998

> <s_m_entry_name>
ligand_docking-pose.54

> <s_m_Source_Path>
/home/csk/Desktop/cluster/DUD-E-result/mp2k1

> <s_m_Source_File>
ligand_docking-pose.sdf

> <i_m_Source_File_Index>
54

> <i_lp_mmshare_version>
53161

> <r_lp_tautomer_probability>
0.499999974950001

> <s_lp_Force_Field>
OPLS_2005

> <r_lp_Energy>
30.141042

> <b_lp_Chiralities_Consistent>
1

> <s_lp_Variant>
52353-2

> <s_i_glide_gridfile>
glide-grid_3eqh

> <i_i_glide_lignum>
21

> <i_i_glide_rotatable_bonds>
6

> <r_i_docking_score>
-8.65625464060067

> <r_i_glide_ligand_efficiency>
-0.320602023725951

> <r_i_glide_ligand_efficiency_sa>
-0.9618060701212

> <r_i_glide_ligand_efficiency_ln>
-2.01503337082073

> <r_i_glide_gscore>
-8.65625464060067

> <r_i_glide_lipo>
-4.32572615455701

> <r_i_glide_hbond>
-0.435712971922082

> <r_i_glide_metal>
0

> <r_i_glide_rewards>
-1.29587678848475

> <r_i_glide_evdw>
-44.8715400695801

> <r_i_glide_ecoul>
-6.46104907989502

> <r_i_glide_erotb>
0.692762290684614

> <r_i_glide_esite>
-0.0789666508581846

> <r_i_glide_emodel>
-75.3607876948788

> <r_i_glide_energy>
-51.3325891494751

> <r_i_glide_einternal>
5.61514091491699

> <i_i_glide_confnum>
31

> <i_i_glide_posenum>
292

> <r_i_glide_eff_state_penalty>
0

> <i_f3d_flags>
0

> <s_user_duplicate_titles>
52353

> <s_m_subgroup_title>
dock_pv

> <s_m_subgroupid>
dock_pv1

> <b_m_subgroup_collapsed>
0

$$$$
51723
                    3D
 Schrodinger Suite 2021-1.
 50 52  0  0  1  0            999 V2000
    2.4276   63.3753   33.1267 C   0  0  0  0  0  0
    2.8955   62.8969   34.3451 C   0  0  0  0  0  0
    2.5885   61.6078   34.7742 C   0  0  0  0  0  0
    1.9129   60.7408   33.9197 C   0  0  0  0  0  0
    1.4764   61.2045   32.6727 C   0  0  0  0  0  0
    1.6915   62.5323   32.3037 C   0  0  0  0  0  0
    0.8740   60.3479   31.7630 N   0  0  0  0  0  0
    1.6717   59.0522   34.4265 S   0  0  0  0  0  0
   -0.1056   58.8705   34.3866 C   0  0  0  0  0  0
   -0.7417   57.7073   34.0961 C   0  0  0  0  0  0
   -0.0559   56.5031   33.7627 C   0  0  0  0  0  0
    0.4738   55.4931   33.5703 N   0  0  0  0  0  0
   -2.1983   57.5708   34.2634 C   0  0  0  0  0  0
   -2.6797   57.9312   35.5172 C   0  0  0  0  0  0
   -4.0273   57.9480   35.7630 C   0  0  0  0  0  0
   -4.9330   57.5482   34.7859 C   0  0  0  0  0  0
   -4.4886   57.1288   33.5286 C   0  0  0  0  0  0
   -3.1007   57.1483   33.2676 C   0  0  0  0  0  0
   -5.5620   56.7544   32.4875 C   0  0  2  0  0  0
   -6.3987   55.5119   32.8457 C   0  0  0  0  0  0
   -7.6316   55.7113   33.4817 C   0  0  0  0  0  0
   -8.4925   54.6472   33.7393 C   0  0  0  0  0  0
   -8.1561   53.3475   33.3459 C   0  0  0  0  0  0
   -6.9205   53.1409   32.7185 C   0  0  0  0  0  0
   -6.0348   54.1995   32.4700 C   0  0  0  0  0  0
   -4.7514   53.8984   31.8062 N   0  3  0  0  0  0
   -4.7762   53.1650   30.8212 O   0  5  0  0  0  0
   -3.7216   54.3481   32.2950 O   0  0  0  0  0  0
   -9.0927   52.2201   33.5708 N   0  3  0  0  0  0
  -10.0758   52.4071   34.2814 O   0  5  0  0  0  0
   -8.8557   51.1480   33.0227 O   0  0  0  0  0  0
   -5.1261   56.7470   31.1437 O   0  0  0  0  0  0
   -0.7259   60.0515   34.7291 N   0  0  0  0  0  0
    2.6449   64.3886   32.8184 H   0  0  0  0  0  0
    3.4888   63.5480   34.9632 H   0  0  0  0  0  0
    2.9448   61.2602   35.7335 H   0  0  0  0  0  0
    1.3306   62.9092   31.3630 H   0  0  0  0  0  0
    0.8635   59.3746   32.0423 H   0  0  0  0  0  0
    1.1303   60.5448   30.8049 H   0  0  0  0  0  0
   -2.0083   58.2512   36.3023 H   0  0  0  0  0  0
   -4.3476   58.3482   36.7142 H   0  0  0  0  0  0
   -5.9895   57.5748   35.0094 H   0  0  0  0  0  0
   -2.7327   56.8709   32.2892 H   0  0  0  0  0  0
   -6.2473   57.6047   32.4958 H   0  0  0  0  0  0
   -7.9435   56.7053   33.7677 H   0  0  0  0  0  0
   -9.4378   54.8447   34.2257 H   0  0  0  0  0  0
   -6.6385   52.1404   32.4175 H   0  0  0  0  0  0
   -5.8647   56.9824   30.5670 H   0  0  0  0  0  0
   -1.7169   60.1938   34.5618 H   0  0  0  0  0  0
   -0.1764   60.8726   34.9373 H   0  0  0  0  0  0
  1  6  1  0  0  0
  1  2  2  0  0  0
  1 34  1  0  0  0
  2  3  1  0  0  0
  2 35  1  0  0  0
  3  4  2  0  0  0
  3 36  1  0  0  0
  4  5  1  0  0  0
  4  8  1  0  0  0
  5  6  2  0  0  0
  5  7  1  0  0  0
  6 37  1  0  0  0
  7 38  1  0  0  0
  7 39  1  0  0  0
  8  9  1  0  0  0
  9 10  2  0  0  0
  9 33  1  0  0  0
 10 11  1  0  0  0
 10 13  1  0  0  0
 11 12  3  0  0  0
 13 18  1  0  0  0
 13 14  2  0  0  0
 14 15  1  0  0  0
 14 40  1  0  0  0
 15 16  2  0  0  0
 15 41  1  0  0  0
 16 17  1  0  0  0
 16 42  1  0  0  0
 17 18  2  0  0  0
 17 19  1  0  0  0
 18 43  1  0  0  0
 19 20  1  0  0  0
 19 32  1  0  0  0
 19 44  1  0  0  0
 20 25  1  0  0  0
 20 21  2  0  0  0
 21 22  1  0  0  0
 21 45  1  0  0  0
 22 23  2  0  0  0
 22 46  1  0  0  0
 23 24  1  0  0  0
 23 29  1  0  0  0
 24 25  2  0  0  0
 24 47  1  0  0  0
 25 26  1  0  0  0
 26 27  1  0  0  0
 26 28  2  0  0  0
 29 30  1  0  0  0
 29 31  2  0  0  0
 32 48  1  0  0  0
 33 49  1  0  0  0
 33 50  1  0  0  0
M  CHG  4  26   1  27  -1  29   1  30  -1
M  END
> <s_m_entry_id>
65999

> <s_m_entry_name>
ligand_docking-pose.55

> <s_m_Source_Path>
/home/csk/Desktop/cluster/DUD-E-result/mp2k1

> <s_m_Source_File>
ligand_docking-pose.sdf

> <i_m_Source_File_Index>
55

> <i_lp_mmshare_version>
53161

> <r_lp_tautomer_probability>
0.499999974950001

> <s_lp_Force_Field>
OPLS_2005

> <r_lp_Energy>
36.621184

> <b_lp_Chiralities_Consistent>
1

> <s_lp_Variant>
51723-1

> <s_i_glide_gridfile>
glide-grid_3eqh

> <i_i_glide_lignum>
81

> <i_i_glide_rotatable_bonds>
8

> <r_i_docking_score>
-8.62845893269075

> <r_i_glide_ligand_efficiency>
-0.26146845250578

> <r_i_glide_ligand_efficiency_sa>
-0.838669036645703

> <r_i_glide_ligand_efficiency_ln>
-1.91892459086107

> <r_i_glide_gscore>
-8.62845893269075

> <r_i_glide_lipo>
-4.45396682206687

> <r_i_glide_hbond>
-0.454077847638052

> <r_i_glide_metal>
0

> <r_i_glide_rewards>
-0.785305891946476

> <r_i_glide_evdw>
-45.3595428466797

> <r_i_glide_ecoul>
-7.38574695587158

> <r_i_glide_erotb>
0.469082240318205

> <r_i_glide_esite>
-0.0283514256428395

> <r_i_glide_emodel>
-68.2639304445632

> <r_i_glide_energy>
-52.7452898025513

> <r_i_glide_einternal>
7.00592803955078

> <i_i_glide_confnum>
39

> <i_i_glide_posenum>
32

> <r_i_glide_eff_state_penalty>
0

> <i_f3d_flags>
0

> <s_user_duplicate_titles>
51723

> <s_m_subgroup_title>
dock_pv

> <s_m_subgroupid>
dock_pv1

> <b_m_subgroup_collapsed>
0

$$$$
514041
                    3D
 Schrodinger Suite 2021-1.
 49 52  0  0  1  0            999 V2000
   -9.4040   54.8260   35.4469 C   0  0  0  0  0  0
   -9.2841   54.2150   34.1357 N   0  0  0  0  0  0
   -9.3780   52.8760   33.8573 C   0  0  0  0  0  0
   -9.2450   52.7779   32.4848 C   0  0  0  0  0  0
   -9.0923   53.9628   31.9235 N   0  0  0  0  0  0
   -9.1245   54.8326   32.9091 C   0  0  0  0  0  0
   -9.0051   56.5744   32.6378 S   0  0  0  0  0  0
   -7.3757   56.8955   33.2618 C   0  0  0  0  0  0
   -6.2631   56.5278   32.4992 C   0  0  0  0  0  0
   -4.9687   56.7726   32.9703 C   0  0  0  0  0  0
   -4.7712   57.3551   34.2280 C   0  0  0  0  0  0
   -5.8905   57.7489   34.9615 C   0  0  0  0  0  0
   -7.1838   57.5409   34.4902 C   0  0  0  0  0  0
   -8.5013   58.1240   35.4500 Cl  0  0  0  0  0  0
   -3.5042   57.6231   34.7826 N   0  0  0  0  0  0
   -2.1884   57.2120   34.4598 C   0  0  0  0  0  0
   -1.1197   58.1642   34.5662 C   0  0  0  0  0  0
   -1.2919   59.5010   35.0224 C   0  0  0  0  0  0
   -0.2567   60.4245   34.9556 C   0  0  0  0  0  0
    0.9972   60.0425   34.4966 C   0  0  0  0  0  0
    1.2384   58.7152   34.1464 C   0  0  0  0  0  0
    0.1915   57.7645   34.1639 C   0  0  0  0  0  0
    0.4739   56.4958   33.7697 N   0  0  0  0  0  0
   -0.5277   55.5926   33.7630 C   0  0  0  0  0  0
   -1.8455   55.8935   34.0932 C   0  0  0  0  0  0
   -2.7834   54.7881   34.1289 C   0  0  0  0  0  0
   -3.5328   53.9159   34.1586 N   0  0  0  0  0  0
    2.0783   61.0161   34.3677 C   0  0  0  0  0  0
    2.0744   62.0793   33.5440 C   0  0  0  0  0  0
    3.2472   63.0243   33.3662 C   0  0  0  0  0  0
    2.7754   64.3497   33.3624 O   0  0  0  0  0  0
   -9.8392   54.1157   36.1521 H   0  0  0  0  0  0
   -8.4094   55.1056   35.7987 H   0  0  0  0  0  0
  -10.0421   55.7076   35.3830 H   0  0  0  0  0  0
   -9.5247   52.1439   34.6394 H   0  0  0  0  0  0
   -9.2629   51.8705   31.8995 H   0  0  0  0  0  0
   -6.4028   56.0652   31.5320 H   0  0  0  0  0  0
   -4.1261   56.5032   32.3501 H   0  0  0  0  0  0
   -5.7696   58.2275   35.9194 H   0  0  0  0  0  0
   -3.5119   58.3415   35.4860 H   0  0  0  0  0  0
   -2.2577   59.8407   35.3636 H   0  0  0  0  0  0
   -0.4398   61.4500   35.2466 H   0  0  0  0  0  0
    2.2174   58.4076   33.8082 H   0  0  0  0  0  0
   -0.2373   54.5846   33.4971 H   0  0  0  0  0  0
    2.9404   60.8319   34.9896 H   0  0  0  0  0  0
    1.2076   62.2781   32.9298 H   0  0  0  0  0  0
    3.7226   62.8231   32.4069 H   0  0  0  0  0  0
    3.9934   62.8979   34.1499 H   0  0  0  0  0  0
    3.3842   64.8897   32.8439 H   0  0  0  0  0  0
  1  2  1  0  0  0
  1 32  1  0  0  0
  1 33  1  0  0  0
  1 34  1  0  0  0
  2  6  1  0  0  0
  2  3  1  0  0  0
  3  4  2  0  0  0
  3 35  1  0  0  0
  4  5  1  0  0  0
  4 36  1  0  0  0
  5  6  2  0  0  0
  6  7  1  0  0  0
  7  8  1  0  0  0
  8 13  1  0  0  0
  8  9  2  0  0  0
  9 10  1  0  0  0
  9 37  1  0  0  0
 10 11  2  0  0  0
 10 38  1  0  0  0
 11 12  1  0  0  0
 11 15  1  0  0  0
 12 13  2  0  0  0
 12 39  1  0  0  0
 13 14  1  0  0  0
 15 16  1  0  0  0
 15 40  1  0  0  0
 16 25  1  0  0  0
 16 17  2  0  0  0
 17 22  1  0  0  0
 17 18  1  0  0  0
 18 19  2  0  0  0
 18 41  1  0  0  0
 19 20  1  0  0  0
 19 42  1  0  0  0
 20 21  2  0  0  0
 20 28  1  0  0  0
 21 22  1  0  0  0
 21 43  1  0  0  0
 22 23  2  0  0  0
 23 24  1  0  0  0
 24 25  2  0  0  0
 24 44  1  0  0  0
 25 26  1  0  0  0
 26 27  3  0  0  0
 28 29  2  0  0  0
 28 45  1  0  0  0
 29 30  1  0  0  0
 29 46  1  0  0  0
 30 31  1  0  0  0
 30 47  1  0  0  0
 30 48  1  0  0  0
 31 49  1  0  0  0
M  END
> <s_m_entry_id>
66000

> <s_m_entry_name>
ligand_docking-pose.56

> <s_m_Source_Path>
/home/csk/Desktop/cluster/DUD-E-result/mp2k1

> <s_m_Source_File>
ligand_docking-pose.sdf

> <i_m_Source_File_Index>
56

> <i_lp_mmshare_version>
53161

> <r_lp_tautomer_probability>
1

> <s_lp_Force_Field>
OPLS_2005

> <r_lp_Energy>
26.745716

> <b_lp_Chiralities_Consistent>
1

> <s_lp_Variant>
514041-1

> <s_i_glide_gridfile>
glide-grid_3eqh

> <i_i_glide_lignum>
358

> <i_i_glide_rotatable_bonds>
7

> <r_i_docking_score>
-8.59467405430598

> <r_i_glide_ligand_efficiency>
-0.277247550138903

> <r_i_glide_ligand_efficiency_sa>
-0.870940088932329

> <r_i_glide_ligand_efficiency_ln>
-1.93836239437321

> <r_i_glide_gscore>
-8.59467405430598

> <r_i_glide_lipo>
-4.22696694602089

> <r_i_glide_hbond>
-0.312653645131962

> <r_i_glide_metal>
0

> <r_i_glide_rewards>
-1.73341070943577

> <r_i_glide_evdw>
-56.3477630615234

> <r_i_glide_ecoul>
-0.687780797481537

> <r_i_glide_erotb>
0.598912518981032

> <r_i_glide_esite>
0

> <r_i_glide_emodel>
-79.3716484218089

> <r_i_glide_energy>
-57.035543859005

> <r_i_glide_einternal>
10.429126739502

> <i_i_glide_confnum>
8

> <i_i_glide_posenum>
396

> <r_i_glide_eff_state_penalty>
0

> <i_f3d_flags>
0

> <s_user_duplicate_titles>
514041

> <s_m_subgroup_title>
dock_pv

> <s_m_subgroupid>
dock_pv1

> <b_m_subgroup_collapsed>
0

$$$$
51784
                    3D
 Schrodinger Suite 2021-1.
 46 48  0  0  1  0            999 V2000
   -8.1686   52.2426   33.1802 C   0  0  0  0  0  0
   -6.7824   52.1027   33.1901 C   0  0  0  0  0  0
   -5.9867   52.9834   32.4576 C   0  0  0  0  0  0
   -6.5696   54.0084   31.7019 C   0  0  0  0  0  0
   -7.9706   54.1440   31.6903 C   0  0  0  0  0  0
   -8.7596   53.2608   32.4324 C   0  0  0  0  0  0
   -8.6131   55.1478   30.9630 N   0  0  0  0  0  0
   -5.5304   55.0838   30.7297 S   0  0  0  0  0  0
   -4.3871   55.6899   31.9480 C   0  0  0  0  0  0
   -4.6265   56.7754   32.7222 C   0  0  0  0  0  0
   -5.8294   57.5453   32.6001 C   0  0  0  0  0  0
   -6.7725   58.2172   32.5635 N   0  0  0  0  0  0
   -3.6715   57.2876   33.7323 C   0  0  0  0  0  0
   -4.1388   57.6321   35.0023 C   0  0  0  0  0  0
   -3.2611   58.0838   35.9857 C   0  0  0  0  0  0
   -1.9005   58.1740   35.7186 C   0  0  0  0  0  0
   -1.4058   57.8122   34.4645 C   0  0  0  0  0  0
   -2.3016   57.4013   33.4675 C   0  0  0  0  0  0
    0.1021   57.7436   34.2527 C   0  0  2  0  0  0
    0.7531   59.0918   33.9314 C   0  0  0  0  0  0
    0.6671   59.6471   32.6499 C   0  0  0  0  0  0
    1.2729   60.8676   32.3577 C   0  0  0  0  0  0
    1.9730   61.5537   33.3449 C   0  0  0  0  0  0
    2.0742   61.0090   34.6218 C   0  0  0  0  0  0
    1.4748   59.7835   34.9138 C   0  0  0  0  0  0
    2.7956   61.6535   35.5643 F   0  0  0  0  0  0
    0.4741   56.7071   33.3638 O   0  0  0  0  0  0
   -3.2720   54.8929   31.9759 N   0  0  0  0  0  0
   -8.7836   51.5623   33.7518 H   0  0  0  0  0  0
   -6.3266   51.3080   33.7638 H   0  0  0  0  0  0
   -4.9161   52.8504   32.4708 H   0  0  0  0  0  0
   -9.8357   53.3594   32.4339 H   0  0  0  0  0  0
   -8.0588   55.8466   30.4741 H   0  0  0  0  0  0
   -9.6179   55.2130   30.9726 H   0  0  0  0  0  0
   -5.1896   57.5355   35.2386 H   0  0  0  0  0  0
   -3.6319   58.3447   36.9634 H   0  0  0  0  0  0
   -1.2260   58.4846   36.5033 H   0  0  0  0  0  0
   -1.9261   57.1373   32.4892 H   0  0  0  0  0  0
    0.5181   57.4143   35.2072 H   0  0  0  0  0  0
    0.1093   59.1483   31.8728 H   0  0  0  0  0  0
    1.1989   61.2810   31.3638 H   0  0  0  0  0  0
    2.4481   62.4973   33.1208 H   0  0  0  0  0  0
    1.5845   59.3750   35.9062 H   0  0  0  0  0  0
    0.4132   57.0428   32.4541 H   0  0  0  0  0  0
   -2.5443   55.0415   32.6603 H   0  0  0  0  0  0
   -3.1655   54.1324   31.3214 H   0  0  0  0  0  0
  1  6  1  0  0  0
  1  2  2  0  0  0
  1 29  1  0  0  0
  2  3  1  0  0  0
  2 30  1  0  0  0
  3  4  2  0  0  0
  3 31  1  0  0  0
  4  5  1  0  0  0
  4  8  1  0  0  0
  5  6  2  0  0  0
  5  7  1  0  0  0
  6 32  1  0  0  0
  7 33  1  0  0  0
  7 34  1  0  0  0
  8  9  1  0  0  0
  9 10  2  0  0  0
  9 28  1  0  0  0
 10 11  1  0  0  0
 10 13  1  0  0  0
 11 12  3  0  0  0
 13 18  1  0  0  0
 13 14  2  0  0  0
 14 15  1  0  0  0
 14 35  1  0  0  0
 15 16  2  0  0  0
 15 36  1  0  0  0
 16 17  1  0  0  0
 16 37  1  0  0  0
 17 18  2  0  0  0
 17 19  1  0  0  0
 18 38  1  0  0  0
 19 20  1  0  0  0
 19 27  1  0  0  0
 19 39  1  0  0  0
 20 25  1  0  0  0
 20 21  2  0  0  0
 21 22  1  0  0  0
 21 40  1  0  0  0
 22 23  2  0  0  0
 22 41  1  0  0  0
 23 24  1  0  0  0
 23 42  1  0  0  0
 24 25  2  0  0  0
 24 26  1  0  0  0
 25 43  1  0  0  0
 27 44  1  0  0  0
 28 45  1  0  0  0
 28 46  1  0  0  0
M  END
> <s_m_entry_id>
66001

> <s_m_entry_name>
ligand_docking-pose.57

> <s_m_Source_Path>
/home/csk/Desktop/cluster/DUD-E-result/mp2k1

> <s_m_Source_File>
ligand_docking-pose.sdf

> <i_m_Source_File_Index>
57

> <i_lp_mmshare_version>
53161

> <r_lp_tautomer_probability>
0.499999974950001

> <s_lp_Force_Field>
OPLS_2005

> <r_lp_Energy>
29.006724

> <b_lp_Chiralities_Consistent>
1

> <s_lp_Variant>
51784-1

> <s_i_glide_gridfile>
glide-grid_3eqh

> <i_i_glide_lignum>
79

> <i_i_glide_rotatable_bonds>
6

> <r_i_docking_score>
-8.59029178817626

> <r_i_glide_ligand_efficiency>
-0.306796135292009

> <r_i_glide_ligand_efficiency_sa>
-0.931613760007013

> <r_i_glide_ligand_efficiency_ln>
-1.98289156663771

> <r_i_glide_gscore>
-8.59029178817626

> <r_i_glide_lipo>
-4.31286385590338

> <r_i_glide_hbond>
-0.424588432483567

> <r_i_glide_metal>
0

> <r_i_glide_rewards>
-1.15461969511774

> <r_i_glide_evdw>
-44.5328979492188

> <r_i_glide_ecoul>
-6.86380910873413

> <r_i_glide_erotb>
0.636731139927409

> <r_i_glide_esite>
-0.0787346808279319

> <r_i_glide_emodel>
-73.0240604446184

> <r_i_glide_energy>
-51.3967070579529

> <r_i_glide_einternal>
5.20184516906738

> <i_i_glide_confnum>
29

> <i_i_glide_posenum>
204

> <r_i_glide_eff_state_penalty>
0

> <i_f3d_flags>
0

> <s_user_duplicate_titles>
51784

> <s_m_subgroup_title>
dock_pv

> <s_m_subgroupid>
dock_pv1

> <b_m_subgroup_collapsed>
0

$$$$
51859
                    3D
 Schrodinger Suite 2021-1.
 43 45  0  0  1  0            999 V2000
    2.6745   63.4290   32.3200 C   0  0  0  0  0  0
    3.2739   62.7518   33.3759 C   0  0  0  0  0  0
    2.4744   62.0745   34.2917 C   0  0  0  0  0  0
    1.0927   62.0678   34.1236 C   0  0  0  0  0  0
    0.4963   62.7482   33.0632 C   0  0  0  0  0  0
    1.2957   63.4495   32.1695 C   0  0  0  0  0  0
    0.3071   61.4227   35.0370 O   0  0  0  0  0  0
   -0.0864   60.1243   34.8197 C   0  0  0  0  0  0
    0.5297   59.2704   33.8982 C   0  0  0  0  0  0
    0.0311   57.9899   33.7061 C   0  0  0  0  0  0
   -1.0913   57.5516   34.4100 C   0  0  0  0  0  0
   -1.6605   58.3857   35.3774 C   0  0  0  0  0  0
   -1.1548   59.6634   35.5801 C   0  0  0  0  0  0
   -1.6680   56.2247   34.1064 C   0  0  0  0  0  0
   -2.9936   55.9792   34.0107 C   0  0  0  0  0  0
   -4.0121   56.8950   34.0778 N   0  0  0  0  0  0
   -3.6494   54.3488   33.7630 S   0  0  0  0  0  0
   -4.1899   54.3479   32.0682 C   0  0  0  0  0  0
   -3.5370   55.1348   31.1098 C   0  0  0  0  0  0
   -3.8663   55.0093   29.7617 C   0  0  0  0  0  0
   -4.8372   54.0927   29.3634 C   0  0  0  0  0  0
   -5.5155   53.3323   30.3106 C   0  0  0  0  0  0
   -5.1999   53.4552   31.6622 C   0  0  0  0  0  0
   -5.9059   52.6656   32.5747 N   0  0  0  0  0  0
   -0.7175   55.1729   33.9361 C   0  0  0  0  0  0
    0.0740   54.3489   33.7628 N   0  0  0  0  0  0
    3.2748   63.9479   31.5947 H   0  0  0  0  0  0
    4.3481   62.7550   33.4801 H   0  0  0  0  0  0
    2.9186   61.5509   35.1251 H   0  0  0  0  0  0
   -0.5800   62.7573   32.9752 H   0  0  0  0  0  0
    0.8741   64.0225   31.3647 H   0  0  0  0  0  0
    1.3768   59.5953   33.3126 H   0  0  0  0  0  0
    0.5014   57.3564   32.9686 H   0  0  0  0  0  0
   -2.5019   58.0538   35.9673 H   0  0  0  0  0  0
   -1.6137   60.3203   36.3033 H   0  0  0  0  0  0
   -3.8149   57.8850   34.0812 H   0  0  0  0  0  0
   -4.9720   56.6011   33.9661 H   0  0  0  0  0  0
   -2.7509   55.8225   31.3856 H   0  0  0  0  0  0
   -3.3576   55.6145   29.0243 H   0  0  0  0  0  0
   -5.0843   53.9808   28.3180 H   0  0  0  0  0  0
   -6.2816   52.6429   29.9874 H   0  0  0  0  0  0
   -5.7197   52.7878   33.5603 H   0  0  0  0  0  0
   -6.6714   52.0906   32.2571 H   0  0  0  0  0  0
  1  6  1  0  0  0
  1  2  2  0  0  0
  1 27  1  0  0  0
  2  3  1  0  0  0
  2 28  1  0  0  0
  3  4  2  0  0  0
  3 29  1  0  0  0
  4  5  1  0  0  0
  4  7  1  0  0  0
  5  6  2  0  0  0
  5 30  1  0  0  0
  6 31  1  0  0  0
  7  8  1  0  0  0
  8 13  1  0  0  0
  8  9  2  0  0  0
  9 10  1  0  0  0
  9 32  1  0  0  0
 10 11  2  0  0  0
 10 33  1  0  0  0
 11 12  1  0  0  0
 11 14  1  0  0  0
 12 13  2  0  0  0
 12 34  1  0  0  0
 13 35  1  0  0  0
 14 15  2  0  0  0
 14 25  1  0  0  0
 15 16  1  0  0  0
 15 17  1  0  0  0
 16 36  1  0  0  0
 16 37  1  0  0  0
 17 18  1  0  0  0
 18 23  1  0  0  0
 18 19  2  0  0  0
 19 20  1  0  0  0
 19 38  1  0  0  0
 20 21  2  0  0  0
 20 39  1  0  0  0
 21 22  1  0  0  0
 21 40  1  0  0  0
 22 23  2  0  0  0
 22 41  1  0  0  0
 23 24  1  0  0  0
 24 42  1  0  0  0
 24 43  1  0  0  0
 25 26  3  0  0  0
M  END
> <s_m_entry_id>
66002

> <s_m_entry_name>
ligand_docking-pose.58

> <s_m_Source_Path>
/home/csk/Desktop/cluster/DUD-E-result/mp2k1

> <s_m_Source_File>
ligand_docking-pose.sdf

> <i_m_Source_File_Index>
58

> <i_lp_mmshare_version>
53161

> <r_lp_tautomer_probability>
0.499999974950001

> <s_lp_Force_Field>
OPLS_2005

> <r_lp_Energy>
30.230935

> <b_lp_Chiralities_Consistent>
1

> <s_lp_Variant>
51859-1

> <s_i_glide_gridfile>
glide-grid_3eqh

> <i_i_glide_lignum>
104

> <i_i_glide_rotatable_bonds>
5

> <r_i_docking_score>
-8.53610965581501

> <r_i_glide_ligand_efficiency>
-0.328311909839039

> <r_i_glide_ligand_efficiency_sa>
-0.972622741053168

> <r_i_glide_ligand_efficiency_ln>
-2.00467734340784

> <r_i_glide_gscore>
-8.53610965581501

> <r_i_glide_lipo>
-4.3307977642378

> <r_i_glide_hbond>
-0.245376889818499

> <r_i_glide_metal>
0

> <r_i_glide_rewards>
-2.02499498484848

> <r_i_glide_evdw>
-47.7252197265625

> <r_i_glide_ecoul>
-1.93633210659027

> <r_i_glide_erotb>
0.741770785406438

> <r_i_glide_esite>
0

> <r_i_glide_emodel>
-73.5022929204649

> <r_i_glide_energy>
-49.6615518331528

> <r_i_glide_einternal>
4.54577398300171

> <i_i_glide_confnum>
30

> <i_i_glide_posenum>
235

> <r_i_glide_eff_state_penalty>
0

> <i_f3d_flags>
0

> <s_user_duplicate_titles>
51859

> <s_m_subgroup_title>
dock_pv

> <s_m_subgroupid>
dock_pv1

> <b_m_subgroup_collapsed>
0

$$$$
363015
                    3D
 Schrodinger Suite 2021-1.
 50 52  0  0  1  0            999 V2000
   -8.1237   51.0056   28.6062 C   0  0  0  0  0  0
   -6.8909   51.4114   29.4347 C   0  0  1  0  0  0
   -5.6028   51.5488   28.5841 C   0  0  0  0  0  0
   -5.1257   50.2836   28.1629 O   0  0  0  0  0  0
   -7.1652   52.6977   30.0618 N   0  0  0  0  0  0
   -7.0337   52.8336   31.3222 C   0  0  0  0  0  0
   -7.2712   54.1635   31.8829 C   0  0  0  0  0  0
   -8.4481   54.9097   31.7133 C   0  0  0  0  0  0
   -8.5615   56.0604   32.3351 N   0  0  0  0  0  0
   -7.0983   56.3691   33.1604 S   0  0  0  0  0  0
   -6.3486   54.8846   32.6387 C   0  0  0  0  0  0
   -5.0639   54.4967   32.9644 N   0  0  0  0  0  0
   -3.9095   55.2426   33.2456 C   0  0  0  0  0  0
   -2.8276   54.5536   33.7938 C   0  0  0  0  0  0
   -1.6282   55.2120   34.0457 C   0  0  0  0  0  0
   -1.5028   56.5716   33.7692 C   0  0  0  0  0  0
   -2.5844   57.2629   33.2088 C   0  0  0  0  0  0
   -3.7767   56.6002   32.9380 C   0  0  0  0  0  0
   -0.2847   57.1666   34.0277 O   0  0  0  0  0  0
   -0.2012   58.5093   34.3269 C   0  0  0  0  0  0
    0.6994   59.2980   33.6065 C   0  0  0  0  0  0
    0.8478   60.6622   33.8973 C   0  0  0  0  0  0
    0.0905   61.2250   34.9280 C   0  0  0  0  0  0
   -0.7898   60.4399   35.6648 C   0  0  0  0  0  0
   -0.9426   59.0888   35.3663 C   0  0  0  0  0  0
   -1.8075   58.3507   36.1005 F   0  0  0  0  0  0
    1.8274   61.5353   33.1209 C   0  0  0  0  0  0
    2.7871   60.8012   32.5630 F   0  0  0  0  0  0
    1.1617   62.1806   32.1632 F   0  0  0  0  0  0
    2.4080   62.4337   33.9183 F   0  0  0  0  0  0
   -9.5235   54.5176   30.9646 O   0  0  0  0  0  0
   -6.7001   51.9443   32.3211 N   0  0  0  0  0  0
   -7.9785   50.0301   28.1421 H   0  0  0  0  0  0
   -9.0148   50.9367   29.2336 H   0  0  0  0  0  0
   -8.3344   51.7286   27.8161 H   0  0  0  0  0  0
   -6.7223   50.6138   30.1643 H   0  0  0  0  0  0
   -4.8058   52.0176   29.1659 H   0  0  0  0  0  0
   -5.7721   52.1885   27.7157 H   0  0  0  0  0  0
   -4.7669   49.8381   28.9358 H   0  0  0  0  0  0
   -4.8660   53.5075   32.9425 H   0  0  0  0  0  0
   -2.9055   53.5015   34.0228 H   0  0  0  0  0  0
   -0.7947   54.6667   34.4631 H   0  0  0  0  0  0
   -2.5066   58.3135   32.9679 H   0  0  0  0  0  0
   -4.5712   57.1483   32.4574 H   0  0  0  0  0  0
    1.2725   58.8396   32.8125 H   0  0  0  0  0  0
    0.1863   62.2736   35.1669 H   0  0  0  0  0  0
   -1.3687   60.8850   36.4591 H   0  0  0  0  0  0
   -9.2343   53.8146   30.3772 H   0  0  0  0  0  0
   -6.5556   50.9691   32.1106 H   0  0  0  0  0  0
   -6.7829   52.2272   33.2862 H   0  0  0  0  0  0
  1  2  1  0  0  0
  1 33  1  0  0  0
  1 34  1  0  0  0
  1 35  1  0  0  0
  2  3  1  0  0  0
  2  5  1  0  0  0
  2 36  1  0  0  0
  3  4  1  0  0  0
  3 37  1  0  0  0
  3 38  1  0  0  0
  4 39  1  0  0  0
  5  6  2  0  0  0
  6  7  1  0  0  0
  6 32  1  0  0  0
  7 11  2  0  0  0
  7  8  1  0  0  0
  8  9  2  0  0  0
  8 31  1  0  0  0
  9 10  1  0  0  0
 10 11  1  0  0  0
 11 12  1  0  0  0
 12 13  1  0  0  0
 12 40  1  0  0  0
 13 18  1  0  0  0
 13 14  2  0  0  0
 14 15  1  0  0  0
 14 41  1  0  0  0
 15 16  2  0  0  0
 15 42  1  0  0  0
 16 17  1  0  0  0
 16 19  1  0  0  0
 17 18  2  0  0  0
 17 43  1  0  0  0
 18 44  1  0  0  0
 19 20  1  0  0  0
 20 25  1  0  0  0
 20 21  2  0  0  0
 21 22  1  0  0  0
 21 45  1  0  0  0
 22 23  2  0  0  0
 22 27  1  0  0  0
 23 24  1  0  0  0
 23 46  1  0  0  0
 24 25  2  0  0  0
 24 47  1  0  0  0
 25 26  1  0  0  0
 27 28  1  0  0  0
 27 29  1  0  0  0
 27 30  1  0  0  0
 31 48  1  0  0  0
 32 49  1  0  0  0
 32 50  1  0  0  0
M  END
> <s_m_entry_id>
66003

> <s_m_entry_name>
ligand_docking-pose.59

> <s_m_Source_Path>
/home/csk/Desktop/cluster/DUD-E-result/mp2k1

> <s_m_Source_File>
ligand_docking-pose.sdf

> <i_m_Source_File_Index>
59

> <i_lp_mmshare_version>
53161

> <r_lp_tautomer_probability>
1

> <s_lp_Force_Field>
OPLS_2005

> <r_lp_Energy>
27.243264

> <b_lp_Chiralities_Consistent>
1

> <s_lp_Variant>
363015-2

> <s_i_glide_gridfile>
glide-grid_3eqh

> <i_i_glide_lignum>
264

> <i_i_glide_rotatable_bonds>
10

> <r_i_docking_score>
-8.50658519376198

> <r_i_glide_ligand_efficiency>
-0.265830787305062

> <r_i_glide_ligand_efficiency_sa>
-0.843960141852199

> <r_i_glide_ligand_efficiency_ln>
-1.90485630563798

> <r_i_glide_gscore>
-8.50658519376198

> <r_i_glide_lipo>
-3.395609253929

> <r_i_glide_hbond>
-0.202504831636114

> <r_i_glide_metal>
0

> <r_i_glide_rewards>
-1.94294759593164

> <r_i_glide_evdw>
-49.4413909912109

> <r_i_glide_ecoul>
-7.55014896392822

> <r_i_glide_erotb>
0.639068381884558

> <r_i_glide_esite>
0

> <r_i_glide_emodel>
-80.4070797640106

> <r_i_glide_energy>
-56.9915399551392

> <r_i_glide_einternal>
7.38453054428101

> <i_i_glide_confnum>
101

> <i_i_glide_posenum>
251

> <r_i_glide_eff_state_penalty>
0

> <i_f3d_flags>
0

> <s_user_duplicate_titles>
363015

> <s_m_subgroup_title>
dock_pv

> <s_m_subgroupid>
dock_pv1

> <b_m_subgroup_collapsed>
0

$$$$
51818
                    3D
 Schrodinger Suite 2021-1.
 34 35  0  0  1  0            999 V2000
   -4.8374   54.1766   31.3975 C   0  0  0  0  0  0
   -3.9433   55.1449   30.9476 C   0  0  0  0  0  0
   -3.0411   55.7147   31.8411 C   0  0  0  0  0  0
   -3.0321   55.3190   33.1824 C   0  0  0  0  0  0
   -3.9240   54.3374   33.6206 C   0  0  0  0  0  0
   -4.8324   53.7705   32.7304 C   0  0  0  0  0  0
   -2.0758   55.9762   34.1813 C   0  0  1  0  0  0
   -0.6939   55.5157   33.9437 C   0  0  0  0  0  0
    0.3917   55.1501   33.7629 N   0  0  0  0  0  0
   -2.2207   57.5260   34.2582 C   0  0  1  0  0  0
   -3.5911   57.8614   34.6224 N   0  0  0  0  0  0
   -1.0365   58.3485   35.3629 S   0  0  0  0  0  0
    0.0019   59.3883   34.3586 C   0  0  0  0  0  0
    0.7920   58.8070   33.3630 C   0  0  0  0  0  0
    1.6225   59.5956   32.5668 C   0  0  0  0  0  0
    1.6768   60.9736   32.7685 C   0  0  0  0  0  0
    0.8960   61.5639   33.7590 C   0  0  0  0  0  0
    0.0586   60.7810   34.5549 C   0  0  0  0  0  0
   -0.7263   61.4227   35.5108 N   0  0  0  0  0  0
   -5.5443   53.7407   30.7069 H   0  0  0  0  0  0
   -3.9529   55.4605   29.9137 H   0  0  0  0  0  0
   -2.3514   56.4671   31.4858 H   0  0  0  0  0  0
   -3.9263   54.0173   34.6518 H   0  0  0  0  0  0
   -5.5277   53.0174   33.0710 H   0  0  0  0  0  0
   -2.3173   55.5852   35.1712 H   0  0  0  0  0  0
   -2.0494   57.9480   33.2673 H   0  0  0  0  0  0
   -4.2086   57.5147   33.8985 H   0  0  0  0  0  0
   -3.8356   57.3574   35.4631 H   0  0  0  0  0  0
    0.7640   57.7434   33.1889 H   0  0  0  0  0  0
    2.2215   59.1381   31.7923 H   0  0  0  0  0  0
    2.3264   61.5863   32.1599 H   0  0  0  0  0  0
    0.9411   62.6340   33.9037 H   0  0  0  0  0  0
   -0.8018   62.4281   35.4357 H   0  0  0  0  0  0
   -1.5341   60.8940   35.8082 H   0  0  0  0  0  0
  1  6  1  0  0  0
  1  2  2  0  0  0
  1 20  1  0  0  0
  2  3  1  0  0  0
  2 21  1  0  0  0
  3  4  2  0  0  0
  3 22  1  0  0  0
  4  5  1  0  0  0
  4  7  1  0  0  0
  5  6  2  0  0  0
  5 23  1  0  0  0
  6 24  1  0  0  0
  7  8  1  0  0  0
  7 10  1  0  0  0
  7 25  1  0  0  0
  8  9  3  0  0  0
 10 11  1  0  0  0
 10 12  1  0  0  0
 10 26  1  0  0  0
 11 27  1  0  0  0
 11 28  1  0  0  0
 12 13  1  0  0  0
 13 18  1  0  0  0
 13 14  2  0  0  0
 14 15  1  0  0  0
 14 29  1  0  0  0
 15 16  2  0  0  0
 15 30  1  0  0  0
 16 17  1  0  0  0
 16 31  1  0  0  0
 17 18  2  0  0  0
 17 32  1  0  0  0
 18 19  1  0  0  0
 19 33  1  0  0  0
 19 34  1  0  0  0
M  END
> <s_m_entry_id>
66004

> <s_m_entry_name>
ligand_docking-pose.60

> <s_m_Source_Path>
/home/csk/Desktop/cluster/DUD-E-result/mp2k1

> <s_m_Source_File>
ligand_docking-pose.sdf

> <i_m_Source_File_Index>
60

> <i_lp_mmshare_version>
53161

> <r_lp_tautomer_probability>
1

> <s_lp_Force_Field>
OPLS_2005

> <r_lp_Energy>
16.111663

> <b_lp_Chiralities_Consistent>
1

> <s_lp_Variant>
51818-4

> <s_i_glide_gridfile>
glide-grid_3eqh

> <i_i_glide_lignum>
28

> <i_i_glide_rotatable_bonds>
4

> <r_i_docking_score>
-8.47979698732469

> <r_i_glide_ligand_efficiency>
-0.446305104596036

> <r_i_glide_ligand_efficiency_sa>
-1.19092127576822

> <r_i_glide_ligand_efficiency_ln>
-2.14981066562644

> <r_i_glide_gscore>
-8.47979698732469

> <r_i_glide_lipo>
-3.64098578324201

> <r_i_glide_hbond>
-0.283179639472244

> <r_i_glide_metal>
0

> <r_i_glide_rewards>
-2.34732360314913

> <r_i_glide_evdw>
-38.0692024230957

> <r_i_glide_ecoul>
-6.95721673965454

> <r_i_glide_erotb>
0.73873467064166

> <r_i_glide_esite>
0

> <r_i_glide_emodel>
-64.9491836191138

> <r_i_glide_energy>
-45.0264191627502

> <r_i_glide_einternal>
4.78457450866699

> <i_i_glide_confnum>
12

> <i_i_glide_posenum>
77

> <r_i_glide_eff_state_penalty>
0

> <i_f3d_flags>
0

> <s_user_duplicate_titles>
51818

> <s_m_subgroup_title>
dock_pv

> <s_m_subgroupid>
dock_pv1

> <b_m_subgroup_collapsed>
0

$$$$
363013
                    3D
 Schrodinger Suite 2021-1.
 50 52  0  0  1  0            999 V2000
   -8.0770   51.0996   28.7107 C   0  0  0  0  0  0
   -6.8182   51.4672   29.5206 C   0  0  1  0  0  0
   -5.5554   51.6096   28.6358 C   0  0  0  0  0  0
   -5.1254   50.3470   28.1632 O   0  0  0  0  0  0
   -7.0641   52.7365   30.1930 N   0  0  0  0  0  0
   -6.8716   52.8504   31.4491 C   0  0  0  0  0  0
   -7.1268   54.1638   32.0461 C   0  0  0  0  0  0
   -8.3382   54.8648   31.9209 C   0  0  0  0  0  0
   -8.4800   55.9989   32.5647 N   0  0  0  0  0  0
   -7.0118   56.3472   33.3627 S   0  0  0  0  0  0
   -6.2104   54.9060   32.7957 C   0  0  0  0  0  0
   -4.8975   54.5697   33.0726 N   0  0  0  0  0  0
   -3.7526   55.3476   33.3221 C   0  0  0  0  0  0
   -3.7024   56.7410   33.2162 C   0  0  0  0  0  0
   -2.5031   57.4219   33.4111 C   0  0  0  0  0  0
   -1.3072   56.7290   33.6585 C   0  0  0  0  0  0
   -1.3604   55.3354   33.7630 C   0  0  0  0  0  0
   -2.5743   54.6611   33.6257 C   0  0  0  0  0  0
    0.0736   54.4152   34.0307 Cl  0  0  0  0  0  0
   -0.0816   57.3699   33.7668 O   0  0  0  0  0  0
    0.0052   58.6705   34.2236 C   0  0  0  0  0  0
   -0.7136   59.0659   35.3592 C   0  0  0  0  0  0
   -0.7279   60.3983   35.7424 C   0  0  0  0  0  0
    0.0115   61.3322   35.0300 C   0  0  0  0  0  0
    0.7924   60.9638   33.9338 C   0  0  0  0  0  0
    0.7864   59.6184   33.5332 C   0  0  0  0  0  0
    1.7259   59.1476   32.1629 Cl  0  0  0  0  0  0
    1.6280   62.0258   33.2050 C   0  0  0  0  0  0
    1.7303   63.1479   33.9062 F   0  0  0  0  0  0
    2.8738   61.6177   32.9633 F   0  0  0  0  0  0
    1.0294   62.3158   32.0519 F   0  0  0  0  0  0
   -9.4204   54.4421   31.1958 O   0  0  0  0  0  0
   -6.4707   51.9476   32.4099 N   0  0  0  0  0  0
   -7.9427   50.1593   28.1734 H   0  0  0  0  0  0
   -8.9432   50.9781   29.3633 H   0  0  0  0  0  0
   -8.3233   51.8691   27.9772 H   0  0  0  0  0  0
   -6.6408   50.6501   30.2254 H   0  0  0  0  0  0
   -4.7331   52.0452   29.2052 H   0  0  0  0  0  0
   -5.7401   52.2749   27.7893 H   0  0  0  0  0  0
   -4.8140   49.8451   28.9227 H   0  0  0  0  0  0
   -4.6552   53.5947   32.9773 H   0  0  0  0  0  0
   -4.5683   57.3232   32.9538 H   0  0  0  0  0  0
   -2.5083   58.4983   33.3627 H   0  0  0  0  0  0
   -2.5900   53.5853   33.7247 H   0  0  0  0  0  0
   -1.2946   58.3439   35.9136 H   0  0  0  0  0  0
   -1.3207   60.7180   36.5836 H   0  0  0  0  0  0
   -0.0217   62.3493   35.3677 H   0  0  0  0  0  0
   -9.1182   53.7613   30.5896 H   0  0  0  0  0  0
   -6.3267   50.9792   32.1709 H   0  0  0  0  0  0
   -6.5179   52.2078   33.3842 H   0  0  0  0  0  0
  1  2  1  0  0  0
  1 34  1  0  0  0
  1 35  1  0  0  0
  1 36  1  0  0  0
  2  3  1  0  0  0
  2  5  1  0  0  0
  2 37  1  0  0  0
  3  4  1  0  0  0
  3 38  1  0  0  0
  3 39  1  0  0  0
  4 40  1  0  0  0
  5  6  2  0  0  0
  6  7  1  0  0  0
  6 33  1  0  0  0
  7 11  2  0  0  0
  7  8  1  0  0  0
  8  9  2  0  0  0
  8 32  1  0  0  0
  9 10  1  0  0  0
 10 11  1  0  0  0
 11 12  1  0  0  0
 12 13  1  0  0  0
 12 41  1  0  0  0
 13 18  1  0  0  0
 13 14  2  0  0  0
 14 15  1  0  0  0
 14 42  1  0  0  0
 15 16  2  0  0  0
 15 43  1  0  0  0
 16 17  1  0  0  0
 16 20  1  0  0  0
 17 18  2  0  0  0
 17 19  1  0  0  0
 18 44  1  0  0  0
 20 21  1  0  0  0
 21 26  1  0  0  0
 21 22  2  0  0  0
 22 23  1  0  0  0
 22 45  1  0  0  0
 23 24  2  0  0  0
 23 46  1  0  0  0
 24 25  1  0  0  0
 24 47  1  0  0  0
 25 26  2  0  0  0
 25 28  1  0  0  0
 26 27  1  0  0  0
 28 29  1  0  0  0
 28 30  1  0  0  0
 28 31  1  0  0  0
 32 48  1  0  0  0
 33 49  1  0  0  0
 33 50  1  0  0  0
M  END
> <s_m_entry_id>
66005

> <s_m_entry_name>
ligand_docking-pose.61

> <s_m_Source_Path>
/home/csk/Desktop/cluster/DUD-E-result/mp2k1

> <s_m_Source_File>
ligand_docking-pose.sdf

> <i_m_Source_File_Index>
61

> <i_lp_mmshare_version>
53161

> <r_lp_tautomer_probability>
1

> <s_lp_Force_Field>
OPLS_2005

> <r_lp_Energy>
26.991736

> <b_lp_Chiralities_Consistent>
1

> <s_lp_Variant>
363013-2

> <s_i_glide_gridfile>
glide-grid_3eqh

> <i_i_glide_lignum>
226

> <i_i_glide_rotatable_bonds>
10

> <r_i_docking_score>
-8.47314453120276

> <r_i_glide_ligand_efficiency>
-0.256761955490993

> <r_i_glide_ligand_efficiency_sa>
-0.823572785914344

> <r_i_glide_ligand_efficiency_ln>
-1.88438347214507

> <r_i_glide_gscore>
-8.47314453120276

> <r_i_glide_lipo>
-3.66385927772657

> <r_i_glide_hbond>
-0.177619228878428

> <r_i_glide_metal>
0

> <r_i_glide_rewards>
-1.52022713683797

> <r_i_glide_evdw>
-52.3456077575684

> <r_i_glide_ecoul>
-6.82395839691162

> <r_i_glide_erotb>
0.529435259655369

> <r_i_glide_esite>
0

> <r_i_glide_emodel>
-91.2245694052663

> <r_i_glide_energy>
-59.16956615448

> <r_i_glide_einternal>
7.64421081542969

> <i_i_glide_confnum>
57

> <i_i_glide_posenum>
85

> <r_i_glide_eff_state_penalty>
0

> <i_f3d_flags>
0

> <s_user_duplicate_titles>
363013

> <s_m_subgroup_title>
dock_pv

> <s_m_subgroupid>
dock_pv1

> <b_m_subgroup_collapsed>
0

$$$$
51237
                    3D
 Schrodinger Suite 2021-1.
 45 47  0  0  1  0            999 V2000
   -8.1586   52.2404   33.1756 C   0  0  0  0  0  0
   -6.7716   52.1090   33.1927 C   0  0  0  0  0  0
   -5.9766   52.9974   32.4687 C   0  0  0  0  0  0
   -6.5621   54.0198   31.7116 C   0  0  0  0  0  0
   -7.9638   54.1467   31.6927 C   0  0  0  0  0  0
   -8.7518   53.2572   32.4279 C   0  0  0  0  0  0
   -8.6078   55.1480   30.9631 N   0  0  0  0  0  0
   -5.5262   55.0996   30.7416 S   0  0  0  0  0  0
   -4.3810   55.7120   31.9575 C   0  0  0  0  0  0
   -4.6271   56.7923   32.7357 C   0  0  0  0  0  0
   -5.8388   57.5478   32.6183 C   0  0  0  0  0  0
   -6.7883   58.2105   32.5784 N   0  0  0  0  0  0
   -3.6738   57.3160   33.7420 C   0  0  0  0  0  0
   -4.1376   57.6347   35.0194 C   0  0  0  0  0  0
   -3.2641   58.1039   35.9981 C   0  0  0  0  0  0
   -1.9098   58.2398   35.7198 C   0  0  0  0  0  0
   -1.4162   57.9016   34.4587 C   0  0  0  0  0  0
   -2.3092   57.4686   33.4671 C   0  0  0  0  0  0
    0.0917   57.8711   34.2362 C   0  0  2  0  0  0
    0.7125   59.2270   33.8917 C   0  0  0  0  0  0
    1.2878   60.0228   34.8904 C   0  0  0  0  0  0
    1.8404   61.2638   34.5645 C   0  0  0  0  0  0
    1.8089   61.6773   33.2330 C   0  0  0  0  0  0
    1.2748   60.9201   32.2432 N   0  0  0  0  0  0
    0.7589   59.7118   32.5793 C   0  0  0  0  0  0
    0.4742   56.8310   33.3630 O   0  0  0  0  0  0
   -3.2562   54.9288   31.9780 N   0  0  0  0  0  0
   -8.7729   51.5545   33.7412 H   0  0  0  0  0  0
   -6.3149   51.3144   33.7646 H   0  0  0  0  0  0
   -4.9049   52.8721   32.4877 H   0  0  0  0  0  0
   -9.8283   53.3496   32.4241 H   0  0  0  0  0  0
   -8.0535   55.8470   30.4734 H   0  0  0  0  0  0
   -9.6139   55.1920   30.9431 H   0  0  0  0  0  0
   -5.1824   57.5046   35.2645 H   0  0  0  0  0  0
   -3.6348   58.3434   36.9815 H   0  0  0  0  0  0
   -1.2379   58.5642   36.5003 H   0  0  0  0  0  0
   -1.9355   57.2166   32.4850 H   0  0  0  0  0  0
    0.5305   57.5650   35.1884 H   0  0  0  0  0  0
    1.3033   59.6868   35.9151 H   0  0  0  0  0  0
    2.2784   61.8901   35.3277 H   0  0  0  0  0  0
    2.2212   62.6321   32.9401 H   0  0  0  0  0  0
    0.3387   59.1481   31.7630 H   0  0  0  0  0  0
    0.4031   57.1476   32.4471 H   0  0  0  0  0  0
   -2.5209   55.0947   32.6501 H   0  0  0  0  0  0
   -3.1419   54.1735   31.3189 H   0  0  0  0  0  0
  1  6  1  0  0  0
  1  2  2  0  0  0
  1 28  1  0  0  0
  2  3  1  0  0  0
  2 29  1  0  0  0
  3  4  2  0  0  0
  3 30  1  0  0  0
  4  5  1  0  0  0
  4  8  1  0  0  0
  5  6  2  0  0  0
  5  7  1  0  0  0
  6 31  1  0  0  0
  7 32  1  0  0  0
  7 33  1  0  0  0
  8  9  1  0  0  0
  9 10  2  0  0  0
  9 27  1  0  0  0
 10 11  1  0  0  0
 10 13  1  0  0  0
 11 12  3  0  0  0
 13 18  1  0  0  0
 13 14  2  0  0  0
 14 15  1  0  0  0
 14 34  1  0  0  0
 15 16  2  0  0  0
 15 35  1  0  0  0
 16 17  1  0  0  0
 16 36  1  0  0  0
 17 18  2  0  0  0
 17 19  1  0  0  0
 18 37  1  0  0  0
 19 20  1  0  0  0
 19 26  1  0  0  0
 19 38  1  0  0  0
 20 25  1  0  0  0
 20 21  2  0  0  0
 21 22  1  0  0  0
 21 39  1  0  0  0
 22 23  2  0  0  0
 22 40  1  0  0  0
 23 24  1  0  0  0
 23 41  1  0  0  0
 24 25  2  0  0  0
 25 42  1  0  0  0
 26 43  1  0  0  0
 27 44  1  0  0  0
 27 45  1  0  0  0
M  END
> <s_m_entry_id>
66006

> <s_m_entry_name>
ligand_docking-pose.62

> <s_m_Source_Path>
/home/csk/Desktop/cluster/DUD-E-result/mp2k1

> <s_m_Source_File>
ligand_docking-pose.sdf

> <i_m_Source_File_Index>
62

> <i_lp_mmshare_version>
53161

> <r_lp_tautomer_probability>
0.499999974950001

> <s_lp_Force_Field>
OPLS_2005

> <r_lp_Energy>
20.897669

> <b_lp_Chiralities_Consistent>
1

> <s_lp_Variant>
51237-1

> <s_i_glide_gridfile>
glide-grid_3eqh

> <i_i_glide_lignum>
91

> <i_i_glide_rotatable_bonds>
6

> <r_i_docking_score>
-8.45506069539544

> <r_i_glide_ligand_efficiency>
-0.313150396125757

> <r_i_glide_ligand_efficiency_sa>
-0.939451187345178

> <r_i_glide_ligand_efficiency_ln>
-1.96819873731837

> <r_i_glide_gscore>
-8.45506069539544

> <r_i_glide_lipo>
-4.02829621864138

> <r_i_glide_hbond>
-0.425195813492834

> <r_i_glide_metal>
0

> <r_i_glide_rewards>
-1.16073359904699

> <r_i_glide_evdw>
-45.134349822998

> <r_i_glide_ecoul>
-7.96683692932129

> <r_i_glide_erotb>
0.689495481982292

> <r_i_glide_esite>
-0.0785875156484229

> <r_i_glide_emodel>
-76.4400668890303

> <r_i_glide_energy>
-53.1011867523193

> <r_i_glide_einternal>
5.00865173339844

> <i_i_glide_confnum>
66

> <i_i_glide_posenum>
375

> <r_i_glide_eff_state_penalty>
0

> <i_f3d_flags>
0

> <s_user_duplicate_titles>
51237

> <s_m_subgroup_title>
dock_pv

> <s_m_subgroupid>
dock_pv1

> <b_m_subgroup_collapsed>
0

$$$$
336144
                    3D
 Schrodinger Suite 2021-1.
 30 31  0  0  1  0            999 V2000
   -5.3821   55.8808   32.7121 C   0  0  0  0  0  0
   -4.1728   56.3632   33.3930 N   0  0  0  0  0  0
   -2.9741   55.7117   33.2670 C   0  0  0  0  0  0
   -1.8024   56.0954   33.8241 C   0  0  0  0  0  0
   -1.8224   57.3500   34.6003 C   0  0  0  0  0  0
   -3.0358   57.9303   34.8205 C   0  0  0  0  0  0
   -4.2958   57.4277   34.2584 C   0  0  0  0  0  0
   -5.3731   57.9480   34.5618 O   0  0  0  0  0  0
   -3.1277   59.0411   35.5894 F   0  0  0  0  0  0
   -0.6871   57.9480   35.1234 N   0  0  0  0  0  0
   -0.0726   59.0523   34.5155 C   0  0  0  0  0  0
    0.6941   58.8806   33.3615 C   0  0  0  0  0  0
    1.2058   59.9810   32.6727 C   0  0  0  0  0  0
    0.9557   61.2692   33.1424 C   0  0  0  0  0  0
    0.2342   61.4468   34.3215 C   0  0  0  0  0  0
   -0.2711   60.3471   35.0144 C   0  0  0  0  0  0
   -0.9603   60.5527   36.1625 F   0  0  0  0  0  0
    1.5682   62.7832   32.1647 Br  0  0  0  0  0  0
   -0.6598   55.2122   33.7632 C   0  0  0  0  0  0
    0.4746   55.5464   33.4525 O   0  0  0  0  0  0
   -0.9683   53.9483   34.1630 O   0  0  0  0  0  0
   -5.1811   55.7453   31.6483 H   0  0  0  0  0  0
   -6.2332   56.5605   32.7880 H   0  0  0  0  0  0
   -5.6862   54.9182   33.1249 H   0  0  0  0  0  0
   -3.0991   54.7647   32.7559 H   0  0  0  0  0  0
   -0.7629   58.1390   36.1117 H   0  0  0  0  0  0
    0.8688   57.8950   32.9631 H   0  0  0  0  0  0
    1.7688   59.8317   31.7619 H   0  0  0  0  0  0
    0.0423   62.4389   34.6932 H   0  0  0  0  0  0
   -0.2065   53.3610   34.1628 H   0  0  0  0  0  0
  1  2  1  0  0  0
  1 22  1  0  0  0
  1 23  1  0  0  0
  1 24  1  0  0  0
  2  7  1  0  0  0
  2  3  1  0  0  0
  3  4  2  0  0  0
  3 25  1  0  0  0
  4  5  1  0  0  0
  4 19  1  0  0  0
  5  6  2  0  0  0
  5 10  1  0  0  0
  6  7  1  0  0  0
  6  9  1  0  0  0
  7  8  2  0  0  0
 10 11  1  0  0  0
 10 26  1  0  0  0
 11 16  1  0  0  0
 11 12  2  0  0  0
 12 13  1  0  0  0
 12 27  1  0  0  0
 13 14  2  0  0  0
 13 28  1  0  0  0
 14 15  1  0  0  0
 14 18  1  0  0  0
 15 16  2  0  0  0
 15 29  1  0  0  0
 16 17  1  0  0  0
 19 20  2  0  0  0
 19 21  1  0  0  0
 21 30  1  0  0  0
M  END
> <s_m_entry_id>
66007

> <s_m_entry_name>
ligand_docking-pose.63

> <s_m_Source_Path>
/home/csk/Desktop/cluster/DUD-E-result/mp2k1

> <s_m_Source_File>
ligand_docking-pose.sdf

> <i_m_Source_File_Index>
63

> <i_lp_mmshare_version>
53161

> <r_lp_tautomer_probability>
1

> <s_lp_Force_Field>
OPLS_2005

> <r_lp_Energy>
33.250189

> <b_lp_Chiralities_Consistent>
1

> <s_lp_Variant>
336144-1

> <s_i_glide_gridfile>
glide-grid_3eqh

> <i_i_glide_lignum>
333

> <i_i_glide_rotatable_bonds>
4

> <r_i_docking_score>
-8.44349596473894

> <r_i_glide_ligand_efficiency>
-0.40207123641614

> <r_i_glide_ligand_efficiency_sa>
-1.10928405365019

> <r_i_glide_ligand_efficiency_ln>
-2.0876373155916

> <r_i_glide_gscore>
-8.44349596473894

> <r_i_glide_lipo>
-3.01981807981826

> <r_i_glide_hbond>
-0.386439902079114

> <r_i_glide_metal>
0

> <r_i_glide_rewards>
-2.1360625795704

> <r_i_glide_evdw>
-38.9492607116699

> <r_i_glide_ecoul>
-8.81187343597412

> <r_i_glide_erotb>
0.445774418835352

> <r_i_glide_esite>
-0.0777057711269001

> <r_i_glide_emodel>
-67.9816565256319

> <r_i_glide_energy>
-47.761134147644

> <r_i_glide_einternal>
6.46131658554077

> <i_i_glide_confnum>
8

> <i_i_glide_posenum>
374

> <r_i_glide_eff_state_penalty>
0

> <i_f3d_flags>
0

> <s_user_duplicate_titles>
336144

> <s_m_subgroup_title>
dock_pv

> <s_m_subgroupid>
dock_pv1

> <b_m_subgroup_collapsed>
0

$$$$
51685
                    3D
 Schrodinger Suite 2021-1.
 42 43  0  0  1  0            999 V2000
    2.4150   61.5656   33.9352 C   0  0  0  0  0  0
    1.4114   60.7574   33.0798 C   0  0  0  0  0  0
    2.1568   59.7339   32.1984 C   0  0  0  0  0  0
    0.3100   60.1053   33.9405 C   0  0  0  0  0  0
   -0.3224   60.8453   34.9463 C   0  0  0  0  0  0
   -1.2740   60.2520   35.7634 C   0  0  0  0  0  0
   -1.6430   58.9227   35.5795 C   0  0  0  0  0  0
   -1.0679   58.1700   34.5517 C   0  0  0  0  0  0
   -0.0855   58.7671   33.7576 C   0  0  0  0  0  0
   -1.4650   56.7650   34.2954 C   0  0  0  0  0  0
   -2.7312   56.2974   34.3491 C   0  0  0  0  0  0
   -3.8694   57.0359   34.5441 N   0  0  0  0  0  0
   -3.1261   54.5682   34.1627 S   0  0  0  0  0  0
   -4.0880   54.5375   32.6700 C   0  0  0  0  0  0
   -3.6198   55.2097   31.5349 C   0  0  0  0  0  0
   -4.3334   55.1477   30.3392 C   0  0  0  0  0  0
   -5.5150   54.4086   30.2738 C   0  0  0  0  0  0
   -5.9906   53.7432   31.3998 C   0  0  0  0  0  0
   -5.2870   53.8070   32.5996 C   0  0  0  0  0  0
   -5.8222   53.1475   33.7059 N   0  0  0  0  0  0
   -0.3874   55.8749   34.0131 C   0  0  0  0  0  0
    0.4740   55.1477   33.7631 N   0  0  0  0  0  0
    0.8742   61.6979   32.1722 O   0  0  0  0  0  0
    2.8468   60.9508   34.7253 H   0  0  0  0  0  0
    3.2407   61.9491   33.3345 H   0  0  0  0  0  0
    1.9545   62.4322   34.4103 H   0  0  0  0  0  0
    2.4774   58.8668   32.7751 H   0  0  0  0  0  0
    1.5435   59.3746   31.3700 H   0  0  0  0  0  0
    3.0564   60.1594   31.7636 H   0  0  0  0  0  0
   -0.0784   61.8849   35.1077 H   0  0  0  0  0  0
   -1.7297   60.8369   36.5463 H   0  0  0  0  0  0
   -2.3760   58.4869   36.2401 H   0  0  0  0  0  0
    0.3440   58.1738   32.9636 H   0  0  0  0  0  0
   -3.8353   58.0438   34.5111 H   0  0  0  0  0  0
   -4.7748   56.5871   34.5637 H   0  0  0  0  0  0
   -2.7011   55.7783   31.5686 H   0  0  0  0  0  0
   -3.9722   55.6758   29.4674 H   0  0  0  0  0  0
   -6.0833   54.3532   29.3623 H   0  0  0  0  0  0
   -6.9159   53.1892   31.3332 H   0  0  0  0  0  0
   -6.7287   52.7110   33.6327 H   0  0  0  0  0  0
   -5.3924   53.3003   34.6101 H   0  0  0  0  0  0
    1.6087   62.0563   31.6667 H   0  0  0  0  0  0
  1  2  1  0  0  0
  1 24  1  0  0  0
  1 25  1  0  0  0
  1 26  1  0  0  0
  2  3  1  0  0  0
  2  4  1  0  0  0
  2 23  1  0  0  0
  3 27  1  0  0  0
  3 28  1  0  0  0
  3 29  1  0  0  0
  4  9  1  0  0  0
  4  5  2  0  0  0
  5  6  1  0  0  0
  5 30  1  0  0  0
  6  7  2  0  0  0
  6 31  1  0  0  0
  7  8  1  0  0  0
  7 32  1  0  0  0
  8  9  2  0  0  0
  8 10  1  0  0  0
  9 33  1  0  0  0
 10 11  2  0  0  0
 10 21  1  0  0  0
 11 12  1  0  0  0
 11 13  1  0  0  0
 12 34  1  0  0  0
 12 35  1  0  0  0
 13 14  1  0  0  0
 14 19  1  0  0  0
 14 15  2  0  0  0
 15 16  1  0  0  0
 15 36  1  0  0  0
 16 17  2  0  0  0
 16 37  1  0  0  0
 17 18  1  0  0  0
 17 38  1  0  0  0
 18 19  2  0  0  0
 18 39  1  0  0  0
 19 20  1  0  0  0
 20 40  1  0  0  0
 20 41  1  0  0  0
 21 22  3  0  0  0
 23 42  1  0  0  0
M  END
> <s_m_entry_id>
66008

> <s_m_entry_name>
ligand_docking-pose.64

> <s_m_Source_Path>
/home/csk/Desktop/cluster/DUD-E-result/mp2k1

> <s_m_Source_File>
ligand_docking-pose.sdf

> <i_m_Source_File_Index>
64

> <i_lp_mmshare_version>
53161

> <r_lp_tautomer_probability>
0.499999974950001

> <s_lp_Force_Field>
OPLS_2005

> <r_lp_Energy>
21.624876

> <b_lp_Chiralities_Consistent>
1

> <s_lp_Variant>
51685-1

> <s_i_glide_gridfile>
glide-grid_3eqh

> <i_i_glide_lignum>
202

> <i_i_glide_rotatable_bonds>
5

> <r_i_docking_score>
-8.43296496275919

> <r_i_glide_ligand_efficiency>
-0.366650650554747

> <r_i_glide_ligand_efficiency_sa>
-1.04270567716394

> <r_i_glide_ligand_efficiency_ln>
-2.03916739389381

> <r_i_glide_gscore>
-8.43296496275919

> <r_i_glide_lipo>
-3.45443197849553

> <r_i_glide_hbond>
-0.631416661345351

> <r_i_glide_metal>
0

> <r_i_glide_rewards>
-1.85692375757576

> <r_i_glide_evdw>
-40.8424644470215

> <r_i_glide_ecoul>
-7.70614624023438

> <r_i_glide_erotb>
0.707852593043687

> <r_i_glide_esite>
0

> <r_i_glide_emodel>
-67.9373782440846

> <r_i_glide_energy>
-48.5486106872559

> <r_i_glide_einternal>
5.79549980163574

> <i_i_glide_confnum>
34

> <i_i_glide_posenum>
150

> <r_i_glide_eff_state_penalty>
0

> <i_f3d_flags>
0

> <s_user_duplicate_titles>
51685

> <s_m_subgroup_title>
dock_pv

> <s_m_subgroupid>
dock_pv1

> <b_m_subgroup_collapsed>
0

$$$$
157051
                    3D
 Schrodinger Suite 2021-1.
 38 39  0  0  1  0            999 V2000
    1.6406   61.5409   33.2568 C   0  0  0  0  0  0
    1.8832   60.3443   32.5870 C   0  0  0  0  0  0
    1.3937   59.1488   33.0998 C   0  0  0  0  0  0
    0.6718   59.1561   34.2903 C   0  0  0  0  0  0
    0.4263   60.3519   34.9629 C   0  0  0  0  0  0
    0.9128   61.5476   34.4438 C   0  0  0  0  0  0
    0.0744   57.6334   34.9621 S   0  0  0  0  0  0
   -1.6158   57.5468   34.3729 C   0  0  0  0  0  0
   -2.1564   56.4359   33.8087 C   0  0  0  0  0  0
   -3.5385   56.3973   33.2765 C   0  0  0  0  0  0
   -3.9134   55.6076   32.2369 C   0  0  0  0  0  0
   -5.5589   55.6127   31.5356 S   0  0  0  0  0  0
   -6.4105   54.2602   32.3106 C   0  0  0  0  0  0
   -7.7823   54.3903   32.5328 C   0  0  0  0  0  0
   -8.5070   53.3280   33.0682 C   0  0  0  0  0  0
   -7.8592   52.1306   33.3629 C   0  0  0  0  0  0
   -6.4924   51.9909   33.1366 C   0  0  0  0  0  0
   -5.7657   53.0578   32.6128 C   0  0  0  0  0  0
   -3.1271   54.7486   31.5187 N   0  0  0  0  0  0
   -4.5425   57.2330   33.8649 C   0  0  0  0  0  0
   -5.3275   57.9464   34.3323 N   0  0  0  0  0  0
   -1.3335   55.2660   33.7627 C   0  0  0  0  0  0
   -0.6279   54.3481   33.7631 N   0  0  0  0  0  0
   -2.2359   58.7479   34.5696 N   0  0  0  0  0  0
    2.0294   62.4670   32.8588 H   0  0  0  0  0  0
    2.4667   60.3342   31.6854 H   0  0  0  0  0  0
    1.5898   58.2226   32.5794 H   0  0  0  0  0  0
   -0.1319   60.3528   35.8871 H   0  0  0  0  0  0
    0.7325   62.4741   34.9650 H   0  0  0  0  0  0
   -8.2872   55.3123   32.2827 H   0  0  0  0  0  0
   -9.5682   53.4291   33.2436 H   0  0  0  0  0  0
   -8.4213   51.3035   33.7732 H   0  0  0  0  0  0
   -5.9958   51.0585   33.3617 H   0  0  0  0  0  0
   -4.7139   52.9262   32.4302 H   0  0  0  0  0  0
   -2.1635   54.5846   31.7698 H   0  0  0  0  0  0
   -3.4897   54.2909   30.6952 H   0  0  0  0  0  0
   -3.1399   58.9429   34.1626 H   0  0  0  0  0  0
   -1.7107   59.5512   34.8842 H   0  0  0  0  0  0
  1  6  1  0  0  0
  1  2  2  0  0  0
  1 25  1  0  0  0
  2  3  1  0  0  0
  2 26  1  0  0  0
  3  4  2  0  0  0
  3 27  1  0  0  0
  4  5  1  0  0  0
  4  7  1  0  0  0
  5  6  2  0  0  0
  5 28  1  0  0  0
  6 29  1  0  0  0
  7  8  1  0  0  0
  8  9  2  0  0  0
  8 24  1  0  0  0
  9 10  1  0  0  0
  9 22  1  0  0  0
 10 11  2  0  0  0
 10 20  1  0  0  0
 11 12  1  0  0  0
 11 19  1  0  0  0
 12 13  1  0  0  0
 13 18  1  0  0  0
 13 14  2  0  0  0
 14 15  1  0  0  0
 14 30  1  0  0  0
 15 16  2  0  0  0
 15 31  1  0  0  0
 16 17  1  0  0  0
 16 32  1  0  0  0
 17 18  2  0  0  0
 17 33  1  0  0  0
 18 34  1  0  0  0
 19 35  1  0  0  0
 19 36  1  0  0  0
 20 21  3  0  0  0
 22 23  3  0  0  0
 24 37  1  0  0  0
 24 38  1  0  0  0
M  END
> <s_m_entry_id>
66009

> <s_m_entry_name>
ligand_docking-pose.65

> <s_m_Source_Path>
/home/csk/Desktop/cluster/DUD-E-result/mp2k1

> <s_m_Source_File>
ligand_docking-pose.sdf

> <i_m_Source_File_Index>
65

> <i_lp_mmshare_version>
53161

> <r_lp_tautomer_probability>
1

> <s_lp_Force_Field>
OPLS_2005

> <r_lp_Energy>
27.563443

> <b_lp_Chiralities_Consistent>
1

> <s_lp_Variant>
157051-1

> <s_i_glide_gridfile>
glide-grid_3eqh

> <i_i_glide_lignum>
116

> <i_i_glide_rotatable_bonds>
5

> <r_i_docking_score>
-8.42474883599558

> <r_i_glide_ligand_efficiency>
-0.351031201499816

> <r_i_glide_ligand_efficiency_sa>
-1.01254919798256

> <r_i_glide_ligand_efficiency_ln>
-2.01642898298751

> <r_i_glide_gscore>
-8.42474883599558

> <r_i_glide_lipo>
-4.15274338573555

> <r_i_glide_hbond>
-0.00758547383826809

> <r_i_glide_metal>
0

> <r_i_glide_rewards>
-2.07365284730226

> <r_i_glide_evdw>
-41.5430946350098

> <r_i_glide_ecoul>
-3.68257713317871

> <r_i_glide_erotb>
0.465572167212888

> <r_i_glide_esite>
-0.0267979946050963

> <r_i_glide_emodel>
-66.6880828546259

> <r_i_glide_energy>
-45.2256717681885

> <r_i_glide_einternal>
6.12178993225098

> <i_i_glide_confnum>
9

> <i_i_glide_posenum>
92

> <r_i_glide_eff_state_penalty>
0

> <i_f3d_flags>
0

> <s_user_duplicate_titles>
157051

> <s_m_subgroup_title>
dock_pv

> <s_m_subgroupid>
dock_pv1

> <b_m_subgroup_collapsed>
0

$$$$
51761
                    3D
 Schrodinger Suite 2021-1.
 47 49  0  0  1  0            999 V2000
    0.9807   61.6647   32.8817 C   0  0  0  0  0  0
    1.5804   60.4443   32.5751 C   0  0  0  0  0  0
    1.2795   59.3100   33.3255 C   0  0  0  0  0  0
    0.3880   59.3924   34.3972 C   0  0  0  0  0  0
   -0.2196   60.6187   34.7070 C   0  0  0  0  0  0
    0.0740   61.7463   33.9372 C   0  0  0  0  0  0
   -1.1196   60.7413   35.7383 O   0  0  0  0  0  0
    0.0647   57.9481   35.3629 S   0  0  0  0  0  0
   -0.8973   56.9528   34.2402 C   0  0  0  0  0  0
   -2.2532   56.9526   34.2256 C   0  0  0  0  0  0
   -2.9579   57.7492   35.1815 C   0  0  0  0  0  0
   -3.5260   58.3478   35.9936 N   0  0  0  0  0  0
   -3.1145   56.1972   33.2663 C   0  0  0  0  0  0
   -2.7261   55.9479   31.9457 C   0  0  0  0  0  0
   -3.5508   55.2501   31.0646 C   0  0  0  0  0  0
   -4.8035   54.8108   31.4827 C   0  0  0  0  0  0
   -5.2394   55.0695   32.7869 C   0  0  0  0  0  0
   -4.3766   55.7396   33.6642 C   0  0  0  0  0  0
   -6.6537   54.7011   33.2667 C   0  0  1  0  0  0
   -7.4790   55.9229   33.6841 C   0  0  0  0  0  0
   -8.3274   55.8514   34.7953 C   0  0  0  0  0  0
   -9.0461   56.9724   35.2100 C   0  0  0  0  0  0
   -8.9070   58.1847   34.5351 C   0  0  0  0  0  0
   -8.0649   58.2683   33.4230 C   0  0  0  0  0  0
   -7.3710   57.1353   32.9893 C   0  0  0  0  0  0
   -7.9656   59.5127   32.6633 N   0  3  0  0  0  0
   -7.1260   60.3472   32.9629 O   0  5  0  0  0  0
   -8.7260   59.6450   31.7317 O   0  0  0  0  0  0
   -7.3773   53.8854   32.3641 O   0  0  0  0  0  0
   -0.0588   56.2112   33.4559 N   0  0  0  0  0  0
    1.2214   62.5456   32.3034 H   0  0  0  0  0  0
    2.2859   60.3723   31.7633 H   0  0  0  0  0  0
    1.7553   58.3723   33.0788 H   0  0  0  0  0  0
   -0.3976   62.6920   34.1627 H   0  0  0  0  0  0
   -1.7629   61.4280   35.5392 H   0  0  0  0  0  0
   -1.7995   56.3475   31.5707 H   0  0  0  0  0  0
   -3.2352   55.0915   30.0437 H   0  0  0  0  0  0
   -5.4458   54.3045   30.7760 H   0  0  0  0  0  0
   -4.7240   55.9485   34.6617 H   0  0  0  0  0  0
   -6.5073   54.0867   34.1591 H   0  0  0  0  0  0
   -8.4305   54.9253   35.3435 H   0  0  0  0  0  0
   -9.7131   56.8995   36.0573 H   0  0  0  0  0  0
   -9.4698   59.0507   34.8567 H   0  0  0  0  0  0
   -6.7437   57.1999   32.1082 H   0  0  0  0  0  0
   -8.1904   53.6102   32.7937 H   0  0  0  0  0  0
   -0.4238   55.6252   32.7181 H   0  0  0  0  0  0
    0.9394   56.3312   33.5275 H   0  0  0  0  0  0
  1  6  1  0  0  0
  1  2  2  0  0  0
  1 31  1  0  0  0
  2  3  1  0  0  0
  2 32  1  0  0  0
  3  4  2  0  0  0
  3 33  1  0  0  0
  4  5  1  0  0  0
  4  8  1  0  0  0
  5  6  2  0  0  0
  5  7  1  0  0  0
  6 34  1  0  0  0
  7 35  1  0  0  0
  8  9  1  0  0  0
  9 10  2  0  0  0
  9 30  1  0  0  0
 10 11  1  0  0  0
 10 13  1  0  0  0
 11 12  3  0  0  0
 13 18  1  0  0  0
 13 14  2  0  0  0
 14 15  1  0  0  0
 14 36  1  0  0  0
 15 16  2  0  0  0
 15 37  1  0  0  0
 16 17  1  0  0  0
 16 38  1  0  0  0
 17 18  2  0  0  0
 17 19  1  0  0  0
 18 39  1  0  0  0
 19 20  1  0  0  0
 19 29  1  0  0  0
 19 40  1  0  0  0
 20 25  1  0  0  0
 20 21  2  0  0  0
 21 22  1  0  0  0
 21 41  1  0  0  0
 22 23  2  0  0  0
 22 42  1  0  0  0
 23 24  1  0  0  0
 23 43  1  0  0  0
 24 25  2  0  0  0
 24 26  1  0  0  0
 25 44  1  0  0  0
 26 27  1  0  0  0
 26 28  2  0  0  0
 29 45  1  0  0  0
 30 46  1  0  0  0
 30 47  1  0  0  0
M  CHG  2  26   1  27  -1
M  END
> <s_m_entry_id>
66010

> <s_m_entry_name>
ligand_docking-pose.66

> <s_m_Source_Path>
/home/csk/Desktop/cluster/DUD-E-result/mp2k1

> <s_m_Source_File>
ligand_docking-pose.sdf

> <i_m_Source_File_Index>
66

> <i_lp_mmshare_version>
53161

> <r_lp_tautomer_probability>
0.499999974948684

> <s_lp_Force_Field>
OPLS_2005

> <r_lp_Energy>
27.902054

> <b_lp_Chiralities_Consistent>
1

> <s_lp_Variant>
51761-2

> <s_i_glide_gridfile>
glide-grid_3eqh

> <i_i_glide_lignum>
113

> <i_i_glide_rotatable_bonds>
8

> <r_i_docking_score>
-8.40129616796778

> <r_i_glide_ligand_efficiency>
-0.280043205598926

> <r_i_glide_ligand_efficiency_sa>
-0.870159350521975

> <r_i_glide_ligand_efficiency_ln>
-1.90886602881576

> <r_i_glide_gscore>
-8.40129616796778

> <r_i_glide_lipo>
-4.00800035470647

> <r_i_glide_hbond>
-0.186760954347663

> <r_i_glide_metal>
0

> <r_i_glide_rewards>
-0.840843393939393

> <r_i_glide_evdw>
-45.9045791625977

> <r_i_glide_ecoul>
-9.18042659759521

> <r_i_glide_erotb>
0.562217686674738

> <r_i_glide_esite>
-0.255616203879828

> <r_i_glide_emodel>
-73.6547607661587

> <r_i_glide_energy>
-55.0850057601929

> <r_i_glide_einternal>
17.8329067230225

> <i_i_glide_confnum>
120

> <i_i_glide_posenum>
275

> <r_i_glide_eff_state_penalty>
0

> <i_f3d_flags>
0

> <s_user_duplicate_titles>
51761

> <s_m_subgroup_title>
dock_pv

> <s_m_subgroupid>
dock_pv1

> <b_m_subgroup_collapsed>
0

$$$$
51234
                    3D
 Schrodinger Suite 2021-1.
 45 47  0  0  1  0            999 V2000
   -8.3058   52.4589   33.3614 C   0  0  0  0  0  0
   -6.9633   52.1343   33.1752 C   0  0  0  0  0  0
   -6.1560   52.9418   32.3748 C   0  0  0  0  0  0
   -6.6848   54.0779   31.7512 C   0  0  0  0  0  0
   -8.0392   54.4073   31.9437 C   0  0  0  0  0  0
   -8.8397   53.5934   32.7497 C   0  0  0  0  0  0
   -8.6197   55.5374   31.3630 N   0  0  0  0  0  0
   -5.6256   55.0674   30.7193 S   0  0  0  0  0  0
   -4.4728   55.6761   31.9253 C   0  0  0  0  0  0
   -4.7033   56.7625   32.6989 C   0  0  0  0  0  0
   -5.8964   57.5480   32.5840 C   0  0  0  0  0  0
   -6.8258   58.2399   32.5630 N   0  0  0  0  0  0
   -3.7485   57.2565   33.7144 C   0  0  0  0  0  0
   -4.2192   57.5457   34.9964 C   0  0  0  0  0  0
   -3.3440   57.9526   35.9989 C   0  0  0  0  0  0
   -1.9887   58.0848   35.7299 C   0  0  0  0  0  0
   -1.4963   57.8249   34.4490 C   0  0  0  0  0  0
   -2.3831   57.4144   33.4439 C   0  0  0  0  0  0
    0.0052   57.9376   34.1930 C   0  0  2  0  0  0
    0.4929   59.3374   33.7818 C   0  0  0  0  0  0
    1.6664   59.5052   33.0318 C   0  0  0  0  0  0
    2.0797   60.7958   32.6999 C   0  0  0  0  0  0
    1.3923   61.9111   33.0466 N   0  0  0  0  0  0
    0.2599   61.7449   33.7707 C   0  0  0  0  0  0
   -0.2113   60.4923   34.1633 C   0  0  0  0  0  0
    0.4738   56.8892   33.3631 O   0  0  0  0  0  0
   -3.3632   54.8719   31.9549 N   0  0  0  0  0  0
   -8.9307   51.8353   33.9848 H   0  0  0  0  0  0
   -6.5485   51.2579   33.6533 H   0  0  0  0  0  0
   -5.1191   52.6760   32.2352 H   0  0  0  0  0  0
   -9.8802   53.8369   32.9081 H   0  0  0  0  0  0
   -8.0587   56.1493   30.7717 H   0  0  0  0  0  0
   -9.5836   55.7598   31.5504 H   0  0  0  0  0  0
   -5.2672   57.4207   35.2315 H   0  0  0  0  0  0
   -3.7105   58.1585   36.9910 H   0  0  0  0  0  0
   -1.3192   58.3862   36.5225 H   0  0  0  0  0  0
   -2.0093   57.2089   32.4507 H   0  0  0  0  0  0
    0.4997   57.7535   35.1489 H   0  0  0  0  0  0
    2.2608   58.6574   32.7238 H   0  0  0  0  0  0
    3.0018   60.9521   32.1628 H   0  0  0  0  0  0
   -0.2755   62.6423   34.0458 H   0  0  0  0  0  0
   -1.1232   60.4394   34.7391 H   0  0  0  0  0  0
    0.3554   57.1480   32.4337 H   0  0  0  0  0  0
   -2.6313   55.0230   32.6341 H   0  0  0  0  0  0
   -3.2649   54.1053   31.3065 H   0  0  0  0  0  0
  1  6  1  0  0  0
  1  2  2  0  0  0
  1 28  1  0  0  0
  2  3  1  0  0  0
  2 29  1  0  0  0
  3  4  2  0  0  0
  3 30  1  0  0  0
  4  5  1  0  0  0
  4  8  1  0  0  0
  5  6  2  0  0  0
  5  7  1  0  0  0
  6 31  1  0  0  0
  7 32  1  0  0  0
  7 33  1  0  0  0
  8  9  1  0  0  0
  9 10  2  0  0  0
  9 27  1  0  0  0
 10 11  1  0  0  0
 10 13  1  0  0  0
 11 12  3  0  0  0
 13 18  1  0  0  0
 13 14  2  0  0  0
 14 15  1  0  0  0
 14 34  1  0  0  0
 15 16  2  0  0  0
 15 35  1  0  0  0
 16 17  1  0  0  0
 16 36  1  0  0  0
 17 18  2  0  0  0
 17 19  1  0  0  0
 18 37  1  0  0  0
 19 20  1  0  0  0
 19 26  1  0  0  0
 19 38  1  0  0  0
 20 25  1  0  0  0
 20 21  2  0  0  0
 21 22  1  0  0  0
 21 39  1  0  0  0
 22 23  2  0  0  0
 22 40  1  0  0  0
 23 24  1  0  0  0
 24 25  2  0  0  0
 24 41  1  0  0  0
 25 42  1  0  0  0
 26 43  1  0  0  0
 27 44  1  0  0  0
 27 45  1  0  0  0
M  END
> <s_m_entry_id>
66011

> <s_m_entry_name>
ligand_docking-pose.67

> <s_m_Source_Path>
/home/csk/Desktop/cluster/DUD-E-result/mp2k1

> <s_m_Source_File>
ligand_docking-pose.sdf

> <i_m_Source_File_Index>
67

> <i_lp_mmshare_version>
53161

> <r_lp_tautomer_probability>
0.499999974950001

> <s_lp_Force_Field>
OPLS_2005

> <r_lp_Energy>
25.341397

> <b_lp_Chiralities_Consistent>
1

> <s_lp_Variant>
51234-1

> <s_i_glide_gridfile>
glide-grid_3eqh

> <i_i_glide_lignum>
97

> <i_i_glide_rotatable_bonds>
6

> <r_i_docking_score>
-8.377435652162

> <r_i_glide_ligand_efficiency>
-0.310275394524519

> <r_i_glide_ligand_efficiency_sa>
-0.930826182550939

> <r_i_glide_ligand_efficiency_ln>
-1.95012890700248

> <r_i_glide_gscore>
-8.377435652162

> <r_i_glide_lipo>
-3.70301270556728

> <r_i_glide_hbond>
-0.441836550547177

> <r_i_glide_metal>
0

> <r_i_glide_rewards>
-1.28717230971593

> <r_i_glide_evdw>
-44.8426132202148

> <r_i_glide_ecoul>
-8.73260021209717

> <r_i_glide_erotb>
0.689495481982292

> <r_i_glide_esite>
-0.0828888754885936

> <r_i_glide_emodel>
-75.6838107360666

> <r_i_glide_energy>
-53.575213432312

> <r_i_glide_einternal>
7.17741823196411

> <i_i_glide_confnum>
7

> <i_i_glide_posenum>
345

> <r_i_glide_eff_state_penalty>
0

> <i_f3d_flags>
0

> <s_user_duplicate_titles>
51234

> <s_m_subgroup_title>
dock_pv

> <s_m_subgroupid>
dock_pv1

> <b_m_subgroup_collapsed>
0

$$$$
363028
                    3D
 Schrodinger Suite 2021-1.
 47 49  0  0  1  0            999 V2000
   -3.8117   52.3123   29.5190 C   0  0  0  0  0  0
   -5.0815   53.1795   29.4374 C   0  0  1  0  0  0
   -6.3443   52.3580   29.1200 C   0  0  0  0  0  0
   -6.3271   52.0006   27.7630 O   0  0  0  0  0  0
   -5.3525   53.8812   30.6783 N   0  0  0  0  0  0
   -4.7412   54.9664   30.9278 C   0  0  0  0  0  0
   -5.2540   55.7872   32.0349 C   0  0  0  0  0  0
   -6.6237   56.0970   32.1826 C   0  0  0  0  0  0
   -6.9927   56.8959   33.1535 N   0  0  0  0  0  0
   -5.5964   57.4010   33.9808 S   0  0  0  0  0  0
   -4.5043   56.4323   33.0266 C   0  0  0  0  0  0
   -3.1330   56.3804   33.2058 N   0  0  0  0  0  0
   -2.2408   57.2230   33.8952 C   0  0  0  0  0  0
   -2.5562   57.9861   35.0269 C   0  0  0  0  0  0
   -1.6287   58.8869   35.5532 C   0  0  0  0  0  0
   -0.3738   59.0361   34.9614 C   0  0  0  0  0  0
   -0.0189   58.2151   33.8876 C   0  0  0  0  0  0
   -0.9460   57.3034   33.3836 C   0  0  0  0  0  0
    1.5450   58.3480   33.1573 Cl  0  0  0  0  0  0
    0.5098   59.9480   35.4859 O   0  0  0  0  0  0
    0.9700   61.0075   34.7277 C   0  0  0  0  0  0
    0.1835   61.6212   33.7422 C   0  0  0  0  0  0
    0.6969   62.6692   32.9785 C   0  0  0  0  0  0
    1.9914   63.1256   33.2057 C   0  0  0  0  0  0
    2.7787   62.5316   34.1885 C   0  0  0  0  0  0
    2.2720   61.4768   34.9516 C   0  0  0  0  0  0
    3.2740   60.7480   36.1630 Cl  0  0  0  0  0  0
    2.4740   64.1565   32.4831 F   0  0  0  0  0  0
   -7.6412   55.6769   31.3646 O   0  0  0  0  0  0
   -3.6740   55.5480   30.2863 N   0  0  0  0  0  0
   -3.6185   51.8078   28.5719 H   0  0  0  0  0  0
   -2.9259   52.8978   29.7630 H   0  0  0  0  0  0
   -3.9260   51.5480   30.2774 H   0  0  0  0  0  0
   -4.9458   53.8996   28.6227 H   0  0  0  0  0  0
   -7.2516   52.9427   29.2884 H   0  0  0  0  0  0
   -6.4145   51.4672   29.7464 H   0  0  0  0  0  0
   -6.3262   52.8259   27.2607 H   0  0  0  0  0  0
   -2.6380   55.7830   32.5597 H   0  0  0  0  0  0
   -3.5073   57.8978   35.5203 H   0  0  0  0  0  0
   -1.8909   59.4899   36.4094 H   0  0  0  0  0  0
   -0.6619   56.6717   32.5630 H   0  0  0  0  0  0
   -0.8282   61.2866   33.5737 H   0  0  0  0  0  0
    0.0901   63.1480   32.2280 H   0  0  0  0  0  0
    3.7807   62.8956   34.3569 H   0  0  0  0  0  0
   -7.6291   56.2342   30.5729 H   0  0  0  0  0  0
   -3.3078   55.1113   29.4558 H   0  0  0  0  0  0
   -3.5259   56.5473   30.3919 H   0  0  0  0  0  0
  1  2  1  0  0  0
  1 31  1  0  0  0
  1 32  1  0  0  0
  1 33  1  0  0  0
  2  3  1  0  0  0
  2  5  1  0  0  0
  2 34  1  0  0  0
  3  4  1  0  0  0
  3 35  1  0  0  0
  3 36  1  0  0  0
  4 37  1  0  0  0
  5  6  2  0  0  0
  6  7  1  0  0  0
  6 30  1  0  0  0
  7 11  2  0  0  0
  7  8  1  0  0  0
  8  9  2  0  0  0
  8 29  1  0  0  0
  9 10  1  0  0  0
 10 11  1  0  0  0
 11 12  1  0  0  0
 12 13  1  0  0  0
 12 38  1  0  0  0
 13 18  1  0  0  0
 13 14  2  0  0  0
 14 15  1  0  0  0
 14 39  1  0  0  0
 15 16  2  0  0  0
 15 40  1  0  0  0
 16 17  1  0  0  0
 16 20  1  0  0  0
 17 18  2  0  0  0
 17 19  1  0  0  0
 18 41  1  0  0  0
 20 21  1  0  0  0
 21 26  1  0  0  0
 21 22  2  0  0  0
 22 23  1  0  0  0
 22 42  1  0  0  0
 23 24  2  0  0  0
 23 43  1  0  0  0
 24 25  1  0  0  0
 24 28  1  0  0  0
 25 26  2  0  0  0
 25 44  1  0  0  0
 26 27  1  0  0  0
 29 45  1  0  0  0
 30 46  1  0  0  0
 30 47  1  0  0  0
M  END
> <s_m_entry_id>
66012

> <s_m_entry_name>
ligand_docking-pose.68

> <s_m_Source_Path>
/home/csk/Desktop/cluster/DUD-E-result/mp2k1

> <s_m_Source_File>
ligand_docking-pose.sdf

> <i_m_Source_File_Index>
68

> <i_lp_mmshare_version>
53161

> <r_lp_tautomer_probability>
1

> <s_lp_Force_Field>
OPLS_2005

> <r_lp_Energy>
24.760687

> <b_lp_Chiralities_Consistent>
1

> <s_lp_Variant>
363028-2

> <s_i_glide_gridfile>
glide-grid_3eqh

> <i_i_glide_lignum>
232

> <i_i_glide_rotatable_bonds>
9

> <r_i_docking_score>
-8.35720476105518

> <r_i_glide_ligand_efficiency>
-0.278573492035173

> <r_i_glide_ligand_efficiency_sa>
-0.865592608767417

> <r_i_glide_ligand_efficiency_ln>
-1.89884798075087

> <r_i_glide_gscore>
-8.35720476105518

> <r_i_glide_lipo>
-3.54363409805619

> <r_i_glide_hbond>
-0.837185642560642

> <r_i_glide_metal>
0

> <r_i_glide_rewards>
-1.17147459882726

> <r_i_glide_evdw>
-46.3800849914551

> <r_i_glide_ecoul>
-7.28985595703125

> <r_i_glide_erotb>
0.636864186966447

> <r_i_glide_esite>
-0.029291965450097

> <r_i_glide_emodel>
-76.511784035141

> <r_i_glide_energy>
-53.6699409484863

> <r_i_glide_einternal>
14.5271406173706

> <i_i_glide_confnum>
65

> <i_i_glide_posenum>
95

> <r_i_glide_eff_state_penalty>
0

> <i_f3d_flags>
0

> <s_user_duplicate_titles>
363028

> <s_m_subgroup_title>
dock_pv

> <s_m_subgroupid>
dock_pv1

> <b_m_subgroup_collapsed>
0

$$$$
420330
                    3D
 Schrodinger Suite 2021-1.
 48 50  0  0  1  0            999 V2000
   -9.4289   57.8931   33.5348 C   0  0  0  0  0  0
   -8.1117   58.5936   33.1654 C   0  0  2  0  0  0
   -8.3334   59.6445   32.0635 C   0  0  0  0  0  0
   -7.1374   60.3480   31.7647 O   0  0  0  0  0  0
   -7.1080   57.6105   32.7700 N   0  0  0  0  0  0
   -5.9276   57.3817   33.4452 C   0  0  0  0  0  0
   -5.5151   57.9475   34.4938 N   0  0  0  0  0  0
   -5.0613   56.3518   32.8102 C   0  0  0  0  0  0
   -5.3698   55.5680   31.6666 C   0  0  0  0  0  0
   -4.4850   54.7059   31.2238 N   0  0  0  0  0  0
   -3.1263   54.7481   32.2431 S   0  0  0  0  0  0
   -3.7926   55.9625   33.2721 C   0  0  0  0  0  0
   -3.1159   56.3263   34.4122 N   0  0  0  0  0  0
   -2.1552   57.3432   34.4793 C   0  0  0  0  0  0
   -2.1722   58.1632   35.6051 C   0  0  0  0  0  0
   -1.2369   59.1813   35.7325 C   0  0  0  0  0  0
   -0.2559   59.3667   34.7634 C   0  0  0  0  0  0
   -0.2314   58.5470   33.6364 C   0  0  0  0  0  0
   -1.1932   57.5470   33.4830 C   0  0  0  0  0  0
    0.7199   60.3386   35.0173 N   0  0  0  0  0  0
    1.3915   61.2589   34.2053 C   0  0  0  0  0  0
    2.4737   61.9469   34.7572 C   0  0  0  0  0  0
    3.1451   62.9116   34.0103 C   0  0  0  0  0  0
    2.7108   63.2039   32.7236 C   0  0  0  0  0  0
    1.6118   62.5458   32.1822 C   0  0  0  0  0  0
    0.9632   61.5537   32.9119 C   0  0  0  0  0  0
   -6.5452   55.5473   30.9630 O   0  0  0  0  0  0
  -10.1655   58.6177   33.8800 H   0  0  0  0  0  0
   -9.8552   57.3572   32.6862 H   0  0  0  0  0  0
   -9.2801   57.1747   34.3410 H   0  0  0  0  0  0
   -7.7839   59.1268   34.0598 H   0  0  0  0  0  0
   -9.0912   60.3491   32.3935 H   0  0  0  0  0  0
   -8.7150   59.1692   31.1601 H   0  0  0  0  0  0
   -6.4657   59.6724   31.5928 H   0  0  0  0  0  0
   -7.3739   56.9910   32.0157 H   0  0  0  0  0  0
   -4.6008   57.5742   34.7148 H   0  0  0  0  0  0
   -3.5559   56.1399   35.3048 H   0  0  0  0  0  0
   -2.9137   58.0286   36.3793 H   0  0  0  0  0  0
   -1.2873   59.8585   36.5630 H   0  0  0  0  0  0
    0.5354   58.6713   32.8869 H   0  0  0  0  0  0
   -1.1634   56.9237   32.6004 H   0  0  0  0  0  0
    0.9944   60.3854   35.9855 H   0  0  0  0  0  0
    2.8035   61.7308   35.7615 H   0  0  0  0  0  0
    3.9909   63.4386   34.4251 H   0  0  0  0  0  0
    3.2299   63.9485   32.1418 H   0  0  0  0  0  0
    1.2736   62.8132   31.2005 H   0  0  0  0  0  0
    0.1089   61.0423   32.4976 H   0  0  0  0  0  0
   -6.6534   56.3224   30.3924 H   0  0  0  0  0  0
  1  2  1  0  0  0
  1 28  1  0  0  0
  1 29  1  0  0  0
  1 30  1  0  0  0
  2  3  1  0  0  0
  2  5  1  0  0  0
  2 31  1  0  0  0
  3  4  1  0  0  0
  3 32  1  0  0  0
  3 33  1  0  0  0
  4 34  1  0  0  0
  5  6  1  0  0  0
  5 35  1  0  0  0
  6  7  2  3  0  0
  6  8  1  0  0  0
  7 36  1  0  0  0
  8 12  2  0  0  0
  8  9  1  0  0  0
  9 10  2  0  0  0
  9 27  1  0  0  0
 10 11  1  0  0  0
 11 12  1  0  0  0
 12 13  1  0  0  0
 13 14  1  0  0  0
 13 37  1  0  0  0
 14 19  1  0  0  0
 14 15  2  0  0  0
 15 16  1  0  0  0
 15 38  1  0  0  0
 16 17  2  0  0  0
 16 39  1  0  0  0
 17 18  1  0  0  0
 17 20  1  0  0  0
 18 19  2  0  0  0
 18 40  1  0  0  0
 19 41  1  0  0  0
 20 21  1  0  0  0
 20 42  1  0  0  0
 21 26  1  0  0  0
 21 22  2  0  0  0
 22 23  1  0  0  0
 22 43  1  0  0  0
 23 24  2  0  0  0
 23 44  1  0  0  0
 24 25  1  0  0  0
 24 45  1  0  0  0
 25 26  2  0  0  0
 25 46  1  0  0  0
 26 47  1  0  0  0
 27 48  1  0  0  0
M  END
> <s_m_entry_id>
66013

> <s_m_entry_name>
ligand_docking-pose.69

> <s_m_Source_Path>
/home/csk/Desktop/cluster/DUD-E-result/mp2k1

> <s_m_Source_File>
ligand_docking-pose.sdf

> <i_m_Source_File_Index>
69

> <i_lp_mmshare_version>
53161

> <r_lp_tautomer_probability>
1

> <s_lp_Force_Field>
OPLS_2005

> <r_lp_Energy>
26.440062

> <b_lp_Chiralities_Consistent>
1

> <s_lp_Variant>
420330-2

> <s_i_glide_gridfile>
glide-grid_3eqh

> <i_i_glide_lignum>
284

> <i_i_glide_rotatable_bonds>
10

> <r_i_docking_score>
-8.20999831247509

> <r_i_glide_ligand_efficiency>
-0.304074011573152

> <r_i_glide_ligand_efficiency_sa>
-0.912222033717276

> <r_i_glide_ligand_efficiency_ln>
-1.91115225474366

> <r_i_glide_gscore>
-8.20999831247509

> <r_i_glide_lipo>
-3.94457550674367

> <r_i_glide_hbond>
-0.256111803799384

> <r_i_glide_metal>
0

> <r_i_glide_rewards>
-1.22786737878788

> <r_i_glide_evdw>
-44.260124206543

> <r_i_glide_ecoul>
-10.5195894241333

> <r_i_glide_erotb>
1.05720332024246

> <r_i_glide_esite>
-0.0477023194394738

> <r_i_glide_emodel>
-73.0195204692977

> <r_i_glide_energy>
-54.7797136306763

> <r_i_glide_einternal>
22.9051208496094

> <i_i_glide_confnum>
105

> <i_i_glide_posenum>
371

> <r_i_glide_eff_state_penalty>
0

> <i_f3d_flags>
0

> <s_user_duplicate_titles>
420330

> <s_m_subgroup_title>
dock_pv

> <s_m_subgroupid>
dock_pv1

> <b_m_subgroup_collapsed>
0

$$$$
396340
                    3D
 Schrodinger Suite 2021-1.
 41 42  0  0  1  0            999 V2000
   -1.5429   53.9480   33.7269 C   0  0  0  0  0  0
   -1.4052   55.3306   34.0418 N   0  0  0  0  0  0
   -2.5033   56.0947   34.2283 C   0  0  0  0  0  0
   -2.4873   57.4122   34.4827 C   0  0  0  0  0  0
   -1.1644   58.0654   34.5175 C   0  0  0  0  0  0
   -0.0771   57.2501   34.4205 C   0  0  0  0  0  0
   -0.1358   55.8441   34.0678 C   0  0  0  0  0  0
    0.8738   55.2090   33.7630 O   0  0  0  0  0  0
   -1.0123   59.4380   34.5634 N   0  0  0  0  0  0
    0.0663   60.1975   34.0626 C   0  0  0  0  0  0
    0.8737   59.7316   33.0156 C   0  0  0  0  0  0
    1.9636   60.4619   32.5631 C   0  0  0  0  0  0
    2.2573   61.6907   33.1472 C   0  0  0  0  0  0
    1.4383   62.1860   34.1549 C   0  0  0  0  0  0
    0.3420   61.4505   34.6113 C   0  0  0  0  0  0
   -0.4487   61.9480   35.5901 F   0  0  0  0  0  0
    3.9300   62.7970   32.5630 I   0  0  0  0  0  0
   -3.7095   57.9442   35.0089 C   0  0  0  0  0  0
   -3.7679   58.3480   36.1628 O   0  0  0  0  0  0
   -4.7793   57.8167   34.2003 N   0  0  0  0  0  0
   -6.1794   57.9708   34.6003 C   0  0  0  0  0  0
   -6.9495   58.9785   33.7246 C   0  0  0  0  0  0
   -7.1247   58.5583   32.2558 C   0  0  0  0  0  0
   -7.8651   57.3622   32.1631 O   0  0  0  0  0  0
   -2.4744   53.5324   34.1143 H   0  0  0  0  0  0
   -1.5439   53.8893   32.6386 H   0  0  0  0  0  0
   -0.7260   53.3655   34.1630 H   0  0  0  0  0  0
   -3.3945   55.4837   34.3298 H   0  0  0  0  0  0
    0.9208   57.6517   34.4890 H   0  0  0  0  0  0
   -1.8258   60.0107   34.7613 H   0  0  0  0  0  0
    0.6722   58.7776   32.5630 H   0  0  0  0  0  0
    2.5684   60.0463   31.7739 H   0  0  0  0  0  0
    1.6740   63.1480   34.5666 H   0  0  0  0  0  0
   -4.6178   57.4510   33.2730 H   0  0  0  0  0  0
   -6.2994   58.2216   35.6562 H   0  0  0  0  0  0
   -6.6329   56.9828   34.4986 H   0  0  0  0  0  0
   -6.4484   59.9442   33.7585 H   0  0  0  0  0  0
   -7.9351   59.1546   34.1590 H   0  0  0  0  0  0
   -6.1579   58.3480   31.7971 H   0  0  0  0  0  0
   -7.6037   59.3436   31.6697 H   0  0  0  0  0  0
   -7.9259   57.1487   31.2171 H   0  0  0  0  0  0
  1  2  1  0  0  0
  1 25  1  0  0  0
  1 26  1  0  0  0
  1 27  1  0  0  0
  2  7  1  0  0  0
  2  3  1  0  0  0
  3  4  2  0  0  0
  3 28  1  0  0  0
  4  5  1  0  0  0
  4 18  1  0  0  0
  5  6  2  0  0  0
  5  9  1  0  0  0
  6  7  1  0  0  0
  6 29  1  0  0  0
  7  8  2  0  0  0
  9 10  1  0  0  0
  9 30  1  0  0  0
 10 15  1  0  0  0
 10 11  2  0  0  0
 11 12  1  0  0  0
 11 31  1  0  0  0
 12 13  2  0  0  0
 12 32  1  0  0  0
 13 14  1  0  0  0
 13 17  1  0  0  0
 14 15  2  0  0  0
 14 33  1  0  0  0
 15 16  1  0  0  0
 18 19  2  0  0  0
 18 20  1  0  0  0
 20 21  1  0  0  0
 20 34  1  0  0  0
 21 22  1  0  0  0
 21 35  1  0  0  0
 21 36  1  0  0  0
 22 23  1  0  0  0
 22 37  1  0  0  0
 22 38  1  0  0  0
 23 24  1  0  0  0
 23 39  1  0  0  0
 23 40  1  0  0  0
 24 41  1  0  0  0
M  END
> <s_m_entry_id>
66014

> <s_m_entry_name>
ligand_docking-pose.70

> <s_m_Source_Path>
/home/csk/Desktop/cluster/DUD-E-result/mp2k1

> <s_m_Source_File>
ligand_docking-pose.sdf

> <i_m_Source_File_Index>
70

> <i_lp_mmshare_version>
53161

> <r_lp_tautomer_probability>
0.999999999982488

> <s_lp_Force_Field>
OPLS_2005

> <r_lp_Energy>
36.203573

> <b_lp_Chiralities_Consistent>
1

> <s_lp_Variant>
396340-1

> <s_i_glide_gridfile>
glide-grid_3eqh

> <i_i_glide_lignum>
340

> <i_i_glide_rotatable_bonds>
8

> <r_i_docking_score>
-8.18759667553414

> <r_i_glide_ligand_efficiency>
-0.341149861480589

> <r_i_glide_ligand_efficiency_sa>
-0.984046481219172

> <r_i_glide_ligand_efficiency_ln>
-1.95966758878554

> <r_i_glide_gscore>
-8.18759667553414

> <r_i_glide_lipo>
-3.44161767961473

> <r_i_glide_hbond>
-0.811668171749569

> <r_i_glide_metal>
0

> <r_i_glide_rewards>
-0.856112089838986

> <r_i_glide_evdw>
-34.1562843322754

> <r_i_glide_ecoul>
-13.4490604400635

> <r_i_glide_erotb>
0.70648777481976

> <r_i_glide_esite>
-0.059513226527323

> <r_i_glide_emodel>
-67.627502288201

> <r_i_glide_energy>
-47.6053447723389

> <r_i_glide_einternal>
10.7654790878296

> <i_i_glide_confnum>
25

> <i_i_glide_posenum>
63

> <r_i_glide_eff_state_penalty>
0

> <i_f3d_flags>
0

> <s_user_duplicate_titles>
396340

> <s_m_subgroup_title>
dock_pv

> <s_m_subgroupid>
dock_pv1

> <b_m_subgroup_collapsed>
0

$$$$
389524
                    3D
 Schrodinger Suite 2021-1.
 36 37  0  0  1  0            999 V2000
    1.6154   60.1762   32.7245 C   0  0  0  0  0  0
    0.6532   59.2520   33.1303 C   0  0  0  0  0  0
   -0.1504   59.4881   34.2511 C   0  0  0  0  0  0
    0.0270   60.6815   34.9630 C   0  0  0  0  0  0
    0.9945   61.6043   34.5630 C   0  0  0  0  0  0
    1.7878   61.3559   33.4452 C   0  0  0  0  0  0
    3.2314   62.7523   32.8612 I   0  0  0  0  0  0
   -0.7334   60.9553   36.0509 F   0  0  0  0  0  0
   -1.1415   58.5821   34.6736 N   0  0  0  0  0  0
   -1.4548   57.2572   34.2963 C   0  0  0  0  0  0
   -2.8043   56.8198   34.2613 C   0  0  0  0  0  0
   -3.0970   55.4849   33.9578 C   0  0  0  0  0  0
   -2.0799   54.5789   33.7157 C   0  0  0  0  0  0
   -0.7566   54.9924   33.7630 C   0  0  0  0  0  0
   -0.4363   56.3119   34.0718 C   0  0  0  0  0  0
    0.8733   56.6308   34.2109 F   0  0  0  0  0  0
    0.2239   54.0994   33.5273 F   0  0  0  0  0  0
   -3.9562   57.7120   34.6317 C   0  0  0  0  0  0
   -3.9128   58.3480   35.6869 O   0  0  0  0  0  0
   -5.0028   57.7099   33.7819 N   0  0  0  0  0  0
   -6.1846   58.3477   34.1630 O   0  0  0  0  0  0
   -7.2480   58.0583   33.2623 C   0  0  0  0  0  0
   -7.2748   59.0156   32.0544 C   0  0  0  0  0  0
   -7.5260   60.3480   32.4613 O   0  0  0  0  0  0
    2.2233   59.9742   31.8540 H   0  0  0  0  0  0
    0.5290   58.3481   32.5630 H   0  0  0  0  0  0
    1.1270   62.5168   35.1241 H   0  0  0  0  0  0
   -1.8477   59.0102   35.2590 H   0  0  0  0  0  0
   -4.1168   55.1224   33.9523 H   0  0  0  0  0  0
   -2.3269   53.5480   33.5190 H   0  0  0  0  0  0
   -5.0716   57.2165   32.9041 H   0  0  0  0  0  0
   -8.1872   58.1451   33.8100 H   0  0  0  0  0  0
   -7.2122   57.0206   32.9211 H   0  0  0  0  0  0
   -8.0589   58.7134   31.3630 H   0  0  0  0  0  0
   -6.3270   58.9895   31.5148 H   0  0  0  0  0  0
   -8.4026   60.3571   32.8720 H   0  0  0  0  0  0
  1  6  1  0  0  0
  1  2  2  0  0  0
  1 25  1  0  0  0
  2  3  1  0  0  0
  2 26  1  0  0  0
  3  4  2  0  0  0
  3  9  1  0  0  0
  4  5  1  0  0  0
  4  8  1  0  0  0
  5  6  2  0  0  0
  5 27  1  0  0  0
  6  7  1  0  0  0
  9 10  1  0  0  0
  9 28  1  0  0  0
 10 15  1  0  0  0
 10 11  2  0  0  0
 11 12  1  0  0  0
 11 18  1  0  0  0
 12 13  2  0  0  0
 12 29  1  0  0  0
 13 14  1  0  0  0
 13 30  1  0  0  0
 14 15  2  0  0  0
 14 17  1  0  0  0
 15 16  1  0  0  0
 18 19  2  0  0  0
 18 20  1  0  0  0
 20 21  1  0  0  0
 20 31  1  0  0  0
 21 22  1  0  0  0
 22 23  1  0  0  0
 22 32  1  0  0  0
 22 33  1  0  0  0
 23 24  1  0  0  0
 23 34  1  0  0  0
 23 35  1  0  0  0
 24 36  1  0  0  0
M  END
> <s_m_entry_id>
66015

> <s_m_entry_name>
ligand_docking-pose.71

> <s_m_Source_Path>
/home/csk/Desktop/cluster/DUD-E-result/mp2k1

> <s_m_Source_File>
ligand_docking-pose.sdf

> <i_m_Source_File_Index>
71

> <i_lp_mmshare_version>
53161

> <r_lp_tautomer_probability>
1

> <s_lp_Force_Field>
OPLS_2005

> <r_lp_Energy>
27.468853

> <b_lp_Chiralities_Consistent>
1

> <s_lp_Variant>
389524-1

> <s_i_glide_gridfile>
glide-grid_3eqh

> <i_i_glide_lignum>
43

> <i_i_glide_rotatable_bonds>
8

> <r_i_docking_score>
-8.09779624846765

> <r_i_glide_ligand_efficiency>
-0.337408177019486

> <r_i_glide_ligand_efficiency_sa>
-0.973253595618101

> <r_i_glide_ligand_efficiency_ln>
-1.93817422591544

> <r_i_glide_gscore>
-8.09779624846765

> <r_i_glide_lipo>
-3.72324166527446

> <r_i_glide_hbond>
-0.16

> <r_i_glide_metal>
0

> <r_i_glide_rewards>
-0.852031965333394

> <r_i_glide_evdw>
-38.6923065185547

> <r_i_glide_ecoul>
-13.7447471618652

> <r_i_glide_erotb>
0.686901888043358

> <r_i_glide_esite>
-0.0530971056956365

> <r_i_glide_emodel>
-77.7985896255719

> <r_i_glide_energy>
-52.4370536804199

> <r_i_glide_einternal>
9.93125343322754

> <i_i_glide_confnum>
50

> <i_i_glide_posenum>
215

> <r_i_glide_eff_state_penalty>
0

> <i_f3d_flags>
0

> <s_user_duplicate_titles>
389524

> <s_m_subgroup_title>
dock_pv

> <s_m_subgroupid>
dock_pv1

> <b_m_subgroup_collapsed>
0

$$$$
250345
                    3D
 Schrodinger Suite 2021-1.
 20 21  0  0  1  0            999 V2000
   -0.7908   59.1884   34.9678 C   0  0  0  0  0  0
   -1.3438   57.9212   34.7021 C   0  0  0  0  0  0
   -0.3268   57.1285   34.1528 C   0  0  0  0  0  0
    0.8194   57.8896   34.1643 N   0  0  0  0  0  0
    0.5546   59.1472   34.6409 C   0  0  0  0  0  0
    1.9208   60.4626   34.7898 Br  0  0  0  0  0  0
   -0.2376   55.7354   33.7635 C   0  0  0  0  0  0
    0.8454   55.1483   33.7628 O   0  0  0  0  0  0
   -1.4018   55.1264   33.4779 N   0  0  0  0  0  0
   -2.7330   55.6936   33.2638 C   0  0  0  0  0  0
   -3.3895   56.3244   34.5028 C   0  0  0  0  0  0
   -2.7337   57.5986   35.0356 C   0  0  0  0  0  0
   -3.3876   58.3479   35.7620 O   0  0  0  0  0  0
    1.7254   57.5629   33.8616 H   0  0  0  0  0  0
   -1.3110   60.0406   35.3835 H   0  0  0  0  0  0
   -1.3043   54.1332   33.3285 H   0  0  0  0  0  0
   -2.7166   56.3796   32.4123 H   0  0  0  0  0  0
   -3.3673   54.8656   32.9434 H   0  0  0  0  0  0
   -4.4386   56.5399   34.3004 H   0  0  0  0  0  0
   -3.3701   55.6020   35.3197 H   0  0  0  0  0  0
  1  5  2  0  0  0
  1  2  1  0  0  0
  1 15  1  0  0  0
  2 12  1  0  0  0
  2  3  2  0  0  0
  3  4  1  0  0  0
  3  7  1  0  0  0
  4 14  1  0  0  0
  4  5  1  0  0  0
  5  6  1  0  0  0
  7  8  2  0  0  0
  7  9  1  0  0  0
  9 10  1  0  0  0
  9 16  1  0  0  0
 10 11  1  0  0  0
 10 17  1  0  0  0
 10 18  1  0  0  0
 11 12  1  0  0  0
 11 19  1  0  0  0
 11 20  1  0  0  0
 12 13  2  0  0  0
M  END
> <s_m_entry_id>
66016

> <s_m_entry_name>
ligand_docking-pose.72

> <s_m_Source_Path>
/home/csk/Desktop/cluster/DUD-E-result/mp2k1

> <s_m_Source_File>
ligand_docking-pose.sdf

> <i_m_Source_File_Index>
72

> <i_lp_mmshare_version>
53161

> <r_lp_tautomer_probability>
0.99995

> <s_lp_Force_Field>
OPLS_2005

> <r_lp_Energy>
12.881821

> <b_lp_Chiralities_Consistent>
1

> <s_lp_Variant>
250345-1

> <s_i_glide_gridfile>
glide-grid_3eqh

> <i_i_glide_lignum>
5

> <i_i_glide_rotatable_bonds>
0

> <r_i_docking_score>
-8.09744892857724

> <r_i_glide_ligand_efficiency>
-0.622880686813634

> <r_i_glide_ligand_efficiency_sa>
-1.46460096396402

> <r_i_glide_ligand_efficiency_ln>
-2.27140643993415

> <r_i_glide_gscore>
-8.09744892857724

> <r_i_glide_lipo>
-1.86503730856658

> <r_i_glide_hbond>
-0.639216990040264

> <r_i_glide_metal>
0

> <r_i_glide_rewards>
-3.00540056449493

> <r_i_glide_evdw>
-27.1881198883057

> <r_i_glide_ecoul>
-8.18925380706787

> <r_i_glide_erotb>
0

> <r_i_glide_esite>
0

> <r_i_glide_emodel>
-53.5127414905701

> <r_i_glide_energy>
-35.3773736953735

> <r_i_glide_einternal>
0

> <i_i_glide_confnum>
2

> <i_i_glide_posenum>
175

> <r_i_glide_eff_state_penalty>
0

> <i_f3d_flags>
0

> <s_user_duplicate_titles>
250345

> <s_m_subgroup_title>
dock_pv

> <s_m_subgroupid>
dock_pv1

> <b_m_subgroup_collapsed>
0

$$$$
43276
                    3D
 Schrodinger Suite 2021-1.
 49 52  0  0  1  0            999 V2000
   -3.9929   51.5654   28.9411 C   0  0  0  0  0  0
   -5.3479   51.9077   28.6719 O   0  0  0  0  0  0
   -5.9870   52.8321   29.4829 C   0  0  0  0  0  0
   -5.3447   53.4981   30.5366 C   0  0  0  0  0  0
   -6.0194   54.4643   31.3373 C   0  0  0  0  0  0
   -7.3943   54.7139   31.0541 C   0  0  0  0  0  0
   -8.0319   54.0272   29.9976 C   0  0  0  0  0  0
   -7.3323   53.1020   29.2091 C   0  0  0  0  0  0
   -7.9039   52.4201   28.1482 O   0  0  0  0  0  0
   -9.2552   52.6895   27.7968 C   0  0  0  0  0  0
   -8.1273   55.6098   31.7608 N   0  0  0  0  0  0
   -7.5018   56.3455   32.7019 C   0  0  0  0  0  0
   -6.1571   56.2066   33.0422 C   0  0  0  0  0  0
   -5.3831   55.2159   32.3868 C   0  0  0  0  0  0
   -4.0510   54.8638   32.7177 N   0  0  0  0  0  0
   -2.9205   55.5488   33.1834 C   0  0  0  0  0  0
   -1.8887   54.8097   33.7652 C   0  0  0  0  0  0
   -0.7030   55.4365   34.1499 C   0  0  0  0  0  0
   -0.5571   56.8178   34.0078 C   0  0  0  0  0  0
   -1.6120   57.5488   33.4522 C   0  0  0  0  0  0
   -2.7600   56.9184   32.9980 C   0  0  0  0  0  0
    0.6225   57.4056   34.4348 O   0  0  0  0  0  0
    0.8890   58.7239   34.1303 C   0  0  0  0  0  0
    0.3622   59.7485   34.9210 C   0  0  0  0  0  0
    0.5638   61.0804   34.5624 C   0  0  0  0  0  0
    1.3032   61.3819   33.4192 C   0  0  0  0  0  0
    1.8525   60.3633   32.6445 C   0  0  0  0  0  0
    1.6484   59.0351   33.0018 C   0  0  0  0  0  0
    1.5326   63.0257   32.9449 Cl  0  0  0  0  0  0
   -5.6688   57.0982   34.0876 C   0  0  0  0  0  0
   -5.2836   57.8113   34.9128 N   0  0  0  0  0  0
   -3.6545   50.8171   28.2250 H   0  0  0  0  0  0
   -3.8871   51.1483   29.9380 H   0  0  0  0  0  0
   -3.3306   52.4271   28.8680 H   0  0  0  0  0  0
   -4.3028   53.3107   30.7348 H   0  0  0  0  0  0
   -9.0682   54.2597   29.8048 H   0  0  0  0  0  0
   -9.5260   52.0468   26.9638 H   0  0  0  0  0  0
   -9.9408   52.4696   28.6166 H   0  0  0  0  0  0
   -9.3896   53.7250   27.4790 H   0  0  0  0  0  0
   -8.1351   57.0715   33.1942 H   0  0  0  0  0  0
   -3.8457   53.9039   32.4900 H   0  0  0  0  0  0
   -1.9969   53.7463   33.9116 H   0  0  0  0  0  0
    0.1005   54.8483   34.5625 H   0  0  0  0  0  0
   -1.5463   58.6175   33.3632 H   0  0  0  0  0  0
   -3.5195   57.5063   32.5046 H   0  0  0  0  0  0
   -0.2316   59.5059   35.7892 H   0  0  0  0  0  0
    0.1356   61.8733   35.1590 H   0  0  0  0  0  0
    2.4279   60.5988   31.7631 H   0  0  0  0  0  0
    2.0580   58.2495   32.3851 H   0  0  0  0  0  0
  1  2  1  0  0  0
  1 32  1  0  0  0
  1 33  1  0  0  0
  1 34  1  0  0  0
  2  3  1  0  0  0
  3  8  1  0  0  0
  3  4  2  0  0  0
  4  5  1  0  0  0
  4 35  1  0  0  0
  5 14  2  0  0  0
  5  6  1  0  0  0
  6  7  1  0  0  0
  6 11  2  0  0  0
  7  8  2  0  0  0
  7 36  1  0  0  0
  8  9  1  0  0  0
  9 10  1  0  0  0
 10 37  1  0  0  0
 10 38  1  0  0  0
 10 39  1  0  0  0
 11 12  1  0  0  0
 12 13  2  0  0  0
 12 40  1  0  0  0
 13 14  1  0  0  0
 13 30  1  0  0  0
 14 15  1  0  0  0
 15 16  1  0  0  0
 15 41  1  0  0  0
 16 21  1  0  0  0
 16 17  2  0  0  0
 17 18  1  0  0  0
 17 42  1  0  0  0
 18 19  2  0  0  0
 18 43  1  0  0  0
 19 20  1  0  0  0
 19 22  1  0  0  0
 20 21  2  0  0  0
 20 44  1  0  0  0
 21 45  1  0  0  0
 22 23  1  0  0  0
 23 28  1  0  0  0
 23 24  2  0  0  0
 24 25  1  0  0  0
 24 46  1  0  0  0
 25 26  2  0  0  0
 25 47  1  0  0  0
 26 27  1  0  0  0
 26 29  1  0  0  0
 27 28  2  0  0  0
 27 48  1  0  0  0
 28 49  1  0  0  0
 30 31  3  0  0  0
M  END
> <s_m_entry_id>
66017

> <s_m_entry_name>
ligand_docking-pose.73

> <s_m_Source_Path>
/home/csk/Desktop/cluster/DUD-E-result/mp2k1

> <s_m_Source_File>
ligand_docking-pose.sdf

> <i_m_Source_File_Index>
73

> <i_lp_mmshare_version>
53161

> <r_lp_tautomer_probability>
1

> <s_lp_Force_Field>
OPLS_2005

> <r_lp_Energy>
36.3594

> <b_lp_Chiralities_Consistent>
1

> <s_lp_Variant>
43276-1

> <s_i_glide_gridfile>
glide-grid_3eqh

> <i_i_glide_lignum>
391

> <i_i_glide_rotatable_bonds>
6

> <r_i_docking_score>
-8.09365376978262

> <r_i_glide_ligand_efficiency>
-0.261085605476859

> <r_i_glide_ligand_efficiency_sa>
-0.82016926872408

> <r_i_glide_ligand_efficiency_ln>
-1.82536696578546

> <r_i_glide_gscore>
-8.09365376978262

> <r_i_glide_lipo>
-4.53073249579228

> <r_i_glide_hbond>
-0.0458329587020413

> <r_i_glide_metal>
0

> <r_i_glide_rewards>
-0.940709198858141

> <r_i_glide_evdw>
-50.1077690124512

> <r_i_glide_ecoul>
-3.31756830215454

> <r_i_glide_erotb>
0.426644579515579

> <r_i_glide_esite>
0

> <r_i_glide_emodel>
-72.6008467517744

> <r_i_glide_energy>
-53.4253373146057

> <r_i_glide_einternal>
8.20800971984863

> <i_i_glide_confnum>
2

> <i_i_glide_posenum>
244

> <r_i_glide_eff_state_penalty>
0

> <i_f3d_flags>
0

> <s_user_duplicate_titles>
43276

> <s_m_subgroup_title>
dock_pv

> <s_m_subgroupid>
dock_pv1

> <b_m_subgroup_collapsed>
0

$$$$
363004
                    3D
 Schrodinger Suite 2021-1.
 47 49  0  0  1  0            999 V2000
   -8.4583   58.4737   34.9944 C   0  0  0  0  0  0
   -7.5820   59.0846   33.8714 C   0  0  2  0  0  0
   -8.3883   59.6617   32.6900 C   0  0  0  0  0  0
   -7.5259   60.3471   31.7953 O   0  0  0  0  0  0
   -6.4980   58.2216   33.3844 N   0  0  0  0  0  0
   -6.7050   57.0254   32.9802 C   0  0  0  0  0  0
   -5.5642   56.2627   32.4322 C   0  0  0  0  0  0
   -5.6417   55.3764   31.3342 C   0  0  0  0  0  0
   -4.5849   54.6808   30.9945 N   0  0  0  0  0  0
   -3.3038   55.1482   32.0066 S   0  0  0  0  0  0
   -4.2397   56.3164   32.8907 C   0  0  0  0  0  0
   -3.7276   57.1207   33.8925 N   0  0  0  0  0  0
   -2.4371   57.6113   34.1725 C   0  0  0  0  0  0
   -1.2837   57.3203   33.4309 C   0  0  0  0  0  0
   -0.0655   57.9064   33.7622 C   0  0  0  0  0  0
   -0.0017   58.8330   34.7929 C   0  0  0  0  0  0
   -1.1369   59.1373   35.5345 C   0  0  0  0  0  0
   -2.3403   58.5037   35.2442 C   0  0  0  0  0  0
    1.5426   59.5730   35.2081 S   0  0  0  0  0  0
    1.6834   61.0184   34.1966 C   0  0  0  0  0  0
    1.0485   61.1121   32.9593 C   0  0  0  0  0  0
    1.2738   62.2308   32.1630 C   0  0  0  0  0  0
    2.1344   63.2396   32.5823 C   0  0  0  0  0  0
    2.7686   63.1472   33.8128 C   0  0  0  0  0  0
    2.5265   62.0403   34.6278 C   0  0  0  0  0  0
   -6.7496   55.1479   30.5629 O   0  0  0  0  0  0
   -7.8571   56.2701   32.9644 N   0  0  0  0  0  0
   -9.0224   59.2560   35.5049 H   0  0  0  0  0  0
   -9.1904   57.7580   34.6226 H   0  0  0  0  0  0
   -7.8469   57.9752   35.7478 H   0  0  0  0  0  0
   -7.1198   59.9476   34.3405 H   0  0  0  0  0  0
   -9.1319   60.3507   33.0724 H   0  0  0  0  0  0
   -8.9216   58.8792   32.1487 H   0  0  0  0  0  0
   -6.9284   59.6673   31.4554 H   0  0  0  0  0  0
   -4.4201   57.5761   34.4662 H   0  0  0  0  0  0
   -1.2851   56.6712   32.5754 H   0  0  0  0  0  0
    0.8183   57.6699   33.1871 H   0  0  0  0  0  0
   -1.0865   59.8628   36.3312 H   0  0  0  0  0  0
   -3.2074   58.7441   35.8385 H   0  0  0  0  0  0
    0.4177   60.3190   32.5921 H   0  0  0  0  0  0
    0.8328   62.2905   31.1880 H   0  0  0  0  0  0
    2.3264   64.0886   31.9422 H   0  0  0  0  0  0
    3.4429   63.9280   34.1346 H   0  0  0  0  0  0
    3.0263   61.9545   35.5806 H   0  0  0  0  0  0
   -7.1261   56.0046   30.3030 H   0  0  0  0  0  0
   -8.7206   56.6473   33.3219 H   0  0  0  0  0  0
   -7.8463   55.3370   32.5795 H   0  0  0  0  0  0
  1  2  1  0  0  0
  1 28  1  0  0  0
  1 29  1  0  0  0
  1 30  1  0  0  0
  2  3  1  0  0  0
  2  5  1  0  0  0
  2 31  1  0  0  0
  3  4  1  0  0  0
  3 32  1  0  0  0
  3 33  1  0  0  0
  4 34  1  0  0  0
  5  6  2  0  0  0
  6  7  1  0  0  0
  6 27  1  0  0  0
  7 11  2  0  0  0
  7  8  1  0  0  0
  8  9  2  0  0  0
  8 26  1  0  0  0
  9 10  1  0  0  0
 10 11  1  0  0  0
 11 12  1  0  0  0
 12 13  1  0  0  0
 12 35  1  0  0  0
 13 18  1  0  0  0
 13 14  2  0  0  0
 14 15  1  0  0  0
 14 36  1  0  0  0
 15 16  2  0  0  0
 15 37  1  0  0  0
 16 17  1  0  0  0
 16 19  1  0  0  0
 17 18  2  0  0  0
 17 38  1  0  0  0
 18 39  1  0  0  0
 19 20  1  0  0  0
 20 25  1  0  0  0
 20 21  2  0  0  0
 21 22  1  0  0  0
 21 40  1  0  0  0
 22 23  2  0  0  0
 22 41  1  0  0  0
 23 24  1  0  0  0
 23 42  1  0  0  0
 24 25  2  0  0  0
 24 43  1  0  0  0
 25 44  1  0  0  0
 26 45  1  0  0  0
 27 46  1  0  0  0
 27 47  1  0  0  0
M  END
> <s_m_entry_id>
66018

> <s_m_entry_name>
ligand_docking-pose.74

> <s_m_Source_Path>
/home/csk/Desktop/cluster/DUD-E-result/mp2k1

> <s_m_Source_File>
ligand_docking-pose.sdf

> <i_m_Source_File_Index>
74

> <i_lp_mmshare_version>
53161

> <r_lp_tautomer_probability>
1

> <s_lp_Force_Field>
OPLS_2005

> <r_lp_Energy>
22.362939

> <b_lp_Chiralities_Consistent>
1

> <s_lp_Variant>
363004-1

> <s_i_glide_gridfile>
glide-grid_3eqh

> <i_i_glide_lignum>
279

> <i_i_glide_rotatable_bonds>
9

> <r_i_docking_score>
-8.08534069438847

> <r_i_glide_ligand_efficiency>
-0.299457062755128

> <r_i_glide_ligand_efficiency_sa>
-0.898371187278424

> <r_i_glide_ligand_efficiency_ln>
-1.88213401639454

> <r_i_glide_gscore>
-8.08534069438847

> <r_i_glide_lipo>
-3.79269149943857

> <r_i_glide_hbond>
-0.189929084945416

> <r_i_glide_metal>
0

> <r_i_glide_rewards>
-1.37557390029222

> <r_i_glide_evdw>
-50.661491394043

> <r_i_glide_ecoul>
-6.9099817276001

> <r_i_glide_erotb>
0.855498133989659

> <r_i_glide_esite>
-0.01307251485975

> <r_i_glide_emodel>
-86.346157349059

> <r_i_glide_energy>
-57.5714731216431

> <r_i_glide_einternal>
7.95012998580933

> <i_i_glide_confnum>
135

> <i_i_glide_posenum>
203

> <r_i_glide_eff_state_penalty>
0

> <i_f3d_flags>
0

> <s_user_duplicate_titles>
363004

> <s_m_subgroup_title>
dock_pv

> <s_m_subgroupid>
dock_pv1

> <b_m_subgroup_collapsed>
0

$$$$
363047
                    3D
 Schrodinger Suite 2021-1.
 49 51  0  0  1  0            999 V2000
   -3.3537   56.3129   32.5629 C   0  0  0  0  0  0
   -2.1651   56.9340   32.9303 C   0  0  0  0  0  0
   -1.2454   56.2712   33.7507 C   0  0  0  0  0  0
   -1.5160   54.9656   34.1629 C   0  0  0  0  0  0
   -2.7259   54.3585   33.8417 C   0  0  0  0  0  0
   -3.6400   55.0332   33.0375 C   0  0  0  0  0  0
   -4.8692   54.4368   32.7488 N   0  0  0  0  0  0
   -5.3612   54.1675   31.4923 C   0  0  0  0  0  0
   -6.6877   54.1568   31.0640 C   0  0  0  0  0  0
   -6.7465   53.6987   29.7344 C   0  0  0  0  0  0
   -5.6288   53.3872   29.1173 N   0  0  0  0  0  0
   -4.3262   53.7284   30.1628 S   0  0  0  0  0  0
   -7.8864   53.5491   28.9924 O   0  0  0  0  0  0
   -7.8393   54.5724   31.8764 C   0  0  0  0  0  0
   -7.7532   55.6790   32.4982 N   0  0  0  0  0  0
   -8.9365   55.9349   33.2136 O   0  0  0  0  0  0
   -8.8684   57.1960   33.8783 C   0  0  0  0  0  0
   -8.8300   58.4578   32.9724 C   0  0  1  0  0  0
   -7.4192   59.0134   32.6466 C   0  0  0  0  0  0
   -7.5261   60.3478   32.1627 O   0  0  0  0  0  0
   -9.5252   58.1952   31.7630 O   0  0  0  0  0  0
   -8.8522   53.6391   31.8284 N   0  0  0  0  0  0
   -0.0609   56.8494   34.1629 O   0  0  0  0  0  0
    0.0718   58.2213   34.2547 C   0  0  0  0  0  0
    1.0535   58.8326   33.4691 C   0  0  0  0  0  0
    1.2643   60.2095   33.5384 C   0  0  0  0  0  0
    0.4966   60.9899   34.3994 C   0  0  0  0  0  0
   -0.4754   60.3904   35.1959 C   0  0  0  0  0  0
   -0.6919   59.0142   35.1341 C   0  0  0  0  0  0
   -1.9082   58.3413   36.1627 Cl  0  0  0  0  0  0
    2.4759   60.9501   32.5630 Cl  0  0  0  0  0  0
   -4.0590   56.8369   31.9338 H   0  0  0  0  0  0
   -1.9641   57.9325   32.5756 H   0  0  0  0  0  0
   -0.8026   54.4278   34.7685 H   0  0  0  0  0  0
   -2.9404   53.3653   34.2083 H   0  0  0  0  0  0
   -5.4662   54.3383   33.5576 H   0  0  0  0  0  0
   -8.5962   54.0387   29.4142 H   0  0  0  0  0  0
   -8.0596   57.2030   34.6115 H   0  0  0  0  0  0
   -9.7851   57.2407   34.4675 H   0  0  0  0  0  0
   -9.3932   59.2420   33.4826 H   0  0  0  0  0  0
   -6.9104   58.3907   31.9071 H   0  0  0  0  0  0
   -6.7935   59.0310   33.5402 H   0  0  0  0  0  0
   -8.3252   60.3575   31.6173 H   0  0  0  0  0  0
   -9.0052   57.5576   31.2519 H   0  0  0  0  0  0
   -9.6745   53.7869   32.3932 H   0  0  0  0  0  0
   -8.6810   52.7226   31.4451 H   0  0  0  0  0  0
    1.6484   58.2344   32.7960 H   0  0  0  0  0  0
    0.6532   62.0578   34.4581 H   0  0  0  0  0  0
   -1.0715   60.9996   35.8592 H   0  0  0  0  0  0
  1  6  1  0  0  0
  1  2  2  0  0  0
  1 32  1  0  0  0
  2  3  1  0  0  0
  2 33  1  0  0  0
  3  4  2  0  0  0
  3 23  1  0  0  0
  4  5  1  0  0  0
  4 34  1  0  0  0
  5  6  2  0  0  0
  5 35  1  0  0  0
  6  7  1  0  0  0
  7  8  1  0  0  0
  7 36  1  0  0  0
  8 12  1  0  0  0
  8  9  2  0  0  0
  9 10  1  0  0  0
  9 14  1  0  0  0
 10 11  2  0  0  0
 10 13  1  0  0  0
 11 12  1  0  0  0
 13 37  1  0  0  0
 14 15  2  0  0  0
 14 22  1  0  0  0
 15 16  1  0  0  0
 16 17  1  0  0  0
 17 18  1  0  0  0
 17 38  1  0  0  0
 17 39  1  0  0  0
 18 19  1  0  0  0
 18 21  1  0  0  0
 18 40  1  0  0  0
 19 20  1  0  0  0
 19 41  1  0  0  0
 19 42  1  0  0  0
 20 43  1  0  0  0
 21 44  1  0  0  0
 22 45  1  0  0  0
 22 46  1  0  0  0
 23 24  1  0  0  0
 24 29  1  0  0  0
 24 25  2  0  0  0
 25 26  1  0  0  0
 25 47  1  0  0  0
 26 27  2  0  0  0
 26 31  1  0  0  0
 27 28  1  0  0  0
 27 48  1  0  0  0
 28 29  2  0  0  0
 28 49  1  0  0  0
 29 30  1  0  0  0
M  END
> <s_m_entry_id>
66019

> <s_m_entry_name>
ligand_docking-pose.75

> <s_m_Source_Path>
/home/csk/Desktop/cluster/DUD-E-result/mp2k1

> <s_m_Source_File>
ligand_docking-pose.sdf

> <i_m_Source_File_Index>
75

> <i_lp_mmshare_version>
53161

> <r_lp_tautomer_probability>
1

> <s_lp_Force_Field>
OPLS_2005

> <r_lp_Energy>
24.000192

> <b_lp_Chiralities_Consistent>
1

> <s_lp_Variant>
363047-2

> <s_i_glide_gridfile>
glide-grid_3eqh

> <i_i_glide_lignum>
63

> <i_i_glide_rotatable_bonds>
12

> <r_i_docking_score>
-8.05868522118734

> <r_i_glide_ligand_efficiency>
-0.259957587780237

> <r_i_glide_ligand_efficiency_sa>
-0.816625735760413

> <r_i_glide_ligand_efficiency_ln>
-1.81748048641992

> <r_i_glide_gscore>
-8.05868522118734

> <r_i_glide_lipo>
-4.04733997369792

> <r_i_glide_hbond>
0

> <r_i_glide_metal>
0

> <r_i_glide_rewards>
-0.346550141802292

> <r_i_glide_evdw>
-53.8065223693848

> <r_i_glide_ecoul>
-10.0178375244141

> <r_i_glide_erotb>
0.543312904830046

> <r_i_glide_esite>
-0.0151062633858355

> <r_i_glide_emodel>
-87.9797882569014

> <r_i_glide_energy>
-63.8243598937988

> <r_i_glide_einternal>
22.6060390472412

> <i_i_glide_confnum>
287

> <i_i_glide_posenum>
340

> <r_i_glide_eff_state_penalty>
0

> <i_f3d_flags>
0

> <s_user_duplicate_titles>
363047

> <s_m_subgroup_title>
dock_pv

> <s_m_subgroupid>
dock_pv1

> <b_m_subgroup_collapsed>
0

$$$$
156554
                    3D
 Schrodinger Suite 2021-1.
 41 44  0  0  1  0            999 V2000
    1.4126   61.1700   33.3425 C   0  0  0  0  0  0
    1.6480   59.8939   32.8313 C   0  0  0  0  0  0
    0.9708   58.8024   33.3737 C   0  0  0  0  0  0
    0.0660   58.9875   34.4255 C   0  0  0  0  0  0
   -0.1570   60.2657   34.9365 C   0  0  0  0  0  0
    0.5136   61.3580   34.3918 C   0  0  0  0  0  0
   -0.6025   57.9136   34.9688 O   0  0  0  0  0  0
   -1.7810   57.5411   34.3671 C   0  0  0  0  0  0
   -1.7579   56.8451   33.1595 C   0  0  0  0  0  0
   -2.9514   56.5311   32.5193 C   0  0  0  0  0  0
   -4.1698   56.9106   33.0764 C   0  0  0  0  0  0
   -4.1986   57.5487   34.3193 C   0  0  0  0  0  0
   -3.0009   57.8642   34.9649 C   0  0  0  0  0  0
   -5.3291   56.6651   32.3291 N   0  0  0  0  0  0
   -6.6216   56.3827   32.8086 C   0  0  0  0  0  0
   -7.0294   55.0175   33.0010 C   0  0  0  0  0  0
   -6.1796   53.8936   32.7770 C   0  0  0  0  0  0
   -6.6483   52.5969   32.9624 C   0  0  0  0  0  0
   -7.9598   52.3715   33.3630 C   0  0  0  0  0  0
   -8.8178   53.4403   33.6141 C   0  0  0  0  0  0
   -8.3687   54.7727   33.4390 C   0  0  0  0  0  0
   -9.2445   55.7795   33.6911 N   0  0  0  0  0  0
   -8.8391   57.0532   33.4846 C   0  0  0  0  0  0
   -7.5688   57.4053   33.0318 C   0  0  0  0  0  0
   -7.3166   58.8232   32.7650 C   0  0  0  0  0  0
   -7.1267   59.9480   32.5531 N   0  0  0  0  0  0
    1.9344   62.0165   32.9195 H   0  0  0  0  0  0
    2.3405   59.7487   32.0135 H   0  0  0  0  0  0
    1.1425   57.8170   32.9630 H   0  0  0  0  0  0
   -0.8555   60.4122   35.7453 H   0  0  0  0  0  0
    0.3359   62.3481   34.7847 H   0  0  0  0  0  0
   -0.8183   56.5796   32.7002 H   0  0  0  0  0  0
   -2.9153   56.0423   31.5570 H   0  0  0  0  0  0
   -5.1432   57.8227   34.7651 H   0  0  0  0  0  0
   -3.0057   58.3815   35.9130 H   0  0  0  0  0  0
   -5.1235   56.1818   31.4676 H   0  0  0  0  0  0
   -5.1572   54.0458   32.4551 H   0  0  0  0  0  0
   -5.9928   51.7545   32.7936 H   0  0  0  0  0  0
   -8.3073   51.3563   33.5056 H   0  0  0  0  0  0
   -9.8317   53.2565   33.9391 H   0  0  0  0  0  0
   -9.5933   57.8064   33.6732 H   0  0  0  0  0  0
  1  6  1  0  0  0
  1  2  2  0  0  0
  1 27  1  0  0  0
  2  3  1  0  0  0
  2 28  1  0  0  0
  3  4  2  0  0  0
  3 29  1  0  0  0
  4  5  1  0  0  0
  4  7  1  0  0  0
  5  6  2  0  0  0
  5 30  1  0  0  0
  6 31  1  0  0  0
  7  8  1  0  0  0
  8 13  1  0  0  0
  8  9  2  0  0  0
  9 10  1  0  0  0
  9 32  1  0  0  0
 10 11  2  0  0  0
 10 33  1  0  0  0
 11 12  1  0  0  0
 11 14  1  0  0  0
 12 13  2  0  0  0
 12 34  1  0  0  0
 13 35  1  0  0  0
 14 15  1  0  0  0
 14 36  1  0  0  0
 15 24  1  0  0  0
 15 16  2  0  0  0
 16 21  1  0  0  0
 16 17  1  0  0  0
 17 18  2  0  0  0
 17 37  1  0  0  0
 18 19  1  0  0  0
 18 38  1  0  0  0
 19 20  2  0  0  0
 19 39  1  0  0  0
 20 21  1  0  0  0
 20 40  1  0  0  0
 21 22  2  0  0  0
 22 23  1  0  0  0
 23 24  2  0  0  0
 23 41  1  0  0  0
 24 25  1  0  0  0
 25 26  3  0  0  0
M  END
> <s_m_entry_id>
66020

> <s_m_entry_name>
ligand_docking-pose.76

> <s_m_Source_Path>
/home/csk/Desktop/cluster/DUD-E-result/mp2k1

> <s_m_Source_File>
ligand_docking-pose.sdf

> <i_m_Source_File_Index>
76

> <i_lp_mmshare_version>
53161

> <r_lp_tautomer_probability>
1

> <s_lp_Force_Field>
OPLS_2005

> <r_lp_Energy>
32.261945

> <b_lp_Chiralities_Consistent>
1

> <s_lp_Variant>
156554-1

> <s_i_glide_gridfile>
glide-grid_3eqh

> <i_i_glide_lignum>
107

> <i_i_glide_rotatable_bonds>
4

> <r_i_docking_score>
-8.05649092048323

> <r_i_glide_ligand_efficiency>
-0.309865035403201

> <r_i_glide_ligand_efficiency_sa>
-0.917973948121945

> <r_i_glide_ligand_efficiency_ln>
-1.8920404571726

> <r_i_glide_gscore>
-8.05649092048323

> <r_i_glide_lipo>
-4.05368038772835

> <r_i_glide_hbond>
0

> <r_i_glide_metal>
0

> <r_i_glide_rewards>
-1.4683510483197

> <r_i_glide_evdw>
-47.6294860839844

> <r_i_glide_ecoul>
-5.19895029067993

> <r_i_glide_erotb>
0.664142852101254

> <r_i_glide_esite>
-0.0372854887352175

> <r_i_glide_emodel>
-75.5126532823398

> <r_i_glide_energy>
-52.8284363746643

> <r_i_glide_einternal>
6.25412797927856

> <i_i_glide_confnum>
18

> <i_i_glide_posenum>
90

> <r_i_glide_eff_state_penalty>
0

> <i_f3d_flags>
0

> <s_user_duplicate_titles>
156554

> <s_m_subgroup_title>
dock_pv

> <s_m_subgroupid>
dock_pv1

> <b_m_subgroup_collapsed>
0

$$$$
363002
                    3D
 Schrodinger Suite 2021-1.
 49 51  0  0  1  0            999 V2000
   -8.6259   58.1265   35.0561 C   0  0  0  0  0  0
   -7.6663   58.8321   34.0621 C   0  0  2  0  0  0
   -8.4322   59.6476   32.9920 C   0  0  0  0  0  0
   -7.5193   60.3480   32.1628 O   0  0  0  0  0  0
   -6.6414   58.0011   33.4081 N   0  0  0  0  0  0
   -6.7704   56.7620   33.1294 C   0  0  0  0  0  0
   -5.6506   56.1049   32.4391 C   0  0  0  0  0  0
   -5.7892   55.3293   31.2699 C   0  0  0  0  0  0
   -4.7395   54.7184   30.7800 N   0  0  0  0  0  0
   -3.3982   55.1479   31.7312 S   0  0  0  0  0  0
   -4.3010   56.1721   32.8109 C   0  0  0  0  0  0
   -3.7564   56.9044   33.8516 N   0  0  0  0  0  0
   -2.4621   57.3922   34.1310 C   0  0  0  0  0  0
   -2.3761   58.3497   35.1441 C   0  0  0  0  0  0
   -1.1715   58.9926   35.4212 C   0  0  0  0  0  0
   -0.0182   58.6478   34.7200 C   0  0  0  0  0  0
   -0.0755   57.6370   33.7630 C   0  0  0  0  0  0
   -1.2905   57.0303   33.4521 C   0  0  0  0  0  0
    1.3084   59.3452   35.0140 C   0  0  0  0  0  0
    1.5856   60.6494   34.2646 C   0  0  0  0  0  0
    0.9996   60.9207   33.0225 C   0  0  0  0  0  0
    1.3001   62.1047   32.3544 C   0  0  0  0  0  0
    2.1950   63.0108   32.9147 C   0  0  0  0  0  0
    2.7846   62.7489   34.1469 C   0  0  0  0  0  0
    2.4710   61.5753   34.8270 C   0  0  0  0  0  0
   -6.9457   55.1480   30.5630 O   0  0  0  0  0  0
   -7.7960   55.8674   33.3417 N   0  0  0  0  0  0
   -9.1306   58.8623   35.6839 H   0  0  0  0  0  0
   -9.4117   57.5672   34.5505 H   0  0  0  0  0  0
   -8.0926   57.4523   35.7267 H   0  0  0  0  0  0
   -7.1261   59.5482   34.6736 H   0  0  0  0  0  0
   -9.1214   60.3490   33.4625 H   0  0  0  0  0  0
   -9.0332   58.9824   32.3689 H   0  0  0  0  0  0
   -6.9372   59.6601   31.8101 H   0  0  0  0  0  0
   -4.4339   57.3238   34.4704 H   0  0  0  0  0  0
   -3.2555   58.6450   35.6922 H   0  0  0  0  0  0
   -1.1435   59.7754   36.1632 H   0  0  0  0  0  0
    0.8127   57.3566   33.2155 H   0  0  0  0  0  0
   -1.2743   56.3051   32.6626 H   0  0  0  0  0  0
    1.3775   59.5358   36.0847 H   0  0  0  0  0  0
    2.1241   58.6598   34.7851 H   0  0  0  0  0  0
    0.3276   60.2117   32.5638 H   0  0  0  0  0  0
    0.8742   62.3056   31.3832 H   0  0  0  0  0  0
    2.4440   63.9193   32.3853 H   0  0  0  0  0  0
    3.4874   63.4542   34.5648 H   0  0  0  0  0  0
    2.9369   61.3739   35.7806 H   0  0  0  0  0  0
   -7.2566   56.0193   30.2662 H   0  0  0  0  0  0
   -8.6385   56.1590   33.8120 H   0  0  0  0  0  0
   -7.7297   54.9261   32.9820 H   0  0  0  0  0  0
  1  2  1  0  0  0
  1 28  1  0  0  0
  1 29  1  0  0  0
  1 30  1  0  0  0
  2  3  1  0  0  0
  2  5  1  0  0  0
  2 31  1  0  0  0
  3  4  1  0  0  0
  3 32  1  0  0  0
  3 33  1  0  0  0
  4 34  1  0  0  0
  5  6  2  0  0  0
  6  7  1  0  0  0
  6 27  1  0  0  0
  7 11  2  0  0  0
  7  8  1  0  0  0
  8  9  2  0  0  0
  8 26  1  0  0  0
  9 10  1  0  0  0
 10 11  1  0  0  0
 11 12  1  0  0  0
 12 13  1  0  0  0
 12 35  1  0  0  0
 13 18  1  0  0  0
 13 14  2  0  0  0
 14 15  1  0  0  0
 14 36  1  0  0  0
 15 16  2  0  0  0
 15 37  1  0  0  0
 16 17  1  0  0  0
 16 19  1  0  0  0
 17 18  2  0  0  0
 17 38  1  0  0  0
 18 39  1  0  0  0
 19 20  1  0  0  0
 19 40  1  0  0  0
 19 41  1  0  0  0
 20 25  1  0  0  0
 20 21  2  0  0  0
 21 22  1  0  0  0
 21 42  1  0  0  0
 22 23  2  0  0  0
 22 43  1  0  0  0
 23 24  1  0  0  0
 23 44  1  0  0  0
 24 25  2  0  0  0
 24 45  1  0  0  0
 25 46  1  0  0  0
 26 47  1  0  0  0
 27 48  1  0  0  0
 27 49  1  0  0  0
M  END
> <s_m_entry_id>
66021

> <s_m_entry_name>
ligand_docking-pose.77

> <s_m_Source_Path>
/home/csk/Desktop/cluster/DUD-E-result/mp2k1

> <s_m_Source_File>
ligand_docking-pose.sdf

> <i_m_Source_File_Index>
77

> <i_lp_mmshare_version>
53161

> <r_lp_tautomer_probability>
1

> <s_lp_Force_Field>
OPLS_2005

> <r_lp_Energy>
22.738476

> <b_lp_Chiralities_Consistent>
1

> <s_lp_Variant>
363002-1

> <s_i_glide_gridfile>
glide-grid_3eqh

> <i_i_glide_lignum>
217

> <i_i_glide_rotatable_bonds>
9

> <r_i_docking_score>
-8.0374138950281

> <r_i_glide_ligand_efficiency>
-0.297681996112152

> <r_i_glide_ligand_efficiency_sa>
-0.893045987355345

> <r_i_glide_ligand_efficiency_ln>
-1.87097744763849

> <r_i_glide_gscore>
-8.0374138950281

> <r_i_glide_lipo>
-3.98325464774873

> <r_i_glide_hbond>
-0.16

> <r_i_glide_metal>
0

> <r_i_glide_rewards>
-1.2064102779225

> <r_i_glide_evdw>
-50.4919281005859

> <r_i_glide_ecoul>
-7.27218818664551

> <r_i_glide_erotb>
0.929341879055862

> <r_i_glide_esite>
-0.00166621538661298

> <r_i_glide_emodel>
-85.6526739385909

> <r_i_glide_energy>
-57.7641162872314

> <r_i_glide_einternal>
7.86838579177856

> <i_i_glide_confnum>
28

> <i_i_glide_posenum>
129

> <r_i_glide_eff_state_penalty>
0

> <i_f3d_flags>
0

> <s_user_duplicate_titles>
363002

> <s_m_subgroup_title>
dock_pv

> <s_m_subgroupid>
dock_pv1

> <b_m_subgroup_collapsed>
0

$$$$
396334
                    3D
 Schrodinger Suite 2021-1.
 30 31  0  0  1  0            999 V2000
   -5.3985   55.8434   32.6895 C   0  0  0  0  0  0
   -4.1680   56.3520   33.3099 N   0  0  0  0  0  0
   -2.9944   55.6401   33.2723 C   0  0  0  0  0  0
   -1.8183   56.0347   33.8182 C   0  0  0  0  0  0
   -1.7910   57.3445   34.4678 C   0  0  0  0  0  0
   -2.9614   58.0238   34.5302 C   0  0  0  0  0  0
   -4.2335   57.5480   33.9903 C   0  0  0  0  0  0
   -5.2576   58.2112   34.1630 O   0  0  0  0  0  0
   -0.6185   57.8757   34.9630 N   0  0  0  0  0  0
   -0.0290   59.0243   34.4350 C   0  0  0  0  0  0
    0.8666   58.9180   33.3647 C   0  0  0  0  0  0
    1.4098   60.0626   32.7810 C   0  0  0  0  0  0
    1.0774   61.3189   33.2851 C   0  0  0  0  0  0
    0.2216   61.4103   34.3802 C   0  0  0  0  0  0
   -0.3261   60.2788   34.9630 C   0  0  0  0  0  0
   -1.1560   60.4188   36.0237 F   0  0  0  0  0  0
    1.8382   63.0602   32.4101 I   0  0  0  0  0  0
   -0.6511   55.1973   33.7630 C   0  0  0  0  0  0
    0.4740   55.5652   33.4487 O   0  0  0  0  0  0
   -0.9335   53.9480   34.1630 O   0  0  0  0  0  0
   -5.2202   55.6228   31.6363 H   0  0  0  0  0  0
   -6.2374   56.5407   32.7306 H   0  0  0  0  0  0
   -5.7119   54.9213   33.1801 H   0  0  0  0  0  0
   -3.1304   54.6942   32.7628 H   0  0  0  0  0  0
   -2.9668   58.9971   34.9907 H   0  0  0  0  0  0
    0.0973   57.1831   35.1275 H   0  0  0  0  0  0
    1.1264   57.9518   32.9630 H   0  0  0  0  0  0
    2.0740   59.9689   31.9350 H   0  0  0  0  0  0
   -0.0558   62.3480   34.7981 H   0  0  0  0  0  0
   -1.8346   53.8740   34.4804 H   0  0  0  0  0  0
  1  2  1  0  0  0
  1 21  1  0  0  0
  1 22  1  0  0  0
  1 23  1  0  0  0
  2  7  1  0  0  0
  2  3  1  0  0  0
  3  4  2  0  0  0
  3 24  1  0  0  0
  4  5  1  0  0  0
  4 18  1  0  0  0
  5  6  2  0  0  0
  5  9  1  0  0  0
  6  7  1  0  0  0
  6 25  1  0  0  0
  7  8  2  0  0  0
  9 10  1  0  0  0
  9 26  1  0  0  0
 10 15  1  0  0  0
 10 11  2  0  0  0
 11 12  1  0  0  0
 11 27  1  0  0  0
 12 13  2  0  0  0
 12 28  1  0  0  0
 13 14  1  0  0  0
 13 17  1  0  0  0
 14 15  2  0  0  0
 14 29  1  0  0  0
 15 16  1  0  0  0
 18 19  2  0  0  0
 18 20  1  0  0  0
 20 30  1  0  0  0
M  END
> <s_m_entry_id>
66022

> <s_m_entry_name>
ligand_docking-pose.78

> <s_m_Source_Path>
/home/csk/Desktop/cluster/DUD-E-result/mp2k1

> <s_m_Source_File>
ligand_docking-pose.sdf

> <i_m_Source_File_Index>
78

> <i_lp_mmshare_version>
53161

> <r_lp_tautomer_probability>
1

> <s_lp_Force_Field>
OPLS_2005

> <r_lp_Energy>
32.261826

> <b_lp_Chiralities_Consistent>
1

> <s_lp_Variant>
396334-1

> <s_i_glide_gridfile>
glide-grid_3eqh

> <i_i_glide_lignum>
343

> <i_i_glide_rotatable_bonds>
4

> <r_i_docking_score>
-8.02895036102871

> <r_i_glide_ligand_efficiency>
-0.401447518051435

> <r_i_glide_ligand_efficiency_sa>
-1.08969621404897

> <r_i_glide_ligand_efficiency_ln>
-2.00938146285947

> <r_i_glide_gscore>
-8.02895036102871

> <r_i_glide_lipo>
-3.1697666227541

> <r_i_glide_hbond>
-0.391705335697907

> <r_i_glide_metal>
0

> <r_i_glide_rewards>
-1.8604899563431

> <r_i_glide_evdw>
-39.1896896362305

> <r_i_glide_ecoul>
-6.90298414230347

> <r_i_glide_erotb>
0.387943656923447

> <r_i_glide_esite>
0

> <r_i_glide_emodel>
-64.3915288654491

> <r_i_glide_energy>
-46.0926737785339

> <r_i_glide_einternal>
8.50779628753662

> <i_i_glide_confnum>
63

> <i_i_glide_posenum>
293

> <r_i_glide_eff_state_penalty>
0

> <i_f3d_flags>
0

> <s_user_duplicate_titles>
396334

> <s_m_subgroup_title>
dock_pv

> <s_m_subgroupid>
dock_pv1

> <b_m_subgroup_collapsed>
0

$$$$
336145
                    3D
 Schrodinger Suite 2021-1.
 34 35  0  0  1  0            999 V2000
   -1.2753   61.6267   36.2544 C   0  0  0  0  0  0
   -1.0715   60.3446   35.5993 N   0  0  0  0  0  0
   -1.7936   59.2303   35.7594 C   0  0  0  0  0  0
   -2.7258   59.1477   36.5604 O   0  0  0  0  0  0
   -1.4447   58.1370   34.8663 C   0  0  0  0  0  0
   -2.4488   57.3592   34.3956 C   0  0  0  0  0  0
   -2.3045   56.1479   33.7750 N   0  0  0  0  0  0
   -1.0779   55.5259   33.7633 C   0  0  0  0  0  0
   -0.9048   54.3481   33.4572 O   0  0  0  0  0  0
    0.0576   56.3630   34.1629 C   0  0  0  0  0  0
   -0.0696   57.6418   34.6157 C   0  0  0  0  0  0
    1.0849   58.3876   34.7958 N   0  0  0  0  0  0
    1.3939   59.6252   34.2041 C   0  0  0  0  0  0
    0.9696   59.9195   32.9064 C   0  0  0  0  0  0
    1.1945   61.1829   32.3650 C   0  0  0  0  0  0
    1.8294   62.1722   33.1083 C   0  0  0  0  0  0
    2.2810   61.8820   34.3915 C   0  0  0  0  0  0
    2.0742   60.6122   34.9322 C   0  0  0  0  0  0
    2.5553   60.3483   36.1633 F   0  0  0  0  0  0
    2.0745   63.9095   32.3709 Br  0  0  0  0  0  0
    1.2740   55.7769   34.0691 F   0  0  0  0  0  0
   -3.4625   55.3998   33.2696 C   0  0  0  0  0  0
   -0.3726   62.2297   36.1630 H   0  0  0  0  0  0
   -1.5088   61.5213   37.3134 H   0  0  0  0  0  0
   -2.0793   62.1736   35.7632 H   0  0  0  0  0  0
   -0.3529   60.3140   34.8946 H   0  0  0  0  0  0
   -3.4904   57.5452   34.6281 H   0  0  0  0  0  0
    1.8980   57.9166   35.1676 H   0  0  0  0  0  0
    0.4667   59.1674   32.3177 H   0  0  0  0  0  0
    0.8740   61.3979   31.3633 H   0  0  0  0  0  0
    2.7975   62.6372   34.9636 H   0  0  0  0  0  0
   -4.0865   56.0510   32.6566 H   0  0  0  0  0  0
   -3.1917   54.5423   32.6499 H   0  0  0  0  0  0
   -4.0676   55.0359   34.1014 H   0  0  0  0  0  0
  1  2  1  0  0  0
  1 23  1  0  0  0
  1 24  1  0  0  0
  1 25  1  0  0  0
  2  3  1  0  0  0
  2 26  1  0  0  0
  3  4  2  0  0  0
  3  5  1  0  0  0
  5 11  1  0  0  0
  5  6  2  0  0  0
  6  7  1  0  0  0
  6 27  1  0  0  0
  7  8  1  0  0  0
  7 22  1  0  0  0
  8  9  2  0  0  0
  8 10  1  0  0  0
 10 11  2  0  0  0
 10 21  1  0  0  0
 11 12  1  0  0  0
 12 13  1  0  0  0
 12 28  1  0  0  0
 13 18  1  0  0  0
 13 14  2  0  0  0
 14 15  1  0  0  0
 14 29  1  0  0  0
 15 16  2  0  0  0
 15 30  1  0  0  0
 16 17  1  0  0  0
 16 20  1  0  0  0
 17 18  2  0  0  0
 17 31  1  0  0  0
 18 19  1  0  0  0
 22 32  1  0  0  0
 22 33  1  0  0  0
 22 34  1  0  0  0
M  END
> <s_m_entry_id>
66024

> <s_m_entry_name>
ligand_docking-pose.80

> <s_m_Source_Path>
/home/csk/Desktop/cluster/DUD-E-result/mp2k1

> <s_m_Source_File>
ligand_docking-pose.sdf

> <i_m_Source_File_Index>
80

> <i_lp_mmshare_version>
53161

> <r_lp_tautomer_probability>
0.999999999982488

> <s_lp_Force_Field>
OPLS_2005

> <r_lp_Energy>
34.850822

> <b_lp_Chiralities_Consistent>
1

> <s_lp_Variant>
336145-1

> <s_i_glide_gridfile>
glide-grid_3eqh

> <i_i_glide_lignum>
367

> <i_i_glide_rotatable_bonds>
4

> <r_i_docking_score>
-8.01725852777408

> <r_i_glide_ligand_efficiency>
-0.364420842171549

> <r_i_glide_ligand_efficiency_sa>
-1.02112153162313

> <r_i_glide_ligand_efficiency_ln>
-1.95971042079819

> <r_i_glide_gscore>
-8.01725852777408

> <r_i_glide_lipo>
-3.90552971972495

> <r_i_glide_hbond>
-0.0579920167722755

> <r_i_glide_metal>
0

> <r_i_glide_rewards>
-2.00734788418941

> <r_i_glide_evdw>
-37.9759902954102

> <r_i_glide_ecoul>
-3.52522468566895

> <r_i_glide_erotb>
0.418271685766764

> <r_i_glide_esite>
-0.0370773752333521

> <r_i_glide_emodel>
-61.5832304294953

> <r_i_glide_energy>
-41.5012149810791

> <r_i_glide_einternal>
5.38152456283569

> <i_i_glide_confnum>
3

> <i_i_glide_posenum>
95

> <r_i_glide_eff_state_penalty>
0

> <i_f3d_flags>
0

> <s_user_duplicate_titles>
336145

> <s_m_subgroup_title>
dock_pv

> <s_m_subgroupid>
dock_pv1

> <b_m_subgroup_collapsed>
0

$$$$
336190
                    3D
 Schrodinger Suite 2021-1.
 38 39  0  0  1  0            999 V2000
   -7.0831   56.9796   32.6169 C   0  0  0  0  0  0
   -6.7875   56.8664   34.1252 C   0  0  0  0  0  0
   -5.9962   57.9482   34.6056 O   0  0  0  0  0  0
   -4.6858   57.8330   34.1476 N   0  0  0  0  0  0
   -3.6495   57.9480   35.0044 C   0  0  0  0  0  0
   -3.7218   58.3480   36.1626 O   0  0  0  0  0  0
   -2.4249   57.4041   34.5001 C   0  0  0  0  0  0
   -2.4643   56.1069   34.1606 C   0  0  0  0  0  0
   -1.3902   55.3446   33.8877 N   0  0  0  0  0  0
   -0.1163   55.8273   34.0088 C   0  0  0  0  0  0
    0.8741   55.1480   33.7630 O   0  0  0  0  0  0
   -0.0110   57.2213   34.4241 C   0  0  0  0  0  0
   -1.0959   58.0437   34.5722 C   0  0  0  0  0  0
   -0.9581   59.4202   34.6977 N   0  0  0  0  0  0
    0.0594   60.2270   34.1434 C   0  0  0  0  0  0
    0.7983   59.8032   33.0298 C   0  0  0  0  0  0
    1.8845   60.5285   32.5630 C   0  0  0  0  0  0
    2.2121   61.7402   33.1566 C   0  0  0  0  0  0
    1.4431   62.2083   34.2127 C   0  0  0  0  0  0
    0.3736   61.4636   34.7140 C   0  0  0  0  0  0
   -0.3372   61.9418   35.7625 F   0  0  0  0  0  0
    3.7125   62.7481   32.5630 Br  0  0  0  0  0  0
    1.2581   57.6569   34.6113 F   0  0  0  0  0  0
   -1.5617   53.9480   33.6082 C   0  0  0  0  0  0
   -7.7550   56.1845   32.2930 H   0  0  0  0  0  0
   -6.1776   56.9007   32.0142 H   0  0  0  0  0  0
   -7.5615   57.9290   32.3741 H   0  0  0  0  0  0
   -7.7289   56.8817   34.6754 H   0  0  0  0  0  0
   -6.3208   55.9075   34.3522 H   0  0  0  0  0  0
   -4.6091   57.9704   33.1503 H   0  0  0  0  0  0
   -3.3684   55.5069   34.2039 H   0  0  0  0  0  0
   -1.7615   59.9655   34.9844 H   0  0  0  0  0  0
    0.5734   58.8615   32.5629 H   0  0  0  0  0  0
    2.4741   60.1196   31.7630 H   0  0  0  0  0  0
    1.7037   63.1480   34.6491 H   0  0  0  0  0  0
   -2.4309   53.8234   32.9635 H   0  0  0  0  0  0
   -0.6876   53.5480   33.0921 H   0  0  0  0  0  0
   -1.7229   53.3994   34.5400 H   0  0  0  0  0  0
  1  2  1  0  0  0
  1 25  1  0  0  0
  1 26  1  0  0  0
  1 27  1  0  0  0
  2  3  1  0  0  0
  2 28  1  0  0  0
  2 29  1  0  0  0
  3  4  1  0  0  0
  4  5  1  0  0  0
  4 30  1  0  0  0
  5  6  2  0  0  0
  5  7  1  0  0  0
  7 13  1  0  0  0
  7  8  2  0  0  0
  8  9  1  0  0  0
  8 31  1  0  0  0
  9 10  1  0  0  0
  9 24  1  0  0  0
 10 11  2  0  0  0
 10 12  1  0  0  0
 12 13  2  0  0  0
 12 23  1  0  0  0
 13 14  1  0  0  0
 14 15  1  0  0  0
 14 32  1  0  0  0
 15 20  1  0  0  0
 15 16  2  0  0  0
 16 17  1  0  0  0
 16 33  1  0  0  0
 17 18  2  0  0  0
 17 34  1  0  0  0
 18 19  1  0  0  0
 18 22  1  0  0  0
 19 20  2  0  0  0
 19 35  1  0  0  0
 20 21  1  0  0  0
 24 36  1  0  0  0
 24 37  1  0  0  0
 24 38  1  0  0  0
M  END
> <s_m_entry_id>
66025

> <s_m_entry_name>
ligand_docking-pose.81

> <s_m_Source_Path>
/home/csk/Desktop/cluster/DUD-E-result/mp2k1

> <s_m_Source_File>
ligand_docking-pose.sdf

> <i_m_Source_File_Index>
81

> <i_lp_mmshare_version>
53161

> <r_lp_tautomer_probability>
0.999999999982488

> <s_lp_Force_Field>
OPLS_2005

> <r_lp_Energy>
41.45151

> <b_lp_Chiralities_Consistent>
1

> <s_lp_Variant>
336190-1

> <s_i_glide_gridfile>
glide-grid_3eqh

> <i_i_glide_lignum>
323

> <i_i_glide_rotatable_bonds>
6

> <r_i_docking_score>
-7.9988296202085

> <r_i_glide_ligand_efficiency>
-0.333284567508688

> <r_i_glide_ligand_efficiency_sa>
-0.961359047540573

> <r_i_glide_ligand_efficiency_ln>
-1.91448697049037

> <r_i_glide_gscore>
-7.9988296202085

> <r_i_glide_lipo>
-3.4789090612186

> <r_i_glide_hbond>
-0.65190571788998

> <r_i_glide_metal>
0

> <r_i_glide_rewards>
-1.09479536768004

> <r_i_glide_evdw>
-32.5293579101562

> <r_i_glide_ecoul>
-11.4091577529907

> <r_i_glide_erotb>
0.606506235919067

> <r_i_glide_esite>
-0.0418841508825296

> <r_i_glide_emodel>
-51.1005822157954

> <r_i_glide_energy>
-43.938515663147

> <r_i_glide_einternal>
16.8588581085205

> <i_i_glide_confnum>
94

> <i_i_glide_posenum>
378

> <r_i_glide_eff_state_penalty>
0

> <i_f3d_flags>
0

> <s_user_duplicate_titles>
336190

> <s_m_subgroup_title>
dock_pv

> <s_m_subgroupid>
dock_pv1

> <b_m_subgroup_collapsed>
0

$$$$
363017
                    3D
 Schrodinger Suite 2021-1.
 47 49  0  0  1  0            999 V2000
   -7.0615   50.6215   30.3901 C   0  0  0  0  0  0
   -6.5291   51.8845   29.6781 C   0  0  2  0  0  0
   -5.0864   51.7278   29.1376 C   0  0  0  0  0  0
   -4.9929   50.6448   28.2262 O   0  0  0  0  0  0
   -6.5549   52.9841   30.6337 N   0  0  0  0  0  0
   -7.4765   53.8714   30.5874 C   0  0  0  0  0  0
   -7.4540   54.9748   31.5943 C   0  0  0  0  0  0
   -8.4387   55.9859   31.7630 C   0  0  0  0  0  0
   -8.3106   56.8700   32.7216 N   0  0  0  0  0  0
   -6.8262   56.6031   33.4989 S   0  0  0  0  0  0
   -6.4089   55.2364   32.5014 C   0  0  0  0  0  0
   -5.2103   54.5728   32.6791 N   0  0  0  0  0  0
   -3.9704   55.1365   33.0252 C   0  0  0  0  0  0
   -3.0615   54.3798   33.7644 C   0  0  0  0  0  0
   -1.8303   54.9239   34.1288 C   0  0  0  0  0  0
   -1.4897   56.2230   33.7505 C   0  0  0  0  0  0
   -2.3826   56.9573   32.9630 C   0  0  0  0  0  0
   -3.6137   56.4211   32.6053 C   0  0  0  0  0  0
   -0.2628   56.7185   34.1532 O   0  0  0  0  0  0
   -0.0230   58.0784   34.2077 C   0  0  0  0  0  0
    0.9737   58.6094   33.3833 C   0  0  0  0  0  0
    1.2676   59.9702   33.4045 C   0  0  0  0  0  0
    0.5791   60.8169   34.2698 C   0  0  0  0  0  0
   -0.4019   60.2978   35.1122 C   0  0  0  0  0  0
   -0.7058   58.9353   35.0900 C   0  0  0  0  0  0
   -1.9274   58.3482   36.1629 Cl  0  0  0  0  0  0
    2.2211   60.4682   32.5876 F   0  0  0  0  0  0
   -9.5256   56.2287   30.9630 O   0  0  0  0  0  0
   -8.5474   53.9623   29.7200 N   0  0  0  0  0  0
   -7.0760   49.7661   29.7169 H   0  0  0  0  0  0
   -6.4581   50.3592   31.2615 H   0  0  0  0  0  0
   -8.0871   50.7698   30.7376 H   0  0  0  0  0  0
   -7.1689   52.0668   28.8077 H   0  0  0  0  0  0
   -4.3799   51.5640   29.9527 H   0  0  0  0  0  0
   -4.7712   52.6394   28.6241 H   0  0  0  0  0  0
   -5.0826   49.8355   28.7392 H   0  0  0  0  0  0
   -5.1680   53.5874   32.4589 H   0  0  0  0  0  0
   -3.3138   53.3789   34.0821 H   0  0  0  0  0  0
   -1.1398   54.3398   34.7159 H   0  0  0  0  0  0
   -2.1295   57.9479   32.6219 H   0  0  0  0  0  0
   -4.2796   57.0088   31.9899 H   0  0  0  0  0  0
    1.5179   57.9642   32.7108 H   0  0  0  0  0  0
    0.8107   61.8714   34.2919 H   0  0  0  0  0  0
   -0.9361   60.9584   35.7780 H   0  0  0  0  0  0
   -9.1800   56.7465   30.2204 H   0  0  0  0  0  0
   -8.6694   53.2960   28.9750 H   0  0  0  0  0  0
   -9.2307   54.6979   29.8452 H   0  0  0  0  0  0
  1  2  1  0  0  0
  1 30  1  0  0  0
  1 31  1  0  0  0
  1 32  1  0  0  0
  2  3  1  0  0  0
  2  5  1  0  0  0
  2 33  1  0  0  0
  3  4  1  0  0  0
  3 34  1  0  0  0
  3 35  1  0  0  0
  4 36  1  0  0  0
  5  6  2  0  0  0
  6  7  1  0  0  0
  6 29  1  0  0  0
  7 11  2  0  0  0
  7  8  1  0  0  0
  8  9  2  0  0  0
  8 28  1  0  0  0
  9 10  1  0  0  0
 10 11  1  0  0  0
 11 12  1  0  0  0
 12 13  1  0  0  0
 12 37  1  0  0  0
 13 18  1  0  0  0
 13 14  2  0  0  0
 14 15  1  0  0  0
 14 38  1  0  0  0
 15 16  2  0  0  0
 15 39  1  0  0  0
 16 17  1  0  0  0
 16 19  1  0  0  0
 17 18  2  0  0  0
 17 40  1  0  0  0
 18 41  1  0  0  0
 19 20  1  0  0  0
 20 25  1  0  0  0
 20 21  2  0  0  0
 21 22  1  0  0  0
 21 42  1  0  0  0
 22 23  2  0  0  0
 22 27  1  0  0  0
 23 24  1  0  0  0
 23 43  1  0  0  0
 24 25  2  0  0  0
 24 44  1  0  0  0
 25 26  1  0  0  0
 28 45  1  0  0  0
 29 46  1  0  0  0
 29 47  1  0  0  0
M  END
> <s_m_entry_id>
66026

> <s_m_entry_name>
ligand_docking-pose.82

> <s_m_Source_Path>
/home/csk/Desktop/cluster/DUD-E-result/mp2k1

> <s_m_Source_File>
ligand_docking-pose.sdf

> <i_m_Source_File_Index>
82

> <i_lp_mmshare_version>
53161

> <r_lp_tautomer_probability>
1

> <s_lp_Force_Field>
OPLS_2005

> <r_lp_Energy>
25.092481

> <b_lp_Chiralities_Consistent>
1

> <s_lp_Variant>
363017-1

> <s_i_glide_gridfile>
glide-grid_3eqh

> <i_i_glide_lignum>
257

> <i_i_glide_rotatable_bonds>
9

> <r_i_docking_score>
-7.98455211484888

> <r_i_glide_ligand_efficiency>
-0.275329383270651

> <r_i_glide_ligand_efficiency_sa>
-0.845899095878665

> <r_i_glide_ligand_efficiency_ln>
-1.82825996352842

> <r_i_glide_gscore>
-7.98455211484888

> <r_i_glide_lipo>
-3.44779869250388

> <r_i_glide_hbond>
-0.221811719832136

> <r_i_glide_metal>
0

> <r_i_glide_rewards>
-0.953127797227515

> <r_i_glide_evdw>
-46.786750793457

> <r_i_glide_ecoul>
-11.3869152069092

> <r_i_glide_erotb>
0.731155462141542

> <r_i_glide_esite>
-0.0455945467176663

> <r_i_glide_emodel>
-77.3418295274923

> <r_i_glide_energy>
-58.1736660003662

> <r_i_glide_einternal>
14.2404098510742

> <i_i_glide_confnum>
30

> <i_i_glide_posenum>
166

> <r_i_glide_eff_state_penalty>
0

> <i_f3d_flags>
0

> <s_user_duplicate_titles>
363017

> <s_m_subgroup_title>
dock_pv

> <s_m_subgroupid>
dock_pv1

> <b_m_subgroup_collapsed>
0

$$$$
396338
                    3D
 Schrodinger Suite 2021-1.
 37 38  0  0  1  0            999 V2000
   -1.5928   53.9488   33.6900 C   0  0  0  0  0  0
   -1.3969   55.3189   34.0451 N   0  0  0  0  0  0
   -2.4590   56.0735   34.3949 C   0  0  0  0  0  0
   -2.4146   57.3871   34.6628 C   0  0  0  0  0  0
   -1.0937   58.0355   34.5851 C   0  0  0  0  0  0
   -0.0219   57.2179   34.3929 C   0  0  0  0  0  0
   -0.1181   55.8093   34.0597 C   0  0  0  0  0  0
    0.8746   55.1500   33.7640 O   0  0  0  0  0  0
   -0.9471   59.4075   34.6475 N   0  0  0  0  0  0
    0.0834   60.1958   34.1019 C   0  0  0  0  0  0
    0.8693   59.7563   33.0280 C   0  0  0  0  0  0
    1.9415   60.5067   32.5631 C   0  0  0  0  0  0
    2.2323   61.7324   33.1546 C   0  0  0  0  0  0
    1.4267   62.1987   34.1821 C   0  0  0  0  0  0
    0.3481   61.4497   34.6526 C   0  0  0  0  0  0
   -0.4304   61.9369   35.6484 F   0  0  0  0  0  0
    3.8668   62.8937   32.5634 I   0  0  0  0  0  0
   -3.6042   57.9943   35.1985 C   0  0  0  0  0  0
   -3.5259   58.6454   36.2427 O   0  0  0  0  0  0
   -4.7862   57.7925   34.5390 N   0  0  0  0  0  0
   -4.9197   57.3236   33.1518 C   0  0  0  0  0  0
   -6.0885   57.9479   35.1919 C   0  0  0  0  0  0
   -2.4234   53.8911   32.9876 H   0  0  0  0  0  0
   -0.7063   53.5482   33.2003 H   0  0  0  0  0  0
   -1.8238   53.3584   34.5797 H   0  0  0  0  0  0
   -3.3427   55.4631   34.5478 H   0  0  0  0  0  0
    0.9807   57.6121   34.3877 H   0  0  0  0  0  0
   -1.7355   59.9618   34.9609 H   0  0  0  0  0  0
    0.6706   58.8071   32.5634 H   0  0  0  0  0  0
    2.5363   60.1045   31.7624 H   0  0  0  0  0  0
    1.6704   63.1453   34.6138 H   0  0  0  0  0  0
   -5.3023   56.3021   33.1301 H   0  0  0  0  0  0
   -3.9815   57.3488   32.5947 H   0  0  0  0  0  0
   -5.6270   57.9476   32.6040 H   0  0  0  0  0  0
   -6.7244   58.6196   34.6129 H   0  0  0  0  0  0
   -6.5965   56.9843   35.2510 H   0  0  0  0  0  0
   -6.0183   58.3480   36.2030 H   0  0  0  0  0  0
  1  2  1  0  0  0
  1 23  1  0  0  0
  1 24  1  0  0  0
  1 25  1  0  0  0
  2  7  1  0  0  0
  2  3  1  0  0  0
  3  4  2  0  0  0
  3 26  1  0  0  0
  4  5  1  0  0  0
  4 18  1  0  0  0
  5  6  2  0  0  0
  5  9  1  0  0  0
  6  7  1  0  0  0
  6 27  1  0  0  0
  7  8  2  0  0  0
  9 10  1  0  0  0
  9 28  1  0  0  0
 10 15  1  0  0  0
 10 11  2  0  0  0
 11 12  1  0  0  0
 11 29  1  0  0  0
 12 13  2  0  0  0
 12 30  1  0  0  0
 13 14  1  0  0  0
 13 17  1  0  0  0
 14 15  2  0  0  0
 14 31  1  0  0  0
 15 16  1  0  0  0
 18 19  2  0  0  0
 18 20  1  0  0  0
 20 21  1  0  0  0
 20 22  1  0  0  0
 21 32  1  0  0  0
 21 33  1  0  0  0
 21 34  1  0  0  0
 22 35  1  0  0  0
 22 36  1  0  0  0
 22 37  1  0  0  0
M  END
> <s_m_entry_id>
66027

> <s_m_entry_name>
ligand_docking-pose.83

> <s_m_Source_Path>
/home/csk/Desktop/cluster/DUD-E-result/mp2k1

> <s_m_Source_File>
ligand_docking-pose.sdf

> <i_m_Source_File_Index>
83

> <i_lp_mmshare_version>
53161

> <r_lp_tautomer_probability>
0.999999999982488

> <s_lp_Force_Field>
OPLS_2005

> <r_lp_Energy>
44.860949

> <b_lp_Chiralities_Consistent>
1

> <s_lp_Variant>
396338-1

> <s_i_glide_gridfile>
glide-grid_3eqh

> <i_i_glide_lignum>
339

> <i_i_glide_rotatable_bonds>
4

> <r_i_docking_score>
-7.94262100164468

> <r_i_glide_ligand_efficiency>
-0.361028227347485

> <r_i_glide_ligand_efficiency_sa>
-1.01161529146213

> <r_i_glide_ligand_efficiency_ln>
-1.94146628694225

> <r_i_glide_gscore>
-7.94262100164468

> <r_i_glide_lipo>
-3.51116790662075

> <r_i_glide_hbond>
-0.649888760191959

> <r_i_glide_metal>
0

> <r_i_glide_rewards>
-0.984983616905176

> <r_i_glide_evdw>
-29.0412635803223

> <r_i_glide_ecoul>
-10.7949342727661

> <r_i_glide_erotb>
0.343598727175881

> <r_i_glide_esite>
-0.0688761251716469

> <r_i_glide_emodel>
-58.5252357308129

> <r_i_glide_energy>
-39.8361978530884

> <r_i_glide_einternal>
3.12138628959656

> <i_i_glide_confnum>
2

> <i_i_glide_posenum>
273

> <r_i_glide_eff_state_penalty>
0

> <i_f3d_flags>
0

> <s_user_duplicate_titles>
396338

> <s_m_subgroup_title>
dock_pv

> <s_m_subgroupid>
dock_pv1

> <b_m_subgroup_collapsed>
0

$$$$
363029
                    3D
 Schrodinger Suite 2021-1.
 47 49  0  0  1  0            999 V2000
   -8.9090   58.1265   34.9359 C   0  0  0  0  0  0
   -8.5146   58.5112   33.4906 C   0  0  1  0  0  0
   -7.9694   59.9547   33.4504 C   0  0  0  0  0  0
   -7.5254   60.3475   32.1625 O   0  0  0  0  0  0
   -7.4729   57.6236   32.9899 N   0  0  0  0  0  0
   -7.7602   56.4556   32.5620 C   0  0  0  0  0  0
   -6.6562   55.6332   32.0179 C   0  0  0  0  0  0
   -6.7553   54.7458   30.9255 C   0  0  0  0  0  0
   -5.7077   54.0378   30.5756 N   0  0  0  0  0  0
   -4.4049   54.4844   31.5758 S   0  0  0  0  0  0
   -5.3381   55.6351   32.4886 C   0  0  0  0  0  0
   -4.8421   56.3822   33.5352 N   0  0  0  0  0  0
   -3.5561   56.8036   33.9027 C   0  0  0  0  0  0
   -3.4567   57.4379   35.1404 C   0  0  0  0  0  0
   -2.2423   57.9559   35.5743 C   0  0  0  0  0  0
   -1.1176   57.8532   34.7614 C   0  0  0  0  0  0
   -1.2022   57.1898   33.5373 C   0  0  0  0  0  0
   -2.4200   56.6832   33.0953 C   0  0  0  0  0  0
    0.0617   58.4316   35.1621 O   0  0  0  0  0  0
    0.4602   59.5381   34.4504 C   0  0  0  0  0  0
    1.3637   59.3833   33.3935 C   0  0  0  0  0  0
    1.7445   60.4826   32.6223 C   0  0  0  0  0  0
    1.2220   61.7449   32.9046 C   0  0  0  0  0  0
    0.3241   61.9009   33.9565 C   0  0  0  0  0  0
   -0.0448   60.8130   34.7451 C   0  0  0  0  0  0
   -1.1260   61.0777   36.0707 Cl  0  0  0  0  0  0
    1.6733   63.1223   31.9668 Cl  0  0  0  0  0  0
   -7.8724   54.5392   30.1628 O   0  0  0  0  0  0
   -8.9624   55.7832   32.5473 N   0  0  0  0  0  0
   -9.6467   58.8227   35.3366 H   0  0  0  0  0  0
   -9.3473   57.1297   34.9878 H   0  0  0  0  0  0
   -8.0481   58.1384   35.6051 H   0  0  0  0  0  0
   -9.4040   58.4703   32.8552 H   0  0  0  0  0  0
   -7.1282   60.0401   34.1365 H   0  0  0  0  0  0
   -8.7262   60.6630   33.7865 H   0  0  0  0  0  0
   -7.1703   59.5429   31.7603 H   0  0  0  0  0  0
   -5.5428   56.7923   34.1347 H   0  0  0  0  0  0
   -4.3291   57.5416   35.7634 H   0  0  0  0  0  0
   -2.1736   58.4553   36.5293 H   0  0  0  0  0  0
   -0.3249   57.1020   32.9204 H   0  0  0  0  0  0
   -2.4578   56.2417   32.1134 H   0  0  0  0  0  0
    1.7584   58.4052   33.1619 H   0  0  0  0  0  0
    2.4404   60.3474   31.8092 H   0  0  0  0  0  0
   -0.0946   62.8706   34.1630 H   0  0  0  0  0  0
   -8.3247   55.3841   30.0690 H   0  0  0  0  0  0
   -9.7795   56.2055   32.9596 H   0  0  0  0  0  0
   -8.9966   54.8164   32.2586 H   0  0  0  0  0  0
  1  2  1  0  0  0
  1 30  1  0  0  0
  1 31  1  0  0  0
  1 32  1  0  0  0
  2  3  1  0  0  0
  2  5  1  0  0  0
  2 33  1  0  0  0
  3  4  1  0  0  0
  3 34  1  0  0  0
  3 35  1  0  0  0
  4 36  1  0  0  0
  5  6  2  0  0  0
  6  7  1  0  0  0
  6 29  1  0  0  0
  7 11  2  0  0  0
  7  8  1  0  0  0
  8  9  2  0  0  0
  8 28  1  0  0  0
  9 10  1  0  0  0
 10 11  1  0  0  0
 11 12  1  0  0  0
 12 13  1  0  0  0
 12 37  1  0  0  0
 13 18  1  0  0  0
 13 14  2  0  0  0
 14 15  1  0  0  0
 14 38  1  0  0  0
 15 16  2  0  0  0
 15 39  1  0  0  0
 16 17  1  0  0  0
 16 19  1  0  0  0
 17 18  2  0  0  0
 17 40  1  0  0  0
 18 41  1  0  0  0
 19 20  1  0  0  0
 20 25  1  0  0  0
 20 21  2  0  0  0
 21 22  1  0  0  0
 21 42  1  0  0  0
 22 23  2  0  0  0
 22 43  1  0  0  0
 23 24  1  0  0  0
 23 27  1  0  0  0
 24 25  2  0  0  0
 24 44  1  0  0  0
 25 26  1  0  0  0
 28 45  1  0  0  0
 29 46  1  0  0  0
 29 47  1  0  0  0
M  END
> <s_m_entry_id>
66028

> <s_m_entry_name>
ligand_docking-pose.84

> <s_m_Source_Path>
/home/csk/Desktop/cluster/DUD-E-result/mp2k1

> <s_m_Source_File>
ligand_docking-pose.sdf

> <i_m_Source_File_Index>
84

> <i_lp_mmshare_version>
53161

> <r_lp_tautomer_probability>
1

> <s_lp_Force_Field>
OPLS_2005

> <r_lp_Energy>
24.899936

> <b_lp_Chiralities_Consistent>
1

> <s_lp_Variant>
363029-2

> <s_i_glide_gridfile>
glide-grid_3eqh

> <i_i_glide_lignum>
252

> <i_i_glide_rotatable_bonds>
9

> <r_i_docking_score>
-7.9390386367208

> <r_i_glide_ligand_efficiency>
-0.273759952990372

> <r_i_glide_ligand_efficiency_sa>
-0.841077308827236

> <r_i_glide_ligand_efficiency_ln>
-1.81783853115931

> <r_i_glide_gscore>
-7.9390386367208

> <r_i_glide_lipo>
-4.12263074011853

> <r_i_glide_hbond>
0

> <r_i_glide_metal>
0

> <r_i_glide_rewards>
-0.65634463365219

> <r_i_glide_evdw>
-51.7240409851074

> <r_i_glide_ecoul>
-8.17135620117188

> <r_i_glide_erotb>
0.683665165572548

> <r_i_glide_esite>
-0.0318229490914749

> <r_i_glide_emodel>
-85.8679199249263

> <r_i_glide_energy>
-59.8953971862793

> <r_i_glide_einternal>
12.2774572372437

> <i_i_glide_confnum>
177

> <i_i_glide_posenum>
151

> <r_i_glide_eff_state_penalty>
0

> <i_f3d_flags>
0

> <s_user_duplicate_titles>
363029

> <s_m_subgroup_title>
dock_pv

> <s_m_subgroupid>
dock_pv1

> <b_m_subgroup_collapsed>
0

$$$$
165700
                    3D
 Schrodinger Suite 2021-1.
 60 64  0  0  1  0            999 V2000
   -8.3250   60.1868   32.6001 C   0  0  0  0  0  0
   -8.9965   59.7709   33.7645 O   0  0  0  0  0  0
   -9.2803   58.4400   33.9144 C   0  0  0  0  0  0
   -9.1862   57.5105   32.8737 C   0  0  0  0  0  0
   -9.1813   56.1524   33.1598 C   0  0  0  0  0  0
   -9.5497   55.7080   34.4386 C   0  0  0  0  0  0
   -9.7738   56.6436   35.4460 C   0  0  0  0  0  0
   -9.5619   58.0035   35.2061 C   0  0  0  0  0  0
   -9.5301   59.1484   36.5086 Cl  0  0  0  0  0  0
   -9.6825   54.0248   34.8230 Cl  0  0  0  0  0  0
   -8.7070   55.2837   32.1751 N   0  0  0  0  0  0
   -7.4634   54.6202   32.2809 C   0  0  0  0  0  0
   -6.2360   55.2697   32.7074 C   0  0  0  0  0  0
   -6.0509   56.6688   32.8823 C   0  0  0  0  0  0
   -4.8544   57.1960   33.3562 C   0  0  0  0  0  0
   -3.7586   56.3859   33.6487 C   0  0  0  0  0  0
   -3.8858   55.0103   33.4381 C   0  0  0  0  0  0
   -5.0976   54.4492   32.9611 C   0  0  0  0  0  0
   -5.1225   53.1171   32.7564 N   0  0  0  0  0  0
   -6.2474   52.5430   32.2853 C   0  0  0  0  0  0
   -7.4239   53.2336   32.0280 C   0  0  0  0  0  0
   -8.5701   52.4609   31.5452 C   0  0  0  0  0  0
   -9.4760   51.8512   31.1623 N   0  0  0  0  0  0
   -2.4746   56.9862   34.1200 C   0  0  0  0  0  0
   -2.4631   58.0778   34.9993 C   0  0  0  0  0  0
   -1.2668   58.6974   35.3599 C   0  0  0  0  0  0
   -0.0561   58.2080   34.8692 C   0  0  0  0  0  0
   -0.0558   57.1039   34.0140 C   0  0  0  0  0  0
   -1.2522   56.4968   33.6489 C   0  0  0  0  0  0
    1.2597   58.9509   35.1215 C   0  0  0  0  0  0
    1.5252   60.0895   34.2306 N   0  0  0  0  0  0
    1.1712   61.4078   34.7806 C   0  0  0  0  0  0
    1.5452   62.5378   33.7921 C   0  0  0  0  0  0
    0.8886   62.3019   32.5513 O   0  0  0  0  0  0
    1.3783   61.1102   31.9501 C   0  0  0  0  0  0
    1.1282   59.8803   32.8297 C   0  0  0  0  0  0
   -7.9254   61.1471   32.8701 H   0  0  0  0  0  0
   -9.0101   60.3060   31.7634 H   0  0  0  0  0  0
   -7.4841   59.5535   32.3185 H   0  0  0  0  0  0
   -8.9379   57.8212   31.8693 H   0  0  0  0  0  0
  -10.0334   56.3001   36.4369 H   0  0  0  0  0  0
   -9.4292   54.6837   31.8058 H   0  0  0  0  0  0
   -6.8190   57.3592   32.6082 H   0  0  0  0  0  0
   -4.7721   58.2674   33.4608 H   0  0  0  0  0  0
   -3.0550   54.3497   33.6411 H   0  0  0  0  0  0
   -6.1857   51.4772   32.1331 H   0  0  0  0  0  0
   -3.3899   58.4740   35.3820 H   0  0  0  0  0  0
   -1.2846   59.5699   35.9964 H   0  0  0  0  0  0
    0.8687   56.7398   33.5952 H   0  0  0  0  0  0
   -1.2240   55.6652   32.9631 H   0  0  0  0  0  0
    1.3295   59.2673   36.1598 H   0  0  0  0  0  0
    2.0735   58.2457   34.9622 H   0  0  0  0  0  0
    0.1042   61.4395   35.0078 H   0  0  0  0  0  0
    1.6982   61.5633   35.7258 H   0  0  0  0  0  0
    2.6281   62.5788   33.6557 H   0  0  0  0  0  0
    1.2720   63.5232   34.1623 H   0  0  0  0  0  0
    2.4464   61.2089   31.7633 H   0  0  0  0  0  0
    0.8738   60.9676   30.9954 H   0  0  0  0  0  0
    1.6490   59.0090   32.4280 H   0  0  0  0  0  0
    0.0699   59.6429   32.7734 H   0  0  0  0  0  0
  1  2  1  0  0  0
  1 37  1  0  0  0
  1 38  1  0  0  0
  1 39  1  0  0  0
  2  3  1  0  0  0
  3  8  1  0  0  0
  3  4  2  0  0  0
  4  5  1  0  0  0
  4 40  1  0  0  0
  5  6  2  0  0  0
  5 11  1  0  0  0
  6  7  1  0  0  0
  6 10  1  0  0  0
  7  8  2  0  0  0
  7 41  1  0  0  0
  8  9  1  0  0  0
 11 12  1  0  0  0
 11 42  1  0  0  0
 12 21  1  0  0  0
 12 13  2  0  0  0
 13 18  1  0  0  0
 13 14  1  0  0  0
 14 15  2  0  0  0
 14 43  1  0  0  0
 15 16  1  0  0  0
 15 44  1  0  0  0
 16 17  2  0  0  0
 16 24  1  0  0  0
 17 18  1  0  0  0
 17 45  1  0  0  0
 18 19  2  0  0  0
 19 20  1  0  0  0
 20 21  2  0  0  0
 20 46  1  0  0  0
 21 22  1  0  0  0
 22 23  3  0  0  0
 24 29  1  0  0  0
 24 25  2  0  0  0
 25 26  1  0  0  0
 25 47  1  0  0  0
 26 27  2  0  0  0
 26 48  1  0  0  0
 27 28  1  0  0  0
 27 30  1  0  0  0
 28 29  2  0  0  0
 28 49  1  0  0  0
 29 50  1  0  0  0
 30 31  1  0  0  0
 30 51  1  0  0  0
 30 52  1  0  0  0
 31 36  1  0  0  0
 31 32  1  0  0  0
 32 33  1  0  0  0
 32 53  1  0  0  0
 32 54  1  0  0  0
 33 34  1  0  0  0
 33 55  1  0  0  0
 33 56  1  0  0  0
 34 35  1  0  0  0
 35 36  1  0  0  0
 35 57  1  0  0  0
 35 58  1  0  0  0
 36 59  1  0  0  0
 36 60  1  0  0  0
M  END
> <s_m_entry_id>
66029

> <s_m_entry_name>
ligand_docking-pose.85

> <s_m_Source_Path>
/home/csk/Desktop/cluster/DUD-E-result/mp2k1

> <s_m_Source_File>
ligand_docking-pose.sdf

> <i_m_Source_File_Index>
85

> <i_lp_mmshare_version>
53161

> <r_lp_tautomer_probability>
1

> <s_lp_Force_Field>
OPLS_2005

> <r_lp_Energy>
49.897334

> <b_lp_Chiralities_Consistent>
1

> <s_lp_Variant>
165700-1

> <s_i_glide_gridfile>
glide-grid_3eqh

> <i_i_glide_lignum>
399

> <i_i_glide_rotatable_bonds>
6

> <r_i_docking_score>
-7.9168176966612

> <r_i_glide_ligand_efficiency>
-0.219911602685033

> <r_i_glide_ligand_efficiency_sa>
-0.726132112386431

> <r_i_glide_ligand_efficiency_ln>
-1.72723573371508

> <r_i_glide_gscore>
-7.9168176966612

> <r_i_glide_lipo>
-5.30042425778851

> <r_i_glide_hbond>
-0.217394770597393

> <r_i_glide_metal>
0

> <r_i_glide_rewards>
-0.313292677832943

> <r_i_glide_evdw>
-54.1581382751465

> <r_i_glide_ecoul>
1.60972833633423

> <r_i_glide_erotb>
0.380741672864842

> <r_i_glide_esite>
0

> <r_i_glide_emodel>
-58.254935993841

> <r_i_glide_energy>
-52.5484099388123

> <r_i_glide_einternal>
13.893609046936

> <i_i_glide_confnum>
17

> <i_i_glide_posenum>
47

> <r_i_glide_eff_state_penalty>
0

> <i_f3d_flags>
0

> <s_user_duplicate_titles>
165700

> <s_m_subgroup_title>
dock_pv

> <s_m_subgroupid>
dock_pv1

> <b_m_subgroup_collapsed>
0

$$$$
363033
                    3D
 Schrodinger Suite 2021-1.
 50 52  0  0  1  0            999 V2000
   -1.5849   54.4884   33.9453 C   0  0  0  0  0  0
   -1.5286   56.0109   33.9968 C   0  0  0  0  0  0
   -0.2733   56.6172   34.1624 C   0  0  0  0  0  0
   -0.1575   57.9881   34.3997 C   0  0  0  0  0  0
   -1.3236   58.7472   34.5360 C   0  0  0  0  0  0
   -2.5686   58.1669   34.3126 C   0  0  0  0  0  0
   -2.6895   56.8153   33.9920 C   0  0  0  0  0  0
   -3.9993   56.3715   33.7281 N   0  0  0  0  0  0
   -4.5037   55.7969   32.5743 C   0  0  0  0  0  0
   -5.8329   55.7708   32.1362 C   0  0  0  0  0  0
   -5.9328   55.0131   30.9509 C   0  0  0  0  0  0
   -4.8445   54.5222   30.4143 N   0  0  0  0  0  0
   -3.5263   55.0640   31.3382 S   0  0  0  0  0  0
   -7.0842   54.7479   30.2612 O   0  0  0  0  0  0
   -6.9596   56.4637   32.7768 C   0  0  0  0  0  0
   -6.7785   57.6837   33.1082 N   0  0  0  0  0  0
   -7.8859   58.4564   33.6577 C   0  0  1  0  0  0
   -7.9911   58.2163   35.1810 C   0  0  0  0  0  0
   -7.6509   59.9524   33.3480 C   0  0  0  0  0  0
   -7.5260   60.2586   31.9720 O   0  0  0  0  0  0
   -8.0530   55.6377   32.9158 N   0  0  0  0  0  0
    1.0982   58.5521   34.5231 O   0  0  0  0  0  0
    1.3504   59.7942   33.9688 C   0  0  0  0  0  0
    0.8951   60.1233   32.6851 C   0  0  0  0  0  0
    1.1176   61.3964   32.1634 C   0  0  0  0  0  0
    1.7889   62.3587   32.9092 C   0  0  0  0  0  0
    2.2784   62.0325   34.1684 C   0  0  0  0  0  0
    2.0819   60.7514   34.6854 C   0  0  0  0  0  0
    2.8728   60.3480   36.1629 Cl  0  0  0  0  0  0
    1.9872   63.5941   32.3982 F   0  0  0  0  0  0
   -0.8032   54.0510   34.5635 H   0  0  0  0  0  0
   -2.5317   54.1069   34.3297 H   0  0  0  0  0  0
   -1.4265   54.1116   32.9424 H   0  0  0  0  0  0
    0.6249   56.0189   34.1382 H   0  0  0  0  0  0
   -1.2672   59.8041   34.7548 H   0  0  0  0  0  0
   -3.4467   58.7934   34.3497 H   0  0  0  0  0  0
   -4.6772   56.8735   34.2823 H   0  0  0  0  0  0
   -7.5408   55.5924   30.1542 H   0  0  0  0  0  0
   -8.8387   58.1763   33.1976 H   0  0  0  0  0  0
   -8.7737   58.8348   35.6231 H   0  0  0  0  0  0
   -8.2356   57.1779   35.4067 H   0  0  0  0  0  0
   -7.0579   58.4468   35.6934 H   0  0  0  0  0  0
   -6.7255   60.2898   33.8033 H   0  0  0  0  0  0
   -8.4618   60.5528   33.7614 H   0  0  0  0  0  0
   -7.2089   59.4487   31.5490 H   0  0  0  0  0  0
   -8.8893   55.9685   33.3708 H   0  0  0  0  0  0
   -8.0097   54.6824   32.5931 H   0  0  0  0  0  0
    0.3730   59.3847   32.0940 H   0  0  0  0  0  0
    0.7831   61.6406   31.1698 H   0  0  0  0  0  0
    2.8411   62.7650   34.7263 H   0  0  0  0  0  0
  1  2  1  0  0  0
  1 31  1  0  0  0
  1 32  1  0  0  0
  1 33  1  0  0  0
  2  7  1  0  0  0
  2  3  2  0  0  0
  3  4  1  0  0  0
  3 34  1  0  0  0
  4  5  2  0  0  0
  4 22  1  0  0  0
  5  6  1  0  0  0
  5 35  1  0  0  0
  6  7  2  0  0  0
  6 36  1  0  0  0
  7  8  1  0  0  0
  8  9  1  0  0  0
  8 37  1  0  0  0
  9 13  1  0  0  0
  9 10  2  0  0  0
 10 11  1  0  0  0
 10 15  1  0  0  0
 11 12  2  0  0  0
 11 14  1  0  0  0
 12 13  1  0  0  0
 14 38  1  0  0  0
 15 16  2  0  0  0
 15 21  1  0  0  0
 16 17  1  0  0  0
 17 18  1  0  0  0
 17 19  1  0  0  0
 17 39  1  0  0  0
 18 40  1  0  0  0
 18 41  1  0  0  0
 18 42  1  0  0  0
 19 20  1  0  0  0
 19 43  1  0  0  0
 19 44  1  0  0  0
 20 45  1  0  0  0
 21 46  1  0  0  0
 21 47  1  0  0  0
 22 23  1  0  0  0
 23 28  1  0  0  0
 23 24  2  0  0  0
 24 25  1  0  0  0
 24 48  1  0  0  0
 25 26  2  0  0  0
 25 49  1  0  0  0
 26 27  1  0  0  0
 26 30  1  0  0  0
 27 28  2  0  0  0
 27 50  1  0  0  0
 28 29  1  0  0  0
M  END
> <s_m_entry_id>
66030

> <s_m_entry_name>
ligand_docking-pose.86

> <s_m_Source_Path>
/home/csk/Desktop/cluster/DUD-E-result/mp2k1

> <s_m_Source_File>
ligand_docking-pose.sdf

> <i_m_Source_File_Index>
86

> <i_lp_mmshare_version>
53161

> <r_lp_tautomer_probability>
1

> <s_lp_Force_Field>
OPLS_2005

> <r_lp_Energy>
22.04269

> <b_lp_Chiralities_Consistent>
1

> <s_lp_Variant>
363033-2

> <s_i_glide_gridfile>
glide-grid_3eqh

> <i_i_glide_lignum>
154

> <i_i_glide_rotatable_bonds>
9

> <r_i_docking_score>
-7.82704782958083

> <r_i_glide_ligand_efficiency>
-0.260901594319361

> <r_i_glide_ligand_efficiency_sa>
-0.810681913805208

> <r_i_glide_ligand_efficiency_ln>
-1.77839054939746

> <r_i_glide_gscore>
-7.82704782958083

> <r_i_glide_lipo>
-4.23579233688237

> <r_i_glide_hbond>
-0.109079021540506

> <r_i_glide_metal>
0

> <r_i_glide_rewards>
-0.787230696142266

> <r_i_glide_evdw>
-51.5584487915039

> <r_i_glide_ecoul>
-5.28401708602905

> <r_i_glide_erotb>
0.690374933437018

> <r_i_glide_esite>
-0.0147957059731462

> <r_i_glide_emodel>
-78.1981533131522

> <r_i_glide_energy>
-56.842465877533

> <r_i_glide_einternal>
15.3141078948975

> <i_i_glide_confnum>
86

> <i_i_glide_posenum>
167

> <r_i_glide_eff_state_penalty>
0

> <i_f3d_flags>
0

> <s_user_duplicate_titles>
363033

> <s_m_subgroup_title>
dock_pv

> <s_m_subgroupid>
dock_pv1

> <b_m_subgroup_collapsed>
0

$$$$
51664
                    3D
 Schrodinger Suite 2021-1.
 44 46  0  0  1  0            999 V2000
    2.1173   61.4205   32.9972 C   0  0  0  0  0  0
    1.3440   61.9482   34.0250 C   0  0  0  0  0  0
    0.3547   61.1672   34.6163 C   0  0  0  0  0  0
    0.1289   59.8488   34.1895 C   0  0  0  0  0  0
    0.9142   59.3398   33.1451 C   0  0  0  0  0  0
    1.9088   60.1165   32.5630 C   0  0  0  0  0  0
   -0.9682   59.0439   34.8350 C   0  0  0  0  0  0
   -1.6271   59.5215   35.7630 O   0  0  0  0  0  0
   -1.4051   57.7356   34.2601 C   0  0  0  0  0  0
   -0.5330   56.6460   34.1630 C   0  0  0  0  0  0
   -1.0123   55.3995   33.7628 C   0  0  0  0  0  0
   -2.3580   55.2388   33.4332 C   0  0  0  0  0  0
   -3.2474   56.3217   33.4914 C   0  0  0  0  0  0
   -2.7516   57.5608   33.9194 C   0  0  0  0  0  0
   -4.6909   56.1904   33.1410 C   0  0  0  0  0  0
   -5.1936   55.3927   32.1663 C   0  0  0  0  0  0
   -4.4638   54.6510   31.2709 N   0  0  0  0  0  0
   -6.9650   55.2439   31.8922 S   0  0  0  0  0  0
   -7.2067   53.6792   31.0771 C   0  0  0  0  0  0
   -7.7911   53.6996   29.8083 C   0  0  0  0  0  0
   -8.0301   52.5105   29.1212 C   0  0  0  0  0  0
   -7.6959   51.2903   29.7067 C   0  0  0  0  0  0
   -7.1253   51.2600   30.9792 C   0  0  0  0  0  0
   -6.8803   52.4461   31.6760 C   0  0  0  0  0  0
   -6.3296   52.3572   32.9567 N   0  0  0  0  0  0
   -5.5761   56.9790   33.9460 C   0  0  0  0  0  0
   -6.2654   57.6663   34.5741 N   0  0  0  0  0  0
    2.8848   62.0247   32.5361 H   0  0  0  0  0  0
    1.5063   62.9624   34.3597 H   0  0  0  0  0  0
   -0.2425   61.6076   35.4035 H   0  0  0  0  0  0
    0.7692   58.3486   32.7495 H   0  0  0  0  0  0
    2.5077   59.7079   31.7632 H   0  0  0  0  0  0
    0.5045   56.7424   34.4510 H   0  0  0  0  0  0
   -0.3470   54.5496   33.7278 H   0  0  0  0  0  0
   -2.7064   54.2550   33.1564 H   0  0  0  0  0  0
   -3.4219   58.4075   33.9913 H   0  0  0  0  0  0
   -3.4609   54.7475   31.2163 H   0  0  0  0  0  0
   -4.9298   54.1086   30.5586 H   0  0  0  0  0  0
   -8.0603   54.6430   29.3525 H   0  0  0  0  0  0
   -8.4811   52.5406   28.1401 H   0  0  0  0  0  0
   -7.8841   50.3664   29.1804 H   0  0  0  0  0  0
   -6.8777   50.3067   31.4228 H   0  0  0  0  0  0
   -6.2428   53.2044   33.5006 H   0  0  0  0  0  0
   -6.2347   51.4511   33.3932 H   0  0  0  0  0  0
  1  6  1  0  0  0
  1  2  2  0  0  0
  1 28  1  0  0  0
  2  3  1  0  0  0
  2 29  1  0  0  0
  3  4  2  0  0  0
  3 30  1  0  0  0
  4  5  1  0  0  0
  4  7  1  0  0  0
  5  6  2  0  0  0
  5 31  1  0  0  0
  6 32  1  0  0  0
  7  8  2  0  0  0
  7  9  1  0  0  0
  9 14  1  0  0  0
  9 10  2  0  0  0
 10 11  1  0  0  0
 10 33  1  0  0  0
 11 12  2  0  0  0
 11 34  1  0  0  0
 12 13  1  0  0  0
 12 35  1  0  0  0
 13 14  2  0  0  0
 13 15  1  0  0  0
 14 36  1  0  0  0
 15 16  2  0  0  0
 15 26  1  0  0  0
 16 17  1  0  0  0
 16 18  1  0  0  0
 17 37  1  0  0  0
 17 38  1  0  0  0
 18 19  1  0  0  0
 19 24  1  0  0  0
 19 20  2  0  0  0
 20 21  1  0  0  0
 20 39  1  0  0  0
 21 22  2  0  0  0
 21 40  1  0  0  0
 22 23  1  0  0  0
 22 41  1  0  0  0
 23 24  2  0  0  0
 23 42  1  0  0  0
 24 25  1  0  0  0
 25 43  1  0  0  0
 25 44  1  0  0  0
 26 27  3  0  0  0
M  END
> <s_m_entry_id>
66031

> <s_m_entry_name>
ligand_docking-pose.87

> <s_m_Source_Path>
/home/csk/Desktop/cluster/DUD-E-result/mp2k1

> <s_m_Source_File>
ligand_docking-pose.sdf

> <i_m_Source_File_Index>
87

> <i_lp_mmshare_version>
53161

> <r_lp_tautomer_probability>
0.499999974950001

> <s_lp_Force_Field>
OPLS_2005

> <r_lp_Energy>
34.365194

> <b_lp_Chiralities_Consistent>
1

> <s_lp_Variant>
51664-1

> <s_i_glide_gridfile>
glide-grid_3eqh

> <i_i_glide_lignum>
39

> <i_i_glide_rotatable_bonds>
5

> <r_i_docking_score>
-7.82696053158247

> <r_i_glide_ligand_efficiency>
-0.289887427095647

> <r_i_glide_ligand_efficiency_sa>
-0.86966228033152

> <r_i_glide_ligand_efficiency_ln>
-1.82198737422321

> <r_i_glide_gscore>
-7.82696053158247

> <r_i_glide_lipo>
-3.94036795439876

> <r_i_glide_hbond>
0

> <r_i_glide_metal>
0

> <r_i_glide_rewards>
-1.79449449846295

> <r_i_glide_evdw>
-47.2811431884766

> <r_i_glide_ecoul>
-2.85027360916138

> <r_i_glide_erotb>
0.699500122077282

> <r_i_glide_esite>
0

> <r_i_glide_emodel>
-70.6818795942712

> <r_i_glide_energy>
-50.1314167976379

> <r_i_glide_einternal>
5.65261030197144

> <i_i_glide_confnum>
130

> <i_i_glide_posenum>
368

> <r_i_glide_eff_state_penalty>
0

> <i_f3d_flags>
0

> <s_user_duplicate_titles>
51664

> <s_m_subgroup_title>
dock_pv

> <s_m_subgroupid>
dock_pv1

> <b_m_subgroup_collapsed>
0

$$$$
389543
                    3D
 Schrodinger Suite 2021-1.
 35 36  0  0  1  0            999 V2000
    1.5907   60.3531   32.7216 C   0  0  0  0  0  0
    0.6228   59.4378   33.1270 C   0  0  0  0  0  0
   -0.1761   59.6718   34.2502 C   0  0  0  0  0  0
    0.0073   60.8645   34.9629 C   0  0  0  0  0  0
    0.9833   61.7806   34.5620 C   0  0  0  0  0  0
    1.7708   61.5289   33.4451 C   0  0  0  0  0  0
    3.2307   62.9111   32.8630 I   0  0  0  0  0  0
   -0.7530   61.1478   36.0493 F   0  0  0  0  0  0
   -1.1552   58.7496   34.6714 N   0  0  0  0  0  0
   -1.3916   57.3987   34.3232 C   0  0  0  0  0  0
   -2.7106   56.8776   34.2735 C   0  0  0  0  0  0
   -2.9202   55.5247   33.9841 C   0  0  0  0  0  0
   -1.8499   54.6812   33.7612 C   0  0  0  0  0  0
   -0.5575   55.1769   33.8024 C   0  0  0  0  0  0
   -0.3202   56.5105   34.1227 C   0  0  0  0  0  0
    0.9634   56.9008   34.2923 F   0  0  0  0  0  0
    0.4740   54.3462   33.5887 F   0  0  0  0  0  0
   -3.9197   57.6844   34.6262 C   0  0  0  0  0  0
   -3.9260   58.3465   35.6684 O   0  0  0  0  0  0
   -4.9634   57.5573   33.7875 N   0  0  0  0  0  0
   -6.3286   58.0212   34.0393 C   0  0  0  0  0  0
   -7.2607   57.9030   32.8167 C   0  0  0  0  0  0
   -6.8400   58.7482   31.7649 O   0  0  0  0  0  0
    2.2008   60.1452   31.8534 H   0  0  0  0  0  0
    0.4926   58.5324   32.5624 H   0  0  0  0  0  0
    1.1247   62.6924   35.1218 H   0  0  0  0  0  0
   -1.9005   59.1722   35.2156 H   0  0  0  0  0  0
   -3.9158   55.1014   33.9820 H   0  0  0  0  0  0
   -2.0433   53.6387   33.5793 H   0  0  0  0  0  0
   -4.8020   57.1102   32.8935 H   0  0  0  0  0  0
   -6.3376   59.0479   34.3937 H   0  0  0  0  0  0
   -6.7365   57.4073   34.8435 H   0  0  0  0  0  0
   -8.2953   58.1187   33.0822 H   0  0  0  0  0  0
   -7.2315   56.8841   32.4298 H   0  0  0  0  0  0
   -7.1260   58.3473   30.9160 H   0  0  0  0  0  0
  1  6  1  0  0  0
  1  2  2  0  0  0
  1 24  1  0  0  0
  2  3  1  0  0  0
  2 25  1  0  0  0
  3  4  2  0  0  0
  3  9  1  0  0  0
  4  5  1  0  0  0
  4  8  1  0  0  0
  5  6  2  0  0  0
  5 26  1  0  0  0
  6  7  1  0  0  0
  9 10  1  0  0  0
  9 27  1  0  0  0
 10 15  1  0  0  0
 10 11  2  0  0  0
 11 12  1  0  0  0
 11 18  1  0  0  0
 12 13  2  0  0  0
 12 28  1  0  0  0
 13 14  1  0  0  0
 13 29  1  0  0  0
 14 15  2  0  0  0
 14 17  1  0  0  0
 15 16  1  0  0  0
 18 19  2  0  0  0
 18 20  1  0  0  0
 20 21  1  0  0  0
 20 30  1  0  0  0
 21 22  1  0  0  0
 21 31  1  0  0  0
 21 32  1  0  0  0
 22 23  1  0  0  0
 22 33  1  0  0  0
 22 34  1  0  0  0
 23 35  1  0  0  0
M  END
> <s_m_entry_id>
66032

> <s_m_entry_name>
ligand_docking-pose.88

> <s_m_Source_Path>
/home/csk/Desktop/cluster/DUD-E-result/mp2k1

> <s_m_Source_File>
ligand_docking-pose.sdf

> <i_m_Source_File_Index>
88

> <i_lp_mmshare_version>
53161

> <r_lp_tautomer_probability>
1

> <s_lp_Force_Field>
OPLS_2005

> <r_lp_Energy>
20.989327

> <b_lp_Chiralities_Consistent>
1

> <s_lp_Variant>
389543-1

> <s_i_glide_gridfile>
glide-grid_3eqh

> <i_i_glide_lignum>
42

> <i_i_glide_rotatable_bonds>
7

> <r_i_docking_score>
-7.82160036096822

> <r_i_glide_ligand_efficiency>
-0.340069580911662

> <r_i_glide_ligand_efficiency_sa>
-0.967112650995843

> <r_i_glide_ligand_efficiency_ln>
-1.89133388963304

> <r_i_glide_gscore>
-7.82160036096822

> <r_i_glide_lipo>
-3.66846280497216

> <r_i_glide_hbond>
-0.32

> <r_i_glide_metal>
0

> <r_i_glide_rewards>
-0.961943635067705

> <r_i_glide_evdw>
-35.2003173828125

> <r_i_glide_ecoul>
-11.4543943405151

> <r_i_glide_erotb>
0.628583910028487

> <r_i_glide_esite>
-0.0216028107389415

> <r_i_glide_emodel>
-72.2512537354682

> <r_i_glide_energy>
-46.6547117233276

> <r_i_glide_einternal>
6.30913352966309

> <i_i_glide_confnum>
20

> <i_i_glide_posenum>
57

> <r_i_glide_eff_state_penalty>
0

> <i_f3d_flags>
0

> <s_user_duplicate_titles>
389543

> <s_m_subgroup_title>
dock_pv

> <s_m_subgroupid>
dock_pv1

> <b_m_subgroup_collapsed>
0

$$$$
363011
                    3D
 Schrodinger Suite 2021-1.
 50 52  0  0  1  0            999 V2000
   -8.9295   58.7962   35.3432 C   0  0  0  0  0  0
   -7.9661   58.9384   34.1513 C   0  0  2  0  0  0
   -8.5289   59.8882   33.0646 C   0  0  0  0  0  0
   -7.5260   60.3480   32.1630 O   0  0  0  0  0  0
   -7.7323   57.6080   33.5986 N   0  0  0  0  0  0
   -6.5541   57.2187   33.2974 C   0  0  0  0  0  0
   -6.3891   55.8608   32.7248 C   0  0  0  0  0  0
   -7.3340   55.2865   31.8423 C   0  0  0  0  0  0
   -7.1663   54.0518   31.4326 N   0  0  0  0  0  0
   -5.7429   53.4387   32.1313 S   0  0  0  0  0  0
   -5.3584   54.9160   32.9510 C   0  0  0  0  0  0
   -4.2426   54.8854   33.7630 N   0  0  0  0  0  0
   -3.3222   55.9165   33.9622 C   0  0  0  0  0  0
   -3.1260   56.4180   35.2477 C   0  0  0  0  0  0
   -2.3440   57.5480   35.4449 C   0  0  0  0  0  0
   -1.6665   58.1238   34.3820 C   0  0  0  0  0  0
   -1.7792   57.5480   33.1057 C   0  0  0  0  0  0
   -2.6255   56.4661   32.8889 C   0  0  0  0  0  0
   -0.9812   59.2864   34.6735 O   0  0  0  0  0  0
    0.1010   59.7319   33.9534 C   0  0  0  0  0  0
    0.2918   61.1145   33.8345 C   0  0  0  0  0  0
    1.3915   61.6239   33.1288 C   0  0  0  0  0  0
    2.2937   60.7300   32.5630 C   0  0  0  0  0  0
    2.0738   59.3641   32.6181 C   0  0  0  0  0  0
    1.0170   58.8582   33.3613 C   0  0  0  0  0  0
    2.8740   58.5381   31.9236 F   0  0  0  0  0  0
    1.6202   63.1179   32.9314 C   0  0  0  0  0  0
    2.4354   63.5480   33.8857 F   0  0  0  0  0  0
    2.1977   63.3842   31.7630 F   0  0  0  0  0  0
    0.4742   63.7893   32.9630 F   0  0  0  0  0  0
   -8.4664   55.8902   31.3630 O   0  0  0  0  0  0
   -5.3737   57.9069   33.3630 N   0  0  0  0  0  0
   -9.1258   59.7640   35.8078 H   0  0  0  0  0  0
   -9.8889   58.3762   35.0370 H   0  0  0  0  0  0
   -8.5122   58.1459   36.1127 H   0  0  0  0  0  0
   -7.0642   59.3925   34.5582 H   0  0  0  0  0  0
   -8.9654   60.7480   33.5586 H   0  0  0  0  0  0
   -9.3392   59.4144   32.5085 H   0  0  0  0  0  0
   -7.2139   59.5576   31.7019 H   0  0  0  0  0  0
   -4.2676   54.2463   34.5452 H   0  0  0  0  0  0
   -3.6006   55.9699   36.1023 H   0  0  0  0  0  0
   -2.2493   57.9707   36.4342 H   0  0  0  0  0  0
   -1.2497   57.9480   32.2568 H   0  0  0  0  0  0
   -2.7481   56.0716   31.8899 H   0  0  0  0  0  0
   -0.4278   61.7832   34.2876 H   0  0  0  0  0  0
    3.1647   61.0946   32.0479 H   0  0  0  0  0  0
    0.8891   57.7890   33.4280 H   0  0  0  0  0  0
   -8.2081   56.5884   30.7415 H   0  0  0  0  0  0
   -5.3551   58.8782   33.6237 H   0  0  0  0  0  0
   -4.5191   57.4617   33.0606 H   0  0  0  0  0  0
  1  2  1  0  0  0
  1 33  1  0  0  0
  1 34  1  0  0  0
  1 35  1  0  0  0
  2  3  1  0  0  0
  2  5  1  0  0  0
  2 36  1  0  0  0
  3  4  1  0  0  0
  3 37  1  0  0  0
  3 38  1  0  0  0
  4 39  1  0  0  0
  5  6  2  0  0  0
  6  7  1  0  0  0
  6 32  1  0  0  0
  7 11  2  0  0  0
  7  8  1  0  0  0
  8  9  2  0  0  0
  8 31  1  0  0  0
  9 10  1  0  0  0
 10 11  1  0  0  0
 11 12  1  0  0  0
 12 13  1  0  0  0
 12 40  1  0  0  0
 13 18  1  0  0  0
 13 14  2  0  0  0
 14 15  1  0  0  0
 14 41  1  0  0  0
 15 16  2  0  0  0
 15 42  1  0  0  0
 16 17  1  0  0  0
 16 19  1  0  0  0
 17 18  2  0  0  0
 17 43  1  0  0  0
 18 44  1  0  0  0
 19 20  1  0  0  0
 20 25  1  0  0  0
 20 21  2  0  0  0
 21 22  1  0  0  0
 21 45  1  0  0  0
 22 23  2  0  0  0
 22 27  1  0  0  0
 23 24  1  0  0  0
 23 46  1  0  0  0
 24 25  2  0  0  0
 24 26  1  0  0  0
 25 47  1  0  0  0
 27 28  1  0  0  0
 27 29  1  0  0  0
 27 30  1  0  0  0
 31 48  1  0  0  0
 32 49  1  0  0  0
 32 50  1  0  0  0
M  END
> <s_m_entry_id>
66033

> <s_m_entry_name>
ligand_docking-pose.89

> <s_m_Source_Path>
/home/csk/Desktop/cluster/DUD-E-result/mp2k1

> <s_m_Source_File>
ligand_docking-pose.sdf

> <i_m_Source_File_Index>
89

> <i_lp_mmshare_version>
53161

> <r_lp_tautomer_probability>
1

> <s_lp_Force_Field>
OPLS_2005

> <r_lp_Energy>
24.250505

> <b_lp_Chiralities_Consistent>
1

> <s_lp_Variant>
363011-1

> <s_i_glide_gridfile>
glide-grid_3eqh

> <i_i_glide_lignum>
261

> <i_i_glide_rotatable_bonds>
10

> <r_i_docking_score>
-7.81938312552849

> <r_i_glide_ligand_efficiency>
-0.244355722672765

> <r_i_glide_ligand_efficiency_sa>
-0.775781061554177

> <r_i_glide_ligand_efficiency_ln>
-1.75097303013961

> <r_i_glide_gscore>
-7.81938312552849

> <r_i_glide_lipo>
-3.98810955906703

> <r_i_glide_hbond>
-0.16

> <r_i_glide_metal>
0

> <r_i_glide_rewards>
-0.710911378919929

> <r_i_glide_evdw>
-40.0608367919922

> <r_i_glide_ecoul>
-10.4255599975586

> <r_i_glide_erotb>
0.639068381884558

> <r_i_glide_esite>
-0.0325547301926938

> <r_i_glide_emodel>
-72.4140628219409

> <r_i_glide_energy>
-50.4863967895508

> <r_i_glide_einternal>
14.2614240646362

> <i_i_glide_confnum>
133

> <i_i_glide_posenum>
291

> <r_i_glide_eff_state_penalty>
0

> <i_f3d_flags>
0

> <s_user_duplicate_titles>
363011

> <s_m_subgroup_title>
dock_pv

> <s_m_subgroupid>
dock_pv1

> <b_m_subgroup_collapsed>
0

$$$$
353919
                    3D
 Schrodinger Suite 2021-1.
 51 53  0  0  1  0            999 V2000
    3.1122   62.7218   32.7212 C   0  0  0  0  0  0
    2.0810   61.7067   33.1842 C   0  0  0  0  0  0
    2.0081   60.4540   32.5839 C   0  0  0  0  0  0
    1.0679   59.5270   33.0196 C   0  0  0  0  0  0
    0.1689   59.8214   34.0500 C   0  0  0  0  0  0
    0.2316   61.0969   34.6465 C   0  0  0  0  0  0
    1.2030   62.0121   34.2216 C   0  0  0  0  0  0
   -0.7250   61.5202   35.7623 C   0  0  0  0  0  0
   -0.8450   58.9258   34.4448 N   0  0  0  0  0  0
   -1.0722   57.5757   34.2263 C   0  0  0  0  0  0
   -2.2864   56.8995   34.3610 C   0  0  0  0  0  0
   -2.1303   55.5285   34.0879 C   0  0  0  0  0  0
   -0.9400   55.0867   33.7634 N   0  0  0  0  0  0
    0.1331   56.4110   33.7633 S   0  0  0  0  0  0
   -3.1189   54.5833   34.1486 O   0  0  0  0  0  0
   -3.5418   57.5453   34.7207 C   0  0  0  0  0  0
   -3.5489   58.2115   35.7914 N   0  0  0  0  0  0
   -4.5096   57.3600   33.7540 N   0  0  0  0  0  0
   -5.7446   58.1314   33.7586 C   0  0  0  0  0  0
   -6.6528   57.8593   32.5389 C   0  0  0  0  0  0
   -7.2382   56.4247   32.5011 C   0  0  0  0  0  0
   -8.2760   56.1906   33.6200 C   0  0  0  0  0  0
   -9.4009   57.2511   33.5864 C   0  0  0  0  0  0
   -8.8602   58.6995   33.5477 C   0  0  0  0  0  0
   -7.8135   58.8824   32.4251 C   0  0  0  0  0  0
    3.2673   63.5098   33.4600 H   0  0  0  0  0  0
    4.0778   62.2404   32.5646 H   0  0  0  0  0  0
    2.8080   63.1760   31.7775 H   0  0  0  0  0  0
    2.6719   60.1907   31.7740 H   0  0  0  0  0  0
    1.0344   58.5913   32.5043 H   0  0  0  0  0  0
    1.2702   62.9822   34.6864 H   0  0  0  0  0  0
   -0.3269   62.3472   36.3486 H   0  0  0  0  0  0
   -1.6840   61.8379   35.3628 H   0  0  0  0  0  0
   -0.9007   60.7063   36.4648 H   0  0  0  0  0  0
   -1.5888   59.4430   34.8949 H   0  0  0  0  0  0
   -3.9208   54.9681   34.5091 H   0  0  0  0  0  0
   -2.6606   58.1258   36.2653 H   0  0  0  0  0  0
   -4.1953   57.0856   32.8331 H   0  0  0  0  0  0
   -5.4888   59.1881   33.7733 H   0  0  0  0  0  0
   -6.2814   57.9477   34.6901 H   0  0  0  0  0  0
   -6.0525   57.9743   31.6329 H   0  0  0  0  0  0
   -6.4391   55.6870   32.5910 H   0  0  0  0  0  0
   -7.7091   56.2470   31.5333 H   0  0  0  0  0  0
   -7.7843   56.2089   34.5925 H   0  0  0  0  0  0
   -8.7045   55.1911   33.5234 H   0  0  0  0  0  0
  -10.0562   57.1200   34.4480 H   0  0  0  0  0  0
  -10.0192   57.0803   32.7034 H   0  0  0  0  0  0
   -8.4211   58.9539   34.5132 H   0  0  0  0  0  0
   -9.6857   59.4008   33.4050 H   0  0  0  0  0  0
   -8.3035   58.7830   31.4542 H   0  0  0  0  0  0
   -7.4219   59.9005   32.4628 H   0  0  0  0  0  0
  1  2  1  0  0  0
  1 26  1  0  0  0
  1 27  1  0  0  0
  1 28  1  0  0  0
  2  7  1  0  0  0
  2  3  2  0  0  0
  3  4  1  0  0  0
  3 29  1  0  0  0
  4  5  2  0  0  0
  4 30  1  0  0  0
  5  6  1  0  0  0
  5  9  1  0  0  0
  6  7  2  0  0  0
  6  8  1  0  0  0
  7 31  1  0  0  0
  8 32  1  0  0  0
  8 33  1  0  0  0
  8 34  1  0  0  0
  9 10  1  0  0  0
  9 35  1  0  0  0
 10 14  1  0  0  0
 10 11  2  0  0  0
 11 12  1  0  0  0
 11 16  1  0  0  0
 12 13  2  0  0  0
 12 15  1  0  0  0
 13 14  1  0  0  0
 15 36  1  0  0  0
 16 17  2  3  0  0
 16 18  1  0  0  0
 17 37  1  0  0  0
 18 19  1  0  0  0
 18 38  1  0  0  0
 19 20  1  0  0  0
 19 39  1  0  0  0
 19 40  1  0  0  0
 20 25  1  0  0  0
 20 21  1  0  0  0
 20 41  1  0  0  0
 21 22  1  0  0  0
 21 42  1  0  0  0
 21 43  1  0  0  0
 22 23  1  0  0  0
 22 44  1  0  0  0
 22 45  1  0  0  0
 23 24  1  0  0  0
 23 46  1  0  0  0
 23 47  1  0  0  0
 24 25  1  0  0  0
 24 48  1  0  0  0
 24 49  1  0  0  0
 25 50  1  0  0  0
 25 51  1  0  0  0
M  END
> <s_m_entry_id>
66034

> <s_m_entry_name>
ligand_docking-pose.90

> <s_m_Source_Path>
/home/csk/Desktop/cluster/DUD-E-result/mp2k1

> <s_m_Source_File>
ligand_docking-pose.sdf

> <i_m_Source_File_Index>
90

> <i_lp_mmshare_version>
53161

> <r_lp_tautomer_probability>
1

> <s_lp_Force_Field>
OPLS_2005

> <r_lp_Energy>
23.043965

> <b_lp_Chiralities_Consistent>
1

> <s_lp_Variant>
353919-2

> <s_i_glide_gridfile>
glide-grid_3eqh

> <i_i_glide_lignum>
149

> <i_i_glide_rotatable_bonds>
7

> <r_i_docking_score>
-7.81933784309688

> <r_i_glide_ligand_efficiency>
-0.312773513723875

> <r_i_glide_ligand_efficiency_sa>
-0.914555301190496

> <r_i_glide_ligand_efficiency_ln>
-1.85341739546012

> <r_i_glide_gscore>
-7.81933784309688

> <r_i_glide_lipo>
-3.76345089681445

> <r_i_glide_hbond>
-0.16

> <r_i_glide_metal>
0

> <r_i_glide_rewards>
-1.46861685556722

> <r_i_glide_evdw>
-44.647102355957

> <r_i_glide_ecoul>
-6.26778268814087

> <r_i_glide_erotb>
0.745252430303765

> <r_i_glide_esite>
0

> <r_i_glide_emodel>
-72.6707804840696

> <r_i_glide_energy>
-50.9148850440979

> <r_i_glide_einternal>
3.19964075088501

> <i_i_glide_confnum>
101

> <i_i_glide_posenum>
5

> <r_i_glide_eff_state_penalty>
0

> <i_f3d_flags>
0

> <s_user_duplicate_titles>
353919

> <s_m_subgroup_title>
dock_pv

> <s_m_subgroupid>
dock_pv1

> <b_m_subgroup_collapsed>
0

$$$$
337818
                    3D
 Schrodinger Suite 2021-1.
 49 52  0  0  1  0            999 V2000
   -5.3614   58.3476   34.8569 C   0  0  0  0  0  0
   -5.5025   57.5590   33.6241 C   0  0  0  0  0  0
   -6.4226   57.7060   32.6005 C   0  0  0  0  0  0
   -6.2612   56.5998   31.7682 C   0  0  0  0  0  0
   -5.0402   56.0313   32.0330 N   0  0  0  0  0  0
   -4.5436   56.6312   33.1974 C   0  0  0  0  0  0
   -3.2895   56.2091   33.6627 C   0  0  0  0  0  0
   -2.6393   55.1917   32.9626 C   0  0  0  0  0  0
   -3.2224   54.7022   31.7914 C   0  0  0  0  0  0
   -4.4332   55.0787   31.3114 N   0  0  0  0  0  0
   -1.3447   54.7075   33.4124 C   0  0  0  0  0  0
   -0.3048   54.3480   33.7631 N   0  0  0  0  0  0
   -2.7259   56.8481   34.7821 N   0  0  0  0  0  0
   -1.7730   57.8739   34.7172 C   0  0  0  0  0  0
   -0.8126   57.9325   33.7000 C   0  0  0  0  0  0
    0.2206   58.8565   33.7621 C   0  0  0  0  0  0
    0.2545   59.7701   34.8098 C   0  0  0  0  0  0
   -0.7593   59.7902   35.7627 C   0  0  0  0  0  0
   -1.7558   58.8197   35.7389 C   0  0  0  0  0  0
    1.3448   60.5737   34.9971 O   0  0  0  0  0  0
    1.6620   61.6172   34.1638 C   0  0  0  0  0  0
    0.9551   61.9726   33.0095 C   0  0  0  0  0  0
    1.3796   63.0682   32.2615 C   0  0  0  0  0  0
    2.4902   63.7975   32.6654 C   0  0  0  0  0  0
    3.2103   63.4346   33.7940 C   0  0  0  0  0  0
    2.7765   62.3497   34.5484 C   0  0  0  0  0  0
   -7.4185   58.7478   32.5630 C   0  0  0  0  0  0
   -7.1558   59.8802   32.1319 O   0  0  0  0  0  0
   -8.5490   58.4189   33.2012 N   0  0  0  0  0  0
   -9.5916   59.3807   33.5251 C   0  0  0  0  0  0
   -4.9710   57.7815   35.7003 H   0  0  0  0  0  0
   -4.6298   59.1055   34.5630 H   0  0  0  0  0  0
   -6.3262   58.7480   35.1631 H   0  0  0  0  0  0
   -6.8569   56.2796   30.9373 H   0  0  0  0  0  0
   -2.7257   53.9481   31.1978 H   0  0  0  0  0  0
   -2.4237   56.1624   35.4595 H   0  0  0  0  0  0
   -0.8142   57.2400   32.8753 H   0  0  0  0  0  0
    1.0045   58.8438   33.0187 H   0  0  0  0  0  0
   -0.7287   60.5146   36.5622 H   0  0  0  0  0  0
   -2.4971   58.7934   36.5235 H   0  0  0  0  0  0
    0.0877   61.4098   32.7043 H   0  0  0  0  0  0
    0.8739   63.3645   31.3633 H   0  0  0  0  0  0
    2.8065   64.6565   32.0998 H   0  0  0  0  0  0
    4.0730   64.0104   34.0969 H   0  0  0  0  0  0
    3.2740   62.0626   35.4571 H   0  0  0  0  0  0
   -8.7214   57.4486   33.4187 H   0  0  0  0  0  0
  -10.1868   59.0159   34.3606 H   0  0  0  0  0  0
  -10.2439   59.5357   32.6681 H   0  0  0  0  0  0
   -9.1751   60.3474   33.8135 H   0  0  0  0  0  0
  1  2  1  0  0  0
  1 31  1  0  0  0
  1 32  1  0  0  0
  1 33  1  0  0  0
  2  6  2  0  0  0
  2  3  1  0  0  0
  3  4  2  0  0  0
  3 27  1  0  0  0
  4  5  1  0  0  0
  4 34  1  0  0  0
  5 10  1  0  0  0
  5  6  1  0  0  0
  6  7  1  0  0  0
  7  8  2  0  0  0
  7 13  1  0  0  0
  8  9  1  0  0  0
  8 11  1  0  0  0
  9 10  2  0  0  0
  9 35  1  0  0  0
 11 12  3  0  0  0
 13 14  1  0  0  0
 13 36  1  0  0  0
 14 19  1  0  0  0
 14 15  2  0  0  0
 15 16  1  0  0  0
 15 37  1  0  0  0
 16 17  2  0  0  0
 16 38  1  0  0  0
 17 18  1  0  0  0
 17 20  1  0  0  0
 18 19  2  0  0  0
 18 39  1  0  0  0
 19 40  1  0  0  0
 20 21  1  0  0  0
 21 26  1  0  0  0
 21 22  2  0  0  0
 22 23  1  0  0  0
 22 41  1  0  0  0
 23 24  2  0  0  0
 23 42  1  0  0  0
 24 25  1  0  0  0
 24 43  1  0  0  0
 25 26  2  0  0  0
 25 44  1  0  0  0
 26 45  1  0  0  0
 27 28  2  0  0  0
 27 29  1  0  0  0
 29 30  1  0  0  0
 29 46  1  0  0  0
 30 47  1  0  0  0
 30 48  1  0  0  0
 30 49  1  0  0  0
M  END
> <s_m_entry_id>
66035

> <s_m_entry_name>
ligand_docking-pose.91

> <s_m_Source_Path>
/home/csk/Desktop/cluster/DUD-E-result/mp2k1

> <s_m_Source_File>
ligand_docking-pose.sdf

> <i_m_Source_File_Index>
91

> <i_lp_mmshare_version>
53161

> <r_lp_tautomer_probability>
1

> <s_lp_Force_Field>
OPLS_2005

> <r_lp_Energy>
28.907229

> <b_lp_Chiralities_Consistent>
1

> <s_lp_Variant>
337818-1

> <s_i_glide_gridfile>
glide-grid_3eqh

> <i_i_glide_lignum>
167

> <i_i_glide_rotatable_bonds>
6

> <r_i_docking_score>
-7.8039258272316

> <r_i_glide_ligand_efficiency>
-0.26013086090772

> <r_i_glide_ligand_efficiency_sa>
-0.808287065897848

> <r_i_glide_ligand_efficiency_ln>
-1.77313697852932

> <r_i_glide_gscore>
-7.8039258272316

> <r_i_glide_lipo>
-4.05868483591857

> <r_i_glide_hbond>
0

> <r_i_glide_metal>
0

> <r_i_glide_rewards>
-1.099306376065

> <r_i_glide_evdw>
-47.7309265136719

> <r_i_glide_ecoul>
-5.53019905090332

> <r_i_glide_erotb>
0.619647815063

> <r_i_glide_esite>
-0.0495062469919364

> <r_i_glide_emodel>
-71.3690324258645

> <r_i_glide_energy>
-53.2611255645752

> <r_i_glide_einternal>
17.6248645782471

> <i_i_glide_confnum>
13

> <i_i_glide_posenum>
302

> <r_i_glide_eff_state_penalty>
0

> <i_f3d_flags>
0

> <s_user_duplicate_titles>
337818

> <s_m_subgroup_title>
dock_pv

> <s_m_subgroupid>
dock_pv1

> <b_m_subgroup_collapsed>
0

$$$$
363043
                    3D
 Schrodinger Suite 2021-1.
 48 50  0  0  1  0            999 V2000
   -3.2568   55.9507   32.2290 C   0  0  0  0  0  0
   -2.0816   56.6219   32.5649 C   0  0  0  0  0  0
   -1.2277   56.0944   33.5404 C   0  0  0  0  0  0
   -1.5562   54.8942   34.1650 C   0  0  0  0  0  0
   -2.7691   54.2739   33.8962 C   0  0  0  0  0  0
   -3.6111   54.7829   32.9126 C   0  0  0  0  0  0
   -4.8272   54.1277   32.6862 N   0  0  0  0  0  0
   -5.4770   53.9804   31.4816 C   0  0  0  0  0  0
   -6.7973   54.2798   31.1554 C   0  0  0  0  0  0
   -7.0741   53.8300   29.8483 C   0  0  0  0  0  0
   -6.1160   53.2391   29.1673 N   0  0  0  0  0  0
   -4.6912   53.2725   30.1046 S   0  0  0  0  0  0
   -8.2732   53.9454   29.2000 O   0  0  0  0  0  0
   -7.7336   54.9811   32.0432 C   0  0  0  0  0  0
   -7.2890   56.0301   32.6152 N   0  0  0  0  0  0
   -8.1355   56.8123   33.5047 C   0  0  0  0  0  0
   -8.4171   58.2196   32.9221 C   0  0  1  0  0  0
   -7.1548   59.0336   32.5433 C   0  0  0  0  0  0
   -7.5260   60.3479   32.1694 O   0  0  0  0  0  0
   -9.2259   58.0788   31.7664 O   0  0  0  0  0  0
   -8.9572   54.3504   32.0983 N   0  0  0  0  0  0
   -0.0505   56.7060   33.9146 O   0  0  0  0  0  0
    0.0196   58.0751   34.0688 C   0  0  0  0  0  0
    1.0216   58.7481   33.3642 C   0  0  0  0  0  0
    1.1776   60.1286   33.4848 C   0  0  0  0  0  0
    0.3490   60.8481   34.3455 C   0  0  0  0  0  0
   -0.6374   60.1842   35.0743 C   0  0  0  0  0  0
   -0.8090   58.8052   34.9415 C   0  0  0  0  0  0
   -2.0615   58.0523   35.8674 Cl  0  0  0  0  0  0
    2.3845   60.9476   32.5641 Cl  0  0  0  0  0  0
   -3.9171   56.3697   31.4825 H   0  0  0  0  0  0
   -1.8293   57.5449   32.0753 H   0  0  0  0  0  0
   -0.8962   54.4605   34.9009 H   0  0  0  0  0  0
   -3.0357   53.3755   34.4345 H   0  0  0  0  0  0
   -5.2959   53.8646   33.5412 H   0  0  0  0  0  0
   -8.8046   54.6185   29.6344 H   0  0  0  0  0  0
   -7.6147   56.9169   34.4562 H   0  0  0  0  0  0
   -9.0825   56.3279   33.7579 H   0  0  0  0  0  0
   -9.0019   58.7833   33.6518 H   0  0  0  0  0  0
   -6.6197   58.5684   31.7151 H   0  0  0  0  0  0
   -6.4601   59.0886   33.3816 H   0  0  0  0  0  0
   -8.4383   60.2881   31.8557 H   0  0  0  0  0  0
   -8.6751   57.6731   31.0777 H   0  0  0  0  0  0
   -9.6768   54.7048   32.7086 H   0  0  0  0  0  0
   -9.0804   53.4448   31.6722 H   0  0  0  0  0  0
    1.6675   58.1951   32.6974 H   0  0  0  0  0  0
    0.4601   61.9181   34.4450 H   0  0  0  0  0  0
   -1.2837   60.7505   35.7291 H   0  0  0  0  0  0
  1  6  1  0  0  0
  1  2  2  0  0  0
  1 31  1  0  0  0
  2  3  1  0  0  0
  2 32  1  0  0  0
  3  4  2  0  0  0
  3 22  1  0  0  0
  4  5  1  0  0  0
  4 33  1  0  0  0
  5  6  2  0  0  0
  5 34  1  0  0  0
  6  7  1  0  0  0
  7  8  1  0  0  0
  7 35  1  0  0  0
  8 12  1  0  0  0
  8  9  2  0  0  0
  9 10  1  0  0  0
  9 14  1  0  0  0
 10 11  2  0  0  0
 10 13  1  0  0  0
 11 12  1  0  0  0
 13 36  1  0  0  0
 14 15  2  0  0  0
 14 21  1  0  0  0
 15 16  1  0  0  0
 16 17  1  0  0  0
 16 37  1  0  0  0
 16 38  1  0  0  0
 17 18  1  0  0  0
 17 20  1  0  0  0
 17 39  1  0  0  0
 18 19  1  0  0  0
 18 40  1  0  0  0
 18 41  1  0  0  0
 19 42  1  0  0  0
 20 43  1  0  0  0
 21 44  1  0  0  0
 21 45  1  0  0  0
 22 23  1  0  0  0
 23 28  1  0  0  0
 23 24  2  0  0  0
 24 25  1  0  0  0
 24 46  1  0  0  0
 25 26  2  0  0  0
 25 30  1  0  0  0
 26 27  1  0  0  0
 26 47  1  0  0  0
 27 28  2  0  0  0
 27 48  1  0  0  0
 28 29  1  0  0  0
M  END
> <s_m_entry_id>
66036

> <s_m_entry_name>
ligand_docking-pose.92

> <s_m_Source_Path>
/home/csk/Desktop/cluster/DUD-E-result/mp2k1

> <s_m_Source_File>
ligand_docking-pose.sdf

> <i_m_Source_File_Index>
92

> <i_lp_mmshare_version>
53161

> <r_lp_tautomer_probability>
1

> <s_lp_Force_Field>
OPLS_2005

> <r_lp_Energy>
29.890192

> <b_lp_Chiralities_Consistent>
1

> <s_lp_Variant>
363043-2

> <s_i_glide_gridfile>
glide-grid_3eqh

> <i_i_glide_lignum>
53

> <i_i_glide_rotatable_bonds>
11

> <r_i_docking_score>
-7.79444935786516

> <r_i_glide_ligand_efficiency>
-0.259814978595505

> <r_i_glide_ligand_efficiency_sa>
-0.807305546110392

> <r_i_glide_ligand_efficiency_ln>
-1.77098382143486

> <r_i_glide_gscore>
-7.79444935786516

> <r_i_glide_lipo>
-3.66336124004419

> <r_i_glide_hbond>
0

> <r_i_glide_metal>
0

> <r_i_glide_rewards>
-0.359031681818181

> <r_i_glide_evdw>
-51.4458312988281

> <r_i_glide_ecoul>
-11.3478984832764

> <r_i_glide_erotb>
0.513442051873581

> <r_i_glide_esite>
-0.0110221504435104

> <r_i_glide_emodel>
-88.5204394919798

> <r_i_glide_energy>
-62.7937297821045

> <r_i_glide_einternal>
16.7288284301758

> <i_i_glide_confnum>
10

> <i_i_glide_posenum>
61

> <r_i_glide_eff_state_penalty>
0

> <i_f3d_flags>
0

> <s_user_duplicate_titles>
363043

> <s_m_subgroup_title>
dock_pv

> <s_m_subgroupid>
dock_pv1

> <b_m_subgroup_collapsed>
0

$$$$
396333
                    3D
 Schrodinger Suite 2021-1.
 36 37  0  0  1  0            999 V2000
   -7.0330   56.9844   34.2810 C   0  0  0  0  0  0
   -6.0392   57.9480   34.9370 C   0  0  0  0  0  0
   -4.7263   57.5653   34.5627 O   0  0  0  0  0  0
   -3.5905   57.9542   35.2191 C   0  0  0  0  0  0
   -3.5260   58.6815   36.2089 O   0  0  0  0  0  0
   -2.4032   57.3901   34.6339 C   0  0  0  0  0  0
   -2.4590   56.0799   34.3693 C   0  0  0  0  0  0
   -1.3796   55.3133   34.1227 N   0  0  0  0  0  0
   -0.1047   55.8141   34.1098 C   0  0  0  0  0  0
    0.8740   55.1590   33.7630 O   0  0  0  0  0  0
   -0.0093   57.2209   34.4628 C   0  0  0  0  0  0
   -1.0858   58.0408   34.6136 C   0  0  0  0  0  0
   -0.9576   59.4155   34.6169 N   0  0  0  0  0  0
    0.0832   60.1896   34.0753 C   0  0  0  0  0  0
    0.8740   59.7252   33.0166 C   0  0  0  0  0  0
    1.9639   60.4556   32.5630 C   0  0  0  0  0  0
    2.2594   61.6868   33.1420 C   0  0  0  0  0  0
    1.4403   62.1874   34.1463 C   0  0  0  0  0  0
    0.3519   61.4488   34.6129 C   0  0  0  0  0  0
   -0.4329   61.9480   35.5961 F   0  0  0  0  0  0
    3.9386   62.7857   32.5630 I   0  0  0  0  0  0
   -1.5469   53.9480   33.7630 C   0  0  0  0  0  0
   -8.0561   57.2222   34.5724 H   0  0  0  0  0  0
   -6.8375   55.9500   34.5630 H   0  0  0  0  0  0
   -6.9757   57.0442   33.1933 H   0  0  0  0  0  0
   -6.2459   58.9498   34.5630 H   0  0  0  0  0  0
   -6.1710   57.9480   36.0188 H   0  0  0  0  0  0
   -3.3511   55.4777   34.5070 H   0  0  0  0  0  0
    0.9918   57.6198   34.4666 H   0  0  0  0  0  0
   -1.7665   59.9753   34.8630 H   0  0  0  0  0  0
    0.6711   58.7706   32.5630 H   0  0  0  0  0  0
    2.5737   60.0340   31.7825 H   0  0  0  0  0  0
    1.6740   63.1480   34.5630 H   0  0  0  0  0  0
   -2.4746   53.5289   34.1555 H   0  0  0  0  0  0
   -1.5723   53.9297   32.6733 H   0  0  0  0  0  0
   -0.7261   53.3431   34.1630 H   0  0  0  0  0  0
  1  2  1  0  0  0
  1 23  1  0  0  0
  1 24  1  0  0  0
  1 25  1  0  0  0
  2  3  1  0  0  0
  2 26  1  0  0  0
  2 27  1  0  0  0
  3  4  1  0  0  0
  4  5  2  0  0  0
  4  6  1  0  0  0
  6 12  1  0  0  0
  6  7  2  0  0  0
  7  8  1  0  0  0
  7 28  1  0  0  0
  8  9  1  0  0  0
  8 22  1  0  0  0
  9 10  2  0  0  0
  9 11  1  0  0  0
 11 12  2  0  0  0
 11 29  1  0  0  0
 12 13  1  0  0  0
 13 14  1  0  0  0
 13 30  1  0  0  0
 14 19  1  0  0  0
 14 15  2  0  0  0
 15 16  1  0  0  0
 15 31  1  0  0  0
 16 17  2  0  0  0
 16 32  1  0  0  0
 17 18  1  0  0  0
 17 21  1  0  0  0
 18 19  2  0  0  0
 18 33  1  0  0  0
 19 20  1  0  0  0
 22 34  1  0  0  0
 22 35  1  0  0  0
 22 36  1  0  0  0
M  END
> <s_m_entry_id>
66037

> <s_m_entry_name>
ligand_docking-pose.93

> <s_m_Source_Path>
/home/csk/Desktop/cluster/DUD-E-result/mp2k1

> <s_m_Source_File>
ligand_docking-pose.sdf

> <i_m_Source_File_Index>
93

> <i_lp_mmshare_version>
53161

> <r_lp_tautomer_probability>
1

> <s_lp_Force_Field>
OPLS_2005

> <r_lp_Energy>
32.572049

> <b_lp_Chiralities_Consistent>
1

> <s_lp_Variant>
396333-1

> <s_i_glide_gridfile>
glide-grid_3eqh

> <i_i_glide_lignum>
319

> <i_i_glide_rotatable_bonds>
5

> <r_i_docking_score>
-7.78971633150523

> <r_i_glide_ligand_efficiency>
-0.354078015068419

> <r_i_glide_ligand_efficiency_sa>
-0.992140523319853

> <r_i_glide_ligand_efficiency_ln>
-1.90409080822681

> <r_i_glide_gscore>
-7.78971633150523

> <r_i_glide_lipo>
-3.47902945270504

> <r_i_glide_hbond>
-0.671983669830366

> <r_i_glide_metal>
0

> <r_i_glide_rewards>
-1.06416045725178

> <r_i_glide_evdw>
-29.8223667144775

> <r_i_glide_ecoul>
-10.1564741134644

> <r_i_glide_erotb>
0.456175688924734

> <r_i_glide_esite>
-0.0161289878992409

> <r_i_glide_emodel>
-39.3158939007033

> <r_i_glide_energy>
-39.9788408279419

> <r_i_glide_einternal>
15.7450075149536

> <i_i_glide_confnum>
7

> <i_i_glide_posenum>
231

> <r_i_glide_eff_state_penalty>
0

> <i_f3d_flags>
0

> <s_user_duplicate_titles>
396333

> <s_m_subgroup_title>
dock_pv

> <s_m_subgroupid>
dock_pv1

> <b_m_subgroup_collapsed>
0

$$$$
363009
                    3D
 Schrodinger Suite 2021-1.
 50 52  0  0  1  0            999 V2000
   -7.0816   58.7451   34.5618 C   0  0  0  0  0  0
   -7.9785   58.3795   33.3677 C   0  0  1  0  0  0
   -8.2895   59.6195   32.4806 C   0  0  0  0  0  0
   -7.1261   60.3476   32.1058 O   0  0  0  0  0  0
   -7.3571   57.3261   32.5630 N   0  0  0  0  0  0
   -7.4054   56.1106   32.9600 C   0  0  0  0  0  0
   -6.8537   55.0716   32.0881 C   0  0  0  0  0  0
   -7.4636   54.6538   30.8923 C   0  0  0  0  0  0
   -6.9223   53.6740   30.2055 N   0  0  0  0  0  0
   -5.5248   53.1536   31.0267 S   0  0  0  0  0  0
   -5.7182   54.2919   32.3205 C   0  0  0  0  0  0
   -4.8257   54.2605   33.3631 N   0  0  0  0  0  0
   -3.6316   54.9934   33.4232 C   0  0  0  0  0  0
   -2.5462   54.4174   34.0856 C   0  0  0  0  0  0
   -1.3305   55.0920   34.1605 C   0  0  0  0  0  0
   -1.2058   56.3741   33.6278 C   0  0  0  0  0  0
   -2.2954   56.9522   32.9650 C   0  0  0  0  0  0
   -3.5007   56.2620   32.8505 C   0  0  0  0  0  0
   -0.0015   57.0418   33.7645 O   0  0  0  0  0  0
    0.0110   58.3577   34.1953 C   0  0  0  0  0  0
   -0.8527   58.7754   35.2163 C   0  0  0  0  0  0
   -0.8986   60.1084   35.6018 C   0  0  0  0  0  0
   -0.0937   61.0430   34.9630 C   0  0  0  0  0  0
    0.7955   60.6598   33.9521 C   0  0  0  0  0  0
    0.8764   59.2951   33.5993 C   0  0  0  0  0  0
    2.0338   58.7480   32.4295 Cl  0  0  0  0  0  0
    1.6375   61.7518   33.2759 C   0  0  0  0  0  0
    2.8684   61.3615   32.9631 F   0  0  0  0  0  0
    1.0119   62.1289   32.1628 F   0  0  0  0  0  0
    1.7732   62.8208   34.0584 F   0  0  0  0  0  0
   -8.6271   55.1479   30.3742 O   0  0  0  0  0  0
   -7.9260   55.5392   34.0982 N   0  0  0  0  0  0
   -7.5257   59.5604   35.1339 H   0  0  0  0  0  0
   -6.9373   57.9065   35.2432 H   0  0  0  0  0  0
   -6.1002   59.0490   34.1939 H   0  0  0  0  0  0
   -8.9407   58.0351   33.7573 H   0  0  0  0  0  0
   -8.9527   60.3036   33.0134 H   0  0  0  0  0  0
   -8.8178   59.3119   31.5778 H   0  0  0  0  0  0
   -6.5193   59.6871   31.7439 H   0  0  0  0  0  0
   -4.7912   53.4345   33.9416 H   0  0  0  0  0  0
   -2.6305   53.4350   34.5267 H   0  0  0  0  0  0
   -0.4830   54.6209   34.6328 H   0  0  0  0  0  0
   -2.2070   57.9444   32.5521 H   0  0  0  0  0  0
   -4.3316   56.7240   32.3358 H   0  0  0  0  0  0
   -1.5044   58.0643   35.7022 H   0  0  0  0  0  0
   -1.5791   60.4285   36.3760 H   0  0  0  0  0  0
   -0.1799   62.0785   35.2593 H   0  0  0  0  0  0
   -8.4700   56.0803   30.1626 H   0  0  0  0  0  0
   -8.3566   56.1113   34.8075 H   0  0  0  0  0  0
   -7.8135   54.5505   34.2618 H   0  0  0  0  0  0
  1  2  1  0  0  0
  1 33  1  0  0  0
  1 34  1  0  0  0
  1 35  1  0  0  0
  2  3  1  0  0  0
  2  5  1  0  0  0
  2 36  1  0  0  0
  3  4  1  0  0  0
  3 37  1  0  0  0
  3 38  1  0  0  0
  4 39  1  0  0  0
  5  6  2  0  0  0
  6  7  1  0  0  0
  6 32  1  0  0  0
  7 11  2  0  0  0
  7  8  1  0  0  0
  8  9  2  0  0  0
  8 31  1  0  0  0
  9 10  1  0  0  0
 10 11  1  0  0  0
 11 12  1  0  0  0
 12 13  1  0  0  0
 12 40  1  0  0  0
 13 18  1  0  0  0
 13 14  2  0  0  0
 14 15  1  0  0  0
 14 41  1  0  0  0
 15 16  2  0  0  0
 15 42  1  0  0  0
 16 17  1  0  0  0
 16 19  1  0  0  0
 17 18  2  0  0  0
 17 43  1  0  0  0
 18 44  1  0  0  0
 19 20  1  0  0  0
 20 25  1  0  0  0
 20 21  2  0  0  0
 21 22  1  0  0  0
 21 45  1  0  0  0
 22 23  2  0  0  0
 22 46  1  0  0  0
 23 24  1  0  0  0
 23 47  1  0  0  0
 24 25  2  0  0  0
 24 27  1  0  0  0
 25 26  1  0  0  0
 27 28  1  0  0  0
 27 29  1  0  0  0
 27 30  1  0  0  0
 31 48  1  0  0  0
 32 49  1  0  0  0
 32 50  1  0  0  0
M  END
> <s_m_entry_id>
66038

> <s_m_entry_name>
ligand_docking-pose.94

> <s_m_Source_Path>
/home/csk/Desktop/cluster/DUD-E-result/mp2k1

> <s_m_Source_File>
ligand_docking-pose.sdf

> <i_m_Source_File_Index>
94

> <i_lp_mmshare_version>
53161

> <r_lp_tautomer_probability>
1

> <s_lp_Force_Field>
OPLS_2005

> <r_lp_Energy>
26.02722

> <b_lp_Chiralities_Consistent>
1

> <s_lp_Variant>
363009-2

> <s_i_glide_gridfile>
glide-grid_3eqh

> <i_i_glide_lignum>
246

> <i_i_glide_rotatable_bonds>
10

> <r_i_docking_score>
-7.74058304980402

> <r_i_glide_ligand_efficiency>
-0.241893220306376

> <r_i_glide_ligand_efficiency_sa>
-0.767963103869446

> <r_i_glide_ligand_efficiency_ln>
-1.73332754517596

> <r_i_glide_gscore>
-7.74058304980402

> <r_i_glide_lipo>
-3.83189228777123

> <r_i_glide_hbond>
-0.16

> <r_i_glide_metal>
0

> <r_i_glide_rewards>
-0.554583918728514

> <r_i_glide_evdw>
-49.7207069396973

> <r_i_glide_ecoul>
-8.72154331207275

> <r_i_glide_erotb>
0.600160000491501

> <r_i_glide_esite>
0

> <r_i_glide_emodel>
-79.4921945812806

> <r_i_glide_energy>
-58.44225025177

> <r_i_glide_einternal>
20.9917640686035

> <i_i_glide_confnum>
21

> <i_i_glide_posenum>
389

> <r_i_glide_eff_state_penalty>
0

> <i_f3d_flags>
0

> <s_user_duplicate_titles>
363009

> <s_m_subgroup_title>
dock_pv

> <s_m_subgroupid>
dock_pv1

> <b_m_subgroup_collapsed>
0

$$$$
363024
                    3D
 Schrodinger Suite 2021-1.
 47 49  0  0  1  0            999 V2000
   -8.5430   53.4231   27.6395 C   0  0  0  0  0  0
   -7.8981   52.6610   28.8173 C   0  0  2  0  0  0
   -8.6654   51.3792   29.2048 C   0  0  0  0  0  0
   -8.6672   50.4242   28.1628 O   0  0  0  0  0  0
   -7.9018   53.5363   29.9786 N   0  0  0  0  0  0
   -6.8265   54.0506   30.4269 C   0  0  0  0  0  0
   -6.9462   54.9561   31.5887 C   0  0  0  0  0  0
   -8.0412   55.8179   31.8195 C   0  0  0  0  0  0
   -8.0353   56.6103   32.8664 N   0  0  0  0  0  0
   -6.5508   56.4123   33.6692 S   0  0  0  0  0  0
   -6.0001   55.1533   32.5990 C   0  0  0  0  0  0
   -4.8037   54.5065   32.8177 N   0  0  0  0  0  0
   -3.5713   55.1052   33.1157 C   0  0  0  0  0  0
   -2.6259   54.3716   33.8299 C   0  0  0  0  0  0
   -1.3870   54.9361   34.1287 C   0  0  0  0  0  0
   -1.0861   56.2407   33.7257 C   0  0  0  0  0  0
   -2.0243   56.9514   32.9633 C   0  0  0  0  0  0
   -3.2607   56.3914   32.6679 C   0  0  0  0  0  0
    0.1422   56.7726   34.0696 O   0  0  0  0  0  0
    0.3123   58.1412   34.1532 C   0  0  0  0  0  0
    1.2743   58.7483   33.3429 C   0  0  0  0  0  0
    1.4735   60.1283   33.3806 C   0  0  0  0  0  0
    0.7169   60.9121   34.2487 C   0  0  0  0  0  0
   -0.2316   60.3181   35.0781 C   0  0  0  0  0  0
   -0.4385   58.9353   35.0356 C   0  0  0  0  0  0
   -1.3675   58.3627   35.8397 F   0  0  0  0  0  0
   -1.1311   61.3152   36.1629 Cl  0  0  0  0  0  0
   -9.1433   55.9481   31.0195 O   0  0  0  0  0  0
   -5.5283   53.9489   29.9755 N   0  0  0  0  0  0
   -8.5488   52.8200   26.7296 H   0  0  0  0  0  0
   -9.5740   53.7007   27.8556 H   0  0  0  0  0  0
   -7.9984   54.3427   27.4137 H   0  0  0  0  0  0
   -6.8897   52.3652   28.5126 H   0  0  0  0  0  0
   -9.6982   51.6096   29.4748 H   0  0  0  0  0  0
   -8.2090   50.9141   30.0810 H   0  0  0  0  0  0
   -9.1188   49.6455   28.4911 H   0  0  0  0  0  0
   -4.7722   53.4968   32.7960 H   0  0  0  0  0  0
   -2.8450   53.3702   34.1667 H   0  0  0  0  0  0
   -0.6603   54.3552   34.6784 H   0  0  0  0  0  0
   -1.7954   57.9383   32.5968 H   0  0  0  0  0  0
   -3.9643   56.9584   32.0736 H   0  0  0  0  0  0
    1.8479   58.1464   32.6507 H   0  0  0  0  0  0
    2.2105   60.5837   32.7342 H   0  0  0  0  0  0
    0.8730   61.9821   34.2839 H   0  0  0  0  0  0
   -8.8216   56.2280   30.1545 H   0  0  0  0  0  0
   -5.3265   53.4622   29.1184 H   0  0  0  0  0  0
   -4.8040   54.4904   30.4269 H   0  0  0  0  0  0
  1  2  1  0  0  0
  1 30  1  0  0  0
  1 31  1  0  0  0
  1 32  1  0  0  0
  2  3  1  0  0  0
  2  5  1  0  0  0
  2 33  1  0  0  0
  3  4  1  0  0  0
  3 34  1  0  0  0
  3 35  1  0  0  0
  4 36  1  0  0  0
  5  6  2  0  0  0
  6  7  1  0  0  0
  6 29  1  0  0  0
  7 11  2  0  0  0
  7  8  1  0  0  0
  8  9  2  0  0  0
  8 28  1  0  0  0
  9 10  1  0  0  0
 10 11  1  0  0  0
 11 12  1  0  0  0
 12 13  1  0  0  0
 12 37  1  0  0  0
 13 18  1  0  0  0
 13 14  2  0  0  0
 14 15  1  0  0  0
 14 38  1  0  0  0
 15 16  2  0  0  0
 15 39  1  0  0  0
 16 17  1  0  0  0
 16 19  1  0  0  0
 17 18  2  0  0  0
 17 40  1  0  0  0
 18 41  1  0  0  0
 19 20  1  0  0  0
 20 25  1  0  0  0
 20 21  2  0  0  0
 21 22  1  0  0  0
 21 42  1  0  0  0
 22 23  2  0  0  0
 22 43  1  0  0  0
 23 24  1  0  0  0
 23 44  1  0  0  0
 24 25  2  0  0  0
 24 27  1  0  0  0
 25 26  1  0  0  0
 28 45  1  0  0  0
 29 46  1  0  0  0
 29 47  1  0  0  0
M  END
> <s_m_entry_id>
66039

> <s_m_entry_name>
ligand_docking-pose.95

> <s_m_Source_Path>
/home/csk/Desktop/cluster/DUD-E-result/mp2k1

> <s_m_Source_File>
ligand_docking-pose.sdf

> <i_m_Source_File_Index>
95

> <i_lp_mmshare_version>
53161

> <r_lp_tautomer_probability>
1

> <s_lp_Force_Field>
OPLS_2005

> <r_lp_Energy>
26.351699

> <b_lp_Chiralities_Consistent>
1

> <s_lp_Variant>
363024-1

> <s_i_glide_gridfile>
glide-grid_3eqh

> <i_i_glide_lignum>
267

> <i_i_glide_rotatable_bonds>
9

> <r_i_docking_score>
-7.72984614767836

> <r_i_glide_ligand_efficiency>
-0.266546418885461

> <r_i_glide_ligand_efficiency_sa>
-0.818915046648932

> <r_i_glide_ligand_efficiency_ln>
-1.76993875583242

> <r_i_glide_gscore>
-7.72984614767836

> <r_i_glide_lipo>
-3.41829733103987

> <r_i_glide_hbond>
-0.126763655461829

> <r_i_glide_metal>
0

> <r_i_glide_rewards>
-0.865184203881083

> <r_i_glide_evdw>
-47.2823219299316

> <r_i_glide_ecoul>
-11.1123561859131

> <r_i_glide_erotb>
0.731155462141541

> <r_i_glide_esite>
-0.0197868950535715

> <r_i_glide_emodel>
-78.9847322850524

> <r_i_glide_energy>
-58.3946781158447

> <r_i_glide_einternal>
11.9780941009521

> <i_i_glide_confnum>
10

> <i_i_glide_posenum>
213

> <r_i_glide_eff_state_penalty>
0

> <i_f3d_flags>
0

> <s_user_duplicate_titles>
363024

> <s_m_subgroup_title>
dock_pv

> <s_m_subgroupid>
dock_pv1

> <b_m_subgroup_collapsed>
0

$$$$
363023
                    3D
 Schrodinger Suite 2021-1.
 47 49  0  0  1  0            999 V2000
   -5.6044   53.0642   28.6877 C   0  0  0  0  0  0
   -7.0356   53.2092   29.2597 C   0  0  2  0  0  0
   -8.1531   53.4341   28.2046 C   0  0  0  0  0  0
   -7.9259   52.7484   26.9887 O   0  0  0  0  0  0
   -7.0590   54.3478   30.1659 N   0  0  0  0  0  0
   -6.9345   54.1877   31.4217 C   0  0  0  0  0  0
   -7.0169   55.3824   32.2663 C   0  0  0  0  0  0
   -8.0795   56.3104   32.2461 C   0  0  0  0  0  0
   -8.0976   57.2689   33.1420 N   0  0  0  0  0  0
   -6.6790   57.1489   34.0764 S   0  0  0  0  0  0
   -6.0385   55.8022   33.1698 C   0  0  0  0  0  0
   -4.7742   55.2684   33.3629 N   0  0  0  0  0  0
   -3.5431   55.9226   33.5646 C   0  0  0  0  0  0
   -3.4148   57.3124   33.6034 C   0  0  0  0  0  0
   -2.1727   57.9132   33.7548 C   0  0  0  0  0  0
   -0.9957   57.1527   33.8260 C   0  0  0  0  0  0
   -1.1198   55.7561   33.7626 C   0  0  0  0  0  0
   -2.3785   55.1516   33.6539 C   0  0  0  0  0  0
    0.2848   54.7491   33.7630 Cl  0  0  0  0  0  0
    0.2794   57.7046   33.9106 O   0  0  0  0  0  0
    0.5225   59.0628   34.0474 C   0  0  0  0  0  0
   -0.1905   59.8420   34.9694 C   0  0  0  0  0  0
   -0.0029   61.2187   35.0335 C   0  0  0  0  0  0
    0.9830   61.8216   34.2646 C   0  0  0  0  0  0
    1.7644   61.0560   33.4088 C   0  0  0  0  0  0
    1.5237   59.6797   33.2739 C   0  0  0  0  0  0
    2.4738   58.7483   32.1652 Cl  0  0  0  0  0  0
    3.0383   61.8582   32.5630 Cl  0  0  0  0  0  0
   -9.1263   56.3246   31.3634 O   0  0  0  0  0  0
   -6.7364   53.0597   32.1889 N   0  0  0  0  0  0
   -5.5279   52.2139   28.0109 H   0  0  0  0  0  0
   -5.2873   53.9480   28.1412 H   0  0  0  0  0  0
   -4.8774   52.9031   29.4838 H   0  0  0  0  0  0
   -7.2687   52.2674   29.7645 H   0  0  0  0  0  0
   -8.2543   54.4906   27.9476 H   0  0  0  0  0  0
   -9.1177   53.1322   28.6145 H   0  0  0  0  0  0
   -7.3459   53.3209   26.4671 H   0  0  0  0  0  0
   -4.6471   54.2929   33.1401 H   0  0  0  0  0  0
   -4.2573   57.9653   33.4749 H   0  0  0  0  0  0
   -2.1631   58.9888   33.7631 H   0  0  0  0  0  0
   -2.4388   54.0738   33.6050 H   0  0  0  0  0  0
   -0.9237   59.3862   35.6178 H   0  0  0  0  0  0
   -0.5948   61.8141   35.7133 H   0  0  0  0  0  0
    1.1585   62.8835   34.3508 H   0  0  0  0  0  0
   -8.7442   56.5280   30.4967 H   0  0  0  0  0  0
   -6.6960   52.1511   31.7530 H   0  0  0  0  0  0
   -6.7878   53.1228   33.1949 H   0  0  0  0  0  0
  1  2  1  0  0  0
  1 31  1  0  0  0
  1 32  1  0  0  0
  1 33  1  0  0  0
  2  3  1  0  0  0
  2  5  1  0  0  0
  2 34  1  0  0  0
  3  4  1  0  0  0
  3 35  1  0  0  0
  3 36  1  0  0  0
  4 37  1  0  0  0
  5  6  2  0  0  0
  6  7  1  0  0  0
  6 30  1  0  0  0
  7 11  2  0  0  0
  7  8  1  0  0  0
  8  9  2  0  0  0
  8 29  1  0  0  0
  9 10  1  0  0  0
 10 11  1  0  0  0
 11 12  1  0  0  0
 12 13  1  0  0  0
 12 38  1  0  0  0
 13 18  1  0  0  0
 13 14  2  0  0  0
 14 15  1  0  0  0
 14 39  1  0  0  0
 15 16  2  0  0  0
 15 40  1  0  0  0
 16 17  1  0  0  0
 16 20  1  0  0  0
 17 18  2  0  0  0
 17 19  1  0  0  0
 18 41  1  0  0  0
 20 21  1  0  0  0
 21 26  1  0  0  0
 21 22  2  0  0  0
 22 23  1  0  0  0
 22 42  1  0  0  0
 23 24  2  0  0  0
 23 43  1  0  0  0
 24 25  1  0  0  0
 24 44  1  0  0  0
 25 26  2  0  0  0
 25 28  1  0  0  0
 26 27  1  0  0  0
 29 45  1  0  0  0
 30 46  1  0  0  0
 30 47  1  0  0  0
M  END
> <s_m_entry_id>
66040

> <s_m_entry_name>
ligand_docking-pose.96

> <s_m_Source_Path>
/home/csk/Desktop/cluster/DUD-E-result/mp2k1

> <s_m_Source_File>
ligand_docking-pose.sdf

> <i_m_Source_File_Index>
96

> <i_lp_mmshare_version>
53161

> <r_lp_tautomer_probability>
1

> <s_lp_Force_Field>
OPLS_2005

> <r_lp_Energy>
25.176643

> <b_lp_Chiralities_Consistent>
1

> <s_lp_Variant>
363023-1

> <s_i_glide_gridfile>
glide-grid_3eqh

> <i_i_glide_lignum>
227

> <i_i_glide_rotatable_bonds>
9

> <r_i_docking_score>
-7.72557175425894

> <r_i_glide_ligand_efficiency>
-0.257519058475298

> <r_i_glide_ligand_efficiency_sa>
-0.800171588489898

> <r_i_glide_ligand_efficiency_ln>
-1.75533407941393

> <r_i_glide_gscore>
-7.72557175425894

> <r_i_glide_lipo>
-3.8194845909175

> <r_i_glide_hbond>
-0.567588540367468

> <r_i_glide_metal>
0

> <r_i_glide_rewards>
-0.389659745264392

> <r_i_glide_evdw>
-49.7395820617676

> <r_i_glide_ecoul>
-7.02254152297974

> <r_i_glide_erotb>
0.598154407124601

> <r_i_glide_esite>
-0.00663295329883783

> <r_i_glide_emodel>
-77.3682103149547

> <r_i_glide_energy>
-56.7621235847473

> <r_i_glide_einternal>
15.1959114074707

> <i_i_glide_confnum>
113

> <i_i_glide_posenum>
274

> <r_i_glide_eff_state_penalty>
0

> <i_f3d_flags>
0

> <s_user_duplicate_titles>
363023

> <s_m_subgroup_title>
dock_pv

> <s_m_subgroupid>
dock_pv1

> <b_m_subgroup_collapsed>
0

$$$$
363016
                    3D
 Schrodinger Suite 2021-1.
 47 49  0  0  1  0            999 V2000
   -6.9488   50.5609   30.4263 C   0  0  0  0  0  0
   -6.4414   51.8523   29.7537 C   0  0  2  0  0  0
   -4.9727   51.7743   29.2704 C   0  0  0  0  0  0
   -4.7590   50.6653   28.4113 O   0  0  0  0  0  0
   -6.5461   52.9328   30.7239 N   0  0  0  0  0  0
   -7.3928   53.8806   30.5727 C   0  0  0  0  0  0
   -7.4238   54.9644   31.5977 C   0  0  0  0  0  0
   -8.4387   55.9486   31.7632 C   0  0  0  0  0  0
   -8.3381   56.8330   32.7291 N   0  0  0  0  0  0
   -6.8543   56.5966   33.5209 S   0  0  0  0  0  0
   -6.4061   55.2334   32.5290 C   0  0  0  0  0  0
   -5.2089   54.5733   32.7334 N   0  0  0  0  0  0
   -3.9695   55.1437   33.0662 C   0  0  0  0  0  0
   -3.0540   54.4012   33.8108 C   0  0  0  0  0  0
   -1.8234   54.9554   34.1615 C   0  0  0  0  0  0
   -1.4931   56.2507   33.7629 C   0  0  0  0  0  0
   -2.3897   56.9657   32.9630 C   0  0  0  0  0  0
   -3.6220   56.4206   32.6204 C   0  0  0  0  0  0
   -0.2739   56.7670   34.1628 O   0  0  0  0  0  0
   -0.0650   58.1301   34.2584 C   0  0  0  0  0  0
    0.9492   58.6909   33.4774 C   0  0  0  0  0  0
    1.2309   60.0544   33.5462 C   0  0  0  0  0  0
    0.5092   60.8738   34.4091 C   0  0  0  0  0  0
   -0.4922   60.3249   35.2065 C   0  0  0  0  0  0
   -0.7837   58.9603   35.1422 C   0  0  0  0  0  0
   -2.0343   58.3465   36.1626 Cl  0  0  0  0  0  0
    2.4726   60.7346   32.5636 Cl  0  0  0  0  0  0
   -9.5260   56.1644   30.9626 O   0  0  0  0  0  0
   -8.3147   54.0688   29.5671 N   0  0  0  0  0  0
   -6.9581   49.7336   29.7210 H   0  0  0  0  0  0
   -6.3318   50.2698   31.2773 H   0  0  0  0  0  0
   -7.9720   50.6786   30.7891 H   0  0  0  0  0  0
   -7.0550   52.0123   28.8623 H   0  0  0  0  0  0
   -4.2844   51.6956   30.1153 H   0  0  0  0  0  0
   -4.7085   52.6863   28.7313 H   0  0  0  0  0  0
   -4.7790   49.8768   28.9605 H   0  0  0  0  0  0
   -5.1694   53.5831   32.5474 H   0  0  0  0  0  0
   -3.3014   53.4051   34.1444 H   0  0  0  0  0  0
   -1.1304   54.3787   34.7551 H   0  0  0  0  0  0
   -2.1368   57.9480   32.6037 H   0  0  0  0  0  0
   -4.2915   56.9932   31.9948 H   0  0  0  0  0  0
    1.5125   58.0640   32.8040 H   0  0  0  0  0  0
    0.7200   61.9310   34.4645 H   0  0  0  0  0  0
   -1.0537   60.9653   35.8712 H   0  0  0  0  0  0
   -9.1985   56.7166   30.2397 H   0  0  0  0  0  0
   -8.3756   53.4250   28.7964 H   0  0  0  0  0  0
   -8.9720   54.8323   29.6246 H   0  0  0  0  0  0
  1  2  1  0  0  0
  1 30  1  0  0  0
  1 31  1  0  0  0
  1 32  1  0  0  0
  2  3  1  0  0  0
  2  5  1  0  0  0
  2 33  1  0  0  0
  3  4  1  0  0  0
  3 34  1  0  0  0
  3 35  1  0  0  0
  4 36  1  0  0  0
  5  6  2  0  0  0
  6  7  1  0  0  0
  6 29  1  0  0  0
  7 11  2  0  0  0
  7  8  1  0  0  0
  8  9  2  0  0  0
  8 28  1  0  0  0
  9 10  1  0  0  0
 10 11  1  0  0  0
 11 12  1  0  0  0
 12 13  1  0  0  0
 12 37  1  0  0  0
 13 18  1  0  0  0
 13 14  2  0  0  0
 14 15  1  0  0  0
 14 38  1  0  0  0
 15 16  2  0  0  0
 15 39  1  0  0  0
 16 17  1  0  0  0
 16 19  1  0  0  0
 17 18  2  0  0  0
 17 40  1  0  0  0
 18 41  1  0  0  0
 19 20  1  0  0  0
 20 25  1  0  0  0
 20 21  2  0  0  0
 21 22  1  0  0  0
 21 42  1  0  0  0
 22 23  2  0  0  0
 22 27  1  0  0  0
 23 24  1  0  0  0
 23 43  1  0  0  0
 24 25  2  0  0  0
 24 44  1  0  0  0
 25 26  1  0  0  0
 28 45  1  0  0  0
 29 46  1  0  0  0
 29 47  1  0  0  0
M  END
> <s_m_entry_id>
66041

> <s_m_entry_name>
ligand_docking-pose.97

> <s_m_Source_Path>
/home/csk/Desktop/cluster/DUD-E-result/mp2k1

> <s_m_Source_File>
ligand_docking-pose.sdf

> <i_m_Source_File_Index>
97

> <i_lp_mmshare_version>
53161

> <r_lp_tautomer_probability>
1

> <s_lp_Force_Field>
OPLS_2005

> <r_lp_Energy>
24.905659

> <b_lp_Chiralities_Consistent>
1

> <s_lp_Variant>
363016-1

> <s_i_glide_gridfile>
glide-grid_3eqh

> <i_i_glide_lignum>
249

> <i_i_glide_rotatable_bonds>
9

> <r_i_docking_score>
-7.71380453918554

> <r_i_glide_ligand_efficiency>
-0.265993259971915

> <r_i_glide_ligand_efficiency_sa>
-0.817215567213476

> <r_i_glide_ligand_efficiency_ln>
-1.76626563426765

> <r_i_glide_gscore>
-7.71380453918554

> <r_i_glide_lipo>
-3.63001325378523

> <r_i_glide_hbond>
-0.177294024765851

> <r_i_glide_metal>
0

> <r_i_glide_rewards>
-0.537494580544863

> <r_i_glide_evdw>
-48.3771514892578

> <r_i_glide_ecoul>
-10.5492162704468

> <r_i_glide_erotb>
0.683665165572548

> <r_i_glide_esite>
-0.0514278306322407

> <r_i_glide_emodel>
-77.4211578321991

> <r_i_glide_energy>
-58.9263677597046

> <r_i_glide_einternal>
14.8153429031372

> <i_i_glide_confnum>
25

> <i_i_glide_posenum>
260

> <r_i_glide_eff_state_penalty>
0

> <i_f3d_flags>
0

> <s_user_duplicate_titles>
363016

> <s_m_subgroup_title>
dock_pv

> <s_m_subgroupid>
dock_pv1

> <b_m_subgroup_collapsed>
0

$$$$
363007
                    3D
 Schrodinger Suite 2021-1.
 50 52  0  0  1  0            999 V2000
   -8.4080   53.3685   27.5076 C   0  0  0  0  0  0
   -7.8162   52.6601   28.7446 C   0  0  2  0  0  0
   -8.3900   51.2383   28.9702 C   0  0  0  0  0  0
   -9.8031   51.2341   29.0654 O   0  0  0  0  0  0
   -8.0780   53.4802   29.9243 N   0  0  0  0  0  0
   -7.1263   54.0744   30.5361 C   0  0  0  0  0  0
   -7.4786   54.9115   31.7003 C   0  0  0  0  0  0
   -8.6079   55.7576   31.7628 C   0  0  0  0  0  0
   -8.8222   56.4667   32.8458 N   0  0  0  0  0  0
   -7.5286   56.2063   33.9192 S   0  0  0  0  0  0
   -6.7419   55.0548   32.8822 C   0  0  0  0  0  0
   -5.5749   54.4433   33.2881 N   0  0  0  0  0  0
   -4.3115   55.0547   33.3648 C   0  0  0  0  0  0
   -4.0727   56.3316   32.8438 C   0  0  0  0  0  0
   -2.8132   56.9100   32.9627 C   0  0  0  0  0  0
   -1.7814   56.2219   33.6091 C   0  0  0  0  0  0
   -2.0065   54.9331   34.0898 C   0  0  0  0  0  0
   -3.2685   54.3539   33.9732 C   0  0  0  0  0  0
   -0.5288   56.7784   33.7637 O   0  0  0  0  0  0
   -0.4092   58.0859   34.1865 C   0  0  0  0  0  0
   -1.1431   58.5816   35.2716 C   0  0  0  0  0  0
   -1.0189   59.9167   35.6526 C   0  0  0  0  0  0
   -0.1525   60.7620   34.9620 C   0  0  0  0  0  0
    0.6041   60.2791   33.8879 C   0  0  0  0  0  0
    0.4749   58.9337   33.5152 C   0  0  0  0  0  0
    1.5515   61.2114   33.1356 C   0  0  0  0  0  0
    2.5392   60.5265   32.5629 F   0  0  0  0  0  0
    0.8739   61.8527   32.1819 F   0  0  0  0  0  0
    2.0943   62.1137   33.9556 F   0  0  0  0  0  0
   -9.5269   55.9479   30.7676 O   0  0  0  0  0  0
   -5.7744   54.1173   30.2752 N   0  0  0  0  0  0
   -8.2705   52.7752   26.6041 H   0  0  0  0  0  0
   -9.4780   53.5533   27.6187 H   0  0  0  0  0  0
   -7.9312   54.3347   27.3378 H   0  0  0  0  0  0
   -6.7485   52.5307   28.5523 H   0  0  0  0  0  0
   -7.9724   50.8030   29.8797 H   0  0  0  0  0  0
   -8.1020   50.5792   28.1523 H   0  0  0  0  0  0
  -10.0359   51.9193   29.7015 H   0  0  0  0  0  0
   -5.5809   53.4703   33.5559 H   0  0  0  0  0  0
   -4.8548   56.8840   32.3446 H   0  0  0  0  0  0
   -2.6418   57.8979   32.5645 H   0  0  0  0  0  0
   -1.2067   54.3895   34.5705 H   0  0  0  0  0  0
   -3.4317   53.3675   34.3801 H   0  0  0  0  0  0
   -1.8188   57.9325   35.8076 H   0  0  0  0  0  0
   -1.5989   60.3049   36.4761 H   0  0  0  0  0  0
   -0.0785   61.7984   35.2603 H   0  0  0  0  0  0
    1.0391   58.5411   32.6812 H   0  0  0  0  0  0
   -9.0435   56.1485   29.9572 H   0  0  0  0  0  0
   -5.3910   53.6618   29.4631 H   0  0  0  0  0  0
   -5.1705   54.6603   30.8734 H   0  0  0  0  0  0
  1  2  1  0  0  0
  1 32  1  0  0  0
  1 33  1  0  0  0
  1 34  1  0  0  0
  2  3  1  0  0  0
  2  5  1  0  0  0
  2 35  1  0  0  0
  3  4  1  0  0  0
  3 36  1  0  0  0
  3 37  1  0  0  0
  4 38  1  0  0  0
  5  6  2  0  0  0
  6  7  1  0  0  0
  6 31  1  0  0  0
  7 11  2  0  0  0
  7  8  1  0  0  0
  8  9  2  0  0  0
  8 30  1  0  0  0
  9 10  1  0  0  0
 10 11  1  0  0  0
 11 12  1  0  0  0
 12 13  1  0  0  0
 12 39  1  0  0  0
 13 18  1  0  0  0
 13 14  2  0  0  0
 14 15  1  0  0  0
 14 40  1  0  0  0
 15 16  2  0  0  0
 15 41  1  0  0  0
 16 17  1  0  0  0
 16 19  1  0  0  0
 17 18  2  0  0  0
 17 42  1  0  0  0
 18 43  1  0  0  0
 19 20  1  0  0  0
 20 25  1  0  0  0
 20 21  2  0  0  0
 21 22  1  0  0  0
 21 44  1  0  0  0
 22 23  2  0  0  0
 22 45  1  0  0  0
 23 24  1  0  0  0
 23 46  1  0  0  0
 24 25  2  0  0  0
 24 26  1  0  0  0
 25 47  1  0  0  0
 26 27  1  0  0  0
 26 28  1  0  0  0
 26 29  1  0  0  0
 30 48  1  0  0  0
 31 49  1  0  0  0
 31 50  1  0  0  0
M  END
> <s_m_entry_id>
66042

> <s_m_entry_name>
ligand_docking-pose.98

> <s_m_Source_Path>
/home/csk/Desktop/cluster/DUD-E-result/mp2k1

> <s_m_Source_File>
ligand_docking-pose.sdf

> <i_m_Source_File_Index>
98

> <i_lp_mmshare_version>
53161

> <r_lp_tautomer_probability>
1

> <s_lp_Force_Field>
OPLS_2005

> <r_lp_Energy>
25.329437

> <b_lp_Chiralities_Consistent>
1

> <s_lp_Variant>
363007-1

> <s_i_glide_gridfile>
glide-grid_3eqh

> <i_i_glide_lignum>
241

> <i_i_glide_rotatable_bonds>
10

> <r_i_docking_score>
-7.69204046885864

> <r_i_glide_ligand_efficiency>
-0.248130337705117

> <r_i_glide_ligand_efficiency_sa>
-0.779471841245966

> <r_i_glide_ligand_efficiency_ln>
-1.73479085845756

> <r_i_glide_gscore>
-7.69204046885864

> <r_i_glide_lipo>
-3.36813882989804

> <r_i_glide_hbond>
-0.0876303145541458

> <r_i_glide_metal>
0

> <r_i_glide_rewards>
-1.62340397973739

> <r_i_glide_evdw>
-47.8168258666992

> <r_i_glide_ecoul>
-5.90075969696045

> <r_i_glide_erotb>
0.686117801653242

> <r_i_glide_esite>
-0.0230298984432692

> <r_i_glide_emodel>
-70.7184051721225

> <r_i_glide_energy>
-53.7175855636597

> <r_i_glide_einternal>
16.4945278167725

> <i_i_glide_confnum>
50

> <i_i_glide_posenum>
259

> <r_i_glide_eff_state_penalty>
0

> <i_f3d_flags>
0

> <s_user_duplicate_titles>
363007

> <s_m_subgroup_title>
dock_pv

> <s_m_subgroupid>
dock_pv1

> <b_m_subgroup_collapsed>
0

$$$$
363003
                    3D
 Schrodinger Suite 2021-1.
 48 50  0  0  1  0            999 V2000
   -7.9454   58.9546   35.3920 C   0  0  0  0  0  0
   -7.4816   58.8966   33.9220 C   0  0  2  0  0  0
   -8.3004   59.8796   33.0409 C   0  0  0  0  0  0
   -7.5259   60.3454   31.9478 O   0  0  0  0  0  0
   -7.6413   57.5155   33.4877 N   0  0  0  0  0  0
   -6.9065   57.0109   32.5768 C   0  0  0  0  0  0
   -7.1235   55.6020   32.2862 C   0  0  0  0  0  0
   -8.2497   55.1509   31.5757 C   0  0  0  0  0  0
   -8.4688   53.8637   31.4713 N   0  0  0  0  0  0
   -7.1955   53.0506   32.2525 S   0  0  0  0  0  0
   -6.3489   54.5022   32.6949 C   0  0  0  0  0  0
   -5.1597   54.2806   33.3629 N   0  0  0  0  0  0
   -3.9896   55.0097   33.6406 C   0  0  0  0  0  0
   -3.8895   56.3927   33.7950 C   0  0  0  0  0  0
   -2.6487   57.0067   33.9407 C   0  0  0  0  0  0
   -1.4821   56.2351   34.0303 C   0  0  0  0  0  0
   -1.6023   54.8383   33.9822 C   0  0  0  0  0  0
   -2.8417   54.2409   33.7978 C   0  0  0  0  0  0
   -0.1064   56.8350   34.1597 C   0  0  0  0  0  0
    0.8733   56.0853   34.1638 O   0  0  0  0  0  0
    0.1187   58.3166   34.1759 C   0  0  0  0  0  0
   -0.5817   59.1534   35.0555 C   0  0  0  0  0  0
   -0.3272   60.5234   35.0717 C   0  0  0  0  0  0
    0.6418   61.0604   34.2280 C   0  0  0  0  0  0
    1.3704   60.2344   33.3761 C   0  0  0  0  0  0
    1.1190   58.8655   33.3620 C   0  0  0  0  0  0
   -9.1751   55.9483   30.9630 O   0  0  0  0  0  0
   -5.9263   57.5358   31.7693 N   0  0  0  0  0  0
   -7.9267   59.9695   35.7895 H   0  0  0  0  0  0
   -8.9721   58.5985   35.4951 H   0  0  0  0  0  0
   -7.3195   58.3347   36.0337 H   0  0  0  0  0  0
   -6.4296   59.1908   33.9102 H   0  0  0  0  0  0
   -8.6040   60.7479   33.6233 H   0  0  0  0  0  0
   -9.2254   59.4260   32.6804 H   0  0  0  0  0  0
   -7.4160   59.5827   31.3647 H   0  0  0  0  0  0
   -4.9820   53.3145   33.5894 H   0  0  0  0  0  0
   -4.7536   57.0202   33.8423 H   0  0  0  0  0  0
   -2.6306   58.0845   33.9801 H   0  0  0  0  0  0
   -0.7387   54.1939   34.0762 H   0  0  0  0  0  0
   -2.9001   53.1591   33.7651 H   0  0  0  0  0  0
   -1.3213   58.7530   35.7346 H   0  0  0  0  0  0
   -0.8833   61.1717   35.7344 H   0  0  0  0  0  0
    0.8318   62.1244   34.2417 H   0  0  0  0  0  0
    2.1293   60.6504   32.7290 H   0  0  0  0  0  0
    1.6885   58.2384   32.6894 H   0  0  0  0  0  0
   -8.6974   56.6206   30.4522 H   0  0  0  0  0  0
   -5.6224   58.4873   31.8821 H   0  0  0  0  0  0
   -5.6424   57.0329   30.9410 H   0  0  0  0  0  0
  1  2  1  0  0  0
  1 29  1  0  0  0
  1 30  1  0  0  0
  1 31  1  0  0  0
  2  3  1  0  0  0
  2  5  1  0  0  0
  2 32  1  0  0  0
  3  4  1  0  0  0
  3 33  1  0  0  0
  3 34  1  0  0  0
  4 35  1  0  0  0
  5  6  2  0  0  0
  6  7  1  0  0  0
  6 28  1  0  0  0
  7 11  2  0  0  0
  7  8  1  0  0  0
  8  9  2  0  0  0
  8 27  1  0  0  0
  9 10  1  0  0  0
 10 11  1  0  0  0
 11 12  1  0  0  0
 12 13  1  0  0  0
 12 36  1  0  0  0
 13 18  1  0  0  0
 13 14  2  0  0  0
 14 15  1  0  0  0
 14 37  1  0  0  0
 15 16  2  0  0  0
 15 38  1  0  0  0
 16 17  1  0  0  0
 16 19  1  0  0  0
 17 18  2  0  0  0
 17 39  1  0  0  0
 18 40  1  0  0  0
 19 20  2  0  0  0
 19 21  1  0  0  0
 21 26  1  0  0  0
 21 22  2  0  0  0
 22 23  1  0  0  0
 22 41  1  0  0  0
 23 24  2  0  0  0
 23 42  1  0  0  0
 24 25  1  0  0  0
 24 43  1  0  0  0
 25 26  2  0  0  0
 25 44  1  0  0  0
 26 45  1  0  0  0
 27 46  1  0  0  0
 28 47  1  0  0  0
 28 48  1  0  0  0
M  END
> <s_m_entry_id>
66043

> <s_m_entry_name>
ligand_docking-pose.99

> <s_m_Source_Path>
/home/csk/Desktop/cluster/DUD-E-result/mp2k1

> <s_m_Source_File>
ligand_docking-pose.sdf

> <i_m_Source_File_Index>
99

> <i_lp_mmshare_version>
53161

> <r_lp_tautomer_probability>
1

> <s_lp_Force_Field>
OPLS_2005

> <r_lp_Energy>
31.989084

> <b_lp_Chiralities_Consistent>
1

> <s_lp_Variant>
363003-1

> <s_i_glide_gridfile>
glide-grid_3eqh

> <i_i_glide_lignum>
233

> <i_i_glide_rotatable_bonds>
9

> <r_i_docking_score>
-7.68850232419959

> <r_i_glide_ligand_efficiency>
-0.274589368721414

> <r_i_glide_ligand_efficiency_sa>
-0.833815047927598

> <r_i_glide_ligand_efficiency_ln>
-1.7747320806627

> <r_i_glide_gscore>
-7.68850232419959

> <r_i_glide_lipo>
-3.29238294041994

> <r_i_glide_hbond>
-0.16

> <r_i_glide_metal>
0

> <r_i_glide_rewards>
-0.9820696842583

> <r_i_glide_evdw>
-47.3256149291992

> <r_i_glide_ecoul>
-10.9588661193848

> <r_i_glide_erotb>
0.871310601029272

> <r_i_glide_esite>
-0.115249636182946

> <r_i_glide_emodel>
-75.9384849377762

> <r_i_glide_energy>
-58.284481048584

> <r_i_glide_einternal>
22.6206912994385

> <i_i_glide_confnum>
61

> <i_i_glide_posenum>
362

> <r_i_glide_eff_state_penalty>
0

> <i_f3d_flags>
0

> <s_user_duplicate_titles>
363003

> <s_m_subgroup_title>
dock_pv

> <s_m_subgroupid>
dock_pv1

> <b_m_subgroup_collapsed>
0

$$$$
44064
                    3D
 Schrodinger Suite 2021-1.
 49 52  0  0  1  0            999 V2000
   -4.7103   51.7136   29.0267 C   0  0  0  0  0  0
   -5.1260   53.0211   28.6516 O   0  0  0  0  0  0
   -5.6963   53.7302   29.6788 C   0  0  0  0  0  0
   -4.8839   54.5598   30.4510 C   0  0  0  0  0  0
   -5.4149   55.2656   31.5655 C   0  0  0  0  0  0
   -6.8084   55.1218   31.8483 C   0  0  0  0  0  0
   -7.6212   54.3272   31.0073 C   0  0  0  0  0  0
   -7.0707   53.6305   29.9233 C   0  0  0  0  0  0
   -7.8120   52.8321   29.0682 O   0  0  0  0  0  0
   -9.2277   52.7798   29.2143 C   0  0  0  0  0  0
   -7.3961   55.7144   32.9205 N   0  0  0  0  0  0
   -6.6204   56.4331   33.7607 C   0  0  0  0  0  0
   -5.2535   56.6298   33.5780 C   0  0  0  0  0  0
   -4.6261   56.0772   32.4459 C   0  0  0  0  0  0
   -3.2745   56.3464   32.1535 N   0  0  0  0  0  0
   -2.1479   56.1234   32.9512 C   0  0  0  0  0  0
   -1.8486   54.8267   33.3660 C   0  0  0  0  0  0
   -0.6131   54.5582   33.9476 C   0  0  0  0  0  0
    0.2971   55.5904   34.1587 C   0  0  0  0  0  0
   -0.0248   56.9051   33.8401 C   0  0  0  0  0  0
   -1.2606   57.1669   33.2331 C   0  0  0  0  0  0
    0.9421   57.8485   34.1197 O   0  0  0  0  0  0
    0.7526   59.1867   33.8844 C   0  0  0  0  0  0
    0.0038   59.9594   34.7739 C   0  0  0  0  0  0
   -0.1068   61.3328   34.5709 C   0  0  0  0  0  0
    0.5284   61.9248   33.4810 C   0  0  0  0  0  0
    1.2753   61.1549   32.5929 C   0  0  0  0  0  0
    1.3853   59.7810   32.7929 C   0  0  0  0  0  0
   -4.5192   57.3743   34.5902 C   0  0  0  0  0  0
   -3.9256   57.9481   35.3973 N   0  0  0  0  0  0
   -4.2885   51.2006   28.1636 H   0  0  0  0  0  0
   -5.5440   51.1136   29.3957 H   0  0  0  0  0  0
   -3.9377   51.7480   29.7968 H   0  0  0  0  0  0
   -3.8305   54.6363   30.2223 H   0  0  0  0  0  0
   -8.6730   54.2611   31.2393 H   0  0  0  0  0  0
   -9.6478   52.1509   28.4299 H   0  0  0  0  0  0
   -9.5161   52.3478   30.1736 H   0  0  0  0  0  0
   -9.6779   53.7690   29.1159 H   0  0  0  0  0  0
   -7.1360   56.8412   34.6192 H   0  0  0  0  0  0
   -3.1513   57.0448   31.4275 H   0  0  0  0  0  0
   -2.5346   54.0171   33.1646 H   0  0  0  0  0  0
   -0.3462   53.5484   34.2095 H   0  0  0  0  0  0
    1.2658   55.3882   34.5845 H   0  0  0  0  0  0
   -1.5111   58.1731   32.9470 H   0  0  0  0  0  0
   -0.4785   59.4948   35.6215 H   0  0  0  0  0  0
   -0.6876   61.9382   35.2526 H   0  0  0  0  0  0
    0.4457   62.9918   33.3334 H   0  0  0  0  0  0
    1.7792   61.6254   31.7640 H   0  0  0  0  0  0
    1.9717   59.1782   32.1143 H   0  0  0  0  0  0
  1  2  1  0  0  0
  1 31  1  0  0  0
  1 32  1  0  0  0
  1 33  1  0  0  0
  2  3  1  0  0  0
  3  8  1  0  0  0
  3  4  2  0  0  0
  4  5  1  0  0  0
  4 34  1  0  0  0
  5 14  2  0  0  0
  5  6  1  0  0  0
  6  7  1  0  0  0
  6 11  2  0  0  0
  7  8  2  0  0  0
  7 35  1  0  0  0
  8  9  1  0  0  0
  9 10  1  0  0  0
 10 36  1  0  0  0
 10 37  1  0  0  0
 10 38  1  0  0  0
 11 12  1  0  0  0
 12 13  2  0  0  0
 12 39  1  0  0  0
 13 14  1  0  0  0
 13 29  1  0  0  0
 14 15  1  0  0  0
 15 16  1  0  0  0
 15 40  1  0  0  0
 16 21  1  0  0  0
 16 17  2  0  0  0
 17 18  1  0  0  0
 17 41  1  0  0  0
 18 19  2  0  0  0
 18 42  1  0  0  0
 19 20  1  0  0  0
 19 43  1  0  0  0
 20 21  2  0  0  0
 20 22  1  0  0  0
 21 44  1  0  0  0
 22 23  1  0  0  0
 23 28  1  0  0  0
 23 24  2  0  0  0
 24 25  1  0  0  0
 24 45  1  0  0  0
 25 26  2  0  0  0
 25 46  1  0  0  0
 26 27  1  0  0  0
 26 47  1  0  0  0
 27 28  2  0  0  0
 27 48  1  0  0  0
 28 49  1  0  0  0
 29 30  3  0  0  0
M  END
> <s_m_entry_id>
66044

> <s_m_entry_name>
ligand_docking-pose.100

> <s_m_Source_Path>
/home/csk/Desktop/cluster/DUD-E-result/mp2k1

> <s_m_Source_File>
ligand_docking-pose.sdf

> <i_m_Source_File_Index>
100

> <i_lp_mmshare_version>
53161

> <r_lp_tautomer_probability>
1

> <s_lp_Force_Field>
OPLS_2005

> <r_lp_Energy>
37.615875

> <b_lp_Chiralities_Consistent>
1

> <s_lp_Variant>
44064-1

> <s_i_glide_gridfile>
glide-grid_3eqh

> <i_i_glide_lignum>
393

> <i_i_glide_rotatable_bonds>
6

> <r_i_docking_score>
-7.68313335389008

> <r_i_glide_ligand_efficiency>
-0.256104445129669

> <r_i_glide_ligand_efficiency_sa>
-0.795776055923988

> <r_i_glide_ligand_efficiency_ln>
-1.74569161244672

> <r_i_glide_gscore>
-7.68313335389008

> <r_i_glide_lipo>
-3.69062307448924

> <r_i_glide_hbond>
-0.457299072382766

> <r_i_glide_metal>
0

> <r_i_glide_rewards>
-0.991520294125942

> <r_i_glide_evdw>
-48.3582992553711

> <r_i_glide_ecoul>
-4.09681272506714

> <r_i_glide_erotb>
0.495725656912014

> <r_i_glide_esite>
-0.00697969827552682

> <r_i_glide_emodel>
-65.209843731475

> <r_i_glide_energy>
-52.4551119804382

> <r_i_glide_einternal>
15.7568759918213

> <i_i_glide_confnum>
5

> <i_i_glide_posenum>
30

> <r_i_glide_eff_state_penalty>
0

> <i_f3d_flags>
0

> <s_user_duplicate_titles>
44064

> <s_m_subgroup_title>
dock_pv

> <s_m_subgroupid>
dock_pv1

> <b_m_subgroup_collapsed>
0

$$$$
156270
                    3D
 Schrodinger Suite 2021-1.
 45 48  0  0  1  0            999 V2000
   -4.4082   52.6702   29.4563 C   0  0  0  0  0  0
   -5.4614   51.9482   30.0885 O   0  0  0  0  0  0
   -6.2005   52.5580   31.0857 C   0  0  0  0  0  0
   -7.2571   51.8222   31.6158 C   0  0  0  0  0  0
   -8.0973   52.3582   32.5857 C   0  0  0  0  0  0
   -7.8931   53.6753   33.0561 C   0  0  0  0  0  0
   -6.7948   54.4429   32.5591 C   0  0  0  0  0  0
   -5.9538   53.8488   31.5722 C   0  0  0  0  0  0
   -6.6035   55.7688   33.0762 C   0  0  0  0  0  0
   -7.5715   56.2791   33.9680 C   0  0  0  0  0  0
   -8.6108   55.4467   34.3839 C   0  0  0  0  0  0
   -8.7705   54.1707   33.9666 N   0  0  0  0  0  0
   -7.5702   57.6570   34.4489 C   0  0  0  0  0  0
   -7.5642   58.7492   34.8327 N   0  0  0  0  0  0
   -5.5077   56.5356   32.6253 N   0  0  0  0  0  0
   -4.3058   56.8042   33.3035 C   0  0  0  0  0  0
   -3.1275   56.7482   32.5630 C   0  0  0  0  0  0
   -1.9169   57.1041   33.1467 C   0  0  0  0  0  0
   -1.8695   57.5248   34.4770 C   0  0  0  0  0  0
   -3.0350   57.5152   35.2418 C   0  0  0  0  0  0
   -4.2474   57.1515   34.6568 C   0  0  0  0  0  0
   -0.6851   57.9190   35.0564 O   0  0  0  0  0  0
   -0.0034   58.9655   34.4785 C   0  0  0  0  0  0
    1.0070   58.7187   33.5449 C   0  0  0  0  0  0
    1.6743   59.7805   32.9386 C   0  0  0  0  0  0
    1.3432   61.0885   33.2876 C   0  0  0  0  0  0
    0.3490   61.3405   34.2326 C   0  0  0  0  0  0
   -0.3255   60.2775   34.8287 C   0  0  0  0  0  0
   -3.9486   52.0368   28.6971 H   0  0  0  0  0  0
   -3.6268   52.9541   30.1623 H   0  0  0  0  0  0
   -4.7829   53.5665   28.9583 H   0  0  0  0  0  0
   -7.4381   50.8214   31.2536 H   0  0  0  0  0  0
   -8.9216   51.7776   32.9758 H   0  0  0  0  0  0
   -5.1265   54.4225   31.1867 H   0  0  0  0  0  0
   -9.3682   55.7954   35.0711 H   0  0  0  0  0  0
   -5.3316   56.3725   31.6442 H   0  0  0  0  0  0
   -3.1467   56.4607   31.5233 H   0  0  0  0  0  0
   -1.0115   57.0783   32.5635 H   0  0  0  0  0  0
   -2.9980   57.7983   36.2830 H   0  0  0  0  0  0
   -5.1303   57.1522   35.2706 H   0  0  0  0  0  0
    1.2517   57.7028   33.2734 H   0  0  0  0  0  0
    2.4465   59.5912   32.2048 H   0  0  0  0  0  0
    1.8637   61.9123   32.8193 H   0  0  0  0  0  0
    0.0954   62.3541   34.4997 H   0  0  0  0  0  0
   -1.1106   60.4690   35.5451 H   0  0  0  0  0  0
  1  2  1  0  0  0
  1 29  1  0  0  0
  1 30  1  0  0  0
  1 31  1  0  0  0
  2  3  1  0  0  0
  3  8  1  0  0  0
  3  4  2  0  0  0
  4  5  1  0  0  0
  4 32  1  0  0  0
  5  6  2  0  0  0
  5 33  1  0  0  0
  6 12  1  0  0  0
  6  7  1  0  0  0
  7  8  2  0  0  0
  7  9  1  0  0  0
  8 34  1  0  0  0
  9 10  2  0  0  0
  9 15  1  0  0  0
 10 11  1  0  0  0
 10 13  1  0  0  0
 11 12  2  0  0  0
 11 35  1  0  0  0
 13 14  3  0  0  0
 15 16  1  0  0  0
 15 36  1  0  0  0
 16 21  1  0  0  0
 16 17  2  0  0  0
 17 18  1  0  0  0
 17 37  1  0  0  0
 18 19  2  0  0  0
 18 38  1  0  0  0
 19 20  1  0  0  0
 19 22  1  0  0  0
 20 21  2  0  0  0
 20 39  1  0  0  0
 21 40  1  0  0  0
 22 23  1  0  0  0
 23 28  1  0  0  0
 23 24  2  0  0  0
 24 25  1  0  0  0
 24 41  1  0  0  0
 25 26  2  0  0  0
 25 42  1  0  0  0
 26 27  1  0  0  0
 26 43  1  0  0  0
 27 28  2  0  0  0
 27 44  1  0  0  0
 28 45  1  0  0  0
M  END
> <s_m_entry_id>
66045

> <s_m_entry_name>
ligand_docking-pose.101

> <s_m_Source_Path>
/home/csk/Desktop/cluster/DUD-E-result/mp2k1

> <s_m_Source_File>
ligand_docking-pose.sdf

> <i_m_Source_File_Index>
101

> <i_lp_mmshare_version>
53161

> <r_lp_tautomer_probability>
1

> <s_lp_Force_Field>
OPLS_2005

> <r_lp_Energy>
33.903732

> <b_lp_Chiralities_Consistent>
1

> <s_lp_Variant>
156270-1

> <s_i_glide_gridfile>
glide-grid_3eqh

> <i_i_glide_lignum>
396

> <i_i_glide_rotatable_bonds>
5

> <r_i_docking_score>
-7.67286499661412

> <r_i_glide_ligand_efficiency>
-0.274030892736219

> <r_i_glide_ligand_efficiency_sa>
-0.832119185911781

> <r_i_glide_ligand_efficiency_ln>
-1.77112252632409

> <r_i_glide_gscore>
-7.67286499661412

> <r_i_glide_lipo>
-3.93358262103229

> <r_i_glide_hbond>
-0.0376732255028786

> <r_i_glide_metal>
0

> <r_i_glide_rewards>
-1.28850185040195

> <r_i_glide_evdw>
-46.4765968322754

> <r_i_glide_ecoul>
-4.3997654914856

> <r_i_glide_erotb>
0.570687365659601

> <r_i_glide_esite>
0

> <r_i_glide_emodel>
-71.0061282336826

> <r_i_glide_energy>
-50.876362323761

> <r_i_glide_einternal>
7.79461431503296

> <i_i_glide_confnum>
25

> <i_i_glide_posenum>
135

> <r_i_glide_eff_state_penalty>
0

> <i_f3d_flags>
0

> <s_user_duplicate_titles>
156270

> <s_m_subgroup_title>
dock_pv

> <s_m_subgroupid>
dock_pv1

> <b_m_subgroup_collapsed>
0

$$$$
51699
                    3D
 Schrodinger Suite 2021-1.
 44 46  0  0  1  0            999 V2000
    1.6604   61.0717   33.7586 C   0  0  0  0  0  0
    2.0731   60.0141   32.9552 C   0  0  0  0  0  0
    1.4982   58.7574   33.1229 C   0  0  0  0  0  0
    0.4853   58.5518   34.0675 C   0  0  0  0  0  0
    0.1292   59.6107   34.9172 C   0  0  0  0  0  0
    0.6934   60.8723   34.7408 C   0  0  0  0  0  0
   -0.1501   57.1926   34.1739 C   0  0  0  0  0  0
    0.5724   56.1906   34.1564 O   0  0  0  0  0  0
   -1.6498   57.0250   34.1000 C   0  0  0  0  0  0
   -2.5169   58.1231   34.1550 C   0  0  0  0  0  0
   -3.8852   57.9480   34.0234 C   0  0  0  0  0  0
   -4.4358   56.6897   33.8148 C   0  0  0  0  0  0
   -3.5868   55.5788   33.7715 C   0  0  0  0  0  0
   -2.2077   55.7450   33.9263 C   0  0  0  0  0  0
   -5.9025   56.6116   33.6223 C   0  0  0  0  0  0
   -6.5149   55.9427   32.6210 C   0  0  0  0  0  0
   -5.8986   55.2393   31.6170 N   0  0  0  0  0  0
   -8.2929   55.9490   32.4329 S   0  0  0  0  0  0
   -8.6746   54.2433   32.1319 C   0  0  0  0  0  0
   -8.4020   53.3029   33.1324 C   0  0  0  0  0  0
   -8.7244   51.9606   32.9352 C   0  0  0  0  0  0
   -9.3124   51.5536   31.7388 C   0  0  0  0  0  0
   -9.5801   52.4874   30.7363 C   0  0  0  0  0  0
   -9.2647   53.8362   30.9233 C   0  0  0  0  0  0
   -9.5274   54.7423   29.8909 N   0  0  0  0  0  0
   -6.6707   57.3246   34.5959 C   0  0  0  0  0  0
   -7.2619   57.9481   35.3700 N   0  0  0  0  0  0
    2.1012   62.0482   33.6280 H   0  0  0  0  0  0
    2.8311   60.1645   32.1997 H   0  0  0  0  0  0
    1.8245   57.9491   32.4861 H   0  0  0  0  0  0
   -0.6023   59.4739   35.7022 H   0  0  0  0  0  0
    0.3869   61.6985   35.3629 H   0  0  0  0  0  0
   -2.1807   59.1441   34.2357 H   0  0  0  0  0  0
   -4.5173   58.8217   34.0301 H   0  0  0  0  0  0
   -3.9924   54.5880   33.6270 H   0  0  0  0  0  0
   -1.5788   54.8664   33.8859 H   0  0  0  0  0  0
   -4.8937   55.2449   31.5221 H   0  0  0  0  0  0
   -6.4409   54.8655   30.8501 H   0  0  0  0  0  0
   -7.9516   53.6165   34.0625 H   0  0  0  0  0  0
   -8.5161   51.2367   33.7113 H   0  0  0  0  0  0
   -9.5650   50.5128   31.5913 H   0  0  0  0  0  0
  -10.0252   52.1587   29.8105 H   0  0  0  0  0  0
   -9.1543   55.6824   29.9608 H   0  0  0  0  0  0
   -9.9172   54.4190   29.0193 H   0  0  0  0  0  0
  1  6  1  0  0  0
  1  2  2  0  0  0
  1 28  1  0  0  0
  2  3  1  0  0  0
  2 29  1  0  0  0
  3  4  2  0  0  0
  3 30  1  0  0  0
  4  5  1  0  0  0
  4  7  1  0  0  0
  5  6  2  0  0  0
  5 31  1  0  0  0
  6 32  1  0  0  0
  7  8  2  0  0  0
  7  9  1  0  0  0
  9 14  1  0  0  0
  9 10  2  0  0  0
 10 11  1  0  0  0
 10 33  1  0  0  0
 11 12  2  0  0  0
 11 34  1  0  0  0
 12 13  1  0  0  0
 12 15  1  0  0  0
 13 14  2  0  0  0
 13 35  1  0  0  0
 14 36  1  0  0  0
 15 16  2  0  0  0
 15 26  1  0  0  0
 16 17  1  0  0  0
 16 18  1  0  0  0
 17 37  1  0  0  0
 17 38  1  0  0  0
 18 19  1  0  0  0
 19 24  1  0  0  0
 19 20  2  0  0  0
 20 21  1  0  0  0
 20 39  1  0  0  0
 21 22  2  0  0  0
 21 40  1  0  0  0
 22 23  1  0  0  0
 22 41  1  0  0  0
 23 24  2  0  0  0
 23 42  1  0  0  0
 24 25  1  0  0  0
 25 43  1  0  0  0
 25 44  1  0  0  0
 26 27  3  0  0  0
M  END
> <s_m_entry_id>
66046

> <s_m_entry_name>
ligand_docking-pose.102

> <s_m_Source_Path>
/home/csk/Desktop/cluster/DUD-E-result/mp2k1

> <s_m_Source_File>
ligand_docking-pose.sdf

> <i_m_Source_File_Index>
102

> <i_lp_mmshare_version>
53161

> <r_lp_tautomer_probability>
0.499999974950001

> <s_lp_Force_Field>
OPLS_2005

> <r_lp_Energy>
33.975518

> <b_lp_Chiralities_Consistent>
1

> <s_lp_Variant>
51699-1

> <s_i_glide_gridfile>
glide-grid_3eqh

> <i_i_glide_lignum>
38

> <i_i_glide_rotatable_bonds>
5

> <r_i_docking_score>
-7.66995567783153

> <r_i_glide_ligand_efficiency>
-0.284072432512279

> <r_i_glide_ligand_efficiency_sa>
-0.852217296600581

> <r_i_glide_ligand_efficiency_ln>
-1.7854392326973

> <r_i_glide_gscore>
-7.66995567783153

> <r_i_glide_lipo>
-4.14877407586644

> <r_i_glide_hbond>
0

> <r_i_glide_metal>
0

> <r_i_glide_rewards>
-1.13709285409066

> <r_i_glide_evdw>
-45.2696113586426

> <r_i_glide_ecoul>
-5.27685308456421

> <r_i_glide_erotb>
0.699500122077282

> <r_i_glide_esite>
-0.0285803393349466

> <r_i_glide_emodel>
-70.115438463056

> <r_i_glide_energy>
-50.5464644432068

> <r_i_glide_einternal>
9.122239112854

> <i_i_glide_confnum>
235

> <i_i_glide_posenum>
318

> <r_i_glide_eff_state_penalty>
0

> <i_f3d_flags>
0

> <s_user_duplicate_titles>
51699

> <s_m_subgroup_title>
dock_pv

> <s_m_subgroupid>
dock_pv1

> <b_m_subgroup_collapsed>
0

$$$$
337989
                    3D
 Schrodinger Suite 2021-1.
 44 47  0  0  1  0            999 V2000
   -5.2886   53.4140   32.5202 C   0  0  0  0  0  0
   -6.6910   53.7816   32.9646 C   0  0  0  0  0  0
   -7.7199   52.9180   33.3496 C   0  0  0  0  0  0
   -8.8209   53.6682   33.7235 C   0  0  0  0  0  0
   -8.5435   54.9941   33.5327 N   0  0  0  0  0  0
   -7.2278   55.1060   33.0408 C   0  0  0  0  0  0
   -6.7892   56.4194   32.7421 C   0  0  0  0  0  0
   -7.6928   57.4898   32.9181 C   0  0  0  0  0  0
   -8.9598   57.2243   33.4363 C   0  0  0  0  0  0
   -9.4113   55.9910   33.7613 N   0  0  0  0  0  0
   -7.3745   58.8714   32.5630 C   0  0  0  0  0  0
   -7.1261   59.9661   32.2771 N   0  0  0  0  0  0
   -5.4972   56.6008   32.2201 N   0  0  0  0  0  0
   -4.3179   56.7482   32.9643 C   0  0  0  0  0  0
   -4.3206   57.3200   34.2417 C   0  0  0  0  0  0
   -3.1140   57.5784   34.8907 C   0  0  0  0  0  0
   -1.9076   57.2653   34.2646 C   0  0  0  0  0  0
   -1.9089   56.6275   33.0248 C   0  0  0  0  0  0
   -3.1123   56.3715   32.3736 C   0  0  0  0  0  0
   -0.7169   57.5918   34.8661 O   0  0  0  0  0  0
   -0.0942   58.7381   34.4292 C   0  0  0  0  0  0
    0.8621   58.6736   33.4130 C   0  0  0  0  0  0
    1.4833   59.8358   32.9605 C   0  0  0  0  0  0
    1.1486   61.0616   33.5336 C   0  0  0  0  0  0
    0.2004   61.1335   34.5520 C   0  0  0  0  0  0
   -0.4178   59.9692   35.0025 C   0  0  0  0  0  0
   -7.6681   51.5595   33.3686 N   0  0  0  0  0  0
   -5.0675   53.8005   31.5257 H   0  0  0  0  0  0
   -5.1264   52.3374   32.4832 H   0  0  0  0  0  0
   -4.5382   53.8216   33.1971 H   0  0  0  0  0  0
   -9.7841   53.3432   34.0867 H   0  0  0  0  0  0
   -9.6734   58.0230   33.5933 H   0  0  0  0  0  0
   -5.4993   57.2305   31.4286 H   0  0  0  0  0  0
   -5.2496   57.5944   34.7163 H   0  0  0  0  0  0
   -3.1053   58.0443   35.8649 H   0  0  0  0  0  0
   -0.9709   56.3635   32.5616 H   0  0  0  0  0  0
   -3.1053   55.9243   31.3899 H   0  0  0  0  0  0
    1.1095   57.7247   32.9632 H   0  0  0  0  0  0
    2.2144   59.7841   32.1671 H   0  0  0  0  0  0
    1.6281   61.9640   33.1827 H   0  0  0  0  0  0
   -0.0599   62.0880   34.9861 H   0  0  0  0  0  0
   -1.1610   60.0220   35.7843 H   0  0  0  0  0  0
   -8.4489   51.0065   33.6866 H   0  0  0  0  0  0
   -6.8192   51.0614   33.1467 H   0  0  0  0  0  0
  1  2  1  0  0  0
  1 28  1  0  0  0
  1 29  1  0  0  0
  1 30  1  0  0  0
  2  6  2  0  0  0
  2  3  1  0  0  0
  3  4  2  0  0  0
  3 27  1  0  0  0
  4  5  1  0  0  0
  4 31  1  0  0  0
  5 10  1  0  0  0
  5  6  1  0  0  0
  6  7  1  0  0  0
  7  8  2  0  0  0
  7 13  1  0  0  0
  8  9  1  0  0  0
  8 11  1  0  0  0
  9 10  2  0  0  0
  9 32  1  0  0  0
 11 12  3  0  0  0
 13 14  1  0  0  0
 13 33  1  0  0  0
 14 19  1  0  0  0
 14 15  2  0  0  0
 15 16  1  0  0  0
 15 34  1  0  0  0
 16 17  2  0  0  0
 16 35  1  0  0  0
 17 18  1  0  0  0
 17 20  1  0  0  0
 18 19  2  0  0  0
 18 36  1  0  0  0
 19 37  1  0  0  0
 20 21  1  0  0  0
 21 26  1  0  0  0
 21 22  2  0  0  0
 22 23  1  0  0  0
 22 38  1  0  0  0
 23 24  2  0  0  0
 23 39  1  0  0  0
 24 25  1  0  0  0
 24 40  1  0  0  0
 25 26  2  0  0  0
 25 41  1  0  0  0
 26 42  1  0  0  0
 27 43  1  0  0  0
 27 44  1  0  0  0
M  END
> <s_m_entry_id>
66047

> <s_m_entry_name>
ligand_docking-pose.103

> <s_m_Source_Path>
/home/csk/Desktop/cluster/DUD-E-result/mp2k1

> <s_m_Source_File>
ligand_docking-pose.sdf

> <i_m_Source_File_Index>
103

> <i_lp_mmshare_version>
53161

> <r_lp_tautomer_probability>
1

> <s_lp_Force_Field>
OPLS_2005

> <r_lp_Energy>
27.985535

> <b_lp_Chiralities_Consistent>
1

> <s_lp_Variant>
337989-1

> <s_i_glide_gridfile>
glide-grid_3eqh

> <i_i_glide_lignum>
171

> <i_i_glide_rotatable_bonds>
4

> <r_i_docking_score>
-7.66406910743247

> <r_i_glide_ligand_efficiency>
-0.283854411386388

> <r_i_glide_ligand_efficiency_sa>
-0.851563233223626

> <r_i_glide_ligand_efficiency_ln>
-1.78406893615609

> <r_i_glide_gscore>
-7.66406910743247

> <r_i_glide_lipo>
-3.65199953757305

> <r_i_glide_hbond>
0

> <r_i_glide_metal>
0

> <r_i_glide_rewards>
-1.26284513186022

> <r_i_glide_evdw>
-49.263053894043

> <r_i_glide_ecoul>
-5.61100339889526

> <r_i_glide_erotb>
0.605524569202717

> <r_i_glide_esite>
-0.0499458026654769

> <r_i_glide_emodel>
-76.8594757770743

> <r_i_glide_energy>
-54.8740572929382

> <r_i_glide_einternal>
8.03339195251465

> <i_i_glide_confnum>
5

> <i_i_glide_posenum>
67

> <r_i_glide_eff_state_penalty>
0

> <i_f3d_flags>
0

> <s_user_duplicate_titles>
337989

> <s_m_subgroup_title>
dock_pv

> <s_m_subgroupid>
dock_pv1

> <b_m_subgroup_collapsed>
0

$$$$
363005
                    3D
 Schrodinger Suite 2021-1.
 49 51  0  0  1  0            999 V2000
   -7.8103   59.0818   34.7673 C   0  0  0  0  0  0
   -8.4445   58.5489   33.4637 C   0  0  1  0  0  0
   -8.3826   59.5839   32.3103 C   0  0  0  0  0  0
   -7.1261   60.2373   32.1629 O   0  0  0  0  0  0
   -7.7893   57.3111   33.0503 N   0  0  0  0  0  0
   -8.0800   56.2055   33.6300 C   0  0  0  0  0  0
   -7.3713   54.9710   33.2014 C   0  0  0  0  0  0
   -7.8511   53.6457   33.3193 C   0  0  0  0  0  0
   -7.0675   52.6470   32.9821 N   0  0  0  0  0  0
   -5.5932   53.2821   32.4131 S   0  0  0  0  0  0
   -6.0888   54.9308   32.6365 C   0  0  0  0  0  0
   -5.2990   55.9902   32.2616 N   0  0  0  0  0  0
   -4.0713   56.3130   32.8483 C   0  0  0  0  0  0
   -2.9582   55.4690   32.7901 C   0  0  0  0  0  0
   -1.7553   55.8687   33.3675 C   0  0  0  0  0  0
   -1.6676   57.1136   33.9936 C   0  0  0  0  0  0
   -2.7803   57.9479   34.0652 C   0  0  0  0  0  0
   -3.9789   57.5470   33.4883 C   0  0  0  0  0  0
   -0.1515   57.6266   34.7819 S   0  0  0  0  0  0
   -0.5168   57.9481   36.1626 O   0  0  0  0  0  0
    0.8739   56.6170   34.4875 O   0  0  0  0  0  0
    0.3487   59.1698   34.0336 C   0  0  0  0  0  0
   -0.2077   60.3667   34.4912 C   0  0  0  0  0  0
    0.2090   61.5758   33.9451 C   0  0  0  0  0  0
    1.1968   61.5856   32.9639 C   0  0  0  0  0  0
    1.7561   60.3914   32.5180 C   0  0  0  0  0  0
    1.3254   59.1790   33.0403 C   0  0  0  0  0  0
   -9.0938   53.2747   33.7606 O   0  0  0  0  0  0
   -8.9509   55.9637   34.6746 N   0  0  0  0  0  0
   -8.1971   60.0726   35.0169 H   0  0  0  0  0  0
   -8.0172   58.4326   35.6183 H   0  0  0  0  0  0
   -6.7282   59.1446   34.6568 H   0  0  0  0  0  0
   -9.5077   58.3713   33.6477 H   0  0  0  0  0  0
   -9.1260   60.3481   32.5050 H   0  0  0  0  0  0
   -8.6652   59.1223   31.3633 H   0  0  0  0  0  0
   -6.4967   59.5477   31.9171 H   0  0  0  0  0  0
   -5.8250   56.8310   32.0625 H   0  0  0  0  0  0
   -3.0127   54.5156   32.2904 H   0  0  0  0  0  0
   -0.9014   55.2082   33.3430 H   0  0  0  0  0  0
   -2.7190   58.9058   34.5612 H   0  0  0  0  0  0
   -4.8372   58.1996   33.5396 H   0  0  0  0  0  0
   -0.9619   60.3660   35.2647 H   0  0  0  0  0  0
   -0.2294   62.5008   34.2890 H   0  0  0  0  0  0
    1.5367   62.5238   32.5495 H   0  0  0  0  0  0
    2.5244   60.3989   31.7631 H   0  0  0  0  0  0
    1.7598   58.2576   32.6798 H   0  0  0  0  0  0
   -9.6350   54.0597   33.8606 H   0  0  0  0  0  0
   -9.4772   56.7314   35.0627 H   0  0  0  0  0  0
   -8.8180   55.1453   35.2500 H   0  0  0  0  0  0
  1  2  1  0  0  0
  1 30  1  0  0  0
  1 31  1  0  0  0
  1 32  1  0  0  0
  2  3  1  0  0  0
  2  5  1  0  0  0
  2 33  1  0  0  0
  3  4  1  0  0  0
  3 34  1  0  0  0
  3 35  1  0  0  0
  4 36  1  0  0  0
  5  6  2  0  0  0
  6  7  1  0  0  0
  6 29  1  0  0  0
  7 11  2  0  0  0
  7  8  1  0  0  0
  8  9  2  0  0  0
  8 28  1  0  0  0
  9 10  1  0  0  0
 10 11  1  0  0  0
 11 12  1  0  0  0
 12 13  1  0  0  0
 12 37  1  0  0  0
 13 18  1  0  0  0
 13 14  2  0  0  0
 14 15  1  0  0  0
 14 38  1  0  0  0
 15 16  2  0  0  0
 15 39  1  0  0  0
 16 17  1  0  0  0
 16 19  1  0  0  0
 17 18  2  0  0  0
 17 40  1  0  0  0
 18 41  1  0  0  0
 19 20  2  0  0  0
 19 21  2  0  0  0
 19 22  1  0  0  0
 22 27  1  0  0  0
 22 23  2  0  0  0
 23 24  1  0  0  0
 23 42  1  0  0  0
 24 25  2  0  0  0
 24 43  1  0  0  0
 25 26  1  0  0  0
 25 44  1  0  0  0
 26 27  2  0  0  0
 26 45  1  0  0  0
 27 46  1  0  0  0
 28 47  1  0  0  0
 29 48  1  0  0  0
 29 49  1  0  0  0
M  END
> <s_m_entry_id>
66048

> <s_m_entry_name>
ligand_docking-pose.104

> <s_m_Source_Path>
/home/csk/Desktop/cluster/DUD-E-result/mp2k1

> <s_m_Source_File>
ligand_docking-pose.sdf

> <i_m_Source_File_Index>
104

> <i_lp_mmshare_version>
53161

> <r_lp_tautomer_probability>
1

> <s_lp_Force_Field>
OPLS_2005

> <r_lp_Energy>
19.591624

> <b_lp_Chiralities_Consistent>
1

> <s_lp_Variant>
363005-2

> <s_i_glide_gridfile>
glide-grid_3eqh

> <i_i_glide_lignum>
282

> <i_i_glide_rotatable_bonds>
9

> <r_i_docking_score>
-7.65725108127572

> <r_i_glide_ligand_efficiency>
-0.264043140733646

> <r_i_glide_ligand_efficiency_sa>
-0.811224183072371

> <r_i_glide_ligand_efficiency_ln>
-1.75331632647826

> <r_i_glide_gscore>
-7.65725108127572

> <r_i_glide_lipo>
-3.81693425547789

> <r_i_glide_hbond>
0

> <r_i_glide_metal>
0

> <r_i_glide_rewards>
-0.813992270987107

> <r_i_glide_evdw>
-49.3993225097656

> <r_i_glide_ecoul>
-8.67307567596436

> <r_i_glide_erotb>
0.744602922072211

> <r_i_glide_esite>
0

> <r_i_glide_emodel>
-79.0164411995685

> <r_i_glide_energy>
-58.07239818573

> <r_i_glide_einternal>
14.4178943634033

> <i_i_glide_confnum>
120

> <i_i_glide_posenum>
69

> <r_i_glide_eff_state_penalty>
0

> <i_f3d_flags>
0

> <s_user_duplicate_titles>
363005

> <s_m_subgroup_title>
dock_pv

> <s_m_subgroupid>
dock_pv1

> <b_m_subgroup_collapsed>
0

$$$$
333693
                    3D
 Schrodinger Suite 2021-1.
 43 46  0  0  1  0            999 V2000
   -3.1496   57.9566   35.3498 C   0  0  0  0  0  0
   -1.7994   57.5554   34.7618 C   0  0  0  0  0  0
   -0.7750   58.6261   34.6719 C   0  0  0  0  0  0
   -0.9598   59.9474   35.0987 C   0  0  0  0  0  0
   -0.0059   60.9237   34.8110 C   0  0  0  0  0  0
    1.1508   60.5943   34.0976 C   0  0  0  0  0  0
    1.3889   59.2622   33.7605 C   0  0  0  0  0  0
    0.4350   58.2919   34.0587 C   0  0  0  0  0  0
    0.7498   56.9881   33.7426 O   0  0  0  0  0  0
   -0.1772   55.9770   33.7648 C   0  0  0  0  0  0
    0.2576   54.8820   33.4104 O   0  0  0  0  0  0
   -1.5297   56.3074   34.2897 C   0  0  0  0  0  0
   -2.4927   55.1092   34.3611 C   0  0  0  0  0  0
   -3.3919   54.8711   33.1468 C   0  0  0  0  0  0
   -4.4361   53.9489   33.2731 C   0  0  0  0  0  0
   -5.2867   53.7000   32.1996 C   0  0  0  0  0  0
   -5.0936   54.3749   30.9963 C   0  0  0  0  0  0
   -4.0584   55.2969   30.8586 C   0  0  0  0  0  0
   -3.2079   55.5459   31.9319 C   0  0  0  0  0  0
    2.0744   61.5518   33.7515 O   0  0  0  0  0  0
    1.7657   62.4811   32.7946 C   0  0  0  0  0  0
    0.7101   62.5553   32.1630 O   0  0  0  0  0  0
    2.8719   63.5157   32.5485 C   0  0  0  0  0  0
    3.9139   63.7407   33.6336 C   0  0  0  0  0  0
    4.3029   63.0204   32.3824 C   0  0  0  0  0  0
   -3.9073   57.1778   35.2969 H   0  0  0  0  0  0
   -3.0388   58.2470   36.3947 H   0  0  0  0  0  0
   -3.5380   58.8015   34.7835 H   0  0  0  0  0  0
   -1.8667   60.2536   35.5966 H   0  0  0  0  0  0
   -0.1889   61.9476   35.1029 H   0  0  0  0  0  0
    2.2945   58.9830   33.2446 H   0  0  0  0  0  0
   -1.9385   54.1874   34.5494 H   0  0  0  0  0  0
   -3.1242   55.2064   35.2447 H   0  0  0  0  0  0
   -4.5945   53.4294   34.2073 H   0  0  0  0  0  0
   -6.0958   52.9919   32.3014 H   0  0  0  0  0  0
   -5.7573   54.1895   30.1645 H   0  0  0  0  0  0
   -3.9197   55.8265   29.9269 H   0  0  0  0  0  0
   -2.4157   56.2681   31.8026 H   0  0  0  0  0  0
    2.5427   64.3468   31.9235 H   0  0  0  0  0  0
    3.8598   63.1785   34.5632 H   0  0  0  0  0  0
    4.2826   64.7481   33.7892 H   0  0  0  0  0  0
    4.9531   63.5285   31.6693 H   0  0  0  0  0  0
    4.4938   61.9483   32.4040 H   0  0  0  0  0  0
  1  2  1  0  0  0
  1 26  1  0  0  0
  1 27  1  0  0  0
  1 28  1  0  0  0
  2 12  2  0  0  0
  2  3  1  0  0  0
  3  8  2  0  0  0
  3  4  1  0  0  0
  4  5  2  0  0  0
  4 29  1  0  0  0
  5  6  1  0  0  0
  5 30  1  0  0  0
  6  7  2  0  0  0
  6 20  1  0  0  0
  7  8  1  0  0  0
  7 31  1  0  0  0
  8  9  1  0  0  0
  9 10  1  0  0  0
 10 11  2  0  0  0
 10 12  1  0  0  0
 12 13  1  0  0  0
 13 14  1  0  0  0
 13 32  1  0  0  0
 13 33  1  0  0  0
 14 19  1  0  0  0
 14 15  2  0  0  0
 15 16  1  0  0  0
 15 34  1  0  0  0
 16 17  2  0  0  0
 16 35  1  0  0  0
 17 18  1  0  0  0
 17 36  1  0  0  0
 18 19  2  0  0  0
 18 37  1  0  0  0
 19 38  1  0  0  0
 20 21  1  0  0  0
 21 22  2  0  0  0
 21 23  1  0  0  0
 23 25  1  0  0  0
 23 24  1  0  0  0
 23 39  1  0  0  0
 24 25  1  0  0  0
 24 40  1  0  0  0
 24 41  1  0  0  0
 25 42  1  0  0  0
 25 43  1  0  0  0
M  END
> <s_m_entry_id>
66049

> <s_m_entry_name>
ligand_docking-pose.105

> <s_m_Source_Path>
/home/csk/Desktop/cluster/DUD-E-result/mp2k1

> <s_m_Source_File>
ligand_docking-pose.sdf

> <i_m_Source_File_Index>
105

> <i_lp_mmshare_version>
53161

> <r_lp_tautomer_probability>
1

> <s_lp_Force_Field>
OPLS_2005

> <r_lp_Energy>
30.462699

> <b_lp_Chiralities_Consistent>
1

> <s_lp_Variant>
333693-1

> <s_i_glide_gridfile>
glide-grid_3eqh

> <i_i_glide_lignum>
128

> <i_i_glide_rotatable_bonds>
5

> <r_i_docking_score>
-7.64380735760602

> <r_i_glide_ligand_efficiency>
-0.305752294304241

> <r_i_glide_ligand_efficiency_sa>
-0.894025131085629

> <r_i_glide_ligand_efficiency_ln>
-1.81181141017461

> <r_i_glide_gscore>
-7.64380735760602

> <r_i_glide_lipo>
-3.91471826656176

> <r_i_glide_hbond>
-0.675245676084316

> <r_i_glide_metal>
0

> <r_i_glide_rewards>
-0.547437356585516

> <r_i_glide_evdw>
-45.2647743225098

> <r_i_glide_ecoul>
-7.2441234588623

> <r_i_glide_erotb>
0.843451176580397

> <r_i_glide_esite>
0

> <r_i_glide_emodel>
-69.5105013183197

> <r_i_glide_energy>
-52.5088977813721

> <r_i_glide_einternal>
3.49629497528076

> <i_i_glide_confnum>
2

> <i_i_glide_posenum>
104

> <r_i_glide_eff_state_penalty>
0

> <i_f3d_flags>
0

> <s_user_duplicate_titles>
333693

> <s_m_subgroup_title>
dock_pv

> <s_m_subgroupid>
dock_pv1

> <b_m_subgroup_collapsed>
0

$$$$
363027
                    3D
 Schrodinger Suite 2021-1.
 47 49  0  0  1  0            999 V2000
   -8.7144   58.1655   35.0566 C   0  0  0  0  0  0
   -8.3770   58.5207   33.5910 C   0  0  1  0  0  0
   -7.9565   59.9995   33.4685 C   0  0  0  0  0  0
   -7.5259   60.3479   32.1629 O   0  0  0  0  0  0
   -7.2724   57.6962   33.1175 N   0  0  0  0  0  0
   -7.4948   56.5329   32.6439 C   0  0  0  0  0  0
   -6.3402   55.7780   32.1158 C   0  0  0  0  0  0
   -6.3638   54.9496   30.9747 C   0  0  0  0  0  0
   -5.2764   54.3054   30.6243 N   0  0  0  0  0  0
   -4.0300   54.7480   31.6954 S   0  0  0  0  0  0
   -5.0456   55.7955   32.6459 C   0  0  0  0  0  0
   -4.6021   56.4743   33.7617 N   0  0  0  0  0  0
   -3.3401   56.9971   34.0828 C   0  0  0  0  0  0
   -3.1501   57.4448   35.3902 C   0  0  0  0  0  0
   -1.9539   58.0463   35.7631 C   0  0  0  0  0  0
   -0.9311   58.1974   34.8331 C   0  0  0  0  0  0
   -1.1061   57.7254   33.5305 C   0  0  0  0  0  0
   -2.3101   57.1478   33.1495 C   0  0  0  0  0  0
    0.2308   58.8234   35.2190 O   0  0  0  0  0  0
    0.6532   59.8780   34.4464 C   0  0  0  0  0  0
    1.6619   59.6648   33.5053 C   0  0  0  0  0  0
    2.0743   60.7034   32.6731 C   0  0  0  0  0  0
    1.4795   61.9596   32.7728 C   0  0  0  0  0  0
    0.4728   62.1748   33.7066 C   0  0  0  0  0  0
    0.0743   61.1495   34.5643 C   0  0  0  0  0  0
   -1.1257   61.4755   35.7655 Cl  0  0  0  0  0  0
    1.8730   62.9733   31.9712 F   0  0  0  0  0  0
   -7.4453   54.7480   30.1629 O   0  0  0  0  0  0
   -8.6659   55.8113   32.5628 N   0  0  0  0  0  0
   -9.5083   58.8069   35.4409 H   0  0  0  0  0  0
   -9.0587   57.1351   35.1522 H   0  0  0  0  0  0
   -7.8492   58.2843   35.7102 H   0  0  0  0  0  0
   -9.2729   58.3831   32.9778 H   0  0  0  0  0  0
   -7.1305   60.1946   34.1499 H   0  0  0  0  0  0
   -8.7723   60.6593   33.7627 H   0  0  0  0  0  0
   -7.1420   59.5389   31.7964 H   0  0  0  0  0  0
   -5.3014   56.7242   34.4453 H   0  0  0  0  0  0
   -3.9259   57.3334   36.1298 H   0  0  0  0  0  0
   -1.8198   58.3972   36.7746 H   0  0  0  0  0  0
   -0.3246   57.8499   32.7995 H   0  0  0  0  0  0
   -2.4301   56.8662   32.1162 H   0  0  0  0  0  0
    2.1100   58.6871   33.4119 H   0  0  0  0  0  0
    2.8555   60.5270   31.9517 H   0  0  0  0  0  0
    0.0094   63.1478   33.7630 H   0  0  0  0  0  0
   -7.8447   55.6146   30.0083 H   0  0  0  0  0  0
   -9.5224   56.1891   32.9348 H   0  0  0  0  0  0
   -8.6596   54.8798   32.1750 H   0  0  0  0  0  0
  1  2  1  0  0  0
  1 30  1  0  0  0
  1 31  1  0  0  0
  1 32  1  0  0  0
  2  3  1  0  0  0
  2  5  1  0  0  0
  2 33  1  0  0  0
  3  4  1  0  0  0
  3 34  1  0  0  0
  3 35  1  0  0  0
  4 36  1  0  0  0
  5  6  2  0  0  0
  6  7  1  0  0  0
  6 29  1  0  0  0
  7 11  2  0  0  0
  7  8  1  0  0  0
  8  9  2  0  0  0
  8 28  1  0  0  0
  9 10  1  0  0  0
 10 11  1  0  0  0
 11 12  1  0  0  0
 12 13  1  0  0  0
 12 37  1  0  0  0
 13 18  1  0  0  0
 13 14  2  0  0  0
 14 15  1  0  0  0
 14 38  1  0  0  0
 15 16  2  0  0  0
 15 39  1  0  0  0
 16 17  1  0  0  0
 16 19  1  0  0  0
 17 18  2  0  0  0
 17 40  1  0  0  0
 18 41  1  0  0  0
 19 20  1  0  0  0
 20 25  1  0  0  0
 20 21  2  0  0  0
 21 22  1  0  0  0
 21 42  1  0  0  0
 22 23  2  0  0  0
 22 43  1  0  0  0
 23 24  1  0  0  0
 23 27  1  0  0  0
 24 25  2  0  0  0
 24 44  1  0  0  0
 25 26  1  0  0  0
 28 45  1  0  0  0
 29 46  1  0  0  0
 29 47  1  0  0  0
M  END
> <s_m_entry_id>
66050

> <s_m_entry_name>
ligand_docking-pose.106

> <s_m_Source_Path>
/home/csk/Desktop/cluster/DUD-E-result/mp2k1

> <s_m_Source_File>
ligand_docking-pose.sdf

> <i_m_Source_File_Index>
106

> <i_lp_mmshare_version>
53161

> <r_lp_tautomer_probability>
1

> <s_lp_Force_Field>
OPLS_2005

> <r_lp_Energy>
25.259759

> <b_lp_Chiralities_Consistent>
1

> <s_lp_Variant>
363027-2

> <s_i_glide_gridfile>
glide-grid_3eqh

> <i_i_glide_lignum>
260

> <i_i_glide_rotatable_bonds>
9

> <r_i_docking_score>
-7.63947420134029

> <r_i_glide_ligand_efficiency>
-0.263430144873803

> <r_i_glide_ligand_efficiency_sa>
-0.809340865580216

> <r_i_glide_ligand_efficiency_ln>
-1.74924587175583

> <r_i_glide_gscore>
-7.63947420134029

> <r_i_glide_lipo>
-3.64657859799901

> <r_i_glide_hbond>
-0.125800865988155

> <r_i_glide_metal>
0

> <r_i_glide_rewards>
-0.821349994477479

> <r_i_glide_evdw>
-48.3290672302246

> <r_i_glide_ecoul>
-8.88165664672852

> <r_i_glide_erotb>
0.731155462141542

> <r_i_glide_esite>
-0.0281983464966826

> <r_i_glide_emodel>
-83.4849736830713

> <r_i_glide_energy>
-57.2107238769531

> <r_i_glide_einternal>
8.74868488311768

> <i_i_glide_confnum>
111

> <i_i_glide_posenum>
260

> <r_i_glide_eff_state_penalty>
0

> <i_f3d_flags>
0

> <s_user_duplicate_titles>
363027

> <s_m_subgroup_title>
dock_pv

> <s_m_subgroupid>
dock_pv1

> <b_m_subgroup_collapsed>
0

$$$$
412078
                    3D
 Schrodinger Suite 2021-1.
 41 44  0  0  1  0            999 V2000
   -6.4319   57.9476   34.2206 C   0  0  0  0  0  0
   -6.0174   57.2304   32.9263 C   0  0  2  0  0  0
   -7.2267   56.6173   32.1630 C   0  0  0  0  0  0
   -7.7172   55.3836   32.8114 N   0  0  0  0  0  0
   -6.9136   54.3556   33.1690 C   0  0  0  0  0  0
   -7.3911   53.2574   33.4430 O   0  0  0  0  0  0
   -5.5342   54.7855   33.2783 C   0  0  0  0  0  0
   -5.0542   56.0926   33.1986 C   0  0  0  0  0  0
   -3.6396   56.0602   33.4623 C   0  0  0  0  0  0
   -2.6075   57.0215   33.5375 C   0  0  0  0  0  0
   -1.3069   56.6112   33.8929 C   0  0  0  0  0  0
   -1.0697   55.2596   34.1628 C   0  0  0  0  0  0
   -2.0685   54.3073   34.1663 C   0  0  0  0  0  0
   -3.3328   54.7046   33.7626 C   0  0  0  0  0  0
   -4.4867   53.9714   33.6185 N   0  0  0  0  0  0
   -0.1548   57.5724   34.1048 C   0  0  0  0  0  0
    0.9001   57.1332   34.5620 O   0  0  0  0  0  0
   -0.3261   58.8676   33.7632 N   0  0  0  0  0  0
    0.6010   59.8886   33.9614 C   0  0  0  0  0  0
    0.6585   60.9465   33.1869 N   0  0  0  0  0  0
    1.5805   61.8165   33.5828 C   0  0  0  0  0  0
    2.2111   61.4978   34.7891 C   0  0  0  0  0  0
    1.6735   59.9480   35.3369 S   0  0  0  0  0  0
    1.7676   63.0291   32.8259 C   0  0  0  0  0  0
    0.8740   63.5441   32.1634 O   0  0  0  0  0  0
    2.9954   63.5478   32.8851 N   0  0  0  0  0  0
   -4.6189   52.9861   33.7944 H   0  0  0  0  0  0
   -5.5603   58.3455   34.7375 H   0  0  0  0  0  0
   -7.1095   58.7763   34.0143 H   0  0  0  0  0  0
   -6.9401   57.2684   34.9061 H   0  0  0  0  0  0
   -5.5363   57.9481   32.2627 H   0  0  0  0  0  0
   -8.0402   57.3362   32.0568 H   0  0  0  0  0  0
   -6.9119   56.3473   31.1541 H   0  0  0  0  0  0
   -8.7109   55.2312   32.8850 H   0  0  0  0  0  0
   -2.8425   58.0595   33.3615 H   0  0  0  0  0  0
   -0.0864   54.9216   34.4623 H   0  0  0  0  0  0
   -1.8692   53.3261   34.5629 H   0  0  0  0  0  0
   -1.1216   59.0896   33.1891 H   0  0  0  0  0  0
    2.9302   62.0630   35.3597 H   0  0  0  0  0  0
    3.2194   64.3801   32.3542 H   0  0  0  0  0  0
    3.7206   63.0729   33.3963 H   0  0  0  0  0  0
  1  2  1  0  0  0
  1 28  1  0  0  0
  1 29  1  0  0  0
  1 30  1  0  0  0
  2  8  1  0  0  0
  2  3  1  0  0  0
  2 31  1  0  0  0
  3  4  1  0  0  0
  3 32  1  0  0  0
  3 33  1  0  0  0
  4  5  1  0  0  0
  4 34  1  0  0  0
  5  6  2  0  0  0
  5  7  1  0  0  0
  7 15  1  0  0  0
  7  8  2  0  0  0
  8  9  1  0  0  0
  9 14  2  0  0  0
  9 10  1  0  0  0
 10 11  2  0  0  0
 10 35  1  0  0  0
 11 12  1  0  0  0
 11 16  1  0  0  0
 12 13  2  0  0  0
 12 36  1  0  0  0
 13 14  1  0  0  0
 13 37  1  0  0  0
 14 15  1  0  0  0
 15 27  1  0  0  0
 16 17  2  0  0  0
 16 18  1  0  0  0
 18 19  1  0  0  0
 18 38  1  0  0  0
 19 23  1  0  0  0
 19 20  2  0  0  0
 20 21  1  0  0  0
 21 22  2  0  0  0
 21 24  1  0  0  0
 22 23  1  0  0  0
 22 39  1  0  0  0
 24 25  2  0  0  0
 24 26  1  0  0  0
 26 40  1  0  0  0
 26 41  1  0  0  0
M  END
> <s_m_entry_id>
66051

> <s_m_entry_name>
ligand_docking-pose.107

> <s_m_Source_Path>
/home/csk/Desktop/cluster/DUD-E-result/mp2k1

> <s_m_Source_File>
ligand_docking-pose.sdf

> <i_m_Source_File_Index>
107

> <i_lp_mmshare_version>
53161

> <r_lp_tautomer_probability>
0.999000488399163

> <s_lp_Force_Field>
OPLS_2005

> <r_lp_Energy>
25.097286

> <b_lp_Chiralities_Consistent>
1

> <s_lp_Variant>
412078-1

> <s_i_glide_gridfile>
glide-grid_3eqh

> <i_i_glide_lignum>
189

> <i_i_glide_rotatable_bonds>
4

> <r_i_docking_score>
-7.62639070185421

> <r_i_glide_ligand_efficiency>
-0.293322719302085

> <r_i_glide_ligand_efficiency_sa>
-0.868967401763259

> <r_i_glide_ligand_efficiency_ln>
-1.7910328321015

> <r_i_glide_gscore>
-7.62639070185421

> <r_i_glide_lipo>
-3.14868461495981

> <r_i_glide_hbond>
-0.294623760565683

> <r_i_glide_metal>
0

> <r_i_glide_rewards>
-1.94020821048979

> <r_i_glide_evdw>
-44.2387771606445

> <r_i_glide_ecoul>
-3.03214836120605

> <r_i_glide_erotb>
0.423886996374203

> <r_i_glide_esite>
0

> <r_i_glide_emodel>
-62.5776383755609

> <r_i_glide_energy>
-47.2709255218506

> <r_i_glide_einternal>
5.03158950805664

> <i_i_glide_confnum>
1

> <i_i_glide_posenum>
84

> <r_i_glide_eff_state_penalty>
0

> <i_f3d_flags>
0

> <s_user_duplicate_titles>
412078

> <s_m_subgroup_title>
dock_pv

> <s_m_subgroupid>
dock_pv1

> <b_m_subgroup_collapsed>
0

$$$$
363010
                    3D
 Schrodinger Suite 2021-1.
 50 52  0  0  1  0            999 V2000
   -8.3942   58.7899   34.6474 C   0  0  0  0  0  0
   -8.1086   58.2262   33.2416 C   0  0  1  0  0  0
   -7.0475   59.0470   32.4675 C   0  0  0  0  0  0
   -7.5262   60.3480   32.1630 O   0  0  0  0  0  0
   -7.6489   56.8467   33.3915 N   0  0  0  0  0  0
   -8.1770   55.9195   32.6913 C   0  0  0  0  0  0
   -7.7098   54.5470   32.8827 C   0  0  0  0  0  0
   -8.4908   53.4797   33.3563 C   0  0  0  0  0  0
   -7.9553   52.2809   33.4069 N   0  0  0  0  0  0
   -6.3291   52.3924   32.8961 S   0  0  0  0  0  0
   -6.4322   54.0948   32.5725 C   0  0  0  0  0  0
   -5.4106   54.7960   31.9840 N   0  0  0  0  0  0
   -4.3044   55.2890   32.6838 C   0  0  0  0  0  0
   -3.9764   56.6253   32.4786 C   0  0  0  0  0  0
   -2.8769   57.1799   33.1173 C   0  0  0  0  0  0
   -2.0726   56.3955   33.9484 C   0  0  0  0  0  0
   -2.4040   55.0556   34.1559 C   0  0  0  0  0  0
   -3.5264   54.5038   33.5398 C   0  0  0  0  0  0
   -0.9331   56.8801   34.5562 O   0  0  0  0  0  0
   -0.7151   58.2333   34.6933 C   0  0  0  0  0  0
    0.2754   58.8277   33.9077 C   0  0  0  0  0  0
    0.5536   60.1963   34.0199 C   0  0  0  0  0  0
   -0.1488   60.9563   34.9612 C   0  0  0  0  0  0
   -1.1257   60.3675   35.7627 C   0  0  0  0  0  0
   -1.4304   59.0148   35.6146 C   0  0  0  0  0  0
   -2.7108   58.3479   36.5630 Cl  0  0  0  0  0  0
    1.5950   60.8684   33.1275 C   0  0  0  0  0  0
    0.9620   61.5401   32.1643 F   0  0  0  0  0  0
    2.3361   61.7261   33.8314 F   0  0  0  0  0  0
    2.4109   59.9806   32.5579 F   0  0  0  0  0  0
   -9.7943   53.5734   33.7622 O   0  0  0  0  0  0
   -9.1261   55.9431   31.7002 N   0  0  0  0  0  0
   -8.7306   59.8271   34.6020 H   0  0  0  0  0  0
   -9.1773   58.2186   35.1479 H   0  0  0  0  0  0
   -7.5086   58.7555   35.2820 H   0  0  0  0  0  0
   -9.0477   58.2932   32.6846 H   0  0  0  0  0  0
   -6.7930   58.5545   31.5281 H   0  0  0  0  0  0
   -6.1235   59.1254   33.0417 H   0  0  0  0  0  0
   -8.4611   60.2674   31.9362 H   0  0  0  0  0  0
   -5.6960   55.4709   31.2881 H   0  0  0  0  0  0
   -4.5699   57.2425   31.8194 H   0  0  0  0  0  0
   -2.6516   58.2220   32.9595 H   0  0  0  0  0  0
   -1.7882   54.4423   34.7972 H   0  0  0  0  0  0
   -3.7658   53.4669   33.7126 H   0  0  0  0  0  0
    0.8076   58.2170   33.1913 H   0  0  0  0  0  0
    0.0492   62.0137   35.0661 H   0  0  0  0  0  0
   -1.6656   60.9773   36.4697 H   0  0  0  0  0  0
  -10.0469   54.4981   33.7844 H   0  0  0  0  0  0
   -9.3176   56.8239   31.2472 H   0  0  0  0  0  0
   -9.2538   55.1091   31.1470 H   0  0  0  0  0  0
  1  2  1  0  0  0
  1 33  1  0  0  0
  1 34  1  0  0  0
  1 35  1  0  0  0
  2  3  1  0  0  0
  2  5  1  0  0  0
  2 36  1  0  0  0
  3  4  1  0  0  0
  3 37  1  0  0  0
  3 38  1  0  0  0
  4 39  1  0  0  0
  5  6  2  0  0  0
  6  7  1  0  0  0
  6 32  1  0  0  0
  7 11  2  0  0  0
  7  8  1  0  0  0
  8  9  2  0  0  0
  8 31  1  0  0  0
  9 10  1  0  0  0
 10 11  1  0  0  0
 11 12  1  0  0  0
 12 13  1  0  0  0
 12 40  1  0  0  0
 13 18  1  0  0  0
 13 14  2  0  0  0
 14 15  1  0  0  0
 14 41  1  0  0  0
 15 16  2  0  0  0
 15 42  1  0  0  0
 16 17  1  0  0  0
 16 19  1  0  0  0
 17 18  2  0  0  0
 17 43  1  0  0  0
 18 44  1  0  0  0
 19 20  1  0  0  0
 20 25  1  0  0  0
 20 21  2  0  0  0
 21 22  1  0  0  0
 21 45  1  0  0  0
 22 23  2  0  0  0
 22 27  1  0  0  0
 23 24  1  0  0  0
 23 46  1  0  0  0
 24 25  2  0  0  0
 24 47  1  0  0  0
 25 26  1  0  0  0
 27 28  1  0  0  0
 27 29  1  0  0  0
 27 30  1  0  0  0
 31 48  1  0  0  0
 32 49  1  0  0  0
 32 50  1  0  0  0
M  END
> <s_m_entry_id>
66052

> <s_m_entry_name>
ligand_docking-pose.108

> <s_m_Source_Path>
/home/csk/Desktop/cluster/DUD-E-result/mp2k1

> <s_m_Source_File>
ligand_docking-pose.sdf

> <i_m_Source_File_Index>
108

> <i_lp_mmshare_version>
53161

> <r_lp_tautomer_probability>
1

> <s_lp_Force_Field>
OPLS_2005

> <r_lp_Energy>
24.80171

> <b_lp_Chiralities_Consistent>
1

> <s_lp_Variant>
363010-2

> <s_i_glide_gridfile>
glide-grid_3eqh

> <i_i_glide_lignum>
244

> <i_i_glide_rotatable_bonds>
10

> <r_i_docking_score>
-7.59168909292221

> <r_i_glide_ligand_efficiency>
-0.237240284153819

> <r_i_glide_ligand_efficiency_sa>
-0.753190952399894

> <r_i_glide_ligand_efficiency_ln>
-1.69998612953415

> <r_i_glide_gscore>
-7.59168909292221

> <r_i_glide_lipo>
-3.78467887893378

> <r_i_glide_hbond>
0

> <r_i_glide_metal>
0

> <r_i_glide_rewards>
-0.629945179356941

> <r_i_glide_evdw>
-53.264518737793

> <r_i_glide_ecoul>
-7.13274526596069

> <r_i_glide_erotb>
0.600160000491501

> <r_i_glide_esite>
-0.0440873083392459

> <r_i_glide_emodel>
-82.3419688664615

> <r_i_glide_energy>
-60.3972640037537

> <r_i_glide_einternal>
17.6832084655762

> <i_i_glide_confnum>
157

> <i_i_glide_posenum>
287

> <r_i_glide_eff_state_penalty>
0

> <i_f3d_flags>
0

> <s_user_duplicate_titles>
363010

> <s_m_subgroup_title>
dock_pv

> <s_m_subgroupid>
dock_pv1

> <b_m_subgroup_collapsed>
0

$$$$
363039
                    3D
 Schrodinger Suite 2021-1.
 63 66  0  0  1  0            999 V2000
   -8.4634   59.8161   32.7969 C   0  0  0  0  0  0
   -8.0777   58.4767   33.2137 N   0  0  0  0  0  0
   -8.3979   58.2804   34.6360 C   0  0  0  0  0  0
   -8.0192   56.8421   35.0764 C   0  0  0  0  0  0
   -8.7813   55.8569   34.2928 N   0  0  0  0  0  0
   -8.4423   56.0575   32.8718 C   0  0  0  0  0  0
   -8.8313   57.4876   32.4294 C   0  0  0  0  0  0
   -8.4569   54.4991   34.7453 C   0  0  0  0  0  0
   -9.3924   53.4235   34.1338 C   0  0  0  0  0  0
   -8.6997   52.1249   33.6545 C   0  0  0  0  0  0
   -7.5259   52.3927   32.8405 N   0  0  0  0  0  0
   -7.6720   52.7141   31.6167 C   0  0  0  0  0  0
   -6.4576   53.0264   30.8467 C   0  0  0  0  0  0
   -6.2027   52.5916   29.5337 C   0  0  0  0  0  0
   -5.0828   52.9439   28.9565 N   0  0  0  0  0  0
   -4.2121   53.9483   30.0221 S   0  0  0  0  0  0
   -5.3796   53.7949   31.3057 C   0  0  0  0  0  0
   -5.1795   54.3285   32.5635 N   0  0  0  0  0  0
   -4.0247   55.0053   32.9760 C   0  0  0  0  0  0
   -3.7713   56.3138   32.5627 C   0  0  0  0  0  0
   -2.5980   56.9498   32.9628 C   0  0  0  0  0  0
   -1.6694   56.2842   33.7690 C   0  0  0  0  0  0
   -1.9268   54.9726   34.1634 C   0  0  0  0  0  0
   -3.1130   54.3469   33.7932 C   0  0  0  0  0  0
   -0.4747   56.8438   34.1782 O   0  0  0  0  0  0
   -0.3082   58.2086   34.3001 C   0  0  0  0  0  0
    0.6893   58.8071   33.5259 C   0  0  0  0  0  0
    0.9604   60.1693   33.6432 C   0  0  0  0  0  0
    0.2542   60.9420   34.5641 C   0  0  0  0  0  0
   -0.7249   60.3530   35.3621 C   0  0  0  0  0  0
   -1.0214   58.9952   35.2263 C   0  0  0  0  0  0
   -2.2723   58.3378   36.2194 Cl  0  0  0  0  0  0
    2.1707   60.8964   32.6501 Cl  0  0  0  0  0  0
   -7.0260   51.7908   28.7874 O   0  0  0  0  0  0
   -8.8093   52.8631   30.8470 N   0  0  0  0  0  0
   -8.2539   59.9712   31.7364 H   0  0  0  0  0  0
   -9.5290   59.9719   32.9598 H   0  0  0  0  0  0
   -7.9177   60.5691   33.3625 H   0  0  0  0  0  0
   -9.4582   58.4645   34.8242 H   0  0  0  0  0  0
   -7.8451   59.0031   35.2366 H   0  0  0  0  0  0
   -6.9442   56.6827   34.9562 H   0  0  0  0  0  0
   -8.2388   56.7189   36.1379 H   0  0  0  0  0  0
   -8.9684   55.3487   32.2368 H   0  0  0  0  0  0
   -7.3777   55.8932   32.7007 H   0  0  0  0  0  0
   -9.9076   57.6308   32.5528 H   0  0  0  0  0  0
   -8.6244   57.6096   31.3644 H   0  0  0  0  0  0
   -7.4040   54.2819   34.5620 H   0  0  0  0  0  0
   -8.5851   54.4651   35.8283 H   0  0  0  0  0  0
  -10.1184   53.1467   34.8978 H   0  0  0  0  0  0
  -10.0131   53.8325   33.3379 H   0  0  0  0  0  0
   -8.3774   51.5455   34.5146 H   0  0  0  0  0  0
   -9.4154   51.4813   33.1382 H   0  0  0  0  0  0
   -5.7046   53.9217   33.3229 H   0  0  0  0  0  0
   -4.4728   56.8264   31.9200 H   0  0  0  0  0  0
   -2.4034   57.9480   32.6179 H   0  0  0  0  0  0
   -1.2119   54.4398   34.7738 H   0  0  0  0  0  0
   -3.3012   53.3344   34.1144 H   0  0  0  0  0  0
    1.2515   58.2063   32.8258 H   0  0  0  0  0  0
    0.4593   61.9987   34.6585 H   0  0  0  0  0  0
   -1.2745   60.9634   36.0634 H   0  0  0  0  0  0
   -7.8073   51.6229   29.3211 H   0  0  0  0  0  0
   -9.7051   52.7396   31.2931 H   0  0  0  0  0  0
   -8.7659   53.4579   30.0333 H   0  0  0  0  0  0
  1  2  1  0  0  0
  1 36  1  0  0  0
  1 37  1  0  0  0
  1 38  1  0  0  0
  2  7  1  0  0  0
  2  3  1  0  0  0
  3  4  1  0  0  0
  3 39  1  0  0  0
  3 40  1  0  0  0
  4  5  1  0  0  0
  4 41  1  0  0  0
  4 42  1  0  0  0
  5  6  1  0  0  0
  5  8  1  0  0  0
  6  7  1  0  0  0
  6 43  1  0  0  0
  6 44  1  0  0  0
  7 45  1  0  0  0
  7 46  1  0  0  0
  8  9  1  0  0  0
  8 47  1  0  0  0
  8 48  1  0  0  0
  9 10  1  0  0  0
  9 49  1  0  0  0
  9 50  1  0  0  0
 10 11  1  0  0  0
 10 51  1  0  0  0
 10 52  1  0  0  0
 11 12  2  0  0  0
 12 13  1  0  0  0
 12 35  1  0  0  0
 13 17  2  0  0  0
 13 14  1  0  0  0
 14 15  2  0  0  0
 14 34  1  0  0  0
 15 16  1  0  0  0
 16 17  1  0  0  0
 17 18  1  0  0  0
 18 19  1  0  0  0
 18 53  1  0  0  0
 19 24  1  0  0  0
 19 20  2  0  0  0
 20 21  1  0  0  0
 20 54  1  0  0  0
 21 22  2  0  0  0
 21 55  1  0  0  0
 22 23  1  0  0  0
 22 25  1  0  0  0
 23 24  2  0  0  0
 23 56  1  0  0  0
 24 57  1  0  0  0
 25 26  1  0  0  0
 26 31  1  0  0  0
 26 27  2  0  0  0
 27 28  1  0  0  0
 27 58  1  0  0  0
 28 29  2  0  0  0
 28 33  1  0  0  0
 29 30  1  0  0  0
 29 59  1  0  0  0
 30 31  2  0  0  0
 30 60  1  0  0  0
 31 32  1  0  0  0
 34 61  1  0  0  0
 35 62  1  0  0  0
 35 63  1  0  0  0
M  END
> <s_m_entry_id>
66053

> <s_m_entry_name>
ligand_docking-pose.109

> <s_m_Source_Path>
/home/csk/Desktop/cluster/DUD-E-result/mp2k1

> <s_m_Source_File>
ligand_docking-pose.sdf

> <i_m_Source_File_Index>
109

> <i_lp_mmshare_version>
53161

> <r_lp_tautomer_probability>
1

> <s_lp_Force_Field>
OPLS_2005

> <r_lp_Energy>
58.394244

> <b_lp_Chiralities_Consistent>
1

> <s_lp_Variant>
363039-1

> <s_i_glide_gridfile>
glide-grid_3eqh

> <i_i_glide_lignum>
364

> <i_i_glide_rotatable_bonds>
10

> <r_i_docking_score>
-7.5833106031741

> <r_i_glide_ligand_efficiency>
-0.216666017233546

> <r_i_glide_ligand_efficiency_sa>
-0.708728908695466

> <r_i_glide_ligand_efficiency_ln>
-1.66470497990765

> <r_i_glide_gscore>
-7.5833106031741

> <r_i_glide_lipo>
-4.8023791409334

> <r_i_glide_hbond>
0

> <r_i_glide_metal>
0

> <r_i_glide_rewards>
-0.198664650062036

> <r_i_glide_evdw>
-61.102165222168

> <r_i_glide_ecoul>
-1.16746723651886

> <r_i_glide_erotb>
0.647961534407564

> <r_i_glide_esite>
0

> <r_i_glide_emodel>
-81.4444175228259

> <r_i_glide_energy>
-62.2696324586868

> <r_i_glide_einternal>
14.9477548599243

> <i_i_glide_confnum>
82

> <i_i_glide_posenum>
365

> <r_i_glide_eff_state_penalty>
0

> <i_f3d_flags>
0

> <s_user_duplicate_titles>
363039

> <s_m_subgroup_title>
dock_pv

> <s_m_subgroupid>
dock_pv1

> <b_m_subgroup_collapsed>
0

$$$$
337981
                    3D
 Schrodinger Suite 2021-1.
 43 46  0  0  1  0            999 V2000
   -5.1329   53.4568   32.5810 C   0  0  0  0  0  0
   -6.5439   53.7994   33.0091 C   0  0  0  0  0  0
   -7.5595   52.9131   33.3631 C   0  0  0  0  0  0
   -8.6845   53.6275   33.7357 C   0  0  0  0  0  0
   -8.4419   54.9615   33.5510 N   0  0  0  0  0  0
   -7.1157   55.1098   33.0921 C   0  0  0  0  0  0
   -6.7014   56.4354   32.8221 C   0  0  0  0  0  0
   -7.6445   57.4764   32.9498 C   0  0  0  0  0  0
   -8.9184   57.1785   33.4327 C   0  0  0  0  0  0
   -9.3424   55.9341   33.7553 N   0  0  0  0  0  0
   -7.3546   58.8567   32.5678 C   0  0  0  0  0  0
   -7.1260   59.9489   32.2610 N   0  0  0  0  0  0
   -5.3900   56.6601   32.3721 N   0  0  0  0  0  0
   -4.2525   56.8880   33.1601 C   0  0  0  0  0  0
   -3.0082   56.7064   32.5629 C   0  0  0  0  0  0
   -1.8453   57.0276   33.2504 C   0  0  0  0  0  0
   -1.9179   57.5475   34.5453 C   0  0  0  0  0  0
   -3.1578   57.6659   35.1734 C   0  0  0  0  0  0
   -4.3260   57.3389   34.4838 C   0  0  0  0  0  0
   -0.7816   57.9479   35.2106 O   0  0  0  0  0  0
   -0.0412   58.9592   34.6421 C   0  0  0  0  0  0
    0.9795   58.6583   33.7387 C   0  0  0  0  0  0
    1.6741   59.6860   33.1063 C   0  0  0  0  0  0
    1.3714   61.0117   33.4112 C   0  0  0  0  0  0
    0.3788   61.3174   34.3376 C   0  0  0  0  0  0
   -0.3266   60.2880   34.9545 C   0  0  0  0  0  0
   -7.4636   51.5489   33.3636 O   0  0  0  0  0  0
   -4.9050   53.8535   31.5921 H   0  0  0  0  0  0
   -4.9676   52.3799   32.5355 H   0  0  0  0  0  0
   -4.3913   53.8634   33.2702 H   0  0  0  0  0  0
   -9.6438   53.2678   34.0751 H   0  0  0  0  0  0
   -9.6636   57.9547   33.5565 H   0  0  0  0  0  0
   -5.3745   57.2483   31.5487 H   0  0  0  0  0  0
   -2.9408   56.3484   31.5448 H   0  0  0  0  0  0
   -0.8931   56.9026   32.7602 H   0  0  0  0  0  0
   -3.2078   58.0373   36.1869 H   0  0  0  0  0  0
   -5.2852   57.4641   34.9643 H   0  0  0  0  0  0
    1.2070   57.6312   33.4976 H   0  0  0  0  0  0
    2.4452   59.4578   32.3818 H   0  0  0  0  0  0
    1.9136   61.8097   32.9236 H   0  0  0  0  0  0
    0.1436   62.3449   34.5695 H   0  0  0  0  0  0
   -1.1172   60.5209   35.6528 H   0  0  0  0  0  0
   -7.0028   51.2459   34.1482 H   0  0  0  0  0  0
  1  2  1  0  0  0
  1 28  1  0  0  0
  1 29  1  0  0  0
  1 30  1  0  0  0
  2  6  2  0  0  0
  2  3  1  0  0  0
  3  4  2  0  0  0
  3 27  1  0  0  0
  4  5  1  0  0  0
  4 31  1  0  0  0
  5 10  1  0  0  0
  5  6  1  0  0  0
  6  7  1  0  0  0
  7  8  2  0  0  0
  7 13  1  0  0  0
  8  9  1  0  0  0
  8 11  1  0  0  0
  9 10  2  0  0  0
  9 32  1  0  0  0
 11 12  3  0  0  0
 13 14  1  0  0  0
 13 33  1  0  0  0
 14 19  1  0  0  0
 14 15  2  0  0  0
 15 16  1  0  0  0
 15 34  1  0  0  0
 16 17  2  0  0  0
 16 35  1  0  0  0
 17 18  1  0  0  0
 17 20  1  0  0  0
 18 19  2  0  0  0
 18 36  1  0  0  0
 19 37  1  0  0  0
 20 21  1  0  0  0
 21 26  1  0  0  0
 21 22  2  0  0  0
 22 23  1  0  0  0
 22 38  1  0  0  0
 23 24  2  0  0  0
 23 39  1  0  0  0
 24 25  1  0  0  0
 24 40  1  0  0  0
 25 26  2  0  0  0
 25 41  1  0  0  0
 26 42  1  0  0  0
 27 43  1  0  0  0
M  END
> <s_m_entry_id>
66054

> <s_m_entry_name>
ligand_docking-pose.110

> <s_m_Source_Path>
/home/csk/Desktop/cluster/DUD-E-result/mp2k1

> <s_m_Source_File>
ligand_docking-pose.sdf

> <i_m_Source_File_Index>
110

> <i_lp_mmshare_version>
53161

> <r_lp_tautomer_probability>
1

> <s_lp_Force_Field>
OPLS_2005

> <r_lp_Energy>
25.725727

> <b_lp_Chiralities_Consistent>
1

> <s_lp_Variant>
337981-1

> <s_i_glide_gridfile>
glide-grid_3eqh

> <i_i_glide_lignum>
180

> <i_i_glide_rotatable_bonds>
5

> <r_i_docking_score>
-7.56901878767942

> <r_i_glide_ligand_efficiency>
-0.280334029173312

> <r_i_glide_ligand_efficiency_sa>
-0.841002086596

> <r_i_glide_ligand_efficiency_ln>
-1.76194278874457

> <r_i_glide_gscore>
-7.56901878767942

> <r_i_glide_lipo>
-3.63584900996227

> <r_i_glide_hbond>
0

> <r_i_glide_metal>
0

> <r_i_glide_rewards>
-1.18671021785907

> <r_i_glide_evdw>
-49.697639465332

> <r_i_glide_ecoul>
-5.42020463943481

> <r_i_glide_erotb>
0.602548377038575

> <r_i_glide_esite>
-0.0510952677148251

> <r_i_glide_emodel>
-77.4592063238663

> <r_i_glide_energy>
-55.1178441047668

> <r_i_glide_einternal>
6.71603298187256

> <i_i_glide_confnum>
19

> <i_i_glide_posenum>
378

> <r_i_glide_eff_state_penalty>
0

> <i_f3d_flags>
0

> <s_user_duplicate_titles>
337981

> <s_m_subgroup_title>
dock_pv

> <s_m_subgroupid>
dock_pv1

> <b_m_subgroup_collapsed>
0

$$$$
389536
                    3D
 Schrodinger Suite 2021-1.
 28 29  0  0  1  0            999 V2000
    1.4108   60.2261   32.6433 C   0  0  0  0  0  0
    0.5167   59.2660   33.1163 C   0  0  0  0  0  0
   -0.2405   59.4942   34.2720 C   0  0  0  0  0  0
   -0.1109   60.7226   34.9304 C   0  0  0  0  0  0
    0.7892   61.6811   34.4616 C   0  0  0  0  0  0
    1.5508   61.4352   33.3211 C   0  0  0  0  0  0
    2.8797   62.8905   32.6198 I   0  0  0  0  0  0
   -0.8724   61.0048   36.0143 F   0  0  0  0  0  0
   -1.1476   58.5491   34.7858 N   0  0  0  0  0  0
   -1.4570   57.2256   34.4085 C   0  0  0  0  0  0
   -2.7983   56.7672   34.4337 C   0  0  0  0  0  0
   -3.0837   55.4393   34.0992 C   0  0  0  0  0  0
   -2.0678   54.5649   33.7627 C   0  0  0  0  0  0
   -0.7483   54.9944   33.7631 C   0  0  0  0  0  0
   -0.4345   56.3054   34.1148 C   0  0  0  0  0  0
    0.8737   56.6459   34.2091 F   0  0  0  0  0  0
    0.2343   54.1297   33.4409 F   0  0  0  0  0  0
   -3.9439   57.6380   34.8637 C   0  0  0  0  0  0
   -3.8647   58.3479   35.8619 O   0  0  0  0  0  0
   -5.0498   57.5761   34.1190 N   0  0  0  0  0  0
    1.9904   60.0281   31.7535 H   0  0  0  0  0  0
    0.4070   58.3482   32.5636 H   0  0  0  0  0  0
    0.8875   62.6227   34.9789 H   0  0  0  0  0  0
   -1.8399   58.9611   35.3975 H   0  0  0  0  0  0
   -4.0972   55.0582   34.1285 H   0  0  0  0  0  0
   -2.3256   53.5481   33.5251 H   0  0  0  0  0  0
   -5.8748   58.0867   34.3853 H   0  0  0  0  0  0
   -5.0504   57.0377   33.2654 H   0  0  0  0  0  0
  1  6  1  0  0  0
  1  2  2  0  0  0
  1 21  1  0  0  0
  2  3  1  0  0  0
  2 22  1  0  0  0
  3  4  2  0  0  0
  3  9  1  0  0  0
  4  5  1  0  0  0
  4  8  1  0  0  0
  5  6  2  0  0  0
  5 23  1  0  0  0
  6  7  1  0  0  0
  9 10  1  0  0  0
  9 24  1  0  0  0
 10 15  1  0  0  0
 10 11  2  0  0  0
 11 12  1  0  0  0
 11 18  1  0  0  0
 12 13  2  0  0  0
 12 25  1  0  0  0
 13 14  1  0  0  0
 13 26  1  0  0  0
 14 15  2  0  0  0
 14 17  1  0  0  0
 15 16  1  0  0  0
 18 19  2  0  0  0
 18 20  1  0  0  0
 20 27  1  0  0  0
 20 28  1  0  0  0
M  END
> <s_m_entry_id>
66055

> <s_m_entry_name>
ligand_docking-pose.111

> <s_m_Source_Path>
/home/csk/Desktop/cluster/DUD-E-result/mp2k1

> <s_m_Source_File>
ligand_docking-pose.sdf

> <i_m_Source_File_Index>
111

> <i_lp_mmshare_version>
53161

> <r_lp_tautomer_probability>
1

> <s_lp_Force_Field>
OPLS_2005

> <r_lp_Energy>
21.196338

> <b_lp_Chiralities_Consistent>
1

> <s_lp_Variant>
389536-1

> <s_i_glide_gridfile>
glide-grid_3eqh

> <i_i_glide_lignum>
41

> <i_i_glide_rotatable_bonds>
3

> <r_i_docking_score>
-7.55451267784367

> <r_i_glide_ligand_efficiency>
-0.377725633892184

> <r_i_glide_ligand_efficiency_sa>
-1.02530511385257

> <r_i_glide_ligand_efficiency_ln>
-1.89064535876032

> <r_i_glide_gscore>
-7.55451267784367

> <r_i_glide_lipo>
-3.54750365054465

> <r_i_glide_hbond>
-0.16

> <r_i_glide_metal>
0

> <r_i_glide_rewards>
-1.51403675127487

> <r_i_glide_evdw>
-32.5669021606445

> <r_i_glide_ecoul>
-5.95325374603271

> <r_i_glide_erotb>
0.253931059095938

> <r_i_glide_esite>
-0.0655701651829531

> <r_i_glide_emodel>
-56.1859618248402

> <r_i_glide_energy>
-38.5201559066772

> <r_i_glide_einternal>
0.927406966686249

> <i_i_glide_confnum>
1

> <i_i_glide_posenum>
40

> <r_i_glide_eff_state_penalty>
0

> <i_f3d_flags>
0

> <s_user_duplicate_titles>
389536

> <s_m_subgroup_title>
dock_pv

> <s_m_subgroupid>
dock_pv1

> <b_m_subgroup_collapsed>
0

$$$$
363000
                    3D
 Schrodinger Suite 2021-1.
 47 49  0  0  1  0            999 V2000
   -8.6124   58.1022   35.0452 C   0  0  0  0  0  0
   -7.6573   58.8328   34.0656 C   0  0  2  0  0  0
   -8.4285   59.6445   32.9970 C   0  0  0  0  0  0
   -7.5254   60.3479   32.1628 O   0  0  0  0  0  0
   -6.6092   58.0218   33.4264 N   0  0  0  0  0  0
   -6.7202   56.7861   33.1259 C   0  0  0  0  0  0
   -5.5605   56.1410   32.4885 C   0  0  0  0  0  0
   -5.6258   55.3550   31.3216 C   0  0  0  0  0  0
   -4.5432   54.7441   30.9033 N   0  0  0  0  0  0
   -3.2603   55.1753   31.9369 S   0  0  0  0  0  0
   -4.2347   56.2203   32.9301 C   0  0  0  0  0  0
   -3.7540   56.9458   34.0027 N   0  0  0  0  0  0
   -2.5160   57.5628   34.2675 C   0  0  0  0  0  0
   -1.3863   57.5012   33.4388 C   0  0  0  0  0  0
   -0.2329   58.2165   33.7622 C   0  0  0  0  0  0
   -0.2109   59.0354   34.8898 C   0  0  0  0  0  0
   -1.3321   59.1036   35.7118 C   0  0  0  0  0  0
   -2.4643   58.3490   35.4195 C   0  0  0  0  0  0
    0.9126   59.7668   35.2099 O   0  0  0  0  0  0
    1.2391   60.9281   34.5305 C   0  0  0  0  0  0
    0.3987   61.5356   33.5852 C   0  0  0  0  0  0
    0.8075   62.6901   32.9226 C   0  0  0  0  0  0
    2.0476   63.2534   33.2054 C   0  0  0  0  0  0
    2.8747   62.6786   34.1629 C   0  0  0  0  0  0
    2.4723   61.5194   34.8234 C   0  0  0  0  0  0
   -6.7461   55.1480   30.5632 O   0  0  0  0  0  0
   -7.7490   55.8859   33.2801 N   0  0  0  0  0  0
   -9.1444   58.8253   35.6645 H   0  0  0  0  0  0
   -9.3750   57.5193   34.5292 H   0  0  0  0  0  0
   -8.0678   57.4429   35.7226 H   0  0  0  0  0  0
   -7.1274   59.5485   34.6862 H   0  0  0  0  0  0
   -9.1156   60.3479   33.4682 H   0  0  0  0  0  0
   -9.0307   58.9806   32.3753 H   0  0  0  0  0  0
   -6.9440   59.6637   31.8025 H   0  0  0  0  0  0
   -4.4506   57.2327   34.6729 H   0  0  0  0  0  0
   -1.3731   56.9339   32.5254 H   0  0  0  0  0  0
    0.6313   58.1655   33.1157 H   0  0  0  0  0  0
   -1.3290   59.7626   36.5627 H   0  0  0  0  0  0
   -3.3172   58.4160   36.0770 H   0  0  0  0  0  0
   -0.5752   61.1237   33.3660 H   0  0  0  0  0  0
    0.1627   63.1510   32.1923 H   0  0  0  0  0  0
    2.3656   64.1498   32.6907 H   0  0  0  0  0  0
    3.8314   63.1267   34.3855 H   0  0  0  0  0  0
    3.1199   61.0703   35.5618 H   0  0  0  0  0  0
   -7.1263   56.0070   30.3217 H   0  0  0  0  0  0
   -8.6158   56.1676   33.7086 H   0  0  0  0  0  0
   -7.6544   54.9464   32.9239 H   0  0  0  0  0  0
  1  2  1  0  0  0
  1 28  1  0  0  0
  1 29  1  0  0  0
  1 30  1  0  0  0
  2  3  1  0  0  0
  2  5  1  0  0  0
  2 31  1  0  0  0
  3  4  1  0  0  0
  3 32  1  0  0  0
  3 33  1  0  0  0
  4 34  1  0  0  0
  5  6  2  0  0  0
  6  7  1  0  0  0
  6 27  1  0  0  0
  7 11  2  0  0  0
  7  8  1  0  0  0
  8  9  2  0  0  0
  8 26  1  0  0  0
  9 10  1  0  0  0
 10 11  1  0  0  0
 11 12  1  0  0  0
 12 13  1  0  0  0
 12 35  1  0  0  0
 13 18  1  0  0  0
 13 14  2  0  0  0
 14 15  1  0  0  0
 14 36  1  0  0  0
 15 16  2  0  0  0
 15 37  1  0  0  0
 16 17  1  0  0  0
 16 19  1  0  0  0
 17 18  2  0  0  0
 17 38  1  0  0  0
 18 39  1  0  0  0
 19 20  1  0  0  0
 20 25  1  0  0  0
 20 21  2  0  0  0
 21 22  1  0  0  0
 21 40  1  0  0  0
 22 23  2  0  0  0
 22 41  1  0  0  0
 23 24  1  0  0  0
 23 42  1  0  0  0
 24 25  2  0  0  0
 24 43  1  0  0  0
 25 44  1  0  0  0
 26 45  1  0  0  0
 27 46  1  0  0  0
 27 47  1  0  0  0
M  END
> <s_m_entry_id>
66056

> <s_m_entry_name>
ligand_docking-pose.112

> <s_m_Source_Path>
/home/csk/Desktop/cluster/DUD-E-result/mp2k1

> <s_m_Source_File>
ligand_docking-pose.sdf

> <i_m_Source_File_Index>
112

> <i_lp_mmshare_version>
53161

> <r_lp_tautomer_probability>
1

> <s_lp_Force_Field>
OPLS_2005

> <r_lp_Energy>
24.352696

> <b_lp_Chiralities_Consistent>
1

> <s_lp_Variant>
363000-1

> <s_i_glide_gridfile>
glide-grid_3eqh

> <i_i_glide_lignum>
277

> <i_i_glide_rotatable_bonds>
9

> <r_i_docking_score>
-7.5470938484868

> <r_i_glide_ligand_efficiency>
-0.2795219943884

> <r_i_glide_ligand_efficiency_sa>
-0.838565982243942

> <r_i_glide_ligand_efficiency_ln>
-1.75683902436141

> <r_i_glide_gscore>
-7.5470938484868

> <r_i_glide_lipo>
-3.46846749919348

> <r_i_glide_hbond>
-0.16

> <r_i_glide_metal>
0

> <r_i_glide_rewards>
-1.23781977272727

> <r_i_glide_evdw>
-49.9230537414551

> <r_i_glide_ecoul>
-7.36429214477539

> <r_i_glide_erotb>
0.9208078603782

> <r_i_glide_esite>
-0.000817928155190758

> <r_i_glide_emodel>
-82.2108073375979

> <r_i_glide_energy>
-57.2873458862305

> <r_i_glide_einternal>
8.63418483734131

> <i_i_glide_confnum>
64

> <i_i_glide_posenum>
206

> <r_i_glide_eff_state_penalty>
0

> <i_f3d_flags>
0

> <s_user_duplicate_titles>
363000

> <s_m_subgroup_title>
dock_pv

> <s_m_subgroupid>
dock_pv1

> <b_m_subgroup_collapsed>
0

$$$$
51762
                    3D
 Schrodinger Suite 2021-1.
 48 50  0  0  1  0            999 V2000
    1.0186   61.6398   32.8789 C   0  0  0  0  0  0
    1.5624   60.3948   32.5706 C   0  0  0  0  0  0
    1.2076   59.2735   33.3170 C   0  0  0  0  0  0
    0.3130   59.3908   34.3845 C   0  0  0  0  0  0
   -0.2274   60.6472   34.7063 C   0  0  0  0  0  0
    0.1186   61.7608   33.9369 C   0  0  0  0  0  0
   -1.1259   60.8202   35.7629 N   0  0  0  0  0  0
   -0.0920   57.9480   35.3303 S   0  0  0  0  0  0
   -1.0688   56.9886   34.1710 C   0  0  0  0  0  0
   -2.4279   57.0003   34.1583 C   0  0  0  0  0  0
   -3.0764   57.7546   35.1831 C   0  0  0  0  0  0
   -3.5260   58.3480   36.0681 N   0  0  0  0  0  0
   -3.3361   56.3241   33.1657 C   0  0  0  0  0  0
   -2.8986   55.9481   31.8873 C   0  0  0  0  0  0
   -3.7531   55.3681   30.9549 C   0  0  0  0  0  0
   -5.0887   55.1662   31.2729 C   0  0  0  0  0  0
   -5.5767   55.5328   32.5296 C   0  0  0  0  0  0
   -4.6895   56.0845   33.4699 C   0  0  0  0  0  0
   -7.0609   55.3169   32.8404 C   0  0  2  0  0  0
   -7.8275   56.5916   33.2077 C   0  0  0  0  0  0
   -8.6781   57.1709   32.2624 C   0  0  0  0  0  0
   -9.4096   58.3120   32.5720 C   0  0  0  0  0  0
   -9.3129   58.8886   33.8339 C   0  0  0  0  0  0
   -8.4798   58.3196   34.8055 C   0  0  0  0  0  0
   -7.7457   57.1659   34.4846 C   0  0  0  0  0  0
   -8.3955   58.9200   36.1502 N   0  3  0  0  0  0
   -9.3606   59.5480   36.5630 O   0  5  0  0  0  0
   -7.3750   58.7480   36.8048 O   0  0  0  0  0  0
   -7.2647   54.2716   33.7631 O   0  0  0  0  0  0
   -0.2313   56.2734   33.3631 N   0  0  0  0  0  0
    1.2980   62.5097   32.3025 H   0  0  0  0  0  0
    2.2692   60.2949   31.7626 H   0  0  0  0  0  0
    1.6420   58.3186   33.0642 H   0  0  0  0  0  0
   -0.3013   62.7300   34.1630 H   0  0  0  0  0  0
   -1.4613   59.9601   36.1730 H   0  0  0  0  0  0
   -1.8090   61.5481   35.5983 H   0  0  0  0  0  0
   -1.9069   56.1763   31.5500 H   0  0  0  0  0  0
   -3.3883   55.1186   29.9693 H   0  0  0  0  0  0
   -5.7461   54.7420   30.5279 H   0  0  0  0  0  0
   -5.0684   56.3452   34.4455 H   0  0  0  0  0  0
   -7.5194   54.9305   31.9275 H   0  0  0  0  0  0
   -8.7671   56.7437   31.2742 H   0  0  0  0  0  0
  -10.0529   58.7475   31.8292 H   0  0  0  0  0  0
   -9.8905   59.7805   34.0482 H   0  0  0  0  0  0
   -7.1235   56.7013   35.2365 H   0  0  0  0  0  0
   -8.2012   54.0623   33.7830 H   0  0  0  0  0  0
   -0.5965   55.6941   32.6231 H   0  0  0  0  0  0
    0.7671   56.3972   33.4280 H   0  0  0  0  0  0
  1  6  1  0  0  0
  1  2  2  0  0  0
  1 31  1  0  0  0
  2  3  1  0  0  0
  2 32  1  0  0  0
  3  4  2  0  0  0
  3 33  1  0  0  0
  4  5  1  0  0  0
  4  8  1  0  0  0
  5  6  2  0  0  0
  5  7  1  0  0  0
  6 34  1  0  0  0
  7 35  1  0  0  0
  7 36  1  0  0  0
  8  9  1  0  0  0
  9 10  2  0  0  0
  9 30  1  0  0  0
 10 11  1  0  0  0
 10 13  1  0  0  0
 11 12  3  0  0  0
 13 18  1  0  0  0
 13 14  2  0  0  0
 14 15  1  0  0  0
 14 37  1  0  0  0
 15 16  2  0  0  0
 15 38  1  0  0  0
 16 17  1  0  0  0
 16 39  1  0  0  0
 17 18  2  0  0  0
 17 19  1  0  0  0
 18 40  1  0  0  0
 19 20  1  0  0  0
 19 29  1  0  0  0
 19 41  1  0  0  0
 20 25  1  0  0  0
 20 21  2  0  0  0
 21 22  1  0  0  0
 21 42  1  0  0  0
 22 23  2  0  0  0
 22 43  1  0  0  0
 23 24  1  0  0  0
 23 44  1  0  0  0
 24 25  2  0  0  0
 24 26  1  0  0  0
 25 45  1  0  0  0
 26 27  1  0  0  0
 26 28  2  0  0  0
 29 46  1  0  0  0
 30 47  1  0  0  0
 30 48  1  0  0  0
M  CHG  2  26   1  27  -1
M  END
> <s_m_entry_id>
66057

> <s_m_entry_name>
ligand_docking-pose.113

> <s_m_Source_Path>
/home/csk/Desktop/cluster/DUD-E-result/mp2k1

> <s_m_Source_File>
ligand_docking-pose.sdf

> <i_m_Source_File_Index>
113

> <i_lp_mmshare_version>
53161

> <r_lp_tautomer_probability>
0.499999974950001

> <s_lp_Force_Field>
OPLS_2005

> <r_lp_Energy>
30.495024

> <b_lp_Chiralities_Consistent>
1

> <s_lp_Variant>
51762-1

> <s_i_glide_gridfile>
glide-grid_3eqh

> <i_i_glide_lignum>
85

> <i_i_glide_rotatable_bonds>
7

> <r_i_docking_score>
-7.54297368512308

> <r_i_glide_ligand_efficiency>
-0.251432456170769

> <r_i_glide_ligand_efficiency_sa>
-0.781259099979894

> <r_i_glide_ligand_efficiency_ln>
-1.71384580854095

> <r_i_glide_gscore>
-7.54297368512308

> <r_i_glide_lipo>
-3.57068353082499

> <r_i_glide_hbond>
-0.177049493547318

> <r_i_glide_metal>
0

> <r_i_glide_rewards>
-0.958447274674097

> <r_i_glide_evdw>
-47.8249168395996

> <r_i_glide_ecoul>
-6.3928370475769

> <r_i_glide_erotb>
0.564611088340008

> <r_i_glide_esite>
-0.0512330753001642

> <r_i_glide_emodel>
-73.0021417743381

> <r_i_glide_energy>
-54.2177538871765

> <r_i_glide_einternal>
9.3621997833252

> <i_i_glide_confnum>
59

> <i_i_glide_posenum>
328

> <r_i_glide_eff_state_penalty>
0

> <i_f3d_flags>
0

> <s_user_duplicate_titles>
51762

> <s_m_subgroup_title>
dock_pv

> <s_m_subgroupid>
dock_pv1

> <b_m_subgroup_collapsed>
0

$$$$
353825
                    3D
 Schrodinger Suite 2021-1.
 48 50  0  0  1  0            999 V2000
    3.0248   62.7992   32.9571 C   0  0  0  0  0  0
    2.0339   61.7279   33.3866 C   0  0  0  0  0  0
    1.8741   60.5584   32.6419 C   0  0  0  0  0  0
    0.9217   59.6143   33.0183 C   0  0  0  0  0  0
    0.1255   59.8277   34.1499 C   0  0  0  0  0  0
    0.2878   61.0012   34.8856 C   0  0  0  0  0  0
    1.2458   61.9396   34.5145 C   0  0  0  0  0  0
   -0.9048   58.9621   34.5533 N   0  0  0  0  0  0
   -1.1376   57.6191   34.3156 C   0  0  0  0  0  0
   -2.3333   56.9210   34.5122 C   0  0  0  0  0  0
   -2.1645   55.5645   34.1629 C   0  0  0  0  0  0
   -0.9842   55.1579   33.7626 N   0  0  0  0  0  0
    0.0715   56.4944   33.7637 S   0  0  0  0  0  0
   -3.1251   54.5916   34.2231 O   0  0  0  0  0  0
   -3.5749   57.5130   35.0224 C   0  0  0  0  0  0
   -3.4899   58.2160   36.0702 N   0  0  0  0  0  0
   -4.6825   57.1773   34.2647 N   0  0  0  0  0  0
   -6.0405   57.3967   34.7542 C   0  0  0  0  0  0
   -7.1513   57.1370   33.7237 C   0  0  0  0  0  0
   -8.5653   57.3084   34.3325 C   0  0  0  0  0  0
   -8.8623   58.7837   34.6853 C   0  0  0  0  0  0
   -8.6529   59.7115   33.4688 C   0  0  0  0  0  0
   -7.2994   59.5027   32.7599 C   0  0  0  0  0  0
   -7.0589   58.0121   32.4576 C   0  0  0  0  0  0
    3.2683   62.7291   31.8971 H   0  0  0  0  0  0
    2.5973   63.7928   33.1050 H   0  0  0  0  0  0
    3.9437   62.7445   33.5411 H   0  0  0  0  0  0
    2.4745   60.3798   31.7631 H   0  0  0  0  0  0
    0.7880   58.7481   32.3935 H   0  0  0  0  0  0
   -0.3310   61.1951   35.7491 H   0  0  0  0  0  0
    1.3621   62.8333   35.1004 H   0  0  0  0  0  0
   -1.6330   59.4828   35.0227 H   0  0  0  0  0  0
   -3.8687   54.8941   34.7501 H   0  0  0  0  0  0
   -2.5355   58.2393   36.4001 H   0  0  0  0  0  0
   -4.5815   56.6288   33.4239 H   0  0  0  0  0  0
   -6.1183   58.4102   35.1331 H   0  0  0  0  0  0
   -6.2294   56.7572   35.6128 H   0  0  0  0  0  0
   -7.0636   56.0989   33.3964 H   0  0  0  0  0  0
   -8.6651   56.6988   35.2313 H   0  0  0  0  0  0
   -9.3168   56.9464   33.6286 H   0  0  0  0  0  0
   -8.2315   59.1100   35.5114 H   0  0  0  0  0  0
   -9.8869   58.8802   35.0435 H   0  0  0  0  0  0
   -8.7351   60.7475   33.7801 H   0  0  0  0  0  0
   -9.4604   59.5478   32.7547 H   0  0  0  0  0  0
   -6.4901   59.9005   33.3715 H   0  0  0  0  0  0
   -7.2831   60.0617   31.8244 H   0  0  0  0  0  0
   -7.8200   57.6675   31.7626 H   0  0  0  0  0  0
   -6.0904   57.9023   31.9678 H   0  0  0  0  0  0
  1  2  1  0  0  0
  1 25  1  0  0  0
  1 26  1  0  0  0
  1 27  1  0  0  0
  2  7  1  0  0  0
  2  3  2  0  0  0
  3  4  1  0  0  0
  3 28  1  0  0  0
  4  5  2  0  0  0
  4 29  1  0  0  0
  5  6  1  0  0  0
  5  8  1  0  0  0
  6  7  2  0  0  0
  6 30  1  0  0  0
  7 31  1  0  0  0
  8  9  1  0  0  0
  8 32  1  0  0  0
  9 13  1  0  0  0
  9 10  2  0  0  0
 10 11  1  0  0  0
 10 15  1  0  0  0
 11 12  2  0  0  0
 11 14  1  0  0  0
 12 13  1  0  0  0
 14 33  1  0  0  0
 15 16  2  3  0  0
 15 17  1  0  0  0
 16 34  1  0  0  0
 17 18  1  0  0  0
 17 35  1  0  0  0
 18 19  1  0  0  0
 18 36  1  0  0  0
 18 37  1  0  0  0
 19 24  1  0  0  0
 19 20  1  0  0  0
 19 38  1  0  0  0
 20 21  1  0  0  0
 20 39  1  0  0  0
 20 40  1  0  0  0
 21 22  1  0  0  0
 21 41  1  0  0  0
 21 42  1  0  0  0
 22 23  1  0  0  0
 22 43  1  0  0  0
 22 44  1  0  0  0
 23 24  1  0  0  0
 23 45  1  0  0  0
 23 46  1  0  0  0
 24 47  1  0  0  0
 24 48  1  0  0  0
M  END
> <s_m_entry_id>
66058

> <s_m_entry_name>
ligand_docking-pose.114

> <s_m_Source_Path>
/home/csk/Desktop/cluster/DUD-E-result/mp2k1

> <s_m_Source_File>
ligand_docking-pose.sdf

> <i_m_Source_File_Index>
114

> <i_lp_mmshare_version>
53161

> <r_lp_tautomer_probability>
1

> <s_lp_Force_Field>
OPLS_2005

> <r_lp_Energy>
21.503472

> <b_lp_Chiralities_Consistent>
1

> <s_lp_Variant>
353825-2

> <s_i_glide_gridfile>
glide-grid_3eqh

> <i_i_glide_lignum>
156

> <i_i_glide_rotatable_bonds>
7

> <r_i_docking_score>
-7.52910198522546

> <r_i_glide_ligand_efficiency>
-0.313712582717728

> <r_i_glide_ligand_efficiency_sa>
-0.904903674290729

> <r_i_glide_ligand_efficiency_ln>
-1.80205959304226

> <r_i_glide_gscore>
-7.52910198522546

> <r_i_glide_lipo>
-3.55842847184386

> <r_i_glide_hbond>
-0.1572393590417

> <r_i_glide_metal>
0

> <r_i_glide_rewards>
-1.47259023444732

> <r_i_glide_evdw>
-44.0488433837891

> <r_i_glide_ecoul>
-6.25650596618652

> <r_i_glide_erotb>
0.800074144224842

> <r_i_glide_esite>
0

> <r_i_glide_emodel>
-71.7952657900782

> <r_i_glide_energy>
-50.3053493499756

> <r_i_glide_einternal>
2.62809300422668

> <i_i_glide_confnum>
140

> <i_i_glide_posenum>
244

> <r_i_glide_eff_state_penalty>
0

> <i_f3d_flags>
0

> <s_user_duplicate_titles>
353825

> <s_m_subgroup_title>
dock_pv

> <s_m_subgroupid>
dock_pv1

> <b_m_subgroup_collapsed>
0

$$$$
363014
                    3D
 Schrodinger Suite 2021-1.
 50 52  0  0  1  0            999 V2000
   -7.9785   57.8635   35.1776 C   0  0  0  0  0  0
   -7.9530   58.2354   33.6779 C   0  0  1  0  0  0
   -7.3939   59.6675   33.4832 C   0  0  0  0  0  0
   -7.5238   60.1680   32.1627 O   0  0  0  0  0  0
   -7.1127   57.2771   32.9631 N   0  0  0  0  0  0
   -7.6220   56.1933   32.5108 C   0  0  0  0  0  0
   -6.7352   55.2674   31.7802 C   0  0  0  0  0  0
   -7.0389   54.6296   30.5625 C   0  0  0  0  0  0
   -6.1360   53.8581   30.0005 N   0  0  0  0  0  0
   -4.7261   53.8966   30.9571 S   0  0  0  0  0  0
   -5.4585   54.8788   32.1859 C   0  0  0  0  0  0
   -4.8239   55.1749   33.3631 N   0  0  0  0  0  0
   -3.5564   55.7501   33.4472 C   0  0  0  0  0  0
   -3.4832   57.1338   33.5358 C   0  0  0  0  0  0
   -2.2537   57.7547   33.6939 C   0  0  0  0  0  0
   -1.0616   57.0114   33.7760 C   0  0  0  0  0  0
   -1.1494   55.6149   33.6943 C   0  0  0  0  0  0
   -2.3895   54.9874   33.5303 C   0  0  0  0  0  0
   -0.0280   54.8584   33.7630 F   0  0  0  0  0  0
    0.1920   57.5952   33.9280 O   0  0  0  0  0  0
    0.3202   58.9379   34.2324 C   0  0  0  0  0  0
   -0.4040   59.4759   35.3020 C   0  0  0  0  0  0
   -0.4607   60.8466   35.4897 C   0  0  0  0  0  0
    0.3015   61.6825   34.6881 C   0  0  0  0  0  0
    1.1147   61.1760   33.6750 C   0  0  0  0  0  0
    1.1191   59.7845   33.4409 C   0  0  0  0  0  0
    2.0730   59.0998   32.1670 Cl  0  0  0  0  0  0
    1.9517   62.1767   32.8717 C   0  0  0  0  0  0
    2.1455   63.3197   33.5328 F   0  0  0  0  0  0
    3.1599   61.7117   32.5631 F   0  0  0  0  0  0
    1.2737   62.4607   31.7637 F   0  0  0  0  0  0
   -8.2136   54.7479   29.8726 O   0  0  0  0  0  0
   -8.9010   55.6912   32.6041 N   0  0  0  0  0  0
   -8.5840   58.5686   35.7489 H   0  0  0  0  0  0
   -8.4056   56.8726   35.3372 H   0  0  0  0  0  0
   -6.9768   57.8608   35.6096 H   0  0  0  0  0  0
   -8.9835   58.2326   33.3096 H   0  0  0  0  0  0
   -6.3401   59.7002   33.7610 H   0  0  0  0  0  0
   -7.9254   60.3479   34.1475 H   0  0  0  0  0  0
   -7.3498   59.4193   31.5765 H   0  0  0  0  0  0
   -5.4287   55.5795   34.0639 H   0  0  0  0  0  0
   -4.3795   57.7348   33.4793 H   0  0  0  0  0  0
   -2.2599   58.8303   33.7595 H   0  0  0  0  0  0
   -2.4444   53.9118   33.4871 H   0  0  0  0  0  0
   -0.9939   58.8307   35.9366 H   0  0  0  0  0  0
   -1.0775   61.2642   36.2724 H   0  0  0  0  0  0
    0.2603   62.7478   34.8549 H   0  0  0  0  0  0
   -8.3853   55.6919   29.7631 H   0  0  0  0  0  0
   -9.6037   56.1852   33.1310 H   0  0  0  0  0  0
   -9.1264   54.8016   32.1838 H   0  0  0  0  0  0
  1  2  1  0  0  0
  1 34  1  0  0  0
  1 35  1  0  0  0
  1 36  1  0  0  0
  2  3  1  0  0  0
  2  5  1  0  0  0
  2 37  1  0  0  0
  3  4  1  0  0  0
  3 38  1  0  0  0
  3 39  1  0  0  0
  4 40  1  0  0  0
  5  6  2  0  0  0
  6  7  1  0  0  0
  6 33  1  0  0  0
  7 11  2  0  0  0
  7  8  1  0  0  0
  8  9  2  0  0  0
  8 32  1  0  0  0
  9 10  1  0  0  0
 10 11  1  0  0  0
 11 12  1  0  0  0
 12 13  1  0  0  0
 12 41  1  0  0  0
 13 18  1  0  0  0
 13 14  2  0  0  0
 14 15  1  0  0  0
 14 42  1  0  0  0
 15 16  2  0  0  0
 15 43  1  0  0  0
 16 17  1  0  0  0
 16 20  1  0  0  0
 17 18  2  0  0  0
 17 19  1  0  0  0
 18 44  1  0  0  0
 20 21  1  0  0  0
 21 26  1  0  0  0
 21 22  2  0  0  0
 22 23  1  0  0  0
 22 45  1  0  0  0
 23 24  2  0  0  0
 23 46  1  0  0  0
 24 25  1  0  0  0
 24 47  1  0  0  0
 25 26  2  0  0  0
 25 28  1  0  0  0
 26 27  1  0  0  0
 28 29  1  0  0  0
 28 30  1  0  0  0
 28 31  1  0  0  0
 32 48  1  0  0  0
 33 49  1  0  0  0
 33 50  1  0  0  0
M  END
> <s_m_entry_id>
66059

> <s_m_entry_name>
ligand_docking-pose.115

> <s_m_Source_Path>
/home/csk/Desktop/cluster/DUD-E-result/mp2k1

> <s_m_Source_File>
ligand_docking-pose.sdf

> <i_m_Source_File_Index>
115

> <i_lp_mmshare_version>
53161

> <r_lp_tautomer_probability>
1

> <s_lp_Force_Field>
OPLS_2005

> <r_lp_Energy>
28.550221

> <b_lp_Chiralities_Consistent>
1

> <s_lp_Variant>
363014-2

> <s_i_glide_gridfile>
glide-grid_3eqh

> <i_i_glide_lignum>
236

> <i_i_glide_rotatable_bonds>
10

> <r_i_docking_score>
-7.52703904493939

> <r_i_glide_ligand_efficiency>
-0.228092092270891

> <r_i_glide_ligand_efficiency_sa>
-0.731613215506761

> <r_i_glide_ligand_efficiency_ln>
-1.67397451067213

> <r_i_glide_gscore>
-7.52703904493939

> <r_i_glide_lipo>
-3.93270887187347

> <r_i_glide_hbond>
-0.125688849972409

> <r_i_glide_metal>
0

> <r_i_glide_rewards>
-0.420187933108772

> <r_i_glide_evdw>
-49.6067581176758

> <r_i_glide_ecoul>
-7.37072277069092

> <r_i_glide_erotb>
0.561560823607951

> <r_i_glide_esite>
-0.0240678921052625

> <r_i_glide_emodel>
-80.0462077798556

> <r_i_glide_energy>
-56.9774808883667

> <r_i_glide_einternal>
17.3127288818359

> <i_i_glide_confnum>
78

> <i_i_glide_posenum>
76

> <r_i_glide_eff_state_penalty>
0

> <i_f3d_flags>
0

> <s_user_duplicate_titles>
363014

> <s_m_subgroup_title>
dock_pv

> <s_m_subgroupid>
dock_pv1

> <b_m_subgroup_collapsed>
0

$$$$
337922
                    3D
 Schrodinger Suite 2021-1.
 62 66  0  0  1  0            999 V2000
   -5.6092   53.3239   32.0899 C   0  0  0  0  0  0
   -6.9544   53.7181   32.6554 C   0  0  0  0  0  0
   -7.9957   52.8696   33.0268 C   0  0  0  0  0  0
   -9.0456   53.6174   33.5454 C   0  0  0  0  0  0
   -8.7248   54.9446   33.4265 N   0  0  0  0  0  0
   -7.4300   55.0466   32.8752 C   0  0  0  0  0  0
   -6.9393   56.3590   32.6800 C   0  0  0  0  0  0
   -7.7800   57.4499   32.9848 C   0  0  0  0  0  0
   -9.0367   57.1936   33.5333 C   0  0  0  0  0  0
   -9.5283   55.9569   33.7788 N   0  0  0  0  0  0
   -7.4123   58.8424   32.7263 C   0  0  0  0  0  0
   -7.1265   59.9468   32.5207 N   0  0  0  0  0  0
   -5.6407   56.5080   32.1679 N   0  0  0  0  0  0
   -4.4534   56.7196   32.8806 C   0  0  0  0  0  0
   -4.4591   57.1735   34.2045 C   0  0  0  0  0  0
   -3.2580   57.4416   34.8584 C   0  0  0  0  0  0
   -2.0489   57.2472   34.1929 C   0  0  0  0  0  0
   -2.0436   56.7334   32.8963 C   0  0  0  0  0  0
   -3.2419   56.4688   32.2378 C   0  0  0  0  0  0
   -0.8675   57.5501   34.8262 O   0  0  0  0  0  0
   -0.2306   58.7094   34.4528 C   0  0  0  0  0  0
    0.7697   58.6707   33.4794 C   0  0  0  0  0  0
    1.4080   59.8420   33.0822 C   0  0  0  0  0  0
    1.0508   61.0515   33.6741 C   0  0  0  0  0  0
    0.0632   61.0966   34.6580 C   0  0  0  0  0  0
   -0.5762   59.9230   35.0516 C   0  0  0  0  0  0
   -7.9502   51.5053   32.8975 O   0  0  0  0  0  0
   -9.0395   50.8771   32.2082 C   0  0  0  0  0  0
   -9.5874   51.5883   30.9346 C   0  0  0  0  0  0
   -8.5832   52.1022   29.9936 N   0  0  0  0  0  0
   -7.6203   51.1005   29.5178 C   0  0  0  0  0  0
   -6.6322   51.7175   28.4954 C   0  0  0  0  0  0
   -7.3365   52.3478   27.4227 O   0  0  0  0  0  0
   -8.1706   53.4015   27.9019 C   0  0  0  0  0  0
   -9.2194   52.8428   28.8909 C   0  0  0  0  0  0
   -5.5118   52.2453   31.9927 H   0  0  0  0  0  0
   -5.4503   53.7479   31.0980 H   0  0  0  0  0  0
   -4.7932   53.6628   32.7267 H   0  0  0  0  0  0
   -9.9940   53.2964   33.9470 H   0  0  0  0  0  0
   -9.7065   58.0071   33.7955 H   0  0  0  0  0  0
   -5.5792   56.5534   31.1605 H   0  0  0  0  0  0
   -5.3937   57.3389   34.7192 H   0  0  0  0  0  0
   -3.2582   57.8084   35.8727 H   0  0  0  0  0  0
   -1.1102   56.5630   32.3866 H   0  0  0  0  0  0
   -3.2238   56.1061   31.2212 H   0  0  0  0  0  0
    1.0385   57.7318   33.0203 H   0  0  0  0  0  0
    2.1730   59.8132   32.3201 H   0  0  0  0  0  0
    1.5427   61.9626   33.3677 H   0  0  0  0  0  0
   -0.2138   62.0389   35.1101 H   0  0  0  0  0  0
   -1.3486   59.9567   35.8062 H   0  0  0  0  0  0
   -8.7321   49.8667   31.9529 H   0  0  0  0  0  0
   -9.8582   50.7496   32.9161 H   0  0  0  0  0  0
  -10.2419   50.8990   30.4050 H   0  0  0  0  0  0
  -10.2085   52.4248   31.2556 H   0  0  0  0  0  0
   -7.0653   50.6965   30.3671 H   0  0  0  0  0  0
   -8.1502   50.2581   29.0692 H   0  0  0  0  0  0
   -5.9968   50.9344   28.0878 H   0  0  0  0  0  0
   -5.9620   52.4252   28.9831 H   0  0  0  0  0  0
   -8.6637   53.8810   27.0559 H   0  0  0  0  0  0
   -7.5734   54.1725   28.3874 H   0  0  0  0  0  0
   -9.9243   52.1967   28.3634 H   0  0  0  0  0  0
   -9.8107   53.6640   29.2977 H   0  0  0  0  0  0
  1  2  1  0  0  0
  1 36  1  0  0  0
  1 37  1  0  0  0
  1 38  1  0  0  0
  2  6  2  0  0  0
  2  3  1  0  0  0
  3  4  2  0  0  0
  3 27  1  0  0  0
  4  5  1  0  0  0
  4 39  1  0  0  0
  5 10  1  0  0  0
  5  6  1  0  0  0
  6  7  1  0  0  0
  7  8  2  0  0  0
  7 13  1  0  0  0
  8  9  1  0  0  0
  8 11  1  0  0  0
  9 10  2  0  0  0
  9 40  1  0  0  0
 11 12  3  0  0  0
 13 14  1  0  0  0
 13 41  1  0  0  0
 14 19  1  0  0  0
 14 15  2  0  0  0
 15 16  1  0  0  0
 15 42  1  0  0  0
 16 17  2  0  0  0
 16 43  1  0  0  0
 17 18  1  0  0  0
 17 20  1  0  0  0
 18 19  2  0  0  0
 18 44  1  0  0  0
 19 45  1  0  0  0
 20 21  1  0  0  0
 21 26  1  0  0  0
 21 22  2  0  0  0
 22 23  1  0  0  0
 22 46  1  0  0  0
 23 24  2  0  0  0
 23 47  1  0  0  0
 24 25  1  0  0  0
 24 48  1  0  0  0
 25 26  2  0  0  0
 25 49  1  0  0  0
 26 50  1  0  0  0
 27 28  1  0  0  0
 28 29  1  0  0  0
 28 51  1  0  0  0
 28 52  1  0  0  0
 29 30  1  0  0  0
 29 53  1  0  0  0
 29 54  1  0  0  0
 30 35  1  0  0  0
 30 31  1  0  0  0
 31 32  1  0  0  0
 31 55  1  0  0  0
 31 56  1  0  0  0
 32 33  1  0  0  0
 32 57  1  0  0  0
 32 58  1  0  0  0
 33 34  1  0  0  0
 34 35  1  0  0  0
 34 59  1  0  0  0
 34 60  1  0  0  0
 35 61  1  0  0  0
 35 62  1  0  0  0
M  END
> <s_m_entry_id>
66060

> <s_m_entry_name>
ligand_docking-pose.116

> <s_m_Source_Path>
/home/csk/Desktop/cluster/DUD-E-result/mp2k1

> <s_m_Source_File>
ligand_docking-pose.sdf

> <i_m_Source_File_Index>
116

> <i_lp_mmshare_version>
53161

> <r_lp_tautomer_probability>
1

> <s_lp_Force_Field>
OPLS_2005

> <r_lp_Energy>
50.07873

> <b_lp_Chiralities_Consistent>
1

> <s_lp_Variant>
337922-1

> <s_i_glide_gridfile>
glide-grid_3eqh

> <i_i_glide_lignum>
182

> <i_i_glide_rotatable_bonds>
8

> <r_i_docking_score>
-7.50724102612144

> <r_i_glide_ligand_efficiency>
-0.214492600746327

> <r_i_glide_ligand_efficiency_sa>
-0.701619519254542

> <r_i_glide_ligand_efficiency_ln>
-1.64800601947129

> <r_i_glide_gscore>
-7.50724102612144

> <r_i_glide_lipo>
-3.70526501058169

> <r_i_glide_hbond>
-0.16

> <r_i_glide_metal>
0

> <r_i_glide_rewards>
-0.457498528260811

> <r_i_glide_evdw>
-53.1974411010742

> <r_i_glide_ecoul>
-7.50227737426758

> <r_i_glide_erotb>
0.641321454696966

> <r_i_glide_esite>
-0.0405852807820617

> <r_i_glide_emodel>
-78.2661488036546

> <r_i_glide_energy>
-60.6997184753418

> <r_i_glide_einternal>
13.8765029907227

> <i_i_glide_confnum>
20

> <i_i_glide_posenum>
322

> <r_i_glide_eff_state_penalty>
0

> <i_f3d_flags>
0

> <s_user_duplicate_titles>
337922

> <s_m_subgroup_title>
dock_pv

> <s_m_subgroupid>
dock_pv1

> <b_m_subgroup_collapsed>
0

$$$$
337974
                    3D
 Schrodinger Suite 2021-1.
 42 45  0  0  1  0            999 V2000
   -5.1924   53.4344   32.6010 C   0  0  0  0  0  0
   -6.6054   53.8004   32.9973 C   0  0  0  0  0  0
   -7.6308   52.9328   33.3629 C   0  0  0  0  0  0
   -8.7735   53.6478   33.6920 C   0  0  0  0  0  0
   -8.5086   54.9798   33.5049 N   0  0  0  0  0  0
   -7.1688   55.1173   33.0683 C   0  0  0  0  0  0
   -6.7384   56.4406   32.8074 C   0  0  0  0  0  0
   -7.6711   57.4917   32.9338 C   0  0  0  0  0  0
   -8.9560   57.2047   33.3926 C   0  0  0  0  0  0
   -9.3989   55.9643   33.6977 N   0  0  0  0  0  0
   -7.3660   58.8721   32.5668 C   0  0  0  0  0  0
   -7.1273   59.9646   32.2692 N   0  0  0  0  0  0
   -5.4208   56.6519   32.3626 N   0  0  0  0  0  0
   -4.2888   56.8988   33.1508 C   0  0  0  0  0  0
   -3.0403   56.7128   32.5633 C   0  0  0  0  0  0
   -1.8809   57.0392   33.2567 C   0  0  0  0  0  0
   -1.9581   57.5647   34.5478 C   0  0  0  0  0  0
   -3.2043   57.6906   35.1644 C   0  0  0  0  0  0
   -4.3685   57.3604   34.4692 C   0  0  0  0  0  0
   -0.8271   57.9590   35.2245 O   0  0  0  0  0  0
   -0.0667   58.9550   34.6558 C   0  0  0  0  0  0
    0.9538   58.6319   33.7570 C   0  0  0  0  0  0
    1.6746   59.6415   33.1259 C   0  0  0  0  0  0
    1.3968   60.9743   33.4226 C   0  0  0  0  0  0
    0.4036   61.3064   34.3427 C   0  0  0  0  0  0
   -0.3267   60.2932   34.9611 C   0  0  0  0  0  0
   -4.9452   53.8279   31.6158 H   0  0  0  0  0  0
   -5.0445   52.3560   32.5635 H   0  0  0  0  0  0
   -4.4621   53.8355   33.3013 H   0  0  0  0  0  0
   -7.5418   51.8563   33.4142 H   0  0  0  0  0  0
   -9.7414   53.3046   34.0300 H   0  0  0  0  0  0
   -9.6941   57.9887   33.5121 H   0  0  0  0  0  0
   -5.3961   57.2035   31.5157 H   0  0  0  0  0  0
   -2.9670   56.3485   31.5480 H   0  0  0  0  0  0
   -0.9258   56.9100   32.7707 H   0  0  0  0  0  0
   -3.2611   58.0680   36.1752 H   0  0  0  0  0  0
   -5.3285   57.4898   34.9436 H   0  0  0  0  0  0
    1.1645   57.5997   33.5257 H   0  0  0  0  0  0
    2.4439   59.3931   32.4087 H   0  0  0  0  0  0
    1.9615   61.7562   32.9368 H   0  0  0  0  0  0
    0.1918   62.3452   34.5632 H   0  0  0  0  0  0
   -1.1126   60.5470   35.6556 H   0  0  0  0  0  0
  1  2  1  0  0  0
  1 27  1  0  0  0
  1 28  1  0  0  0
  1 29  1  0  0  0
  2  6  2  0  0  0
  2  3  1  0  0  0
  3  4  2  0  0  0
  3 30  1  0  0  0
  4  5  1  0  0  0
  4 31  1  0  0  0
  5 10  1  0  0  0
  5  6  1  0  0  0
  6  7  1  0  0  0
  7  8  2  0  0  0
  7 13  1  0  0  0
  8  9  1  0  0  0
  8 11  1  0  0  0
  9 10  2  0  0  0
  9 32  1  0  0  0
 11 12  3  0  0  0
 13 14  1  0  0  0
 13 33  1  0  0  0
 14 19  1  0  0  0
 14 15  2  0  0  0
 15 16  1  0  0  0
 15 34  1  0  0  0
 16 17  2  0  0  0
 16 35  1  0  0  0
 17 18  1  0  0  0
 17 20  1  0  0  0
 18 19  2  0  0  0
 18 36  1  0  0  0
 19 37  1  0  0  0
 20 21  1  0  0  0
 21 26  1  0  0  0
 21 22  2  0  0  0
 22 23  1  0  0  0
 22 38  1  0  0  0
 23 24  2  0  0  0
 23 39  1  0  0  0
 24 25  1  0  0  0
 24 40  1  0  0  0
 25 26  2  0  0  0
 25 41  1  0  0  0
 26 42  1  0  0  0
M  END
> <s_m_entry_id>
66061

> <s_m_entry_name>
ligand_docking-pose.117

> <s_m_Source_Path>
/home/csk/Desktop/cluster/DUD-E-result/mp2k1

> <s_m_Source_File>
ligand_docking-pose.sdf

> <i_m_Source_File_Index>
117

> <i_lp_mmshare_version>
53161

> <r_lp_tautomer_probability>
1

> <s_lp_Force_Field>
OPLS_2005

> <r_lp_Energy>
27.546126

> <b_lp_Chiralities_Consistent>
1

> <s_lp_Variant>
337974-1

> <s_i_glide_gridfile>
glide-grid_3eqh

> <i_i_glide_lignum>
165

> <i_i_glide_rotatable_bonds>
4

> <r_i_docking_score>
-7.49467561043341

> <r_i_glide_ligand_efficiency>
-0.288256754247439

> <r_i_glide_ligand_efficiency_sa>
-0.85395950022248

> <r_i_glide_ligand_efficiency_ln>
-1.76009997507379

> <r_i_glide_gscore>
-7.49467561043341

> <r_i_glide_lipo>
-3.61348986579151

> <r_i_glide_hbond>
0

> <r_i_glide_metal>
0

> <r_i_glide_rewards>
-1.29388561014444

> <r_i_glide_evdw>
-47.6257362365723

> <r_i_glide_ecoul>
-5.39761924743652

> <r_i_glide_erotb>
0.653791266002042

> <r_i_glide_esite>
-0.0501617015554115

> <r_i_glide_emodel>
-74.2438470290097

> <r_i_glide_energy>
-53.0233554840088

> <r_i_glide_einternal>
6.53851175308228

> <i_i_glide_confnum>
19

> <i_i_glide_posenum>
190

> <r_i_glide_eff_state_penalty>
0

> <i_f3d_flags>
0

> <s_user_duplicate_titles>
337974

> <s_m_subgroup_title>
dock_pv

> <s_m_subgroupid>
dock_pv1

> <b_m_subgroup_collapsed>
0

$$$$
363042
                    3D
 Schrodinger Suite 2021-1.
 44 46  0  0  1  0            999 V2000
   -3.1431   56.3516   33.3906 C   0  0  0  0  0  0
   -2.0020   57.1498   33.3937 C   0  0  0  0  0  0
   -0.7631   56.6160   33.7627 C   0  0  0  0  0  0
   -0.6925   55.2684   34.1093 C   0  0  0  0  0  0
   -1.8394   54.4767   34.1109 C   0  0  0  0  0  0
   -3.0722   54.9881   33.6958 C   0  0  0  0  0  0
   -4.1451   54.0686   33.6539 N   0  0  0  0  0  0
   -5.3152   53.9248   32.9114 C   0  0  0  0  0  0
   -6.1095   54.7332   32.0836 C   0  0  0  0  0  0
   -7.1974   54.0172   31.5585 C   0  0  0  0  0  0
   -7.3451   52.7617   31.8944 N   0  0  0  0  0  0
   -6.0843   52.3609   32.9643 S   0  0  0  0  0  0
   -8.1442   54.5228   30.7042 O   0  0  0  0  0  0
   -5.9476   56.1329   31.7984 C   0  0  0  0  0  0
   -6.5732   56.9343   32.5637 N   0  0  0  0  0  0
   -6.4960   58.3592   32.3176 C   0  0  0  0  0  0
   -7.9087   58.9502   32.3314 C   0  0  0  0  0  0
   -7.8292   60.3480   32.1627 O   0  0  0  0  0  0
   -5.1254   56.2991   30.7127 N   0  0  0  0  0  0
    0.4130   57.3464   33.7845 O   0  0  0  0  0  0
    0.4481   58.7169   33.9794 C   0  0  0  0  0  0
   -0.3832   59.3655   34.9038 C   0  0  0  0  0  0
   -0.3260   60.7519   35.0552 C   0  0  0  0  0  0
    0.5731   61.5047   34.3048 C   0  0  0  0  0  0
    1.4260   60.8701   33.4084 C   0  0  0  0  0  0
    1.3690   59.4860   33.2527 C   0  0  0  0  0  0
    2.4732   58.7477   32.1608 Cl  0  0  0  0  0  0
   -1.3821   61.5434   36.1629 Cl  0  0  0  0  0  0
   -4.0656   56.8466   33.1872 H   0  0  0  0  0  0
   -2.0961   58.1909   33.1304 H   0  0  0  0  0  0
    0.2512   54.8426   34.4132 H   0  0  0  0  0  0
   -1.7541   53.4514   34.4330 H   0  0  0  0  0  0
   -3.9029   53.2714   34.2236 H   0  0  0  0  0  0
   -7.9245   55.4319   30.4754 H   0  0  0  0  0  0
   -6.0198   58.6113   31.3650 H   0  0  0  0  0  0
   -5.9245   58.8073   33.1297 H   0  0  0  0  0  0
   -8.4127   58.7237   33.2740 H   0  0  0  0  0  0
   -8.5312   58.5070   31.5522 H   0  0  0  0  0  0
   -8.7309   60.6959   32.2473 H   0  0  0  0  0  0
   -4.8895   57.2225   30.3754 H   0  0  0  0  0  0
   -4.7043   55.4997   30.2663 H   0  0  0  0  0  0
   -1.0827   58.7965   35.4966 H   0  0  0  0  0  0
    0.6151   62.5775   34.4239 H   0  0  0  0  0  0
    2.1369   61.4501   32.8379 H   0  0  0  0  0  0
  1  6  1  0  0  0
  1  2  2  0  0  0
  1 29  1  0  0  0
  2  3  1  0  0  0
  2 30  1  0  0  0
  3  4  2  0  0  0
  3 20  1  0  0  0
  4  5  1  0  0  0
  4 31  1  0  0  0
  5  6  2  0  0  0
  5 32  1  0  0  0
  6  7  1  0  0  0
  7  8  1  0  0  0
  7 33  1  0  0  0
  8 12  1  0  0  0
  8  9  2  0  0  0
  9 10  1  0  0  0
  9 14  1  0  0  0
 10 11  2  0  0  0
 10 13  1  0  0  0
 11 12  1  0  0  0
 13 34  1  0  0  0
 14 15  2  0  0  0
 14 19  1  0  0  0
 15 16  1  0  0  0
 16 17  1  0  0  0
 16 35  1  0  0  0
 16 36  1  0  0  0
 17 18  1  0  0  0
 17 37  1  0  0  0
 17 38  1  0  0  0
 18 39  1  0  0  0
 19 40  1  0  0  0
 19 41  1  0  0  0
 20 21  1  0  0  0
 21 26  1  0  0  0
 21 22  2  0  0  0
 22 23  1  0  0  0
 22 42  1  0  0  0
 23 24  2  0  0  0
 23 28  1  0  0  0
 24 25  1  0  0  0
 24 43  1  0  0  0
 25 26  2  0  0  0
 25 44  1  0  0  0
 26 27  1  0  0  0
M  END
> <s_m_entry_id>
66062

> <s_m_entry_name>
ligand_docking-pose.118

> <s_m_Source_Path>
/home/csk/Desktop/cluster/DUD-E-result/mp2k1

> <s_m_Source_File>
ligand_docking-pose.sdf

> <i_m_Source_File_Index>
118

> <i_lp_mmshare_version>
53161

> <r_lp_tautomer_probability>
1

> <s_lp_Force_Field>
OPLS_2005

> <r_lp_Energy>
23.310312

> <b_lp_Chiralities_Consistent>
1

> <s_lp_Variant>
363042-1

> <s_i_glide_gridfile>
glide-grid_3eqh

> <i_i_glide_lignum>
58

> <i_i_glide_rotatable_bonds>
9

> <r_i_docking_score>
-7.48803295659906

> <r_i_glide_ligand_efficiency>
-0.267429748449967

> <r_i_glide_ligand_efficiency_sa>
-0.812074223992652

> <r_i_glide_ligand_efficiency_ln>
-1.72845786458411

> <r_i_glide_gscore>
-7.48803295659906

> <r_i_glide_lipo>
-3.89246520135528

> <r_i_glide_hbond>
-0.249511244214969

> <r_i_glide_metal>
0

> <r_i_glide_rewards>
-0.642067196394627

> <r_i_glide_evdw>
-48.8113327026367

> <r_i_glide_ecoul>
-6.2418909072876

> <r_i_glide_erotb>
0.723841913816884

> <r_i_glide_esite>
-0.0509809572260986

> <r_i_glide_emodel>
-76.8862844333939

> <r_i_glide_energy>
-55.0532236099243

> <r_i_glide_einternal>
15.2345495223999

> <i_i_glide_confnum>
33

> <i_i_glide_posenum>
186

> <r_i_glide_eff_state_penalty>
0

> <i_f3d_flags>
0

> <s_user_duplicate_titles>
363042

> <s_m_subgroup_title>
dock_pv

> <s_m_subgroupid>
dock_pv1

> <b_m_subgroup_collapsed>
0

$$$$
43227
                    3D
 Schrodinger Suite 2021-1.
 50 53  0  0  1  0            999 V2000
   -3.7642   51.9578   29.1817 C   0  0  0  0  0  0
   -5.1096   52.4075   29.1029 O   0  0  0  0  0  0
   -5.5562   53.3773   29.9865 C   0  0  0  0  0  0
   -4.7294   53.9908   30.9440 C   0  0  0  0  0  0
   -5.2304   54.9692   31.8518 C   0  0  0  0  0  0
   -6.6134   55.3097   31.7520 C   0  0  0  0  0  0
   -7.4249   54.6966   30.7740 C   0  0  0  0  0  0
   -6.9014   53.7487   29.8869 C   0  0  0  0  0  0
   -7.6531   53.1544   28.8842 O   0  0  0  0  0  0
   -8.9880   53.5969   28.6516 C   0  0  0  0  0  0
   -7.1967   56.2271   32.5600 N   0  0  0  0  0  0
   -6.4348   56.8471   33.4802 C   0  0  0  0  0  0
   -5.0773   56.6018   33.6662 C   0  0  0  0  0  0
   -4.4258   55.6446   32.8388 C   0  0  0  0  0  0
   -3.0538   55.2898   32.9599 N   0  0  0  0  0  0
   -1.9186   56.0449   33.3007 C   0  0  0  0  0  0
   -1.9364   57.4323   33.1879 C   0  0  0  0  0  0
   -0.9037   58.1880   33.7037 C   0  0  0  0  0  0
    0.2657   57.5767   34.1316 C   0  0  0  0  0  0
    0.3430   56.1814   34.1616 C   0  0  0  0  0  0
   -0.7591   55.4139   33.7650 C   0  0  0  0  0  0
    1.3343   58.3830   34.5422 N   0  0  0  0  0  0
    1.5681   59.7206   34.1766 C   0  0  0  0  0  0
    2.0800   60.5946   35.1292 C   0  0  0  0  0  0
    2.3024   61.9322   34.8076 C   0  0  0  0  0  0
    2.0060   62.3934   33.5275 C   0  0  0  0  0  0
    1.5005   61.5258   32.5636 C   0  0  0  0  0  0
    1.2902   60.1888   32.8855 C   0  0  0  0  0  0
   -4.4413   57.3478   34.7518 C   0  0  0  0  0  0
   -3.9265   57.9476   35.6005 N   0  0  0  0  0  0
   -3.5993   51.1734   28.4434 H   0  0  0  0  0  0
   -3.5269   51.5481   30.1618 H   0  0  0  0  0  0
   -3.0757   52.7731   28.9660 H   0  0  0  0  0  0
   -3.6819   53.7440   30.9878 H   0  0  0  0  0  0
   -8.4577   55.0058   30.7168 H   0  0  0  0  0  0
   -9.3986   53.0682   27.7916 H   0  0  0  0  0  0
   -9.6354   53.3886   29.5054 H   0  0  0  0  0  0
   -9.0246   54.6638   28.4256 H   0  0  0  0  0  0
   -6.9685   57.5587   34.0941 H   0  0  0  0  0  0
   -2.8531   54.3342   32.7059 H   0  0  0  0  0  0
   -2.7921   57.9465   32.7778 H   0  0  0  0  0  0
   -1.0181   59.2593   33.7629 H   0  0  0  0  0  0
    1.2364   55.6961   34.5255 H   0  0  0  0  0  0
   -0.7183   54.3363   33.8412 H   0  0  0  0  0  0
    1.8027   58.0695   35.3793 H   0  0  0  0  0  0
    2.3110   60.2418   36.1227 H   0  0  0  0  0  0
    2.6942   62.6091   35.5511 H   0  0  0  0  0  0
    2.1698   63.4342   33.2820 H   0  0  0  0  0  0
    1.2749   61.8879   31.5727 H   0  0  0  0  0  0
    0.9119   59.5137   32.1305 H   0  0  0  0  0  0
  1  2  1  0  0  0
  1 31  1  0  0  0
  1 32  1  0  0  0
  1 33  1  0  0  0
  2  3  1  0  0  0
  3  8  1  0  0  0
  3  4  2  0  0  0
  4  5  1  0  0  0
  4 34  1  0  0  0
  5 14  2  0  0  0
  5  6  1  0  0  0
  6  7  1  0  0  0
  6 11  2  0  0  0
  7  8  2  0  0  0
  7 35  1  0  0  0
  8  9  1  0  0  0
  9 10  1  0  0  0
 10 36  1  0  0  0
 10 37  1  0  0  0
 10 38  1  0  0  0
 11 12  1  0  0  0
 12 13  2  0  0  0
 12 39  1  0  0  0
 13 14  1  0  0  0
 13 29  1  0  0  0
 14 15  1  0  0  0
 15 16  1  0  0  0
 15 40  1  0  0  0
 16 21  1  0  0  0
 16 17  2  0  0  0
 17 18  1  0  0  0
 17 41  1  0  0  0
 18 19  2  0  0  0
 18 42  1  0  0  0
 19 20  1  0  0  0
 19 22  1  0  0  0
 20 21  2  0  0  0
 20 43  1  0  0  0
 21 44  1  0  0  0
 22 23  1  0  0  0
 22 45  1  0  0  0
 23 28  1  0  0  0
 23 24  2  0  0  0
 24 25  1  0  0  0
 24 46  1  0  0  0
 25 26  2  0  0  0
 25 47  1  0  0  0
 26 27  1  0  0  0
 26 48  1  0  0  0
 27 28  2  0  0  0
 27 49  1  0  0  0
 28 50  1  0  0  0
 29 30  3  0  0  0
M  END
> <s_m_entry_id>
66063

> <s_m_entry_name>
ligand_docking-pose.119

> <s_m_Source_Path>
/home/csk/Desktop/cluster/DUD-E-result/mp2k1

> <s_m_Source_File>
ligand_docking-pose.sdf

> <i_m_Source_File_Index>
119

> <i_lp_mmshare_version>
53161

> <r_lp_tautomer_probability>
1

> <s_lp_Force_Field>
OPLS_2005

> <r_lp_Energy>
37.8763

> <b_lp_Chiralities_Consistent>
1

> <s_lp_Variant>
43227-1

> <s_i_glide_gridfile>
glide-grid_3eqh

> <i_i_glide_lignum>
390

> <i_i_glide_rotatable_bonds>
6

> <r_i_docking_score>
-7.47389314475376

> <r_i_glide_ligand_efficiency>
-0.249129771491792

> <r_i_glide_ligand_efficiency_sa>
-0.774104123302527

> <r_i_glide_ligand_efficiency_ln>
-1.69814995707627

> <r_i_glide_gscore>
-7.47389314475376

> <r_i_glide_lipo>
-4.25193114300939

> <r_i_glide_hbond>
-0.152808818112689

> <r_i_glide_metal>
0

> <r_i_glide_rewards>
-1.11509937878861

> <r_i_glide_evdw>
-48.1794662475586

> <r_i_glide_ecoul>
-0.21766796708107

> <r_i_glide_erotb>
0.497942822757065

> <r_i_glide_esite>
-0.0103731201600475

> <r_i_glide_emodel>
-63.5839836199676

> <r_i_glide_energy>
-48.3971342146397

> <r_i_glide_einternal>
14.1815338134766

> <i_i_glide_confnum>
11

> <i_i_glide_posenum>
157

> <r_i_glide_eff_state_penalty>
0

> <i_f3d_flags>
0

> <s_user_duplicate_titles>
43227

> <s_m_subgroup_title>
dock_pv

> <s_m_subgroupid>
dock_pv1

> <b_m_subgroup_collapsed>
0

$$$$
363021
                    3D
 Schrodinger Suite 2021-1.
 47 49  0  0  1  0            999 V2000
   -5.3145   52.0788   29.8438 C   0  0  0  0  0  0
   -5.9279   53.4409   29.4617 C   0  0  1  0  0  0
   -7.2896   53.3216   28.7322 C   0  0  0  0  0  0
   -8.2339   52.5720   29.4737 O   0  0  0  0  0  0
   -6.1015   54.2538   30.6642 N   0  0  0  0  0  0
   -5.2634   55.1747   30.9444 C   0  0  0  0  0  0
   -5.5396   56.0218   32.1223 C   0  0  0  0  0  0
   -6.8164   56.5382   32.4495 C   0  0  0  0  0  0
   -6.9490   57.2941   33.5109 N   0  0  0  0  0  0
   -5.4251   57.4631   34.2326 S   0  0  0  0  0  0
   -4.5990   56.4682   33.0650 C   0  0  0  0  0  0
   -3.2476   56.1686   33.1415 N   0  0  0  0  0  0
   -2.1637   56.8655   33.7143 C   0  0  0  0  0  0
   -0.9222   56.2230   33.7563 C   0  0  0  0  0  0
    0.2199   56.9151   34.1630 C   0  0  0  0  0  0
    0.1273   58.2544   34.5389 C   0  0  0  0  0  0
   -1.1223   58.8695   34.5951 C   0  0  0  0  0  0
   -2.2510   58.1874   34.1630 C   0  0  0  0  0  0
    1.2740   58.9760   34.7982 O   0  0  0  0  0  0
    1.5263   60.1498   34.1005 C   0  0  0  0  0  0
    0.9902   60.3802   32.8241 C   0  0  0  0  0  0
    1.2239   61.5792   32.1630 C   0  0  0  0  0  0
    2.0164   62.5588   32.7396 C   0  0  0  0  0  0
    2.6035   62.3315   33.9777 C   0  0  0  0  0  0
    2.3627   61.1267   34.6660 C   0  0  0  0  0  0
    3.1627   60.7713   36.1630 Cl  0  0  0  0  0  0
    3.6740   63.5480   34.5630 Cl  0  0  0  0  0  0
   -7.9851   56.3480   31.7630 O   0  0  0  0  0  0
   -4.1020   55.5480   30.3034 N   0  0  0  0  0  0
   -5.2030   51.4378   28.9694 H   0  0  0  0  0  0
   -4.3260   52.2031   30.2863 H   0  0  0  0  0  0
   -5.9337   51.5472   30.5672 H   0  0  0  0  0  0
   -5.2490   53.9060   28.7413 H   0  0  0  0  0  0
   -7.1557   52.8430   27.7621 H   0  0  0  0  0  0
   -7.7092   54.3105   28.5365 H   0  0  0  0  0  0
   -8.3347   53.0088   30.3252 H   0  0  0  0  0  0
   -2.9388   55.3466   32.6439 H   0  0  0  0  0  0
   -0.8273   55.1977   33.4305 H   0  0  0  0  0  0
    1.1820   56.4283   34.1625 H   0  0  0  0  0  0
   -1.2067   59.9063   34.8890 H   0  0  0  0  0  0
   -3.1645   58.7482   34.1137 H   0  0  0  0  0  0
    0.3934   59.6245   32.3344 H   0  0  0  0  0  0
    0.8168   61.7400   31.1797 H   0  0  0  0  0  0
    2.2132   63.4779   32.2054 H   0  0  0  0  0  0
   -7.8642   56.6447   30.8449 H   0  0  0  0  0  0
   -3.8501   55.1004   29.4371 H   0  0  0  0  0  0
   -3.7190   56.4696   30.4866 H   0  0  0  0  0  0
  1  2  1  0  0  0
  1 30  1  0  0  0
  1 31  1  0  0  0
  1 32  1  0  0  0
  2  3  1  0  0  0
  2  5  1  0  0  0
  2 33  1  0  0  0
  3  4  1  0  0  0
  3 34  1  0  0  0
  3 35  1  0  0  0
  4 36  1  0  0  0
  5  6  2  0  0  0
  6  7  1  0  0  0
  6 29  1  0  0  0
  7 11  2  0  0  0
  7  8  1  0  0  0
  8  9  2  0  0  0
  8 28  1  0  0  0
  9 10  1  0  0  0
 10 11  1  0  0  0
 11 12  1  0  0  0
 12 13  1  0  0  0
 12 37  1  0  0  0
 13 18  1  0  0  0
 13 14  2  0  0  0
 14 15  1  0  0  0
 14 38  1  0  0  0
 15 16  2  0  0  0
 15 39  1  0  0  0
 16 17  1  0  0  0
 16 19  1  0  0  0
 17 18  2  0  0  0
 17 40  1  0  0  0
 18 41  1  0  0  0
 19 20  1  0  0  0
 20 25  1  0  0  0
 20 21  2  0  0  0
 21 22  1  0  0  0
 21 42  1  0  0  0
 22 23  2  0  0  0
 22 43  1  0  0  0
 23 24  1  0  0  0
 23 44  1  0  0  0
 24 25  2  0  0  0
 24 27  1  0  0  0
 25 26  1  0  0  0
 28 45  1  0  0  0
 29 46  1  0  0  0
 29 47  1  0  0  0
M  END
> <s_m_entry_id>
66064

> <s_m_entry_name>
ligand_docking-pose.120

> <s_m_Source_Path>
/home/csk/Desktop/cluster/DUD-E-result/mp2k1

> <s_m_Source_File>
ligand_docking-pose.sdf

> <i_m_Source_File_Index>
120

> <i_lp_mmshare_version>
53161

> <r_lp_tautomer_probability>
1

> <s_lp_Force_Field>
OPLS_2005

> <r_lp_Energy>
26.196306

> <b_lp_Chiralities_Consistent>
1

> <s_lp_Variant>
363021-2

> <s_i_glide_gridfile>
glide-grid_3eqh

> <i_i_glide_lignum>
254

> <i_i_glide_rotatable_bonds>
9

> <r_i_docking_score>
-7.46504271627579

> <r_i_glide_ligand_efficiency>
-0.257415266078476

> <r_i_glide_ligand_efficiency_sa>
-0.790861252273612

> <r_i_glide_ligand_efficiency_ln>
-1.70930548487688

> <r_i_glide_gscore>
-7.46504271627579

> <r_i_glide_lipo>
-3.81403115678048

> <r_i_glide_hbond>
-0.456

> <r_i_glide_metal>
0

> <r_i_glide_rewards>
-0.859741248383975

> <r_i_glide_evdw>
-45.757152557373

> <r_i_glide_ecoul>
-4.77680969238281

> <r_i_glide_erotb>
0.683665165572548

> <r_i_glide_esite>
-0.0145563949578088

> <r_i_glide_emodel>
-74.1070375861269

> <r_i_glide_energy>
-50.5339622497559

> <r_i_glide_einternal>
7.11220169067383

> <i_i_glide_confnum>
85

> <i_i_glide_posenum>
220

> <r_i_glide_eff_state_penalty>
0

> <i_f3d_flags>
0

> <s_user_duplicate_titles>
363021

> <s_m_subgroup_title>
dock_pv

> <s_m_subgroupid>
dock_pv1

> <b_m_subgroup_collapsed>
0

$$$$
83866
                    3D
 Schrodinger Suite 2021-1.
 18 19  0  0  1  0            999 V2000
   -0.2586   60.0427   35.3217 C   0  0  0  0  0  0
    0.8610   59.4186   34.7862 C   0  0  0  0  0  0
    0.7580   58.1236   34.2873 C   0  0  0  0  0  0
   -0.4645   57.4314   34.3031 C   0  0  0  0  0  0
   -1.6082   58.0729   34.8455 C   0  0  0  0  0  0
   -1.4753   59.3704   35.3630 C   0  0  0  0  0  0
   -2.9618   57.4094   34.8822 C   0  0  0  0  0  0
   -3.9600   57.9477   35.3629 O   0  0  0  0  0  0
   -2.9590   56.0691   34.2899 C   0  0  0  0  0  0
   -1.8658   55.4474   33.7891 C   0  0  0  0  0  0
   -0.5189   56.0232   33.7632 C   0  0  0  0  0  0
    0.4742   55.4173   33.3632 O   0  0  0  0  0  0
   -0.1904   61.0516   35.7023 H   0  0  0  0  0  0
    1.8093   59.9362   34.7580 H   0  0  0  0  0  0
    1.6479   57.6664   33.8829 H   0  0  0  0  0  0
   -2.3266   59.8955   35.7731 H   0  0  0  0  0  0
   -3.8968   55.5322   34.2544 H   0  0  0  0  0  0
   -1.9999   54.4533   33.3866 H   0  0  0  0  0  0
  1  6  1  0  0  0
  1  2  2  0  0  0
  1 13  1  0  0  0
  2  3  1  0  0  0
  2 14  1  0  0  0
  3  4  2  0  0  0
  3 15  1  0  0  0
  4 11  1  0  0  0
  4  5  1  0  0  0
  5  6  2  0  0  0
  5  7  1  0  0  0
  6 16  1  0  0  0
  7  8  2  0  0  0
  7  9  1  0  0  0
  9 10  2  0  0  0
  9 17  1  0  0  0
 10 11  1  0  0  0
 10 18  1  0  0  0
 11 12  2  0  0  0
M  END
> <s_m_entry_id>
66065

> <s_m_entry_name>
ligand_docking-pose.121

> <s_m_Source_Path>
/home/csk/Desktop/cluster/DUD-E-result/mp2k1

> <s_m_Source_File>
ligand_docking-pose.sdf

> <i_m_Source_File_Index>
121

> <i_lp_mmshare_version>
53161

> <r_lp_tautomer_probability>
1

> <s_lp_Force_Field>
OPLS_2005

> <r_lp_Energy>
2.717197

> <b_lp_Chiralities_Consistent>
1

> <s_lp_Variant>
83866-1

> <s_i_glide_gridfile>
glide-grid_3eqh

> <i_i_glide_lignum>
9

> <i_i_glide_rotatable_bonds>
0

> <r_i_docking_score>
-7.45912520086601

> <r_i_glide_ligand_efficiency>
-0.621593766738834

> <r_i_glide_ligand_efficiency_sa>
-1.42309447455788

> <r_i_glide_ligand_efficiency_ln>
-2.14040889770169

> <r_i_glide_gscore>
-7.45912520086601

> <r_i_glide_lipo>
-1.85609691244726

> <r_i_glide_hbond>
-0.617444164466839

> <r_i_glide_metal>
0

> <r_i_glide_rewards>
-3.09570170245838

> <r_i_glide_evdw>
-24.2899379730225

> <r_i_glide_ecoul>
-4.50257015228271

> <r_i_glide_erotb>
0

> <r_i_glide_esite>
0

> <r_i_glide_emodel>
-41.7667550367534

> <r_i_glide_energy>
-28.7925081253052

> <r_i_glide_einternal>
0

> <i_i_glide_confnum>
1

> <i_i_glide_posenum>
93

> <r_i_glide_eff_state_penalty>
0

> <i_f3d_flags>
0

> <s_user_duplicate_titles>
83866

> <s_m_subgroup_title>
dock_pv

> <s_m_subgroupid>
dock_pv1

> <b_m_subgroup_collapsed>
0

$$$$
337820
                    3D
 Schrodinger Suite 2021-1.
 49 52  0  0  1  0            999 V2000
   -5.8820   57.9480   34.8506 C   0  0  0  0  0  0
   -5.7675   57.1742   33.5771 C   0  0  0  0  0  0
   -6.7139   57.0088   32.5713 C   0  0  0  0  0  0
   -6.2268   56.1042   31.6434 C   0  0  0  0  0  0
   -4.9474   55.7679   31.9894 N   0  0  0  0  0  0
   -4.6235   56.4414   33.1823 C   0  0  0  0  0  0
   -3.3220   56.2454   33.6861 C   0  0  0  0  0  0
   -2.5363   55.2456   33.0970 C   0  0  0  0  0  0
   -2.9730   54.6829   31.8990 C   0  0  0  0  0  0
   -4.1598   54.9335   31.3038 N   0  0  0  0  0  0
   -1.3053   54.7480   33.7032 C   0  0  0  0  0  0
   -0.3226   54.3524   34.1620 N   0  0  0  0  0  0
   -2.8913   57.0755   34.7346 N   0  0  0  0  0  0
   -1.8024   57.9645   34.7334 C   0  0  0  0  0  0
   -1.7692   58.9428   35.7254 C   0  0  0  0  0  0
   -0.7241   59.8613   35.7626 C   0  0  0  0  0  0
    0.3322   59.7560   34.8600 C   0  0  0  0  0  0
    0.2899   58.8085   33.8419 C   0  0  0  0  0  0
   -0.7912   57.9387   33.7632 C   0  0  0  0  0  0
    1.4462   60.5392   35.0232 O   0  0  0  0  0  0
    1.6776   61.6542   34.2499 C   0  0  0  0  0  0
    0.7966   62.1227   33.2687 C   0  0  0  0  0  0
    1.1321   63.2513   32.5279 C   0  0  0  0  0  0
    2.3279   63.9149   32.7713 C   0  0  0  0  0  0
    3.2042   63.4664   33.7530 C   0  0  0  0  0  0
    2.8702   62.3346   34.4905 C   0  0  0  0  0  0
   -7.9778   57.5408   32.5704 N   0  0  0  0  0  0
   -8.2483   58.8542   32.6926 C   0  0  0  0  0  0
   -7.4443   59.7873   32.5632 O   0  0  0  0  0  0
   -9.6839   59.1480   33.0694 C   0  0  0  0  0  0
   -5.7153   57.3230   35.7206 H   0  0  0  0  0  0
   -5.1139   58.7177   34.8275 H   0  0  0  0  0  0
   -6.8463   58.4302   34.9994 H   0  0  0  0  0  0
   -6.6930   55.7260   30.7455 H   0  0  0  0  0  0
   -2.3551   53.9587   31.3845 H   0  0  0  0  0  0
   -3.6565   57.4002   35.3037 H   0  0  0  0  0  0
   -2.5517   59.0029   36.4668 H   0  0  0  0  0  0
   -0.7114   60.6199   36.5301 H   0  0  0  0  0  0
    1.0941   58.7405   33.1240 H   0  0  0  0  0  0
   -0.8090   57.2423   32.9426 H   0  0  0  0  0  0
   -0.1411   61.6204   33.0872 H   0  0  0  0  0  0
    0.4743   63.6216   31.7631 H   0  0  0  0  0  0
    2.5755   64.7836   32.1847 H   0  0  0  0  0  0
    4.1272   63.9963   33.9340 H   0  0  0  0  0  0
    3.5382   61.9480   35.2439 H   0  0  0  0  0  0
   -8.7418   56.8914   32.4696 H   0  0  0  0  0  0
  -10.1917   58.2648   33.4555 H   0  0  0  0  0  0
  -10.2189   59.5151   32.2009 H   0  0  0  0  0  0
   -9.7220   59.9256   33.8341 H   0  0  0  0  0  0
  1  2  1  0  0  0
  1 31  1  0  0  0
  1 32  1  0  0  0
  1 33  1  0  0  0
  2  6  2  0  0  0
  2  3  1  0  0  0
  3  4  2  0  0  0
  3 27  1  0  0  0
  4  5  1  0  0  0
  4 34  1  0  0  0
  5 10  1  0  0  0
  5  6  1  0  0  0
  6  7  1  0  0  0
  7  8  2  0  0  0
  7 13  1  0  0  0
  8  9  1  0  0  0
  8 11  1  0  0  0
  9 10  2  0  0  0
  9 35  1  0  0  0
 11 12  3  0  0  0
 13 14  1  0  0  0
 13 36  1  0  0  0
 14 19  1  0  0  0
 14 15  2  0  0  0
 15 16  1  0  0  0
 15 37  1  0  0  0
 16 17  2  0  0  0
 16 38  1  0  0  0
 17 18  1  0  0  0
 17 20  1  0  0  0
 18 19  2  0  0  0
 18 39  1  0  0  0
 19 40  1  0  0  0
 20 21  1  0  0  0
 21 26  1  0  0  0
 21 22  2  0  0  0
 22 23  1  0  0  0
 22 41  1  0  0  0
 23 24  2  0  0  0
 23 42  1  0  0  0
 24 25  1  0  0  0
 24 43  1  0  0  0
 25 26  2  0  0  0
 25 44  1  0  0  0
 26 45  1  0  0  0
 27 28  1  0  0  0
 27 46  1  0  0  0
 28 29  2  0  0  0
 28 30  1  0  0  0
 30 47  1  0  0  0
 30 48  1  0  0  0
 30 49  1  0  0  0
M  END
> <s_m_entry_id>
66066

> <s_m_entry_name>
ligand_docking-pose.122

> <s_m_Source_Path>
/home/csk/Desktop/cluster/DUD-E-result/mp2k1

> <s_m_Source_File>
ligand_docking-pose.sdf

> <i_m_Source_File_Index>
122

> <i_lp_mmshare_version>
53161

> <r_lp_tautomer_probability>
1

> <s_lp_Force_Field>
OPLS_2005

> <r_lp_Energy>
32.310544

> <b_lp_Chiralities_Consistent>
1

> <s_lp_Variant>
337820-1

> <s_i_glide_gridfile>
glide-grid_3eqh

> <i_i_glide_lignum>
173

> <i_i_glide_rotatable_bonds>
6

> <r_i_docking_score>
-7.4583769719917

> <r_i_glide_ligand_efficiency>
-0.248612565733057

> <r_i_glide_ligand_efficiency_sa>
-0.77249704475854

> <r_i_glide_ligand_efficiency_ln>
-1.69462451356248

> <r_i_glide_gscore>
-7.4583769719917

> <r_i_glide_lipo>
-4.06829953628201

> <r_i_glide_hbond>
0

> <r_i_glide_metal>
0

> <r_i_glide_rewards>
-1.06874497554787

> <r_i_glide_evdw>
-48.9591522216797

> <r_i_glide_ecoul>
-2.9185643196106

> <r_i_glide_erotb>
0.619647815063

> <r_i_glide_esite>
-0.0552380161992478

> <r_i_glide_emodel>
-64.2746616489996

> <r_i_glide_energy>
-51.8777165412903

> <r_i_glide_einternal>
14.1658496856689

> <i_i_glide_confnum>
1

> <i_i_glide_posenum>
82

> <r_i_glide_eff_state_penalty>
0

> <i_f3d_flags>
0

> <s_user_duplicate_titles>
337820

> <s_m_subgroup_title>
dock_pv

> <s_m_subgroupid>
dock_pv1

> <b_m_subgroup_collapsed>
0

$$$$
363035
                    3D
 Schrodinger Suite 2021-1.
 56 59  0  0  1  0            999 V2000
   -2.5840   54.3476   33.8839 C   0  0  0  0  0  0
   -1.3795   54.9793   34.1629 C   0  0  0  0  0  0
   -1.0805   56.2082   33.5817 C   0  0  0  0  0  0
   -1.9543   56.7483   32.6357 C   0  0  0  0  0  0
   -3.1292   56.0802   32.2993 C   0  0  0  0  0  0
   -3.4452   54.8754   32.9290 C   0  0  0  0  0  0
   -4.6284   54.1815   32.6455 N   0  0  0  0  0  0
   -5.1946   53.9721   31.4076 C   0  0  0  0  0  0
   -6.5505   53.8210   31.0740 C   0  0  0  0  0  0
   -6.6473   53.6221   29.6783 C   0  0  0  0  0  0
   -5.5489   53.5378   28.9628 N   0  0  0  0  0  0
   -4.2174   53.8353   29.9736 S   0  0  0  0  0  0
   -7.8032   53.5170   28.9526 O   0  0  0  0  0  0
   -7.6865   53.9274   32.0230 C   0  0  0  0  0  0
   -7.4812   54.5884   33.0907 N   0  0  0  0  0  0
   -8.5537   54.8698   34.0177 C   0  0  0  0  0  0
   -8.3692   56.2662   34.6662 C   0  0  0  0  0  0
   -8.4302   57.4333   33.7664 N   0  0  0  0  0  0
   -8.7383   58.6389   34.5457 C   0  0  0  0  0  0
   -8.7522   59.9038   33.6685 C   0  0  0  0  0  0
   -7.5249   60.0743   32.9622 O   0  0  0  0  0  0
   -7.2736   58.9497   32.1256 C   0  0  0  0  0  0
   -7.2225   57.6353   32.9386 C   0  0  0  0  0  0
   -8.8116   53.2541   31.5960 N   0  0  0  0  0  0
    0.0875   56.8348   33.9625 O   0  0  0  0  0  0
    0.1424   58.2070   34.0944 C   0  0  0  0  0  0
    1.1207   58.8880   33.3629 C   0  0  0  0  0  0
    1.2678   60.2693   33.4819 C   0  0  0  0  0  0
    0.4418   60.9842   34.3469 C   0  0  0  0  0  0
   -0.5274   60.3165   35.0917 C   0  0  0  0  0  0
   -0.6843   58.9344   34.9731 C   0  0  0  0  0  0
   -1.9065   58.1740   35.9306 Cl  0  0  0  0  0  0
    2.4707   61.0929   32.5634 Cl  0  0  0  0  0  0
   -2.8176   53.4151   34.3758 H   0  0  0  0  0  0
   -0.6944   54.5239   34.8617 H   0  0  0  0  0  0
   -1.7171   57.6859   32.1633 H   0  0  0  0  0  0
   -3.7972   56.5105   31.5680 H   0  0  0  0  0  0
   -5.1409   53.9098   33.4735 H   0  0  0  0  0  0
   -8.4747   54.0581   29.3753 H   0  0  0  0  0  0
   -8.5137   54.1288   34.8172 H   0  0  0  0  0  0
   -9.5538   54.7968   33.5856 H   0  0  0  0  0  0
   -7.4631   56.2890   35.2730 H   0  0  0  0  0  0
   -9.1826   56.3540   35.3887 H   0  0  0  0  0  0
   -8.0074   58.7560   35.3482 H   0  0  0  0  0  0
   -9.7083   58.5186   35.0329 H   0  0  0  0  0  0
   -9.5847   59.8783   32.9668 H   0  0  0  0  0  0
   -8.9223   60.7480   34.3235 H   0  0  0  0  0  0
   -8.0494   58.8842   31.3632 H   0  0  0  0  0  0
   -6.3300   59.0960   31.5980 H   0  0  0  0  0  0
   -7.0862   56.8178   32.2345 H   0  0  0  0  0  0
   -6.3370   57.6338   33.5764 H   0  0  0  0  0  0
   -9.6239   53.2266   32.1916 H   0  0  0  0  0  0
   -8.7443   52.6023   30.8289 H   0  0  0  0  0  0
    1.7600   58.3427   32.6861 H   0  0  0  0  0  0
    0.5491   62.0548   34.4467 H   0  0  0  0  0  0
   -1.1696   60.8759   35.7537 H   0  0  0  0  0  0
  1  6  1  0  0  0
  1  2  2  0  0  0
  1 34  1  0  0  0
  2  3  1  0  0  0
  2 35  1  0  0  0
  3  4  2  0  0  0
  3 25  1  0  0  0
  4  5  1  0  0  0
  4 36  1  0  0  0
  5  6  2  0  0  0
  5 37  1  0  0  0
  6  7  1  0  0  0
  7  8  1  0  0  0
  7 38  1  0  0  0
  8 12  1  0  0  0
  8  9  2  0  0  0
  9 10  1  0  0  0
  9 14  1  0  0  0
 10 11  2  0  0  0
 10 13  1  0  0  0
 11 12  1  0  0  0
 13 39  1  0  0  0
 14 15  2  0  0  0
 14 24  1  0  0  0
 15 16  1  0  0  0
 16 17  1  0  0  0
 16 40  1  0  0  0
 16 41  1  0  0  0
 17 18  1  0  0  0
 17 42  1  0  0  0
 17 43  1  0  0  0
 18 23  1  0  0  0
 18 19  1  0  0  0
 19 20  1  0  0  0
 19 44  1  0  0  0
 19 45  1  0  0  0
 20 21  1  0  0  0
 20 46  1  0  0  0
 20 47  1  0  0  0
 21 22  1  0  0  0
 22 23  1  0  0  0
 22 48  1  0  0  0
 22 49  1  0  0  0
 23 50  1  0  0  0
 23 51  1  0  0  0
 24 52  1  0  0  0
 24 53  1  0  0  0
 25 26  1  0  0  0
 26 31  1  0  0  0
 26 27  2  0  0  0
 27 28  1  0  0  0
 27 54  1  0  0  0
 28 29  2  0  0  0
 28 33  1  0  0  0
 29 30  1  0  0  0
 29 55  1  0  0  0
 30 31  2  0  0  0
 30 56  1  0  0  0
 31 32  1  0  0  0
M  END
> <s_m_entry_id>
66067

> <s_m_entry_name>
ligand_docking-pose.123

> <s_m_Source_Path>
/home/csk/Desktop/cluster/DUD-E-result/mp2k1

> <s_m_Source_File>
ligand_docking-pose.sdf

> <i_m_Source_File_Index>
123

> <i_lp_mmshare_version>
53161

> <r_lp_tautomer_probability>
1

> <s_lp_Force_Field>
OPLS_2005

> <r_lp_Energy>
42.560622

> <b_lp_Chiralities_Consistent>
1

> <s_lp_Variant>
363035-1

> <s_i_glide_gridfile>
glide-grid_3eqh

> <i_i_glide_lignum>
56

> <i_i_glide_rotatable_bonds>
9

> <r_i_docking_score>
-7.42972673955131

> <r_i_glide_ligand_efficiency>
-0.225143234531858

> <r_i_glide_ligand_efficiency_sa>
-0.722154653085563

> <r_i_glide_ligand_efficiency_ln>
-1.65233275780998

> <r_i_glide_gscore>
-7.42972673955131

> <r_i_glide_lipo>
-4.23085190013338

> <r_i_glide_hbond>
0

> <r_i_glide_metal>
0

> <r_i_glide_rewards>
-0.147039958186773

> <r_i_glide_evdw>
-56.0202407836914

> <r_i_glide_ecoul>
-5.36826324462891

> <r_i_glide_erotb>
0.554416644647746

> <r_i_glide_esite>
0

> <r_i_glide_emodel>
-86.0885660787345

> <r_i_glide_energy>
-61.3885040283203

> <r_i_glide_einternal>
9.02313804626465

> <i_i_glide_confnum>
31

> <i_i_glide_posenum>
321

> <r_i_glide_eff_state_penalty>
0

> <i_f3d_flags>
0

> <s_user_duplicate_titles>
363035

> <s_m_subgroup_title>
dock_pv

> <s_m_subgroupid>
dock_pv1

> <b_m_subgroup_collapsed>
0

$$$$
363020
                    3D
 Schrodinger Suite 2021-1.
 47 49  0  0  1  0            999 V2000
   -7.8066   59.0558   34.7551 C   0  0  0  0  0  0
   -8.4307   58.5282   33.4433 C   0  0  1  0  0  0
   -8.3821   59.5838   32.3061 C   0  0  0  0  0  0
   -7.1263   60.2364   32.1555 O   0  0  0  0  0  0
   -7.7771   57.2880   33.0091 N   0  0  0  0  0  0
   -8.0353   56.1876   33.6145 C   0  0  0  0  0  0
   -7.3710   54.9342   33.1689 C   0  0  0  0  0  0
   -7.8911   53.6248   33.3051 C   0  0  0  0  0  0
   -7.1538   52.5983   32.9522 N   0  0  0  0  0  0
   -5.6806   53.1803   32.3242 S   0  0  0  0  0  0
   -6.1122   54.8445   32.5633 C   0  0  0  0  0  0
   -5.2867   55.8530   32.1382 N   0  0  0  0  0  0
   -4.1513   56.2380   32.8569 C   0  0  0  0  0  0
   -4.1677   57.4948   33.4509 C   0  0  0  0  0  0
   -3.0677   57.9483   34.1660 C   0  0  0  0  0  0
   -1.9183   57.1649   34.2799 C   0  0  0  0  0  0
   -1.8905   55.8987   33.6730 C   0  0  0  0  0  0
   -3.0107   55.4364   32.9710 C   0  0  0  0  0  0
   -0.4810   54.8989   33.7656 Cl  0  0  0  0  0  0
   -0.8504   57.6340   35.0087 O   0  0  0  0  0  0
   -0.1308   58.6946   34.5110 C   0  0  0  0  0  0
    0.8563   58.4508   33.5585 C   0  0  0  0  0  0
    1.6330   59.4937   33.0603 C   0  0  0  0  0  0
    1.4204   60.7982   33.5007 C   0  0  0  0  0  0
    0.4361   61.0547   34.4538 C   0  0  0  0  0  0
   -0.3333   60.0065   34.9662 C   0  0  0  0  0  0
   -1.5245   60.3667   36.1630 Cl  0  0  0  0  0  0
    2.6038   59.2351   32.1624 F   0  0  0  0  0  0
   -9.1349   53.3021   33.7789 O   0  0  0  0  0  0
   -8.8455   55.9612   34.7093 N   0  0  0  0  0  0
   -8.2085   60.0368   35.0130 H   0  0  0  0  0  0
   -7.9948   58.3973   35.6037 H   0  0  0  0  0  0
   -6.7294   59.1479   34.6437 H   0  0  0  0  0  0
   -9.4933   58.3409   33.6307 H   0  0  0  0  0  0
   -9.1256   60.3483   32.5135 H   0  0  0  0  0  0
   -8.6666   59.1328   31.3552 H   0  0  0  0  0  0
   -6.4996   59.5483   31.8982 H   0  0  0  0  0  0
   -5.7841   56.6750   31.8176 H   0  0  0  0  0  0
   -5.0387   58.1245   33.3651 H   0  0  0  0  0  0
   -3.1058   58.9258   34.6139 H   0  0  0  0  0  0
   -2.9816   54.4672   32.5018 H   0  0  0  0  0  0
    1.0238   57.4474   33.2012 H   0  0  0  0  0  0
    2.0244   61.6048   33.1103 H   0  0  0  0  0  0
    0.2753   62.0633   34.8053 H   0  0  0  0  0  0
   -9.6302   54.1132   33.9133 H   0  0  0  0  0  0
   -9.3390   56.7403   35.1163 H   0  0  0  0  0  0
   -8.6660   55.1543   35.2888 H   0  0  0  0  0  0
  1  2  1  0  0  0
  1 31  1  0  0  0
  1 32  1  0  0  0
  1 33  1  0  0  0
  2  3  1  0  0  0
  2  5  1  0  0  0
  2 34  1  0  0  0
  3  4  1  0  0  0
  3 35  1  0  0  0
  3 36  1  0  0  0
  4 37  1  0  0  0
  5  6  2  0  0  0
  6  7  1  0  0  0
  6 30  1  0  0  0
  7 11  2  0  0  0
  7  8  1  0  0  0
  8  9  2  0  0  0
  8 29  1  0  0  0
  9 10  1  0  0  0
 10 11  1  0  0  0
 11 12  1  0  0  0
 12 13  1  0  0  0
 12 38  1  0  0  0
 13 18  1  0  0  0
 13 14  2  0  0  0
 14 15  1  0  0  0
 14 39  1  0  0  0
 15 16  2  0  0  0
 15 40  1  0  0  0
 16 17  1  0  0  0
 16 20  1  0  0  0
 17 18  2  0  0  0
 17 19  1  0  0  0
 18 41  1  0  0  0
 20 21  1  0  0  0
 21 26  1  0  0  0
 21 22  2  0  0  0
 22 23  1  0  0  0
 22 42  1  0  0  0
 23 24  2  0  0  0
 23 28  1  0  0  0
 24 25  1  0  0  0
 24 43  1  0  0  0
 25 26  2  0  0  0
 25 44  1  0  0  0
 26 27  1  0  0  0
 29 45  1  0  0  0
 30 46  1  0  0  0
 30 47  1  0  0  0
M  END
> <s_m_entry_id>
66068

> <s_m_entry_name>
ligand_docking-pose.124

> <s_m_Source_Path>
/home/csk/Desktop/cluster/DUD-E-result/mp2k1

> <s_m_Source_File>
ligand_docking-pose.sdf

> <i_m_Source_File_Index>
124

> <i_lp_mmshare_version>
53161

> <r_lp_tautomer_probability>
1

> <s_lp_Force_Field>
OPLS_2005

> <r_lp_Energy>
24.917315

> <b_lp_Chiralities_Consistent>
1

> <s_lp_Variant>
363020-2

> <s_i_glide_gridfile>
glide-grid_3eqh

> <i_i_glide_lignum>
230

> <i_i_glide_rotatable_bonds>
9

> <r_i_docking_score>
-7.41000063515379

> <r_i_glide_ligand_efficiency>
-0.247000021171793

> <r_i_glide_ligand_efficiency_sa>
-0.767486493886162

> <r_i_glide_ligand_efficiency_ln>
-1.6836328827305

> <r_i_glide_gscore>
-7.41000063515379

> <r_i_glide_lipo>
-3.96250259735568

> <r_i_glide_hbond>
0

> <r_i_glide_metal>
0

> <r_i_glide_rewards>
-0.467514709658356

> <r_i_glide_evdw>
-52.658634185791

> <r_i_glide_ecoul>
-6.55943870544434

> <r_i_glide_erotb>
0.636864186966447

> <r_i_glide_esite>
0

> <r_i_glide_emodel>
-78.833365786237

> <r_i_glide_energy>
-59.2180728912354

> <r_i_glide_einternal>
19.396125793457

> <i_i_glide_confnum>
118

> <i_i_glide_posenum>
53

> <r_i_glide_eff_state_penalty>
0

> <i_f3d_flags>
0

> <s_user_duplicate_titles>
363020

> <s_m_subgroup_title>
dock_pv

> <s_m_subgroupid>
dock_pv1

> <b_m_subgroup_collapsed>
0

$$$$
353891
                    3D
 Schrodinger Suite 2021-1.
 51 53  0  0  1  0            999 V2000
    3.3374   64.7480   33.7463 C   0  0  0  0  0  0
    2.6440   63.5479   34.0460 O   0  0  0  0  0  0
    2.8741   62.4421   33.3529 C   0  0  0  0  0  0
    3.8081   62.3480   32.5630 O   0  0  0  0  0  0
    1.8803   61.3581   33.6298 C   0  0  0  0  0  0
    1.9704   60.1446   32.9394 C   0  0  0  0  0  0
    1.0204   59.1489   33.1450 C   0  0  0  0  0  0
   -0.0436   59.3584   34.0257 C   0  0  0  0  0  0
   -0.1261   60.5581   34.7255 C   0  0  0  0  0  0
    0.8331   61.5438   34.5430 C   0  0  0  0  0  0
   -1.1226   58.4758   34.1824 N   0  0  0  0  0  0
   -1.2502   57.1107   34.0354 C   0  0  0  0  0  0
   -2.4241   56.3603   34.1255 C   0  0  0  0  0  0
   -2.1233   54.9881   34.0355 C   0  0  0  0  0  0
   -0.8846   54.6234   33.8121 N   0  0  0  0  0  0
    0.0770   56.0243   33.7630 S   0  0  0  0  0  0
   -3.0247   53.9679   34.1630 O   0  0  0  0  0  0
   -3.7768   56.9161   34.2987 C   0  0  0  0  0  0
   -3.9263   57.7607   35.2227 N   0  0  0  0  0  0
   -4.7395   56.4258   33.4300 N   0  0  0  0  0  0
   -4.5005   56.0004   32.0489 C   0  0  0  0  0  0
   -5.5780   55.0396   31.4995 C   0  0  0  0  0  0
   -5.2522   54.6462   30.0420 C   0  0  0  0  0  0
   -6.3654   53.7672   29.4344 C   0  0  0  0  0  0
   -6.6132   52.5020   30.2849 C   0  0  0  0  0  0
   -6.8315   52.8304   31.7785 C   0  0  0  0  0  0
   -5.7085   53.7345   32.3260 C   0  0  0  0  0  0
    3.2739   65.4640   34.5628 H   0  0  0  0  0  0
    4.3967   64.5807   33.5435 H   0  0  0  0  0  0
    2.8770   65.1943   32.8652 H   0  0  0  0  0  0
    2.7601   59.9689   32.2204 H   0  0  0  0  0  0
    1.0986   58.2495   32.5630 H   0  0  0  0  0  0
   -0.9502   60.7484   35.3986 H   0  0  0  0  0  0
    0.7278   62.4594   35.1036 H   0  0  0  0  0  0
   -1.9483   58.9904   34.4559 H   0  0  0  0  0  0
   -3.8903   54.3409   34.3471 H   0  0  0  0  0  0
   -3.0517   57.8857   35.7119 H   0  0  0  0  0  0
   -5.6747   56.7749   33.5767 H   0  0  0  0  0  0
   -3.5314   55.5140   31.9481 H   0  0  0  0  0  0
   -4.4348   56.8855   31.4144 H   0  0  0  0  0  0
   -6.5437   55.5502   31.5123 H   0  0  0  0  0  0
   -4.2865   54.1395   29.9915 H   0  0  0  0  0  0
   -5.1171   55.5476   29.4441 H   0  0  0  0  0  0
   -6.1041   53.4885   28.4127 H   0  0  0  0  0  0
   -7.2877   54.3470   29.3646 H   0  0  0  0  0  0
   -5.7558   51.8336   30.1885 H   0  0  0  0  0  0
   -7.4715   51.9533   29.8955 H   0  0  0  0  0  0
   -6.8850   51.9084   32.3592 H   0  0  0  0  0  0
   -7.7943   53.3280   31.9063 H   0  0  0  0  0  0
   -5.8993   53.9653   33.3749 H   0  0  0  0  0  0
   -4.7593   53.1961   32.3271 H   0  0  0  0  0  0
  1  2  1  0  0  0
  1 28  1  0  0  0
  1 29  1  0  0  0
  1 30  1  0  0  0
  2  3  1  0  0  0
  3  4  2  0  0  0
  3  5  1  0  0  0
  5 10  1  0  0  0
  5  6  2  0  0  0
  6  7  1  0  0  0
  6 31  1  0  0  0
  7  8  2  0  0  0
  7 32  1  0  0  0
  8  9  1  0  0  0
  8 11  1  0  0  0
  9 10  2  0  0  0
  9 33  1  0  0  0
 10 34  1  0  0  0
 11 12  1  0  0  0
 11 35  1  0  0  0
 12 16  1  0  0  0
 12 13  2  0  0  0
 13 14  1  0  0  0
 13 18  1  0  0  0
 14 15  2  0  0  0
 14 17  1  0  0  0
 15 16  1  0  0  0
 17 36  1  0  0  0
 18 19  2  3  0  0
 18 20  1  0  0  0
 19 37  1  0  0  0
 20 21  1  0  0  0
 20 38  1  0  0  0
 21 22  1  0  0  0
 21 39  1  0  0  0
 21 40  1  0  0  0
 22 27  1  0  0  0
 22 23  1  0  0  0
 22 41  1  0  0  0
 23 24  1  0  0  0
 23 42  1  0  0  0
 23 43  1  0  0  0
 24 25  1  0  0  0
 24 44  1  0  0  0
 24 45  1  0  0  0
 25 26  1  0  0  0
 25 46  1  0  0  0
 25 47  1  0  0  0
 26 27  1  0  0  0
 26 48  1  0  0  0
 26 49  1  0  0  0
 27 50  1  0  0  0
 27 51  1  0  0  0
M  END
> <s_m_entry_id>
66069

> <s_m_entry_name>
ligand_docking-pose.125

> <s_m_Source_Path>
/home/csk/Desktop/cluster/DUD-E-result/mp2k1

> <s_m_Source_File>
ligand_docking-pose.sdf

> <i_m_Source_File_Index>
125

> <i_lp_mmshare_version>
53161

> <r_lp_tautomer_probability>
1

> <s_lp_Force_Field>
OPLS_2005

> <r_lp_Energy>
24.309013

> <b_lp_Chiralities_Consistent>
1

> <s_lp_Variant>
353891-2

> <s_i_glide_gridfile>
glide-grid_3eqh

> <i_i_glide_lignum>
408

> <i_i_glide_rotatable_bonds>
9

> <r_i_docking_score>
-7.40174008566247

> <r_i_glide_ligand_efficiency>
-0.274138521691203

> <r_i_glide_ligand_efficiency_sa>
-0.822415564170092

> <r_i_glide_ligand_efficiency_ln>
-1.72300306471997

> <r_i_glide_gscore>
-7.40174008566247

> <r_i_glide_lipo>
-3.23936589508781

> <r_i_glide_hbond>
-0.0530003663299651

> <r_i_glide_metal>
0

> <r_i_glide_rewards>
-1.75343101971454

> <r_i_glide_evdw>
-45.5129623413086

> <r_i_glide_ecoul>
-5.69947195053101

> <r_i_glide_erotb>
0.774626105114922

> <r_i_glide_esite>
0

> <r_i_glide_emodel>
-70.9231020266333

> <r_i_glide_energy>
-51.2124342918396

> <r_i_glide_einternal>
5.69338178634644

> <i_i_glide_confnum>
25

> <i_i_glide_posenum>
84

> <r_i_glide_eff_state_penalty>
0

> <i_f3d_flags>
0

> <s_user_duplicate_titles>
353891

> <s_m_subgroup_title>
dock_pv

> <s_m_subgroupid>
dock_pv1

> <b_m_subgroup_collapsed>
0

$$$$
363032
                    3D
 Schrodinger Suite 2021-1.
 47 49  0  0  1  0            999 V2000
   -8.7127   59.2494   35.0081 C   0  0  0  0  0  0
   -8.2214   58.7560   33.6342 C   0  0  1  0  0  0
   -7.1012   59.6455   33.0301 C   0  0  0  0  0  0
   -7.5260   60.3470   31.8820 O   0  0  0  0  0  0
   -7.6634   57.4210   33.7762 N   0  0  0  0  0  0
   -8.0892   56.4626   33.0562 C   0  0  0  0  0  0
   -7.3472   55.2071   33.1218 C   0  0  0  0  0  0
   -7.8900   53.9439   33.4120 C   0  0  0  0  0  0
   -7.1021   52.8935   33.3628 N   0  0  0  0  0  0
   -5.5264   53.4164   32.9629 S   0  0  0  0  0  0
   -5.9875   55.0828   32.8374 C   0  0  0  0  0  0
   -5.0792   56.0203   32.4041 N   0  0  0  0  0  0
   -4.0309   56.5273   33.1810 C   0  0  0  0  0  0
   -2.7395   56.4496   32.6700 C   0  0  0  0  0  0
   -1.6716   56.9902   33.3784 C   0  0  0  0  0  0
   -1.8698   57.6690   34.5896 C   0  0  0  0  0  0
   -3.1693   57.7237   35.1099 C   0  0  0  0  0  0
   -4.2404   57.1471   34.4170 C   0  0  0  0  0  0
   -3.4033   58.3476   36.2869 F   0  0  0  0  0  0
   -0.8277   58.2772   35.2752 O   0  0  0  0  0  0
    0.0391   59.0973   34.5789 C   0  0  0  0  0  0
    1.0371   58.5302   33.7845 C   0  0  0  0  0  0
    1.8238   59.3214   32.9569 C   0  0  0  0  0  0
    1.6571   60.6992   32.9470 C   0  0  0  0  0  0
    0.7210   61.2880   33.7899 C   0  0  0  0  0  0
   -0.0666   60.4946   34.6336 C   0  0  0  0  0  0
   -1.1334   61.2461   35.7633 Cl  0  0  0  0  0  0
    0.5842   62.6308   33.7628 F   0  0  0  0  0  0
    2.7506   58.7496   32.1630 F   0  0  0  0  0  0
   -9.1964   53.6991   33.7400 O   0  0  0  0  0  0
   -9.1254   56.3706   32.1569 N   0  0  0  0  0  0
   -9.1031   60.2669   34.9414 H   0  0  0  0  0  0
   -9.5176   58.6187   35.3875 H   0  0  0  0  0  0
   -7.9174   59.2491   35.7532 H   0  0  0  0  0  0
   -9.0918   58.7854   32.9718 H   0  0  0  0  0  0
   -6.2369   59.0572   32.7191 H   0  0  0  0  0  0
   -6.7226   60.3480   33.7628 H   0  0  0  0  0  0
   -7.8112   59.6794   31.2458 H   0  0  0  0  0  0
   -4.8586   56.0350   31.4186 H   0  0  0  0  0  0
   -2.5552   55.9685   31.7204 H   0  0  0  0  0  0
   -0.6897   56.8779   32.9629 H   0  0  0  0  0  0
   -5.2372   57.2083   34.8269 H   0  0  0  0  0  0
    1.1800   57.4646   33.7875 H   0  0  0  0  0  0
    2.2660   61.3107   32.2991 H   0  0  0  0  0  0
   -9.6685   54.5321   33.7991 H   0  0  0  0  0  0
   -9.6448   57.2031   31.9332 H   0  0  0  0  0  0
   -9.1188   55.6174   31.4847 H   0  0  0  0  0  0
  1  2  1  0  0  0
  1 32  1  0  0  0
  1 33  1  0  0  0
  1 34  1  0  0  0
  2  3  1  0  0  0
  2  5  1  0  0  0
  2 35  1  0  0  0
  3  4  1  0  0  0
  3 36  1  0  0  0
  3 37  1  0  0  0
  4 38  1  0  0  0
  5  6  2  0  0  0
  6  7  1  0  0  0
  6 31  1  0  0  0
  7 11  2  0  0  0
  7  8  1  0  0  0
  8  9  2  0  0  0
  8 30  1  0  0  0
  9 10  1  0  0  0
 10 11  1  0  0  0
 11 12  1  0  0  0
 12 13  1  0  0  0
 12 39  1  0  0  0
 13 18  1  0  0  0
 13 14  2  0  0  0
 14 15  1  0  0  0
 14 40  1  0  0  0
 15 16  2  0  0  0
 15 41  1  0  0  0
 16 17  1  0  0  0
 16 20  1  0  0  0
 17 18  2  0  0  0
 17 19  1  0  0  0
 18 42  1  0  0  0
 20 21  1  0  0  0
 21 26  1  0  0  0
 21 22  2  0  0  0
 22 23  1  0  0  0
 22 43  1  0  0  0
 23 24  2  0  0  0
 23 29  1  0  0  0
 24 25  1  0  0  0
 24 44  1  0  0  0
 25 26  2  0  0  0
 25 28  1  0  0  0
 26 27  1  0  0  0
 30 45  1  0  0  0
 31 46  1  0  0  0
 31 47  1  0  0  0
M  END
> <s_m_entry_id>
66070

> <s_m_entry_name>
ligand_docking-pose.126

> <s_m_Source_Path>
/home/csk/Desktop/cluster/DUD-E-result/mp2k1

> <s_m_Source_File>
ligand_docking-pose.sdf

> <i_m_Source_File_Index>
126

> <i_lp_mmshare_version>
53161

> <r_lp_tautomer_probability>
1

> <s_lp_Force_Field>
OPLS_2005

> <r_lp_Energy>
25.594955

> <b_lp_Chiralities_Consistent>
1

> <s_lp_Variant>
363032-2

> <s_i_glide_gridfile>
glide-grid_3eqh

> <i_i_glide_lignum>
240

> <i_i_glide_rotatable_bonds>
9

> <r_i_docking_score>
-7.39769345596412

> <r_i_glide_ligand_efficiency>
-0.238635272773036

> <r_i_glide_ligand_efficiency_sa>
-0.749644228009269

> <r_i_glide_ligand_efficiency_ln>
-1.66840658639724

> <r_i_glide_gscore>
-7.39769345596412

> <r_i_glide_lipo>
-3.73755914776607

> <r_i_glide_hbond>
0

> <r_i_glide_metal>
0

> <r_i_glide_rewards>
-0.638375484642378

> <r_i_glide_evdw>
-53.3771820068359

> <r_i_glide_ecoul>
-6.18522071838379

> <r_i_glide_erotb>
0.633093043521242

> <r_i_glide_esite>
-0.0582096589775458

> <r_i_glide_emodel>
-78.9851336897347

> <r_i_glide_energy>
-59.5624027252197

> <r_i_glide_einternal>
17.7924671173096

> <i_i_glide_confnum>
183

> <i_i_glide_posenum>
280

> <r_i_glide_eff_state_penalty>
0

> <i_f3d_flags>
0

> <s_user_duplicate_titles>
363032

> <s_m_subgroup_title>
dock_pv

> <s_m_subgroupid>
dock_pv1

> <b_m_subgroup_collapsed>
0

$$$$
363026
                    3D
 Schrodinger Suite 2021-1.
 47 49  0  0  1  0            999 V2000
   -8.5571   58.8714   34.6388 C   0  0  0  0  0  0
   -8.2053   58.2678   33.2651 C   0  0  1  0  0  0
   -7.0929   59.0518   32.5247 C   0  0  0  0  0  0
   -7.5260   60.3480   32.1630 O   0  0  0  0  0  0
   -7.7315   56.9070   33.4704 N   0  0  0  0  0  0
   -8.1898   55.9456   32.7672 C   0  0  0  0  0  0
   -7.5879   54.6237   32.9607 C   0  0  0  0  0  0
   -8.2722   53.4281   33.2346 C   0  0  0  0  0  0
   -7.5812   52.3131   33.3061 N   0  0  0  0  0  0
   -5.9365   52.6797   33.0175 S   0  0  0  0  0  0
   -6.2225   54.3766   32.8477 C   0  0  0  0  0  0
   -5.2541   55.3020   32.5479 N   0  0  0  0  0  0
   -3.9334   55.4858   32.9719 C   0  0  0  0  0  0
   -3.3714   56.6850   32.5592 C   0  0  0  0  0  0
   -2.0841   57.0224   32.9286 C   0  0  0  0  0  0
   -1.3380   56.1824   33.7562 C   0  0  0  0  0  0
   -1.8912   54.9644   34.1629 C   0  0  0  0  0  0
   -3.1910   54.6151   33.7800 C   0  0  0  0  0  0
   -0.0666   56.5442   34.1631 O   0  0  0  0  0  0
    0.1994   57.8870   34.3464 C   0  0  0  0  0  0
   -0.5345   58.6478   35.2644 C   0  0  0  0  0  0
   -0.3645   60.0300   35.3260 C   0  0  0  0  0  0
    0.5686   60.6563   34.5027 C   0  0  0  0  0  0
    1.3183   59.9014   33.6030 C   0  0  0  0  0  0
    1.1347   58.5214   33.5278 C   0  0  0  0  0  0
    2.2009   60.5123   32.7824 F   0  0  0  0  0  0
   -1.1260   60.7676   36.1630 F   0  0  0  0  0  0
   -9.6220   53.3161   33.4311 O   0  0  0  0  0  0
   -9.1260   55.9013   31.7630 N   0  0  0  0  0  0
   -8.9073   59.9007   34.5440 H   0  0  0  0  0  0
   -9.3512   58.3040   35.1259 H   0  0  0  0  0  0
   -7.6972   58.8750   35.3092 H   0  0  0  0  0  0
   -9.1124   58.3077   32.6550 H   0  0  0  0  0  0
   -6.8016   58.5311   31.6115 H   0  0  0  0  0  0
   -6.1947   59.1319   33.1387 H   0  0  0  0  0  0
   -8.4577   60.2822   31.9185 H   0  0  0  0  0  0
   -5.5847   56.1350   32.0822 H   0  0  0  0  0  0
   -3.9263   57.3669   31.9310 H   0  0  0  0  0  0
   -1.6683   57.9480   32.5649 H   0  0  0  0  0  0
   -1.3213   54.3006   34.7950 H   0  0  0  0  0  0
   -3.6067   53.6866   34.1368 H   0  0  0  0  0  0
   -1.2749   58.1722   35.8896 H   0  0  0  0  0  0
    0.6942   61.7277   34.5501 H   0  0  0  0  0  0
    1.6740   57.9483   32.7894 H   0  0  0  0  0  0
  -10.0078   54.1941   33.4453 H   0  0  0  0  0  0
   -9.4115   56.7688   31.3356 H   0  0  0  0  0  0
   -9.1640   55.0746   31.1854 H   0  0  0  0  0  0
  1  2  1  0  0  0
  1 30  1  0  0  0
  1 31  1  0  0  0
  1 32  1  0  0  0
  2  3  1  0  0  0
  2  5  1  0  0  0
  2 33  1  0  0  0
  3  4  1  0  0  0
  3 34  1  0  0  0
  3 35  1  0  0  0
  4 36  1  0  0  0
  5  6  2  0  0  0
  6  7  1  0  0  0
  6 29  1  0  0  0
  7 11  2  0  0  0
  7  8  1  0  0  0
  8  9  2  0  0  0
  8 28  1  0  0  0
  9 10  1  0  0  0
 10 11  1  0  0  0
 11 12  1  0  0  0
 12 13  1  0  0  0
 12 37  1  0  0  0
 13 18  1  0  0  0
 13 14  2  0  0  0
 14 15  1  0  0  0
 14 38  1  0  0  0
 15 16  2  0  0  0
 15 39  1  0  0  0
 16 17  1  0  0  0
 16 19  1  0  0  0
 17 18  2  0  0  0
 17 40  1  0  0  0
 18 41  1  0  0  0
 19 20  1  0  0  0
 20 25  1  0  0  0
 20 21  2  0  0  0
 21 22  1  0  0  0
 21 42  1  0  0  0
 22 23  2  0  0  0
 22 27  1  0  0  0
 23 24  1  0  0  0
 23 43  1  0  0  0
 24 25  2  0  0  0
 24 26  1  0  0  0
 25 44  1  0  0  0
 28 45  1  0  0  0
 29 46  1  0  0  0
 29 47  1  0  0  0
M  END
> <s_m_entry_id>
66071

> <s_m_entry_name>
ligand_docking-pose.127

> <s_m_Source_Path>
/home/csk/Desktop/cluster/DUD-E-result/mp2k1

> <s_m_Source_File>
ligand_docking-pose.sdf

> <i_m_Source_File_Index>
127

> <i_lp_mmshare_version>
53161

> <r_lp_tautomer_probability>
1

> <s_lp_Force_Field>
OPLS_2005

> <r_lp_Energy>
25.912826

> <b_lp_Chiralities_Consistent>
1

> <s_lp_Variant>
363026-2

> <s_i_glide_gridfile>
glide-grid_3eqh

> <i_i_glide_lignum>
270

> <i_i_glide_rotatable_bonds>
9

> <r_i_docking_score>
-7.38036365934074

> <r_i_glide_ligand_efficiency>
-0.254495298597957

> <r_i_glide_ligand_efficiency_sa>
-0.781890187062827

> <r_i_glide_ligand_efficiency_ln>
-1.68991612811436

> <r_i_glide_gscore>
-7.38036365934074

> <r_i_glide_lipo>
-3.87462595268222

> <r_i_glide_hbond>
0

> <r_i_glide_metal>
0

> <r_i_glide_rewards>
-0.778383126354881

> <r_i_glide_evdw>
-49.8764762878418

> <r_i_glide_ecoul>
-6.52453136444092

> <r_i_glide_erotb>
0.783791564048223

> <r_i_glide_esite>
-0.0386426252936347

> <r_i_glide_emodel>
-73.2680626939193

> <r_i_glide_energy>
-56.4010076522827

> <r_i_glide_einternal>
19.3375606536865

> <i_i_glide_confnum>
39

> <i_i_glide_posenum>
177

> <r_i_glide_eff_state_penalty>
0

> <i_f3d_flags>
0

> <s_user_duplicate_titles>
363026

> <s_m_subgroup_title>
dock_pv

> <s_m_subgroupid>
dock_pv1

> <b_m_subgroup_collapsed>
0

$$$$
336104
                    3D
 Schrodinger Suite 2021-1.
 39 40  0  0  1  0            999 V2000
    0.5994   58.2829   34.2690 C   0  0  0  0  0  0
   -0.5307   57.3711   34.0517 N   0  0  0  0  0  0
   -1.8295   57.7840   34.2260 C   0  0  0  0  0  0
   -2.9257   57.0115   34.0505 C   0  0  0  0  0  0
   -2.7061   55.6264   33.6318 C   0  0  0  0  0  0
   -1.4216   55.2119   33.5017 C   0  0  0  0  0  0
   -0.2534   56.0512   33.7630 C   0  0  0  0  0  0
    0.8740   55.5480   33.7616 O   0  0  0  0  0  0
   -1.1517   53.9480   33.1301 F   0  0  0  0  0  0
   -3.7522   54.7457   33.4373 N   0  0  0  0  0  0
   -4.3034   54.3418   32.2123 C   0  0  0  0  0  0
   -3.8777   54.8850   30.9916 C   0  0  0  0  0  0
   -4.4155   54.4257   29.7902 C   0  0  0  0  0  0
   -5.3776   53.4156   29.7976 C   0  0  0  0  0  0
   -5.8189   52.8830   31.0076 C   0  0  0  0  0  0
   -5.2877   53.3437   32.2114 C   0  0  0  0  0  0
   -5.7237   52.8007   33.3735 F   0  0  0  0  0  0
   -6.0847   52.7480   28.1630 Br  0  0  0  0  0  0
   -4.2339   57.5315   34.3394 C   0  0  0  0  0  0
   -4.5046   57.9480   35.4567 O   0  0  0  0  0  0
   -5.0928   57.4997   33.3104 N   0  0  0  0  0  0
   -6.3260   58.1326   33.4250 O   0  0  0  0  0  0
   -6.9755   58.1119   32.1630 C   0  0  0  0  0  0
   -8.2466   58.9699   32.1904 C   0  0  0  0  0  0
   -7.9260   60.3480   32.1630 O   0  0  0  0  0  0
    0.4647   59.1867   33.6738 H   0  0  0  0  0  0
    0.6480   58.5755   35.3184 H   0  0  0  0  0  0
    1.5681   57.8622   33.9951 H   0  0  0  0  0  0
   -1.8791   58.8094   34.5743 H   0  0  0  0  0  0
   -4.3255   54.4998   34.2338 H   0  0  0  0  0  0
   -3.1260   55.6606   30.9633 H   0  0  0  0  0  0
   -4.0820   54.8581   28.8592 H   0  0  0  0  0  0
   -6.5677   52.1050   31.0161 H   0  0  0  0  0  0
   -4.8839   57.1974   32.3703 H   0  0  0  0  0  0
   -7.2487   57.0814   31.9259 H   0  0  0  0  0  0
   -6.3225   58.4586   31.3614 H   0  0  0  0  0  0
   -8.8170   58.7719   33.0998 H   0  0  0  0  0  0
   -8.9044   58.7047   31.3630 H   0  0  0  0  0  0
   -8.7590   60.8464   32.2295 H   0  0  0  0  0  0
  1  2  1  0  0  0
  1 26  1  0  0  0
  1 27  1  0  0  0
  1 28  1  0  0  0
  2  7  1  0  0  0
  2  3  1  0  0  0
  3  4  2  0  0  0
  3 29  1  0  0  0
  4  5  1  0  0  0
  4 19  1  0  0  0
  5  6  2  0  0  0
  5 10  1  0  0  0
  6  7  1  0  0  0
  6  9  1  0  0  0
  7  8  2  0  0  0
 10 11  1  0  0  0
 10 30  1  0  0  0
 11 16  1  0  0  0
 11 12  2  0  0  0
 12 13  1  0  0  0
 12 31  1  0  0  0
 13 14  2  0  0  0
 13 32  1  0  0  0
 14 15  1  0  0  0
 14 18  1  0  0  0
 15 16  2  0  0  0
 15 33  1  0  0  0
 16 17  1  0  0  0
 19 20  2  0  0  0
 19 21  1  0  0  0
 21 22  1  0  0  0
 21 34  1  0  0  0
 22 23  1  0  0  0
 23 24  1  0  0  0
 23 35  1  0  0  0
 23 36  1  0  0  0
 24 25  1  0  0  0
 24 37  1  0  0  0
 24 38  1  0  0  0
 25 39  1  0  0  0
M  END
> <s_m_entry_id>
66072

> <s_m_entry_name>
ligand_docking-pose.128

> <s_m_Source_Path>
/home/csk/Desktop/cluster/DUD-E-result/mp2k1

> <s_m_Source_File>
ligand_docking-pose.sdf

> <i_m_Source_File_Index>
128

> <i_lp_mmshare_version>
53161

> <r_lp_tautomer_probability>
0.999999999982488

> <s_lp_Force_Field>
OPLS_2005

> <r_lp_Energy>
41.304713

> <b_lp_Chiralities_Consistent>
1

> <s_lp_Variant>
336104-1

> <s_i_glide_gridfile>
glide-grid_3eqh

> <i_i_glide_lignum>
332

> <i_i_glide_rotatable_bonds>
8

> <r_i_docking_score>
-7.37913343998779

> <r_i_glide_ligand_efficiency>
-0.295165337599512

> <r_i_glide_ligand_efficiency_sa>
-0.863068681920524

> <r_i_glide_ligand_efficiency_ln>
-1.74907576006182

> <r_i_glide_gscore>
-7.37913343998779

> <r_i_glide_lipo>
-2.61339901892414

> <r_i_glide_hbond>
-0.632518081505988

> <r_i_glide_metal>
0

> <r_i_glide_rewards>
-0.64485267608458

> <r_i_glide_evdw>
-40.4228363037109

> <r_i_glide_ecoul>
-15.0575408935547

> <r_i_glide_erotb>
0.791409285745666

> <r_i_glide_esite>
0

> <r_i_glide_emodel>
-75.8424549144497

> <r_i_glide_energy>
-55.4803771972656

> <r_i_glide_einternal>
14.827600479126

> <i_i_glide_confnum>
62

> <i_i_glide_posenum>
370

> <r_i_glide_eff_state_penalty>
0

> <i_f3d_flags>
0

> <s_user_duplicate_titles>
336104

> <s_m_subgroup_title>
dock_pv

> <s_m_subgroupid>
dock_pv1

> <b_m_subgroup_collapsed>
0

$$$$
51663
                    3D
 Schrodinger Suite 2021-1.
 43 45  0  0  1  0            999 V2000
    1.4654   61.5704   33.8704 C   0  0  0  0  0  0
    1.4061   60.5652   32.9102 C   0  0  0  0  0  0
    0.4780   59.5404   33.0553 C   0  0  0  0  0  0
   -0.3840   59.5101   34.1623 C   0  0  0  0  0  0
   -0.3264   60.5272   35.1086 C   0  0  0  0  0  0
    0.6003   61.5537   34.9619 C   0  0  0  0  0  0
   -1.3269   58.5085   34.2999 O   0  0  0  0  0  0
   -0.9771   57.1862   34.0993 C   0  0  0  0  0  0
    0.3437   56.7732   34.3330 C   0  0  0  0  0  0
    0.7140   55.4573   34.1454 C   0  0  0  0  0  0
   -0.2268   54.5181   33.7632 C   0  0  0  0  0  0
   -1.5477   54.8910   33.5712 C   0  0  0  0  0  0
   -1.9401   56.2284   33.7047 C   0  0  0  0  0  0
   -3.3693   56.5470   33.4662 C   0  0  0  0  0  0
   -4.0931   56.0824   32.4158 C   0  0  0  0  0  0
   -3.6096   55.3778   31.3421 N   0  0  0  0  0  0
   -5.8588   56.3024   32.2400 S   0  0  0  0  0  0
   -6.5221   54.6401   32.3968 C   0  0  0  0  0  0
   -5.8725   53.6905   33.1994 C   0  0  0  0  0  0
   -6.4097   52.4120   33.3629 C   0  0  0  0  0  0
   -7.5992   52.0641   32.7330 C   0  0  0  0  0  0
   -8.2551   52.9942   31.9328 C   0  0  0  0  0  0
   -7.7283   54.2755   31.7632 C   0  0  0  0  0  0
   -8.4398   55.1486   30.9439 N   0  0  0  0  0  0
   -3.9689   57.3179   34.4995 C   0  0  0  0  0  0
   -4.4040   57.9479   35.3628 N   0  0  0  0  0  0
    2.1811   62.3724   33.7659 H   0  0  0  0  0  0
    2.0740   60.5789   32.0601 H   0  0  0  0  0  0
    0.4259   58.7502   32.3189 H   0  0  0  0  0  0
   -1.0076   60.5232   35.9470 H   0  0  0  0  0  0
    0.6422   62.3481   35.6923 H   0  0  0  0  0  0
    1.0942   57.4716   34.6715 H   0  0  0  0  0  0
    1.7306   55.1483   34.3212 H   0  0  0  0  0  0
    0.0738   53.4983   33.6242 H   0  0  0  0  0  0
   -2.2663   54.1278   33.3084 H   0  0  0  0  0  0
   -2.6155   55.2903   31.1920 H   0  0  0  0  0  0
   -4.2243   55.1319   30.5793 H   0  0  0  0  0  0
   -4.9640   53.9415   33.7260 H   0  0  0  0  0  0
   -5.9261   51.6861   33.9969 H   0  0  0  0  0  0
   -8.0188   51.0789   32.8709 H   0  0  0  0  0  0
   -9.1801   52.7144   31.4509 H   0  0  0  0  0  0
   -8.0085   56.0326   30.6771 H   0  0  0  0  0  0
   -9.2260   54.8024   30.4161 H   0  0  0  0  0  0
  1  6  1  0  0  0
  1  2  2  0  0  0
  1 27  1  0  0  0
  2  3  1  0  0  0
  2 28  1  0  0  0
  3  4  2  0  0  0
  3 29  1  0  0  0
  4  5  1  0  0  0
  4  7  1  0  0  0
  5  6  2  0  0  0
  5 30  1  0  0  0
  6 31  1  0  0  0
  7  8  1  0  0  0
  8 13  1  0  0  0
  8  9  2  0  0  0
  9 10  1  0  0  0
  9 32  1  0  0  0
 10 11  2  0  0  0
 10 33  1  0  0  0
 11 12  1  0  0  0
 11 34  1  0  0  0
 12 13  2  0  0  0
 12 35  1  0  0  0
 13 14  1  0  0  0
 14 15  2  0  0  0
 14 25  1  0  0  0
 15 16  1  0  0  0
 15 17  1  0  0  0
 16 36  1  0  0  0
 16 37  1  0  0  0
 17 18  1  0  0  0
 18 23  1  0  0  0
 18 19  2  0  0  0
 19 20  1  0  0  0
 19 38  1  0  0  0
 20 21  2  0  0  0
 20 39  1  0  0  0
 21 22  1  0  0  0
 21 40  1  0  0  0
 22 23  2  0  0  0
 22 41  1  0  0  0
 23 24  1  0  0  0
 24 42  1  0  0  0
 24 43  1  0  0  0
 25 26  3  0  0  0
M  END
> <s_m_entry_id>
66073

> <s_m_entry_name>
ligand_docking-pose.129

> <s_m_Source_Path>
/home/csk/Desktop/cluster/DUD-E-result/mp2k1

> <s_m_Source_File>
ligand_docking-pose.sdf

> <i_m_Source_File_Index>
129

> <i_lp_mmshare_version>
53161

> <r_lp_tautomer_probability>
0.499999974950001

> <s_lp_Force_Field>
OPLS_2005

> <r_lp_Energy>
29.868537

> <b_lp_Chiralities_Consistent>
1

> <s_lp_Variant>
51663-1

> <s_i_glide_gridfile>
glide-grid_3eqh

> <i_i_glide_lignum>
106

> <i_i_glide_rotatable_bonds>
5

> <r_i_docking_score>
-7.37228518574666

> <r_i_glide_ligand_efficiency>
-0.283549430221025

> <r_i_glide_ligand_efficiency_sa>
-0.840014071316656

> <r_i_glide_ligand_efficiency_ln>
-1.73135698543185

> <r_i_glide_gscore>
-7.37228518574666

> <r_i_glide_lipo>
-3.66763524390345

> <r_i_glide_hbond>
-0.29741015702908

> <r_i_glide_metal>
0

> <r_i_glide_rewards>
-1.46329195454568

> <r_i_glide_evdw>
-36.975025177002

> <r_i_glide_ecoul>
-5.20193719863892

> <r_i_glide_erotb>
0.741770785406438

> <r_i_glide_esite>
-0.0566767770289573

> <r_i_glide_emodel>
-57.4648576743281

> <r_i_glide_energy>
-42.1769623756409

> <r_i_glide_einternal>
3.6340503692627

> <i_i_glide_confnum>
49

> <i_i_glide_posenum>
80

> <r_i_glide_eff_state_penalty>
0

> <i_f3d_flags>
0

> <s_user_duplicate_titles>
51663

> <s_m_subgroup_title>
dock_pv

> <s_m_subgroupid>
dock_pv1

> <b_m_subgroup_collapsed>
0

$$$$
363045
                    3D
 Schrodinger Suite 2021-1.
 51 53  0  0  1  0            999 V2000
   -3.6798   57.1495   33.1066 C   0  0  0  0  0  0
   -2.5420   57.7484   33.6165 C   0  0  0  0  0  0
   -1.4134   56.9872   33.9431 C   0  0  0  0  0  0
   -1.4425   55.6087   33.7183 C   0  0  0  0  0  0
   -2.5698   55.0113   33.1510 C   0  0  0  0  0  0
   -3.6885   55.7898   32.8516 C   0  0  0  0  0  0
   -4.8916   55.2679   32.3847 N   0  0  0  0  0  0
   -5.1895   54.5034   31.2846 C   0  0  0  0  0  0
   -6.4719   54.1568   30.8410 C   0  0  0  0  0  0
   -6.3436   53.3264   29.7071 C   0  0  0  0  0  0
   -5.1464   53.0823   29.2208 N   0  0  0  0  0  0
   -3.9977   53.9219   30.1630 S   0  0  0  0  0  0
   -7.3781   52.7313   29.0374 O   0  0  0  0  0  0
   -7.7374   54.6491   31.4502 C   0  0  0  0  0  0
   -7.7132   54.9604   32.6906 N   0  0  0  0  0  0
   -8.8526   55.5820   33.3452 C   0  0  0  0  0  0
   -8.4763   57.0109   33.8344 C   0  0  0  0  0  0
   -8.0958   58.0290   32.7255 C   0  0  2  0  0  0
   -7.8891   59.4792   33.2315 C   0  0  0  0  0  0
   -7.5260   60.3479   32.1632 O   0  0  0  0  0  0
   -9.1262   58.0447   31.7629 O   0  0  0  0  0  0
   -8.7553   54.7482   30.5248 N   0  0  0  0  0  0
   -0.2816   57.5206   34.5333 O   0  0  0  0  0  0
    0.0326   58.8587   34.4159 C   0  0  0  0  0  0
    1.1218   59.2161   33.6178 C   0  0  0  0  0  0
    1.5019   60.5538   33.5022 C   0  0  0  0  0  0
    0.7852   61.5481   34.1613 C   0  0  0  0  0  0
   -0.2977   61.2007   34.9631 C   0  0  0  0  0  0
   -0.6572   59.8632   35.1184 C   0  0  0  0  0  0
   -1.9753   59.4931   36.1662 Cl  0  0  0  0  0  0
    2.8738   60.9901   32.5630 Cl  0  0  0  0  0  0
   -4.5504   57.7541   32.8986 H   0  0  0  0  0  0
   -2.5777   58.8120   33.7630 H   0  0  0  0  0  0
   -0.5876   55.0040   33.9823 H   0  0  0  0  0  0
   -2.5918   53.9481   32.9894 H   0  0  0  0  0  0
   -5.6904   55.6772   32.8515 H   0  0  0  0  0  0
   -8.1900   52.9860   29.4845 H   0  0  0  0  0  0
   -9.1313   54.9681   34.2030 H   0  0  0  0  0  0
   -9.7501   55.6304   32.7266 H   0  0  0  0  0  0
   -7.6557   56.9373   34.5502 H   0  0  0  0  0  0
   -9.3253   57.4045   34.3949 H   0  0  0  0  0  0
   -7.1868   57.6949   32.2190 H   0  0  0  0  0  0
   -7.1168   59.5117   33.9994 H   0  0  0  0  0  0
   -8.8084   59.8602   33.6831 H   0  0  0  0  0  0
   -8.2302   60.2443   31.5084 H   0  0  0  0  0  0
   -8.7129   57.8527   30.9024 H   0  0  0  0  0  0
   -9.6349   55.1288   30.8361 H   0  0  0  0  0  0
   -8.4935   54.9703   29.5729 H   0  0  0  0  0  0
    1.6749   58.4507   33.0937 H   0  0  0  0  0  0
    1.0746   62.5855   34.0658 H   0  0  0  0  0  0
   -0.8508   61.9707   35.4809 H   0  0  0  0  0  0
  1  6  1  0  0  0
  1  2  2  0  0  0
  1 32  1  0  0  0
  2  3  1  0  0  0
  2 33  1  0  0  0
  3  4  2  0  0  0
  3 23  1  0  0  0
  4  5  1  0  0  0
  4 34  1  0  0  0
  5  6  2  0  0  0
  5 35  1  0  0  0
  6  7  1  0  0  0
  7  8  1  0  0  0
  7 36  1  0  0  0
  8 12  1  0  0  0
  8  9  2  0  0  0
  9 10  1  0  0  0
  9 14  1  0  0  0
 10 11  2  0  0  0
 10 13  1  0  0  0
 11 12  1  0  0  0
 13 37  1  0  0  0
 14 15  2  0  0  0
 14 22  1  0  0  0
 15 16  1  0  0  0
 16 17  1  0  0  0
 16 38  1  0  0  0
 16 39  1  0  0  0
 17 18  1  0  0  0
 17 40  1  0  0  0
 17 41  1  0  0  0
 18 19  1  0  0  0
 18 21  1  0  0  0
 18 42  1  0  0  0
 19 20  1  0  0  0
 19 43  1  0  0  0
 19 44  1  0  0  0
 20 45  1  0  0  0
 21 46  1  0  0  0
 22 47  1  0  0  0
 22 48  1  0  0  0
 23 24  1  0  0  0
 24 29  1  0  0  0
 24 25  2  0  0  0
 25 26  1  0  0  0
 25 49  1  0  0  0
 26 27  2  0  0  0
 26 31  1  0  0  0
 27 28  1  0  0  0
 27 50  1  0  0  0
 28 29  2  0  0  0
 28 51  1  0  0  0
 29 30  1  0  0  0
M  END
> <s_m_entry_id>
66074

> <s_m_entry_name>
ligand_docking-pose.130

> <s_m_Source_Path>
/home/csk/Desktop/cluster/DUD-E-result/mp2k1

> <s_m_Source_File>
ligand_docking-pose.sdf

> <i_m_Source_File_Index>
130

> <i_lp_mmshare_version>
53161

> <r_lp_tautomer_probability>
1

> <s_lp_Force_Field>
OPLS_2005

> <r_lp_Energy>
30.53674

> <b_lp_Chiralities_Consistent>
1

> <s_lp_Variant>
363045-1

> <s_i_glide_gridfile>
glide-grid_3eqh

> <i_i_glide_lignum>
49

> <i_i_glide_rotatable_bonds>
12

> <r_i_docking_score>
-7.36834711256507

> <r_i_glide_ligand_efficiency>
-0.237688616534357

> <r_i_glide_ligand_efficiency_sa>
-0.746670420420021

> <r_i_glide_ligand_efficiency_ln>
-1.66178808660334

> <r_i_glide_gscore>
-7.36834711256507

> <r_i_glide_lipo>
-3.4125783017564

> <r_i_glide_hbond>
0

> <r_i_glide_metal>
0

> <r_i_glide_rewards>
-0.354267083177139

> <r_i_glide_evdw>
-52.7644577026367

> <r_i_glide_ecoul>
-9.62916278839111

> <r_i_glide_erotb>
0.547375241186688

> <r_i_glide_esite>
-0.0662796654277154

> <r_i_glide_emodel>
-89.1498936767569

> <r_i_glide_energy>
-62.3936204910278

> <r_i_glide_einternal>
10.278657913208

> <i_i_glide_confnum>
154

> <i_i_glide_posenum>
254

> <r_i_glide_eff_state_penalty>
0

> <i_f3d_flags>
0

> <s_user_duplicate_titles>
363045

> <s_m_subgroup_title>
dock_pv

> <s_m_subgroupid>
dock_pv1

> <b_m_subgroup_collapsed>
0

$$$$
363048
                    3D
 Schrodinger Suite 2021-1.
 53 55  0  0  1  0            999 V2000
   -7.3942   58.3571   36.4460 C   0  0  0  0  0  0
   -8.1451   59.1982   35.3906 C   0  0  0  0  0  0
   -9.6685   59.0355   35.5590 C   0  0  0  0  0  0
   -7.6399   58.9539   33.9313 C   0  0  2  0  0  0
   -8.3348   59.8740   32.8936 C   0  0  0  0  0  0
   -7.4360   60.3295   31.8959 O   0  0  0  0  0  0
   -7.8187   57.5448   33.5629 N   0  0  0  0  0  0
   -6.8281   56.7377   33.6167 C   0  0  0  0  0  0
   -7.0855   55.3019   33.3650 C   0  0  0  0  0  0
   -8.2527   54.6415   33.8054 C   0  0  0  0  0  0
   -8.3965   53.3573   33.5699 N   0  0  0  0  0  0
   -7.0271   52.8105   32.7111 S   0  0  0  0  0  0
   -6.2589   54.3624   32.7177 C   0  0  0  0  0  0
   -5.0812   54.5014   32.0222 N   0  0  0  0  0  0
   -3.8847   54.9685   32.5743 C   0  0  0  0  0  0
   -3.3150   56.1009   32.0129 C   0  0  0  0  0  0
   -2.1629   56.6505   32.5625 C   0  0  0  0  0  0
   -1.5290   56.0335   33.6375 C   0  0  0  0  0  0
   -2.0696   54.8594   34.1628 C   0  0  0  0  0  0
   -3.2697   54.3485   33.6649 C   0  0  0  0  0  0
   -0.3592   56.5405   34.1633 O   0  0  0  0  0  0
   -0.1952   57.9053   34.3110 C   0  0  0  0  0  0
    0.8349   58.5236   33.5944 C   0  0  0  0  0  0
    1.0582   59.8960   33.7031 C   0  0  0  0  0  0
    0.2777   60.6572   34.5678 C   0  0  0  0  0  0
   -0.7337   60.0501   35.3088 C   0  0  0  0  0  0
   -0.9879   58.6834   35.1758 C   0  0  0  0  0  0
   -2.2956   58.0042   36.0805 Cl  0  0  0  0  0  0
    2.2922   60.6454   32.7565 Cl  0  0  0  0  0  0
   -9.2853   55.2300   34.4805 O   0  0  0  0  0  0
   -5.5236   56.9781   33.9725 N   0  0  0  0  0  0
   -7.7054   57.3143   36.4158 H   0  0  0  0  0  0
   -7.5616   58.7391   37.4524 H   0  0  0  0  0  0
   -6.3191   58.3524   36.2781 H   0  0  0  0  0  0
   -7.9281   60.2414   35.6203 H   0  0  0  0  0  0
   -9.9910   58.0100   35.3786 H   0  0  0  0  0  0
   -9.9743   59.3144   36.5647 H   0  0  0  0  0  0
  -10.2135   59.6809   34.8719 H   0  0  0  0  0  0
   -6.5858   59.2458   33.9351 H   0  0  0  0  0  0
   -9.1947   59.3894   32.4323 H   0  0  0  0  0  0
   -8.7267   60.7482   33.3968 H   0  0  0  0  0  0
   -7.1882   59.5455   31.3864 H   0  0  0  0  0  0
   -5.1583   54.7458   31.0414 H   0  0  0  0  0  0
   -3.8035   56.5890   31.1833 H   0  0  0  0  0  0
   -1.7418   57.5466   32.1385 H   0  0  0  0  0  0
   -1.5615   54.3484   34.9633 H   0  0  0  0  0  0
   -3.6989   53.4589   34.1029 H   0  0  0  0  0  0
    1.4461   57.9437   32.9233 H   0  0  0  0  0  0
    0.4444   61.7215   34.6616 H   0  0  0  0  0  0
   -1.3457   60.6527   35.9656 H   0  0  0  0  0  0
   -9.1426   56.1801   34.4343 H   0  0  0  0  0  0
   -5.1901   57.9155   34.1115 H   0  0  0  0  0  0
   -4.8666   56.2144   33.9872 H   0  0  0  0  0  0
  1  2  1  0  0  0
  1 32  1  0  0  0
  1 33  1  0  0  0
  1 34  1  0  0  0
  2  3  1  0  0  0
  2  4  1  0  0  0
  2 35  1  0  0  0
  3 36  1  0  0  0
  3 37  1  0  0  0
  3 38  1  0  0  0
  4  5  1  0  0  0
  4  7  1  0  0  0
  4 39  1  0  0  0
  5  6  1  0  0  0
  5 40  1  0  0  0
  5 41  1  0  0  0
  6 42  1  0  0  0
  7  8  2  0  0  0
  8  9  1  0  0  0
  8 31  1  0  0  0
  9 13  2  0  0  0
  9 10  1  0  0  0
 10 11  2  0  0  0
 10 30  1  0  0  0
 11 12  1  0  0  0
 12 13  1  0  0  0
 13 14  1  0  0  0
 14 15  1  0  0  0
 14 43  1  0  0  0
 15 20  1  0  0  0
 15 16  2  0  0  0
 16 17  1  0  0  0
 16 44  1  0  0  0
 17 18  2  0  0  0
 17 45  1  0  0  0
 18 19  1  0  0  0
 18 21  1  0  0  0
 19 20  2  0  0  0
 19 46  1  0  0  0
 20 47  1  0  0  0
 21 22  1  0  0  0
 22 27  1  0  0  0
 22 23  2  0  0  0
 23 24  1  0  0  0
 23 48  1  0  0  0
 24 25  2  0  0  0
 24 29  1  0  0  0
 25 26  1  0  0  0
 25 49  1  0  0  0
 26 27  2  0  0  0
 26 50  1  0  0  0
 27 28  1  0  0  0
 30 51  1  0  0  0
 31 52  1  0  0  0
 31 53  1  0  0  0
M  END
> <s_m_entry_id>
66075

> <s_m_entry_name>
ligand_docking-pose.131

> <s_m_Source_Path>
/home/csk/Desktop/cluster/DUD-E-result/mp2k1

> <s_m_Source_File>
ligand_docking-pose.sdf

> <i_m_Source_File_Index>
131

> <i_lp_mmshare_version>
53161

> <r_lp_tautomer_probability>
1

> <s_lp_Force_Field>
OPLS_2005

> <r_lp_Energy>
27.877768

> <b_lp_Chiralities_Consistent>
1

> <s_lp_Variant>
363048-1

> <s_i_glide_gridfile>
glide-grid_3eqh

> <i_i_glide_lignum>
204

> <i_i_glide_rotatable_bonds>
10

> <r_i_docking_score>
-7.35020963785224

> <r_i_glide_ligand_efficiency>
-0.237103536704911

> <r_i_glide_ligand_efficiency_sa>
-0.744832461965798

> <r_i_glide_ligand_efficiency_ln>
-1.65769753020875

> <r_i_glide_gscore>
-7.35020963785224

> <r_i_glide_lipo>
-3.97415108112607

> <r_i_glide_hbond>
0

> <r_i_glide_metal>
0

> <r_i_glide_rewards>
-0.303531537255229

> <r_i_glide_evdw>
-53.8269729614258

> <r_i_glide_ecoul>
-6.62625169754028

> <r_i_glide_erotb>
0.61275938323139

> <r_i_glide_esite>
0

> <r_i_glide_emodel>
-79.6311435896202

> <r_i_glide_energy>
-60.4532246589661

> <r_i_glide_einternal>
17.1791400909424

> <i_i_glide_confnum>
5

> <i_i_glide_posenum>
129

> <r_i_glide_eff_state_penalty>
0

> <i_f3d_flags>
0

> <s_user_duplicate_titles>
363048

> <s_m_subgroup_title>
dock_pv

> <s_m_subgroupid>
dock_pv1

> <b_m_subgroup_collapsed>
0

$$$$
353842
                    3D
 Schrodinger Suite 2021-1.
 22 23  0  0  1  0            999 V2000
    2.0733   60.3555   32.9012 C   0  0  0  0  0  0
    1.0741   59.4155   33.1478 C   0  0  0  0  0  0
    0.0604   59.6653   34.0838 C   0  0  0  0  0  0
    0.0942   60.8788   34.8013 C   0  0  0  0  0  0
    1.1115   61.8093   34.5586 C   0  0  0  0  0  0
    2.0804   61.5623   33.5940 C   0  0  0  0  0  0
    3.2868   62.7542   33.2605 Cl  0  0  0  0  0  0
   -1.1249   61.2772   35.9726 Cl  0  0  0  0  0  0
   -1.0280   58.7874   34.2824 N   0  0  0  0  0  0
   -1.2034   57.4278   34.0949 C   0  0  0  0  0  0
   -2.4068   56.7278   34.1628 C   0  0  0  0  0  0
   -2.1721   55.3540   33.9892 C   0  0  0  0  0  0
   -0.9485   54.9394   33.7630 N   0  0  0  0  0  0
    0.0760   56.2990   33.7640 S   0  0  0  0  0  0
   -3.1280   54.3744   34.0387 O   0  0  0  0  0  0
   -3.7167   57.3275   34.3860 C   0  0  0  0  0  0
   -4.7555   57.8058   34.5624 N   0  0  0  0  0  0
    2.8348   60.1449   32.1648 H   0  0  0  0  0  0
    1.0920   58.5163   32.5632 H   0  0  0  0  0  0
    1.1686   62.7442   35.0979 H   0  0  0  0  0  0
   -1.8380   59.3232   34.5674 H   0  0  0  0  0  0
   -3.9757   54.7425   34.2991 H   0  0  0  0  0  0
  1  6  1  0  0  0
  1  2  2  0  0  0
  1 18  1  0  0  0
  2  3  1  0  0  0
  2 19  1  0  0  0
  3  4  2  0  0  0
  3  9  1  0  0  0
  4  5  1  0  0  0
  4  8  1  0  0  0
  5  6  2  0  0  0
  5 20  1  0  0  0
  6  7  1  0  0  0
  9 10  1  0  0  0
  9 21  1  0  0  0
 10 14  1  0  0  0
 10 11  2  0  0  0
 11 12  1  0  0  0
 11 16  1  0  0  0
 12 13  2  0  0  0
 12 15  1  0  0  0
 13 14  1  0  0  0
 15 22  1  0  0  0
 16 17  3  0  0  0
M  END
> <s_m_entry_id>
66076

> <s_m_entry_name>
ligand_docking-pose.132

> <s_m_Source_Path>
/home/csk/Desktop/cluster/DUD-E-result/mp2k1

> <s_m_Source_File>
ligand_docking-pose.sdf

> <i_m_Source_File_Index>
132

> <i_lp_mmshare_version>
53161

> <r_lp_tautomer_probability>
1

> <s_lp_Force_Field>
OPLS_2005

> <r_lp_Energy>
9.485023

> <b_lp_Chiralities_Consistent>
1

> <s_lp_Variant>
353842-1

> <s_i_glide_gridfile>
glide-grid_3eqh

> <i_i_glide_lignum>
32

> <i_i_glide_rotatable_bonds>
3

> <r_i_docking_score>
-7.33763618301635

> <r_i_glide_ligand_efficiency>
-0.431625657824491

> <r_i_glide_ligand_efficiency_sa>
-1.10983110697174

> <r_i_glide_ligand_efficiency_ln>
-1.91422587902499

> <r_i_glide_gscore>
-7.33763618301635

> <r_i_glide_lipo>
-3.3893792363708

> <r_i_glide_hbond>
-0.0159226628833861

> <r_i_glide_metal>
0

> <r_i_glide_rewards>
-2.03783981710829

> <r_i_glide_evdw>
-35.0873985290527

> <r_i_glide_ecoul>
-3.8907310962677

> <r_i_glide_erotb>
0.443485124238913

> <r_i_glide_esite>
0

> <r_i_glide_emodel>
-56.7884833965583

> <r_i_glide_energy>
-38.9781296253204

> <r_i_glide_einternal>
2.84080076217651

> <i_i_glide_confnum>
3

> <i_i_glide_posenum>
146

> <r_i_glide_eff_state_penalty>
0

> <i_f3d_flags>
0

> <s_user_duplicate_titles>
353842

> <s_m_subgroup_title>
dock_pv

> <s_m_subgroupid>
dock_pv1

> <b_m_subgroup_collapsed>
0

$$$$
353925
                    3D
 Schrodinger Suite 2021-1.
 22 23  0  0  1  0            999 V2000
    0.0735   60.8938   34.4761 C   0  0  0  0  0  0
    1.0447   61.8296   34.1309 C   0  0  0  0  0  0
    2.0403   61.4929   33.2196 C   0  0  0  0  0  0
    2.0750   60.2191   32.6615 C   0  0  0  0  0  0
    1.1193   59.2787   33.0251 C   0  0  0  0  0  0
    0.1056   59.6091   33.9300 C   0  0  0  0  0  0
   -0.9497   58.7482   34.2768 N   0  0  0  0  0  0
   -1.1693   57.3957   34.0872 C   0  0  0  0  0  0
   -2.3975   56.7435   34.1613 C   0  0  0  0  0  0
   -2.2149   55.3622   33.9847 C   0  0  0  0  0  0
   -1.0070   54.8992   33.7637 N   0  0  0  0  0  0
    0.0724   56.2156   33.7633 S   0  0  0  0  0  0
   -3.2052   54.4190   34.0261 O   0  0  0  0  0  0
   -3.6757   57.4083   34.3868 C   0  0  0  0  0  0
   -4.6852   57.9445   34.5646 N   0  0  0  0  0  0
    3.2314   62.6605   32.7769 Cl  0  0  0  0  0  0
   -0.7083   61.1805   35.1646 H   0  0  0  0  0  0
    1.0203   62.8160   34.5626 H   0  0  0  0  0  0
    2.8445   59.9530   31.9517 H   0  0  0  0  0  0
    1.1735   58.3121   32.5634 H   0  0  0  0  0  0
   -1.7192   59.2896   34.6483 H   0  0  0  0  0  0
   -4.0375   54.8161   34.2957 H   0  0  0  0  0  0
  1  6  1  0  0  0
  1  2  2  0  0  0
  1 17  1  0  0  0
  2  3  1  0  0  0
  2 18  1  0  0  0
  3  4  2  0  0  0
  3 16  1  0  0  0
  4  5  1  0  0  0
  4 19  1  0  0  0
  5  6  2  0  0  0
  5 20  1  0  0  0
  6  7  1  0  0  0
  7  8  1  0  0  0
  7 21  1  0  0  0
  8 12  1  0  0  0
  8  9  2  0  0  0
  9 10  1  0  0  0
  9 14  1  0  0  0
 10 11  2  0  0  0
 10 13  1  0  0  0
 11 12  1  0  0  0
 13 22  1  0  0  0
 14 15  3  0  0  0
M  END
> <s_m_entry_id>
66077

> <s_m_entry_name>
ligand_docking-pose.133

> <s_m_Source_Path>
/home/csk/Desktop/cluster/DUD-E-result/mp2k1

> <s_m_Source_File>
ligand_docking-pose.sdf

> <i_m_Source_File_Index>
133

> <i_lp_mmshare_version>
53161

> <r_lp_tautomer_probability>
1

> <s_lp_Force_Field>
OPLS_2005

> <r_lp_Energy>
9.004704

> <b_lp_Chiralities_Consistent>
1

> <s_lp_Variant>
353925-1

> <s_i_glide_gridfile>
glide-grid_3eqh

> <i_i_glide_lignum>
60

> <i_i_glide_rotatable_bonds>
3

> <r_i_docking_score>
-7.33424700487231

> <r_i_glide_ligand_efficiency>
-0.45839043780452

> <r_i_glide_ligand_efficiency_sa>
-1.15507152225337

> <r_i_glide_ligand_efficiency_ln>
-1.94408867355092

> <r_i_glide_gscore>
-7.33424700487231

> <r_i_glide_lipo>
-3.23794611145456

> <r_i_glide_hbond>
-0.0474600437519113

> <r_i_glide_metal>
0

> <r_i_glide_rewards>
-2.19920253973547

> <r_i_glide_evdw>
-35.0209693908691

> <r_i_glide_ecoul>
-4.34764003753662

> <r_i_glide_erotb>
0.553556165243575

> <r_i_glide_esite>
0

> <r_i_glide_emodel>
-55.3050328615229

> <r_i_glide_energy>
-39.3686094284058

> <r_i_glide_einternal>
2.91375660896301

> <i_i_glide_confnum>
3

> <i_i_glide_posenum>
334

> <r_i_glide_eff_state_penalty>
0

> <i_f3d_flags>
0

> <s_user_duplicate_titles>
353925

> <s_m_subgroup_title>
dock_pv

> <s_m_subgroupid>
dock_pv1

> <b_m_subgroup_collapsed>
0

$$$$
43275
                    3D
 Schrodinger Suite 2021-1.
 51 54  0  0  1  0            999 V2000
   -3.2040   54.9542   29.2737 C   0  0  0  0  0  0
   -4.0649   53.8206   29.3694 O   0  0  0  0  0  0
   -5.0563   53.8153   30.3354 C   0  0  0  0  0  0
   -5.2182   54.8654   31.2454 C   0  0  0  0  0  0
   -6.2296   54.8475   32.2323 C   0  0  0  0  0  0
   -7.1467   53.7576   32.2386 C   0  0  0  0  0  0
   -6.9593   52.6881   31.3342 C   0  0  0  0  0  0
   -5.9163   52.7100   30.3924 C   0  0  0  0  0  0
   -5.6906   51.6896   29.4837 O   0  0  0  0  0  0
   -6.5078   50.5248   29.5230 C   0  0  0  0  0  0
   -8.2195   53.7226   33.0737 N   0  0  0  0  0  0
   -8.4432   54.7879   33.8788 C   0  0  0  0  0  0
   -7.5926   55.8914   33.9574 C   0  0  0  0  0  0
   -6.4131   55.8973   33.1854 C   0  0  0  0  0  0
   -5.4935   56.9556   33.3362 N   0  0  0  0  0  0
   -4.1339   56.9706   33.6892 C   0  0  0  0  0  0
   -3.2527   55.8823   33.6263 C   0  0  0  0  0  0
   -1.9040   56.0551   33.9650 C   0  0  0  0  0  0
   -1.4387   57.3023   34.4080 C   0  0  0  0  0  0
   -2.3457   58.3484   34.5355 C   0  0  0  0  0  0
   -3.6684   58.1863   34.1629 C   0  0  0  0  0  0
    0.0336   57.5360   34.7694 C   0  0  0  0  0  0
    0.6517   58.8425   34.2570 C   0  0  0  0  0  0
    0.4571   60.0345   34.9634 C   0  0  0  0  0  0
    1.0003   61.2295   34.4998 C   0  0  0  0  0  0
    1.7657   61.2293   33.3375 C   0  0  0  0  0  0
    1.9973   60.0445   32.6477 C   0  0  0  0  0  0
    1.4508   58.8528   33.1108 C   0  0  0  0  0  0
   -7.9542   56.9995   34.8415 C   0  0  0  0  0  0
   -8.2322   57.8846   35.5329 N   0  0  0  0  0  0
   -2.4077   54.7481   28.5633 H   0  0  0  0  0  0
   -2.7260   55.1830   30.2253 H   0  0  0  0  0  0
   -3.7427   55.8386   28.9272 H   0  0  0  0  0  0
   -4.5887   55.7391   31.2009 H   0  0  0  0  0  0
   -7.6574   51.8666   31.3816 H   0  0  0  0  0  0
   -6.1771   49.8317   28.7502 H   0  0  0  0  0  0
   -6.4307   50.0115   30.4830 H   0  0  0  0  0  0
   -7.5551   50.7650   29.3295 H   0  0  0  0  0  0
   -9.3405   54.7300   34.4803 H   0  0  0  0  0  0
   -5.9577   57.7901   33.6566 H   0  0  0  0  0  0
   -3.5915   54.9092   33.3100 H   0  0  0  0  0  0
   -1.2254   55.2172   33.8866 H   0  0  0  0  0  0
   -2.0375   59.3240   34.8761 H   0  0  0  0  0  0
   -4.3223   59.0434   34.1897 H   0  0  0  0  0  0
    0.1034   57.5475   35.8577 H   0  0  0  0  0  0
    0.6404   56.6913   34.4399 H   0  0  0  0  0  0
   -0.1299   60.0433   35.8688 H   0  0  0  0  0  0
    0.8297   62.1505   35.0372 H   0  0  0  0  0  0
    2.1962   62.1512   32.9731 H   0  0  0  0  0  0
    2.6128   60.0422   31.7634 H   0  0  0  0  0  0
    1.6609   57.9477   32.5635 H   0  0  0  0  0  0
  1  2  1  0  0  0
  1 31  1  0  0  0
  1 32  1  0  0  0
  1 33  1  0  0  0
  2  3  1  0  0  0
  3  8  1  0  0  0
  3  4  2  0  0  0
  4  5  1  0  0  0
  4 34  1  0  0  0
  5 14  2  0  0  0
  5  6  1  0  0  0
  6  7  1  0  0  0
  6 11  2  0  0  0
  7  8  2  0  0  0
  7 35  1  0  0  0
  8  9  1  0  0  0
  9 10  1  0  0  0
 10 36  1  0  0  0
 10 37  1  0  0  0
 10 38  1  0  0  0
 11 12  1  0  0  0
 12 13  2  0  0  0
 12 39  1  0  0  0
 13 14  1  0  0  0
 13 29  1  0  0  0
 14 15  1  0  0  0
 15 16  1  0  0  0
 15 40  1  0  0  0
 16 21  1  0  0  0
 16 17  2  0  0  0
 17 18  1  0  0  0
 17 41  1  0  0  0
 18 19  2  0  0  0
 18 42  1  0  0  0
 19 20  1  0  0  0
 19 22  1  0  0  0
 20 21  2  0  0  0
 20 43  1  0  0  0
 21 44  1  0  0  0
 22 23  1  0  0  0
 22 45  1  0  0  0
 22 46  1  0  0  0
 23 28  1  0  0  0
 23 24  2  0  0  0
 24 25  1  0  0  0
 24 47  1  0  0  0
 25 26  2  0  0  0
 25 48  1  0  0  0
 26 27  1  0  0  0
 26 49  1  0  0  0
 27 28  2  0  0  0
 27 50  1  0  0  0
 28 51  1  0  0  0
 29 30  3  0  0  0
M  END
> <s_m_entry_id>
66078

> <s_m_entry_name>
ligand_docking-pose.134

> <s_m_Source_Path>
/home/csk/Desktop/cluster/DUD-E-result/mp2k1

> <s_m_Source_File>
ligand_docking-pose.sdf

> <i_m_Source_File_Index>
134

> <i_lp_mmshare_version>
53161

> <r_lp_tautomer_probability>
1

> <s_lp_Force_Field>
OPLS_2005

> <r_lp_Energy>
36.037499

> <b_lp_Chiralities_Consistent>
1

> <s_lp_Variant>
43275-1

> <s_i_glide_gridfile>
glide-grid_3eqh

> <i_i_glide_lignum>
389

> <i_i_glide_rotatable_bonds>
6

> <r_i_docking_score>
-7.31848131860677

> <r_i_glide_ligand_efficiency>
-0.243949377286892

> <r_i_glide_ligand_efficiency_sa>
-0.758007434053656

> <r_i_glide_ligand_efficiency_ln>
-1.6628386968282

> <r_i_glide_gscore>
-7.31848131860677

> <r_i_glide_lipo>
-4.10844670066344

> <r_i_glide_hbond>
0

> <r_i_glide_metal>
0

> <r_i_glide_rewards>
-1.05251613868172

> <r_i_glide_evdw>
-46.0779838562012

> <r_i_glide_ecoul>
-2.35867834091187

> <r_i_glide_erotb>
0.500182464685239

> <r_i_glide_esite>
0

> <r_i_glide_emodel>
-67.498435506055

> <r_i_glide_energy>
-48.436662197113

> <r_i_glide_einternal>
3.25309491157532

> <i_i_glide_confnum>
16

> <i_i_glide_posenum>
187

> <r_i_glide_eff_state_penalty>
0

> <i_f3d_flags>
0

> <s_user_duplicate_titles>
43275

> <s_m_subgroup_title>
dock_pv

> <s_m_subgroupid>
dock_pv1

> <b_m_subgroup_collapsed>
0

$$$$
363030
                    3D
 Schrodinger Suite 2021-1.
 47 49  0  0  1  0            999 V2000
   -4.9615   51.7546   29.1824 C   0  0  0  0  0  0
   -6.3606   51.7421   29.8354 C   0  0  2  0  0  0
   -7.4967   51.4233   28.8370 C   0  0  0  0  0  0
   -7.5289   52.3470   27.7630 O   0  0  0  0  0  0
   -6.6158   53.0477   30.4319 N   0  0  0  0  0  0
   -6.5123   53.2068   31.6903 C   0  0  0  0  0  0
   -6.7684   54.5448   32.2117 C   0  0  0  0  0  0
   -8.0001   55.2131   32.1287 C   0  0  0  0  0  0
   -8.1177   56.3885   32.6992 N   0  0  0  0  0  0
   -6.6036   56.8084   33.3639 S   0  0  0  0  0  0
   -5.8149   55.3437   32.8386 C   0  0  0  0  0  0
   -4.4832   55.0230   33.0396 N   0  0  0  0  0  0
   -3.3536   55.7807   33.3891 C   0  0  0  0  0  0
   -2.1925   55.0752   33.7115 C   0  0  0  0  0  0
   -1.0257   55.7559   34.0489 C   0  0  0  0  0  0
   -1.0066   57.1488   34.0940 C   0  0  0  0  0  0
   -2.1695   57.8542   33.7635 C   0  0  0  0  0  0
   -3.3232   57.1771   33.3912 C   0  0  0  0  0  0
    0.1619   57.7597   34.5057 O   0  0  0  0  0  0
    0.4671   59.0360   34.0896 C   0  0  0  0  0  0
    1.3535   59.2084   33.0257 C   0  0  0  0  0  0
    1.6771   60.4897   32.5827 C   0  0  0  0  0  0
    1.1178   61.6077   33.1978 C   0  0  0  0  0  0
    0.2462   61.4443   34.2725 C   0  0  0  0  0  0
   -0.0718   60.1634   34.7253 C   0  0  0  0  0  0
   -0.9257   60.0188   35.7630 F   0  0  0  0  0  0
    1.4127   62.8472   32.7464 F   0  0  0  0  0  0
   -9.1249   54.7215   31.5234 O   0  0  0  0  0  0
   -6.1893   52.3478   32.7167 N   0  0  0  0  0  0
   -4.7416   50.8010   28.7023 H   0  0  0  0  0  0
   -4.8766   52.5357   28.4254 H   0  0  0  0  0  0
   -4.1818   51.9344   29.9242 H   0  0  0  0  0  0
   -6.3636   50.9349   30.5735 H   0  0  0  0  0  0
   -8.4630   51.4365   29.3442 H   0  0  0  0  0  0
   -7.3712   50.4191   28.4305 H   0  0  0  0  0  0
   -7.5567   53.2342   28.1390 H   0  0  0  0  0  0
   -4.2347   54.0560   32.8952 H   0  0  0  0  0  0
   -2.1863   53.9949   33.7074 H   0  0  0  0  0  0
   -0.1361   55.2001   34.3041 H   0  0  0  0  0  0
   -2.1987   58.9311   33.7884 H   0  0  0  0  0  0
   -4.1703   57.7684   33.0970 H   0  0  0  0  0  0
    1.7822   58.3468   32.5370 H   0  0  0  0  0  0
    2.3649   60.6154   31.7629 H   0  0  0  0  0  0
   -0.1909   62.3095   34.7484 H   0  0  0  0  0  0
   -8.8721   53.9764   30.9747 H   0  0  0  0  0  0
   -6.0160   51.3710   32.5365 H   0  0  0  0  0  0
   -6.2417   52.6679   33.6724 H   0  0  0  0  0  0
  1  2  1  0  0  0
  1 30  1  0  0  0
  1 31  1  0  0  0
  1 32  1  0  0  0
  2  3  1  0  0  0
  2  5  1  0  0  0
  2 33  1  0  0  0
  3  4  1  0  0  0
  3 34  1  0  0  0
  3 35  1  0  0  0
  4 36  1  0  0  0
  5  6  2  0  0  0
  6  7  1  0  0  0
  6 29  1  0  0  0
  7 11  2  0  0  0
  7  8  1  0  0  0
  8  9  2  0  0  0
  8 28  1  0  0  0
  9 10  1  0  0  0
 10 11  1  0  0  0
 11 12  1  0  0  0
 12 13  1  0  0  0
 12 37  1  0  0  0
 13 18  1  0  0  0
 13 14  2  0  0  0
 14 15  1  0  0  0
 14 38  1  0  0  0
 15 16  2  0  0  0
 15 39  1  0  0  0
 16 17  1  0  0  0
 16 19  1  0  0  0
 17 18  2  0  0  0
 17 40  1  0  0  0
 18 41  1  0  0  0
 19 20  1  0  0  0
 20 25  1  0  0  0
 20 21  2  0  0  0
 21 22  1  0  0  0
 21 42  1  0  0  0
 22 23  2  0  0  0
 22 43  1  0  0  0
 23 24  1  0  0  0
 23 27  1  0  0  0
 24 25  2  0  0  0
 24 44  1  0  0  0
 25 26  1  0  0  0
 28 45  1  0  0  0
 29 46  1  0  0  0
 29 47  1  0  0  0
M  END
> <s_m_entry_id>
66079

> <s_m_entry_name>
ligand_docking-pose.135

> <s_m_Source_Path>
/home/csk/Desktop/cluster/DUD-E-result/mp2k1

> <s_m_Source_File>
ligand_docking-pose.sdf

> <i_m_Source_File_Index>
135

> <i_lp_mmshare_version>
53161

> <r_lp_tautomer_probability>
1

> <s_lp_Force_Field>
OPLS_2005

> <r_lp_Energy>
23.745051

> <b_lp_Chiralities_Consistent>
1

> <s_lp_Variant>
363030-1

> <s_i_glide_gridfile>
glide-grid_3eqh

> <i_i_glide_lignum>
271

> <i_i_glide_rotatable_bonds>
9

> <r_i_docking_score>
-7.31395106114874

> <r_i_glide_ligand_efficiency>
-0.252205209005129

> <r_i_glide_ligand_efficiency_sa>
-0.774854306282352

> <r_i_glide_ligand_efficiency_ln>
-1.67470932720658

> <r_i_glide_gscore>
-7.31395106114874

> <r_i_glide_lipo>
-3.70544772597973

> <r_i_glide_hbond>
-0.136403384666518

> <r_i_glide_metal>
0

> <r_i_glide_rewards>
-1.55904264522698

> <r_i_glide_evdw>
-47.3828773498535

> <r_i_glide_ecoul>
-2.18470001220703

> <r_i_glide_erotb>
0.783791564048223

> <r_i_glide_esite>
0

> <r_i_glide_emodel>
-70.1034448696934

> <r_i_glide_energy>
-49.5675773620605

> <r_i_glide_einternal>
8.74758815765381

> <i_i_glide_confnum>
183

> <i_i_glide_posenum>
209

> <r_i_glide_eff_state_penalty>
0

> <i_f3d_flags>
0

> <s_user_duplicate_titles>
363030

> <s_m_subgroup_title>
dock_pv

> <s_m_subgroupid>
dock_pv1

> <b_m_subgroup_collapsed>
0

$$$$
363036
                    3D
 Schrodinger Suite 2021-1.
 59 62  0  0  1  0            999 V2000
   -1.8439   54.5765   33.9076 C   0  0  0  0  0  0
   -0.6859   55.3242   34.1054 C   0  0  0  0  0  0
   -0.6549   56.6743   33.7632 C   0  0  0  0  0  0
   -1.7924   57.2552   33.1895 C   0  0  0  0  0  0
   -2.9226   56.4919   32.9192 C   0  0  0  0  0  0
   -2.9487   55.1454   33.2786 C   0  0  0  0  0  0
   -4.0894   54.3660   33.0456 N   0  0  0  0  0  0
   -4.7257   54.1982   31.8318 C   0  0  0  0  0  0
   -6.0612   53.8960   31.5840 C   0  0  0  0  0  0
   -6.2936   53.8011   30.2035 C   0  0  0  0  0  0
   -5.2775   53.9395   29.3835 N   0  0  0  0  0  0
   -3.9032   54.3511   30.3030 S   0  0  0  0  0  0
   -7.5071   53.5545   29.6217 O   0  0  0  0  0  0
   -7.0886   53.8183   32.6118 C   0  0  0  0  0  0
   -7.8779   54.8103   32.6599 N   0  0  0  0  0  0
   -8.8747   54.9127   33.7101 C   0  0  0  0  0  0
   -8.3263   55.6564   34.9635 C   0  0  0  0  0  0
   -7.1967   56.6993   34.7534 C   0  0  0  0  0  0
   -7.6029   57.7480   33.8217 N   0  0  0  0  0  0
   -8.3129   58.8540   34.4641 C   0  0  0  0  0  0
   -8.7171   59.9254   33.4318 C   0  0  0  0  0  0
   -7.6022   60.3476   32.6266 O   0  0  0  0  0  0
   -7.0789   59.2225   31.9288 C   0  0  0  0  0  0
   -6.5261   58.1888   32.9288 C   0  0  0  0  0  0
   -6.9697   52.6725   33.3627 N   0  0  0  0  0  0
    0.5183   57.3715   33.9913 O   0  0  0  0  0  0
    0.5289   58.7498   34.0781 C   0  0  0  0  0  0
   -0.3108   59.4132   34.9815 C   0  0  0  0  0  0
   -0.3259   60.8056   35.0401 C   0  0  0  0  0  0
    0.5004   61.5481   34.1996 C   0  0  0  0  0  0
    1.3566   60.8987   33.3138 C   0  0  0  0  0  0
    1.3782   59.5056   33.2563 C   0  0  0  0  0  0
    2.4740   58.7480   32.1630 Cl  0  0  0  0  0  0
   -1.3579   61.6083   36.1630 Cl  0  0  0  0  0  0
   -1.8679   53.5480   34.2246 H   0  0  0  0  0  0
    0.1763   54.8638   34.5630 H   0  0  0  0  0  0
   -1.8008   58.3052   32.9589 H   0  0  0  0  0  0
   -3.7801   56.9521   32.4504 H   0  0  0  0  0  0
   -4.4438   53.9015   33.8694 H   0  0  0  0  0  0
   -8.1951   53.8103   30.2402 H   0  0  0  0  0  0
   -9.2952   53.9437   33.9942 H   0  0  0  0  0  0
   -9.7167   55.4743   33.3038 H   0  0  0  0  0  0
   -7.9261   54.8957   35.6320 H   0  0  0  0  0  0
   -9.1454   56.0955   35.5345 H   0  0  0  0  0  0
   -6.3179   56.1795   34.3678 H   0  0  0  0  0  0
   -6.8898   57.1365   35.7054 H   0  0  0  0  0  0
   -7.6906   59.2966   35.2424 H   0  0  0  0  0  0
   -9.1993   58.4716   34.9710 H   0  0  0  0  0  0
   -9.5307   59.5619   32.8020 H   0  0  0  0  0  0
   -9.1261   60.7480   33.9934 H   0  0  0  0  0  0
   -7.8803   58.7538   31.3630 H   0  0  0  0  0  0
   -6.3260   59.5404   31.2127 H   0  0  0  0  0  0
   -6.1385   57.3283   32.3807 H   0  0  0  0  0  0
   -5.6915   58.5923   33.5029 H   0  0  0  0  0  0
   -7.6152   52.4929   34.1158 H   0  0  0  0  0  0
   -6.2893   51.9697   33.1169 H   0  0  0  0  0  0
   -0.9575   58.8431   35.6319 H   0  0  0  0  0  0
    0.4875   62.6273   34.2415 H   0  0  0  0  0  0
    2.0094   61.4756   32.6741 H   0  0  0  0  0  0
  1  6  1  0  0  0
  1  2  2  0  0  0
  1 35  1  0  0  0
  2  3  1  0  0  0
  2 36  1  0  0  0
  3  4  2  0  0  0
  3 26  1  0  0  0
  4  5  1  0  0  0
  4 37  1  0  0  0
  5  6  2  0  0  0
  5 38  1  0  0  0
  6  7  1  0  0  0
  7  8  1  0  0  0
  7 39  1  0  0  0
  8 12  1  0  0  0
  8  9  2  0  0  0
  9 10  1  0  0  0
  9 14  1  0  0  0
 10 11  2  0  0  0
 10 13  1  0  0  0
 11 12  1  0  0  0
 13 40  1  0  0  0
 14 15  2  0  0  0
 14 25  1  0  0  0
 15 16  1  0  0  0
 16 17  1  0  0  0
 16 41  1  0  0  0
 16 42  1  0  0  0
 17 18  1  0  0  0
 17 43  1  0  0  0
 17 44  1  0  0  0
 18 19  1  0  0  0
 18 45  1  0  0  0
 18 46  1  0  0  0
 19 24  1  0  0  0
 19 20  1  0  0  0
 20 21  1  0  0  0
 20 47  1  0  0  0
 20 48  1  0  0  0
 21 22  1  0  0  0
 21 49  1  0  0  0
 21 50  1  0  0  0
 22 23  1  0  0  0
 23 24  1  0  0  0
 23 51  1  0  0  0
 23 52  1  0  0  0
 24 53  1  0  0  0
 24 54  1  0  0  0
 25 55  1  0  0  0
 25 56  1  0  0  0
 26 27  1  0  0  0
 27 32  1  0  0  0
 27 28  2  0  0  0
 28 29  1  0  0  0
 28 57  1  0  0  0
 29 30  2  0  0  0
 29 34  1  0  0  0
 30 31  1  0  0  0
 30 58  1  0  0  0
 31 32  2  0  0  0
 31 59  1  0  0  0
 32 33  1  0  0  0
M  END
> <s_m_entry_id>
66080

> <s_m_entry_name>
ligand_docking-pose.136

> <s_m_Source_Path>
/home/csk/Desktop/cluster/DUD-E-result/mp2k1

> <s_m_Source_File>
ligand_docking-pose.sdf

> <i_m_Source_File_Index>
136

> <i_lp_mmshare_version>
53161

> <r_lp_tautomer_probability>
1

> <s_lp_Force_Field>
OPLS_2005

> <r_lp_Energy>
44.123644

> <b_lp_Chiralities_Consistent>
1

> <s_lp_Variant>
363036-1

> <s_i_glide_gridfile>
glide-grid_3eqh

> <i_i_glide_lignum>
51

> <i_i_glide_rotatable_bonds>
10

> <r_i_docking_score>
-7.28499516943933

> <r_i_glide_ligand_efficiency>
-0.214264563807039

> <r_i_glide_ligand_efficiency_sa>
-0.694134008688934

> <r_i_glide_ligand_efficiency_ln>
-1.60945977012229

> <r_i_glide_gscore>
-7.28499516943933

> <r_i_glide_lipo>
-4.09849581419786

> <r_i_glide_hbond>
0

> <r_i_glide_metal>
0

> <r_i_glide_rewards>
-0.229253462735128

> <r_i_glide_evdw>
-59.9673805236816

> <r_i_glide_ecoul>
-3.74393081665039

> <r_i_glide_erotb>
0.602712756175294

> <r_i_glide_esite>
0

> <r_i_glide_emodel>
-83.8489756477877

> <r_i_glide_energy>
-63.711311340332

> <r_i_glide_einternal>
18.4070682525635

> <i_i_glide_confnum>
59

> <i_i_glide_posenum>
153

> <r_i_glide_eff_state_penalty>
0

> <i_f3d_flags>
0

> <s_user_duplicate_titles>
363036

> <s_m_subgroup_title>
dock_pv

> <s_m_subgroupid>
dock_pv1

> <b_m_subgroup_collapsed>
0

$$$$
363049
                    3D
 Schrodinger Suite 2021-1.
 50 52  0  0  1  0            999 V2000
   -8.2076   58.6427   36.0298 C   0  0  0  0  0  0
   -7.9743   59.3745   34.6990 C   0  0  0  0  0  0
   -8.4901   58.6922   33.4102 C   0  0  1  0  0  0
   -8.3521   59.6237   32.1756 C   0  0  0  0  0  0
   -7.1269   60.3480   32.1099 O   0  0  0  0  0  0
   -7.7537   57.4611   33.1436 N   0  0  0  0  0  0
   -8.1741   56.3371   33.5817 C   0  0  0  0  0  0
   -7.3913   55.1152   33.2636 C   0  0  0  0  0  0
   -7.8478   53.7758   33.3620 C   0  0  0  0  0  0
   -7.0166   52.7899   33.1177 N   0  0  0  0  0  0
   -5.5258   53.4485   32.6338 S   0  0  0  0  0  0
   -6.0706   55.0867   32.7859 C   0  0  0  0  0  0
   -5.2218   56.0941   32.3936 N   0  0  0  0  0  0
   -4.1571   56.5692   33.1663 C   0  0  0  0  0  0
   -2.9077   56.6598   32.5630 C   0  0  0  0  0  0
   -1.8234   57.1481   33.2788 C   0  0  0  0  0  0
   -1.9818   57.5792   34.6013 C   0  0  0  0  0  0
   -3.2335   57.4730   35.2096 C   0  0  0  0  0  0
   -4.3220   56.9716   34.4940 C   0  0  0  0  0  0
   -0.9304   58.0789   35.3438 O   0  0  0  0  0  0
   -0.1243   59.0425   34.7801 C   0  0  0  0  0  0
    0.9080   58.6660   33.9201 C   0  0  0  0  0  0
    1.6693   59.6332   33.2735 C   0  0  0  0  0  0
    1.4478   60.9865   33.5114 C   0  0  0  0  0  0
    0.4551   61.3691   34.4088 C   0  0  0  0  0  0
   -0.3259   60.4034   35.0439 C   0  0  0  0  0  0
   -1.5261   60.9179   36.1631 Cl  0  0  0  0  0  0
    2.8740   59.1426   32.1630 Cl  0  0  0  0  0  0
   -9.1138   53.3684   33.6884 O   0  0  0  0  0  0
   -9.2687   56.0690   34.3796 N   0  0  0  0  0  0
   -7.9151   59.2688   36.8731 H   0  0  0  0  0  0
   -7.6278   57.7215   36.0913 H   0  0  0  0  0  0
   -9.2606   58.3951   36.1613 H   0  0  0  0  0  0
   -8.4511   60.3480   34.7801 H   0  0  0  0  0  0
   -6.9117   59.5479   34.5630 H   0  0  0  0  0  0
   -9.5612   58.5034   33.5266 H   0  0  0  0  0  0
   -8.4942   59.0671   31.2503 H   0  0  0  0  0  0
   -9.1515   60.3483   32.2046 H   0  0  0  0  0  0
   -6.4365   59.6762   32.0256 H   0  0  0  0  0  0
   -5.0503   56.2043   31.4046 H   0  0  0  0  0  0
   -2.7685   56.3487   31.5369 H   0  0  0  0  0  0
   -0.8700   57.1948   32.7797 H   0  0  0  0  0  0
   -3.3554   57.7811   36.2373 H   0  0  0  0  0  0
   -5.2923   56.8984   34.9630 H   0  0  0  0  0  0
    1.0958   57.6205   33.7263 H   0  0  0  0  0  0
    2.0458   61.7336   33.0098 H   0  0  0  0  0  0
    0.2850   62.4155   34.6079 H   0  0  0  0  0  0
   -9.7045   54.1222   33.6224 H   0  0  0  0  0  0
   -9.8452   56.8433   34.6700 H   0  0  0  0  0  0
   -9.2343   55.2663   34.9912 H   0  0  0  0  0  0
  1  2  1  0  0  0
  1 31  1  0  0  0
  1 32  1  0  0  0
  1 33  1  0  0  0
  2  3  1  0  0  0
  2 34  1  0  0  0
  2 35  1  0  0  0
  3  4  1  0  0  0
  3  6  1  0  0  0
  3 36  1  0  0  0
  4  5  1  0  0  0
  4 37  1  0  0  0
  4 38  1  0  0  0
  5 39  1  0  0  0
  6  7  2  0  0  0
  7  8  1  0  0  0
  7 30  1  0  0  0
  8 12  2  0  0  0
  8  9  1  0  0  0
  9 10  2  0  0  0
  9 29  1  0  0  0
 10 11  1  0  0  0
 11 12  1  0  0  0
 12 13  1  0  0  0
 13 14  1  0  0  0
 13 40  1  0  0  0
 14 19  1  0  0  0
 14 15  2  0  0  0
 15 16  1  0  0  0
 15 41  1  0  0  0
 16 17  2  0  0  0
 16 42  1  0  0  0
 17 18  1  0  0  0
 17 20  1  0  0  0
 18 19  2  0  0  0
 18 43  1  0  0  0
 19 44  1  0  0  0
 20 21  1  0  0  0
 21 26  1  0  0  0
 21 22  2  0  0  0
 22 23  1  0  0  0
 22 45  1  0  0  0
 23 24  2  0  0  0
 23 28  1  0  0  0
 24 25  1  0  0  0
 24 46  1  0  0  0
 25 26  2  0  0  0
 25 47  1  0  0  0
 26 27  1  0  0  0
 29 48  1  0  0  0
 30 49  1  0  0  0
 30 50  1  0  0  0
M  END
> <s_m_entry_id>
66081

> <s_m_entry_name>
ligand_docking-pose.137

> <s_m_Source_Path>
/home/csk/Desktop/cluster/DUD-E-result/mp2k1

> <s_m_Source_File>
ligand_docking-pose.sdf

> <i_m_Source_File_Index>
137

> <i_lp_mmshare_version>
53161

> <r_lp_tautomer_probability>
1

> <s_lp_Force_Field>
OPLS_2005

> <r_lp_Energy>
25.643736

> <b_lp_Chiralities_Consistent>
1

> <s_lp_Variant>
363049-2

> <s_i_glide_gridfile>
glide-grid_3eqh

> <i_i_glide_lignum>
207

> <i_i_glide_rotatable_bonds>
10

> <r_i_docking_score>
-7.26586064265002

> <r_i_glide_ligand_efficiency>
-0.242195354755001

> <r_i_glide_ligand_efficiency_sa>
-0.752557278232566

> <r_i_glide_ligand_efficiency_ln>
-1.65088270590264

> <r_i_glide_gscore>
-7.26586064265002

> <r_i_glide_lipo>
-3.69596463887666

> <r_i_glide_hbond>
0

> <r_i_glide_metal>
0

> <r_i_glide_rewards>
-0.498474766457345

> <r_i_glide_evdw>
-52.0621376037598

> <r_i_glide_ecoul>
-7.43378067016602

> <r_i_glide_erotb>
0.646752743396869

> <r_i_glide_esite>
0

> <r_i_glide_emodel>
-80.9598754592388

> <r_i_glide_energy>
-59.4959182739258

> <r_i_glide_einternal>
15.6907911300659

> <i_i_glide_confnum>
18

> <i_i_glide_posenum>
323

> <r_i_glide_eff_state_penalty>
0

> <i_f3d_flags>
0

> <s_user_duplicate_titles>
363049

> <s_m_subgroup_title>
dock_pv

> <s_m_subgroupid>
dock_pv1

> <b_m_subgroup_collapsed>
0

$$$$
363046
                    3D
 Schrodinger Suite 2021-1.
 47 49  0  0  1  0            999 V2000
   -8.6819   59.8681   34.2154 C   0  0  0  0  0  0
   -8.0451   58.9652   33.1539 C   0  0  2  0  0  0
   -7.3651   57.7357   33.8064 C   0  0  0  0  0  0
   -6.8125   56.8165   32.8187 N   0  0  0  0  0  0
   -7.4320   55.7348   32.5397 C   0  0  0  0  0  0
   -6.7932   54.8088   31.6008 C   0  0  0  0  0  0
   -7.3369   54.3759   30.3767 C   0  0  0  0  0  0
   -6.6513   53.5337   29.6379 N   0  0  0  0  0  0
   -5.1892   53.1802   30.4401 S   0  0  0  0  0  0
   -5.5751   54.1673   31.8117 C   0  0  0  0  0  0
   -4.7657   54.1276   32.9184 N   0  0  0  0  0  0
   -3.6262   54.9090   33.1414 C   0  0  0  0  0  0
   -3.4715   56.2005   32.6285 C   0  0  0  0  0  0
   -2.3270   56.9346   32.9380 C   0  0  0  0  0  0
   -1.3119   56.3652   33.7161 C   0  0  0  0  0  0
   -1.4489   55.0542   34.1629 C   0  0  0  0  0  0
   -2.6180   54.3479   33.9189 C   0  0  0  0  0  0
   -0.1490   57.0262   34.0512 O   0  0  0  0  0  0
   -0.1090   58.3975   34.1915 C   0  0  0  0  0  0
    0.8133   59.0951   33.4067 C   0  0  0  0  0  0
    0.9595   60.4753   33.5405 C   0  0  0  0  0  0
    0.1898   61.1695   34.4716 C   0  0  0  0  0  0
   -0.7232   60.4837   35.2707 C   0  0  0  0  0  0
   -0.8785   59.1030   35.1375 C   0  0  0  0  0  0
   -2.0277   58.3189   36.1630 Cl  0  0  0  0  0  0
    2.0983   61.3243   32.5629 Cl  0  0  0  0  0  0
   -8.5471   54.7481   29.8613 O   0  0  0  0  0  0
   -8.6402   55.2298   32.9670 N   0  0  0  0  0  0
   -7.1260   59.7401   32.3993 O   0  0  0  0  0  0
   -9.4754   59.3488   34.7534 H   0  0  0  0  0  0
   -9.1260   60.7477   33.7606 H   0  0  0  0  0  0
   -7.9535   60.2078   34.9513 H   0  0  0  0  0  0
   -8.8315   58.6242   32.4775 H   0  0  0  0  0  0
   -6.5541   58.0560   34.4621 H   0  0  0  0  0  0
   -8.0820   57.2474   34.4727 H   0  0  0  0  0  0
   -4.8021   53.3155   33.5155 H   0  0  0  0  0  0
   -4.2396   56.6477   32.0145 H   0  0  0  0  0  0
   -2.2275   57.9408   32.5632 H   0  0  0  0  0  0
   -0.6564   54.5867   34.7255 H   0  0  0  0  0  0
   -2.7216   53.3477   34.3142 H   0  0  0  0  0  0
    1.4157   58.5571   32.6883 H   0  0  0  0  0  0
    0.2973   62.2398   34.5763 H   0  0  0  0  0  0
   -1.3210   61.0313   35.9844 H   0  0  0  0  0  0
   -8.5579   55.7104   29.7907 H   0  0  0  0  0  0
   -9.1956   55.7309   33.6425 H   0  0  0  0  0  0
   -8.9635   54.3383   32.6232 H   0  0  0  0  0  0
   -6.6525   59.1122   31.8403 H   0  0  0  0  0  0
  1  2  1  0  0  0
  1 30  1  0  0  0
  1 31  1  0  0  0
  1 32  1  0  0  0
  2  3  1  0  0  0
  2 29  1  0  0  0
  2 33  1  0  0  0
  3  4  1  0  0  0
  3 34  1  0  0  0
  3 35  1  0  0  0
  4  5  2  0  0  0
  5  6  1  0  0  0
  5 28  1  0  0  0
  6 10  2  0  0  0
  6  7  1  0  0  0
  7  8  2  0  0  0
  7 27  1  0  0  0
  8  9  1  0  0  0
  9 10  1  0  0  0
 10 11  1  0  0  0
 11 12  1  0  0  0
 11 36  1  0  0  0
 12 17  1  0  0  0
 12 13  2  0  0  0
 13 14  1  0  0  0
 13 37  1  0  0  0
 14 15  2  0  0  0
 14 38  1  0  0  0
 15 16  1  0  0  0
 15 18  1  0  0  0
 16 17  2  0  0  0
 16 39  1  0  0  0
 17 40  1  0  0  0
 18 19  1  0  0  0
 19 24  1  0  0  0
 19 20  2  0  0  0
 20 21  1  0  0  0
 20 41  1  0  0  0
 21 22  2  0  0  0
 21 26  1  0  0  0
 22 23  1  0  0  0
 22 42  1  0  0  0
 23 24  2  0  0  0
 23 43  1  0  0  0
 24 25  1  0  0  0
 27 44  1  0  0  0
 28 45  1  0  0  0
 28 46  1  0  0  0
 29 47  1  0  0  0
M  END
> <s_m_entry_id>
66082

> <s_m_entry_name>
ligand_docking-pose.138

> <s_m_Source_Path>
/home/csk/Desktop/cluster/DUD-E-result/mp2k1

> <s_m_Source_File>
ligand_docking-pose.sdf

> <i_m_Source_File_Index>
138

> <i_lp_mmshare_version>
53161

> <r_lp_tautomer_probability>
1

> <s_lp_Force_Field>
OPLS_2005

> <r_lp_Energy>
22.089614

> <b_lp_Chiralities_Consistent>
1

> <s_lp_Variant>
363046-1

> <s_i_glide_gridfile>
glide-grid_3eqh

> <i_i_glide_lignum>
215

> <i_i_glide_rotatable_bonds>
9

> <r_i_docking_score>
-7.24560073843868

> <r_i_glide_ligand_efficiency>
-0.249848301325472

> <r_i_glide_ligand_efficiency_sa>
-0.767613139169681

> <r_i_glide_ligand_efficiency_ln>
-1.65905883652061

> <r_i_glide_gscore>
-7.24560073843868

> <r_i_glide_lipo>
-3.78169675593396

> <r_i_glide_hbond>
-0.109049711921522

> <r_i_glide_metal>
0

> <r_i_glide_rewards>
-0.631623202151713

> <r_i_glide_evdw>
-51.5857543945312

> <r_i_glide_ecoul>
-5.47942066192627

> <r_i_glide_erotb>
0.683665165572547

> <r_i_glide_esite>
-0.00569541498852799

> <r_i_glide_emodel>
-74.0220580317613

> <r_i_glide_energy>
-57.0651750564575

> <r_i_glide_einternal>
20.698579788208

> <i_i_glide_confnum>
107

> <i_i_glide_posenum>
394

> <r_i_glide_eff_state_penalty>
0

> <i_f3d_flags>
0

> <s_user_duplicate_titles>
363046

> <s_m_subgroup_title>
dock_pv

> <s_m_subgroupid>
dock_pv1

> <b_m_subgroup_collapsed>
0

$$$$
169054
                    3D
 Schrodinger Suite 2021-1.
 39 41  0  0  1  0            999 V2000
    1.4654   60.2907   32.6120 C   0  0  0  0  0  0
    0.5347   59.3656   33.0799 C   0  0  0  0  0  0
   -0.2662   59.6390   34.1964 C   0  0  0  0  0  0
   -0.1322   60.8846   34.8255 C   0  0  0  0  0  0
    0.8115   61.8039   34.3614 C   0  0  0  0  0  0
    1.6063   61.5145   33.2570 C   0  0  0  0  0  0
    2.9882   62.9233   32.5645 I   0  0  0  0  0  0
   -1.1263   61.3338   36.1708 Cl  0  0  0  0  0  0
   -1.2014   58.7040   34.6860 N   0  0  0  0  0  0
   -1.4371   57.3467   34.3766 C   0  0  0  0  0  0
   -2.7491   56.8063   34.3926 C   0  0  0  0  0  0
   -2.9434   55.4417   34.1404 C   0  0  0  0  0  0
   -1.8667   54.6070   33.8851 C   0  0  0  0  0  0
   -0.5806   55.1325   33.8730 C   0  0  0  0  0  0
   -0.3590   56.4727   34.1630 C   0  0  0  0  0  0
    0.9254   56.8830   34.2938 F   0  0  0  0  0  0
    0.4736   54.3343   33.6324 F   0  0  0  0  0  0
   -3.9540   57.6301   34.7555 C   0  0  0  0  0  0
   -3.9258   58.3445   35.7595 O   0  0  0  0  0  0
   -5.0158   57.5021   33.9334 N   0  0  0  0  0  0
   -6.1566   58.2766   34.1590 O   0  0  0  0  0  0
   -7.2672   57.4325   34.4674 C   0  0  0  0  0  0
   -8.5486   58.2030   34.8604 C   0  0  0  0  0  0
   -8.4933   59.3166   35.8759 C   0  0  0  0  0  0
   -8.7931   59.6269   34.4173 C   0  0  0  0  0  0
    2.0748   60.0557   31.7500 H   0  0  0  0  0  0
    0.4345   58.4259   32.5639 H   0  0  0  0  0  0
    0.9274   62.7481   34.8652 H   0  0  0  0  0  0
   -1.8628   59.1001   35.3420 H   0  0  0  0  0  0
   -3.9326   55.0024   34.1800 H   0  0  0  0  0  0
   -2.0354   53.5482   33.7509 H   0  0  0  0  0  0
   -4.9319   57.2131   32.9681 H   0  0  0  0  0  0
   -7.0191   56.7488   35.2831 H   0  0  0  0  0  0
   -7.4891   56.8020   33.6038 H   0  0  0  0  0  0
   -9.4122   57.5378   34.9157 H   0  0  0  0  0  0
   -7.5268   59.5674   36.3093 H   0  0  0  0  0  0
   -9.3010   59.4108   36.5991 H   0  0  0  0  0  0
   -9.8063   59.9263   34.1421 H   0  0  0  0  0  0
   -8.0422   60.1369   33.8147 H   0  0  0  0  0  0
  1  6  1  0  0  0
  1  2  2  0  0  0
  1 26  1  0  0  0
  2  3  1  0  0  0
  2 27  1  0  0  0
  3  4  2  0  0  0
  3  9  1  0  0  0
  4  5  1  0  0  0
  4  8  1  0  0  0
  5  6  2  0  0  0
  5 28  1  0  0  0
  6  7  1  0  0  0
  9 10  1  0  0  0
  9 29  1  0  0  0
 10 15  1  0  0  0
 10 11  2  0  0  0
 11 12  1  0  0  0
 11 18  1  0  0  0
 12 13  2  0  0  0
 12 30  1  0  0  0
 13 14  1  0  0  0
 13 31  1  0  0  0
 14 15  2  0  0  0
 14 17  1  0  0  0
 15 16  1  0  0  0
 18 19  2  0  0  0
 18 20  1  0  0  0
 20 21  1  0  0  0
 20 32  1  0  0  0
 21 22  1  0  0  0
 22 23  1  0  0  0
 22 33  1  0  0  0
 22 34  1  0  0  0
 23 25  1  0  0  0
 23 24  1  0  0  0
 23 35  1  0  0  0
 24 25  1  0  0  0
 24 36  1  0  0  0
 24 37  1  0  0  0
 25 38  1  0  0  0
 25 39  1  0  0  0
M  END
> <s_m_entry_id>
66083

> <s_m_entry_name>
ligand_docking-pose.139

> <s_m_Source_Path>
/home/csk/Desktop/cluster/DUD-E-result/mp2k1

> <s_m_Source_File>
ligand_docking-pose.sdf

> <i_m_Source_File_Index>
139

> <i_lp_mmshare_version>
53161

> <r_lp_tautomer_probability>
1

> <s_lp_Force_Field>
OPLS_2005

> <r_lp_Energy>
33.77819

> <b_lp_Chiralities_Consistent>
1

> <s_lp_Variant>
169054-1

> <s_i_glide_gridfile>
glide-grid_3eqh

> <i_i_glide_lignum>
40

> <i_i_glide_rotatable_bonds>
7

> <r_i_docking_score>
-7.23770888521058

> <r_i_glide_ligand_efficiency>
-0.289508355408423

> <r_i_glide_ligand_efficiency_sa>
-0.846527565666775

> <r_i_glide_ligand_efficiency_ln>
-1.71555390242771

> <r_i_glide_gscore>
-7.23770888521058

> <r_i_glide_lipo>
-3.79573835537462

> <r_i_glide_hbond>
-0.16

> <r_i_glide_metal>
0

> <r_i_glide_rewards>
-0.577654726806195

> <r_i_glide_evdw>
-42.1249809265137

> <r_i_glide_ecoul>
-7.36915445327759

> <r_i_glide_erotb>
0.530723113714539

> <r_i_glide_esite>
-0.0234167024269789

> <r_i_glide_emodel>
-69.1352521378436

> <r_i_glide_energy>
-49.4941353797913

> <r_i_glide_einternal>
5.34071826934814

> <i_i_glide_confnum>
90

> <i_i_glide_posenum>
94

> <r_i_glide_eff_state_penalty>
0

> <i_f3d_flags>
0

> <s_user_duplicate_titles>
169054

> <s_m_subgroup_title>
dock_pv

> <s_m_subgroupid>
dock_pv1

> <b_m_subgroup_collapsed>
0

$$$$
336154
                    3D
 Schrodinger Suite 2021-1.
 35 36  0  0  1  0            999 V2000
    0.5094   58.2862   34.3146 C   0  0  0  0  0  0
   -0.6161   57.3745   34.0730 N   0  0  0  0  0  0
   -1.9195   57.7863   34.2299 C   0  0  0  0  0  0
   -3.0142   57.0158   34.0348 C   0  0  0  0  0  0
   -2.7807   55.6276   33.6260 C   0  0  0  0  0  0
   -1.4934   55.2164   33.5008 C   0  0  0  0  0  0
   -0.3283   56.0607   33.7630 C   0  0  0  0  0  0
    0.8037   55.5638   33.7621 O   0  0  0  0  0  0
   -1.2180   53.9480   33.1437 F   0  0  0  0  0  0
   -3.8194   54.7375   33.4367 N   0  0  0  0  0  0
   -4.3501   54.3082   32.2113 C   0  0  0  0  0  0
   -3.8952   54.8194   30.9873 C   0  0  0  0  0  0
   -4.4317   54.3561   29.7873 C   0  0  0  0  0  0
   -5.4180   53.3701   29.7980 C   0  0  0  0  0  0
   -5.8827   52.8633   31.0106 C   0  0  0  0  0  0
   -5.3554   53.3311   32.2139 C   0  0  0  0  0  0
   -5.8199   52.8194   33.3793 F   0  0  0  0  0  0
   -6.1283   52.7067   28.1630 Br  0  0  0  0  0  0
   -4.3363   57.5480   34.2547 C   0  0  0  0  0  0
   -4.6808   57.9480   35.3630 O   0  0  0  0  0  0
   -5.1336   57.5219   33.1714 N   0  0  0  0  0  0
   -6.3589   58.1835   33.2278 O   0  0  0  0  0  0
   -7.4078   57.2443   33.0505 C   0  0  0  0  0  0
    0.3912   59.1871   33.7116 H   0  0  0  0  0  0
    0.5312   58.5841   35.3636 H   0  0  0  0  0  0
    1.4849   57.8631   34.0693 H   0  0  0  0  0  0
   -1.9724   58.8177   34.5588 H   0  0  0  0  0  0
   -4.4020   54.5028   34.2297 H   0  0  0  0  0  0
   -3.1260   55.5779   30.9565 H   0  0  0  0  0  0
   -4.0817   54.7699   28.8545 H   0  0  0  0  0  0
   -6.6502   52.1038   31.0218 H   0  0  0  0  0  0
   -4.7576   57.5211   32.2342 H   0  0  0  0  0  0
   -8.3667   57.7592   33.1059 H   0  0  0  0  0  0
   -7.3984   56.4773   33.8278 H   0  0  0  0  0  0
   -7.3508   56.7578   32.0741 H   0  0  0  0  0  0
  1  2  1  0  0  0
  1 24  1  0  0  0
  1 25  1  0  0  0
  1 26  1  0  0  0
  2  7  1  0  0  0
  2  3  1  0  0  0
  3  4  2  0  0  0
  3 27  1  0  0  0
  4  5  1  0  0  0
  4 19  1  0  0  0
  5  6  2  0  0  0
  5 10  1  0  0  0
  6  7  1  0  0  0
  6  9  1  0  0  0
  7  8  2  0  0  0
 10 11  1  0  0  0
 10 28  1  0  0  0
 11 16  1  0  0  0
 11 12  2  0  0  0
 12 13  1  0  0  0
 12 29  1  0  0  0
 13 14  2  0  0  0
 13 30  1  0  0  0
 14 15  1  0  0  0
 14 18  1  0  0  0
 15 16  2  0  0  0
 15 31  1  0  0  0
 16 17  1  0  0  0
 19 20  2  0  0  0
 19 21  1  0  0  0
 21 22  1  0  0  0
 21 32  1  0  0  0
 22 23  1  0  0  0
 23 33  1  0  0  0
 23 34  1  0  0  0
 23 35  1  0  0  0
M  END
> <s_m_entry_id>
66084

> <s_m_entry_name>
ligand_docking-pose.140

> <s_m_Source_Path>
/home/csk/Desktop/cluster/DUD-E-result/mp2k1

> <s_m_Source_File>
ligand_docking-pose.sdf

> <i_m_Source_File_Index>
140

> <i_lp_mmshare_version>
53161

> <r_lp_tautomer_probability>
0.999999999982488

> <s_lp_Force_Field>
OPLS_2005

> <r_lp_Energy>
40.926873

> <b_lp_Chiralities_Consistent>
1

> <s_lp_Variant>
336154-1

> <s_i_glide_gridfile>
glide-grid_3eqh

> <i_i_glide_lignum>
330

> <i_i_glide_rotatable_bonds>
5

> <r_i_docking_score>
-7.23670631567183

> <r_i_glide_ligand_efficiency>
-0.31463940502921

> <r_i_glide_ligand_efficiency_sa>
-0.894792613587507

> <r_i_glide_ligand_efficiency_ln>
-1.74990120595439

> <r_i_glide_gscore>
-7.23670631567183

> <r_i_glide_lipo>
-2.59751485747605

> <r_i_glide_hbond>
-0.606969856333875

> <r_i_glide_metal>
0

> <r_i_glide_rewards>
-1.21265092012009

> <r_i_glide_evdw>
-37.2682762145996

> <r_i_glide_ecoul>
-9.82226943969727

> <r_i_glide_erotb>
0.517183544942762

> <r_i_glide_esite>
0

> <r_i_glide_emodel>
-65.1380532475936

> <r_i_glide_energy>
-47.0905456542969

> <r_i_glide_einternal>
6.58409833908081

> <i_i_glide_confnum>
61

> <i_i_glide_posenum>
124

> <r_i_glide_eff_state_penalty>
0

> <i_f3d_flags>
0

> <s_user_duplicate_titles>
336154

> <s_m_subgroup_title>
dock_pv

> <s_m_subgroupid>
dock_pv1

> <b_m_subgroup_collapsed>
0

$$$$
156271
                    3D
 Schrodinger Suite 2021-1.
 45 48  0  0  1  0            999 V2000
   -3.8278   54.9930   29.3878 C   0  0  0  0  0  0
   -4.8377   54.6293   30.3233 O   0  0  0  0  0  0
   -5.4219   53.3764   30.3053 C   0  0  0  0  0  0
   -5.0845   52.4260   29.3274 C   0  0  0  0  0  0
   -5.7135   51.1932   29.2586 C   0  0  0  0  0  0
   -6.7261   50.8758   30.1493 C   0  0  0  0  0  0
   -7.1104   51.7944   31.1502 C   0  0  0  0  0  0
   -6.4377   53.0545   31.2831 C   0  0  0  0  0  0
   -6.8791   53.9134   32.3680 C   0  0  0  0  0  0
   -8.0133   53.5219   33.1177 C   0  0  0  0  0  0
   -8.5883   52.2810   32.8775 C   0  0  0  0  0  0
   -8.1462   51.4188   31.9422 N   0  0  0  0  0  0
   -8.6244   54.3476   34.1622 C   0  0  0  0  0  0
   -9.1084   55.0002   34.9846 N   0  0  0  0  0  0
   -6.2483   55.1259   32.7189 N   0  0  0  0  0  0
   -4.8942   55.3916   32.9642 C   0  0  0  0  0  0
   -4.4236   56.6748   32.7044 C   0  0  0  0  0  0
   -3.0960   56.9924   32.9633 C   0  0  0  0  0  0
   -2.2328   56.0410   33.5223 C   0  0  0  0  0  0
   -2.7023   54.7494   33.7623 C   0  0  0  0  0  0
   -4.0288   54.4206   33.4788 C   0  0  0  0  0  0
   -0.9128   56.3310   33.8104 O   0  0  0  0  0  0
   -0.5336   57.5909   34.2369 C   0  0  0  0  0  0
    0.6666   58.1169   33.7631 C   0  0  0  0  0  0
    1.0679   59.4017   34.1202 C   0  0  0  0  0  0
    0.2628   60.1609   34.9624 C   0  0  0  0  0  0
   -0.9217   59.6360   35.4723 C   0  0  0  0  0  0
   -1.3100   58.3453   35.1286 C   0  0  0  0  0  0
   -3.4005   55.9486   29.6859 H   0  0  0  0  0  0
   -4.2424   55.1275   28.3880 H   0  0  0  0  0  0
   -3.0079   54.2755   29.3626 H   0  0  0  0  0  0
   -4.3296   52.6341   28.5853 H   0  0  0  0  0  0
   -5.4231   50.4846   28.4978 H   0  0  0  0  0  0
   -7.2320   49.9255   30.0771 H   0  0  0  0  0  0
   -9.4377   51.9341   33.4515 H   0  0  0  0  0  0
   -6.8649   55.7900   33.1665 H   0  0  0  0  0  0
   -5.0768   57.4234   32.2795 H   0  0  0  0  0  0
   -2.7364   57.9817   32.7315 H   0  0  0  0  0  0
   -2.0406   54.0027   34.1767 H   0  0  0  0  0  0
   -4.3906   53.4239   33.6817 H   0  0  0  0  0  0
    1.2729   57.5467   33.0792 H   0  0  0  0  0  0
    1.9884   59.8114   33.7308 H   0  0  0  0  0  0
    0.5603   61.1642   35.2321 H   0  0  0  0  0  0
   -1.5381   60.2315   36.1306 H   0  0  0  0  0  0
   -2.2295   57.9400   35.5243 H   0  0  0  0  0  0
  1  2  1  0  0  0
  1 29  1  0  0  0
  1 30  1  0  0  0
  1 31  1  0  0  0
  2  3  1  0  0  0
  3  8  1  0  0  0
  3  4  2  0  0  0
  4  5  1  0  0  0
  4 32  1  0  0  0
  5  6  2  0  0  0
  5 33  1  0  0  0
  6  7  1  0  0  0
  6 34  1  0  0  0
  7 12  2  0  0  0
  7  8  1  0  0  0
  8  9  2  0  0  0
  9 10  1  0  0  0
  9 15  1  0  0  0
 10 11  2  0  0  0
 10 13  1  0  0  0
 11 12  1  0  0  0
 11 35  1  0  0  0
 13 14  3  0  0  0
 15 16  1  0  0  0
 15 36  1  0  0  0
 16 21  1  0  0  0
 16 17  2  0  0  0
 17 18  1  0  0  0
 17 37  1  0  0  0
 18 19  2  0  0  0
 18 38  1  0  0  0
 19 20  1  0  0  0
 19 22  1  0  0  0
 20 21  2  0  0  0
 20 39  1  0  0  0
 21 40  1  0  0  0
 22 23  1  0  0  0
 23 28  1  0  0  0
 23 24  2  0  0  0
 24 25  1  0  0  0
 24 41  1  0  0  0
 25 26  2  0  0  0
 25 42  1  0  0  0
 26 27  1  0  0  0
 26 43  1  0  0  0
 27 28  2  0  0  0
 27 44  1  0  0  0
 28 45  1  0  0  0
M  END
> <s_m_entry_id>
66085

> <s_m_entry_name>
ligand_docking-pose.141

> <s_m_Source_Path>
/home/csk/Desktop/cluster/DUD-E-result/mp2k1

> <s_m_Source_File>
ligand_docking-pose.sdf

> <i_m_Source_File_Index>
141

> <i_lp_mmshare_version>
53161

> <r_lp_tautomer_probability>
1

> <s_lp_Force_Field>
OPLS_2005

> <r_lp_Energy>
40.383886

> <b_lp_Chiralities_Consistent>
1

> <s_lp_Variant>
156271-1

> <s_i_glide_gridfile>
glide-grid_3eqh

> <i_i_glide_lignum>
398

> <i_i_glide_rotatable_bonds>
5

> <r_i_docking_score>
-7.23597298397078

> <r_i_glide_ligand_efficiency>
-0.258427606570385

> <r_i_glide_ligand_efficiency_sa>
-0.784738419268218

> <r_i_glide_ligand_efficiency_ln>
-1.67027502209912

> <r_i_glide_gscore>
-7.23597298397078

> <r_i_glide_lipo>
-3.96621518438237

> <r_i_glide_hbond>
0

> <r_i_glide_metal>
0

> <r_i_glide_rewards>
-1.37511985591183

> <r_i_glide_evdw>
-48.3604736328125

> <r_i_glide_ecoul>
-0.31534418463707

> <r_i_glide_erotb>
0.570687365659601

> <r_i_glide_esite>
0

> <r_i_glide_emodel>
-66.0261846850784

> <r_i_glide_energy>
-48.6758178174496

> <r_i_glide_einternal>
5.02086591720581

> <i_i_glide_confnum>
14

> <i_i_glide_posenum>
367

> <r_i_glide_eff_state_penalty>
0

> <i_f3d_flags>
0

> <s_user_duplicate_titles>
156271

> <s_m_subgroup_title>
dock_pv

> <s_m_subgroupid>
dock_pv1

> <b_m_subgroup_collapsed>
0

$$$$
353926
                    3D
 Schrodinger Suite 2021-1.
 45 47  0  0  1  0            999 V2000
    2.0740   60.6114   32.9312 C   0  0  0  0  0  0
    1.0632   59.6742   33.1085 C   0  0  0  0  0  0
    0.0730   59.8591   34.0792 C   0  0  0  0  0  0
    0.1270   60.9936   34.9021 C   0  0  0  0  0  0
    1.1805   61.9010   34.7507 C   0  0  0  0  0  0
    2.1357   61.7295   33.7554 C   0  0  0  0  0  0
    3.3905   62.8975   33.5535 Cl  0  0  0  0  0  0
   -1.0967   61.3077   36.0966 Cl  0  0  0  0  0  0
   -0.9879   58.9477   34.2043 N   0  0  0  0  0  0
   -0.9773   57.5769   34.0720 C   0  0  0  0  0  0
   -2.0607   56.7286   33.8522 C   0  0  0  0  0  0
   -1.6027   55.4131   33.6790 C   0  0  0  0  0  0
   -0.3170   55.1596   33.7638 N   0  0  0  0  0  0
    0.4733   56.6165   34.1630 S   0  0  0  0  0  0
   -2.4143   54.3481   33.4152 O   0  0  0  0  0  0
   -3.4757   57.1149   33.7918 C   0  0  0  0  0  0
   -4.1572   56.6650   32.8131 N   0  0  0  0  0  0
   -5.5689   57.0001   32.6893 C   0  0  0  0  0  0
   -6.4579   55.8141   33.1419 C   0  0  0  0  0  0
   -7.9544   56.2032   33.1556 C   0  0  0  0  0  0
   -8.8184   55.0628   33.7352 C   0  0  0  0  0  0
   -8.6132   53.7457   32.9549 C   0  0  0  0  0  0
   -7.1217   53.3740   32.8012 C   0  0  0  0  0  0
   -6.2956   54.5563   32.2525 C   0  0  0  0  0  0
   -3.8382   57.8623   34.8890 N   0  0  0  0  0  0
    2.8202   60.4554   32.1664 H   0  0  0  0  0  0
    1.0483   58.8078   32.4740 H   0  0  0  0  0  0
    1.2739   62.7476   35.4048 H   0  0  0  0  0  0
   -1.8759   59.4255   34.3093 H   0  0  0  0  0  0
   -3.2921   54.6961   33.2300 H   0  0  0  0  0  0
   -5.7750   57.2480   31.6462 H   0  0  0  0  0  0
   -5.8411   57.9005   33.2459 H   0  0  0  0  0  0
   -6.1810   55.5475   34.1630 H   0  0  0  0  0  0
   -8.2836   56.4804   32.1521 H   0  0  0  0  0  0
   -8.0959   57.1050   33.7523 H   0  0  0  0  0  0
   -9.8722   55.3452   33.7199 H   0  0  0  0  0  0
   -8.5609   54.9074   34.7840 H   0  0  0  0  0  0
   -9.0590   53.8479   31.9639 H   0  0  0  0  0  0
   -9.1516   52.9341   33.4457 H   0  0  0  0  0  0
   -7.0204   52.5113   32.1421 H   0  0  0  0  0  0
   -6.7193   53.0665   33.7671 H   0  0  0  0  0  0
   -5.2451   54.2693   32.1937 H   0  0  0  0  0  0
   -6.5746   54.7880   31.2231 H   0  0  0  0  0  0
   -4.8233   57.9452   35.0796 H   0  0  0  0  0  0
   -3.1744   57.9466   35.6450 H   0  0  0  0  0  0
  1  6  1  0  0  0
  1  2  2  0  0  0
  1 26  1  0  0  0
  2  3  1  0  0  0
  2 27  1  0  0  0
  3  4  2  0  0  0
  3  9  1  0  0  0
  4  5  1  0  0  0
  4  8  1  0  0  0
  5  6  2  0  0  0
  5 28  1  0  0  0
  6  7  1  0  0  0
  9 10  1  0  0  0
  9 29  1  0  0  0
 10 14  1  0  0  0
 10 11  2  0  0  0
 11 12  1  0  0  0
 11 16  1  0  0  0
 12 13  2  0  0  0
 12 15  1  0  0  0
 13 14  1  0  0  0
 15 30  1  0  0  0
 16 17  2  0  0  0
 16 25  1  0  0  0
 17 18  1  0  0  0
 18 19  1  0  0  0
 18 31  1  0  0  0
 18 32  1  0  0  0
 19 24  1  0  0  0
 19 20  1  0  0  0
 19 33  1  0  0  0
 20 21  1  0  0  0
 20 34  1  0  0  0
 20 35  1  0  0  0
 21 22  1  0  0  0
 21 36  1  0  0  0
 21 37  1  0  0  0
 22 23  1  0  0  0
 22 38  1  0  0  0
 22 39  1  0  0  0
 23 24  1  0  0  0
 23 40  1  0  0  0
 23 41  1  0  0  0
 24 42  1  0  0  0
 24 43  1  0  0  0
 25 44  1  0  0  0
 25 45  1  0  0  0
M  END
> <s_m_entry_id>
66086

> <s_m_entry_name>
ligand_docking-pose.142

> <s_m_Source_Path>
/home/csk/Desktop/cluster/DUD-E-result/mp2k1

> <s_m_Source_File>
ligand_docking-pose.sdf

> <i_m_Source_File_Index>
142

> <i_lp_mmshare_version>
53161

> <r_lp_tautomer_probability>
1

> <s_lp_Force_Field>
OPLS_2005

> <r_lp_Energy>
24.290477

> <b_lp_Chiralities_Consistent>
1

> <s_lp_Variant>
353926-1

> <s_i_glide_gridfile>
glide-grid_3eqh

> <i_i_glide_lignum>
34

> <i_i_glide_rotatable_bonds>
6

> <r_i_docking_score>
-7.18029382243758

> <r_i_glide_ligand_efficiency>
-0.287211752897503

> <r_i_glide_ligand_efficiency_sa>
-0.839812259194426

> <r_i_glide_ligand_efficiency_ln>
-1.70194481195992

> <r_i_glide_gscore>
-7.18029382243758

> <r_i_glide_lipo>
-4.0773689199951

> <r_i_glide_hbond>
-0.0309523237887497

> <r_i_glide_metal>
0

> <r_i_glide_rewards>
-1.18898810442469

> <r_i_glide_evdw>
-42.2911071777344

> <r_i_glide_ecoul>
-1.53772497177124

> <r_i_glide_erotb>
0.491462326871351

> <r_i_glide_esite>
-0.0292326964479821

> <r_i_glide_emodel>
-59.1897879290933

> <r_i_glide_energy>
-43.8288321495056

> <r_i_glide_einternal>
4.58469295501709

> <i_i_glide_confnum>
32

> <i_i_glide_posenum>
76

> <r_i_glide_eff_state_penalty>
0

> <i_f3d_flags>
0

> <s_user_duplicate_titles>
353926

> <s_m_subgroup_title>
dock_pv

> <s_m_subgroupid>
dock_pv1

> <b_m_subgroup_collapsed>
0

$$$$
363018
                    3D
 Schrodinger Suite 2021-1.
 47 49  0  0  1  0            999 V2000
   -8.6571   59.1876   35.0238 C   0  0  0  0  0  0
   -8.1999   58.7330   33.6251 C   0  0  1  0  0  0
   -7.0877   59.6367   33.0294 C   0  0  0  0  0  0
   -7.5253   60.3472   31.8883 O   0  0  0  0  0  0
   -7.6630   57.3836   33.7242 N   0  0  0  0  0  0
   -8.1099   56.4536   32.9798 C   0  0  0  0  0  0
   -7.4467   55.1560   33.0586 C   0  0  0  0  0  0
   -8.0763   53.9433   33.3882 C   0  0  0  0  0  0
   -7.3684   52.8375   33.3643 N   0  0  0  0  0  0
   -5.7589   53.2361   32.9598 S   0  0  0  0  0  0
   -6.1027   54.9252   32.7649 C   0  0  0  0  0  0
   -5.1284   55.7718   32.2883 N   0  0  0  0  0  0
   -4.1018   56.3296   33.0612 C   0  0  0  0  0  0
   -2.8129   56.3489   32.5323 C   0  0  0  0  0  0
   -1.7585   56.8956   33.2596 C   0  0  0  0  0  0
   -1.9775   57.4655   34.5215 C   0  0  0  0  0  0
   -3.2761   57.4641   35.0400 C   0  0  0  0  0  0
   -4.3261   56.8868   34.3228 C   0  0  0  0  0  0
   -3.5242   58.0263   36.2440 F   0  0  0  0  0  0
   -0.9532   58.0019   35.2776 O   0  0  0  0  0  0
   -0.1521   58.9767   34.7278 C   0  0  0  0  0  0
    0.8791   58.6171   33.8622 C   0  0  0  0  0  0
    1.6584   59.5952   33.2562 C   0  0  0  0  0  0
    1.4541   60.9435   33.5348 C   0  0  0  0  0  0
    0.4610   61.3088   34.4372 C   0  0  0  0  0  0
   -0.3338   60.3315   35.0350 C   0  0  0  0  0  0
   -1.5272   60.8297   36.1646 Cl  0  0  0  0  0  0
    2.8737   59.1205   32.1576 Cl  0  0  0  0  0  0
   -9.3944   53.8024   33.7303 O   0  0  0  0  0  0
   -9.1264   56.4186   32.0553 N   0  0  0  0  0  0
   -9.0400   60.2095   34.9978 H   0  0  0  0  0  0
   -9.4581   58.5512   35.4022 H   0  0  0  0  0  0
   -7.8437   59.1564   35.7490 H   0  0  0  0  0  0
   -9.0864   58.7918   32.9861 H   0  0  0  0  0  0
   -6.2157   59.0592   32.7222 H   0  0  0  0  0  0
   -6.7259   60.3476   33.7632 H   0  0  0  0  0  0
   -7.8077   59.6822   31.2446 H   0  0  0  0  0  0
   -4.8776   55.7064   31.3126 H   0  0  0  0  0  0
   -2.6169   55.9377   31.5524 H   0  0  0  0  0  0
   -0.7767   56.8682   32.8183 H   0  0  0  0  0  0
   -5.3170   56.8803   34.7501 H   0  0  0  0  0  0
    1.0714   57.5778   33.6468 H   0  0  0  0  0  0
    2.0689   61.6979   33.0652 H   0  0  0  0  0  0
    0.3031   62.3483   34.6766 H   0  0  0  0  0  0
   -9.8022   54.6699   33.7694 H   0  0  0  0  0  0
   -9.5836   57.2825   31.8156 H   0  0  0  0  0  0
   -9.1247   55.6778   31.3695 H   0  0  0  0  0  0
  1  2  1  0  0  0
  1 31  1  0  0  0
  1 32  1  0  0  0
  1 33  1  0  0  0
  2  3  1  0  0  0
  2  5  1  0  0  0
  2 34  1  0  0  0
  3  4  1  0  0  0
  3 35  1  0  0  0
  3 36  1  0  0  0
  4 37  1  0  0  0
  5  6  2  0  0  0
  6  7  1  0  0  0
  6 30  1  0  0  0
  7 11  2  0  0  0
  7  8  1  0  0  0
  8  9  2  0  0  0
  8 29  1  0  0  0
  9 10  1  0  0  0
 10 11  1  0  0  0
 11 12  1  0  0  0
 12 13  1  0  0  0
 12 38  1  0  0  0
 13 18  1  0  0  0
 13 14  2  0  0  0
 14 15  1  0  0  0
 14 39  1  0  0  0
 15 16  2  0  0  0
 15 40  1  0  0  0
 16 17  1  0  0  0
 16 20  1  0  0  0
 17 18  2  0  0  0
 17 19  1  0  0  0
 18 41  1  0  0  0
 20 21  1  0  0  0
 21 26  1  0  0  0
 21 22  2  0  0  0
 22 23  1  0  0  0
 22 42  1  0  0  0
 23 24  2  0  0  0
 23 28  1  0  0  0
 24 25  1  0  0  0
 24 43  1  0  0  0
 25 26  2  0  0  0
 25 44  1  0  0  0
 26 27  1  0  0  0
 29 45  1  0  0  0
 30 46  1  0  0  0
 30 47  1  0  0  0
M  END
> <s_m_entry_id>
66087

> <s_m_entry_name>
ligand_docking-pose.143

> <s_m_Source_Path>
/home/csk/Desktop/cluster/DUD-E-result/mp2k1

> <s_m_Source_File>
ligand_docking-pose.sdf

> <i_m_Source_File_Index>
143

> <i_lp_mmshare_version>
53161

> <r_lp_tautomer_probability>
1

> <s_lp_Force_Field>
OPLS_2005

> <r_lp_Energy>
25.918106

> <b_lp_Chiralities_Consistent>
1

> <s_lp_Variant>
363018-2

> <s_i_glide_gridfile>
glide-grid_3eqh

> <i_i_glide_lignum>
238

> <i_i_glide_rotatable_bonds>
9

> <r_i_docking_score>
-7.18000460760589

> <r_i_glide_ligand_efficiency>
-0.239333486920196

> <r_i_glide_ligand_efficiency_sa>
-0.7436647894786

> <r_i_glide_ligand_efficiency_ln>
-1.63137527926418

> <r_i_glide_gscore>
-7.18000460760589

> <r_i_glide_lipo>
-3.63074364086613

> <r_i_glide_hbond>
0

> <r_i_glide_metal>
0

> <r_i_glide_rewards>
-0.458903722625321

> <r_i_glide_evdw>
-52.9634170532227

> <r_i_glide_ecoul>
-6.84197854995728

> <r_i_glide_erotb>
0.636864186966447

> <r_i_glide_esite>
-0.0527537959261627

> <r_i_glide_emodel>
-78.5265851008017

> <r_i_glide_energy>
-59.8053956031799

> <r_i_glide_einternal>
20.7471256256104

> <i_i_glide_confnum>
156

> <i_i_glide_posenum>
105

> <r_i_glide_eff_state_penalty>
0

> <i_f3d_flags>
0

> <s_user_duplicate_titles>
363018

> <s_m_subgroup_title>
dock_pv

> <s_m_subgroupid>
dock_pv1

> <b_m_subgroup_collapsed>
0

$$$$
363025
                    3D
 Schrodinger Suite 2021-1.
 47 49  0  0  1  0            999 V2000
   -8.4396   58.8017   34.5440 C   0  0  0  0  0  0
   -7.2526   58.3871   33.6355 C   0  0  2  0  0  0
   -7.3132   58.9461   32.1840 C   0  0  0  0  0  0
   -7.5260   60.3480   32.1630 O   0  0  0  0  0  0
   -7.0064   56.9427   33.6611 N   0  0  0  0  0  0
   -7.8671   56.0903   33.2493 C   0  0  0  0  0  0
   -7.5052   54.6632   33.2844 C   0  0  0  0  0  0
   -8.3239   53.6154   33.7504 C   0  0  0  0  0  0
   -7.8937   52.3785   33.6400 N   0  0  0  0  0  0
   -6.3263   52.4038   32.9631 S   0  0  0  0  0  0
   -6.3048   54.1306   32.8139 C   0  0  0  0  0  0
   -5.2825   54.7790   32.1719 N   0  0  0  0  0  0
   -4.0350   55.1212   32.7104 C   0  0  0  0  0  0
   -3.3847   54.4204   33.7324 C   0  0  0  0  0  0
   -2.1289   54.8492   34.1727 C   0  0  0  0  0  0
   -1.5398   55.9975   33.6372 C   0  0  0  0  0  0
   -2.1971   56.6812   32.6137 C   0  0  0  0  0  0
   -3.4318   56.2431   32.1588 C   0  0  0  0  0  0
   -0.3047   56.4143   34.0982 O   0  0  0  0  0  0
   -0.0491   57.7661   34.2181 C   0  0  0  0  0  0
   -0.8095   58.5743   35.0703 C   0  0  0  0  0  0
   -0.5596   59.9460   35.1453 C   0  0  0  0  0  0
    0.4576   60.5177   34.3816 C   0  0  0  0  0  0
    1.2225   59.7177   33.5355 C   0  0  0  0  0  0
    0.9718   58.3484   33.4622 C   0  0  0  0  0  0
    2.4627   60.4210   32.5630 Cl  0  0  0  0  0  0
   -1.5231   60.9471   36.1630 Cl  0  0  0  0  0  0
   -9.5667   53.7610   34.3062 O   0  0  0  0  0  0
   -9.1260   56.2541   32.7205 N   0  0  0  0  0  0
   -8.4574   59.8811   34.7027 H   0  0  0  0  0  0
   -9.4051   58.5270   34.1203 H   0  0  0  0  0  0
   -8.3655   58.3366   35.5282 H   0  0  0  0  0  0
   -6.3680   58.8352   34.0884 H   0  0  0  0  0  0
   -8.1265   58.4890   31.6220 H   0  0  0  0  0  0
   -6.3889   58.7192   31.6494 H   0  0  0  0  0  0
   -8.4599   60.4818   32.3850 H   0  0  0  0  0  0
   -5.5561   55.4582   31.4761 H   0  0  0  0  0  0
   -3.8361   53.5485   34.1800 H   0  0  0  0  0  0
   -1.6203   54.3034   34.9534 H   0  0  0  0  0  0
   -1.7422   57.5480   32.1629 H   0  0  0  0  0  0
   -3.9259   56.7782   31.3631 H   0  0  0  0  0  0
   -1.6031   58.1359   35.6566 H   0  0  0  0  0  0
    0.6415   61.5808   34.4386 H   0  0  0  0  0  0
    1.5518   57.7465   32.7825 H   0  0  0  0  0  0
   -9.7630   54.6950   34.4082 H   0  0  0  0  0  0
   -9.4787   57.1856   32.5702 H   0  0  0  0  0  0
   -9.5430   55.4901   32.2110 H   0  0  0  0  0  0
  1  2  1  0  0  0
  1 30  1  0  0  0
  1 31  1  0  0  0
  1 32  1  0  0  0
  2  3  1  0  0  0
  2  5  1  0  0  0
  2 33  1  0  0  0
  3  4  1  0  0  0
  3 34  1  0  0  0
  3 35  1  0  0  0
  4 36  1  0  0  0
  5  6  2  0  0  0
  6  7  1  0  0  0
  6 29  1  0  0  0
  7 11  2  0  0  0
  7  8  1  0  0  0
  8  9  2  0  0  0
  8 28  1  0  0  0
  9 10  1  0  0  0
 10 11  1  0  0  0
 11 12  1  0  0  0
 12 13  1  0  0  0
 12 37  1  0  0  0
 13 18  1  0  0  0
 13 14  2  0  0  0
 14 15  1  0  0  0
 14 38  1  0  0  0
 15 16  2  0  0  0
 15 39  1  0  0  0
 16 17  1  0  0  0
 16 19  1  0  0  0
 17 18  2  0  0  0
 17 40  1  0  0  0
 18 41  1  0  0  0
 19 20  1  0  0  0
 20 25  1  0  0  0
 20 21  2  0  0  0
 21 22  1  0  0  0
 21 42  1  0  0  0
 22 23  2  0  0  0
 22 27  1  0  0  0
 23 24  1  0  0  0
 23 43  1  0  0  0
 24 25  2  0  0  0
 24 26  1  0  0  0
 25 44  1  0  0  0
 28 45  1  0  0  0
 29 46  1  0  0  0
 29 47  1  0  0  0
M  END
> <s_m_entry_id>
66088

> <s_m_entry_name>
ligand_docking-pose.144

> <s_m_Source_Path>
/home/csk/Desktop/cluster/DUD-E-result/mp2k1

> <s_m_Source_File>
ligand_docking-pose.sdf

> <i_m_Source_File_Index>
144

> <i_lp_mmshare_version>
53161

> <r_lp_tautomer_probability>
1

> <s_lp_Force_Field>
OPLS_2005

> <r_lp_Energy>
24.473898

> <b_lp_Chiralities_Consistent>
1

> <s_lp_Variant>
363025-1

> <s_i_glide_gridfile>
glide-grid_3eqh

> <i_i_glide_lignum>
247

> <i_i_glide_rotatable_bonds>
9

> <r_i_docking_score>
-7.17269689681106

> <r_i_glide_ligand_efficiency>
-0.247334375752105

> <r_i_glide_ligand_efficiency_sa>
-0.759889563340775

> <r_i_glide_ligand_efficiency_ln>
-1.6423657054698

> <r_i_glide_gscore>
-7.17269689681106

> <r_i_glide_lipo>
-3.77130230098445

> <r_i_glide_hbond>
-0.00505413225130461

> <r_i_glide_metal>
0

> <r_i_glide_rewards>
-0.451451833333332

> <r_i_glide_evdw>
-51.4265213012695

> <r_i_glide_ecoul>
-7.04818487167358

> <r_i_glide_erotb>
0.683665165572548

> <r_i_glide_esite>
0

> <r_i_glide_emodel>
-78.5984579815671

> <r_i_glide_energy>
-58.4747061729431

> <r_i_glide_einternal>
16.696569442749

> <i_i_glide_confnum>
100

> <i_i_glide_posenum>
391

> <r_i_glide_eff_state_penalty>
0

> <i_f3d_flags>
0

> <s_user_duplicate_titles>
363025

> <s_m_subgroup_title>
dock_pv

> <s_m_subgroupid>
dock_pv1

> <b_m_subgroup_collapsed>
0

$$$$
363022
                    3D
 Schrodinger Suite 2021-1.
 47 49  0  0  1  0            999 V2000
   -8.3180   58.8349   34.7229 C   0  0  0  0  0  0
   -8.0989   58.2544   33.3129 C   0  0  1  0  0  0
   -7.0530   59.0490   32.4914 C   0  0  0  0  0  0
   -7.5262   60.3480   32.1680 O   0  0  0  0  0  0
   -7.6514   56.8726   33.4613 N   0  0  0  0  0  0
   -8.1822   55.9489   32.7590 C   0  0  0  0  0  0
   -7.7079   54.5769   32.9401 C   0  0  0  0  0  0
   -8.4971   53.4805   33.3253 C   0  0  0  0  0  0
   -7.9433   52.2902   33.3640 N   0  0  0  0  0  0
   -6.2932   52.4492   32.9609 S   0  0  0  0  0  0
   -6.4032   54.1602   32.6973 C   0  0  0  0  0  0
   -5.3810   54.9162   32.1824 N   0  0  0  0  0  0
   -4.1725   55.2803   32.7865 C   0  0  0  0  0  0
   -3.4420   54.4813   33.6731 C   0  0  0  0  0  0
   -2.2139   54.9374   34.1629 C   0  0  0  0  0  0
   -1.7281   56.1977   33.8018 C   0  0  0  0  0  0
   -2.4793   56.9883   32.9337 C   0  0  0  0  0  0
   -3.6890   56.5337   32.4346 C   0  0  0  0  0  0
   -0.5010   56.6147   34.2815 O   0  0  0  0  0  0
   -0.2154   57.9600   34.4003 C   0  0  0  0  0  0
    0.8295   58.4884   33.6398 C   0  0  0  0  0  0
    1.1509   59.8445   33.7115 C   0  0  0  0  0  0
    0.4326   60.6811   34.5632 C   0  0  0  0  0  0
   -0.6008   60.1634   35.3439 C   0  0  0  0  0  0
   -0.9286   58.8061   35.2654 C   0  0  0  0  0  0
   -1.9463   58.3253   36.0173 F   0  0  0  0  0  0
   -1.2925   60.9861   36.1633 F   0  0  0  0  0  0
   -9.8244   53.5391   33.6515 O   0  0  0  0  0  0
   -9.1259   55.9837   31.7626 N   0  0  0  0  0  0
   -8.6186   59.8834   34.6817 H   0  0  0  0  0  0
   -9.1027   58.2933   35.2528 H   0  0  0  0  0  0
   -7.4132   58.7699   35.3283 H   0  0  0  0  0  0
   -9.0589   58.3251   32.7937 H   0  0  0  0  0  0
   -6.8272   58.5315   31.5600 H   0  0  0  0  0  0
   -6.1128   59.1304   33.0367 H   0  0  0  0  0  0
   -8.4636   60.2704   31.9526 H   0  0  0  0  0  0
   -5.6611   55.6382   31.5337 H   0  0  0  0  0  0
   -3.7998   53.5074   33.9702 H   0  0  0  0  0  0
   -1.6390   54.3140   34.8317 H   0  0  0  0  0  0
   -2.1138   57.9480   32.6106 H   0  0  0  0  0  0
   -4.2471   57.1668   31.7619 H   0  0  0  0  0  0
    1.3718   57.8487   32.9627 H   0  0  0  0  0  0
    1.9503   60.2430   33.1033 H   0  0  0  0  0  0
    0.6742   61.7325   34.6248 H   0  0  0  0  0  0
  -10.0900   54.4592   33.6871 H   0  0  0  0  0  0
   -9.3307   56.8745   31.3338 H   0  0  0  0  0  0
   -9.2595   55.1567   31.2016 H   0  0  0  0  0  0
  1  2  1  0  0  0
  1 30  1  0  0  0
  1 31  1  0  0  0
  1 32  1  0  0  0
  2  3  1  0  0  0
  2  5  1  0  0  0
  2 33  1  0  0  0
  3  4  1  0  0  0
  3 34  1  0  0  0
  3 35  1  0  0  0
  4 36  1  0  0  0
  5  6  2  0  0  0
  6  7  1  0  0  0
  6 29  1  0  0  0
  7 11  2  0  0  0
  7  8  1  0  0  0
  8  9  2  0  0  0
  8 28  1  0  0  0
  9 10  1  0  0  0
 10 11  1  0  0  0
 11 12  1  0  0  0
 12 13  1  0  0  0
 12 37  1  0  0  0
 13 18  1  0  0  0
 13 14  2  0  0  0
 14 15  1  0  0  0
 14 38  1  0  0  0
 15 16  2  0  0  0
 15 39  1  0  0  0
 16 17  1  0  0  0
 16 19  1  0  0  0
 17 18  2  0  0  0
 17 40  1  0  0  0
 18 41  1  0  0  0
 19 20  1  0  0  0
 20 25  1  0  0  0
 20 21  2  0  0  0
 21 22  1  0  0  0
 21 42  1  0  0  0
 22 23  2  0  0  0
 22 43  1  0  0  0
 23 24  1  0  0  0
 23 44  1  0  0  0
 24 25  2  0  0  0
 24 27  1  0  0  0
 25 26  1  0  0  0
 28 45  1  0  0  0
 29 46  1  0  0  0
 29 47  1  0  0  0
M  END
> <s_m_entry_id>
66089

> <s_m_entry_name>
ligand_docking-pose.145

> <s_m_Source_Path>
/home/csk/Desktop/cluster/DUD-E-result/mp2k1

> <s_m_Source_File>
ligand_docking-pose.sdf

> <i_m_Source_File_Index>
145

> <i_lp_mmshare_version>
53161

> <r_lp_tautomer_probability>
1

> <s_lp_Force_Field>
OPLS_2005

> <r_lp_Energy>
25.409061

> <b_lp_Chiralities_Consistent>
1

> <s_lp_Variant>
363022-2

> <s_i_glide_gridfile>
glide-grid_3eqh

> <i_i_glide_lignum>
274

> <i_i_glide_rotatable_bonds>
9

> <r_i_docking_score>
-7.17188074628841

> <r_i_glide_ligand_efficiency>
-0.247306232630635

> <r_i_glide_ligand_efficiency_sa>
-0.759803098755251

> <r_i_glide_ligand_efficiency_ln>
-1.64217882769591

> <r_i_glide_gscore>
-7.17188074628841

> <r_i_glide_lipo>
-3.70441405843537

> <r_i_glide_hbond>
0

> <r_i_glide_metal>
0

> <r_i_glide_rewards>
-0.686530012923947

> <r_i_glide_evdw>
-49.8318977355957

> <r_i_glide_ecoul>
-6.87576484680176

> <r_i_glide_erotb>
0.783791564048223

> <r_i_glide_esite>
-0.0417686251772728

> <r_i_glide_emodel>
-75.6409048565572

> <r_i_glide_energy>
-56.7076625823975

> <r_i_glide_einternal>
13.9123582839966

> <i_i_glide_confnum>
118

> <i_i_glide_posenum>
136

> <r_i_glide_eff_state_penalty>
0

> <i_f3d_flags>
0

> <s_user_duplicate_titles>
363022

> <s_m_subgroup_title>
dock_pv

> <s_m_subgroupid>
dock_pv1

> <b_m_subgroup_collapsed>
0

$$$$
354625
                    3D
 Schrodinger Suite 2021-1.
 35 36  0  0  1  0            999 V2000
   -3.5480   55.3925   30.3899 C   0  0  0  0  0  0
   -3.2179   54.9685   31.8298 C   0  0  0  0  0  0
   -4.3511   54.1240   32.4408 C   0  0  0  0  0  0
   -3.0470   56.1531   32.6529 N   0  0  0  0  0  0
   -1.9859   56.3477   33.3373 C   0  0  0  0  0  0
   -1.9852   57.5059   34.2365 C   0  0  0  0  0  0
   -3.0942   57.8253   35.0419 C   0  0  0  0  0  0
   -2.9767   58.7480   35.9589 N   0  0  0  0  0  0
   -1.4571   59.4786   35.7629 S   0  0  0  0  0  0
   -0.9484   58.4227   34.4653 C   0  0  0  0  0  0
    0.2584   58.5875   33.7969 N   0  0  0  0  0  0
    1.0941   59.7160   33.9473 C   0  0  0  0  0  0
    1.7450   59.9457   35.1600 C   0  0  0  0  0  0
    2.4740   61.1160   35.3630 C   0  0  0  0  0  0
    2.5045   62.1043   34.3875 C   0  0  0  0  0  0
    1.8882   61.8856   33.1630 C   0  0  0  0  0  0
    1.2284   60.6707   32.9265 C   0  0  0  0  0  0
    0.6072   60.3427   31.3631 Cl  0  0  0  0  0  0
    1.9506   63.1475   31.9794 Cl  0  0  0  0  0  0
   -4.3258   57.2371   34.9632 O   0  0  0  0  0  0
   -0.8322   55.6145   33.4891 N   0  0  0  0  0  0
   -3.7304   54.5253   29.7548 H   0  0  0  0  0  0
   -2.7261   55.9480   29.9433 H   0  0  0  0  0  0
   -4.4355   56.0262   30.3459 H   0  0  0  0  0  0
   -2.3260   54.3459   31.7940 H   0  0  0  0  0  0
   -4.5643   53.2445   31.8330 H   0  0  0  0  0  0
   -4.0910   53.7746   33.4413 H   0  0  0  0  0  0
   -5.2785   54.6936   32.5204 H   0  0  0  0  0  0
    0.3848   58.1165   32.9077 H   0  0  0  0  0  0
    1.6742   59.2158   35.9522 H   0  0  0  0  0  0
    2.9955   61.2734   36.2924 H   0  0  0  0  0  0
    3.0349   63.0280   34.5680 H   0  0  0  0  0  0
   -4.3081   56.6423   34.2052 H   0  0  0  0  0  0
   -0.7538   54.7044   33.0634 H   0  0  0  0  0  0
   -0.1424   55.9118   34.1618 H   0  0  0  0  0  0
  1  2  1  0  0  0
  1 22  1  0  0  0
  1 23  1  0  0  0
  1 24  1  0  0  0
  2  3  1  0  0  0
  2  4  1  0  0  0
  2 25  1  0  0  0
  3 26  1  0  0  0
  3 27  1  0  0  0
  3 28  1  0  0  0
  4  5  2  0  0  0
  5  6  1  0  0  0
  5 21  1  0  0  0
  6 10  2  0  0  0
  6  7  1  0  0  0
  7  8  2  0  0  0
  7 20  1  0  0  0
  8  9  1  0  0  0
  9 10  1  0  0  0
 10 11  1  0  0  0
 11 12  1  0  0  0
 11 29  1  0  0  0
 12 17  1  0  0  0
 12 13  2  0  0  0
 13 14  1  0  0  0
 13 30  1  0  0  0
 14 15  2  0  0  0
 14 31  1  0  0  0
 15 16  1  0  0  0
 15 32  1  0  0  0
 16 17  2  0  0  0
 16 19  1  0  0  0
 17 18  1  0  0  0
 20 33  1  0  0  0
 21 34  1  0  0  0
 21 35  1  0  0  0
M  END
> <s_m_entry_id>
66090

> <s_m_entry_name>
ligand_docking-pose.146

> <s_m_Source_Path>
/home/csk/Desktop/cluster/DUD-E-result/mp2k1

> <s_m_Source_File>
ligand_docking-pose.sdf

> <i_m_Source_File_Index>
146

> <i_lp_mmshare_version>
53161

> <r_lp_tautomer_probability>
1

> <s_lp_Force_Field>
OPLS_2005

> <r_lp_Energy>
21.217157

> <b_lp_Chiralities_Consistent>
1

> <s_lp_Variant>
354625-1

> <s_i_glide_gridfile>
glide-grid_3eqh

> <i_i_glide_lignum>
211

> <i_i_glide_rotatable_bonds>
5

> <r_i_docking_score>
-7.15841888983587

> <r_i_glide_ligand_efficiency>
-0.340877089992185

> <r_i_glide_ligand_efficiency_sa>
-0.94045404379947

> <r_i_glide_ligand_efficiency_ln>
-1.76990460556456

> <r_i_glide_gscore>
-7.15841888983587

> <r_i_glide_lipo>
-3.37375229153361

> <r_i_glide_hbond>
-0.269409918412213

> <r_i_glide_metal>
0

> <r_i_glide_rewards>
-2.03247798779132

> <r_i_glide_evdw>
-34.549129486084

> <r_i_glide_ecoul>
-2.61894249916077

> <r_i_glide_erotb>
0.637519157079578

> <r_i_glide_esite>
0

> <r_i_glide_emodel>
-46.4109133670303

> <r_i_glide_energy>
-37.1680719852448

> <r_i_glide_einternal>
0.844741821289062

> <i_i_glide_confnum>
6

> <i_i_glide_posenum>
214

> <r_i_glide_eff_state_penalty>
0

> <i_f3d_flags>
0

> <s_user_duplicate_titles>
354625

> <s_m_subgroup_title>
dock_pv

> <s_m_subgroupid>
dock_pv1

> <b_m_subgroup_collapsed>
0

$$$$
363008
                    3D
 Schrodinger Suite 2021-1.
 50 52  0  0  1  0            999 V2000
   -8.5207   59.1995   35.5513 C   0  0  0  0  0  0
   -7.8527   58.9952   34.1756 C   0  0  2  0  0  0
   -8.4945   59.8831   33.0840 C   0  0  0  0  0  0
   -7.5260   60.3478   32.1543 O   0  0  0  0  0  0
   -7.9705   57.5836   33.8221 N   0  0  0  0  0  0
   -6.9441   56.8227   33.8458 C   0  0  0  0  0  0
   -7.1475   55.3797   33.5814 C   0  0  0  0  0  0
   -8.2782   54.6590   34.0214 C   0  0  0  0  0  0
   -8.3631   53.3740   33.7628 N   0  0  0  0  0  0
   -6.9766   52.9029   32.8920 S   0  0  0  0  0  0
   -6.2889   54.4936   32.9054 C   0  0  0  0  0  0
   -5.1584   54.7242   32.1617 N   0  0  0  0  0  0
   -3.9148   55.1015   32.6822 C   0  0  0  0  0  0
   -3.3157   56.2167   32.1160 C   0  0  0  0  0  0
   -2.1012   56.6847   32.5931 C   0  0  0  0  0  0
   -1.4586   56.0300   33.6436 C   0  0  0  0  0  0
   -2.0295   54.8698   34.1719 C   0  0  0  0  0  0
   -3.2722   54.4200   33.7194 C   0  0  0  0  0  0
   -0.2777   56.5283   34.1625 O   0  0  0  0  0  0
   -0.2342   57.8754   34.4719 C   0  0  0  0  0  0
   -1.1000   58.3943   35.4390 C   0  0  0  0  0  0
   -1.1321   59.7629   35.6945 C   0  0  0  0  0  0
   -0.3254   60.6293   34.9631 C   0  0  0  0  0  0
    0.5441   60.1344   33.9838 C   0  0  0  0  0  0
    0.6133   58.7480   33.7729 C   0  0  0  0  0  0
    1.4879   58.2494   32.8723 F   0  0  0  0  0  0
    1.3628   61.0947   33.1187 C   0  0  0  0  0  0
    2.6483   60.7483   33.1016 F   0  0  0  0  0  0
    0.8856   61.0575   31.8730 F   0  0  0  0  0  0
    1.2850   62.3556   33.5502 F   0  0  0  0  0  0
   -9.3318   55.1880   34.7149 O   0  0  0  0  0  0
   -5.6339   57.1086   34.1496 N   0  0  0  0  0  0
   -8.4436   60.2381   35.8768 H   0  0  0  0  0  0
   -9.5815   58.9441   35.5259 H   0  0  0  0  0  0
   -8.0482   58.5869   36.3205 H   0  0  0  0  0  0
   -6.8165   59.3213   34.2862 H   0  0  0  0  0  0
   -8.9463   60.7480   33.5541 H   0  0  0  0  0  0
   -9.3068   59.3745   32.5618 H   0  0  0  0  0  0
   -7.2519   59.5674   31.6530 H   0  0  0  0  0  0
   -5.3115   55.1743   31.2699 H   0  0  0  0  0  0
   -3.8176   56.7480   31.3243 H   0  0  0  0  0  0
   -1.6569   57.5660   32.1633 H   0  0  0  0  0  0
   -1.5252   54.3382   34.9630 H   0  0  0  0  0  0
   -3.7259   53.5472   34.1646 H   0  0  0  0  0  0
   -1.7588   57.7308   35.9795 H   0  0  0  0  0  0
   -1.8118   60.1622   36.4321 H   0  0  0  0  0  0
   -0.4082   61.6918   35.1462 H   0  0  0  0  0  0
   -9.2245   56.1440   34.7071 H   0  0  0  0  0  0
   -5.3242   58.0594   34.2426 H   0  0  0  0  0  0
   -4.9480   56.3685   34.1005 H   0  0  0  0  0  0
  1  2  1  0  0  0
  1 33  1  0  0  0
  1 34  1  0  0  0
  1 35  1  0  0  0
  2  3  1  0  0  0
  2  5  1  0  0  0
  2 36  1  0  0  0
  3  4  1  0  0  0
  3 37  1  0  0  0
  3 38  1  0  0  0
  4 39  1  0  0  0
  5  6  2  0  0  0
  6  7  1  0  0  0
  6 32  1  0  0  0
  7 11  2  0  0  0
  7  8  1  0  0  0
  8  9  2  0  0  0
  8 31  1  0  0  0
  9 10  1  0  0  0
 10 11  1  0  0  0
 11 12  1  0  0  0
 12 13  1  0  0  0
 12 40  1  0  0  0
 13 18  1  0  0  0
 13 14  2  0  0  0
 14 15  1  0  0  0
 14 41  1  0  0  0
 15 16  2  0  0  0
 15 42  1  0  0  0
 16 17  1  0  0  0
 16 19  1  0  0  0
 17 18  2  0  0  0
 17 43  1  0  0  0
 18 44  1  0  0  0
 19 20  1  0  0  0
 20 25  1  0  0  0
 20 21  2  0  0  0
 21 22  1  0  0  0
 21 45  1  0  0  0
 22 23  2  0  0  0
 22 46  1  0  0  0
 23 24  1  0  0  0
 23 47  1  0  0  0
 24 25  2  0  0  0
 24 27  1  0  0  0
 25 26  1  0  0  0
 27 28  1  0  0  0
 27 29  1  0  0  0
 27 30  1  0  0  0
 31 48  1  0  0  0
 32 49  1  0  0  0
 32 50  1  0  0  0
M  END
> <s_m_entry_id>
66091

> <s_m_entry_name>
ligand_docking-pose.147

> <s_m_Source_Path>
/home/csk/Desktop/cluster/DUD-E-result/mp2k1

> <s_m_Source_File>
ligand_docking-pose.sdf

> <i_m_Source_File_Index>
147

> <i_lp_mmshare_version>
53161

> <r_lp_tautomer_probability>
1

> <s_lp_Force_Field>
OPLS_2005

> <r_lp_Energy>
26.028827

> <b_lp_Chiralities_Consistent>
1

> <s_lp_Variant>
363008-1

> <s_i_glide_gridfile>
glide-grid_3eqh

> <i_i_glide_lignum>
265

> <i_i_glide_rotatable_bonds>
10

> <r_i_docking_score>
-7.12794953507341

> <r_i_glide_ligand_efficiency>
-0.222748422971044

> <r_i_glide_ligand_efficiency_sa>
-0.707182161080017

> <r_i_glide_ligand_efficiency_ln>
-1.59614220146889

> <r_i_glide_gscore>
-7.12794953507341

> <r_i_glide_lipo>
-3.71480604013527

> <r_i_glide_hbond>
0

> <r_i_glide_metal>
0

> <r_i_glide_rewards>
-0.512427636129951

> <r_i_glide_evdw>
-50.1702575683594

> <r_i_glide_ecoul>
-6.84155607223511

> <r_i_glide_erotb>
0.639068381884558

> <r_i_glide_esite>
-0.00503795143951163

> <r_i_glide_emodel>
-77.3192179363897

> <r_i_glide_energy>
-57.0118136405945

> <r_i_glide_einternal>
14.822244644165

> <i_i_glide_confnum>
112

> <i_i_glide_posenum>
335

> <r_i_glide_eff_state_penalty>
0

> <i_f3d_flags>
0

> <s_user_duplicate_titles>
363008

> <s_m_subgroup_title>
dock_pv

> <s_m_subgroupid>
dock_pv1

> <b_m_subgroup_collapsed>
0

$$$$
353911
                    3D
 Schrodinger Suite 2021-1.
 51 53  0  0  1  0            999 V2000
   -1.1260   62.1495   36.6724 C   0  0  0  0  0  0
   -0.8517   60.9344   35.9950 O   0  0  0  0  0  0
    0.0719   60.8731   34.9630 C   0  0  0  0  0  0
    1.0806   61.8277   34.7076 C   0  0  0  0  0  0
    1.9479   61.7037   33.6123 C   0  0  0  0  0  0
    1.8334   60.5680   32.8105 C   0  0  0  0  0  0
    0.8912   59.5949   33.0950 C   0  0  0  0  0  0
    0.0095   59.7285   34.1617 C   0  0  0  0  0  0
   -0.9989   58.7769   34.3938 N   0  0  0  0  0  0
   -0.9892   57.4103   34.2280 C   0  0  0  0  0  0
   -2.0844   56.5540   34.1463 C   0  0  0  0  0  0
   -1.6454   55.2179   34.1209 C   0  0  0  0  0  0
   -0.3560   54.9741   34.0524 N   0  0  0  0  0  0
    0.4702   56.4644   34.1630 S   0  0  0  0  0  0
   -2.4585   54.1181   34.1630 O   0  0  0  0  0  0
   -3.4914   56.9858   34.0889 C   0  0  0  0  0  0
   -3.9260   57.6913   35.0367 N   0  0  0  0  0  0
   -4.1918   56.5836   32.9618 N   0  0  0  0  0  0
   -3.6120   55.9823   31.7629 C   0  0  0  0  0  0
   -4.6031   55.7697   30.5975 C   0  0  0  0  0  0
   -3.9173   55.0330   29.4195 C   0  0  0  0  0  0
   -3.5815   53.5716   29.7888 C   0  0  0  0  0  0
   -4.8440   52.8141   30.2422 C   0  0  0  0  0  0
   -5.6050   53.5427   31.3686 C   0  0  0  0  0  0
   -5.8972   55.0081   30.9844 C   0  0  0  0  0  0
    2.9618   62.7408   33.2989 N   0  3  0  0  0  0
    3.2740   63.5480   34.1630 O   0  5  0  0  0  0
    3.4605   62.7480   32.1811 O   0  0  0  0  0  0
   -1.5260   61.9118   37.6532 H   0  0  0  0  0  0
   -0.2531   62.7480   36.8894 H   0  0  0  0  0  0
   -1.8522   62.7480   36.1213 H   0  0  0  0  0  0
    1.2330   62.6719   35.3549 H   0  0  0  0  0  0
    2.4801   60.4113   31.9657 H   0  0  0  0  0  0
    0.8305   58.7480   32.4543 H   0  0  0  0  0  0
   -1.8075   59.2011   34.8316 H   0  0  0  0  0  0
   -3.3675   54.3995   34.2881 H   0  0  0  0  0  0
   -4.8984   57.9097   34.8873 H   0  0  0  0  0  0
   -5.1455   56.8914   32.8456 H   0  0  0  0  0  0
   -3.2167   55.0133   32.0446 H   0  0  0  0  0  0
   -2.7493   56.5585   31.4253 H   0  0  0  0  0  0
   -4.9189   56.7480   30.2337 H   0  0  0  0  0  0
   -3.0075   55.5574   29.1260 H   0  0  0  0  0  0
   -4.5646   55.0322   28.5474 H   0  0  0  0  0  0
   -2.8198   53.5480   30.5630 H   0  0  0  0  0  0
   -3.1260   53.0392   28.9630 H   0  0  0  0  0  0
   -4.5695   51.8153   30.5630 H   0  0  0  0  0  0
   -5.5096   52.6839   29.3874 H   0  0  0  0  0  0
   -5.0222   53.5067   32.2902 H   0  0  0  0  0  0
   -6.5388   53.0215   31.5832 H   0  0  0  0  0  0
   -6.6048   55.0350   30.1541 H   0  0  0  0  0  0
   -6.3947   55.4990   31.8213 H   0  0  0  0  0  0
  1  2  1  0  0  0
  1 29  1  0  0  0
  1 30  1  0  0  0
  1 31  1  0  0  0
  2  3  1  0  0  0
  3  8  1  0  0  0
  3  4  2  0  0  0
  4  5  1  0  0  0
  4 32  1  0  0  0
  5  6  2  0  0  0
  5 26  1  0  0  0
  6  7  1  0  0  0
  6 33  1  0  0  0
  7  8  2  0  0  0
  7 34  1  0  0  0
  8  9  1  0  0  0
  9 10  1  0  0  0
  9 35  1  0  0  0
 10 14  1  0  0  0
 10 11  2  0  0  0
 11 12  1  0  0  0
 11 16  1  0  0  0
 12 13  2  0  0  0
 12 15  1  0  0  0
 13 14  1  0  0  0
 15 36  1  0  0  0
 16 17  2  3  0  0
 16 18  1  0  0  0
 17 37  1  0  0  0
 18 19  1  0  0  0
 18 38  1  0  0  0
 19 20  1  0  0  0
 19 39  1  0  0  0
 19 40  1  0  0  0
 20 25  1  0  0  0
 20 21  1  0  0  0
 20 41  1  0  0  0
 21 22  1  0  0  0
 21 42  1  0  0  0
 21 43  1  0  0  0
 22 23  1  0  0  0
 22 44  1  0  0  0
 22 45  1  0  0  0
 23 24  1  0  0  0
 23 46  1  0  0  0
 23 47  1  0  0  0
 24 25  1  0  0  0
 24 48  1  0  0  0
 24 49  1  0  0  0
 25 50  1  0  0  0
 25 51  1  0  0  0
 26 27  1  0  0  0
 26 28  2  0  0  0
M  CHG  2  26   1  27  -1
M  END
> <s_m_entry_id>
66092

> <s_m_entry_name>
ligand_docking-pose.148

> <s_m_Source_Path>
/home/csk/Desktop/cluster/DUD-E-result/mp2k1

> <s_m_Source_File>
ligand_docking-pose.sdf

> <i_m_Source_File_Index>
148

> <i_lp_mmshare_version>
53161

> <r_lp_tautomer_probability>
1

> <s_lp_Force_Field>
OPLS_2005

> <r_lp_Energy>
23.667271

> <b_lp_Chiralities_Consistent>
1

> <s_lp_Variant>
353911-1

> <s_i_glide_gridfile>
glide-grid_3eqh

> <i_i_glide_lignum>
402

> <i_i_glide_rotatable_bonds>
9

> <r_i_docking_score>
-7.11227248035307

> <r_i_glide_ligand_efficiency>
-0.254009731441181

> <r_i_glide_ligand_efficiency_sa>
-0.771323148386654

> <r_i_glide_ligand_efficiency_ln>
-1.64172131385954

> <r_i_glide_gscore>
-7.11227248035307

> <r_i_glide_lipo>
-3.49948290249998

> <r_i_glide_hbond>
-0.00488109775610596

> <r_i_glide_metal>
0

> <r_i_glide_rewards>
-1.40757209927786

> <r_i_glide_evdw>
-45.784553527832

> <r_i_glide_ecoul>
-3.39200520515442

> <r_i_glide_erotb>
0.597692076345639

> <r_i_glide_esite>
0

> <r_i_glide_emodel>
-64.1352183178808

> <r_i_glide_energy>
-49.1765587329865

> <r_i_glide_einternal>
7.28459215164185

> <i_i_glide_confnum>
211

> <i_i_glide_posenum>
145

> <r_i_glide_eff_state_penalty>
0

> <i_f3d_flags>
0

> <s_user_duplicate_titles>
353911

> <s_m_subgroup_title>
dock_pv

> <s_m_subgroupid>
dock_pv1

> <b_m_subgroup_collapsed>
0

$$$$
647823
                    3D
 Schrodinger Suite 2021-1.
 33 34  0  0  1  0            999 V2000
    1.5369   63.7979   32.8312 C   0  0  0  0  0  0
    2.1444   62.4042   32.9263 C   0  0  0  0  0  0
    3.3053   62.2577   32.5630 O   0  0  0  0  0  0
    1.3099   61.3299   33.4711 C   0  0  0  0  0  0
    0.3009   61.4269   34.3995 C   0  0  0  0  0  0
   -0.1528   60.1404   34.7141 C   0  0  0  0  0  0
    0.5703   59.2511   33.9106 C   0  0  0  0  0  0
    1.4785   59.9860   33.1515 N   0  0  0  0  0  0
    2.3853   59.4144   32.1564 C   0  0  0  0  0  0
    0.5309   57.8725   33.8315 N   0  0  0  0  0  0
   -0.5872   57.0309   33.6807 C   0  0  0  0  0  0
   -1.8869   57.5091   33.4618 C   0  0  0  0  0  0
   -2.9634   56.6302   33.3639 C   0  0  0  0  0  0
   -2.7569   55.2616   33.5140 C   0  0  0  0  0  0
   -1.4717   54.7746   33.7442 C   0  0  0  0  0  0
   -0.3866   55.6492   33.7692 C   0  0  0  0  0  0
    0.8609   55.1480   33.9221 F   0  0  0  0  0  0
   -4.3734   53.9479   33.3630 I   0  0  0  0  0  0
   -1.1260   59.8281   35.7263 C   0  0  0  0  0  0
   -1.3539   58.7025   36.1630 O   0  0  0  0  0  0
   -1.7479   60.9487   36.1630 O   0  0  0  0  0  0
    1.6740   64.3420   33.7630 H   0  0  0  0  0  0
    2.0282   64.3534   32.0331 H   0  0  0  0  0  0
    0.4740   63.7455   32.6023 H   0  0  0  0  0  0
   -0.0300   62.3480   34.8549 H   0  0  0  0  0  0
    2.5225   58.3480   32.3096 H   0  0  0  0  0  0
    1.9211   59.5479   31.1821 H   0  0  0  0  0  0
    3.3619   59.8898   32.1630 H   0  0  0  0  0  0
    1.3951   57.3519   33.8309 H   0  0  0  0  0  0
   -2.0825   58.5636   33.3784 H   0  0  0  0  0  0
   -3.9577   57.0122   33.1846 H   0  0  0  0  0  0
   -1.3064   53.7201   33.8861 H   0  0  0  0  0  0
   -1.7072   61.6389   35.4976 H   0  0  0  0  0  0
  1  2  1  0  0  0
  1 22  1  0  0  0
  1 23  1  0  0  0
  1 24  1  0  0  0
  2  3  2  0  0  0
  2  4  1  0  0  0
  4  8  1  0  0  0
  4  5  2  0  0  0
  5  6  1  0  0  0
  5 25  1  0  0  0
  6  7  2  0  0  0
  6 19  1  0  0  0
  7  8  1  0  0  0
  7 10  1  0  0  0
  8  9  1  0  0  0
  9 26  1  0  0  0
  9 27  1  0  0  0
  9 28  1  0  0  0
 10 11  1  0  0  0
 10 29  1  0  0  0
 11 16  1  0  0  0
 11 12  2  0  0  0
 12 13  1  0  0  0
 12 30  1  0  0  0
 13 14  2  0  0  0
 13 31  1  0  0  0
 14 15  1  0  0  0
 14 18  1  0  0  0
 15 16  2  0  0  0
 15 32  1  0  0  0
 16 17  1  0  0  0
 19 20  2  0  0  0
 19 21  1  0  0  0
 21 33  1  0  0  0
M  END
> <s_m_entry_id>
66093

> <s_m_entry_name>
ligand_docking-pose.149

> <s_m_Source_Path>
/home/csk/Desktop/cluster/DUD-E-result/mp2k1

> <s_m_Source_File>
ligand_docking-pose.sdf

> <i_m_Source_File_Index>
149

> <i_lp_mmshare_version>
53161

> <r_lp_tautomer_probability>
0.99995

> <s_lp_Force_Field>
OPLS_2005

> <r_lp_Energy>
23.405105

> <b_lp_Chiralities_Consistent>
1

> <s_lp_Variant>
647823-1

> <s_i_glide_gridfile>
glide-grid_3eqh

> <i_i_glide_lignum>
310

> <i_i_glide_rotatable_bonds>
5

> <r_i_docking_score>
-7.10561209141033

> <r_i_glide_ligand_efficiency>
-0.338362480543349

> <r_i_glide_ligand_efficiency_sa>
-0.933516427003962

> <r_i_glide_ligand_efficiency_ln>
-1.75684823136002

> <r_i_glide_gscore>
-7.10561209141033

> <r_i_glide_lipo>
-3.35729433140074

> <r_i_glide_hbond>
0

> <r_i_glide_metal>
0

> <r_i_glide_rewards>
-1.65801948228048

> <r_i_glide_evdw>
-37.5488319396973

> <r_i_glide_ecoul>
-3.54724216461182

> <r_i_glide_erotb>
0.36395460650014

> <r_i_glide_esite>
-0.0447249625526161

> <r_i_glide_emodel>
-60.4151030621443

> <r_i_glide_energy>
-41.0960741043091

> <r_i_glide_einternal>
3.01756620407104

> <i_i_glide_confnum>
1

> <i_i_glide_posenum>
200

> <r_i_glide_eff_state_penalty>
0

> <i_f3d_flags>
0

> <s_user_duplicate_titles>
647823

> <s_m_subgroup_title>
dock_pv

> <s_m_subgroupid>
dock_pv1

> <b_m_subgroup_collapsed>
0

$$$$
335952
                    3D
 Schrodinger Suite 2021-1.
 42 44  0  0  1  0            999 V2000
    0.7981   57.9852   34.1037 C   0  0  0  0  0  0
   -0.4030   57.1519   33.9974 N   0  0  0  0  0  0
   -1.6409   57.6547   34.3079 C   0  0  0  0  0  0
   -2.8084   56.9679   34.2743 C   0  0  0  0  0  0
   -2.7289   55.5712   33.8087 C   0  0  0  0  0  0
   -1.4924   55.0709   33.5728 C   0  0  0  0  0  0
   -0.2445   55.8025   33.7631 C   0  0  0  0  0  0
    0.8300   55.1960   33.7627 O   0  0  0  0  0  0
   -3.8361   54.7814   33.5692 N   0  0  0  0  0  0
   -4.3229   54.3526   32.3201 C   0  0  0  0  0  0
   -3.8291   54.8749   31.1137 C   0  0  0  0  0  0
   -4.3121   54.4117   29.8882 C   0  0  0  0  0  0
   -5.2915   53.4190   29.8558 C   0  0  0  0  0  0
   -5.8036   52.9104   31.0484 C   0  0  0  0  0  0
   -5.3286   53.3763   32.2747 C   0  0  0  0  0  0
   -5.8519   52.8672   33.4153 F   0  0  0  0  0  0
   -5.9301   52.7484   28.1913 Br  0  0  0  0  0  0
   -4.0000   57.5893   34.8128 C   0  0  0  0  0  0
   -3.9262   58.3469   35.7843 O   0  0  0  0  0  0
   -5.1465   57.3066   34.1633 N   0  0  0  0  0  0
   -6.3518   57.5478   34.8257 O   0  0  0  0  0  0
   -7.4148   57.7742   33.9059 C   0  0  0  0  0  0
   -7.4149   59.1731   33.2622 C   0  0  0  0  0  0
   -6.8185   59.4044   31.8944 C   0  0  0  0  0  0
   -8.3228   59.4089   32.0814 C   0  0  0  0  0  0
    0.6259   58.9503   33.6252 H   0  0  0  0  0  0
    1.0427   58.1649   35.1514 H   0  0  0  0  0  0
    1.6678   57.5482   33.6208 H   0  0  0  0  0  0
   -1.5638   58.6617   34.7021 H   0  0  0  0  0  0
   -1.3935   54.0522   33.2432 H   0  0  0  0  0  0
   -4.3783   54.4548   34.3590 H   0  0  0  0  0  0
   -3.0694   55.6436   31.1172 H   0  0  0  0  0  0
   -3.9269   54.8257   28.9666 H   0  0  0  0  0  0
   -6.5699   52.1499   31.0262 H   0  0  0  0  0  0
   -5.1943   56.4549   33.6231 H   0  0  0  0  0  0
   -8.3312   57.6775   34.4888 H   0  0  0  0  0  0
   -7.4565   56.9831   33.1531 H   0  0  0  0  0  0
   -7.3912   59.9688   34.0063 H   0  0  0  0  0  0
   -6.3495   58.5648   31.3762 H   0  0  0  0  0  0
   -6.3286   60.3475   31.6723 H   0  0  0  0  0  0
   -8.8802   60.3451   32.0503 H   0  0  0  0  0  0
   -8.8989   58.5711   31.6855 H   0  0  0  0  0  0
  1  2  1  0  0  0
  1 26  1  0  0  0
  1 27  1  0  0  0
  1 28  1  0  0  0
  2  7  1  0  0  0
  2  3  1  0  0  0
  3  4  2  0  0  0
  3 29  1  0  0  0
  4  5  1  0  0  0
  4 18  1  0  0  0
  5  6  2  0  0  0
  5  9  1  0  0  0
  6  7  1  0  0  0
  6 30  1  0  0  0
  7  8  2  0  0  0
  9 10  1  0  0  0
  9 31  1  0  0  0
 10 15  1  0  0  0
 10 11  2  0  0  0
 11 12  1  0  0  0
 11 32  1  0  0  0
 12 13  2  0  0  0
 12 33  1  0  0  0
 13 14  1  0  0  0
 13 17  1  0  0  0
 14 15  2  0  0  0
 14 34  1  0  0  0
 15 16  1  0  0  0
 18 19  2  0  0  0
 18 20  1  0  0  0
 20 21  1  0  0  0
 20 35  1  0  0  0
 21 22  1  0  0  0
 22 23  1  0  0  0
 22 36  1  0  0  0
 22 37  1  0  0  0
 23 25  1  0  0  0
 23 24  1  0  0  0
 23 38  1  0  0  0
 24 25  1  0  0  0
 24 39  1  0  0  0
 24 40  1  0  0  0
 25 41  1  0  0  0
 25 42  1  0  0  0
M  END
> <s_m_entry_id>
66094

> <s_m_entry_name>
ligand_docking-pose.150

> <s_m_Source_Path>
/home/csk/Desktop/cluster/DUD-E-result/mp2k1

> <s_m_Source_File>
ligand_docking-pose.sdf

> <i_m_Source_File_Index>
150

> <i_lp_mmshare_version>
53161

> <r_lp_tautomer_probability>
0.999999999982488

> <s_lp_Force_Field>
OPLS_2005

> <r_lp_Energy>
44.650885

> <b_lp_Chiralities_Consistent>
1

> <s_lp_Variant>
335952-1

> <s_i_glide_gridfile>
glide-grid_3eqh

> <i_i_glide_lignum>
335

> <i_i_glide_rotatable_bonds>
7

> <r_i_docking_score>
-7.02961380070272

> <r_i_glide_ligand_efficiency>
-0.281184552028109

> <r_i_glide_ligand_efficiency_sa>
-0.822188616959454

> <r_i_glide_ligand_efficiency_ln>
-1.66622913129289

> <r_i_glide_gscore>
-7.02961380070272

> <r_i_glide_lipo>
-2.72900269872754

> <r_i_glide_hbond>
-0.625976529941977

> <r_i_glide_metal>
0

> <r_i_glide_rewards>
-0.636139943568943

> <r_i_glide_evdw>
-42.4051284790039

> <r_i_glide_ecoul>
-10.7412166595459

> <r_i_glide_erotb>
0.702278617195371

> <r_i_glide_esite>
-0.00933432277755065

> <r_i_glide_emodel>
-68.9176005360364

> <r_i_glide_energy>
-53.1463451385498

> <r_i_glide_einternal>
10.1402587890625

> <i_i_glide_confnum>
4

> <i_i_glide_posenum>
380

> <r_i_glide_eff_state_penalty>
0

> <i_f3d_flags>
0

> <s_user_duplicate_titles>
335952

> <s_m_subgroup_title>
dock_pv

> <s_m_subgroupid>
dock_pv1

> <b_m_subgroup_collapsed>
0

$$$$
363012
                    3D
 Schrodinger Suite 2021-1.
 55 57  0  0  1  0            999 V2000
   -8.1498   51.0639   28.5485 C   0  0  0  0  0  0
   -6.9218   51.9234   28.9116 C   0  0  2  0  0  0
   -5.6887   51.0655   29.3165 C   0  0  0  0  0  0
   -5.2523   50.2656   28.2351 O   0  0  0  0  0  0
   -7.3400   52.8033   29.9932 N   0  0  0  0  0  0
   -6.6529   53.8349   30.2908 C   0  0  0  0  0  0
   -7.1556   54.6966   31.3667 C   0  0  0  0  0  0
   -8.4958   55.0958   31.5174 C   0  0  0  0  0  0
   -8.8200   55.8871   32.5122 N   0  0  0  0  0  0
   -7.4065   56.2245   33.4078 S   0  0  0  0  0  0
   -6.3773   55.2658   32.3771 C   0  0  0  0  0  0
   -5.0326   55.0555   32.6000 N   0  0  0  0  0  0
   -4.0658   55.8151   33.2659 C   0  0  0  0  0  0
   -4.2096   57.1765   33.5483 C   0  0  0  0  0  0
   -3.1986   57.8593   34.2212 C   0  0  0  0  0  0
   -2.0341   57.1837   34.5947 C   0  0  0  0  0  0
   -1.8729   55.8405   34.2578 C   0  0  0  0  0  0
   -2.8823   55.1570   33.5992 C   0  0  0  0  0  0
   -1.0623   57.7693   35.3712 O   0  0  0  0  0  0
   -0.6257   59.0343   35.0824 C   0  0  0  0  0  0
   -1.1492   60.1336   35.7556 C   0  0  0  0  0  0
   -0.7081   61.4161   35.4350 C   0  0  0  0  0  0
    0.3219   61.5763   34.5069 C   0  0  0  0  0  0
    0.9208   60.4767   33.8706 C   0  0  0  0  0  0
    0.3961   59.2069   34.1535 C   0  0  0  0  0  0
    2.0255   60.6380   32.9951 N   0  0  0  0  0  0
    2.4742   59.5246   32.1637 C   0  0  0  0  0  0
    2.5178   61.9722   32.6491 C   0  0  0  0  0  0
   -9.5230   54.7197   30.6928 O   0  0  0  0  0  0
   -5.4767   54.3243   29.7649 N   0  0  0  0  0  0
   -7.9263   50.3395   27.7685 H   0  0  0  0  0  0
   -8.5045   50.4964   29.4117 H   0  0  0  0  0  0
   -8.9756   51.6798   28.1956 H   0  0  0  0  0  0
   -6.6628   52.5179   28.0298 H   0  0  0  0  0  0
   -5.9274   50.4250   30.1657 H   0  0  0  0  0  0
   -4.8489   51.6908   29.6171 H   0  0  0  0  0  0
   -5.8055   49.4837   28.2292 H   0  0  0  0  0  0
   -4.6335   54.2196   32.2028 H   0  0  0  0  0  0
   -5.0891   57.7180   33.2455 H   0  0  0  0  0  0
   -3.3199   58.9024   34.4615 H   0  0  0  0  0  0
   -0.9753   55.3158   34.5481 H   0  0  0  0  0  0
   -2.7525   54.1071   33.3776 H   0  0  0  0  0  0
   -1.9275   59.9966   36.4898 H   0  0  0  0  0  0
   -1.1396   62.2906   35.9099 H   0  0  0  0  0  0
    0.6505   62.5837   34.3093 H   0  0  0  0  0  0
    0.7734   58.3157   33.6784 H   0  0  0  0  0  0
    1.7762   59.3715   31.3457 H   0  0  0  0  0  0
    3.4644   59.7198   31.7631 H   0  0  0  0  0  0
    2.5449   58.5893   32.7145 H   0  0  0  0  0  0
    2.6359   62.6053   33.5275 H   0  0  0  0  0  0
    3.4928   61.9249   32.1624 H   0  0  0  0  0  0
    1.8183   62.4691   31.9770 H   0  0  0  0  0  0
   -9.1725   54.1016   30.0500 H   0  0  0  0  0  0
   -5.0664   53.8905   28.9533 H   0  0  0  0  0  0
   -5.1693   55.2504   30.0320 H   0  0  0  0  0  0
  1  2  1  0  0  0
  1 31  1  0  0  0
  1 32  1  0  0  0
  1 33  1  0  0  0
  2  3  1  0  0  0
  2  5  1  0  0  0
  2 34  1  0  0  0
  3  4  1  0  0  0
  3 35  1  0  0  0
  3 36  1  0  0  0
  4 37  1  0  0  0
  5  6  2  0  0  0
  6  7  1  0  0  0
  6 30  1  0  0  0
  7 11  2  0  0  0
  7  8  1  0  0  0
  8  9  2  0  0  0
  8 29  1  0  0  0
  9 10  1  0  0  0
 10 11  1  0  0  0
 11 12  1  0  0  0
 12 13  1  0  0  0
 12 38  1  0  0  0
 13 18  1  0  0  0
 13 14  2  0  0  0
 14 15  1  0  0  0
 14 39  1  0  0  0
 15 16  2  0  0  0
 15 40  1  0  0  0
 16 17  1  0  0  0
 16 19  1  0  0  0
 17 18  2  0  0  0
 17 41  1  0  0  0
 18 42  1  0  0  0
 19 20  1  0  0  0
 20 25  1  0  0  0
 20 21  2  0  0  0
 21 22  1  0  0  0
 21 43  1  0  0  0
 22 23  2  0  0  0
 22 44  1  0  0  0
 23 24  1  0  0  0
 23 45  1  0  0  0
 24 25  2  0  0  0
 24 26  1  0  0  0
 25 46  1  0  0  0
 26 27  1  0  0  0
 26 28  1  0  0  0
 27 47  1  0  0  0
 27 48  1  0  0  0
 27 49  1  0  0  0
 28 50  1  0  0  0
 28 51  1  0  0  0
 28 52  1  0  0  0
 29 53  1  0  0  0
 30 54  1  0  0  0
 30 55  1  0  0  0
M  END
> <s_m_entry_id>
66095

> <s_m_entry_name>
ligand_docking-pose.151

> <s_m_Source_Path>
/home/csk/Desktop/cluster/DUD-E-result/mp2k1

> <s_m_Source_File>
ligand_docking-pose.sdf

> <i_m_Source_File_Index>
151

> <i_lp_mmshare_version>
53161

> <r_lp_tautomer_probability>
1

> <s_lp_Force_Field>
OPLS_2005

> <r_lp_Energy>
28.185538

> <b_lp_Chiralities_Consistent>
1

> <s_lp_Variant>
363012-1

> <s_i_glide_gridfile>
glide-grid_3eqh

> <i_i_glide_lignum>
275

> <i_i_glide_rotatable_bonds>
10

> <r_i_docking_score>
-7.00538369171809

> <r_i_glide_ligand_efficiency>
-0.233512789723936

> <r_i_glide_ligand_efficiency_sa>
-0.725578529963572

> <r_i_glide_ligand_efficiency_ln>
-1.59169950452721

> <r_i_glide_gscore>
-7.00538369171809

> <r_i_glide_lipo>
-3.08591912040676

> <r_i_glide_hbond>
-0.116938883111798

> <r_i_glide_metal>
0

> <r_i_glide_rewards>
-0.94410151255646

> <r_i_glide_evdw>
-46.3077430725098

> <r_i_glide_ecoul>
-8.63380432128906

> <r_i_glide_erotb>
0.760443764155183

> <r_i_glide_esite>
-0.00841013797941459

> <r_i_glide_emodel>
-72.0408657863236

> <r_i_glide_energy>
-54.9415473937988

> <r_i_glide_einternal>
6.21236896514893

> <i_i_glide_confnum>
15

> <i_i_glide_posenum>
94

> <r_i_glide_eff_state_penalty>
0

> <i_f3d_flags>
0

> <s_user_duplicate_titles>
363012

> <s_m_subgroup_title>
dock_pv

> <s_m_subgroupid>
dock_pv1

> <b_m_subgroup_collapsed>
0

$$$$
333239
                    3D
 Schrodinger Suite 2021-1.
 61 65  0  0  1  0            999 V2000
    1.3293   61.4028   32.7333 C   0  0  0  0  0  0
    1.7402   60.0820   32.5617 C   0  0  0  0  0  0
    1.2010   59.0807   33.3631 C   0  0  0  0  0  0
    0.2527   59.4107   34.3291 C   0  0  0  0  0  0
   -0.1580   60.7306   34.5051 C   0  0  0  0  0  0
    0.3802   61.7296   33.6999 C   0  0  0  0  0  0
   -0.4069   58.1476   35.3627 S   0  0  0  0  0  0
   -2.0564   57.9549   34.7617 C   0  0  0  0  0  0
   -3.1169   57.9785   35.6617 C   0  0  0  0  0  0
   -4.4196   57.8356   35.1896 C   0  0  0  0  0  0
   -4.6893   57.6284   33.8400 C   0  0  0  0  0  0
   -3.6091   57.5480   32.9631 C   0  0  0  0  0  0
   -2.2987   57.7392   33.4079 C   0  0  0  0  0  0
   -5.9849   57.5825   33.2839 N   0  0  0  0  0  0
   -7.1390   56.8123   33.5864 C   0  0  0  0  0  0
   -7.5529   55.8230   32.6311 C   0  0  0  0  0  0
   -6.8239   55.5216   31.4498 C   0  0  0  0  0  0
   -7.1860   54.4241   30.6644 C   0  0  0  0  0  0
   -8.3084   53.7032   30.8990 N   0  0  0  0  0  0
   -9.0607   54.0345   31.9741 C   0  0  0  0  0  0
   -8.7252   55.0517   32.8948 C   0  0  0  0  0  0
   -9.4951   55.2445   33.9934 N   0  0  0  0  0  0
   -9.1065   56.1941   34.8711 C   0  0  0  0  0  0
   -7.9661   56.9864   34.7185 C   0  0  0  0  0  0
   -7.7243   57.9730   35.7510 C   0  0  0  0  0  0
   -7.5263   58.7483   36.5804 N   0  0  0  0  0  0
   -6.2977   53.8786   29.7258 N   0  0  0  0  0  0
   -4.9836   54.4671   29.4423 C   0  0  0  0  0  0
   -3.7990   54.0562   30.3526 C   0  0  0  0  0  0
   -3.9661   54.3478   31.7886 N   0  0  0  0  0  0
   -4.7344   53.3060   32.5002 C   0  0  0  0  0  0
   -4.7795   53.5781   33.9995 C   0  0  0  0  0  0
   -3.4547   53.5481   34.5072 O   0  0  0  0  0  0
   -2.6620   54.5901   33.9871 C   0  0  0  0  0  0
   -2.6734   54.6444   32.4322 C   0  0  0  0  0  0
    1.7501   62.1786   32.1107 H   0  0  0  0  0  0
    2.4708   59.8342   31.8048 H   0  0  0  0  0  0
    1.5125   58.0557   33.2269 H   0  0  0  0  0  0
   -0.8996   60.9805   35.2508 H   0  0  0  0  0  0
    0.0565   62.7507   33.8262 H   0  0  0  0  0  0
   -2.9352   58.1387   36.7146 H   0  0  0  0  0  0
   -5.2174   57.9480   35.8841 H   0  0  0  0  0  0
   -3.7886   57.3730   31.9125 H   0  0  0  0  0  0
   -1.4792   57.7001   32.7041 H   0  0  0  0  0  0
   -5.8876   57.6102   32.2788 H   0  0  0  0  0  0
   -5.9171   56.0631   31.2415 H   0  0  0  0  0  0
   -9.9434   53.4347   32.1428 H   0  0  0  0  0  0
   -9.7610   56.3078   35.7266 H   0  0  0  0  0  0
   -6.4792   52.9361   29.4173 H   0  0  0  0  0  0
   -4.7387   54.1893   28.4172 H   0  0  0  0  0  0
   -5.0340   55.5538   29.3986 H   0  0  0  0  0  0
   -3.5464   53.0082   30.1873 H   0  0  0  0  0  0
   -2.9414   54.6233   29.9863 H   0  0  0  0  0  0
   -5.7450   53.1961   32.1371 H   0  0  0  0  0  0
   -4.3292   52.3161   32.3462 H   0  0  0  0  0  0
   -5.3805   52.8280   34.5099 H   0  0  0  0  0  0
   -5.2577   54.5446   34.1631 H   0  0  0  0  0  0
   -1.6402   54.4692   34.3492 H   0  0  0  0  0  0
   -3.0338   55.4926   34.4495 H   0  0  0  0  0  0
   -1.9263   53.9468   32.1026 H   0  0  0  0  0  0
   -2.2873   55.5797   32.0385 H   0  0  0  0  0  0
  1  6  1  0  0  0
  1  2  2  0  0  0
  1 36  1  0  0  0
  2  3  1  0  0  0
  2 37  1  0  0  0
  3  4  2  0  0  0
  3 38  1  0  0  0
  4  5  1  0  0  0
  4  7  1  0  0  0
  5  6  2  0  0  0
  5 39  1  0  0  0
  6 40  1  0  0  0
  7  8  1  0  0  0
  8 13  1  0  0  0
  8  9  2  0  0  0
  9 10  1  0  0  0
  9 41  1  0  0  0
 10 11  2  0  0  0
 10 42  1  0  0  0
 11 12  1  0  0  0
 11 14  1  0  0  0
 12 13  2  0  0  0
 12 43  1  0  0  0
 13 44  1  0  0  0
 14 15  1  0  0  0
 14 45  1  0  0  0
 15 24  1  0  0  0
 15 16  2  0  0  0
 16 21  1  0  0  0
 16 17  1  0  0  0
 17 18  2  0  0  0
 17 46  1  0  0  0
 18 19  1  0  0  0
 18 27  1  0  0  0
 19 20  2  0  0  0
 20 21  1  0  0  0
 20 47  1  0  0  0
 21 22  2  0  0  0
 22 23  1  0  0  0
 23 24  2  0  0  0
 23 48  1  0  0  0
 24 25  1  0  0  0
 25 26  3  0  0  0
 27 28  1  0  0  0
 27 49  1  0  0  0
 28 29  1  0  0  0
 28 50  1  0  0  0
 28 51  1  0  0  0
 29 30  1  0  0  0
 29 52  1  0  0  0
 29 53  1  0  0  0
 30 35  1  0  0  0
 30 31  1  0  0  0
 31 32  1  0  0  0
 31 54  1  0  0  0
 31 55  1  0  0  0
 32 33  1  0  0  0
 32 56  1  0  0  0
 32 57  1  0  0  0
 33 34  1  0  0  0
 34 35  1  0  0  0
 34 58  1  0  0  0
 34 59  1  0  0  0
 35 60  1  0  0  0
 35 61  1  0  0  0
M  END
> <s_m_entry_id>
66096

> <s_m_entry_name>
ligand_docking-pose.152

> <s_m_Source_Path>
/home/csk/Desktop/cluster/DUD-E-result/mp2k1

> <s_m_Source_File>
ligand_docking-pose.sdf

> <i_m_Source_File_Index>
152

> <i_lp_mmshare_version>
53161

> <r_lp_tautomer_probability>
1

> <s_lp_Force_Field>
OPLS_2005

> <r_lp_Energy>
41.92152

> <b_lp_Chiralities_Consistent>
1

> <s_lp_Variant>
333239-1

> <s_i_glide_gridfile>
glide-grid_3eqh

> <i_i_glide_lignum>
114

> <i_i_glide_rotatable_bonds>
8

> <r_i_docking_score>
-7.00421407947196

> <r_i_glide_ligand_efficiency>
-0.200120402270627

> <r_i_glide_ligand_efficiency_sa>
-0.654607105073052

> <r_i_glide_ligand_efficiency_ln>
-1.53758044060016

> <r_i_glide_gscore>
-7.00421407947196

> <r_i_glide_lipo>
-4.16669084812057

> <r_i_glide_hbond>
0

> <r_i_glide_metal>
0

> <r_i_glide_rewards>
-0.745799435592667

> <r_i_glide_evdw>
-45.0166854858398

> <r_i_glide_ecoul>
-2.90114235877991

> <r_i_glide_erotb>
0.609964809169668

> <r_i_glide_esite>
-0.0156829768194101

> <r_i_glide_emodel>
-60.688639377902

> <r_i_glide_energy>
-47.9178278446198

> <r_i_glide_einternal>
19.3743686676025

> <i_i_glide_confnum>
67

> <i_i_glide_posenum>
166

> <r_i_glide_eff_state_penalty>
0

> <i_f3d_flags>
0

> <s_user_duplicate_titles>
333239

> <s_m_subgroup_title>
dock_pv

> <s_m_subgroupid>
dock_pv1

> <b_m_subgroup_collapsed>
0

$$$$
363050
                    3D
 Schrodinger Suite 2021-1.
 51 54  0  0  1  0            999 V2000
   -2.1993   55.0213   33.4906 C   0  0  0  0  0  0
   -0.9724   55.6325   33.7626 C   0  0  0  0  0  0
   -0.8749   57.0242   33.8518 C   0  0  0  0  0  0
   -2.0485   57.7865   33.7122 C   0  0  0  0  0  0
   -3.2696   57.1834   33.4631 C   0  0  0  0  0  0
   -3.3425   55.8046   33.3268 C   0  0  0  0  0  0
   -4.5993   55.2526   33.0675 N   0  0  0  0  0  0
   -5.0635   54.7638   31.8680 C   0  0  0  0  0  0
   -6.3992   54.6456   31.4557 C   0  0  0  0  0  0
   -6.4279   54.0089   30.1950 C   0  0  0  0  0  0
   -5.2968   53.7175   29.5943 N   0  0  0  0  0  0
   -4.0146   54.2815   30.5639 S   0  0  0  0  0  0
   -7.5568   53.6531   29.5092 O   0  0  0  0  0  0
   -7.5768   55.1531   32.2076 C   0  0  0  0  0  0
   -7.4989   55.2039   33.4822 N   0  0  0  0  0  0
   -8.5759   55.7707   34.2908 C   0  0  0  0  0  0
   -8.1759   57.1786   34.8094 C   0  0  1  0  0  0
   -8.1888   58.2880   33.7505 C   0  0  0  0  0  0
   -8.5796   59.5469   34.4988 C   0  0  0  0  0  0
   -9.0486   59.0536   35.8670 C   0  0  0  0  0  0
   -9.1520   57.6361   35.7466 O   0  0  0  0  0  0
   -8.5908   55.5536   31.3631 N   0  0  0  0  0  0
    0.3880   57.5701   34.0619 O   0  0  0  0  0  0
    0.5758   58.9368   34.1447 C   0  0  0  0  0  0
   -0.1449   59.6847   35.0838 C   0  0  0  0  0  0
   -0.1140   61.0738   35.0654 C   0  0  0  0  0  0
    0.7224   61.7351   34.1670 C   0  0  0  0  0  0
    1.5204   61.0013   33.2884 C   0  0  0  0  0  0
    1.4493   59.6056   33.2699 C   0  0  0  0  0  0
    2.4670   58.7481   32.1659 Cl  0  0  0  0  0  0
   -1.1259   61.9478   36.1595 Cl  0  0  0  0  0  0
   -2.2599   53.9472   33.4109 H   0  0  0  0  0  0
   -0.0875   55.0261   33.8894 H   0  0  0  0  0  0
   -2.0475   58.8617   33.7630 H   0  0  0  0  0  0
   -4.1512   57.7945   33.3444 H   0  0  0  0  0  0
   -5.3095   55.5727   33.7157 H   0  0  0  0  0  0
   -8.3073   54.0234   29.9843 H   0  0  0  0  0  0
   -8.7676   55.1074   35.1340 H   0  0  0  0  0  0
   -9.5323   55.8274   33.7638 H   0  0  0  0  0  0
   -7.2137   57.1018   35.3208 H   0  0  0  0  0  0
   -8.9485   58.0698   32.9981 H   0  0  0  0  0  0
   -7.2485   58.3474   33.1990 H   0  0  0  0  0  0
   -9.3801   60.0804   33.9811 H   0  0  0  0  0  0
   -7.7447   60.2365   34.5985 H   0  0  0  0  0  0
  -10.0060   59.4849   36.1582 H   0  0  0  0  0  0
   -8.3375   59.2990   36.6583 H   0  0  0  0  0  0
   -9.4277   55.9112   31.7955 H   0  0  0  0  0  0
   -8.2991   56.0412   30.5182 H   0  0  0  0  0  0
   -0.7925   59.1812   35.7855 H   0  0  0  0  0  0
    0.7634   62.8132   34.1584 H   0  0  0  0  0  0
    2.1847   61.5167   32.6100 H   0  0  0  0  0  0
  1  6  1  0  0  0
  1  2  2  0  0  0
  1 32  1  0  0  0
  2  3  1  0  0  0
  2 33  1  0  0  0
  3  4  2  0  0  0
  3 23  1  0  0  0
  4  5  1  0  0  0
  4 34  1  0  0  0
  5  6  2  0  0  0
  5 35  1  0  0  0
  6  7  1  0  0  0
  7  8  1  0  0  0
  7 36  1  0  0  0
  8 12  1  0  0  0
  8  9  2  0  0  0
  9 10  1  0  0  0
  9 14  1  0  0  0
 10 11  2  0  0  0
 10 13  1  0  0  0
 11 12  1  0  0  0
 13 37  1  0  0  0
 14 15  2  0  0  0
 14 22  1  0  0  0
 15 16  1  0  0  0
 16 17  1  0  0  0
 16 38  1  0  0  0
 16 39  1  0  0  0
 17 21  1  0  0  0
 17 18  1  0  0  0
 17 40  1  0  0  0
 18 19  1  0  0  0
 18 41  1  0  0  0
 18 42  1  0  0  0
 19 20  1  0  0  0
 19 43  1  0  0  0
 19 44  1  0  0  0
 20 21  1  0  0  0
 20 45  1  0  0  0
 20 46  1  0  0  0
 22 47  1  0  0  0
 22 48  1  0  0  0
 23 24  1  0  0  0
 24 29  1  0  0  0
 24 25  2  0  0  0
 25 26  1  0  0  0
 25 49  1  0  0  0
 26 27  2  0  0  0
 26 31  1  0  0  0
 27 28  1  0  0  0
 27 50  1  0  0  0
 28 29  2  0  0  0
 28 51  1  0  0  0
 29 30  1  0  0  0
M  END
> <s_m_entry_id>
66097

> <s_m_entry_name>
ligand_docking-pose.153

> <s_m_Source_Path>
/home/csk/Desktop/cluster/DUD-E-result/mp2k1

> <s_m_Source_File>
ligand_docking-pose.sdf

> <i_m_Source_File_Index>
153

> <i_lp_mmshare_version>
53161

> <r_lp_tautomer_probability>
1

> <s_lp_Force_Field>
OPLS_2005

> <r_lp_Energy>
38.565671

> <b_lp_Chiralities_Consistent>
1

> <s_lp_Variant>
363050-2

> <s_i_glide_gridfile>
glide-grid_3eqh

> <i_i_glide_lignum>
48

> <i_i_glide_rotatable_bonds>
8

> <r_i_docking_score>
-7.00316160017046

> <r_i_glide_ligand_efficiency>
-0.225908438715176

> <r_i_glide_ligand_efficiency_sa>
-0.709664397779475

> <r_i_glide_ligand_efficiency_ln>
-1.57942756196646

> <r_i_glide_gscore>
-7.00316160017046

> <r_i_glide_lipo>
-4.29302779613938

> <r_i_glide_hbond>
-0.146485615101798

> <r_i_glide_metal>
0

> <r_i_glide_rewards>
-0.377584984638831

> <r_i_glide_evdw>
-53.8277359008789

> <r_i_glide_ecoul>
0.268512070178986

> <r_i_glide_erotb>
0.529266114501184

> <r_i_glide_esite>
-0.0642193342745337

> <r_i_glide_emodel>
-68.7074026314834

> <r_i_glide_energy>
-53.5592238306999

> <r_i_glide_einternal>
15.8877801895142

> <i_i_glide_confnum>
30

> <i_i_glide_posenum>
394

> <r_i_glide_eff_state_penalty>
0

> <i_f3d_flags>
0

> <s_user_duplicate_titles>
363050

> <s_m_subgroup_title>
dock_pv

> <s_m_subgroupid>
dock_pv1

> <b_m_subgroup_collapsed>
0

$$$$
363031
                    3D
 Schrodinger Suite 2021-1.
 47 49  0  0  1  0            999 V2000
   -8.6670   59.2209   35.5239 C   0  0  0  0  0  0
   -7.9739   58.9774   34.1689 C   0  0  2  0  0  0
   -8.5402   59.8872   33.0494 C   0  0  0  0  0  0
   -7.5259   60.3480   32.1631 O   0  0  0  0  0  0
   -8.1623   57.5728   33.8201 N   0  0  0  0  0  0
   -7.1637   56.7779   33.7599 C   0  0  0  0  0  0
   -7.4482   55.3523   33.4861 C   0  0  0  0  0  0
   -8.5474   54.6557   34.0334 C   0  0  0  0  0  0
   -8.7098   53.3844   33.7474 N   0  0  0  0  0  0
   -7.4624   52.9046   32.6898 S   0  0  0  0  0  0
   -6.7079   54.4656   32.6883 C   0  0  0  0  0  0
   -5.6081   54.6704   31.8880 N   0  0  0  0  0  0
   -4.3320   54.9494   32.3941 C   0  0  0  0  0  0
   -3.8435   54.3461   33.5570 C   0  0  0  0  0  0
   -2.6112   54.7373   34.0738 C   0  0  0  0  0  0
   -1.8906   55.7649   33.4691 C   0  0  0  0  0  0
   -2.3594   56.3371   32.2853 C   0  0  0  0  0  0
   -3.5635   55.9060   31.7378 C   0  0  0  0  0  0
   -0.7175   56.1813   34.0568 O   0  0  0  0  0  0
   -0.5177   57.5239   34.3049 C   0  0  0  0  0  0
    0.6227   58.1163   33.7607 C   0  0  0  0  0  0
    0.9106   59.4596   33.9819 C   0  0  0  0  0  0
    0.0740   60.2216   34.7884 C   0  0  0  0  0  0
   -1.0519   59.6370   35.3633 C   0  0  0  0  0  0
   -1.3622   58.2962   35.1241 C   0  0  0  0  0  0
   -2.7824   57.6301   35.8598 Cl  0  0  0  0  0  0
   -1.8411   60.3825   36.1628 F   0  0  0  0  0  0
    1.9988   60.0229   33.4120 F   0  0  0  0  0  0
   -9.4910   55.1952   34.8648 O   0  0  0  0  0  0
   -5.8243   57.0155   33.9648 N   0  0  0  0  0  0
   -8.5592   60.2603   35.8421 H   0  0  0  0  0  0
   -9.7349   59.0018   35.4750 H   0  0  0  0  0  0
   -8.2350   58.5971   36.3075 H   0  0  0  0  0  0
   -6.9270   59.2468   34.3190 H   0  0  0  0  0  0
   -9.0066   60.7480   33.5078 H   0  0  0  0  0  0
   -9.3350   59.3961   32.4852 H   0  0  0  0  0  0
   -7.2250   59.5641   31.6828 H   0  0  0  0  0  0
   -5.7645   55.1105   30.9929 H   0  0  0  0  0  0
   -4.4182   53.5882   34.0693 H   0  0  0  0  0  0
   -2.2264   54.2664   34.9629 H   0  0  0  0  0  0
   -1.7938   57.1133   31.7902 H   0  0  0  0  0  0
   -3.9239   56.3483   30.8212 H   0  0  0  0  0  0
    1.2740   57.5430   33.1228 H   0  0  0  0  0  0
    0.2951   61.2634   34.9701 H   0  0  0  0  0  0
   -9.3651   56.1488   34.8606 H   0  0  0  0  0  0
   -5.4811   57.9478   34.1234 H   0  0  0  0  0  0
   -5.1646   56.2547   33.8797 H   0  0  0  0  0  0
  1  2  1  0  0  0
  1 31  1  0  0  0
  1 32  1  0  0  0
  1 33  1  0  0  0
  2  3  1  0  0  0
  2  5  1  0  0  0
  2 34  1  0  0  0
  3  4  1  0  0  0
  3 35  1  0  0  0
  3 36  1  0  0  0
  4 37  1  0  0  0
  5  6  2  0  0  0
  6  7  1  0  0  0
  6 30  1  0  0  0
  7 11  2  0  0  0
  7  8  1  0  0  0
  8  9  2  0  0  0
  8 29  1  0  0  0
  9 10  1  0  0  0
 10 11  1  0  0  0
 11 12  1  0  0  0
 12 13  1  0  0  0
 12 38  1  0  0  0
 13 18  1  0  0  0
 13 14  2  0  0  0
 14 15  1  0  0  0
 14 39  1  0  0  0
 15 16  2  0  0  0
 15 40  1  0  0  0
 16 17  1  0  0  0
 16 19  1  0  0  0
 17 18  2  0  0  0
 17 41  1  0  0  0
 18 42  1  0  0  0
 19 20  1  0  0  0
 20 25  1  0  0  0
 20 21  2  0  0  0
 21 22  1  0  0  0
 21 43  1  0  0  0
 22 23  2  0  0  0
 22 28  1  0  0  0
 23 24  1  0  0  0
 23 44  1  0  0  0
 24 25  2  0  0  0
 24 27  1  0  0  0
 25 26  1  0  0  0
 29 45  1  0  0  0
 30 46  1  0  0  0
 30 47  1  0  0  0
M  END
> <s_m_entry_id>
66098

> <s_m_entry_name>
ligand_docking-pose.154

> <s_m_Source_Path>
/home/csk/Desktop/cluster/DUD-E-result/mp2k1

> <s_m_Source_File>
ligand_docking-pose.sdf

> <i_m_Source_File_Index>
154

> <i_lp_mmshare_version>
53161

> <r_lp_tautomer_probability>
1

> <s_lp_Force_Field>
OPLS_2005

> <r_lp_Energy>
24.781505

> <b_lp_Chiralities_Consistent>
1

> <s_lp_Variant>
363031-1

> <s_i_glide_gridfile>
glide-grid_3eqh

> <i_i_glide_lignum>
255

> <i_i_glide_rotatable_bonds>
9

> <r_i_docking_score>
-7.00307889693381

> <r_i_glide_ligand_efficiency>
-0.233435963231127

> <r_i_glide_ligand_efficiency_sa>
-0.725339812188066

> <r_i_glide_ligand_efficiency_ln>
-1.59117583003947

> <r_i_glide_gscore>
-7.00307889693381

> <r_i_glide_lipo>
-3.54399262735044

> <r_i_glide_hbond>
0

> <r_i_glide_metal>
0

> <r_i_glide_rewards>
-0.426962900517761

> <r_i_glide_evdw>
-49.2547492980957

> <r_i_glide_ecoul>
-7.99826431274414

> <r_i_glide_erotb>
0.679470052123102

> <r_i_glide_esite>
-0.0491163093723012

> <r_i_glide_emodel>
-76.3153125441235

> <r_i_glide_energy>
-57.2530136108398

> <r_i_glide_einternal>
15.7548809051514

> <i_i_glide_confnum>
169

> <i_i_glide_posenum>
220

> <r_i_glide_eff_state_penalty>
0

> <i_f3d_flags>
0

> <s_user_duplicate_titles>
363031

> <s_m_subgroup_title>
dock_pv

> <s_m_subgroupid>
dock_pv1

> <b_m_subgroup_collapsed>
0

$$$$
337778
                    3D
 Schrodinger Suite 2021-1.
 45 48  0  0  1  0            999 V2000
   -5.4946   53.9303   32.4289 C   0  0  0  0  0  0
   -6.8881   54.2342   32.9618 C   0  0  0  0  0  0
   -7.8962   53.3401   33.3659 C   0  0  0  0  0  0
   -8.9952   54.0777   33.8177 C   0  0  0  0  0  0
   -8.7495   55.4047   33.6158 N   0  0  0  0  0  0
   -7.4473   55.5449   33.0946 C   0  0  0  0  0  0
   -7.0401   56.8695   32.8098 C   0  0  0  0  0  0
   -7.9813   57.9068   32.9602 C   0  0  0  0  0  0
   -9.2296   57.6192   33.5084 C   0  0  0  0  0  0
   -9.6334   56.3800   33.8681 N   0  0  0  0  0  0
   -7.7215   59.2698   32.5220 C   0  0  0  0  0  0
   -7.5187   60.3475   32.1630 N   0  0  0  0  0  0
   -5.7455   57.0957   32.3141 N   0  0  0  0  0  0
   -4.5572   57.0967   33.0610 C   0  0  0  0  0  0
   -4.5178   57.5427   34.3855 C   0  0  0  0  0  0
   -3.2904   57.6696   35.0374 C   0  0  0  0  0  0
   -2.1088   57.3572   34.3641 C   0  0  0  0  0  0
   -2.1555   56.8412   33.0694 C   0  0  0  0  0  0
   -3.3806   56.7100   32.4252 C   0  0  0  0  0  0
   -0.8959   57.5829   34.9674 O   0  0  0  0  0  0
   -0.1912   58.6839   34.5409 C   0  0  0  0  0  0
    0.8392   58.5290   33.6130 C   0  0  0  0  0  0
    1.5294   59.6448   33.1446 C   0  0  0  0  0  0
    1.1975   60.9128   33.6217 C   0  0  0  0  0  0
    0.1830   61.0711   34.5635 C   0  0  0  0  0  0
   -0.5104   59.9546   35.0251 C   0  0  0  0  0  0
   -7.8019   51.9018   33.3619 C   0  0  0  0  0  0
   -6.7334   51.2965   33.3634 O   0  0  0  0  0  0
   -9.0255   51.2967   33.3596 O   0  0  0  0  0  0
   -5.2813   54.4992   31.5252 H   0  0  0  0  0  0
   -5.3318   52.8897   32.1579 H   0  0  0  0  0  0
   -4.7305   54.1844   33.1622 H   0  0  0  0  0  0
   -9.9335   53.7553   34.2425 H   0  0  0  0  0  0
   -9.9647   58.3994   33.6558 H   0  0  0  0  0  0
   -5.7296   57.7813   31.5688 H   0  0  0  0  0  0
   -5.4276   57.8204   34.8934 H   0  0  0  0  0  0
   -3.2433   58.0410   36.0489 H   0  0  0  0  0  0
   -1.2414   56.5878   32.5547 H   0  0  0  0  0  0
   -3.4075   56.3511   31.4060 H   0  0  0  0  0  0
    1.0841   57.5476   33.2340 H   0  0  0  0  0  0
    2.3156   59.5294   32.4109 H   0  0  0  0  0  0
    1.7331   61.7792   33.2594 H   0  0  0  0  0  0
   -0.0746   62.0563   34.9278 H   0  0  0  0  0  0
   -1.3098   60.0755   35.7395 H   0  0  0  0  0  0
   -9.7380   51.9340   33.3122 H   0  0  0  0  0  0
  1  2  1  0  0  0
  1 30  1  0  0  0
  1 31  1  0  0  0
  1 32  1  0  0  0
  2  6  2  0  0  0
  2  3  1  0  0  0
  3  4  2  0  0  0
  3 27  1  0  0  0
  4  5  1  0  0  0
  4 33  1  0  0  0
  5 10  1  0  0  0
  5  6  1  0  0  0
  6  7  1  0  0  0
  7  8  2  0  0  0
  7 13  1  0  0  0
  8  9  1  0  0  0
  8 11  1  0  0  0
  9 10  2  0  0  0
  9 34  1  0  0  0
 11 12  3  0  0  0
 13 14  1  0  0  0
 13 35  1  0  0  0
 14 19  1  0  0  0
 14 15  2  0  0  0
 15 16  1  0  0  0
 15 36  1  0  0  0
 16 17  2  0  0  0
 16 37  1  0  0  0
 17 18  1  0  0  0
 17 20  1  0  0  0
 18 19  2  0  0  0
 18 38  1  0  0  0
 19 39  1  0  0  0
 20 21  1  0  0  0
 21 26  1  0  0  0
 21 22  2  0  0  0
 22 23  1  0  0  0
 22 40  1  0  0  0
 23 24  2  0  0  0
 23 41  1  0  0  0
 24 25  1  0  0  0
 24 42  1  0  0  0
 25 26  2  0  0  0
 25 43  1  0  0  0
 26 44  1  0  0  0
 27 28  2  0  0  0
 27 29  1  0  0  0
 29 45  1  0  0  0
M  END
> <s_m_entry_id>
66099

> <s_m_entry_name>
ligand_docking-pose.155

> <s_m_Source_Path>
/home/csk/Desktop/cluster/DUD-E-result/mp2k1

> <s_m_Source_File>
ligand_docking-pose.sdf

> <i_m_Source_File_Index>
155

> <i_lp_mmshare_version>
53161

> <r_lp_tautomer_probability>
1

> <s_lp_Force_Field>
OPLS_2005

> <r_lp_Energy>
27.497734

> <b_lp_Chiralities_Consistent>
1

> <s_lp_Variant>
337778-1

> <s_i_glide_gridfile>
glide-grid_3eqh

> <i_i_glide_lignum>
169

> <i_i_glide_rotatable_bonds>
6

> <r_i_docking_score>
-6.99575664468584

> <r_i_glide_ligand_efficiency>
-0.241232987747788

> <r_i_glide_ligand_efficiency_sa>
-0.741144166336112

> <r_i_glide_ligand_efficiency_ln>
-1.60185087455079

> <r_i_glide_gscore>
-6.99575664468584

> <r_i_glide_lipo>
-3.30862022075955

> <r_i_glide_hbond>
0

> <r_i_glide_metal>
0

> <r_i_glide_rewards>
-1.02207390846955

> <r_i_glide_evdw>
-49.9711608886719

> <r_i_glide_ecoul>
-4.95474433898926

> <r_i_glide_erotb>
0.657921421068723

> <r_i_glide_esite>
-0.0812142412434914

> <r_i_glide_emodel>
-73.9806061729046

> <r_i_glide_energy>
-54.9259052276611

> <r_i_glide_einternal>
8.69833946228027

> <i_i_glide_confnum>
33

> <i_i_glide_posenum>
215

> <r_i_glide_eff_state_penalty>
0

> <i_f3d_flags>
0

> <s_user_duplicate_titles>
337778

> <s_m_subgroup_title>
dock_pv

> <s_m_subgroupid>
dock_pv1

> <b_m_subgroup_collapsed>
0

$$$$
363019
                    3D
 Schrodinger Suite 2021-1.
 50 52  0  0  1  0            999 V2000
   -0.2467   54.4693   34.0027 C   0  0  0  0  0  0
   -1.5244   55.2567   33.7625 C   0  0  0  0  0  0
   -2.7448   54.5742   33.7541 C   0  0  0  0  0  0
   -3.9300   55.2220   33.4030 C   0  0  0  0  0  0
   -3.8931   56.5881   33.1097 C   0  0  0  0  0  0
   -2.6863   57.2901   33.1866 C   0  0  0  0  0  0
   -1.4869   56.6380   33.5195 C   0  0  0  0  0  0
   -0.2566   57.2822   33.5434 O   0  0  0  0  0  0
   -0.0878   58.5884   33.9715 C   0  0  0  0  0  0
   -0.9015   59.1505   34.9664 C   0  0  0  0  0  0
   -0.7257   60.4745   35.3630 C   0  0  0  0  0  0
    0.2733   61.2513   34.7872 C   0  0  0  0  0  0
    1.1188   60.6983   33.8327 C   0  0  0  0  0  0
    0.9507   59.3733   33.4329 C   0  0  0  0  0  0
    2.0736   58.7479   32.2810 Cl  0  0  0  0  0  0
   -1.5260   61.0125   36.3050 F   0  0  0  0  0  0
   -5.1073   54.4579   33.3625 N   0  0  0  0  0  0
   -6.0528   54.5248   32.3649 C   0  0  0  0  0  0
   -7.1938   55.3152   32.2069 C   0  0  0  0  0  0
   -7.8630   54.9618   31.0244 C   0  0  0  0  0  0
   -7.3760   53.9873   30.2899 N   0  0  0  0  0  0
   -5.9489   53.4167   31.0336 S   0  0  0  0  0  0
   -9.0126   55.5480   30.5631 O   0  0  0  0  0  0
   -7.6885   56.3294   33.1288 C   0  0  0  0  0  0
   -7.6892   57.5425   32.7305 N   0  0  0  0  0  0
   -8.1963   58.6007   33.6028 C   0  0  1  0  0  0
   -7.2965   58.7664   34.8468 C   0  0  0  0  0  0
   -8.3601   59.9195   32.7919 C   0  0  0  0  0  0
   -7.1592   60.3479   32.1631 O   0  0  0  0  0  0
   -8.1078   55.7393   34.2974 N   0  0  0  0  0  0
    0.4742   55.0588   34.5665 H   0  0  0  0  0  0
   -0.4446   53.5556   34.5630 H   0  0  0  0  0  0
    0.2138   54.1881   33.0562 H   0  0  0  0  0  0
   -2.7599   53.5165   33.9710 H   0  0  0  0  0  0
   -4.7966   57.1107   32.8310 H   0  0  0  0  0  0
   -2.6898   58.3472   32.9633 H   0  0  0  0  0  0
   -1.6817   58.5682   35.4313 H   0  0  0  0  0  0
    0.4006   62.2769   35.0986 H   0  0  0  0  0  0
    1.9101   61.2984   33.4067 H   0  0  0  0  0  0
   -4.9627   53.5594   33.7973 H   0  0  0  0  0  0
   -8.7473   56.3957   30.1745 H   0  0  0  0  0  0
   -9.1992   58.3371   33.9513 H   0  0  0  0  0  0
   -7.5266   59.6949   35.3698 H   0  0  0  0  0  0
   -7.4447   57.9630   35.5694 H   0  0  0  0  0  0
   -6.2417   58.7487   34.5638 H   0  0  0  0  0  0
   -8.7261   60.7257   33.4304 H   0  0  0  0  0  0
   -9.1157   59.7787   32.0186 H   0  0  0  0  0  0
   -6.7902   59.5481   31.7622 H   0  0  0  0  0  0
   -8.5125   56.2942   35.0345 H   0  0  0  0  0  0
   -7.9738   54.7502   34.4383 H   0  0  0  0  0  0
  1  2  1  0  0  0
  1 31  1  0  0  0
  1 32  1  0  0  0
  1 33  1  0  0  0
  2  7  1  0  0  0
  2  3  2  0  0  0
  3  4  1  0  0  0
  3 34  1  0  0  0
  4  5  2  0  0  0
  4 17  1  0  0  0
  5  6  1  0  0  0
  5 35  1  0  0  0
  6  7  2  0  0  0
  6 36  1  0  0  0
  7  8  1  0  0  0
  8  9  1  0  0  0
  9 14  1  0  0  0
  9 10  2  0  0  0
 10 11  1  0  0  0
 10 37  1  0  0  0
 11 12  2  0  0  0
 11 16  1  0  0  0
 12 13  1  0  0  0
 12 38  1  0  0  0
 13 14  2  0  0  0
 13 39  1  0  0  0
 14 15  1  0  0  0
 17 18  1  0  0  0
 17 40  1  0  0  0
 18 22  1  0  0  0
 18 19  2  0  0  0
 19 20  1  0  0  0
 19 24  1  0  0  0
 20 21  2  0  0  0
 20 23  1  0  0  0
 21 22  1  0  0  0
 23 41  1  0  0  0
 24 25  2  0  0  0
 24 30  1  0  0  0
 25 26  1  0  0  0
 26 27  1  0  0  0
 26 28  1  0  0  0
 26 42  1  0  0  0
 27 43  1  0  0  0
 27 44  1  0  0  0
 27 45  1  0  0  0
 28 29  1  0  0  0
 28 46  1  0  0  0
 28 47  1  0  0  0
 29 48  1  0  0  0
 30 49  1  0  0  0
 30 50  1  0  0  0
M  END
> <s_m_entry_id>
66100

> <s_m_entry_name>
ligand_docking-pose.156

> <s_m_Source_Path>
/home/csk/Desktop/cluster/DUD-E-result/mp2k1

> <s_m_Source_File>
ligand_docking-pose.sdf

> <i_m_Source_File_Index>
156

> <i_lp_mmshare_version>
53161

> <r_lp_tautomer_probability>
1

> <s_lp_Force_Field>
OPLS_2005

> <r_lp_Energy>
24.390511

> <b_lp_Chiralities_Consistent>
1

> <s_lp_Variant>
363019-2

> <s_i_glide_gridfile>
glide-grid_3eqh

> <i_i_glide_lignum>
158

> <i_i_glide_rotatable_bonds>
9

> <r_i_docking_score>
-6.9536315447621

> <r_i_glide_ligand_efficiency>
-0.231787718158737

> <r_i_glide_ligand_efficiency_sa>
-0.720218331527164

> <r_i_glide_ligand_efficiency_ln>
-1.579940852854

> <r_i_glide_gscore>
-6.9536315447621

> <r_i_glide_lipo>
-3.49824425764853

> <r_i_glide_hbond>
-0.16

> <r_i_glide_metal>
0

> <r_i_glide_rewards>
-0.439667404327778

> <r_i_glide_evdw>
-47.1831092834473

> <r_i_glide_ecoul>
-7.81998300552368

> <r_i_glide_erotb>
0.690374933437018

> <r_i_glide_esite>
-0.0139419012218943

> <r_i_glide_emodel>
-72.0979735360311

> <r_i_glide_energy>
-55.0030922889709

> <r_i_glide_einternal>
18.692554473877

> <i_i_glide_confnum>
38

> <i_i_glide_posenum>
171

> <r_i_glide_eff_state_penalty>
0

> <i_f3d_flags>
0

> <s_user_duplicate_titles>
363019

> <s_m_subgroup_title>
dock_pv

> <s_m_subgroupid>
dock_pv1

> <b_m_subgroup_collapsed>
0

$$$$
337982
                    3D
 Schrodinger Suite 2021-1.
 46 49  0  0  1  0            999 V2000
   -5.9325   57.7236   33.5005 C   0  0  0  0  0  0
   -7.0864   56.9225   34.0617 C   0  0  0  0  0  0
   -8.0071   57.3829   35.0009 C   0  0  0  0  0  0
   -8.9519   56.4012   35.2509 C   0  0  0  0  0  0
   -8.6432   55.3022   34.4977 N   0  0  0  0  0  0
   -7.4652   55.5666   33.7557 C   0  0  0  0  0  0
   -7.0049   54.4921   32.9368 C   0  0  0  0  0  0
   -7.7729   53.3065   32.8953 C   0  0  0  0  0  0
   -8.9186   53.2053   33.6818 C   0  0  0  0  0  0
   -9.3720   54.1788   34.4994 N   0  0  0  0  0  0
   -7.4144   52.1513   32.0730 C   0  0  0  0  0  0
   -7.1312   51.2392   31.4201 N   0  0  0  0  0  0
   -5.8376   54.5996   32.1521 N   0  0  0  0  0  0
   -4.5551   54.9633   32.5780 C   0  0  0  0  0  0
   -3.8413   55.9049   31.8393 C   0  0  0  0  0  0
   -2.5795   56.3033   32.2671 C   0  0  0  0  0  0
   -2.0084   55.7293   33.4015 C   0  0  0  0  0  0
   -2.6940   54.7404   34.1031 C   0  0  0  0  0  0
   -3.9727   54.3635   33.6990 C   0  0  0  0  0  0
   -0.7591   56.1191   33.8210 O   0  0  0  0  0  0
   -0.5590   57.4303   34.1977 C   0  0  0  0  0  0
   -1.4630   58.1176   35.0158 C   0  0  0  0  0  0
   -1.2060   59.4376   35.3769 C   0  0  0  0  0  0
   -0.0450   60.0673   34.9337 C   0  0  0  0  0  0
    0.8624   59.3881   34.1257 C   0  0  0  0  0  0
    0.6004   58.0699   33.7631 C   0  0  0  0  0  0
   -7.9533   58.6178   35.5915 O   0  0  0  0  0  0
   -9.1448   59.3804   35.4409 C   0  0  0  0  0  0
   -4.9745   57.3788   33.8885 H   0  0  0  0  0  0
   -6.0066   58.7810   33.7509 H   0  0  0  0  0  0
   -5.9025   57.6704   32.4122 H   0  0  0  0  0  0
   -9.8074   56.4078   35.9096 H   0  0  0  0  0  0
   -9.5175   52.3035   33.6808 H   0  0  0  0  0  0
   -5.8011   53.9063   31.4186 H   0  0  0  0  0  0
   -4.2780   56.3629   30.9625 H   0  0  0  0  0  0
   -2.0328   57.0604   31.7275 H   0  0  0  0  0  0
   -2.2365   54.2752   34.9628 H   0  0  0  0  0  0
   -4.5076   53.6066   34.2545 H   0  0  0  0  0  0
   -2.3612   57.6304   35.3662 H   0  0  0  0  0  0
   -1.9087   59.9787   35.9929 H   0  0  0  0  0  0
    0.1453   61.0943   35.2103 H   0  0  0  0  0  0
    1.7555   59.8842   33.7744 H   0  0  0  0  0  0
    1.2771   57.5489   33.1080 H   0  0  0  0  0  0
   -9.0109   60.3456   35.9255 H   0  0  0  0  0  0
   -9.3814   59.5617   34.3891 H   0  0  0  0  0  0
  -10.0025   58.8993   35.9150 H   0  0  0  0  0  0
  1  2  1  0  0  0
  1 29  1  0  0  0
  1 30  1  0  0  0
  1 31  1  0  0  0
  2  6  2  0  0  0
  2  3  1  0  0  0
  3  4  2  0  0  0
  3 27  1  0  0  0
  4  5  1  0  0  0
  4 32  1  0  0  0
  5 10  1  0  0  0
  5  6  1  0  0  0
  6  7  1  0  0  0
  7  8  2  0  0  0
  7 13  1  0  0  0
  8  9  1  0  0  0
  8 11  1  0  0  0
  9 10  2  0  0  0
  9 33  1  0  0  0
 11 12  3  0  0  0
 13 14  1  0  0  0
 13 34  1  0  0  0
 14 19  1  0  0  0
 14 15  2  0  0  0
 15 16  1  0  0  0
 15 35  1  0  0  0
 16 17  2  0  0  0
 16 36  1  0  0  0
 17 18  1  0  0  0
 17 20  1  0  0  0
 18 19  2  0  0  0
 18 37  1  0  0  0
 19 38  1  0  0  0
 20 21  1  0  0  0
 21 26  1  0  0  0
 21 22  2  0  0  0
 22 23  1  0  0  0
 22 39  1  0  0  0
 23 24  2  0  0  0
 23 40  1  0  0  0
 24 25  1  0  0  0
 24 41  1  0  0  0
 25 26  2  0  0  0
 25 42  1  0  0  0
 26 43  1  0  0  0
 27 28  1  0  0  0
 28 44  1  0  0  0
 28 45  1  0  0  0
 28 46  1  0  0  0
M  END
> <s_m_entry_id>
66101

> <s_m_entry_name>
ligand_docking-pose.157

> <s_m_Source_Path>
/home/csk/Desktop/cluster/DUD-E-result/mp2k1

> <s_m_Source_File>
ligand_docking-pose.sdf

> <i_m_Source_File_Index>
157

> <i_lp_mmshare_version>
53161

> <r_lp_tautomer_probability>
1

> <s_lp_Force_Field>
OPLS_2005

> <r_lp_Energy>
29.372069

> <b_lp_Chiralities_Consistent>
1

> <s_lp_Variant>
337982-1

> <s_i_glide_gridfile>
glide-grid_3eqh

> <i_i_glide_lignum>
181

> <i_i_glide_rotatable_bonds>
5

> <r_i_docking_score>
-6.952925644166

> <r_i_glide_ligand_efficiency>
-0.248318773005929

> <r_i_glide_ligand_efficiency_sa>
-0.754042046781958

> <r_i_glide_ligand_efficiency_ln>
-1.60493938544116

> <r_i_glide_gscore>
-6.952925644166

> <r_i_glide_lipo>
-3.69605268862761

> <r_i_glide_hbond>
0

> <r_i_glide_metal>
0

> <r_i_glide_rewards>
-1.07957484982958

> <r_i_glide_evdw>
-47.7024879455566

> <r_i_glide_ecoul>
-2.36412048339844

> <r_i_glide_erotb>
0.562444364078786

> <r_i_glide_esite>
0

> <r_i_glide_emodel>
-68.2532596416294

> <r_i_glide_energy>
-50.0666084289551

> <r_i_glide_einternal>
7.67412233352661

> <i_i_glide_confnum>
13

> <i_i_glide_posenum>
194

> <r_i_glide_eff_state_penalty>
0

> <i_f3d_flags>
0

> <s_user_duplicate_titles>
337982

> <s_m_subgroup_title>
dock_pv

> <s_m_subgroupid>
dock_pv1

> <b_m_subgroup_collapsed>
0

$$$$
353886
                    3D
 Schrodinger Suite 2021-1.
 45 47  0  0  1  0            999 V2000
    0.8723   59.6744   32.9846 C   0  0  0  0  0  0
    1.8264   60.6272   32.6417 C   0  0  0  0  0  0
    1.9826   61.7609   33.4338 C   0  0  0  0  0  0
    1.1901   61.9391   34.5630 C   0  0  0  0  0  0
    0.2204   60.9976   34.8951 C   0  0  0  0  0  0
    0.0666   59.8507   34.1192 C   0  0  0  0  0  0
   -0.9394   58.9362   34.4858 N   0  0  0  0  0  0
   -0.9934   57.5865   34.1998 C   0  0  0  0  0  0
   -2.0868   56.7329   33.9569 C   0  0  0  0  0  0
   -1.5778   55.4354   33.7233 C   0  0  0  0  0  0
   -0.2899   55.2020   33.7630 N   0  0  0  0  0  0
    0.4740   56.6559   34.1630 S   0  0  0  0  0  0
   -2.3381   54.3480   33.4262 O   0  0  0  0  0  0
   -3.5415   57.0603   33.9182 C   0  0  0  0  0  0
   -4.3563   56.1366   33.5824 N   0  0  0  0  0  0
   -5.7915   56.3711   33.5134 C   0  0  0  0  0  0
   -6.3979   55.7016   32.2487 C   0  0  0  0  0  0
   -6.0855   54.1880   32.0880 C   0  0  0  0  0  0
   -6.7621   53.3447   33.1914 C   0  0  0  0  0  0
   -8.2896   53.5758   33.2213 C   0  0  0  0  0  0
   -8.6723   55.0732   33.2571 C   0  0  0  0  0  0
   -7.9343   55.8815   32.1635 C   0  0  0  0  0  0
   -3.8219   58.3480   34.2850 N   0  0  0  0  0  0
    3.2693   63.0863   32.9708 Br  0  0  0  0  0  0
    0.7489   58.8130   32.3472 H   0  0  0  0  0  0
    2.4373   60.4840   31.7631 H   0  0  0  0  0  0
    1.3215   62.8074   35.1845 H   0  0  0  0  0  0
   -0.4007   61.1623   35.7639 H   0  0  0  0  0  0
   -1.6318   59.3474   35.0933 H   0  0  0  0  0  0
   -3.2529   54.6584   33.4273 H   0  0  0  0  0  0
   -6.0615   57.4294   33.5104 H   0  0  0  0  0  0
   -6.2461   55.9486   34.4077 H   0  0  0  0  0  0
   -5.9794   56.2070   31.3752 H   0  0  0  0  0  0
   -5.0104   54.0110   32.1186 H   0  0  0  0  0  0
   -6.4225   53.8417   31.1094 H   0  0  0  0  0  0
   -6.3319   53.5897   34.1628 H   0  0  0  0  0  0
   -6.5512   52.2864   33.0328 H   0  0  0  0  0  0
   -8.7270   53.0591   34.0770 H   0  0  0  0  0  0
   -8.7339   53.1185   32.3358 H   0  0  0  0  0  0
   -8.4516   55.4837   34.2429 H   0  0  0  0  0  0
   -9.7500   55.1787   33.1320 H   0  0  0  0  0  0
   -8.2887   55.5683   31.1796 H   0  0  0  0  0  0
   -8.1935   56.9370   32.2565 H   0  0  0  0  0  0
   -4.7792   58.6327   34.1612 H   0  0  0  0  0  0
   -3.1079   59.0476   34.1387 H   0  0  0  0  0  0
  1  6  1  0  0  0
  1  2  2  0  0  0
  1 25  1  0  0  0
  2  3  1  0  0  0
  2 26  1  0  0  0
  3  4  2  0  0  0
  3 24  1  0  0  0
  4  5  1  0  0  0
  4 27  1  0  0  0
  5  6  2  0  0  0
  5 28  1  0  0  0
  6  7  1  0  0  0
  7  8  1  0  0  0
  7 29  1  0  0  0
  8 12  1  0  0  0
  8  9  2  0  0  0
  9 10  1  0  0  0
  9 14  1  0  0  0
 10 11  2  0  0  0
 10 13  1  0  0  0
 11 12  1  0  0  0
 13 30  1  0  0  0
 14 15  2  0  0  0
 14 23  1  0  0  0
 15 16  1  0  0  0
 16 17  1  0  0  0
 16 31  1  0  0  0
 16 32  1  0  0  0
 17 22  1  0  0  0
 17 18  1  0  0  0
 17 33  1  0  0  0
 18 19  1  0  0  0
 18 34  1  0  0  0
 18 35  1  0  0  0
 19 20  1  0  0  0
 19 36  1  0  0  0
 19 37  1  0  0  0
 20 21  1  0  0  0
 20 38  1  0  0  0
 20 39  1  0  0  0
 21 22  1  0  0  0
 21 40  1  0  0  0
 21 41  1  0  0  0
 22 42  1  0  0  0
 22 43  1  0  0  0
 23 44  1  0  0  0
 23 45  1  0  0  0
M  END
> <s_m_entry_id>
66102

> <s_m_entry_name>
ligand_docking-pose.158

> <s_m_Source_Path>
/home/csk/Desktop/cluster/DUD-E-result/mp2k1

> <s_m_Source_File>
ligand_docking-pose.sdf

> <i_m_Source_File_Index>
158

> <i_lp_mmshare_version>
53161

> <r_lp_tautomer_probability>
1

> <s_lp_Force_Field>
OPLS_2005

> <r_lp_Energy>
23.774506

> <b_lp_Chiralities_Consistent>
1

> <s_lp_Variant>
353886-1

> <s_i_glide_gridfile>
glide-grid_3eqh

> <i_i_glide_lignum>
45

> <i_i_glide_rotatable_bonds>
6

> <r_i_docking_score>
-6.94314564395923

> <r_i_glide_ligand_efficiency>
-0.289297735164968

> <r_i_glide_ligand_efficiency_sa>
-0.834479067581157

> <r_i_glide_ligand_efficiency_ln>
-1.66181335279278

> <r_i_glide_gscore>
-6.94314564395923

> <r_i_glide_lipo>
-3.76231333242756

> <r_i_glide_hbond>
0

> <r_i_glide_metal>
0

> <r_i_glide_rewards>
-1.04260070744627

> <r_i_glide_evdw>
-44.2301826477051

> <r_i_glide_ecoul>
-2.64501118659973

> <r_i_glide_erotb>
0.470029206289808

> <r_i_glide_esite>
0

> <r_i_glide_emodel>
-61.6769702435091

> <r_i_glide_energy>
-46.8751938343048

> <r_i_glide_einternal>
7.43801689147949

> <i_i_glide_confnum>
86

> <i_i_glide_posenum>
293

> <r_i_glide_eff_state_penalty>
0

> <i_f3d_flags>
0

> <s_user_duplicate_titles>
353886

> <s_m_subgroup_title>
dock_pv

> <s_m_subgroupid>
dock_pv1

> <b_m_subgroup_collapsed>
0

$$$$
337803
                    3D
 Schrodinger Suite 2021-1.
 52 55  0  0  1  0            999 V2000
   -8.6199   59.5957   36.5701 C   0  0  0  0  0  0
   -9.4992   59.0596   35.4264 C   0  0  0  0  0  0
   -8.8368   58.0852   34.6241 O   0  0  0  0  0  0
   -7.8211   58.4159   33.7952 C   0  0  0  0  0  0
   -7.3542   59.5460   33.6294 O   0  0  0  0  0  0
   -7.2804   57.2282   33.1480 C   0  0  0  0  0  0
   -7.9594   56.4687   32.2109 C   0  0  0  0  0  0
   -7.0909   55.5603   31.6781 N   0  0  0  0  0  0
   -5.8484   55.6548   32.3559 C   0  0  0  0  0  0
   -6.0150   56.6624   33.3741 C   0  0  0  0  0  0
   -5.0627   57.0637   34.4849 C   0  0  0  0  0  0
   -4.3735   58.2478   34.1630 O   0  0  0  0  0  0
   -4.8494   54.7461   31.8970 C   0  0  0  0  0  0
   -5.1086   54.0195   30.7124 C   0  0  0  0  0  0
   -6.3862   54.0365   30.1645 C   0  0  0  0  0  0
   -7.4130   54.7482   30.6627 N   0  0  0  0  0  0
   -4.0798   53.3041   29.9632 C   0  0  0  0  0  0
   -3.2660   52.7428   29.3635 N   0  0  0  0  0  0
   -3.6672   54.4810   32.6174 N   0  0  0  0  0  0
   -2.5898   55.2821   33.0082 C   0  0  0  0  0  0
   -2.4494   56.5940   32.5718 C   0  0  0  0  0  0
   -1.3410   57.3359   32.9653 C   0  0  0  0  0  0
   -0.3385   56.7653   33.7627 C   0  0  0  0  0  0
   -0.4514   55.4278   34.1285 C   0  0  0  0  0  0
   -1.5914   54.7024   33.7923 C   0  0  0  0  0  0
    0.7980   57.4489   34.1565 O   0  0  0  0  0  0
    0.8542   58.8192   34.0437 C   0  0  0  0  0  0
    1.6748   59.3901   33.0699 C   0  0  0  0  0  0
    1.7133   60.7743   32.9190 C   0  0  0  0  0  0
    0.9263   61.5799   33.7401 C   0  0  0  0  0  0
    0.1037   61.0149   34.7130 C   0  0  0  0  0  0
    0.0747   59.6318   34.8722 C   0  0  0  0  0  0
   -9.2203   60.0852   37.3382 H   0  0  0  0  0  0
   -7.9254   60.3457   36.1969 H   0  0  0  0  0  0
   -8.0406   58.8035   37.0441 H   0  0  0  0  0  0
  -10.3632   58.5625   35.8610 H   0  0  0  0  0  0
   -9.8815   59.8760   34.8106 H   0  0  0  0  0  0
   -8.9520   56.5919   31.8034 H   0  0  0  0  0  0
   -5.6496   57.2960   35.3646 H   0  0  0  0  0  0
   -4.3662   56.2788   34.7734 H   0  0  0  0  0  0
   -3.7505   58.0582   33.4574 H   0  0  0  0  0  0
   -6.6214   53.4778   29.2677 H   0  0  0  0  0  0
   -3.3773   53.5213   32.5131 H   0  0  0  0  0  0
   -3.1891   57.0325   31.9184 H   0  0  0  0  0  0
   -1.2223   58.3479   32.6216 H   0  0  0  0  0  0
    0.3476   54.9632   34.6886 H   0  0  0  0  0  0
   -1.6829   53.6828   34.1383 H   0  0  0  0  0  0
    2.2653   58.7567   32.4231 H   0  0  0  0  0  0
    2.3479   61.2190   32.1658 H   0  0  0  0  0  0
    0.9536   62.6540   33.6238 H   0  0  0  0  0  0
   -0.5087   61.6476   35.3398 H   0  0  0  0  0  0
   -0.5649   59.1871   35.6201 H   0  0  0  0  0  0
  1  2  1  0  0  0
  1 33  1  0  0  0
  1 34  1  0  0  0
  1 35  1  0  0  0
  2  3  1  0  0  0
  2 36  1  0  0  0
  2 37  1  0  0  0
  3  4  1  0  0  0
  4  5  2  0  0  0
  4  6  1  0  0  0
  6 10  1  0  0  0
  6  7  2  0  0  0
  7  8  1  0  0  0
  7 38  1  0  0  0
  8 16  1  0  0  0
  8  9  1  0  0  0
  9 10  2  0  0  0
  9 13  1  0  0  0
 10 11  1  0  0  0
 11 12  1  0  0  0
 11 39  1  0  0  0
 11 40  1  0  0  0
 12 41  1  0  0  0
 13 14  2  0  0  0
 13 19  1  0  0  0
 14 15  1  0  0  0
 14 17  1  0  0  0
 15 16  2  0  0  0
 15 42  1  0  0  0
 17 18  3  0  0  0
 19 20  1  0  0  0
 19 43  1  0  0  0
 20 25  1  0  0  0
 20 21  2  0  0  0
 21 22  1  0  0  0
 21 44  1  0  0  0
 22 23  2  0  0  0
 22 45  1  0  0  0
 23 24  1  0  0  0
 23 26  1  0  0  0
 24 25  2  0  0  0
 24 46  1  0  0  0
 25 47  1  0  0  0
 26 27  1  0  0  0
 27 32  1  0  0  0
 27 28  2  0  0  0
 28 29  1  0  0  0
 28 48  1  0  0  0
 29 30  2  0  0  0
 29 49  1  0  0  0
 30 31  1  0  0  0
 30 50  1  0  0  0
 31 32  2  0  0  0
 31 51  1  0  0  0
 32 52  1  0  0  0
M  END
> <s_m_entry_id>
66103

> <s_m_entry_name>
ligand_docking-pose.159

> <s_m_Source_Path>
/home/csk/Desktop/cluster/DUD-E-result/mp2k1

> <s_m_Source_File>
ligand_docking-pose.sdf

> <i_m_Source_File_Index>
159

> <i_lp_mmshare_version>
53161

> <r_lp_tautomer_probability>
1

> <s_lp_Force_Field>
OPLS_2005

> <r_lp_Energy>
25.522323

> <b_lp_Chiralities_Consistent>
1

> <s_lp_Variant>
337803-1

> <s_i_glide_gridfile>
glide-grid_3eqh

> <i_i_glide_lignum>
317

> <i_i_glide_rotatable_bonds>
9

> <r_i_docking_score>
-6.93999490462341

> <r_i_glide_ligand_efficiency>
-0.216874840769482

> <r_i_glide_ligand_efficiency_sa>
-0.688534699970395

> <r_i_glide_ligand_efficiency_ln>
-1.55405403626141

> <r_i_glide_gscore>
-6.93999490462341

> <r_i_glide_lipo>
-3.56706622821592

> <r_i_glide_hbond>
-0.0388887183985285

> <r_i_glide_metal>
0

> <r_i_glide_rewards>
-0.819848984516314

> <r_i_glide_evdw>
-48.6050033569336

> <r_i_glide_ecoul>
-5.29027128219604

> <r_i_glide_erotb>
0.757492661587769

> <r_i_glide_esite>
-0.0478927749043347

> <r_i_glide_emodel>
-56.0454132323888

> <r_i_glide_energy>
-53.8952746391296

> <r_i_glide_einternal>
12.1161041259766

> <i_i_glide_confnum>
48

> <i_i_glide_posenum>
295

> <r_i_glide_eff_state_penalty>
0

> <i_f3d_flags>
0

> <s_user_duplicate_titles>
337803

> <s_m_subgroup_title>
dock_pv

> <s_m_subgroupid>
dock_pv1

> <b_m_subgroup_collapsed>
0

$$$$
354560
                    3D
 Schrodinger Suite 2021-1.
 39 40  0  0  1  0            999 V2000
   -0.9576   61.2188   35.9209 C   0  0  0  0  0  0
    0.0861   60.9458   34.8404 C   0  0  0  0  0  0
    1.1139   61.8743   34.6479 C   0  0  0  0  0  0
    2.0740   61.6918   33.6588 C   0  0  0  0  0  0
    2.0311   60.5495   32.8659 C   0  0  0  0  0  0
    1.0247   59.6047   33.0592 C   0  0  0  0  0  0
    0.0485   59.7815   34.0512 C   0  0  0  0  0  0
   -1.0080   58.8606   34.2103 N   0  0  0  0  0  0
   -0.9980   57.4873   34.0748 C   0  0  0  0  0  0
   -2.0734   56.6053   33.9042 C   0  0  0  0  0  0
   -1.5908   55.2873   33.8433 C   0  0  0  0  0  0
   -0.2985   55.0640   33.8982 N   0  0  0  0  0  0
    0.4740   56.5582   34.1630 S   0  0  0  0  0  0
   -2.3909   54.1845   33.7630 O   0  0  0  0  0  0
   -3.5082   56.9306   33.8281 C   0  0  0  0  0  0
   -4.1870   56.3272   32.9242 N   0  0  0  0  0  0
   -5.6311   56.5047   32.7368 C   0  0  1  0  0  0
   -6.4492   55.9545   33.9235 C   0  0  0  0  0  0
   -6.0036   57.9480   32.3257 C   0  0  0  0  0  0
   -7.3917   58.1447   32.1630 O   0  0  0  0  0  0
   -3.8814   57.8028   34.8227 N   0  0  0  0  0  0
    3.5501   63.1480   33.3636 I   0  0  0  0  0  0
   -0.7260   62.0755   36.5534 H   0  0  0  0  0  0
   -1.9260   61.4102   35.4766 H   0  0  0  0  0  0
   -1.0660   60.3480   36.5630 H   0  0  0  0  0  0
    1.1718   62.7480   35.2736 H   0  0  0  0  0  0
    2.7726   60.3962   32.0969 H   0  0  0  0  0  0
    0.9955   58.7480   32.4056 H   0  0  0  0  0  0
   -1.8772   59.3306   34.4277 H   0  0  0  0  0  0
   -3.2832   54.4894   33.5706 H   0  0  0  0  0  0
   -5.8972   55.8774   31.8840 H   0  0  0  0  0  0
   -7.5128   55.9248   33.6853 H   0  0  0  0  0  0
   -6.1523   54.9336   34.1630 H   0  0  0  0  0  0
   -6.3398   56.5670   34.8174 H   0  0  0  0  0  0
   -5.5303   58.1718   31.3680 H   0  0  0  0  0  0
   -5.6706   58.6732   33.0662 H   0  0  0  0  0  0
   -7.5934   57.9442   31.2319 H   0  0  0  0  0  0
   -4.8673   57.9470   34.9707 H   0  0  0  0  0  0
   -3.2368   57.9562   35.5832 H   0  0  0  0  0  0
  1  2  1  0  0  0
  1 23  1  0  0  0
  1 24  1  0  0  0
  1 25  1  0  0  0
  2  7  1  0  0  0
  2  3  2  0  0  0
  3  4  1  0  0  0
  3 26  1  0  0  0
  4  5  2  0  0  0
  4 22  1  0  0  0
  5  6  1  0  0  0
  5 27  1  0  0  0
  6  7  2  0  0  0
  6 28  1  0  0  0
  7  8  1  0  0  0
  8  9  1  0  0  0
  8 29  1  0  0  0
  9 13  1  0  0  0
  9 10  2  0  0  0
 10 11  1  0  0  0
 10 15  1  0  0  0
 11 12  2  0  0  0
 11 14  1  0  0  0
 12 13  1  0  0  0
 14 30  1  0  0  0
 15 16  2  0  0  0
 15 21  1  0  0  0
 16 17  1  0  0  0
 17 18  1  0  0  0
 17 19  1  0  0  0
 17 31  1  0  0  0
 18 32  1  0  0  0
 18 33  1  0  0  0
 18 34  1  0  0  0
 19 20  1  0  0  0
 19 35  1  0  0  0
 19 36  1  0  0  0
 20 37  1  0  0  0
 21 38  1  0  0  0
 21 39  1  0  0  0
M  END
> <s_m_entry_id>
66104

> <s_m_entry_name>
ligand_docking-pose.160

> <s_m_Source_Path>
/home/csk/Desktop/cluster/DUD-E-result/mp2k1

> <s_m_Source_File>
ligand_docking-pose.sdf

> <i_m_Source_File_Index>
160

> <i_lp_mmshare_version>
53161

> <r_lp_tautomer_probability>
1

> <s_lp_Force_Field>
OPLS_2005

> <r_lp_Energy>
16.614655

> <b_lp_Chiralities_Consistent>
1

> <s_lp_Variant>
354560-2

> <s_i_glide_gridfile>
glide-grid_3eqh

> <i_i_glide_lignum>
152

> <i_i_glide_rotatable_bonds>
7

> <r_i_docking_score>
-6.92201931910405

> <r_i_glide_ligand_efficiency>
-0.314637241777457

> <r_i_glide_ligand_efficiency_sa>
-0.881625925440982

> <r_i_glide_ligand_efficiency_ln>
-1.69199400837843

> <r_i_glide_gscore>
-6.92201931910405

> <r_i_glide_lipo>
-3.47454672464831

> <r_i_glide_hbond>
-0.16

> <r_i_glide_metal>
0

> <r_i_glide_rewards>
-0.968968352142331

> <r_i_glide_evdw>
-39.1327819824219

> <r_i_glide_ecoul>
-5.81818056106567

> <r_i_glide_erotb>
0.532389216399805

> <r_i_glide_esite>
-0.0215272754322746

> <r_i_glide_emodel>
-59.1205313847065

> <r_i_glide_energy>
-44.9509625434875

> <r_i_glide_einternal>
5.47319555282593

> <i_i_glide_confnum>
258

> <i_i_glide_posenum>
45

> <r_i_glide_eff_state_penalty>
0

> <i_f3d_flags>
0

> <s_user_duplicate_titles>
354560

> <s_m_subgroup_title>
dock_pv

> <s_m_subgroupid>
dock_pv1

> <b_m_subgroup_collapsed>
0

$$$$
353924
                    3D
 Schrodinger Suite 2021-1.
 22 23  0  0  1  0            999 V2000
    2.4251   60.8643   35.1699 C   0  0  0  0  0  0
    1.3734   59.9482   35.2123 C   0  0  0  0  0  0
    0.1854   60.2024   34.5194 C   0  0  0  0  0  0
    0.0741   61.3816   33.7785 C   0  0  0  0  0  0
    1.1513   62.2617   33.6719 C   0  0  0  0  0  0
    2.3244   62.0098   34.3812 C   0  0  0  0  0  0
    1.0158   63.8040   32.5627 Br  0  0  0  0  0  0
   -0.9187   59.3347   34.5631 N   0  0  0  0  0  0
   -0.9475   57.9660   34.3593 C   0  0  0  0  0  0
   -2.0701   57.1487   34.2401 C   0  0  0  0  0  0
   -1.6756   55.8410   33.9069 C   0  0  0  0  0  0
   -0.3985   55.5731   33.7634 N   0  0  0  0  0  0
    0.4739   56.9962   34.1034 S   0  0  0  0  0  0
   -2.5237   54.7838   33.7108 O   0  0  0  0  0  0
   -3.4475   57.5860   34.4180 C   0  0  0  0  0  0
   -4.5391   57.9380   34.5623 N   0  0  0  0  0  0
    3.3142   60.6820   35.7535 H   0  0  0  0  0  0
    1.4732   59.0620   35.8177 H   0  0  0  0  0  0
   -0.8491   61.6124   33.2725 H   0  0  0  0  0  0
    3.1501   62.7039   34.3242 H   0  0  0  0  0  0
   -1.7843   59.8454   34.4189 H   0  0  0  0  0  0
   -3.4315   55.0521   33.8670 H   0  0  0  0  0  0
  1  6  1  0  0  0
  1  2  2  0  0  0
  1 17  1  0  0  0
  2  3  1  0  0  0
  2 18  1  0  0  0
  3  4  2  0  0  0
  3  8  1  0  0  0
  4  5  1  0  0  0
  4 19  1  0  0  0
  5  6  2  0  0  0
  5  7  1  0  0  0
  6 20  1  0  0  0
  8  9  1  0  0  0
  8 21  1  0  0  0
  9 13  1  0  0  0
  9 10  2  0  0  0
 10 11  1  0  0  0
 10 15  1  0  0  0
 11 12  2  0  0  0
 11 14  1  0  0  0
 12 13  1  0  0  0
 14 22  1  0  0  0
 15 16  3  0  0  0
M  END
> <s_m_entry_id>
66105

> <s_m_entry_name>
ligand_docking-pose.161

> <s_m_Source_Path>
/home/csk/Desktop/cluster/DUD-E-result/mp2k1

> <s_m_Source_File>
ligand_docking-pose.sdf

> <i_m_Source_File_Index>
161

> <i_lp_mmshare_version>
53161

> <r_lp_tautomer_probability>
1

> <s_lp_Force_Field>
OPLS_2005

> <r_lp_Energy>
9.82825

> <b_lp_Chiralities_Consistent>
1

> <s_lp_Variant>
353924-1

> <s_i_glide_gridfile>
glide-grid_3eqh

> <i_i_glide_lignum>
14

> <i_i_glide_rotatable_bonds>
3

> <r_i_docking_score>
-6.91598447960498

> <r_i_glide_ligand_efficiency>
-0.432249029975311

> <r_i_glide_ligand_efficiency_sa>
-1.08919930231844

> <r_i_glide_ligand_efficiency_ln>
-1.83321983624522

> <r_i_glide_gscore>
-6.91598447960498

> <r_i_glide_lipo>
-2.91540136748077

> <r_i_glide_hbond>
-0.161588196674982

> <r_i_glide_metal>
0

> <r_i_glide_rewards>
-2.08537295385033

> <r_i_glide_evdw>
-33.5550308227539

> <r_i_glide_ecoul>
-3.2903106212616

> <r_i_glide_erotb>
0.417676172728043

> <r_i_glide_esite>
0

> <r_i_glide_emodel>
-53.3247767314401

> <r_i_glide_energy>
-36.8453414440155

> <r_i_glide_einternal>
4.87466287612915

> <i_i_glide_confnum>
6

> <i_i_glide_posenum>
313

> <r_i_glide_eff_state_penalty>
0

> <i_f3d_flags>
0

> <s_user_duplicate_titles>
353924

> <s_m_subgroup_title>
dock_pv

> <s_m_subgroupid>
dock_pv1

> <b_m_subgroup_collapsed>
0

$$$$
363041
                    3D
 Schrodinger Suite 2021-1.
 56 59  0  0  1  0            999 V2000
   -2.9861   54.9754   32.6232 C   0  0  0  0  0  0
   -1.9396   55.4757   33.3898 C   0  0  0  0  0  0
   -1.9478   56.8058   33.7946 C   0  0  0  0  0  0
   -3.0372   57.6173   33.4528 C   0  0  0  0  0  0
   -4.0827   57.1051   32.6911 C   0  0  0  0  0  0
   -4.0565   55.7892   32.2512 C   0  0  0  0  0  0
   -5.1526   55.3346   31.5005 N   0  0  0  0  0  0
   -5.2713   54.2708   30.6288 C   0  0  0  0  0  0
   -6.4409   53.6193   30.2251 C   0  0  0  0  0  0
   -6.1312   52.6147   29.2906 C   0  0  0  0  0  0
   -4.8769   52.4174   28.9625 N   0  0  0  0  0  0
   -3.9256   53.5719   29.7802 S   0  0  0  0  0  0
   -7.0409   51.7916   28.6824 O   0  0  0  0  0  0
   -7.7898   53.9394   30.7125 C   0  0  0  0  0  0
   -7.9171   54.1313   31.9654 N   0  0  0  0  0  0
   -9.2123   54.4825   32.5203 C   0  0  0  0  0  0
   -9.5257   55.9989   32.3943 C   0  0  0  0  0  0
   -8.4678   56.9203   32.8172 N   0  0  2  0  0  0
   -8.1717   56.8454   34.2480 C   0  0  0  0  0  0
   -6.9560   57.7282   34.6134 C   0  0  0  0  0  0
   -6.8330   58.9322   33.7630 N   0  0  0  0  0  0
   -7.6532   59.2839   32.7548 C   0  0  0  0  0  0
   -7.4702   60.3480   32.1622 O   0  0  0  0  0  0
   -8.8055   58.3016   32.4270 C   0  0  0  0  0  0
   -8.7042   53.9948   29.6818 N   0  0  0  0  0  0
   -0.8870   57.2353   34.5623 O   0  0  0  0  0  0
   -0.5007   58.5533   34.5369 C   0  0  0  0  0  0
    0.5130   58.9495   33.6617 C   0  0  0  0  0  0
    0.9396   60.2777   33.6369 C   0  0  0  0  0  0
    0.3506   61.2145   34.4859 C   0  0  0  0  0  0
   -0.6605   60.8230   35.3632 C   0  0  0  0  0  0
   -1.0838   59.4937   35.3963 C   0  0  0  0  0  0
   -2.3323   59.0297   36.4987 Cl  0  0  0  0  0  0
    2.1991   60.7600   32.5633 Cl  0  0  0  0  0  0
   -2.9672   53.9481   32.3386 H   0  0  0  0  0  0
   -1.1212   54.8303   33.6746 H   0  0  0  0  0  0
   -3.0813   58.6504   33.7637 H   0  0  0  0  0  0
   -4.9183   57.7313   32.4228 H   0  0  0  0  0  0
   -5.9819   55.8949   31.6555 H   0  0  0  0  0  0
   -7.9088   52.0466   29.0097 H   0  0  0  0  0  0
   -9.2536   54.1654   33.5624 H   0  0  0  0  0  0
  -10.0141   53.9120   32.0452 H   0  0  0  0  0  0
  -10.4202   56.2194   32.9747 H   0  0  0  0  0  0
   -9.7921   56.1985   31.3547 H   0  0  0  0  0  0
   -7.9964   55.8167   34.5666 H   0  0  0  0  0  0
   -9.0548   57.2196   34.7713 H   0  0  0  0  0  0
   -6.0707   57.1247   34.4219 H   0  0  0  0  0  0
   -6.9757   57.9741   35.6756 H   0  0  0  0  0  0
   -6.0415   59.5391   33.8916 H   0  0  0  0  0  0
   -9.7309   58.6527   32.8890 H   0  0  0  0  0  0
   -8.9517   58.3502   31.3500 H   0  0  0  0  0  0
   -9.6454   54.2857   29.8964 H   0  0  0  0  0  0
   -8.3583   54.2298   28.7623 H   0  0  0  0  0  0
    0.9632   58.2248   32.9990 H   0  0  0  0  0  0
    0.6743   62.2453   34.4678 H   0  0  0  0  0  0
   -1.1175   61.5547   36.0135 H   0  0  0  0  0  0
  1  6  1  0  0  0
  1  2  2  0  0  0
  1 35  1  0  0  0
  2  3  1  0  0  0
  2 36  1  0  0  0
  3  4  2  0  0  0
  3 26  1  0  0  0
  4  5  1  0  0  0
  4 37  1  0  0  0
  5  6  2  0  0  0
  5 38  1  0  0  0
  6  7  1  0  0  0
  7  8  1  0  0  0
  7 39  1  0  0  0
  8 12  1  0  0  0
  8  9  2  0  0  0
  9 10  1  0  0  0
  9 14  1  0  0  0
 10 11  2  0  0  0
 10 13  1  0  0  0
 11 12  1  0  0  0
 13 40  1  0  0  0
 14 15  2  0  0  0
 14 25  1  0  0  0
 15 16  1  0  0  0
 16 17  1  0  0  0
 16 41  1  0  0  0
 16 42  1  0  0  0
 17 18  1  0  0  0
 17 43  1  0  0  0
 17 44  1  0  0  0
 18 24  1  0  0  0
 18 19  1  0  0  0
 19 20  1  0  0  0
 19 45  1  0  0  0
 19 46  1  0  0  0
 20 21  1  0  0  0
 20 47  1  0  0  0
 20 48  1  0  0  0
 21 22  1  0  0  0
 21 49  1  0  0  0
 22 23  2  0  0  0
 22 24  1  0  0  0
 24 50  1  0  0  0
 24 51  1  0  0  0
 25 52  1  0  0  0
 25 53  1  0  0  0
 26 27  1  0  0  0
 27 32  1  0  0  0
 27 28  2  0  0  0
 28 29  1  0  0  0
 28 54  1  0  0  0
 29 30  2  0  0  0
 29 34  1  0  0  0
 30 31  1  0  0  0
 30 55  1  0  0  0
 31 32  2  0  0  0
 31 56  1  0  0  0
 32 33  1  0  0  0
M  END
> <s_m_entry_id>
66106

> <s_m_entry_name>
ligand_docking-pose.162

> <s_m_Source_Path>
/home/csk/Desktop/cluster/DUD-E-result/mp2k1

> <s_m_Source_File>
ligand_docking-pose.sdf

> <i_m_Source_File_Index>
162

> <i_lp_mmshare_version>
53161

> <r_lp_tautomer_probability>
1

> <s_lp_Force_Field>
OPLS_2005

> <r_lp_Energy>
32.633572

> <b_lp_Chiralities_Consistent>
1

> <s_lp_Variant>
363041-1

> <s_i_glide_gridfile>
glide-grid_3eqh

> <i_i_glide_lignum>
55

> <i_i_glide_rotatable_bonds>
9

> <r_i_docking_score>
-6.91339496269953

> <r_i_glide_ligand_efficiency>
-0.203335145961751

> <r_i_glide_ligand_efficiency_sa>
-0.658726937697865

> <r_i_glide_ligand_efficiency_ln>
-1.52736286142072

> <r_i_glide_gscore>
-6.91339496269953

> <r_i_glide_lipo>
-3.30682779758279

> <r_i_glide_hbond>
0

> <r_i_glide_metal>
0

> <r_i_glide_rewards>
-0.176413989794185

> <r_i_glide_evdw>
-56.4755172729492

> <r_i_glide_ecoul>
-6.52182388305664

> <r_i_glide_erotb>
0.529287205965028

> <r_i_glide_esite>
-0.157390935181627

> <r_i_glide_emodel>
-87.6650812858218

> <r_i_glide_energy>
-62.9973411560059

> <r_i_glide_einternal>
6.60878229141235

> <i_i_glide_confnum>
19

> <i_i_glide_posenum>
355

> <r_i_glide_eff_state_penalty>
0

> <i_f3d_flags>
0

> <s_user_duplicate_titles>
363041

> <s_m_subgroup_title>
dock_pv

> <s_m_subgroupid>
dock_pv1

> <b_m_subgroup_collapsed>
0

$$$$
363044
                    3D
 Schrodinger Suite 2021-1.
 48 50  0  0  1  0            999 V2000
   -2.5094   55.1343   33.5707 C   0  0  0  0  0  0
   -1.2379   55.6927   33.7458 C   0  0  0  0  0  0
   -1.0683   57.0815   33.8157 C   0  0  0  0  0  0
   -2.2107   57.8947   33.7356 C   0  0  0  0  0  0
   -3.4734   57.3465   33.5903 C   0  0  0  0  0  0
   -3.6255   55.9723   33.4859 C   0  0  0  0  0  0
   -4.9373   55.5054   33.3634 N   0  0  0  0  0  0
   -5.5271   55.0184   32.2233 C   0  0  0  0  0  0
   -6.8156   55.2902   31.7619 C   0  0  0  0  0  0
   -7.0557   54.5463   30.5906 C   0  0  0  0  0  0
   -6.1061   53.7655   30.1241 N   0  0  0  0  0  0
   -4.7259   53.9530   31.1100 S   0  0  0  0  0  0
   -8.2143   54.5564   29.8640 O   0  0  0  0  0  0
   -7.7659   56.2250   32.3902 C   0  0  0  0  0  0
   -7.3575   57.4133   32.6353 N   0  0  0  0  0  0
   -8.2488   58.4007   33.2540 C   0  0  0  0  0  0
   -8.3646   59.6555   32.3407 C   0  0  0  0  0  0
   -7.1296   60.3471   32.1630 O   0  0  0  0  0  0
   -7.7190   58.7064   34.6705 C   0  0  0  0  0  0
   -8.5886   59.5480   35.4056 O   0  0  0  0  0  0
   -8.9738   55.6074   32.6228 N   0  0  0  0  0  0
    0.2291   57.5750   33.9419 O   0  0  0  0  0  0
    0.4860   58.9283   34.0927 C   0  0  0  0  0  0
   -0.2120   59.6764   35.0511 C   0  0  0  0  0  0
   -0.1181   61.0610   35.0808 C   0  0  0  0  0  0
    0.7725   61.7141   34.2335 C   0  0  0  0  0  0
    1.5575   60.9783   33.3494 C   0  0  0  0  0  0
    1.4175   59.5926   33.2733 C   0  0  0  0  0  0
    2.4335   58.7477   32.1629 Cl  0  0  0  0  0  0
   -1.1259   61.9480   36.1698 Cl  0  0  0  0  0  0
   -2.6274   54.0630   33.5204 H   0  0  0  0  0  0
   -0.3762   55.0449   33.8158 H   0  0  0  0  0  0
   -2.1633   58.9686   33.7631 H   0  0  0  0  0  0
   -4.3323   57.9974   33.5320 H   0  0  0  0  0  0
   -5.5563   56.0504   33.9460 H   0  0  0  0  0  0
   -8.5213   55.4669   29.8061 H   0  0  0  0  0  0
   -9.2661   58.0205   33.3724 H   0  0  0  0  0  0
   -9.1201   60.3388   32.7352 H   0  0  0  0  0  0
   -8.7253   59.3506   31.3581 H   0  0  0  0  0  0
   -6.5002   59.6733   31.8687 H   0  0  0  0  0  0
   -7.6125   57.7811   35.2389 H   0  0  0  0  0  0
   -6.7261   59.1479   34.6066 H   0  0  0  0  0  0
   -8.6362   60.4206   34.9970 H   0  0  0  0  0  0
   -9.7038   56.0882   33.1266 H   0  0  0  0  0  0
   -9.0955   54.6349   32.3829 H   0  0  0  0  0  0
   -0.8984   59.1838   35.7227 H   0  0  0  0  0  0
    0.8662   62.7881   34.2670 H   0  0  0  0  0  0
    2.2668   61.4874   32.7117 H   0  0  0  0  0  0
  1  6  1  0  0  0
  1  2  2  0  0  0
  1 31  1  0  0  0
  2  3  1  0  0  0
  2 32  1  0  0  0
  3  4  2  0  0  0
  3 22  1  0  0  0
  4  5  1  0  0  0
  4 33  1  0  0  0
  5  6  2  0  0  0
  5 34  1  0  0  0
  6  7  1  0  0  0
  7  8  1  0  0  0
  7 35  1  0  0  0
  8 12  1  0  0  0
  8  9  2  0  0  0
  9 10  1  0  0  0
  9 14  1  0  0  0
 10 11  2  0  0  0
 10 13  1  0  0  0
 11 12  1  0  0  0
 13 36  1  0  0  0
 14 15  2  0  0  0
 14 21  1  0  0  0
 15 16  1  0  0  0
 16 17  1  0  0  0
 16 19  1  0  0  0
 16 37  1  0  0  0
 17 18  1  0  0  0
 17 38  1  0  0  0
 17 39  1  0  0  0
 18 40  1  0  0  0
 19 20  1  0  0  0
 19 41  1  0  0  0
 19 42  1  0  0  0
 20 43  1  0  0  0
 21 44  1  0  0  0
 21 45  1  0  0  0
 22 23  1  0  0  0
 23 28  1  0  0  0
 23 24  2  0  0  0
 24 25  1  0  0  0
 24 46  1  0  0  0
 25 26  2  0  0  0
 25 30  1  0  0  0
 26 27  1  0  0  0
 26 47  1  0  0  0
 27 28  2  0  0  0
 27 48  1  0  0  0
 28 29  1  0  0  0
M  END
> <s_m_entry_id>
66107

> <s_m_entry_name>
ligand_docking-pose.163

> <s_m_Source_Path>
/home/csk/Desktop/cluster/DUD-E-result/mp2k1

> <s_m_Source_File>
ligand_docking-pose.sdf

> <i_m_Source_File_Index>
163

> <i_lp_mmshare_version>
53161

> <r_lp_tautomer_probability>
1

> <s_lp_Force_Field>
OPLS_2005

> <r_lp_Energy>
26.364656

> <b_lp_Chiralities_Consistent>
1

> <s_lp_Variant>
363044-1

> <s_i_glide_gridfile>
glide-grid_3eqh

> <i_i_glide_lignum>
57

> <i_i_glide_rotatable_bonds>
11

> <r_i_docking_score>
-6.8845938244914

> <r_i_glide_ligand_efficiency>
-0.22948646081638

> <r_i_glide_ligand_efficiency_sa>
-0.713067789916535

> <r_i_glide_ligand_efficiency_ln>
-1.56425473058229

> <r_i_glide_gscore>
-6.8845938244914

> <r_i_glide_lipo>
-3.59466461267726

> <r_i_glide_hbond>
-0.0206673419211955

> <r_i_glide_metal>
0

> <r_i_glide_rewards>
-0.435823427336501

> <r_i_glide_evdw>
-50.915355682373

> <r_i_glide_ecoul>
-6.57810497283936

> <r_i_glide_erotb>
0.733488645533688

> <r_i_glide_esite>
-0.0344435580455731

> <r_i_glide_emodel>
-77.595806369591

> <r_i_glide_energy>
-57.4934606552124

> <r_i_glide_einternal>
15.7976512908936

> <i_i_glide_confnum>
55

> <i_i_glide_posenum>
27

> <r_i_glide_eff_state_penalty>
0

> <i_f3d_flags>
0

> <s_user_duplicate_titles>
363044

> <s_m_subgroup_title>
dock_pv

> <s_m_subgroupid>
dock_pv1

> <b_m_subgroup_collapsed>
0

$$$$
291051
                    3D
 Schrodinger Suite 2021-1.
 51 53  0  0  1  0            999 V2000
   -8.7006   51.4690   32.7024 C   0  0  0  0  0  0
   -7.7938   51.8247   31.6621 O   0  0  0  0  0  0
   -6.9474   52.9083   31.8332 C   0  0  0  0  0  0
   -6.9765   53.7388   32.9660 C   0  0  0  0  0  0
   -6.0782   54.7938   33.0984 C   0  0  0  0  0  0
   -5.1248   55.0356   32.1119 C   0  0  0  0  0  0
   -5.1100   54.2375   30.9656 C   0  0  0  0  0  0
   -6.0158   53.1712   30.8140 C   0  0  0  0  0  0
   -6.0340   52.3370   29.7086 O   0  0  0  0  0  0
   -5.1273   52.5703   28.6380 C   0  0  0  0  0  0
   -4.0669   56.1160   32.3181 C   0  0  0  0  0  0
   -3.0033   55.7148   33.3718 C   0  0  1  0  0  0
   -2.3880   54.3479   33.1142 C   0  0  0  0  0  0
   -1.0885   54.4116   33.6673 O   0  0  0  0  0  0
   -0.6634   55.6742   33.7631 C   0  0  0  0  0  0
    0.4856   55.9178   34.1199 O   0  0  0  0  0  0
   -1.8008   56.6567   33.4485 C   0  0  2  0  0  0
   -1.9469   57.7292   34.5616 C   0  0  0  0  0  0
   -0.9756   58.9089   34.5629 C   0  0  0  0  0  0
   -1.2227   59.9483   35.4580 C   0  0  0  0  0  0
   -0.4733   61.1174   35.4133 C   0  0  0  0  0  0
    0.6129   61.2155   34.5560 C   0  0  0  0  0  0
    0.9250   60.1684   33.6916 C   0  0  0  0  0  0
    0.1035   59.0260   33.6776 C   0  0  0  0  0  0
    2.0326   60.3482   32.8931 O   0  0  0  0  0  0
    2.4745   59.2681   32.1087 C   0  0  0  0  0  0
    1.3792   62.3481   34.5682 O   0  0  0  0  0  0
   -3.5008   55.6623   34.3442 H   0  0  0  0  0  0
   -1.6129   57.1170   32.4777 H   0  0  0  0  0  0
   -9.2595   50.5813   32.4058 H   0  0  0  0  0  0
   -8.1751   51.2298   33.6288 H   0  0  0  0  0  0
   -9.4237   52.2633   32.8939 H   0  0  0  0  0  0
   -7.6820   53.5740   33.7656 H   0  0  0  0  0  0
   -6.1041   55.4038   33.9895 H   0  0  0  0  0  0
   -4.3711   54.4455   30.2075 H   0  0  0  0  0  0
   -5.2969   51.8225   27.8644 H   0  0  0  0  0  0
   -5.2809   53.5521   28.1873 H   0  0  0  0  0  0
   -4.0896   52.4795   28.9636 H   0  0  0  0  0  0
   -4.5610   57.0431   32.6127 H   0  0  0  0  0  0
   -3.5885   56.3418   31.3630 H   0  0  0  0  0  0
   -2.9740   53.5598   33.5913 H   0  0  0  0  0  0
   -2.3268   54.1324   32.0467 H   0  0  0  0  0  0
   -1.9190   57.2638   35.5491 H   0  0  0  0  0  0
   -2.9449   58.1615   34.4707 H   0  0  0  0  0  0
   -2.0541   59.8865   36.1439 H   0  0  0  0  0  0
   -0.7207   61.9314   36.0793 H   0  0  0  0  0  0
    0.3001   58.2373   32.9703 H   0  0  0  0  0  0
    3.4780   59.4920   31.7637 H   0  0  0  0  0  0
    2.5246   58.3480   32.6808 H   0  0  0  0  0  0
    1.8148   59.1475   31.2516 H   0  0  0  0  0  0
    0.9834   63.0523   35.0881 H   0  0  0  0  0  0
  1  2  1  0  0  0
  1 30  1  0  0  0
  1 31  1  0  0  0
  1 32  1  0  0  0
  2  3  1  0  0  0
  3  8  1  0  0  0
  3  4  2  0  0  0
  4  5  1  0  0  0
  4 33  1  0  0  0
  5  6  2  0  0  0
  5 34  1  0  0  0
  6  7  1  0  0  0
  6 11  1  0  0  0
  7  8  2  0  0  0
  7 35  1  0  0  0
  8  9  1  0  0  0
  9 10  1  0  0  0
 10 36  1  0  0  0
 10 37  1  0  0  0
 10 38  1  0  0  0
 11 12  1  0  0  0
 11 39  1  0  0  0
 11 40  1  0  0  0
 12 28  1  0  0  0
 12 17  1  0  0  0
 12 13  1  0  0  0
 13 14  1  0  0  0
 13 41  1  0  0  0
 13 42  1  0  0  0
 14 15  1  0  0  0
 15 16  2  0  0  0
 15 17  1  0  0  0
 17 29  1  0  0  0
 17 18  1  0  0  0
 18 19  1  0  0  0
 18 43  1  0  0  0
 18 44  1  0  0  0
 19 24  1  0  0  0
 19 20  2  0  0  0
 20 21  1  0  0  0
 20 45  1  0  0  0
 21 22  2  0  0  0
 21 46  1  0  0  0
 22 23  1  0  0  0
 22 27  1  0  0  0
 23 24  2  0  0  0
 23 25  1  0  0  0
 24 47  1  0  0  0
 25 26  1  0  0  0
 26 48  1  0  0  0
 26 49  1  0  0  0
 26 50  1  0  0  0
 27 51  1  0  0  0
M  END
> <s_m_entry_id>
66108

> <s_m_entry_name>
ligand_docking-pose.164

> <s_m_Source_Path>
/home/csk/Desktop/cluster/DUD-E-result/mp2k1

> <s_m_Source_File>
ligand_docking-pose.sdf

> <i_m_Source_File_Index>
164

> <i_lp_mmshare_version>
53161

> <r_lp_tautomer_probability>
0.999999999999776

> <s_lp_Force_Field>
OPLS_2005

> <r_lp_Energy>
31.235198

> <b_lp_Chiralities_Consistent>
1

> <s_lp_Variant>
291051-1

> <s_i_glide_gridfile>
glide-grid_3eqh

> <i_i_glide_lignum>
404

> <i_i_glide_rotatable_bonds>
8

> <r_i_docking_score>
-6.86989028814377

> <r_i_glide_ligand_efficiency>
-0.254440381042362

> <r_i_glide_ligand_efficiency_sa>
-0.763321142288492

> <r_i_glide_ligand_efficiency_ln>
-1.5991972000868

> <r_i_glide_gscore>
-6.86989028814377

> <r_i_glide_lipo>
-3.33162806607888

> <r_i_glide_hbond>
0

> <r_i_glide_metal>
0

> <r_i_glide_rewards>
-1.38415262180242

> <r_i_glide_evdw>
-41.0889167785645

> <r_i_glide_ecoul>
-4.37798929214478

> <r_i_glide_erotb>
0.557034632487472

> <r_i_glide_esite>
0

> <r_i_glide_emodel>
-58.9809208050601

> <r_i_glide_energy>
-45.4669060707092

> <r_i_glide_einternal>
6.22612857818604

> <i_i_glide_confnum>
16

> <i_i_glide_posenum>
66

> <r_i_glide_eff_state_penalty>
0

> <i_f3d_flags>
0

> <s_user_duplicate_titles>
291051

> <s_m_subgroup_title>
dock_pv

> <s_m_subgroupid>
dock_pv1

> <b_m_subgroup_collapsed>
0

$$$$
354592
                    3D
 Schrodinger Suite 2021-1.
 38 39  0  0  1  0            999 V2000
   -6.9797   56.6042   33.9643 C   0  0  0  0  0  0
   -6.1296   57.8562   34.2963 C   0  0  0  0  0  0
   -6.4781   59.0159   33.3349 C   0  0  0  0  0  0
   -4.6877   57.5703   34.4147 N   0  0  0  0  0  0
   -4.0229   57.0482   33.4562 C   0  0  0  0  0  0
   -2.6344   56.6101   33.6826 C   0  0  0  0  0  0
   -2.2626   55.2546   33.6722 C   0  0  0  0  0  0
   -0.9930   54.9337   33.7633 N   0  0  0  0  0  0
   -0.0923   56.3724   33.9065 S   0  0  0  0  0  0
   -1.5031   57.3954   33.9321 C   0  0  0  0  0  0
   -1.4220   58.7482   34.1633 N   0  0  0  0  0  0
   -0.3259   59.6322   34.0428 C   0  0  0  0  0  0
    0.5896   59.5279   32.9858 C   0  0  0  0  0  0
    1.5833   60.4852   32.7847 C   0  0  0  0  0  0
    1.6822   61.5818   33.6440 C   0  0  0  0  0  0
    0.7960   61.6716   34.7185 C   0  0  0  0  0  0
   -0.2102   60.7251   34.9110 C   0  0  0  0  0  0
   -1.3500   60.9911   36.1799 Cl  0  0  0  0  0  0
    2.7001   62.6980   33.4129 C   0  0  0  0  0  0
    3.6629   62.3484   32.5631 F   0  0  0  0  0  0
    2.0688   63.7603   32.9137 F   0  0  0  0  0  0
    3.2740   63.0444   34.5628 F   0  0  0  0  0  0
   -3.1358   54.2071   33.5722 O   0  0  0  0  0  0
   -4.3877   56.7450   32.1643 N   0  0  0  0  0  0
   -8.0363   56.7941   34.1569 H   0  0  0  0  0  0
   -6.6971   55.7418   34.5630 H   0  0  0  0  0  0
   -6.8999   56.3120   32.9175 H   0  0  0  0  0  0
   -6.4468   58.1685   35.2925 H   0  0  0  0  0  0
   -7.5343   59.2717   33.4267 H   0  0  0  0  0  0
   -5.9258   59.9271   33.5415 H   0  0  0  0  0  0
   -6.3203   58.7470   32.2906 H   0  0  0  0  0  0
   -2.2715   59.2606   34.3710 H   0  0  0  0  0  0
    0.4931   58.7483   32.2546 H   0  0  0  0  0  0
    2.2444   60.3859   31.9349 H   0  0  0  0  0  0
    0.8638   62.5125   35.3919 H   0  0  0  0  0  0
   -4.0325   54.5477   33.5579 H   0  0  0  0  0  0
   -5.3087   57.0022   31.8421 H   0  0  0  0  0  0
   -3.6693   56.6036   31.4685 H   0  0  0  0  0  0
  1  2  1  0  0  0
  1 25  1  0  0  0
  1 26  1  0  0  0
  1 27  1  0  0  0
  2  3  1  0  0  0
  2  4  1  0  0  0
  2 28  1  0  0  0
  3 29  1  0  0  0
  3 30  1  0  0  0
  3 31  1  0  0  0
  4  5  2  0  0  0
  5  6  1  0  0  0
  5 24  1  0  0  0
  6 10  2  0  0  0
  6  7  1  0  0  0
  7  8  2  0  0  0
  7 23  1  0  0  0
  8  9  1  0  0  0
  9 10  1  0  0  0
 10 11  1  0  0  0
 11 12  1  0  0  0
 11 32  1  0  0  0
 12 17  1  0  0  0
 12 13  2  0  0  0
 13 14  1  0  0  0
 13 33  1  0  0  0
 14 15  2  0  0  0
 14 34  1  0  0  0
 15 16  1  0  0  0
 15 19  1  0  0  0
 16 17  2  0  0  0
 16 35  1  0  0  0
 17 18  1  0  0  0
 19 20  1  0  0  0
 19 21  1  0  0  0
 19 22  1  0  0  0
 23 36  1  0  0  0
 24 37  1  0  0  0
 24 38  1  0  0  0
M  END
> <s_m_entry_id>
66109

> <s_m_entry_name>
ligand_docking-pose.165

> <s_m_Source_Path>
/home/csk/Desktop/cluster/DUD-E-result/mp2k1

> <s_m_Source_File>
ligand_docking-pose.sdf

> <i_m_Source_File_Index>
165

> <i_lp_mmshare_version>
53161

> <r_lp_tautomer_probability>
1

> <s_lp_Force_Field>
OPLS_2005

> <r_lp_Energy>
17.015814

> <b_lp_Chiralities_Consistent>
1

> <s_lp_Variant>
354592-1

> <s_i_glide_gridfile>
glide-grid_3eqh

> <i_i_glide_lignum>
210

> <i_i_glide_rotatable_bonds>
6

> <r_i_docking_score>
-6.86937753741908

> <r_i_glide_ligand_efficiency>
-0.286224064059128

> <r_i_glide_ligand_efficiency_sa>
-0.825613065927222

> <r_i_glide_ligand_efficiency_ln>
-1.64415725989988

> <r_i_glide_gscore>
-6.86937753741908

> <r_i_glide_lipo>
-3.0202467351596

> <r_i_glide_hbond>
-0.0906008282502626

> <r_i_glide_metal>
0

> <r_i_glide_rewards>
-1.55617033761857

> <r_i_glide_evdw>
-39.2317848205566

> <r_i_glide_ecoul>
-5.20734167098999

> <r_i_glide_erotb>
0.540330855285691

> <r_i_glide_esite>
0

> <r_i_glide_emodel>
-59.1393792219839

> <r_i_glide_energy>
-44.4391264915466

> <r_i_glide_einternal>
5.08362722396851

> <i_i_glide_confnum>
19

> <i_i_glide_posenum>
322

> <r_i_glide_eff_state_penalty>
0

> <i_f3d_flags>
0

> <s_user_duplicate_titles>
354592

> <s_m_subgroup_title>
dock_pv

> <s_m_subgroupid>
dock_pv1

> <b_m_subgroup_collapsed>
0

$$$$
353885
                    3D
 Schrodinger Suite 2021-1.
 45 47  0  0  1  0            999 V2000
   -6.8035   53.9376   29.7642 C   0  0  0  0  0  0
   -6.0844   54.8249   30.5633 C   0  0  0  0  0  0
   -4.7132   54.6433   30.7918 C   0  0  0  0  0  0
   -4.0742   53.5656   30.1616 C   0  0  0  0  0  0
   -4.7965   52.6580   29.3790 C   0  0  0  0  0  0
   -6.1601   52.8487   29.1781 C   0  0  0  0  0  0
   -3.9287   51.1517   28.6005 Br  0  0  0  0  0  0
   -3.9197   55.4743   31.6118 N   0  0  0  0  0  0
   -4.2223   56.2876   32.6958 C   0  0  0  0  0  0
   -3.3322   56.8181   33.6485 C   0  0  0  0  0  0
   -4.0486   57.5779   34.5968 C   0  0  0  0  0  0
   -5.3459   57.6881   34.4904 N   0  0  0  0  0  0
   -5.8359   56.7867   33.1384 S   0  0  0  0  0  0
   -3.5055   58.2348   35.6666 O   0  0  0  0  0  0
   -1.8714   56.6035   33.7313 C   0  0  0  0  0  0
   -1.1742   57.5756   34.1783 N   0  0  0  0  0  0
    0.2657   57.4578   34.3574 C   0  0  0  0  0  0
    0.9694   58.8281   34.1673 C   0  0  0  0  0  0
    1.1005   59.2087   32.6771 C   0  0  0  0  0  0
    1.7688   60.5748   32.4480 C   0  0  0  0  0  0
    1.1565   61.7036   33.3029 C   0  0  0  0  0  0
    1.0745   61.3160   34.7918 C   0  0  0  0  0  0
    0.3110   59.9892   34.9634 C   0  0  0  0  0  0
   -1.5199   55.3235   33.3735 N   0  0  0  0  0  0
   -7.8568   54.1041   29.5908 H   0  0  0  0  0  0
   -6.6229   55.6689   30.9521 H   0  0  0  0  0  0
   -3.0149   53.4103   30.2949 H   0  0  0  0  0  0
   -6.7211   52.1584   28.5694 H   0  0  0  0  0  0
   -2.9389   55.3613   31.4051 H   0  0  0  0  0  0
   -2.5490   58.1998   35.5428 H   0  0  0  0  0  0
    0.7173   56.7079   33.7000 H   0  0  0  0  0  0
    0.4679   57.1365   35.3771 H   0  0  0  0  0  0
    1.9895   58.7384   34.5501 H   0  0  0  0  0  0
    0.1102   59.2083   32.2154 H   0  0  0  0  0  0
    1.6740   58.4369   32.1641 H   0  0  0  0  0  0
    1.6790   60.8280   31.3926 H   0  0  0  0  0  0
    2.8376   60.4967   32.6553 H   0  0  0  0  0  0
    0.1526   61.9319   32.9413 H   0  0  0  0  0  0
    1.7406   62.6171   33.1893 H   0  0  0  0  0  0
    0.5774   62.1061   35.3568 H   0  0  0  0  0  0
    2.0764   61.2232   35.2102 H   0  0  0  0  0  0
    0.2439   59.7271   36.0187 H   0  0  0  0  0  0
   -0.7269   60.1252   34.6500 H   0  0  0  0  0  0
   -0.5736   55.0044   33.5008 H   0  0  0  0  0  0
   -2.2517   54.6408   33.2331 H   0  0  0  0  0  0
  1  6  1  0  0  0
  1  2  2  0  0  0
  1 25  1  0  0  0
  2  3  1  0  0  0
  2 26  1  0  0  0
  3  4  2  0  0  0
  3  8  1  0  0  0
  4  5  1  0  0  0
  4 27  1  0  0  0
  5  6  2  0  0  0
  5  7  1  0  0  0
  6 28  1  0  0  0
  8  9  1  0  0  0
  8 29  1  0  0  0
  9 13  1  0  0  0
  9 10  2  0  0  0
 10 11  1  0  0  0
 10 15  1  0  0  0
 11 12  2  0  0  0
 11 14  1  0  0  0
 12 13  1  0  0  0
 14 30  1  0  0  0
 15 16  2  0  0  0
 15 24  1  0  0  0
 16 17  1  0  0  0
 17 18  1  0  0  0
 17 31  1  0  0  0
 17 32  1  0  0  0
 18 23  1  0  0  0
 18 19  1  0  0  0
 18 33  1  0  0  0
 19 20  1  0  0  0
 19 34  1  0  0  0
 19 35  1  0  0  0
 20 21  1  0  0  0
 20 36  1  0  0  0
 20 37  1  0  0  0
 21 22  1  0  0  0
 21 38  1  0  0  0
 21 39  1  0  0  0
 22 23  1  0  0  0
 22 40  1  0  0  0
 22 41  1  0  0  0
 23 42  1  0  0  0
 23 43  1  0  0  0
 24 44  1  0  0  0
 24 45  1  0  0  0
M  END
> <s_m_entry_id>
66110

> <s_m_entry_name>
ligand_docking-pose.166

> <s_m_Source_Path>
/home/csk/Desktop/cluster/DUD-E-result/mp2k1

> <s_m_Source_File>
ligand_docking-pose.sdf

> <i_m_Source_File_Index>
166

> <i_lp_mmshare_version>
53161

> <r_lp_tautomer_probability>
1

> <s_lp_Force_Field>
OPLS_2005

> <r_lp_Energy>
23.796274

> <b_lp_Chiralities_Consistent>
1

> <s_lp_Variant>
353885-1

> <s_i_glide_gridfile>
glide-grid_3eqh

> <i_i_glide_lignum>
15

> <i_i_glide_rotatable_bonds>
6

> <r_i_docking_score>
-6.84892939350789

> <r_i_glide_ligand_efficiency>
-0.285372058062829

> <r_i_glide_ligand_efficiency_sa>
-0.8231554553657

> <r_i_glide_ligand_efficiency_ln>
-1.63926308075775

> <r_i_glide_gscore>
-6.84892939350789

> <r_i_glide_lipo>
-3.12828436124097

> <r_i_glide_hbond>
-0.16

> <r_i_glide_metal>
0

> <r_i_glide_rewards>
-1.5025672987641

> <r_i_glide_evdw>
-43.501220703125

> <r_i_glide_ecoul>
-2.35363936424255

> <r_i_glide_erotb>
0.470029206289808

> <r_i_glide_esite>
0

> <r_i_glide_emodel>
-62.8206984714916

> <r_i_glide_energy>
-45.8548600673676

> <r_i_glide_einternal>
4.68441200256348

> <i_i_glide_confnum>
42

> <i_i_glide_posenum>
348

> <r_i_glide_eff_state_penalty>
0

> <i_f3d_flags>
0

> <s_user_duplicate_titles>
353885

> <s_m_subgroup_title>
dock_pv

> <s_m_subgroupid>
dock_pv1

> <b_m_subgroup_collapsed>
0

$$$$
354591
                    3D
 Schrodinger Suite 2021-1.
 36 37  0  0  1  0            999 V2000
   -6.7173   55.7050   33.0613 C   0  0  0  0  0  0
   -5.9736   57.0079   33.4164 C   0  0  2  0  0  0
   -6.3251   58.1964   32.4842 C   0  0  0  0  0  0
   -7.7097   58.3833   32.2693 O   0  0  0  0  0  0
   -4.5424   56.7272   33.3205 N   0  0  0  0  0  0
   -3.7270   57.1349   34.2115 C   0  0  0  0  0  0
   -2.3210   56.7225   34.0708 C   0  0  0  0  0  0
   -1.9290   55.3952   33.8244 C   0  0  0  0  0  0
   -0.6504   55.1020   33.7632 N   0  0  0  0  0  0
    0.2305   56.5300   34.0392 S   0  0  0  0  0  0
   -1.1865   57.5347   34.1716 C   0  0  0  0  0  0
   -1.1245   58.9005   34.3581 N   0  0  0  0  0  0
   -0.0610   59.7991   34.1394 C   0  0  0  0  0  0
    0.8726   59.6033   33.1102 C   0  0  0  0  0  0
    1.8818   60.5353   32.8693 C   0  0  0  0  0  0
    1.9752   61.6779   33.6599 C   0  0  0  0  0  0
    1.0642   61.8708   34.6935 C   0  0  0  0  0  0
    0.0371   60.9560   34.9269 C   0  0  0  0  0  0
   -1.1259   61.3126   36.1647 Cl  0  0  0  0  0  0
    3.4418   63.1286   33.2906 I   0  0  0  0  0  0
   -2.7913   54.3481   33.6696 O   0  0  0  0  0  0
   -3.9210   57.8610   35.3625 N   0  0  0  0  0  0
   -7.7950   55.8269   33.1509 H   0  0  0  0  0  0
   -6.5079   55.3869   32.0373 H   0  0  0  0  0  0
   -6.4324   54.8909   33.7296 H   0  0  0  0  0  0
   -6.2818   57.2786   34.4298 H   0  0  0  0  0  0
   -5.8718   58.0661   31.5009 H   0  0  0  0  0  0
   -5.9280   59.1125   32.9242 H   0  0  0  0  0  0
   -7.9264   57.9479   31.4337 H   0  0  0  0  0  0
   -1.9796   59.4003   34.5718 H   0  0  0  0  0  0
    0.8059   58.7481   32.4592 H   0  0  0  0  0  0
    2.5803   60.3775   32.0629 H   0  0  0  0  0  0
    1.1484   62.7479   35.3113 H   0  0  0  0  0  0
   -3.6788   54.7095   33.5995 H   0  0  0  0  0  0
   -4.8650   57.9309   35.7053 H   0  0  0  0  0  0
   -3.1616   57.9001   36.0274 H   0  0  0  0  0  0
  1  2  1  0  0  0
  1 23  1  0  0  0
  1 24  1  0  0  0
  1 25  1  0  0  0
  2  3  1  0  0  0
  2  5  1  0  0  0
  2 26  1  0  0  0
  3  4  1  0  0  0
  3 27  1  0  0  0
  3 28  1  0  0  0
  4 29  1  0  0  0
  5  6  2  0  0  0
  6  7  1  0  0  0
  6 22  1  0  0  0
  7 11  2  0  0  0
  7  8  1  0  0  0
  8  9  2  0  0  0
  8 21  1  0  0  0
  9 10  1  0  0  0
 10 11  1  0  0  0
 11 12  1  0  0  0
 12 13  1  0  0  0
 12 30  1  0  0  0
 13 18  1  0  0  0
 13 14  2  0  0  0
 14 15  1  0  0  0
 14 31  1  0  0  0
 15 16  2  0  0  0
 15 32  1  0  0  0
 16 17  1  0  0  0
 16 20  1  0  0  0
 17 18  2  0  0  0
 17 33  1  0  0  0
 18 19  1  0  0  0
 21 34  1  0  0  0
 22 35  1  0  0  0
 22 36  1  0  0  0
M  END
> <s_m_entry_id>
66111

> <s_m_entry_name>
ligand_docking-pose.167

> <s_m_Source_Path>
/home/csk/Desktop/cluster/DUD-E-result/mp2k1

> <s_m_Source_File>
ligand_docking-pose.sdf

> <i_m_Source_File_Index>
167

> <i_lp_mmshare_version>
53161

> <r_lp_tautomer_probability>
1

> <s_lp_Force_Field>
OPLS_2005

> <r_lp_Energy>
17.676208

> <b_lp_Chiralities_Consistent>
1

> <s_lp_Variant>
354591-1

> <s_i_glide_gridfile>
glide-grid_3eqh

> <i_i_glide_lignum>
223

> <i_i_glide_rotatable_bonds>
7

> <r_i_docking_score>
-6.84632042904995

> <r_i_glide_ligand_efficiency>
-0.311196383138634

> <r_i_glide_ligand_efficiency_sa>
-0.871984504213709

> <r_i_glide_ligand_efficiency_ln>
-1.6734904384651

> <r_i_glide_gscore>
-6.84632042904995

> <r_i_glide_lipo>
-3.41188909821865

> <r_i_glide_hbond>
-0.150805077444412

> <r_i_glide_metal>
0

> <r_i_glide_rewards>
-0.814673054040272

> <r_i_glide_evdw>
-43.9424324035645

> <r_i_glide_ecoul>
-4.70055389404297

> <r_i_glide_erotb>
0.489595956505187

> <r_i_glide_esite>
-0.0563444515671386

> <r_i_glide_emodel>
-65.9717711376112

> <r_i_glide_energy>
-48.6429862976074

> <r_i_glide_einternal>
4.29933595657349

> <i_i_glide_confnum>
210

> <i_i_glide_posenum>
274

> <r_i_glide_eff_state_penalty>
0

> <i_f3d_flags>
0

> <s_user_duplicate_titles>
354591

> <s_m_subgroup_title>
dock_pv

> <s_m_subgroupid>
dock_pv1

> <b_m_subgroup_collapsed>
0

$$$$
363040
                    3D
 Schrodinger Suite 2021-1.
 57 60  0  0  1  0            999 V2000
   -2.5126   55.1213   32.9675 C   0  0  0  0  0  0
   -1.3299   55.7081   33.4146 C   0  0  0  0  0  0
   -1.2926   57.0525   33.7835 C   0  0  0  0  0  0
   -2.4910   57.7842   33.7625 C   0  0  0  0  0  0
   -3.6788   57.1924   33.3432 C   0  0  0  0  0  0
   -3.6881   55.8736   32.8980 C   0  0  0  0  0  0
   -4.8998   55.3472   32.4195 N   0  0  0  0  0  0
   -5.1498   54.5820   31.2946 C   0  0  0  0  0  0
   -6.3831   54.1029   30.8332 C   0  0  0  0  0  0
   -6.2051   53.3927   29.6295 C   0  0  0  0  0  0
   -4.9997   53.2813   29.1291 N   0  0  0  0  0  0
   -3.9274   54.1493   30.1328 S   0  0  0  0  0  0
   -7.2004   52.7796   28.9163 O   0  0  0  0  0  0
   -7.6803   54.3220   31.4879 C   0  0  0  0  0  0
   -7.7412   54.1243   32.7455 N   0  0  0  0  0  0
   -8.9926   54.3311   33.4605 C   0  0  0  0  0  0
   -8.8507   55.3660   34.6032 C   0  0  0  0  0  0
   -8.9017   56.7845   34.2062 N   0  0  0  0  0  0
   -7.6872   57.2386   33.5067 C   0  0  0  0  0  0
   -7.7678   58.7467   33.1645 C   0  0  0  0  0  0
   -7.9261   59.5480   34.3792 N   0  0  0  0  0  0
   -9.1357   59.1110   35.0757 C   0  0  0  0  0  0
   -9.0619   57.6030   35.4164 C   0  0  0  0  0  0
   -8.6305   54.7480   30.5847 N   0  0  0  0  0  0
   -0.0551   57.5654   34.1516 O   0  0  0  0  0  0
    0.1687   58.9222   34.2777 C   0  0  0  0  0  0
   -0.5038   59.6603   35.2609 C   0  0  0  0  0  0
   -0.3257   61.0394   35.3541 C   0  0  0  0  0  0
    0.5557   61.6846   34.4909 C   0  0  0  0  0  0
    1.2715   60.9597   33.5477 C   0  0  0  0  0  0
    1.0932   59.5837   33.4472 C   0  0  0  0  0  0
    2.0738   58.7479   32.3038 Cl  0  0  0  0  0  0
   -1.1460   61.9480   36.5646 Cl  0  0  0  0  0  0
   -2.5110   54.0819   32.6774 H   0  0  0  0  0  0
   -0.4256   55.1192   33.4518 H   0  0  0  0  0  0
   -2.5281   58.8255   34.0356 H   0  0  0  0  0  0
   -4.5778   57.7880   33.3126 H   0  0  0  0  0  0
   -5.6997   55.7113   32.9118 H   0  0  0  0  0  0
   -8.0356   53.0273   29.3243 H   0  0  0  0  0  0
   -9.2656   53.3753   33.9109 H   0  0  0  0  0  0
   -9.8487   54.5874   32.8327 H   0  0  0  0  0  0
   -7.9607   55.1528   35.1998 H   0  0  0  0  0  0
   -9.6955   55.1846   35.2715 H   0  0  0  0  0  0
   -7.5792   56.7121   32.5639 H   0  0  0  0  0  0
   -6.7981   57.0253   34.1025 H   0  0  0  0  0  0
   -6.8658   59.0679   32.6436 H   0  0  0  0  0  0
   -8.5938   58.9417   32.4768 H   0  0  0  0  0  0
   -8.0293   60.5328   34.1632 H   0  0  0  0  0  0
   -9.2488   59.7085   35.9821 H   0  0  0  0  0  0
  -10.0136   59.3310   34.4647 H   0  0  0  0  0  0
   -8.2378   57.4232   36.1105 H   0  0  0  0  0  0
   -9.9805   57.3157   35.9302 H   0  0  0  0  0  0
   -9.5401   54.9970   30.9392 H   0  0  0  0  0  0
   -8.3148   55.2514   29.7645 H   0  0  0  0  0  0
   -1.1790   59.1609   35.9403 H   0  0  0  0  0  0
    0.7085   62.7477   34.5659 H   0  0  0  0  0  0
    1.9762   61.4631   32.9028 H   0  0  0  0  0  0
  1  6  1  0  0  0
  1  2  2  0  0  0
  1 34  1  0  0  0
  2  3  1  0  0  0
  2 35  1  0  0  0
  3  4  2  0  0  0
  3 25  1  0  0  0
  4  5  1  0  0  0
  4 36  1  0  0  0
  5  6  2  0  0  0
  5 37  1  0  0  0
  6  7  1  0  0  0
  7  8  1  0  0  0
  7 38  1  0  0  0
  8 12  1  0  0  0
  8  9  2  0  0  0
  9 10  1  0  0  0
  9 14  1  0  0  0
 10 11  2  0  0  0
 10 13  1  0  0  0
 11 12  1  0  0  0
 13 39  1  0  0  0
 14 15  2  0  0  0
 14 24  1  0  0  0
 15 16  1  0  0  0
 16 17  1  0  0  0
 16 40  1  0  0  0
 16 41  1  0  0  0
 17 18  1  0  0  0
 17 42  1  0  0  0
 17 43  1  0  0  0
 18 23  1  0  0  0
 18 19  1  0  0  0
 19 20  1  0  0  0
 19 44  1  0  0  0
 19 45  1  0  0  0
 20 21  1  0  0  0
 20 46  1  0  0  0
 20 47  1  0  0  0
 21 22  1  0  0  0
 21 48  1  0  0  0
 22 23  1  0  0  0
 22 49  1  0  0  0
 22 50  1  0  0  0
 23 51  1  0  0  0
 23 52  1  0  0  0
 24 53  1  0  0  0
 24 54  1  0  0  0
 25 26  1  0  0  0
 26 31  1  0  0  0
 26 27  2  0  0  0
 27 28  1  0  0  0
 27 55  1  0  0  0
 28 29  2  0  0  0
 28 33  1  0  0  0
 29 30  1  0  0  0
 29 56  1  0  0  0
 30 31  2  0  0  0
 30 57  1  0  0  0
 31 32  1  0  0  0
M  END
> <s_m_entry_id>
66112

> <s_m_entry_name>
ligand_docking-pose.168

> <s_m_Source_Path>
/home/csk/Desktop/cluster/DUD-E-result/mp2k1

> <s_m_Source_File>
ligand_docking-pose.sdf

> <i_m_Source_File_Index>
168

> <i_lp_mmshare_version>
53161

> <r_lp_tautomer_probability>
1

> <s_lp_Force_Field>
OPLS_2005

> <r_lp_Energy>
50.42735

> <b_lp_Chiralities_Consistent>
1

> <s_lp_Variant>
363040-1

> <s_i_glide_gridfile>
glide-grid_3eqh

> <i_i_glide_lignum>
54

> <i_i_glide_rotatable_bonds>
9

> <r_i_docking_score>
-6.82702138672254

> <r_i_glide_ligand_efficiency>
-0.206879435961289

> <r_i_glide_ligand_efficiency_sa>
-0.663572892242612

> <r_i_glide_ligand_efficiency_ln>
-1.51829420798216

> <r_i_glide_gscore>
-6.82702138672254

> <r_i_glide_lipo>
-4.10524945119663

> <r_i_glide_hbond>
-0.225419933594309

> <r_i_glide_metal>
0

> <r_i_glide_rewards>
-0.15579418167352

> <r_i_glide_evdw>
-55.4542121887207

> <r_i_glide_ecoul>
-0.464388936758041

> <r_i_glide_erotb>
0.556393127365883

> <r_i_glide_esite>
-0.0545819976742268

> <r_i_glide_emodel>
-76.2191277141248

> <r_i_glide_energy>
-55.9186011254787

> <r_i_glide_einternal>
5.24668836593628

> <i_i_glide_confnum>
86

> <i_i_glide_posenum>
4

> <r_i_glide_eff_state_penalty>
0

> <i_f3d_flags>
0

> <s_user_duplicate_titles>
363040

> <s_m_subgroup_title>
dock_pv

> <s_m_subgroupid>
dock_pv1

> <b_m_subgroup_collapsed>
0

$$$$
396337
                    3D
 Schrodinger Suite 2021-1.
 34 35  0  0  1  0            999 V2000
   -6.5608   57.5943   32.6913 C   0  0  0  0  0  0
   -5.1864   57.1478   32.8659 N   0  0  0  0  0  0
   -4.4493   57.3406   33.9696 C   0  0  0  0  0  0
   -4.8491   57.9480   34.9617 O   0  0  0  0  0  0
   -3.1112   56.8029   33.8830 C   0  0  0  0  0  0
   -2.0403   57.6229   33.9943 C   0  0  0  0  0  0
   -0.7219   57.2316   33.9247 N   0  0  0  0  0  0
   -0.3913   55.9006   33.7700 C   0  0  0  0  0  0
    0.7508   55.4356   33.7629 O   0  0  0  0  0  0
   -1.5265   54.9945   33.6599 C   0  0  0  0  0  0
   -2.8250   55.3745   33.6834 C   0  0  0  0  0  0
   -3.8039   54.4183   33.5289 N   0  0  0  0  0  0
   -4.4373   54.0751   32.3219 C   0  0  0  0  0  0
   -3.9814   54.5611   31.0859 C   0  0  0  0  0  0
   -4.6215   54.1946   29.9033 C   0  0  0  0  0  0
   -5.7145   53.3296   29.9396 C   0  0  0  0  0  0
   -6.1789   52.8481   31.1630 C   0  0  0  0  0  0
   -5.5479   53.2215   32.3499 C   0  0  0  0  0  0
   -6.0232   52.7469   33.5253 F   0  0  0  0  0  0
   -6.6555   52.7476   28.1646 I   0  0  0  0  0  0
    0.3734   58.2039   34.0241 C   0  0  0  0  0  0
   -6.9829   57.1481   31.7895 H   0  0  0  0  0  0
   -6.6004   58.6783   32.5843 H   0  0  0  0  0  0
   -7.1807   57.3030   33.5402 H   0  0  0  0  0  0
   -4.7649   56.6601   32.0899 H   0  0  0  0  0  0
   -2.1291   58.6897   34.1638 H   0  0  0  0  0  0
   -1.2818   53.9526   33.5483 H   0  0  0  0  0  0
   -4.3280   54.1366   34.3465 H   0  0  0  0  0  0
   -3.1306   55.2262   31.0323 H   0  0  0  0  0  0
   -4.2674   54.5869   28.9628 H   0  0  0  0  0  0
   -7.0297   52.1839   31.1959 H   0  0  0  0  0  0
    0.2888   58.7667   34.9541 H   0  0  0  0  0  0
    1.3685   57.7567   34.0044 H   0  0  0  0  0  0
    0.3162   58.9100   33.1956 H   0  0  0  0  0  0
  1  2  1  0  0  0
  1 22  1  0  0  0
  1 23  1  0  0  0
  1 24  1  0  0  0
  2  3  1  0  0  0
  2 25  1  0  0  0
  3  4  2  0  0  0
  3  5  1  0  0  0
  5 11  1  0  0  0
  5  6  2  0  0  0
  6  7  1  0  0  0
  6 26  1  0  0  0
  7  8  1  0  0  0
  7 21  1  0  0  0
  8  9  2  0  0  0
  8 10  1  0  0  0
 10 11  2  0  0  0
 10 27  1  0  0  0
 11 12  1  0  0  0
 12 13  1  0  0  0
 12 28  1  0  0  0
 13 18  1  0  0  0
 13 14  2  0  0  0
 14 15  1  0  0  0
 14 29  1  0  0  0
 15 16  2  0  0  0
 15 30  1  0  0  0
 16 17  1  0  0  0
 16 20  1  0  0  0
 17 18  2  0  0  0
 17 31  1  0  0  0
 18 19  1  0  0  0
 21 32  1  0  0  0
 21 33  1  0  0  0
 21 34  1  0  0  0
M  END
> <s_m_entry_id>
66113

> <s_m_entry_name>
ligand_docking-pose.169

> <s_m_Source_Path>
/home/csk/Desktop/cluster/DUD-E-result/mp2k1

> <s_m_Source_File>
ligand_docking-pose.sdf

> <i_m_Source_File_Index>
169

> <i_lp_mmshare_version>
53161

> <r_lp_tautomer_probability>
0.999999999982488

> <s_lp_Force_Field>
OPLS_2005

> <r_lp_Energy>
33.957797

> <b_lp_Chiralities_Consistent>
1

> <s_lp_Variant>
396337-1

> <s_i_glide_gridfile>
glide-grid_3eqh

> <i_i_glide_lignum>
368

> <i_i_glide_rotatable_bonds>
4

> <r_i_docking_score>
-6.82388970050332

> <r_i_glide_ligand_efficiency>
-0.324947128595396

> <r_i_glide_ligand_efficiency_sa>
-0.896504488217654

> <r_i_glide_ligand_efficiency_ln>
-1.68719293948196

> <r_i_glide_gscore>
-6.82388970050332

> <r_i_glide_lipo>
-2.62161084919742

> <r_i_glide_hbond>
-0.597227863090806

> <r_i_glide_metal>
0

> <r_i_glide_rewards>
-0.72037999037116

> <r_i_glide_evdw>
-38.8808517456055

> <r_i_glide_ecoul>
-8.7079553604126

> <r_i_glide_erotb>
0.365564893498238

> <r_i_glide_esite>
0

> <r_i_glide_emodel>
-64.302205135642

> <r_i_glide_energy>
-47.5888071060181

> <r_i_glide_einternal>
6.88040590286255

> <i_i_glide_confnum>
39

> <i_i_glide_posenum>
351

> <r_i_glide_eff_state_penalty>
0

> <i_f3d_flags>
0

> <s_user_duplicate_titles>
396337

> <s_m_subgroup_title>
dock_pv

> <s_m_subgroupid>
dock_pv1

> <b_m_subgroup_collapsed>
0

$$$$
354593
                    3D
 Schrodinger Suite 2021-1.
 39 40  0  0  1  0            999 V2000
    1.6746   59.9394   35.0335 C   0  0  0  0  0  0
    1.1645   59.2132   33.7719 C   0  0  2  0  0  0
    1.3420   60.0499   32.4736 C   0  0  0  0  0  0
    0.8057   61.3602   32.5630 O   0  0  0  0  0  0
   -0.2430   58.8925   33.9783 N   0  0  0  0  0  0
   -0.6733   57.6902   33.9468 C   0  0  0  0  0  0
   -2.1121   57.5130   34.1815 C   0  0  0  0  0  0
   -2.8128   58.1514   35.2227 C   0  0  0  0  0  0
   -4.1011   57.9479   35.3413 N   0  0  0  0  0  0
   -4.6103   56.9788   34.0417 S   0  0  0  0  0  0
   -2.9957   56.7116   33.4451 C   0  0  0  0  0  0
   -2.7348   55.8804   32.3739 N   0  0  0  0  0  0
   -3.6496   55.0228   31.7308 C   0  0  0  0  0  0
   -3.8012   55.1608   30.3495 C   0  0  0  0  0  0
   -4.6340   54.3032   29.6337 C   0  0  0  0  0  0
   -5.3479   53.2975   30.2840 C   0  0  0  0  0  0
   -5.1932   53.1473   31.6664 C   0  0  0  0  0  0
   -4.3260   53.9709   32.3842 C   0  0  0  0  0  0
   -4.0242   53.5567   34.0395 Cl  0  0  0  0  0  0
   -6.2529   52.3706   29.4718 C   0  0  0  0  0  0
   -7.1856   53.0861   28.8438 F   0  0  0  0  0  0
   -5.5277   51.7237   28.5575 F   0  0  0  0  0  0
   -6.8657   51.4615   30.2318 F   0  0  0  0  0  0
   -2.2706   58.9920   36.1561 O   0  0  0  0  0  0
   -0.0326   56.4878   33.7630 N   0  0  0  0  0  0
    2.6914   60.3084   34.9078 H   0  0  0  0  0  0
    1.0507   60.7974   35.2868 H   0  0  0  0  0  0
    1.6739   59.2694   35.8925 H   0  0  0  0  0  0
    1.7806   58.3200   33.6458 H   0  0  0  0  0  0
    0.8860   59.5480   31.6199 H   0  0  0  0  0  0
    2.4033   60.1413   32.2413 H   0  0  0  0  0  0
    1.2324   61.8106   33.2965 H   0  0  0  0  0  0
   -1.8818   56.0237   31.8551 H   0  0  0  0  0  0
   -3.2803   55.9470   29.8195 H   0  0  0  0  0  0
   -4.7238   54.4127   28.5635 H   0  0  0  0  0  0
   -5.7057   52.3486   32.1874 H   0  0  0  0  0  0
   -1.4196   59.2863   35.8157 H   0  0  0  0  0  0
    0.9639   56.4726   33.6239 H   0  0  0  0  0  0
   -0.5440   55.6236   33.8653 H   0  0  0  0  0  0
  1  2  1  0  0  0
  1 26  1  0  0  0
  1 27  1  0  0  0
  1 28  1  0  0  0
  2  3  1  0  0  0
  2  5  1  0  0  0
  2 29  1  0  0  0
  3  4  1  0  0  0
  3 30  1  0  0  0
  3 31  1  0  0  0
  4 32  1  0  0  0
  5  6  2  0  0  0
  6  7  1  0  0  0
  6 25  1  0  0  0
  7 11  2  0  0  0
  7  8  1  0  0  0
  8  9  2  0  0  0
  8 24  1  0  0  0
  9 10  1  0  0  0
 10 11  1  0  0  0
 11 12  1  0  0  0
 12 13  1  0  0  0
 12 33  1  0  0  0
 13 18  1  0  0  0
 13 14  2  0  0  0
 14 15  1  0  0  0
 14 34  1  0  0  0
 15 16  2  0  0  0
 15 35  1  0  0  0
 16 17  1  0  0  0
 16 20  1  0  0  0
 17 18  2  0  0  0
 17 36  1  0  0  0
 18 19  1  0  0  0
 20 21  1  0  0  0
 20 22  1  0  0  0
 20 23  1  0  0  0
 24 37  1  0  0  0
 25 38  1  0  0  0
 25 39  1  0  0  0
M  END
> <s_m_entry_id>
66114

> <s_m_entry_name>
ligand_docking-pose.170

> <s_m_Source_Path>
/home/csk/Desktop/cluster/DUD-E-result/mp2k1

> <s_m_Source_File>
ligand_docking-pose.sdf

> <i_m_Source_File_Index>
170

> <i_lp_mmshare_version>
53161

> <r_lp_tautomer_probability>
1

> <s_lp_Force_Field>
OPLS_2005

> <r_lp_Energy>
20.122285

> <b_lp_Chiralities_Consistent>
1

> <s_lp_Variant>
354593-1

> <s_i_glide_gridfile>
glide-grid_3eqh

> <i_i_glide_lignum>
219

> <i_i_glide_rotatable_bonds>
8

> <r_i_docking_score>
-6.81518874683563

> <r_i_glide_ligand_efficiency>
-0.272607549873425

> <r_i_glide_ligand_efficiency_sa>
-0.797109310545379

> <r_i_glide_ligand_efficiency_ln>
-1.61540396772606

> <r_i_glide_gscore>
-6.81518874683563

> <r_i_glide_lipo>
-2.89141846717482

> <r_i_glide_hbond>
-0.390358686846391

> <r_i_glide_metal>
0

> <r_i_glide_rewards>
-1.11681932887976

> <r_i_glide_evdw>
-42.8027610778809

> <r_i_glide_ecoul>
-5.66740369796753

> <r_i_glide_erotb>
0.627087763217709

> <r_i_glide_esite>
-0.0534314185631993

> <r_i_glide_emodel>
-67.1641653054818

> <r_i_glide_energy>
-48.4701647758484

> <r_i_glide_einternal>
2.14463186264038

> <i_i_glide_confnum>
98

> <i_i_glide_posenum>
242

> <r_i_glide_eff_state_penalty>
0

> <i_f3d_flags>
0

> <s_user_duplicate_titles>
354593

> <s_m_subgroup_title>
dock_pv

> <s_m_subgroupid>
dock_pv1

> <b_m_subgroup_collapsed>
0

$$$$
333277
                    3D
 Schrodinger Suite 2021-1.
 61 65  0  0  1  0            999 V2000
   -0.7908   59.9491   35.7598 C   0  0  0  0  0  0
    0.2594   59.6529   34.8902 C   0  0  0  0  0  0
    0.1683   58.5467   34.0478 C   0  0  0  0  0  0
   -0.9733   57.7430   34.0601 C   0  0  0  0  0  0
   -2.0257   58.0535   34.9359 C   0  0  0  0  0  0
   -1.9263   59.1480   35.7854 C   0  0  0  0  0  0
   -0.9885   56.6762   33.1848 O   0  0  0  0  0  0
   -2.0772   55.8484   33.0612 C   0  0  0  0  0  0
   -2.4492   55.0147   34.1128 C   0  0  0  0  0  0
   -3.5165   54.1411   33.9613 C   0  0  0  0  0  0
   -4.2137   54.0939   32.7561 C   0  0  0  0  0  0
   -3.8450   54.9335   31.7011 C   0  0  0  0  0  0
   -2.7610   55.7927   31.8483 C   0  0  0  0  0  0
   -5.2418   53.1516   32.6531 N   0  0  0  0  0  0
   -6.2992   53.0912   31.7297 C   0  0  0  0  0  0
   -7.6145   53.3873   32.1894 C   0  0  0  0  0  0
   -7.8973   53.8860   33.4936 C   0  0  0  0  0  0
   -9.2011   54.2463   33.8222 C   0  0  0  0  0  0
  -10.2502   53.9466   33.0228 N   0  0  0  0  0  0
   -9.9864   53.4646   31.7836 C   0  0  0  0  0  0
   -8.6989   53.2025   31.2863 C   0  0  0  0  0  0
   -8.5298   52.7896   30.0025 N   0  0  0  0  0  0
   -7.2659   52.5704   29.5768 C   0  0  0  0  0  0
   -6.1366   52.6898   30.3876 C   0  0  0  0  0  0
   -4.8430   52.3485   29.8105 C   0  0  0  0  0  0
   -3.8182   52.0719   29.3591 N   0  0  0  0  0  0
   -9.5067   54.8758   35.0342 N   0  0  0  0  0  0
   -8.6942   55.8818   35.7331 C   0  0  0  0  0  0
   -7.5315   56.6302   35.0009 C   0  0  0  0  0  0
   -7.9439   57.5478   33.9300 N   0  0  0  0  0  0
   -8.5677   58.7595   34.4839 C   0  0  0  0  0  0
   -8.7916   59.8593   33.4266 C   0  0  0  0  0  0
   -7.5964   60.1507   32.6936 O   0  0  0  0  0  0
   -7.1712   58.9746   32.0170 C   0  0  0  0  0  0
   -6.8159   57.8642   33.0329 C   0  0  0  0  0  0
   -0.7340   60.8159   36.4024 H   0  0  0  0  0  0
    1.1398   60.2787   34.8684 H   0  0  0  0  0  0
    0.9794   58.3170   33.3707 H   0  0  0  0  0  0
   -2.9209   57.4549   34.9732 H   0  0  0  0  0  0
   -2.7257   59.3823   36.4686 H   0  0  0  0  0  0
   -1.9121   55.0443   35.0454 H   0  0  0  0  0  0
   -3.7879   53.4966   34.7860 H   0  0  0  0  0  0
   -4.3664   54.9139   30.7566 H   0  0  0  0  0  0
   -2.4433   56.3828   31.0018 H   0  0  0  0  0  0
   -5.5168   52.8178   33.5639 H   0  0  0  0  0  0
   -7.1011   53.9998   34.2058 H   0  0  0  0  0  0
  -10.8237   53.2961   31.1356 H   0  0  0  0  0  0
   -7.1834   52.2516   28.5478 H   0  0  0  0  0  0
  -10.3772   54.6148   35.4676 H   0  0  0  0  0  0
   -9.3799   56.6249   36.1400 H   0  0  0  0  0  0
   -8.2970   55.3797   36.6137 H   0  0  0  0  0  0
   -6.9312   57.1605   35.7403 H   0  0  0  0  0  0
   -6.8257   55.9243   34.5703 H   0  0  0  0  0  0
   -9.5067   58.5039   34.9742 H   0  0  0  0  0  0
   -7.9265   59.1731   35.2631 H   0  0  0  0  0  0
   -9.1273   60.7481   33.9410 H   0  0  0  0  0  0
   -9.6026   59.5734   32.7516 H   0  0  0  0  0  0
   -6.3260   59.2063   31.3723 H   0  0  0  0  0  0
   -7.9701   58.6299   31.3635 H   0  0  0  0  0  0
   -5.9621   58.1970   33.6255 H   0  0  0  0  0  0
   -6.4874   56.9593   32.5190 H   0  0  0  0  0  0
  1  6  1  0  0  0
  1  2  2  0  0  0
  1 36  1  0  0  0
  2  3  1  0  0  0
  2 37  1  0  0  0
  3  4  2  0  0  0
  3 38  1  0  0  0
  4  5  1  0  0  0
  4  7  1  0  0  0
  5  6  2  0  0  0
  5 39  1  0  0  0
  6 40  1  0  0  0
  7  8  1  0  0  0
  8 13  1  0  0  0
  8  9  2  0  0  0
  9 10  1  0  0  0
  9 41  1  0  0  0
 10 11  2  0  0  0
 10 42  1  0  0  0
 11 12  1  0  0  0
 11 14  1  0  0  0
 12 13  2  0  0  0
 12 43  1  0  0  0
 13 44  1  0  0  0
 14 15  1  0  0  0
 14 45  1  0  0  0
 15 24  1  0  0  0
 15 16  2  0  0  0
 16 21  1  0  0  0
 16 17  1  0  0  0
 17 18  2  0  0  0
 17 46  1  0  0  0
 18 19  1  0  0  0
 18 27  1  0  0  0
 19 20  2  0  0  0
 20 21  1  0  0  0
 20 47  1  0  0  0
 21 22  2  0  0  0
 22 23  1  0  0  0
 23 24  2  0  0  0
 23 48  1  0  0  0
 24 25  1  0  0  0
 25 26  3  0  0  0
 27 28  1  0  0  0
 27 49  1  0  0  0
 28 29  1  0  0  0
 28 50  1  0  0  0
 28 51  1  0  0  0
 29 30  1  0  0  0
 29 52  1  0  0  0
 29 53  1  0  0  0
 30 35  1  0  0  0
 30 31  1  0  0  0
 31 32  1  0  0  0
 31 54  1  0  0  0
 31 55  1  0  0  0
 32 33  1  0  0  0
 32 56  1  0  0  0
 32 57  1  0  0  0
 33 34  1  0  0  0
 34 35  1  0  0  0
 34 58  1  0  0  0
 34 59  1  0  0  0
 35 60  1  0  0  0
 35 61  1  0  0  0
M  END
> <s_m_entry_id>
66115

> <s_m_entry_name>
ligand_docking-pose.171

> <s_m_Source_Path>
/home/csk/Desktop/cluster/DUD-E-result/mp2k1

> <s_m_Source_File>
ligand_docking-pose.sdf

> <i_m_Source_File_Index>
171

> <i_lp_mmshare_version>
53161

> <r_lp_tautomer_probability>
1

> <s_lp_Force_Field>
OPLS_2005

> <r_lp_Energy>
49.508294

> <b_lp_Chiralities_Consistent>
1

> <s_lp_Variant>
333277-1

> <s_i_glide_gridfile>
glide-grid_3eqh

> <i_i_glide_lignum>
109

> <i_i_glide_rotatable_bonds>
8

> <r_i_docking_score>
-6.81072183049581

> <r_i_glide_ligand_efficiency>
-0.19459205229988

> <r_i_glide_ligand_efficiency_sa>
-0.63652350575424

> <r_i_glide_ligand_efficiency_ln>
-1.4951045976208

> <r_i_glide_gscore>
-6.81072183049581

> <r_i_glide_lipo>
-3.97623731029095

> <r_i_glide_hbond>
0

> <r_i_glide_metal>
0

> <r_i_glide_rewards>
-0.345819073833075

> <r_i_glide_evdw>
-50.4259719848633

> <r_i_glide_ecoul>
-4.10821151733398

> <r_i_glide_erotb>
0.648864880471484

> <r_i_glide_esite>
0

> <r_i_glide_emodel>
-57.4209275120322

> <r_i_glide_energy>
-54.5341835021973

> <r_i_glide_einternal>
21.995849609375

> <i_i_glide_confnum>
10

> <i_i_glide_posenum>
4

> <r_i_glide_eff_state_penalty>
0

> <i_f3d_flags>
0

> <s_user_duplicate_titles>
333277

> <s_m_subgroup_title>
dock_pv

> <s_m_subgroupid>
dock_pv1

> <b_m_subgroup_collapsed>
0

$$$$
156555
                    3D
 Schrodinger Suite 2021-1.
 45 48  0  0  1  0            999 V2000
   -9.0502   51.8741   27.4417 C   0  0  0  0  0  0
   -7.8849   51.4968   28.1635 O   0  0  0  0  0  0
   -7.4764   52.2779   29.2222 C   0  0  0  0  0  0
   -6.2420   51.9622   29.7770 C   0  0  0  0  0  0
   -5.7019   52.7156   30.8128 C   0  0  0  0  0  0
   -6.4040   53.8355   31.3413 C   0  0  0  0  0  0
   -7.6908   54.1323   30.7995 C   0  0  0  0  0  0
   -8.2115   53.3483   29.7445 C   0  0  0  0  0  0
   -8.4425   55.1661   31.2493 N   0  0  0  0  0  0
   -7.9120   55.9845   32.1829 C   0  0  0  0  0  0
   -6.6537   55.8084   32.7563 C   0  0  0  0  0  0
   -5.8771   54.6949   32.3614 C   0  0  0  0  0  0
   -4.6440   54.3408   32.9484 N   0  0  0  0  0  0
   -3.4672   55.0528   33.2108 C   0  0  0  0  0  0
   -2.4774   54.3992   33.9425 C   0  0  0  0  0  0
   -1.2475   55.0120   34.1590 C   0  0  0  0  0  0
   -1.0172   56.3073   33.6982 C   0  0  0  0  0  0
   -2.0106   56.9589   32.9579 C   0  0  0  0  0  0
   -3.2230   56.3278   32.6970 C   0  0  0  0  0  0
    0.2184   56.8749   33.9394 O   0  0  0  0  0  0
    0.3467   58.2393   34.0956 C   0  0  0  0  0  0
   -0.4734   58.9595   34.9710 C   0  0  0  0  0  0
   -0.3257   60.3392   35.0877 C   0  0  0  0  0  0
    0.6495   60.9956   34.3390 C   0  0  0  0  0  0
    1.4813   60.2828   33.4775 C   0  0  0  0  0  0
    1.3306   58.9031   33.3626 C   0  0  0  0  0  0
   -6.2439   56.7819   33.7633 C   0  0  0  0  0  0
   -5.9219   57.5585   34.5604 N   0  0  0  0  0  0
   -9.1260   51.2258   26.5720 H   0  0  0  0  0  0
   -8.9926   52.9019   27.0768 H   0  0  0  0  0  0
   -9.9542   51.7535   28.0405 H   0  0  0  0  0  0
   -5.6808   51.1288   29.3810 H   0  0  0  0  0  0
   -4.7259   52.4547   31.1934 H   0  0  0  0  0  0
   -9.1788   53.6154   29.3443 H   0  0  0  0  0  0
   -8.5449   56.8148   32.4646 H   0  0  0  0  0  0
   -4.5138   53.3431   33.0145 H   0  0  0  0  0  0
   -2.6469   53.4035   34.3258 H   0  0  0  0  0  0
   -0.4720   54.4794   34.6858 H   0  0  0  0  0  0
   -1.8315   57.9468   32.5626 H   0  0  0  0  0  0
   -3.9582   56.8312   32.0864 H   0  0  0  0  0  0
   -1.2302   58.4495   35.5488 H   0  0  0  0  0  0
   -0.9710   60.8997   35.7478 H   0  0  0  0  0  0
    0.7592   62.0666   34.4299 H   0  0  0  0  0  0
    2.2357   60.7948   32.8976 H   0  0  0  0  0  0
    1.9603   58.3474   32.6836 H   0  0  0  0  0  0
  1  2  1  0  0  0
  1 29  1  0  0  0
  1 30  1  0  0  0
  1 31  1  0  0  0
  2  3  1  0  0  0
  3  8  1  0  0  0
  3  4  2  0  0  0
  4  5  1  0  0  0
  4 32  1  0  0  0
  5  6  2  0  0  0
  5 33  1  0  0  0
  6 12  1  0  0  0
  6  7  1  0  0  0
  7  8  2  0  0  0
  7  9  1  0  0  0
  8 34  1  0  0  0
  9 10  2  0  0  0
 10 11  1  0  0  0
 10 35  1  0  0  0
 11 12  2  0  0  0
 11 27  1  0  0  0
 12 13  1  0  0  0
 13 14  1  0  0  0
 13 36  1  0  0  0
 14 19  1  0  0  0
 14 15  2  0  0  0
 15 16  1  0  0  0
 15 37  1  0  0  0
 16 17  2  0  0  0
 16 38  1  0  0  0
 17 18  1  0  0  0
 17 20  1  0  0  0
 18 19  2  0  0  0
 18 39  1  0  0  0
 19 40  1  0  0  0
 20 21  1  0  0  0
 21 26  1  0  0  0
 21 22  2  0  0  0
 22 23  1  0  0  0
 22 41  1  0  0  0
 23 24  2  0  0  0
 23 42  1  0  0  0
 24 25  1  0  0  0
 24 43  1  0  0  0
 25 26  2  0  0  0
 25 44  1  0  0  0
 26 45  1  0  0  0
 27 28  3  0  0  0
M  END
> <s_m_entry_id>
66116

> <s_m_entry_name>
ligand_docking-pose.172

> <s_m_Source_Path>
/home/csk/Desktop/cluster/DUD-E-result/mp2k1

> <s_m_Source_File>
ligand_docking-pose.sdf

> <i_m_Source_File_Index>
172

> <i_lp_mmshare_version>
53161

> <r_lp_tautomer_probability>
1

> <s_lp_Force_Field>
OPLS_2005

> <r_lp_Energy>
35.054294

> <b_lp_Chiralities_Consistent>
1

> <s_lp_Variant>
156555-1

> <s_i_glide_gridfile>
glide-grid_3eqh

> <i_i_glide_lignum>
397

> <i_i_glide_rotatable_bonds>
5

> <r_i_docking_score>
-6.80373717150622

> <r_i_glide_ligand_efficiency>
-0.242990613268079

> <r_i_glide_ligand_efficiency_sa>
-0.737862615699584

> <r_i_glide_ligand_efficiency_ln>
-1.57050230558738

> <r_i_glide_gscore>
-6.80373717150622

> <r_i_glide_lipo>
-3.45036173352326

> <r_i_glide_hbond>
-0.0480249000909126

> <r_i_glide_metal>
0

> <r_i_glide_rewards>
-1.11685318541963

> <r_i_glide_evdw>
-45.2411117553711

> <r_i_glide_ecoul>
-3.3141942024231

> <r_i_glide_erotb>
0.570687365659601

> <r_i_glide_esite>
0

> <r_i_glide_emodel>
-66.4096098983034

> <r_i_glide_energy>
-48.5553059577942

> <r_i_glide_einternal>
1.40404486656189

> <i_i_glide_confnum>
6

> <i_i_glide_posenum>
251

> <r_i_glide_eff_state_penalty>
0

> <i_f3d_flags>
0

> <s_user_duplicate_titles>
156555

> <s_m_subgroup_title>
dock_pv

> <s_m_subgroupid>
dock_pv1

> <b_m_subgroup_collapsed>
0

$$$$
363038
                    3D
 Schrodinger Suite 2021-1.
 60 63  0  0  1  0            999 V2000
   -8.6093   59.9349   34.3459 C   0  0  0  0  0  0
   -8.3810   58.4997   34.3777 N   0  0  0  0  0  0
   -8.4950   57.9503   33.0238 C   0  0  0  0  0  0
   -8.2346   56.4314   33.0549 C   0  0  0  0  0  0
   -9.1993   55.7269   33.9179 N   0  0  0  0  0  0
   -9.1422   56.3210   35.2651 C   0  0  0  0  0  0
   -9.3918   57.8492   35.2147 C   0  0  0  0  0  0
   -8.9440   54.2798   34.0315 C   0  0  0  0  0  0
   -8.9491   53.4614   32.7162 C   0  0  0  0  0  0
   -7.7418   53.7042   31.9380 N   0  0  0  0  0  0
   -6.8354   52.8197   31.8370 C   0  0  0  0  0  0
   -5.6417   53.1841   31.0651 C   0  0  0  0  0  0
   -5.1535   52.4843   29.9490 C   0  0  0  0  0  0
   -4.0595   52.9157   29.3652 N   0  0  0  0  0  0
   -3.5444   54.3390   30.1580 S   0  0  0  0  0  0
   -4.8224   54.2795   31.3345 C   0  0  0  0  0  0
   -4.9617   55.2275   32.3248 N   0  0  0  0  0  0
   -3.9612   55.9152   33.0253 C   0  0  0  0  0  0
   -2.7114   55.3420   33.2889 C   0  0  0  0  0  0
   -1.7718   56.0368   34.0473 C   0  0  0  0  0  0
   -2.0741   57.3110   34.5335 C   0  0  0  0  0  0
   -3.3130   57.8855   34.2640 C   0  0  0  0  0  0
   -4.2611   57.1823   33.5254 C   0  0  0  0  0  0
   -1.1704   57.9906   35.3135 O   0  0  0  0  0  0
   -0.3283   58.8841   34.6950 C   0  0  0  0  0  0
    0.6097   58.4358   33.7626 C   0  0  0  0  0  0
    1.4639   59.3374   33.1377 C   0  0  0  0  0  0
    1.3903   60.6970   33.4276 C   0  0  0  0  0  0
    0.4612   61.1533   34.3638 C   0  0  0  0  0  0
   -0.3904   60.2492   35.0010 C   0  0  0  0  0  0
   -1.5248   60.8385   36.1630 Cl  0  0  0  0  0  0
    2.6218   58.7487   32.0158 Cl  0  0  0  0  0  0
   -5.7282   51.3700   29.4001 O   0  0  0  0  0  0
   -6.7342   51.5471   32.3478 N   0  0  0  0  0  0
   -8.5024   60.3557   35.3467 H   0  0  0  0  0  0
   -7.8643   60.3843   33.6970 H   0  0  0  0  0  0
   -9.6004   60.1910   33.9680 H   0  0  0  0  0  0
   -7.7640   58.4216   32.3662 H   0  0  0  0  0  0
   -9.4785   58.1526   32.5977 H   0  0  0  0  0  0
   -8.3284   56.0865   32.0261 H   0  0  0  0  0  0
   -7.2182   56.2258   33.3888 H   0  0  0  0  0  0
   -8.1760   56.1201   35.7338 H   0  0  0  0  0  0
   -9.9014   55.8585   35.8985 H   0  0  0  0  0  0
   -9.3460   58.2694   36.2174 H   0  0  0  0  0  0
  -10.3915   58.0527   34.8316 H   0  0  0  0  0  0
   -8.0187   54.0860   34.5749 H   0  0  0  0  0  0
   -9.7351   53.8682   34.6603 H   0  0  0  0  0  0
   -9.0920   52.4081   32.9675 H   0  0  0  0  0  0
   -9.8276   53.7127   32.1183 H   0  0  0  0  0  0
   -5.8948   55.4891   32.6039 H   0  0  0  0  0  0
   -2.4755   54.3475   32.9409 H   0  0  0  0  0  0
   -0.8154   55.5880   34.2641 H   0  0  0  0  0  0
   -3.5300   58.8771   34.6283 H   0  0  0  0  0  0
   -5.2244   57.6311   33.3355 H   0  0  0  0  0  0
    0.6735   57.3881   33.5201 H   0  0  0  0  0  0
    2.0546   61.3951   32.9367 H   0  0  0  0  0  0
    0.4036   62.2082   34.5965 H   0  0  0  0  0  0
   -6.5100   51.1569   29.9177 H   0  0  0  0  0  0
   -7.4515   51.1961   32.9617 H   0  0  0  0  0  0
   -5.8837   51.0092   32.2487 H   0  0  0  0  0  0
  1  2  1  0  0  0
  1 35  1  0  0  0
  1 36  1  0  0  0
  1 37  1  0  0  0
  2  7  1  0  0  0
  2  3  1  0  0  0
  3  4  1  0  0  0
  3 38  1  0  0  0
  3 39  1  0  0  0
  4  5  1  0  0  0
  4 40  1  0  0  0
  4 41  1  0  0  0
  5  6  1  0  0  0
  5  8  1  0  0  0
  6  7  1  0  0  0
  6 42  1  0  0  0
  6 43  1  0  0  0
  7 44  1  0  0  0
  7 45  1  0  0  0
  8  9  1  0  0  0
  8 46  1  0  0  0
  8 47  1  0  0  0
  9 10  1  0  0  0
  9 48  1  0  0  0
  9 49  1  0  0  0
 10 11  2  0  0  0
 11 12  1  0  0  0
 11 34  1  0  0  0
 12 16  2  0  0  0
 12 13  1  0  0  0
 13 14  2  0  0  0
 13 33  1  0  0  0
 14 15  1  0  0  0
 15 16  1  0  0  0
 16 17  1  0  0  0
 17 18  1  0  0  0
 17 50  1  0  0  0
 18 23  1  0  0  0
 18 19  2  0  0  0
 19 20  1  0  0  0
 19 51  1  0  0  0
 20 21  2  0  0  0
 20 52  1  0  0  0
 21 22  1  0  0  0
 21 24  1  0  0  0
 22 23  2  0  0  0
 22 53  1  0  0  0
 23 54  1  0  0  0
 24 25  1  0  0  0
 25 30  1  0  0  0
 25 26  2  0  0  0
 26 27  1  0  0  0
 26 55  1  0  0  0
 27 28  2  0  0  0
 27 32  1  0  0  0
 28 29  1  0  0  0
 28 56  1  0  0  0
 29 30  2  0  0  0
 29 57  1  0  0  0
 30 31  1  0  0  0
 33 58  1  0  0  0
 34 59  1  0  0  0
 34 60  1  0  0  0
M  END
> <s_m_entry_id>
66117

> <s_m_entry_name>
ligand_docking-pose.173

> <s_m_Source_Path>
/home/csk/Desktop/cluster/DUD-E-result/mp2k1

> <s_m_Source_File>
ligand_docking-pose.sdf

> <i_m_Source_File_Index>
173

> <i_lp_mmshare_version>
53161

> <r_lp_tautomer_probability>
1

> <s_lp_Force_Field>
OPLS_2005

> <r_lp_Energy>
52.14906

> <b_lp_Chiralities_Consistent>
1

> <s_lp_Variant>
363038-1

> <s_i_glide_gridfile>
glide-grid_3eqh

> <i_i_glide_lignum>
365

> <i_i_glide_rotatable_bonds>
9

> <r_i_docking_score>
-6.80057178364823

> <r_i_glide_ligand_efficiency>
-0.200016817166124

> <r_i_glide_ligand_efficiency_sa>
-0.64797684058367

> <r_i_glide_ligand_efficiency_ln>
-1.50243705658531

> <r_i_glide_gscore>
-6.80057178364823

> <r_i_glide_lipo>
-4.32025442695917

> <r_i_glide_hbond>
0

> <r_i_glide_metal>
0

> <r_i_glide_rewards>
-0.218930734915789

> <r_i_glide_evdw>
-58.1544342041016

> <r_i_glide_ecoul>
0.276848554611206

> <r_i_glide_erotb>
0.604807805240133

> <r_i_glide_esite>
0

> <r_i_glide_emodel>
-76.8184154826195

> <r_i_glide_energy>
-57.8775856494904

> <r_i_glide_einternal>
7.93256568908691

> <i_i_glide_confnum>
42

> <i_i_glide_posenum>
95

> <r_i_glide_eff_state_penalty>
0

> <i_f3d_flags>
0

> <s_user_duplicate_titles>
363038

> <s_m_subgroup_title>
dock_pv

> <s_m_subgroupid>
dock_pv1

> <b_m_subgroup_collapsed>
0

$$$$
